data_PCOD8290669
_publ_section_title
;
Structure prediction by ZEFSAII (Michael W. Deem and Ramdas Pophale) SiO2 
 PCOD8290669
Probable space group: I M M M
;
_chemical_formula_sum "Si O2"
_cell_formula_units_Z 88
_cell_length_a 20.060597
_cell_length_b 13.766188
_cell_length_c 16.584970
_cell_angle_alpha 90.000000
_cell_angle_beta 90.000000
_cell_angle_gamma 90.000000
_cell_volume 4580.071311
_symmetry_space_group_name_H-M "I M M M"
_symmetry_group_IT_number 71
_symmetry_cell_setting 'orthorhombic'
loop_
_space_group_symop_operation_xyz
x,y,z
-x,-y,z
x,-y,-z
-x,y,-z
-x,-y,-z
x,y,-z
-x,y,z
x,-y,z
1/2+x,1/2+y,1/2+z
1/2-x,1/2-y,1/2+z
1/2+x,1/2-y,1/2-z
1/2-x,1/2+y,1/2-z
1/2-x,1/2-y,1/2-z
1/2+x,1/2+y,1/2-z
1/2-x,1/2+y,1/2+z
1/2+x,1/2-y,1/2+z
loop_
_atom_site_type_symbol
_atom_site_label
_atom_site_fract_x
_atom_site_fract_y
_atom_site_fract_z
Si Si1 0.500000 0.112274 0.095445
Si Si2 0.801988 0.107905 0.318737
Si Si3 0.423626 0.808601 0.500000
Si Si4 0.845913 0.614759 0.845877
Si Si5 0.128525 0.703500 0.674254
Si Si6 0.360700 0.385483 0.500000
Si Si7 0.239400 0.107629 0.864722
O O1 0.563327 0.167572 0.130040
O O2 0.500000 0.000000 0.123458
O O3 0.500000 0.120399 0.000000
O O4 0.732271 0.140476 0.361132
O O5 0.863878 0.179723 0.335129
O O6 0.788537 0.110852 0.224342
O O7 0.823116 0.000000 0.347237
O O8 0.500000 0.841691 0.500000
O O9 0.388836 0.853979 0.578049
O O10 0.422148 0.690141 0.500000
O O11 0.852808 0.500000 0.829097
O O12 0.872965 0.670580 0.767218
O O13 0.192603 0.665567 0.626276
O O14 0.382969 0.500000 0.500000
O O15 0.318378 0.353361 0.422353
O O16 0.257537 0.000000 0.893149
#
# Coordination Sequence:
#
# PCOD8290669 Si02
#       7
#     8  16   8  16  16   8  16
#     4  11  26  42  57  84 118 146 182 228 279 339
#     4   9  18  35  60  87 112 141 184 235 279 328
#     4  12  25  37  52  79 118 158 194 226 273 328
#     4  10  21  38  59  85 114 146 188 234 280 329
#     4  11  20  37  61  83 113 150 185 222 284 339
#     4  10  20  34  55  83 112 144 187 239 286 332
#     4   9  17  31  57  87 111 139 184 238 287 330
#
# _framework density 19.213674000000001
#
# number of rings (size 3 to 8) (size 9 to 14) (size 15 to 20)
#    0.000    1.909    0.000    7.364    2.545    0.909 
#    1.636    0.455    0.000    0.545    0.000    0.000 
#    0.000    0.000    0.000    0.000    0.000    0.000 
#
# Total GULP energy -545419.792232 kJ/mol
# GULP energy per Si atom -12395.904369 kJ/mol
# Density = 1.916994 g / cm^3
# Si number density = 19.213674 Si / 1000 Ang^3
#
#
#
# Elastic Constant Matrix: (Units=GPa)
#
#
# Indices 1 2 3 4 5 6 
#
# 1 100.0825 72.7837 45.2307 0.0000 0.0000 0.0000
# 2 72.7837 108.3107 36.3531 0.0000 0.0000 0.0000
# 3 45.2307 36.3531 71.4926 0.0000 0.0000 0.0000
# 4 0.0000 0.0000 0.0000 20.7784 0.0000 0.0000
# 5 0.0000 0.0000 0.0000 0.0000 10.5707 0.0000
# 6 0.0000 0.0000 0.0000 0.0000 0.0000 21.2660
#
#
#
# Elastic Compliance Matrix: (Units=1/GPa)
#
#
# Indices 1 2 3 4 5 6 
#
# 1 0.022792 -0.012632 -0.007996 0.000000 0.000000 0.000000
# 2 -0.012632 0.018134 -0.001229 0.000000 0.000000 0.000000
# 3 -0.007996 -0.001229 0.019671 0.000000 0.000000 0.000000
# 4 0.000000 0.000000 0.000000 0.048127 0.000000 0.000000
# 5 0.000000 0.000000 0.000000 0.000000 0.094601 0.000000
# 6 0.000000 0.000000 0.000000 0.000000 0.000000 0.047023
#
#
# Mechanical properties :
#
#
# Convention : Reuss Voigt Hill
#
# Bulk Modulus (GPa) = 59.23357 65.40232 62.31795
# Shear Modulus (GPa) = 16.68381 18.89091 17.78736
#
# Velocity S-wave (km/s) = 2.94994 3.13901 3.04594
# Velocity P-wave (km/s) = 6.51910 6.87395 6.69887
#
# Compressibility (1/GPa) = 0.01688232
#
# Stress axis : x y z
#
# Youngs Moduli (GPa) = 43.87446 55.14519 50.83515
#
# Poissons Ratio (x) = 0.69661 0.40650
# Poissons Ratio (y) = 0.55423 0.06247
# Poissons Ratio (z) = 0.35084 0.06777
#
# Static dielectric constant tensor:
#      x y z
#    x 2.923460 0.000000 0.000000 
#    y 0.000000 3.955090 0.000000 
#    z 0.000000 0.000000 3.522500 
# 
# 
# High freq. dielectric constant tensor:
#      x y z
#    x 1.719300 0.000000 0.000000 
#    y 0.000000 1.766760 0.000000 
#    z 0.000000 0.000000 1.741950 
# 
# From -- ./inp_files/45884.got.cif
#   From: 2010.06.25/outbox.cif.g09.slc.cpg/sg71_23_cif.got.tgz:45884.got - 2010.06.28 04:59:45.
