data_PCOD8290721
_publ_section_title
;
Structure prediction by ZEFSAII (Michael W. Deem and Ramdas Pophale) SiO2 
 PCOD8290721
Probable space group: I M M M
;
_chemical_formula_sum "Si O2"
_cell_formula_units_Z 104
_cell_length_a 7.862539
_cell_length_b 22.046269
_cell_length_c 27.997069
_cell_angle_alpha 90.000000
_cell_angle_beta 90.000000
_cell_angle_gamma 90.000000
_cell_volume 4853.002136
_symmetry_space_group_name_H-M "I M M M"
_symmetry_group_IT_number 71
_symmetry_cell_setting 'orthorhombic'
loop_
_space_group_symop_operation_xyz
x,y,z
-x,-y,z
x,-y,-z
-x,y,-z
-x,-y,-z
x,y,-z
-x,y,z
x,-y,z
1/2+x,1/2+y,1/2+z
1/2-x,1/2-y,1/2+z
1/2+x,1/2-y,1/2-z
1/2-x,1/2+y,1/2-z
1/2-x,1/2-y,1/2-z
1/2+x,1/2+y,1/2-z
1/2-x,1/2+y,1/2+z
1/2+x,1/2-y,1/2+z
loop_
_atom_site_type_symbol
_atom_site_label
_atom_site_fract_x
_atom_site_fract_y
_atom_site_fract_z
Si Si1 0.301419 0.931666 0.617398
Si Si2 0.807364 0.849940 0.700159
Si Si3 0.695707 0.254407 0.363020
Si Si4 0.690233 0.884691 0.880557
Si Si5 0.300193 0.567559 0.284064
Si Si6 0.300352 0.173026 0.551990
Si Si7 0.000000 0.928353 0.056371
O O1 0.500000 0.927148 0.630713
O O2 0.196612 0.901411 0.659787
O O3 0.263424 0.895862 0.568321
O O4 0.239320 0.000000 0.609905
O O5 0.711554 0.788410 0.684000
O O6 0.727950 0.881024 0.747786
O O7 0.000000 0.831148 0.710228
O O8 0.500000 0.270362 0.370485
O O9 0.795414 0.316973 0.359044
O O10 0.774602 0.219235 0.408811
O O11 0.500000 0.894053 0.901904
O O12 0.712010 0.928652 0.835471
O O13 0.829831 0.898698 0.921268
O O14 0.500000 0.577867 0.291389
O O15 0.263290 0.500000 0.263528
O O16 0.215735 0.183934 0.500000
O O17 0.500000 0.184355 0.548778
O O18 0.000000 0.000000 0.066593
O O19 0.000000 0.914129 0.000000
#
# Coordination Sequence:
#
# PCOD8290721 Si02
#       7
#    16  16  16  16  16  16   8
#     4   9  17  29  46  71 108 152 199 255 315 375
#     4  10  20  34  56  86 120 164 213 262 316 379
#     4  10  20  38  59  86 125 168 208 264 326 383
#     4  12  25  43  70 102 132 171 215 264 322 387
#     4  10  21  39  62  89 126 170 214 265 327 388
#     4   8  15  28  49  76 104 144 198 253 311 374
#     4  11  26  50  76 102 138 176 211 265 328 388
#
# _framework density 21.430036000000001
#
# number of rings (size 3 to 8) (size 9 to 14) (size 15 to 20)
#    0.000    2.077    1.538    2.769    0.000    5.231 
#    0.000    2.308    0.000   11.077    0.000    4.308 
#    0.000    0.000    0.000    0.000    0.000    0.000 
#
# Total GULP energy -644588.289604 kJ/mol
# GULP energy per Si atom -12395.928646 kJ/mol
# Density = 2.138126 g / cm^3
# Si number density = 21.430036 Si / 1000 Ang^3
#
#
#
# Elastic Constant Matrix: (Units=GPa)
#
#
# Indices 1 2 3 4 5 6 
#
# 1 84.4911 27.2546 30.7289 0.0000 0.0000 0.0000
# 2 27.2546 113.5661 30.1120 0.0000 0.0000 0.0000
# 3 30.7289 30.1120 112.5472 0.0000 0.0000 0.0000
# 4 0.0000 0.0000 0.0000 26.3781 0.0000 0.0000
# 5 0.0000 0.0000 0.0000 0.0000 22.7763 0.0000
# 6 0.0000 0.0000 0.0000 0.0000 0.0000 23.3693
#
#
#
# Elastic Compliance Matrix: (Units=1/GPa)
#
#
# Indices 1 2 3 4 5 6 
#
# 1 0.013761 -0.002482 -0.003093 0.000000 0.000000 0.000000
# 2 -0.002482 0.009926 -0.001978 0.000000 0.000000 0.000000
# 3 -0.003093 -0.001978 0.010259 0.000000 0.000000 0.000000
# 4 0.000000 0.000000 0.000000 0.037910 0.000000 0.000000
# 5 0.000000 0.000000 0.000000 0.000000 0.043905 0.000000
# 6 0.000000 0.000000 0.000000 0.000000 0.000000 0.042791
#
#
# Mechanical properties :
#
#
# Convention : Reuss Voigt Hill
#
# Bulk Modulus (GPa) = 53.08119 54.08839 53.58479
# Shear Modulus (GPa) = 27.78725 29.33868 28.56296
#
# Velocity S-wave (km/s) = 3.60481 3.70407 3.65478
# Velocity P-wave (km/s) = 6.49226 6.60211 6.54742
#
# Compressibility (1/GPa) = 0.01883906
#
# Stress axis : x y z
#
# Youngs Moduli (GPa) = 72.66772 100.74938 97.47701
#
# Poissons Ratio (x) = 0.25010 0.30150
# Poissons Ratio (y) = 0.18039 0.19279
# Poissons Ratio (z) = 0.22477 0.19926
#
# Static dielectric constant tensor:
#      x y z
#    x 3.615510 0.000000 0.000000 
#    y 0.000000 3.946890 0.000000 
#    z 0.000000 0.000000 3.973220 
# 
# 
# High freq. dielectric constant tensor:
#      x y z
#    x 1.819200 0.000000 0.000000 
#    y 0.000000 1.847410 0.000000 
#    z 0.000000 0.000000 1.829570 
# 
# From -- ./inp_files/63548.got.cif
#   From: 2010.06.25/outbox.cif.g09.slc.cpg/sg71_32_cif.got.tgz:63548.got - 2010.06.28 04:59:45.
