data_PCOD8290231
_publ_section_title
;
Structure prediction by ZEFSAII (Michael W. Deem and Ramdas Pophale) SiO2 
 PCOD8290231
Probable space group: I M M M
;
_chemical_formula_sum "Si O2"
_cell_formula_units_Z 96
_cell_length_a 17.851879
_cell_length_b 24.352435
_cell_length_c 12.180559
_cell_angle_alpha 90.000000
_cell_angle_beta 90.000000
_cell_angle_gamma 90.000000
_cell_volume 5295.336304
_symmetry_space_group_name_H-M "I M M M"
_symmetry_group_IT_number 71
_symmetry_cell_setting 'orthorhombic'
loop_
_space_group_symop_operation_xyz
x,y,z
-x,-y,z
x,-y,-z
-x,y,-z
-x,-y,-z
x,y,-z
-x,y,z
x,-y,z
1/2+x,1/2+y,1/2+z
1/2-x,1/2-y,1/2+z
1/2+x,1/2-y,1/2-z
1/2-x,1/2+y,1/2-z
1/2-x,1/2-y,1/2-z
1/2+x,1/2+y,1/2-z
1/2-x,1/2+y,1/2+z
1/2+x,1/2-y,1/2+z
loop_
_atom_site_type_symbol
_atom_site_label
_atom_site_fract_x
_atom_site_fract_y
_atom_site_fract_z
Si Si1 0.322836 0.937341 0.500000
Si Si2 0.727185 0.060743 0.740118
Si Si3 0.862757 0.290168 0.621997
Si Si4 0.915778 0.589681 0.624689
Si Si5 0.912571 0.327222 0.000000
Si Si6 0.413448 0.262979 0.329795
Si Si7 0.288547 0.654867 0.376352
O O1 0.273584 0.928704 0.609352
O O2 0.383970 0.889294 0.500000
O O3 0.356977 0.000000 0.500000
O O4 0.643225 0.064343 0.790317
O O5 0.784902 0.102937 0.795403
O O6 0.758258 0.000000 0.763624
O O7 0.866319 0.265099 0.500000
O O8 0.912449 0.344689 0.630426
O O9 0.897490 0.244619 0.701411
O O10 0.776900 0.302453 0.656100
O O11 0.897669 0.570161 0.500000
O O12 0.000000 0.571305 0.658172
O O13 0.886645 0.292253 0.893310
O O14 0.000000 0.333955 0.000000
O O15 0.500000 0.275418 0.353923
O O16 0.368609 0.316068 0.370725
O O17 0.273254 0.633528 0.500000
#
# Coordination Sequence:
#
# PCOD8290231 Si02
#       7
#     8  16  16  16   8  16  16
#     4  10  22  37  52  76 111 143 183 229 258 309
#     4  10  21  37  55  75 102 141 183 227 278 327
#     4   9  18  31  49  74 104 142 179 214 259 313
#     4   9  17  30  49  75 108 140 176 224 268 311
#     4  10  20  33  52  76 105 149 185 208 262 323
#     4  11  21  34  53  78 111 144 178 225 273 325
#     4  10  20  36  55  78 107 137 178 229 279 322
#
# _framework density 18.129161
#
# number of rings (size 3 to 8) (size 9 to 14) (size 15 to 20)
#    0.000    2.167    0.833    4.500    0.000    4.833 
#    1.500    2.500    0.000    0.500    0.000    1.167 
#    0.000    2.000    0.000    0.000    0.000    0.000 
#
# Total GULP energy -595091.176794 kJ/mol
# GULP energy per Si atom -12397.732850 kJ/mol
# Density = 1.808790 g / cm^3
# Si number density = 18.129161 Si / 1000 Ang^3
#
#
#
# Elastic Constant Matrix: (Units=GPa)
#
#
# Indices 1 2 3 4 5 6 
#
# 1 73.2476 46.2406 29.3031 0.0000 0.0000 0.0000
# 2 46.2406 98.8631 45.5242 0.0000 0.0000 0.0000
# 3 29.3031 45.5242 109.5574 0.0000 0.0000 0.0000
# 4 0.0000 0.0000 0.0000 12.9015 0.0000 0.0000
# 5 0.0000 0.0000 0.0000 0.0000 17.0909 0.0000
# 6 0.0000 0.0000 0.0000 0.0000 0.0000 15.4666
#
#
#
# Elastic Compliance Matrix: (Units=1/GPa)
#
#
# Indices 1 2 3 4 5 6 
#
# 1 0.019648 -0.008372 -0.001776 0.000000 0.000000 0.000000
# 2 -0.008372 0.016076 -0.004441 0.000000 0.000000 0.000000
# 3 -0.001776 -0.004441 0.011448 0.000000 0.000000 0.000000
# 4 0.000000 0.000000 0.000000 0.077511 0.000000 0.000000
# 5 0.000000 0.000000 0.000000 0.000000 0.058511 0.000000
# 6 0.000000 0.000000 0.000000 0.000000 0.000000 0.064655
#
#
# Mechanical properties :
#
#
# Convention : Reuss Voigt Hill
#
# Bulk Modulus (GPa) = 55.57510 58.20043 56.88777
# Shear Modulus (GPa) = 17.66633 19.79847 18.73240
#
# Velocity S-wave (km/s) = 3.12504 3.30825 3.21795
# Velocity P-wave (km/s) = 6.61383 6.83854 6.72712
#
# Compressibility (1/GPa) = 0.01799367
#
# Stress axis : x y z
#
# Youngs Moduli (GPa) = 50.89547 62.20638 87.35151
#
# Poissons Ratio (x) = 0.52078 0.15518
# Poissons Ratio (y) = 0.42609 0.38790
# Poissons Ratio (z) = 0.09042 0.27624
#
# Static dielectric constant tensor:
#      x y z
#    x 3.110500 0.000000 0.000000 
#    y 0.000000 3.177760 0.000000 
#    z 0.000000 0.000000 3.602830 
# 
# 
# High freq. dielectric constant tensor:
#      x y z
#    x 1.668500 0.000000 0.000000 
#    y 0.000000 1.677820 0.000000 
#    z 0.000000 0.000000 1.720660 
# 
# From -- ./inp_files/24271.got.cif
#   From: 2010.06.25/outbox.cif.g09.slc.cpg/sg71_13_cif.got.tgz:24271.got - 2010.06.28 04:59:45.
