data_PCOD8290032
_publ_section_title
;
Structure prediction by ZEFSAII (Michael W. Deem and Ramdas Pophale) SiO2 
 PCOD8290032
Probable space group: I M M M
;
_chemical_formula_sum "Si O2"
_cell_formula_units_Z 56
_cell_length_a 8.673680
_cell_length_b 12.135115
_cell_length_c 30.628265
_cell_angle_alpha 90.000000
_cell_angle_beta 90.000000
_cell_angle_gamma 90.000000
_cell_volume 3223.811855
_symmetry_space_group_name_H-M "I M M M"
_symmetry_group_IT_number 71
_symmetry_cell_setting 'orthorhombic'
loop_
_space_group_symop_operation_xyz
x,y,z
-x,-y,z
x,-y,-z
-x,y,-z
-x,-y,-z
x,y,-z
-x,y,z
x,-y,z
1/2+x,1/2+y,1/2+z
1/2-x,1/2-y,1/2+z
1/2+x,1/2-y,1/2-z
1/2-x,1/2+y,1/2-z
1/2-x,1/2-y,1/2-z
1/2+x,1/2+y,1/2-z
1/2-x,1/2+y,1/2+z
1/2+x,1/2-y,1/2+z
loop_
_atom_site_type_symbol
_atom_site_label
_atom_site_fract_x
_atom_site_fract_y
_atom_site_fract_z
Si Si1 0.324771 0.621383 0.854383
Si Si2 0.181695 0.834650 0.884374
Si Si3 0.682184 0.000000 0.949870
Si Si4 0.817629 0.500000 0.218591
Si Si5 0.682939 0.000000 0.181596
O O1 0.500000 0.663274 0.849747
O O2 0.318166 0.500000 0.877300
O O3 0.228421 0.706478 0.883682
O O4 0.250404 0.608939 0.805764
O O5 0.249641 0.891292 0.841085
O O6 0.000000 0.848751 0.885193
O O7 0.250595 0.890429 0.927607
O O8 0.500000 0.000000 0.944088
O O9 0.733172 0.000000 0.000000
O O10 0.762632 0.500000 0.268422
O O11 0.000000 0.500000 0.214538
O O12 0.500000 0.000000 0.176893
#
# Coordination Sequence:
#
# PCOD8290032 Si02
#       5
#    16  16   8   8   8
#     4   9  19  34  52  72 100 140 178 214 255 303
#     4  11  21  33  54  78 105 136 169 214 258 305
#     4  10  21  38  60  83 107 133 163 202 253 312
#     4   9  18  32  49  73 100 135 180 223 258 293
#     4  10  20  33  49  71 104 139 177 219 260 308
#
# _framework density 17.370740000000001
#
# number of rings (size 3 to 8) (size 9 to 14) (size 15 to 20)
#    0.857    1.286    0.000    6.000    0.000    4.571 
#    0.000    0.000    0.000    0.857    0.000    6.000 
#    0.000    0.000    0.000    0.000    0.000    0.000 
#
# Total GULP energy -347084.829167 kJ/mol
# GULP energy per Si atom -12395.886756 kJ/mol
# Density = 1.733120 g / cm^3
# Si number density = 17.370740 Si / 1000 Ang^3
#
#
#
# Elastic Constant Matrix: (Units=GPa)
#
#
# Indices 1 2 3 4 5 6 
#
# 1 115.1507 42.2765 53.8122 0.0000 0.0000 0.0000
# 2 42.2765 104.3275 58.9863 0.0000 0.0000 0.0000
# 3 53.8122 58.9863 124.7524 0.0000 0.0000 0.0000
# 4 0.0000 0.0000 0.0000 8.3299 0.0000 0.0000
# 5 0.0000 0.0000 0.0000 0.0000 25.3076 0.0000
# 6 0.0000 0.0000 0.0000 0.0000 0.0000 30.9560
#
#
#
# Elastic Compliance Matrix: (Units=1/GPa)
#
#
# Indices 1 2 3 4 5 6 
#
# 1 0.011334 -0.002496 -0.003709 0.000000 0.000000 0.000000
# 2 -0.002496 0.013632 -0.005369 0.000000 0.000000 0.000000
# 3 -0.003709 -0.005369 0.012154 0.000000 0.000000 0.000000
# 4 0.000000 0.000000 0.000000 0.120050 0.000000 0.000000
# 5 0.000000 0.000000 0.000000 0.000000 0.039514 0.000000
# 6 0.000000 0.000000 0.000000 0.000000 0.000000 0.032304
#
#
# Mechanical properties :
#
#
# Convention : Reuss Voigt Hill
#
# Bulk Modulus (GPa) = 71.56695 72.70896 72.13796
# Shear Modulus (GPa) = 19.47093 25.52905 22.49999
#
# Velocity S-wave (km/s) = 3.35162 3.83777 3.60291
# Velocity P-wave (km/s) = 7.50113 7.84767 7.67636
#
# Compressibility (1/GPa) = 0.01397293
#
# Stress axis : x y z
#
# Youngs Moduli (GPa) = 88.23188 73.35533 82.27539
#
# Poissons Ratio (x) = 0.18309 0.30514
# Poissons Ratio (y) = 0.22022 0.44175
# Poissons Ratio (z) = 0.32723 0.39385
#
# Static dielectric constant tensor:
#      x y z
#    x 3.327760 0.000000 0.000000 
#    y 0.000000 3.175900 0.000000 
#    z 0.000000 0.000000 3.056210 
# 
# 
# High freq. dielectric constant tensor:
#      x y z
#    x 1.692980 0.000000 0.000000 
#    y 0.000000 1.666020 0.000000 
#    z 0.000000 0.000000 1.639600 
# 
# From -- ./inp_files/67669.got.cif
#   From: 2010.06.25/outbox.cif.g09.slc.cpg/sg71_34_cif.got.tgz:67669.got - 2010.06.28 04:59:45.
