data_PCOD8290795
_publ_section_title
;
Structure prediction by ZEFSAII (Michael W. Deem and Ramdas Pophale) SiO2 
 PCOD8290795
Probable space group: I M M M
;
_chemical_formula_sum "Si O2"
_cell_formula_units_Z 80
_cell_length_a 8.761933
_cell_length_b 27.067937
_cell_length_c 18.741370
_cell_angle_alpha 90.000000
_cell_angle_beta 90.000000
_cell_angle_gamma 90.000000
_cell_volume 4444.842941
_symmetry_space_group_name_H-M "I M M M"
_symmetry_group_IT_number 71
_symmetry_cell_setting 'orthorhombic'
loop_
_space_group_symop_operation_xyz
x,y,z
-x,-y,z
x,-y,-z
-x,y,-z
-x,-y,-z
x,y,-z
-x,y,z
x,-y,z
1/2+x,1/2+y,1/2+z
1/2-x,1/2-y,1/2+z
1/2+x,1/2-y,1/2-z
1/2-x,1/2+y,1/2-z
1/2-x,1/2-y,1/2-z
1/2+x,1/2+y,1/2-z
1/2-x,1/2+y,1/2+z
1/2+x,1/2-y,1/2+z
loop_
_atom_site_type_symbol
_atom_site_label
_atom_site_fract_x
_atom_site_fract_y
_atom_site_fract_z
Si Si1 0.322459 0.847455 0.418549
Si Si2 0.681194 0.702459 0.212664
Si Si3 0.681656 0.444460 0.577477
Si Si4 0.320635 0.603468 0.282816
Si Si5 0.179358 0.944403 0.638546
O O1 0.290792 0.831543 0.500000
O O2 0.500000 0.846089 0.400049
O O3 0.238537 0.807398 0.368069
O O4 0.264671 0.903688 0.408699
O O5 0.500000 0.706633 0.210591
O O6 0.750000 0.750000 0.250000
O O7 0.741651 0.656866 0.260252
O O8 0.731100 0.422706 0.500000
O O9 0.500000 0.445125 0.583356
O O10 0.743902 0.500000 0.585065
O O11 0.754093 0.412193 0.641578
O O12 0.500000 0.607063 0.292447
O O13 0.280092 0.563514 0.221924
O O14 0.000000 0.936905 0.625852
O O15 0.229997 0.000000 0.616758
#
# Coordination Sequence:
#
# PCOD8290795 Si02
#       5
#    16  16  16  16  16
#     4  10  21  36  53  74 101 131 164 206 255 303
#     4  10  20  35  55  75  96 126 164 205 251 301
#     4   8  12  18  32  57  89 122 151 181 222 271
#     4   8  14  25  41  62  90 124 161 199 237 282
#     4   9  17  29  47  71  99 134 172 206 244 296
#
# _framework density 17.998387000000001
#
# number of rings (size 3 to 8) (size 9 to 14) (size 15 to 20)
#    0.000    3.000    0.000    3.600    0.000    4.800 
#    0.000    3.000    0.000    3.600    0.000    0.000 
#    0.000    7.200    0.000   64.200    0.000   58.000 
#
# Total GULP energy -495690.067822 kJ/mol
# GULP energy per Si atom -12392.251696 kJ/mol
# Density = 1.795742 g / cm^3
# Si number density = 17.998387 Si / 1000 Ang^3
#
#
#
# Elastic Constant Matrix: (Units=GPa)
#
#
# Indices 1 2 3 4 5 6 
#
# 1 55.3668 35.4279 37.2873 0.0000 0.0000 0.0000
# 2 35.4279 104.6023 55.0386 0.0000 0.0000 0.0000
# 3 37.2873 55.0386 132.1123 0.0001 0.0000 0.0000
# 4 0.0000 0.0000 0.0001 19.3914 0.0000 0.0000
# 5 0.0000 0.0000 0.0000 0.0000 19.1776 0.0000
# 6 0.0000 0.0000 0.0000 0.0000 0.0000 23.8497
#
#
#
# Elastic Compliance Matrix: (Units=1/GPa)
#
#
# Indices 1 2 3 4 5 6 
#
# 1 0.025002 -0.006090 -0.004519 0.000000 0.000000 0.000000
# 2 -0.006090 0.013727 -0.004000 0.000000 0.000000 0.000000
# 3 -0.004519 -0.004000 0.010511 0.000000 0.000000 0.000000
# 4 0.000000 0.000000 0.000000 0.051569 0.000000 0.000000
# 5 0.000000 0.000000 0.000000 0.000000 0.052144 0.000000
# 6 0.000000 0.000000 0.000000 0.000000 0.000000 0.041929
#
#
# Mechanical properties :
#
#
# Convention : Reuss Voigt Hill
#
# Bulk Modulus (GPa) = 49.94583 60.84321 55.39452
# Shear Modulus (GPa) = 21.66607 23.43892 22.55249
#
# Velocity S-wave (km/s) = 3.47331 3.61263 3.54365
# Velocity P-wave (km/s) = 6.62538 7.16098 6.89838
#
# Compressibility (1/GPa) = 0.02002169
#
# Stress axis : x y z
#
# Youngs Moduli (GPa) = 39.99708 72.84729 95.13554
#
# Poissons Ratio (x) = 0.44364 0.42996
# Poissons Ratio (y) = 0.24358 0.38055
# Poissons Ratio (z) = 0.18076 0.29139
#
# Static dielectric constant tensor:
#      x y z
#    x 2.970930 0.000000 0.000000 
#    y 0.000000 3.389710 0.000000 
#    z 0.000000 0.000000 3.683130 
# 
# 
# High freq. dielectric constant tensor:
#      x y z
#    x 1.660260 0.000000 0.000000 
#    y 0.000000 1.682140 0.000000 
#    z 0.000000 0.000000 1.706220 
# 
# From -- ./inp_files/8611.got.cif
#   From: 2010.06.25/outbox.cif.g09.slc.cpg/sg71_5_cif.got.tgz:8611.got - 2010.06.28 04:59:45.
