data_PCOD8290728
_publ_section_title
;
Structure prediction by ZEFSAII (Michael W. Deem and Ramdas Pophale) SiO2 
 PCOD8290728
Probable space group: I M M M
;
_chemical_formula_sum "Si O2"
_cell_formula_units_Z 72
_cell_length_a 16.406997
_cell_length_b 20.011301
_cell_length_c 11.591564
_cell_angle_alpha 90.000000
_cell_angle_beta 90.000000
_cell_angle_gamma 90.000000
_cell_volume 3805.804371
_symmetry_space_group_name_H-M "I M M M"
_symmetry_group_IT_number 71
_symmetry_cell_setting 'orthorhombic'
loop_
_space_group_symop_operation_xyz
x,y,z
-x,-y,z
x,-y,-z
-x,y,-z
-x,-y,-z
x,y,-z
-x,y,z
x,-y,z
1/2+x,1/2+y,1/2+z
1/2-x,1/2-y,1/2+z
1/2+x,1/2-y,1/2-z
1/2-x,1/2+y,1/2-z
1/2-x,1/2-y,1/2-z
1/2+x,1/2+y,1/2-z
1/2-x,1/2+y,1/2+z
1/2+x,1/2-y,1/2+z
loop_
_atom_site_type_symbol
_atom_site_label
_atom_site_fract_x
_atom_site_fract_y
_atom_site_fract_z
Si Si1 0.186529 0.875387 0.281411
Si Si2 0.408966 0.726178 0.367998
Si Si3 0.265701 0.500000 0.367981
Si Si4 0.596139 0.574664 0.000000
Si Si5 0.590165 0.000000 0.777548
Si Si6 0.134133 0.372601 0.867032
O O1 0.154720 0.811314 0.212835
O O2 0.124064 0.889038 0.384230
O O3 0.272373 0.859147 0.337575
O O4 0.194593 0.936512 0.193308
O O5 0.379846 0.717435 0.500000
O O6 0.500000 0.696887 0.350933
O O7 0.412560 0.804528 0.335925
O O8 0.293671 0.500000 0.500000
O O9 0.166533 0.500000 0.365207
O O10 0.633403 0.500000 0.000000
O O11 0.500000 0.573416 0.000000
O O12 0.595190 0.066326 0.701227
O O13 0.500000 0.000000 0.838127
O O14 0.125414 0.391727 0.000000
#
# Coordination Sequence:
#
# PCOD8290728 Si02
#       6
#    16  16   8   8   8  16
#     4  11  20  37  58  82 114 146 191 231 277 341
#     4  10  21  36  54  79 113 150 188 232 279 329
#     4  10  22  37  58  83 110 148 193 231 272 338
#     4  11  22  36  58  86 116 149 181 233 292 334
#     4  10  21  35  58  86 115 147 183 235 285 331
#     4  10  20  34  57  84 114 147 189 233 280 336
#
# _framework density 18.918469999999999
#
# number of rings (size 3 to 8) (size 9 to 14) (size 15 to 20)
#    0.000    1.667    2.222    3.000    0.000    2.000 
#    0.000    0.000    2.444    2.667    0.000    0.000 
#    0.000    0.000    0.000    0.000    0.000    0.000 
#
# Total GULP energy -446409.578120 kJ/mol
# GULP energy per Si atom -12400.266059 kJ/mol
# Density = 1.887541 g / cm^3
# Si number density = 18.918470 Si / 1000 Ang^3
#
#
#
# Elastic Constant Matrix: (Units=GPa)
#
#
# Indices 1 2 3 4 5 6 
#
# 1 72.1390 19.4197 11.7124 0.0000 0.0000 0.0000
# 2 19.4197 87.8675 40.8839 0.0000 0.0000 0.0000
# 3 11.7124 40.8839 82.0522 0.0000 0.0000 0.0000
# 4 0.0000 0.0000 0.0000 28.7753 0.0000 0.0000
# 5 0.0000 0.0000 0.0000 0.0000 18.7192 0.0000
# 6 0.0000 0.0000 0.0000 0.0000 0.0000 26.6641
#
#
#
# Elastic Compliance Matrix: (Units=1/GPa)
#
#
# Indices 1 2 3 4 5 6 
#
# 1 0.014764 -0.002971 -0.000627 0.000000 0.000000 0.000000
# 2 -0.002971 0.015414 -0.007256 0.000000 0.000000 0.000000
# 3 -0.000627 -0.007256 0.015892 0.000000 0.000000 0.000000
# 4 0.000000 0.000000 0.000000 0.034752 0.000000 0.000000
# 5 0.000000 0.000000 0.000000 0.000000 0.053421 0.000000
# 6 0.000000 0.000000 0.000000 0.000000 0.000000 0.037504
#
#
# Mechanical properties :
#
#
# Convention : Reuss Voigt Hill
#
# Bulk Modulus (GPa) = 41.04868 42.89895 41.97382
# Shear Modulus (GPa) = 24.80466 26.16791 25.48629
#
# Velocity S-wave (km/s) = 3.62489 3.72317 3.67436
# Velocity P-wave (km/s) = 6.26614 6.41931 6.34319
#
# Compressibility (1/GPa) = 0.02436132
#
# Stress axis : x y z
#
# Youngs Moduli (GPa) = 67.73341 64.87785 62.92373
#
# Poissons Ratio (x) = 0.19277 0.03945
# Poissons Ratio (y) = 0.20125 0.45657
# Poissons Ratio (z) = 0.04247 0.47075
#
# Static dielectric constant tensor:
#      x y z
#    x 3.573290 0.000000 0.000000 
#    y 0.000000 3.469650 0.000000 
#    z 0.000000 0.000000 3.322040 
# 
# 
# High freq. dielectric constant tensor:
#      x y z
#    x 1.746040 0.000000 0.000000 
#    y 0.000000 1.739810 0.000000 
#    z 0.000000 0.000000 1.727280 
# 
# From -- ./inp_files/23525.got.cif
#   From: 2010.06.25/outbox.cif.g09.slc.cpg/sg71_12_cif.got.tgz:23525.got - 2010.06.28 04:59:45.
