data_PCOD8290806
_publ_section_title
;
Structure prediction by ZEFSAII (Michael W. Deem and Ramdas Pophale) SiO2 
 PCOD8290806
Probable space group: I M M M
;
_chemical_formula_sum "Si O2"
_cell_formula_units_Z 80
_cell_length_a 27.969194
_cell_length_b 8.533328
_cell_length_c 18.094241
_cell_angle_alpha 90.000000
_cell_angle_beta 90.000000
_cell_angle_gamma 90.000000
_cell_volume 4318.558042
_symmetry_space_group_name_H-M "I M M M"
_symmetry_group_IT_number 71
_symmetry_cell_setting 'orthorhombic'
loop_
_space_group_symop_operation_xyz
x,y,z
-x,-y,z
x,-y,-z
-x,y,-z
-x,-y,-z
x,y,-z
-x,y,z
x,-y,z
1/2+x,1/2+y,1/2+z
1/2-x,1/2-y,1/2+z
1/2+x,1/2-y,1/2-z
1/2-x,1/2+y,1/2-z
1/2-x,1/2-y,1/2-z
1/2+x,1/2+y,1/2-z
1/2-x,1/2+y,1/2+z
1/2+x,1/2-y,1/2+z
loop_
_atom_site_type_symbol
_atom_site_label
_atom_site_fract_x
_atom_site_fract_y
_atom_site_fract_z
Si Si1 0.351607 0.184851 0.793838
Si Si2 0.106987 0.318544 0.082636
Si Si3 0.947947 0.684419 0.224615
Si Si4 0.208757 0.816316 0.583947
Si Si5 0.697154 0.317804 0.346892
O O1 0.406082 0.245252 0.779362
O O2 0.336005 0.232439 0.875985
O O3 0.315828 0.265339 0.735837
O O4 0.348622 0.000000 0.781659
O O5 0.121534 0.500000 0.093698
O O6 0.065535 0.271423 0.140102
O O7 0.153849 0.215619 0.097189
O O8 0.088029 0.286034 0.000000
O O9 0.952440 0.500000 0.233037
O O10 0.000000 0.760709 0.243096
O O11 0.210924 0.753654 0.500000
O O12 0.257312 0.777761 0.626038
O O13 0.199768 0.000000 0.585868
O O14 0.710141 0.500000 0.347283
#
# Coordination Sequence:
#
# PCOD8290806 Si02
#       5
#    16  16  16  16  16
#     4  10  20  35  55  77 102 131 166 207 247 292
#     4   9  17  29  46  71 104 138 171 208 247 287
#     4   8  15  29  50  75  99 126 164 209 254 295
#     4  11  23  37  53  74 102 133 165 204 249 296
#     4  11  21  33  51  74 103 138 173 204 239 289
#
# _framework density 18.524702999999999
#
# number of rings (size 3 to 8) (size 9 to 14) (size 15 to 20)
#    0.000    2.200    0.000    5.400    0.000    4.800 
#    0.000    2.000    0.000   15.600    0.000    9.800 
#    0.000    0.000    0.000    0.000    0.000    0.000 
#
# Total GULP energy -495926.521960 kJ/mol
# GULP energy per Si atom -12398.163049 kJ/mol
# Density = 1.848254 g / cm^3
# Si number density = 18.524703 Si / 1000 Ang^3
#
#
#
# Elastic Constant Matrix: (Units=GPa)
#
#
# Indices 1 2 3 4 5 6 
#
# 1 132.5616 5.1449 64.8109 0.0000 0.0000 0.0000
# 2 5.1449 34.6039 12.2531 0.0000 0.0000 0.0000
# 3 64.8109 12.2531 88.2907 0.0000 0.0000 0.0000
# 4 0.0000 0.0000 0.0000 26.3745 0.0000 0.0000
# 5 0.0000 0.0000 0.0000 0.0000 -22.5678 0.0000
# 6 0.0000 0.0000 0.0000 0.0000 0.0000 17.7256
#
#
#
# Elastic Compliance Matrix: (Units=1/GPa)
#
#
# Indices 1 2 3 4 5 6 
#
# 1 0.011829 0.001384 -0.008875 0.000000 0.000000 0.000000
# 2 0.001384 0.030554 -0.005256 0.000000 0.000000 0.000000
# 3 -0.008875 -0.005256 0.018571 0.000000 0.000000 0.000000
# 4 0.000000 0.000000 0.000000 0.037915 0.000000 0.000000
# 5 0.000000 0.000000 0.000000 0.000000 -0.044311 0.000000
# 6 0.000000 0.000000 0.000000 0.000000 0.000000 0.056416
#
#
# Mechanical properties :
#
#
# Convention : Reuss Voigt Hill
#
# Bulk Modulus (GPa) = 28.20194 46.65267 37.42730
# Shear Modulus (GPa) = 33.71790 15.85628 24.78709
#
# Velocity S-wave (km/s) = 4.27096 2.92884 3.66191
# Velocity P-wave (km/s) = 6.29114 6.05609 6.17473
#
# Compressibility (1/GPa) = 0.03545856
#
# Stress axis : x y z
#
# Youngs Moduli (GPa) = 84.53603 32.72900 53.84781
#
# Poissons Ratio (x) = -0.04530 0.47793
# Poissons Ratio (y) = -0.11700 0.28304
# Poissons Ratio (z) = 0.75030 0.17203
#
# Static dielectric constant tensor:
#      x y z
#    x 3.659410 0.000000 0.000000 
#    y 0.000000 3.211140 0.000000 
#    z 0.000000 0.000000 3.491590 
# 
# 
# High freq. dielectric constant tensor:
#      x y z
#    x 1.711600 0.000000 0.000000 
#    y 0.000000 1.702940 0.000000 
#    z 0.000000 0.000000 1.709030 
# 
# From -- ./inp_files/8283.got.cif
#   From: 2010.06.25/outbox.cif.g09.slc.cpg/sg71_5_cif.got.tgz:8283.got - 2010.06.28 04:59:45.
