data_PCOD8290854
_publ_section_title
;
Structure prediction by ZEFSAII (Michael W. Deem and Ramdas Pophale) SiO2 
 PCOD8290854
Probable space group: I M M M
;
_chemical_formula_sum "Si O2"
_cell_formula_units_Z 104
_cell_length_a 8.871878
_cell_length_b 29.343776
_cell_length_c 20.990722
_cell_angle_alpha 90.000000
_cell_angle_beta 90.000000
_cell_angle_gamma 90.000000
_cell_volume 5464.607033
_symmetry_space_group_name_H-M "I M M M"
_symmetry_group_IT_number 71
_symmetry_cell_setting 'orthorhombic'
loop_
_space_group_symop_operation_xyz
x,y,z
-x,-y,z
x,-y,-z
-x,y,-z
-x,-y,-z
x,y,-z
-x,y,z
x,-y,z
1/2+x,1/2+y,1/2+z
1/2-x,1/2-y,1/2+z
1/2+x,1/2-y,1/2-z
1/2-x,1/2+y,1/2-z
1/2-x,1/2-y,1/2-z
1/2+x,1/2+y,1/2-z
1/2-x,1/2+y,1/2+z
1/2+x,1/2-y,1/2+z
loop_
_atom_site_type_symbol
_atom_site_label
_atom_site_fract_x
_atom_site_fract_y
_atom_site_fract_z
Si Si1 0.679449 0.859807 0.069962
Si Si2 0.323362 0.195456 0.679681
Si Si3 0.676514 0.391541 0.123310
Si Si4 0.822634 0.291463 0.323615
Si Si5 0.169471 0.447386 0.228040
Si Si6 0.179148 0.549310 0.371984
Si Si7 0.320674 0.447346 0.000000
O O1 0.500000 0.860694 0.073525
O O2 0.741623 0.825856 0.123377
O O3 0.742451 0.910744 0.083133
O O4 0.735060 0.844388 0.000000
O O5 0.500000 0.195348 0.668098
O O6 0.252976 0.157683 0.632891
O O7 0.259276 0.244443 0.661202
O O8 0.283503 0.187200 0.754375
O O9 0.500000 0.383288 0.116933
O O10 0.711692 0.421803 0.184477
O O11 0.738016 0.418944 0.061420
O O12 0.000000 0.282969 0.329663
O O13 0.168210 0.500000 0.208992
O O14 0.227145 0.440301 0.299681
O O15 0.000000 0.426985 0.219187
O O16 0.244166 0.500000 0.394035
O O17 0.000000 0.547149 0.374461
O O18 0.258532 0.500000 0.000000
O O19 0.500000 0.449651 0.000000
#
# Coordination Sequence:
#
# PCOD8290854 Si02
#       7
#    16  16  16  16  16  16   8
#     4   9  16  26  43  69  99 133 170 205 242 289
#     4  10  20  35  56  78 102 131 166 214 266 313
#     4  11  21  34  54  78 102 133 172 215 262 314
#     4   9  18  34  54  76 103 135 171 212 259 311
#     4   9  17  30  49  73 102 135 169 209 258 303
#     4   8  14  25  42  67 101 137 169 203 245 291
#     4   9  20  38  55  73 103 141 177 215 262 317
#
# _framework density 19.031562000000001
#
# number of rings (size 3 to 8) (size 9 to 14) (size 15 to 20)
#    0.000    2.692    0.000    3.231    0.000    4.308 
#    1.385    3.077    0.000    2.769    0.000    0.000 
#    0.000    0.000    0.000    9.385    0.000    9.231 
#
# Total GULP energy -644546.843946 kJ/mol
# GULP energy per Si atom -12395.131614 kJ/mol
# Density = 1.898824 g / cm^3
# Si number density = 19.031562 Si / 1000 Ang^3
#
#
#
# Elastic Constant Matrix: (Units=GPa)
#
#
# Indices 1 2 3 4 5 6 
#
# 1 34.6833 33.2524 20.4146 0.0000 0.0000 0.0000
# 2 33.2524 143.5921 86.7874 0.0000 0.0000 0.0000
# 3 20.4146 86.7874 109.7339 0.0000 0.0000 0.0000
# 4 0.0000 0.0000 0.0000 32.6000 0.0000 0.0000
# 5 0.0000 0.0000 0.0000 0.0000 16.7833 0.0000
# 6 0.0000 0.0000 0.0000 0.0000 0.0000 25.9948
#
#
#
# Elastic Compliance Matrix: (Units=1/GPa)
#
#
# Indices 1 2 3 4 5 6 
#
# 1 0.037063 -0.008459 -0.000205 0.000000 0.000000 0.000000
# 2 -0.008459 0.015272 -0.010505 0.000000 0.000000 0.000000
# 3 -0.000205 -0.010505 0.017459 0.000000 0.000000 0.000000
# 4 0.000000 0.000000 0.000000 0.030675 0.000000 0.000000
# 5 0.000000 0.000000 0.000000 0.000000 0.059583 0.000000
# 6 0.000000 0.000000 0.000000 0.000000 0.000000 0.038469
#
#
# Mechanical properties :
#
#
# Convention : Reuss Voigt Hill
#
# Bulk Modulus (GPa) = 31.78974 63.21311 47.50143
# Shear Modulus (GPa) = 20.21466 24.91262 22.56364
#
# Velocity S-wave (km/s) = 3.26262 3.62196 3.44698
# Velocity P-wave (km/s) = 5.56174 7.12590 6.39184
#
# Compressibility (1/GPa) = 0.03145669
#
# Stress axis : x y z
#
# Youngs Moduli (GPa) = 26.98115 65.47790 57.27568
#
# Poissons Ratio (x) = 0.55388 0.01174
# Poissons Ratio (y) = 0.22823 0.60168
# Poissons Ratio (z) = 0.00553 0.68785
#
# Static dielectric constant tensor:
#      x y z
#    x 3.049790 0.000000 0.000000 
#    y 0.000000 3.750500 0.000000 
#    z 0.000000 0.000000 3.586070 
# 
# 
# High freq. dielectric constant tensor:
#      x y z
#    x 1.693550 0.000000 0.000000 
#    y 0.000000 1.753580 0.000000 
#    z 0.000000 0.000000 1.734390 
# 
# From -- ./inp_files/50881.got.cif
#   From: 2010.06.25/outbox.cif.g09.slc.cpg/sg71_26_cif.got.tgz:50881.got - 2010.06.28 04:59:45.
