data_PCOD8290600
_publ_section_title
;
Structure prediction by ZEFSAII (Michael W. Deem and Ramdas Pophale) SiO2 
 PCOD8290600
Probable space group: I M M M
;
_chemical_formula_sum "Si O2"
_cell_formula_units_Z 72
_cell_length_a 10.644694
_cell_length_b 14.125821
_cell_length_c 25.493238
_cell_angle_alpha 90.000000
_cell_angle_beta 90.000000
_cell_angle_gamma 90.000000
_cell_volume 3833.291804
_symmetry_space_group_name_H-M "I M M M"
_symmetry_group_IT_number 71
_symmetry_cell_setting 'orthorhombic'
loop_
_space_group_symop_operation_xyz
x,y,z
-x,-y,z
x,-y,-z
-x,y,-z
-x,-y,-z
x,y,-z
-x,y,z
x,-y,z
1/2+x,1/2+y,1/2+z
1/2-x,1/2-y,1/2+z
1/2+x,1/2-y,1/2-z
1/2-x,1/2+y,1/2-z
1/2-x,1/2-y,1/2-z
1/2+x,1/2+y,1/2-z
1/2-x,1/2+y,1/2+z
1/2+x,1/2-y,1/2+z
loop_
_atom_site_type_symbol
_atom_site_label
_atom_site_fract_x
_atom_site_fract_y
_atom_site_fract_z
Si Si1 0.302829 0.788811 0.127545
Si Si2 0.500000 0.105669 0.938372
Si Si3 0.145935 0.104682 0.942229
Si Si4 0.855313 0.891920 0.319415
Si Si5 0.642565 0.108630 0.765068
O O1 0.380872 0.837196 0.081409
O O2 0.167080 0.819389 0.105555
O O3 0.326524 0.675778 0.130662
O O4 0.338598 0.827473 0.184344
O O5 0.500000 0.000000 0.914538
O O6 0.500000 0.102923 0.000000
O O7 0.000000 0.091800 0.945536
O O8 0.205307 0.000000 0.929592
O O9 0.195480 0.138241 0.000000
O O10 0.752072 0.863540 0.275722
O O11 0.000000 0.877458 0.299340
O O12 0.835203 0.000000 0.337645
O O13 0.500000 0.126068 0.742817
O O14 0.658974 0.000000 0.781570
#
# Coordination Sequence:
#
# PCOD8290600 Si02
#       5
#    16   8  16  16  16
#     4  12  20  33  56  80 107 144 182 227 275 335
#     4  11  22  34  53  83 111 135 170 222 284 343
#     4   9  19  35  54  80 114 145 173 215 277 346
#     4  10  22  39  55  75 110 154 195 235 278 328
#     4  10  20  34  54  81 113 144 182 232 286 339
#
# _framework density 18.782812
#
# number of rings (size 3 to 8) (size 9 to 14) (size 15 to 20)
#    0.000    1.667    2.222    4.000    0.000    3.556 
#    0.000    2.222    0.000    3.333    0.000    1.556 
#    0.000    0.000    0.000    0.000    0.000    0.000 
#
# Total GULP energy -445976.509122 kJ/mol
# GULP energy per Si atom -12388.236364 kJ/mol
# Density = 1.874006 g / cm^3
# Si number density = 18.782812 Si / 1000 Ang^3
#
#
#
# Elastic Constant Matrix: (Units=GPa)
#
#
# Indices 1 2 3 4 5 6 
#
# 1 95.7819 39.4291 44.5288 0.0000 0.0000 0.0000
# 2 39.4291 110.3462 58.2357 0.0000 0.0000 0.0000
# 3 44.5288 58.2357 75.0745 0.0000 0.0000 0.0000
# 4 0.0000 0.0000 0.0000 27.4666 0.0000 0.0000
# 5 0.0000 0.0000 0.0000 0.0000 26.8755 0.0000
# 6 0.0000 0.0000 0.0000 0.0000 0.0000 -15.9066
#
#
#
# Elastic Compliance Matrix: (Units=1/GPa)
#
#
# Indices 1 2 3 4 5 6 
#
# 1 0.014492 -0.001087 -0.007752 0.000000 0.000000 0.000000
# 2 -0.001087 0.015425 -0.011321 0.000000 0.000000 0.000000
# 3 -0.007752 -0.011321 0.026700 0.000000 0.000000 0.000000
# 4 0.000000 0.000000 0.000000 0.036408 0.000000 0.000000
# 5 0.000000 0.000000 0.000000 0.000000 0.037209 0.000000
# 6 0.000000 0.000000 0.000000 0.000000 0.000000 -0.062867
#
#
# Mechanical properties :
#
#
# Convention : Reuss Voigt Hill
#
# Bulk Modulus (GPa) = 61.36172 62.84332 62.10252
# Shear Modulus (GPa) = 44.20097 16.95437 30.57767
#
# Velocity S-wave (km/s) = 4.85631 3.00768 4.03918
# Velocity P-wave (km/s) = 8.01155 6.75219 7.40868
#
# Compressibility (1/GPa) = 0.01629680
#
# Stress axis : x y z
#
# Youngs Moduli (GPa) = 69.00403 64.82809 37.45314
#
# Poissons Ratio (x) = 0.07046 0.29035
# Poissons Ratio (y) = 0.07500 0.42400
# Poissons Ratio (z) = 0.53495 0.73391
#
# Static dielectric constant tensor:
#      x y z
#    x 4.148850 0.000000 0.000000 
#    y 0.000000 3.667900 0.000000 
#    z 0.000000 0.000000 3.243730 
# 
# 
# High freq. dielectric constant tensor:
#      x y z
#    x 1.749080 0.000000 0.000000 
#    y 0.000000 1.723690 0.000000 
#    z 0.000000 0.000000 1.702020 
# 
# From -- ./inp_files/58602.got.cif
#   From: 2010.06.25/outbox.cif.g09.slc.cpg/sg71_30_cif.got.tgz:58602.got - 2010.06.28 04:59:45.
