data_PCOD8290511
_publ_section_title
;
Structure prediction by ZEFSAII (Michael W. Deem and Ramdas Pophale) SiO2 
 PCOD8290511
Probable space group: I M M M
;
_chemical_formula_sum "Si O2"
_cell_formula_units_Z 80
_cell_length_a 15.088164
_cell_length_b 28.566096
_cell_length_c 9.007253
_cell_angle_alpha 90.000000
_cell_angle_beta 90.000000
_cell_angle_gamma 90.000000
_cell_volume 3882.215587
_symmetry_space_group_name_H-M "I M M M"
_symmetry_group_IT_number 71
_symmetry_cell_setting 'orthorhombic'
loop_
_space_group_symop_operation_xyz
x,y,z
-x,-y,z
x,-y,-z
-x,y,-z
-x,-y,-z
x,y,-z
-x,y,z
x,-y,z
1/2+x,1/2+y,1/2+z
1/2-x,1/2-y,1/2+z
1/2+x,1/2-y,1/2-z
1/2-x,1/2+y,1/2-z
1/2-x,1/2-y,1/2-z
1/2+x,1/2+y,1/2-z
1/2-x,1/2+y,1/2+z
1/2+x,1/2-y,1/2+z
loop_
_atom_site_type_symbol
_atom_site_label
_atom_site_fract_x
_atom_site_fract_y
_atom_site_fract_z
Si Si1 0.239407 0.947206 0.171213
Si Si2 0.901908 0.685622 0.661105
Si Si3 0.900125 0.129000 0.176084
Si Si4 0.397042 0.095367 0.325530
Si Si5 0.339243 0.731539 0.676064
O O1 0.163713 0.912370 0.235765
O O2 0.332248 0.944115 0.260126
O O3 0.203342 0.000000 0.188884
O O4 0.259262 0.935033 0.000000
O O5 0.851827 0.691761 0.500000
O O6 0.858671 0.643830 0.756020
O O7 0.910842 0.733235 0.755170
O O8 0.000000 0.668806 0.626147
O O9 0.860782 0.178960 0.227745
O O10 0.000000 0.122701 0.240637
O O11 0.905006 0.127233 0.000000
O O12 0.385051 0.098759 0.500000
O O13 0.500000 0.084411 0.285843
O O14 0.338025 0.736231 0.500000
O O15 0.250000 0.750000 0.750000
#
# Coordination Sequence:
#
# PCOD8290511 Si02
#       5
#    16  16  16  16  16
#     4  10  21  37  59  86 113 144 187 242 301 353
#     4  10  20  34  53  78 110 145 180 222 274 334
#     4   9  19  36  57  82 113 150 194 242 288 337
#     4  10  21  37  58  84 115 153 194 234 282 347
#     4  11  21  33  53  80 112 151 193 236 283 337
#
# _framework density 20.606788999999999
#
# number of rings (size 3 to 8) (size 9 to 14) (size 15 to 20)
#    0.000    2.000    0.000    3.600    0.000    6.000 
#    0.000    5.000    0.000    3.000    0.000    1.400 
#    0.000    0.000    0.000    0.000    0.000    0.000 
#
# Total GULP energy -495720.736561 kJ/mol
# GULP energy per Si atom -12393.018414 kJ/mol
# Density = 2.055989 g / cm^3
# Si number density = 20.606789 Si / 1000 Ang^3
#
#
#
# Elastic Constant Matrix: (Units=GPa)
#
#
# Indices 1 2 3 4 5 6 
#
# 1 122.6646 58.1138 39.4877 0.0007 -0.0004 -0.0002
# 2 58.1138 134.1576 40.0873 -0.0011 0.0002 0.0000
# 3 39.4877 40.0873 87.1412 -0.0001 -0.0035 0.0007
# 4 0.0007 -0.0011 -0.0001 27.0999 0.0001 0.0000
# 5 -0.0004 0.0002 -0.0035 0.0001 25.1771 0.0004
# 6 -0.0002 0.0000 0.0007 0.0000 0.0004 29.9924
#
#
#
# Elastic Compliance Matrix: (Units=1/GPa)
#
#
# Indices 1 2 3 4 5 6 
#
# 1 0.010991 -0.003795 -0.003235 0.000000 0.000000 0.000000
# 2 -0.003795 0.009952 -0.002859 0.000001 -0.000001 0.000000
# 3 -0.003235 -0.002859 0.014257 0.000000 0.000002 0.000000
# 4 0.000000 0.000001 0.000000 0.036901 0.000000 0.000000
# 5 0.000000 -0.000001 0.000002 0.000000 0.039719 -0.000001
# 6 0.000000 0.000000 0.000000 0.000000 -0.000001 0.033342
#
#
# Mechanical properties :
#
#
# Convention : Reuss Voigt Hill
#
# Bulk Modulus (GPa) = 64.83689 68.81565 66.82627
# Shear Modulus (GPa) = 29.39816 30.20551 29.80184
#
# Velocity S-wave (km/s) = 3.78117 3.83274 3.80704
# Velocity P-wave (km/s) = 7.11302 7.28379 7.19891
#
# Compressibility (1/GPa) = 0.01542332
#
# Stress axis : x y z
#
# Youngs Moduli (GPa) = 90.97960 100.48434 70.14269
#
# Poissons Ratio (x) = 0.38129 0.22692
# Poissons Ratio (y) = 0.34523 0.20051
# Poissons Ratio (z) = 0.29433 0.28725
#
# Static dielectric constant tensor:
#      x y z
#    x 3.129320 0.000050 0.000000 
#    y 0.000050 4.188810 -0.000010 
#    z 0.000000 -0.000010 3.871270 
# 
# 
# High freq. dielectric constant tensor:
#      x y z
#    x 1.808250 0.000000 0.000000 
#    y 0.000000 1.805000 0.000000 
#    z 0.000000 0.000000 1.787030 
# 
# From -- ./inp_files/8364.got.cif
#   From: 2010.06.25/outbox.cif.g09.slc.cpg/sg71_5_cif.got.tgz:8364.got - 2010.06.28 04:59:45.
