data_PCOD8290596
_publ_section_title
;
Structure prediction by ZEFSAII (Michael W. Deem and Ramdas Pophale) SiO2 
 PCOD8290596
Probable space group: I M M M
;
_chemical_formula_sum "Si O2"
_cell_formula_units_Z 104
_cell_length_a 8.955172
_cell_length_b 29.281535
_cell_length_c 22.415057
_cell_angle_alpha 90.000000
_cell_angle_beta 90.000000
_cell_angle_gamma 90.000000
_cell_volume 5877.702749
_symmetry_space_group_name_H-M "I M M M"
_symmetry_group_IT_number 71
_symmetry_cell_setting 'orthorhombic'
loop_
_space_group_symop_operation_xyz
x,y,z
-x,-y,z
x,-y,-z
-x,y,-z
-x,-y,-z
x,y,-z
-x,y,z
x,-y,z
1/2+x,1/2+y,1/2+z
1/2-x,1/2-y,1/2+z
1/2+x,1/2-y,1/2-z
1/2-x,1/2+y,1/2-z
1/2-x,1/2-y,1/2-z
1/2+x,1/2+y,1/2-z
1/2-x,1/2+y,1/2+z
1/2+x,1/2-y,1/2+z
loop_
_atom_site_type_symbol
_atom_site_label
_atom_site_fract_x
_atom_site_fract_y
_atom_site_fract_z
Si Si1 0.831769 0.712339 0.929042
Si Si2 0.827489 0.302135 0.431605
Si Si3 0.827989 0.878416 0.570445
Si Si4 0.825354 0.947026 0.777888
Si Si5 0.673106 0.052859 0.345108
Si Si6 0.675248 0.099364 0.111875
Si Si7 0.329668 0.554029 0.500000
O O1 0.765265 0.759866 0.904436
O O2 0.734591 0.669882 0.905511
O O3 0.000000 0.706726 0.905373
O O4 0.825307 0.713690 0.000000
O O5 0.782882 0.312508 0.500000
O O6 0.789821 0.346910 0.393483
O O7 0.000000 0.288574 0.427356
O O8 0.806105 0.882556 0.500000
O O9 0.734621 0.919221 0.599059
O O10 0.000000 0.882281 0.589136
O O11 0.764063 0.932749 0.713493
O O12 0.740319 0.916647 0.825681
O O13 0.000000 0.936374 0.780782
O O14 0.791662 0.000000 0.791130
O O15 0.500000 0.063984 0.334480
O O16 0.698680 0.000000 0.360320
O O17 0.500000 0.089612 0.108995
O O18 0.750143 0.071837 0.058770
O O19 0.320830 0.500000 0.500000
O O20 0.500000 0.571182 0.500000
#
# Coordination Sequence:
#
# PCOD8290596 Si02
#       7
#    16  16  16  16  16  16   8
#     4   9  17  29  48  75 104 136 173 212 254 304
#     4   9  17  31  48  70 102 136 172 214 263 314
#     4  10  20  34  54  81 112 144 173 206 254 308
#     4  10  21  37  55  75 101 136 178 220 262 313
#     4  10  21  37  57  80 106 138 176 217 257 302
#     4  11  21  34  52  75 102 136 177 222 269 318
#     4  11  23  35  47  69 103 139 175 221 276 325
#
# _framework density 17.693987
#
# number of rings (size 3 to 8) (size 9 to 14) (size 15 to 20)
#    0.000    2.077    0.769    3.000    0.000    8.615 
#    0.000    1.538    0.000    0.923    0.000    0.000 
#    0.000    0.000    0.000    0.000    0.000    0.000 
#
# Total GULP energy -644964.693277 kJ/mol
# GULP energy per Si atom -12403.167178 kJ/mol
# Density = 1.765371 g / cm^3
# Si number density = 17.693987 Si / 1000 Ang^3
#
#
#
# Elastic Constant Matrix: (Units=GPa)
#
#
# Indices 1 2 3 4 5 6 
#
# 1 107.1114 64.8676 36.8036 -0.0001 0.0000 0.0000
# 2 64.8676 105.3742 46.6331 -0.0001 0.0000 0.0000
# 3 36.8036 46.6331 53.4827 -0.0013 0.0000 0.0000
# 4 -0.0001 -0.0001 -0.0013 -18.8882 -0.0001 0.0000
# 5 0.0000 0.0000 0.0000 -0.0001 31.5573 0.0000
# 6 0.0000 0.0000 0.0000 0.0000 0.0000 35.5932
#
#
#
# Elastic Compliance Matrix: (Units=1/GPa)
#
#
# Indices 1 2 3 4 5 6 
#
# 1 0.015341 -0.007770 -0.003782 0.000000 0.000000 0.000000
# 2 -0.007770 0.019388 -0.011558 0.000001 0.000000 0.000000
# 3 -0.003782 -0.011558 0.031378 -0.000002 0.000000 0.000000
# 4 0.000000 0.000001 -0.000002 -0.052943 0.000000 0.000000
# 5 0.000000 0.000000 0.000000 0.000000 0.031688 0.000000
# 6 0.000000 0.000000 0.000000 0.000000 0.000000 0.028095
#
#
# Mechanical properties :
#
#
# Convention : Reuss Voigt Hill
#
# Bulk Modulus (GPa) = 50.28413 62.50855 56.39634
# Shear Modulus (GPa) = 39.74622 17.49672 28.62147
#
# Velocity S-wave (km/s) = 4.74467 3.14801 4.02628
# Velocity P-wave (km/s) = 7.64829 6.97263 7.31826
#
# Compressibility (1/GPa) = 0.01988699
#
# Stress axis : x y z
#
# Youngs Moduli (GPa) = 65.18352 51.57699 31.86946
#
# Poissons Ratio (x) = 0.40077 0.12052
# Poissons Ratio (y) = 0.50650 0.36836
# Poissons Ratio (z) = 0.24651 0.59614
#
# Static dielectric constant tensor:
#      x y z
#    x 3.480850 0.000000 0.000000 
#    y 0.000000 3.374350 0.000000 
#    z 0.000000 0.000000 2.934470 
# 
# 
# High freq. dielectric constant tensor:
#      x y z
#    x 1.702570 0.000000 0.000000 
#    y 0.000000 1.690300 0.000000 
#    z 0.000000 0.000000 1.653200 
# 
# From -- ./inp_files/16960.got.cif
#   From: 2010.06.25/outbox.cif.g09.slc.cpg/sg71_9_cif.got.tgz:16960.got - 2010.06.28 04:59:45.
