data_PCOD8290797
_publ_section_title
;
Structure prediction by ZEFSAII (Michael W. Deem and Ramdas Pophale) SiO2 
 PCOD8290797
Probable space group: I M M M
;
_chemical_formula_sum "Si O2"
_cell_formula_units_Z 104
_cell_length_a 32.903081
_cell_length_b 7.841672
_cell_length_c 22.430815
_cell_angle_alpha 90.000000
_cell_angle_beta 90.000000
_cell_angle_gamma 90.000000
_cell_volume 5787.490523
_symmetry_space_group_name_H-M "I M M M"
_symmetry_group_IT_number 71
_symmetry_cell_setting 'orthorhombic'
loop_
_space_group_symop_operation_xyz
x,y,z
-x,-y,z
x,-y,-z
-x,y,-z
-x,-y,-z
x,y,-z
-x,y,z
x,-y,z
1/2+x,1/2+y,1/2+z
1/2-x,1/2-y,1/2+z
1/2+x,1/2-y,1/2-z
1/2-x,1/2+y,1/2-z
1/2-x,1/2-y,1/2-z
1/2+x,1/2+y,1/2-z
1/2-x,1/2+y,1/2+z
1/2+x,1/2-y,1/2+z
loop_
_atom_site_type_symbol
_atom_site_label
_atom_site_fract_x
_atom_site_fract_y
_atom_site_fract_z
Si Si1 0.453837 0.193336 0.708935
Si Si2 0.399553 0.695221 0.606959
Si Si3 0.607641 0.199576 0.066906
Si Si4 0.698898 0.188802 0.070935
Si Si5 0.248583 0.500000 0.070579
Si Si6 0.545058 0.306326 0.836192
Si Si7 0.455533 0.299092 0.500000
Si Si8 0.154950 0.500000 0.071362
O O1 0.500000 0.264477 0.701003
O O2 0.421701 0.301917 0.670807
O O3 0.441059 0.199361 0.778399
O O4 0.451332 0.000000 0.686481
O O5 0.384539 0.500000 0.594855
O O6 0.431896 0.760637 0.558474
O O7 0.362416 0.827710 0.601623
O O8 0.653139 0.238922 0.090186
O O9 0.575799 0.289550 0.109554
O O10 0.599281 0.000000 0.067365
O O11 0.601733 0.272111 0.000000
O O12 0.729821 0.330059 0.096882
O O13 0.710451 0.000000 0.095895
O O14 0.700629 0.182010 0.000000
O O15 0.201981 0.500000 0.089356
O O16 0.253733 0.500000 0.000000
O O17 0.500000 0.246922 0.857155
O O18 0.544021 0.500000 0.814777
O O19 0.460159 0.500000 0.500000
O O20 0.500000 0.212457 0.500000
O O21 0.148390 0.500000 0.000000
#
# Coordination Sequence:
#
# PCOD8290797 Si02
#       8
#    16  16  16  16   8  16   8   8
#     4  10  20  35  55  75  99 135 181 227 264 303
#     4  11  21  35  53  74 105 139 175 221 269 316
#     4   9  18  32  51  75 106 140 175 218 262 308
#     4   8  15  29  48  74 103 131 170 214 256 309
#     4   9  18  30  50  74 103 138 169 209 264 316
#     4  10  21  34  48  73 108 142 179 219 257 307
#     4   9  18  31  49  73 100 137 177 212 259 313
#     4  11  22  36  50  78 112 139 175 215 264 334
#
# _framework density 17.969791000000001
#
# number of rings (size 3 to 8) (size 9 to 14) (size 15 to 20)
#    0.000    2.385    1.538    2.308    1.077    3.692 
#    0.000    3.462    0.000    0.000    0.000    1.077 
#    0.000    0.000    0.000    0.000    0.000    0.000 
#
# Total GULP energy -644641.085461 kJ/mol
# GULP energy per Si atom -12396.943951 kJ/mol
# Density = 1.792889 g / cm^3
# Si number density = 17.969791 Si / 1000 Ang^3
#
#
#
# Elastic Constant Matrix: (Units=GPa)
#
#
# Indices 1 2 3 4 5 6 
#
# 1 124.7982 59.6906 46.7023 0.0000 0.0000 0.0000
# 2 59.6906 97.8611 25.4570 0.0000 0.0000 0.0000
# 3 46.7023 25.4570 64.4202 0.0000 0.0000 0.0000
# 4 0.0000 0.0000 0.0000 20.7414 0.0000 0.0000
# 5 0.0000 0.0000 0.0000 0.0000 20.5489 0.0000
# 6 0.0000 0.0000 0.0000 0.0000 0.0000 26.5673
#
#
#
# Elastic Compliance Matrix: (Units=1/GPa)
#
#
# Indices 1 2 3 4 5 6 
#
# 1 0.013971 -0.006562 -0.007536 0.000000 0.000000 0.000000
# 2 -0.006562 0.014471 -0.000962 0.000000 0.000000 0.000000
# 3 -0.007536 -0.000962 0.021366 0.000000 0.000000 0.000000
# 4 0.000000 0.000000 0.000000 0.048213 0.000000 0.000000
# 5 0.000000 0.000000 0.000000 0.000000 0.048664 0.000000
# 6 0.000000 0.000000 0.000000 0.000000 0.000000 0.037640
#
#
# Mechanical properties :
#
#
# Convention : Reuss Voigt Hill
#
# Bulk Modulus (GPa) = 50.78552 61.19770 55.99161
# Shear Modulus (GPa) = 22.62368 23.92017 23.27193
#
# Velocity S-wave (km/s) = 3.55207 3.65243 3.60260
# Velocity P-wave (km/s) = 6.71907 7.20533 6.96644
#
# Compressibility (1/GPa) = 0.01969065
#
# Stress axis : x y z
#
# Youngs Moduli (GPa) = 71.57497 69.10400 46.80278
#
# Poissons Ratio (x) = 0.45343 0.35270
# Poissons Ratio (y) = 0.46964 0.04501
# Poissons Ratio (z) = 0.53937 0.06645
#
# Static dielectric constant tensor:
#      x y z
#    x 3.306920 0.000000 0.000000 
#    y 0.000000 3.427140 0.000000 
#    z 0.000000 0.000000 3.019350 
# 
# 
# High freq. dielectric constant tensor:
#      x y z
#    x 1.681270 0.000000 0.000000 
#    y 0.000000 1.706170 0.000000 
#    z 0.000000 0.000000 1.658560 
# 
# From -- ./inp_files/62012.got.cif
#   From: 2010.06.25/outbox.cif.g09.slc.cpg/sg71_32_cif.got.tgz:62012.got - 2010.06.28 04:59:45.
