data_PCOD8290954
_publ_section_title
;
Structure prediction by ZEFSAII (Michael W. Deem and Ramdas Pophale) SiO2 
 PCOD8290954
Probable space group: I M M M
;
_chemical_formula_sum "Si O2"
_cell_formula_units_Z 82
_cell_length_a 20.255953
_cell_length_b 23.453038
_cell_length_c 9.495662
_cell_angle_alpha 90.000000
_cell_angle_beta 90.000000
_cell_angle_gamma 90.000000
_cell_volume 4511.043711
_symmetry_space_group_name_H-M "I M M M"
_symmetry_group_IT_number 71
_symmetry_cell_setting 'orthorhombic'
loop_
_space_group_symop_operation_xyz
x,y,z
-x,-y,z
x,-y,-z
-x,y,-z
-x,-y,-z
x,y,-z
-x,y,z
x,-y,z
1/2+x,1/2+y,1/2+z
1/2-x,1/2-y,1/2+z
1/2+x,1/2-y,1/2-z
1/2-x,1/2+y,1/2-z
1/2-x,1/2-y,1/2-z
1/2+x,1/2+y,1/2-z
1/2-x,1/2+y,1/2+z
1/2+x,1/2-y,1/2+z
loop_
_atom_site_type_symbol
_atom_site_label
_atom_site_fract_x
_atom_site_fract_y
_atom_site_fract_z
Si Si1 0.862779 0.115954 0.166320
Si Si2 0.123826 0.642076 0.160784
Si Si3 0.000000 0.064345 0.832946
Si Si4 0.253663 0.065260 0.661839
Si Si5 0.500000 0.000000 0.000000
Si Si6 0.500000 0.112473 0.152471
Si Si7 0.186103 0.761405 0.840388
O O1 0.935177 0.097728 0.220558
O O2 0.809764 0.076144 0.242538
O O3 0.851644 0.181706 0.209495
O O4 0.855464 0.106089 0.000000
O O5 0.187297 0.606242 0.212572
O O6 0.064294 0.628612 0.261613
O O7 0.136031 0.709265 0.174571
O O8 0.106522 0.625366 0.000000
O O9 0.000000 0.000000 0.771996
O O10 0.000000 0.062457 0.000000
O O11 0.235321 0.078533 0.500000
O O12 0.276547 0.000000 0.681461
O O13 0.500000 0.954971 0.871747
O O14 0.500000 0.144899 0.000000
O O15 0.250000 0.750000 0.750000
O O16 0.210648 0.768388 0.000000
#
# Coordination Sequence:
#
# PCOD8290954 Si02
#       7
#    16  16   8  16   2   8  16
#     4  10  20  35  57  85 109 147 192 235 285 337
#     4  10  21  38  59  83 112 153 192 236 288 353
#     4   9  18  33  53  78 115 148 181 227 277 330
#     4  10  21  35  54  81 113 148 190 235 283 341
#     4   8  24  44  58  80 124 148 186 246 310 336
#     4  10  23  40  58  82 114 149 187 240 294 338
#     4  10  20  35  58  85 115 147 188 236 287 339
#
# _framework density 18.177612
#
# number of rings (size 3 to 8) (size 9 to 14) (size 15 to 20)
#    0.293    1.854    1.951    0.878    1.366    3.512 
#    0.000    3.902    0.000    1.756    0.000    0.000 
#    0.000    0.000    0.000    0.000    0.000    0.000 
#
# Total GULP energy -507914.717175 kJ/mol
# GULP energy per Si atom -12388.163834 kJ/mol
# Density = 1.813624 g / cm^3
# Si number density = 18.177612 Si / 1000 Ang^3
#
#
#
# Elastic Constant Matrix: (Units=GPa)
#
#
# Indices 1 2 3 4 5 6 
#
# 1 146.7945 55.5256 60.7695 0.0000 0.0000 0.0000
# 2 55.5256 124.9075 30.8315 0.0000 0.0000 0.0000
# 3 60.7695 30.8315 65.9526 0.0000 0.0000 0.0000
# 4 0.0000 0.0000 0.0000 27.8050 0.0000 0.0000
# 5 0.0000 0.0000 0.0000 0.0000 38.2477 0.0000
# 6 0.0000 0.0000 0.0000 0.0000 0.0000 25.8639
#
#
#
# Elastic Compliance Matrix: (Units=1/GPa)
#
#
# Indices 1 2 3 4 5 6 
#
# 1 0.011884 -0.002917 -0.009587 0.000000 0.000000 0.000000
# 2 -0.002917 0.009766 -0.001878 0.000000 0.000000 0.000000
# 3 -0.009587 -0.001878 0.024874 0.000000 0.000000 0.000000
# 4 0.000000 0.000000 0.000000 0.035965 0.000000 0.000000
# 5 0.000000 0.000000 0.000000 0.000000 0.026145 0.000000
# 6 0.000000 0.000000 0.000000 0.000000 0.000000 0.038664
#
#
# Mechanical properties :
#
#
# Convention : Reuss Voigt Hill
#
# Bulk Modulus (GPa) = 56.30276 70.21198 63.25737
# Shear Modulus (GPa) = 27.47541 31.08520 29.28030
#
# Velocity S-wave (km/s) = 3.89202 4.13980 4.01782
# Velocity P-wave (km/s) = 7.15807 7.84602 7.50992
#
# Compressibility (1/GPa) = 0.01776112
#
# Stress axis : x y z
#
# Youngs Moduli (GPa) = 84.14577 102.39607 40.20307
#
# Poissons Ratio (x) = 0.29864 0.38542
# Poissons Ratio (y) = 0.24542 0.07550
# Poissons Ratio (z) = 0.80669 0.19231
#
# Static dielectric constant tensor:
#      x y z
#    x 3.143610 0.000000 0.000000 
#    y 0.000000 3.670650 0.000000 
#    z 0.000000 0.000000 3.305380 
# 
# 
# High freq. dielectric constant tensor:
#      x y z
#    x 1.694960 0.000000 0.000000 
#    y 0.000000 1.721780 0.000000 
#    z 0.000000 0.000000 1.695230 
# 
# From -- ./inp_files/10333.got.cif
#   From: 2010.06.25/outbox.cif.g09.slc.cpg/sg71_6_cif.got.tgz:10333.got - 2010.06.28 04:59:45.
