data_PCOD8290349
_publ_section_title
;
Structure prediction by ZEFSAII (Michael W. Deem and Ramdas Pophale) SiO2 
 PCOD8290349
Probable space group: I M M M
;
_chemical_formula_sum "Si O2"
_cell_formula_units_Z 72
_cell_length_a 8.727399
_cell_length_b 14.152972
_cell_length_c 34.127839
_cell_angle_alpha 90.000000
_cell_angle_beta 90.000000
_cell_angle_gamma 90.000000
_cell_volume 4215.424044
_symmetry_space_group_name_H-M "I M M M"
_symmetry_group_IT_number 71
_symmetry_cell_setting 'orthorhombic'
loop_
_space_group_symop_operation_xyz
x,y,z
-x,-y,z
x,-y,-z
-x,y,-z
-x,-y,-z
x,y,-z
-x,y,z
x,-y,z
1/2+x,1/2+y,1/2+z
1/2-x,1/2-y,1/2+z
1/2+x,1/2-y,1/2-z
1/2-x,1/2+y,1/2-z
1/2-x,1/2-y,1/2-z
1/2+x,1/2+y,1/2-z
1/2-x,1/2+y,1/2+z
1/2+x,1/2-y,1/2+z
loop_
_atom_site_type_symbol
_atom_site_label
_atom_site_fract_x
_atom_site_fract_y
_atom_site_fract_z
Si Si1 0.675250 0.888735 0.225792
Si Si2 0.678000 0.890493 0.000000
Si Si3 0.819953 0.892914 0.692201
Si Si4 0.818908 0.610822 0.415159
Si Si5 0.820642 0.777834 0.155634
O O1 0.500000 0.854435 0.222228
O O2 0.739630 0.858268 0.267897
O O3 0.774983 0.841533 0.192309
O O4 0.689379 0.000000 0.220074
O O5 0.740443 0.851713 0.958211
O O6 0.500000 0.870627 0.000000
O O7 0.713179 0.000000 0.000000
O O8 0.762654 0.824097 0.657760
O O9 0.000000 0.884368 0.698071
O O10 0.771939 0.000000 0.681548
O O11 0.781644 0.500000 0.409621
O O12 0.726954 0.671274 0.384078
O O13 0.000000 0.627363 0.409910
O O14 0.000000 0.760609 0.155665
#
# Coordination Sequence:
#
# PCOD8290349 Si02
#       5
#    16   8  16  16  16
#     4  10  20  34  51  70  95 127 161 198 239 282
#     4   7  12  26  49  73  96 125 158 191 229 274
#     4  10  21  37  54  69  88 119 161 206 247 286
#     4   9  17  31  51  74 100 129 161 195 231 275
#     4  12  23  32  46  70 100 130 160 196 236 281
#
# _framework density 17.080134000000001
#
# number of rings (size 3 to 8) (size 9 to 14) (size 15 to 20)
#    0.000    2.111    0.000    6.000    0.000    5.778 
#    0.000    0.556    0.000    2.000    0.000    0.778 
#    0.000    6.222    0.000    0.000    0.000    0.000 
#
# Total GULP energy -446248.512195 kJ/mol
# GULP energy per Si atom -12395.792005 kJ/mol
# Density = 1.704126 g / cm^3
# Si number density = 17.080134 Si / 1000 Ang^3
#
#
#
# Elastic Constant Matrix: (Units=GPa)
#
#
# Indices 1 2 3 4 5 6 
#
# 1 55.8833 27.5727 21.0706 0.0000 0.0000 0.0000
# 2 27.5727 55.5824 61.8559 0.0000 0.0000 0.0000
# 3 21.0706 61.8559 95.2055 0.0000 0.0000 0.0000
# 4 0.0000 0.0000 0.0000 20.2824 0.0000 0.0000
# 5 0.0000 0.0000 0.0000 0.0000 22.6967 0.0000
# 6 0.0000 0.0000 0.0000 0.0000 0.0000 23.2151
#
#
#
# Elastic Compliance Matrix: (Units=1/GPa)
#
#
# Indices 1 2 3 4 5 6 
#
# 1 0.025840 -0.023303 0.009421 0.000000 0.000000 0.000000
# 2 -0.023303 0.085976 -0.050702 0.000000 0.000000 0.000000
# 3 0.009421 -0.050702 0.041360 0.000000 0.000000 0.000000
# 4 0.000000 0.000000 0.000000 0.049304 0.000000 0.000000
# 5 0.000000 0.000000 0.000000 0.000000 0.044059 0.000000
# 6 0.000000 0.000000 0.000000 0.000000 0.000000 0.043075
#
#
# Mechanical properties :
#
#
# Convention : Reuss Voigt Hill
#
# Bulk Modulus (GPa) = 41.65210 47.51885 44.58547
# Shear Modulus (GPa) = 11.71555 19.65032 15.68294
#
# Velocity S-wave (km/s) = 2.62184 3.39555 3.03346
# Velocity P-wave (km/s) = 5.79695 6.57682 6.19916
#
# Compressibility (1/GPa) = 0.02400839
#
# Stress axis : x y z
#
# Youngs Moduli (GPa) = 38.70003 11.63121 24.17803
#
# Poissons Ratio (x) = 0.27104 -0.22779
# Poissons Ratio (y) = 0.90183 1.22587
# Poissons Ratio (z) = -0.36461 0.58972
#
# Static dielectric constant tensor:
#      x y z
#    x 3.147720 0.000000 0.000000 
#    y 0.000000 3.201190 0.000000 
#    z 0.000000 0.000000 3.429190 
# 
# 
# High freq. dielectric constant tensor:
#      x y z
#    x 1.658250 0.000000 0.000000 
#    y 0.000000 1.644330 0.000000 
#    z 0.000000 0.000000 1.651950 
# 
# From -- ./inp_files/6458.got.cif
#   From: 2010.06.25/outbox.cif.g09.slc.cpg/sg71_4_cif.got.tgz:6458.got - 2010.06.28 04:59:45.
