data_PCOD8290133
_publ_section_title
;
Structure prediction by ZEFSAII (Michael W. Deem and Ramdas Pophale) SiO2 
 PCOD8290133
Probable space group: I M M M
;
_chemical_formula_sum "Si O2"
_cell_formula_units_Z 104
_cell_length_a 18.618426
_cell_length_b 8.999624
_cell_length_c 32.762358
_cell_angle_alpha 90.000000
_cell_angle_beta 90.000000
_cell_angle_gamma 90.000000
_cell_volume 5489.622488
_symmetry_space_group_name_H-M "I M M M"
_symmetry_group_IT_number 71
_symmetry_cell_setting 'orthorhombic'
loop_
_space_group_symop_operation_xyz
x,y,z
-x,-y,z
x,-y,-z
-x,y,-z
-x,-y,-z
x,y,-z
-x,y,z
x,-y,z
1/2+x,1/2+y,1/2+z
1/2-x,1/2-y,1/2+z
1/2+x,1/2-y,1/2-z
1/2-x,1/2+y,1/2-z
1/2-x,1/2-y,1/2-z
1/2+x,1/2+y,1/2-z
1/2-x,1/2+y,1/2+z
1/2+x,1/2-y,1/2+z
loop_
_atom_site_type_symbol
_atom_site_label
_atom_site_fract_x
_atom_site_fract_y
_atom_site_fract_z
Si Si1 0.153445 0.326643 0.576290
Si Si2 0.417073 0.826695 0.604164
Si Si3 0.916316 0.174295 0.652478
Si Si4 0.188978 0.170651 0.953007
Si Si5 0.914452 0.832541 0.814266
Si Si6 0.085299 0.332983 0.265235
Si Si7 0.084851 0.832205 0.500000
O O1 0.134417 0.500000 0.576276
O O2 0.130588 0.254483 0.618583
O O3 0.237835 0.298919 0.571122
O O4 0.110359 0.251727 0.539972
O O5 0.500000 0.787495 0.596177
O O6 0.373397 0.773349 0.564873
O O7 0.387257 0.744322 0.644332
O O8 0.405696 0.000000 0.611152
O O9 0.890309 0.237658 0.695851
O O10 0.000000 0.209078 0.644738
O O11 0.901004 0.000000 0.651493
O O12 0.165056 0.000000 0.948727
O O13 0.201130 0.214206 0.000000
O O14 0.883042 0.743973 0.775424
O O15 0.000000 0.830960 0.812786
O O16 0.884587 0.000000 0.813083
O O17 0.116097 0.500000 0.268651
O O18 0.000000 0.336858 0.262464
O O19 0.000000 0.834899 0.500000
O O20 0.115509 0.000000 0.500000
#
# Coordination Sequence:
#
# PCOD8290133 Si02
#       7
#    16  16  16  16  16  16   8
#     4  11  22  38  57  78 106 142 185 230 274 325
#     4  10  21  36  56  85 115 141 176 222 269 322
#     4  10  20  33  50  77 112 147 186 230 274 323
#     4  10  22  41  60  79 106 141 182 224 272 332
#     4   9  16  28  49  77 109 144 179 218 267 320
#     4   9  16  27  46  74 108 145 183 224 270 318
#     4  11  23  37  55  81 110 141 180 227 277 326
#
# _framework density 18.944837
#
# number of rings (size 3 to 8) (size 9 to 14) (size 15 to 20)
#    0.000    2.077    0.769    3.000    0.000    9.846 
#    0.000    1.538    0.000    0.923    0.000    0.000 
#    0.000    0.000    0.000    0.000    0.000    0.000 
#
# Total GULP energy -644967.149964 kJ/mol
# GULP energy per Si atom -12403.214422 kJ/mol
# Density = 1.890172 g / cm^3
# Si number density = 18.944837 Si / 1000 Ang^3
#
#
#
# Elastic Constant Matrix: (Units=GPa)
#
#
# Indices 1 2 3 4 5 6 
#
# 1 50.3291 46.9362 42.9496 0.0000 0.0000 0.0000
# 2 46.9362 140.1294 65.2848 0.0000 0.0000 0.0000
# 3 42.9496 65.2848 118.0425 0.0000 0.0000 0.0000
# 4 0.0000 0.0000 0.0000 45.4581 0.0000 0.0000
# 5 0.0000 0.0000 0.0000 0.0000 -11.2072 0.0000
# 6 0.0000 0.0000 0.0000 0.0000 0.0000 22.6805
#
#
#
# Elastic Compliance Matrix: (Units=1/GPa)
#
#
# Indices 1 2 3 4 5 6 
#
# 1 0.033858 -0.007545 -0.008146 0.000000 0.000000 0.000000
# 2 -0.007545 0.011295 -0.003501 0.000000 0.000000 0.000000
# 3 -0.008146 -0.003501 0.013372 0.000000 0.000000 0.000000
# 4 0.000000 0.000000 0.000000 0.021998 0.000000 0.000000
# 5 0.000000 0.000000 0.000000 0.000000 -0.089229 0.000000
# 6 0.000000 0.000000 0.000000 0.000000 0.000000 0.044091
#
#
# Mechanical properties :
#
#
# Convention : Reuss Voigt Hill
#
# Bulk Modulus (GPa) = 49.65534 68.76024 59.20779
# Shear Modulus (GPa) = 62.12485 21.60831 41.86658
#
# Velocity S-wave (km/s) = 5.73269 3.38093 4.70608
# Velocity P-wave (km/s) = 8.37172 7.18433 7.80065
#
# Compressibility (1/GPa) = 0.02013882
#
# Stress axis : x y z
#
# Youngs Moduli (GPa) = 29.53550 88.53604 74.78389
#
# Poissons Ratio (x) = 0.66804 0.60919
# Poissons Ratio (y) = 0.22286 0.26184
# Poissons Ratio (z) = 0.24059 0.30999
#
# Static dielectric constant tensor:
#      x y z
#    x 3.097820 0.000000 0.000000 
#    y 0.000000 3.687920 0.000000 
#    z 0.000000 0.000000 3.250430 
# 
# 
# High freq. dielectric constant tensor:
#      x y z
#    x 1.694810 0.000000 0.000000 
#    y 0.000000 1.753270 0.000000 
#    z 0.000000 0.000000 1.750640 
# 
# From -- ./inp_files/70726.got.cif
#   From: 2010.06.25/outbox.cif.g09.slc.cpg/sg71_36_cif.got.tgz:70726.got - 2010.06.28 04:59:45.
