data_PCOD8290908
_publ_section_title
;
Structure prediction by ZEFSAII (Michael W. Deem and Ramdas Pophale) SiO2 
 PCOD8290908
Probable space group: I M M M
;
_chemical_formula_sum "Si O2"
_cell_formula_units_Z 96
_cell_length_a 24.014690
_cell_length_b 24.259085
_cell_length_c 9.066219
_cell_angle_alpha 90.000000
_cell_angle_beta 90.000000
_cell_angle_gamma 90.000000
_cell_volume 5281.747148
_symmetry_space_group_name_H-M "I M M M"
_symmetry_group_IT_number 71
_symmetry_cell_setting 'orthorhombic'
loop_
_space_group_symop_operation_xyz
x,y,z
-x,-y,z
x,-y,-z
-x,y,-z
-x,-y,-z
x,y,-z
-x,y,z
x,-y,z
1/2+x,1/2+y,1/2+z
1/2-x,1/2-y,1/2+z
1/2+x,1/2-y,1/2-z
1/2-x,1/2+y,1/2-z
1/2-x,1/2-y,1/2-z
1/2+x,1/2+y,1/2-z
1/2-x,1/2+y,1/2+z
1/2+x,1/2-y,1/2+z
loop_
_atom_site_type_symbol
_atom_site_label
_atom_site_fract_x
_atom_site_fract_y
_atom_site_fract_z
Si Si1 0.371729 0.155943 0.830318
Si Si2 0.740825 0.839858 0.332875
Si Si3 0.688148 0.438108 0.167189
Si Si4 0.651221 0.661039 0.674058
Si Si5 0.436289 0.936440 0.669629
Si Si6 0.435624 0.734292 0.831253
O O1 0.316501 0.174549 0.745315
O O2 0.395471 0.098864 0.770102
O O3 0.417684 0.202792 0.805604
O O4 0.356067 0.147613 0.000000
O O5 0.738977 0.817283 0.500000
O O6 0.751944 0.906445 0.330236
O O7 0.793248 0.811338 0.247678
O O8 0.694950 0.500000 0.229832
O O9 0.645635 0.402609 0.269052
O O10 0.664917 0.439311 0.000000
O O11 0.657223 0.662364 0.500000
O O12 0.596942 0.693999 0.722637
O O13 0.427439 0.919431 0.500000
O O14 0.500000 0.925803 0.716700
O O15 0.420717 0.000000 0.693727
O O16 0.500000 0.729561 0.789927
O O17 0.424064 0.716644 0.000000
#
# Coordination Sequence:
#
# PCOD8290908 Si02
#       6
#    16  16  16  16  16  16
#     4  11  22  35  54  83 112 141 184 235 282 322
#     4   9  19  35  54  79 110 146 181 215 264 329
#     4   8  16  33  56  80 109 147 184 215 261 328
#     4  10  20  35  56  85 114 142 181 230 280 326
#     4   9  19  36  55  74 102 144 189 230 276 332
#     4  10  22  40  59  78 107 148 188 227 274 333
#
# _framework density 18.175805
#
# number of rings (size 3 to 8) (size 9 to 14) (size 15 to 20)
#    1.000    1.500    0.000    3.000    0.000    4.667 
#    0.000    2.500    0.000    0.500    0.000    3.500 
#    0.000    0.000    0.000    0.000    0.000    0.000 
#
# Total GULP energy -594957.885207 kJ/mol
# GULP energy per Si atom -12394.955942 kJ/mol
# Density = 1.813444 g / cm^3
# Si number density = 18.175805 Si / 1000 Ang^3
#
#
#
# Elastic Constant Matrix: (Units=GPa)
#
#
# Indices 1 2 3 4 5 6 
#
# 1 108.1455 26.4508 60.9528 0.0000 0.0000 0.0000
# 2 26.4508 28.8145 30.6687 0.0000 0.0000 0.0000
# 3 60.9528 30.6687 129.9121 0.0000 0.0000 0.0000
# 4 0.0000 0.0000 0.0000 22.3265 0.0000 0.0000
# 5 0.0000 0.0000 0.0000 0.0000 28.8763 0.0000
# 6 0.0000 0.0000 0.0000 0.0000 0.0000 27.4439
#
#
#
# Elastic Compliance Matrix: (Units=1/GPa)
#
#
# Indices 1 2 3 4 5 6 
#
# 1 0.013735 -0.007679 -0.004632 0.000000 0.000000 0.000000
# 2 -0.007679 0.050644 -0.008353 0.000000 0.000000 0.000000
# 3 -0.004632 -0.008353 0.011842 0.000000 0.000000 0.000000
# 4 0.000000 0.000000 0.000000 0.044790 0.000000 0.000000
# 5 0.000000 0.000000 0.000000 0.000000 0.034630 0.000000
# 6 0.000000 0.000000 0.000000 0.000000 0.000000 0.036438
#
#
# Mechanical properties :
#
#
# Convention : Reuss Voigt Hill
#
# Bulk Modulus (GPa) = 28.65727 55.89071 42.27399
# Shear Modulus (GPa) = 20.40490 25.64934 23.02712
#
# Velocity S-wave (km/s) = 3.35422 3.76064 3.56323
# Velocity P-wave (km/s) = 5.54995 7.04794 6.34332
#
# Compressibility (1/GPa) = 0.03489516
#
# Stress axis : x y z
#
# Youngs Moduli (GPa) = 72.80426 19.74559 84.44164
#
# Poissons Ratio (x) = 0.15163 0.39111
# Poissons Ratio (y) = 0.55906 0.70533
# Poissons Ratio (z) = 0.33720 0.16493
#
# Static dielectric constant tensor:
#      x y z
#    x 3.119300 0.000000 0.000000 
#    y 0.000000 3.220780 0.000000 
#    z 0.000000 0.000000 3.306480 
# 
# 
# High freq. dielectric constant tensor:
#      x y z
#    x 1.685820 0.000000 0.000000 
#    y 0.000000 1.695380 0.000000 
#    z 0.000000 0.000000 1.707650 
# 
# From -- ./inp_files/12873.got.cif
#   From: 2010.06.25/outbox.cif.g09.slc.cpg/sg71_7_cif.got.tgz:12873.got - 2010.06.28 04:59:45.
