data_PCOD8290446
_publ_section_title
;
Structure prediction by ZEFSAII (Michael W. Deem and Ramdas Pophale) SiO2 
 PCOD8290446
Probable space group: I M M M
;
_chemical_formula_sum "Si O2"
_cell_formula_units_Z 80
_cell_length_a 18.665388
_cell_length_b 7.694897
_cell_length_c 29.520975
_cell_angle_alpha 90.000000
_cell_angle_beta 90.000000
_cell_angle_gamma 90.000000
_cell_volume 4240.045627
_symmetry_space_group_name_H-M "I M M M"
_symmetry_group_IT_number 71
_symmetry_cell_setting 'orthorhombic'
loop_
_space_group_symop_operation_xyz
x,y,z
-x,-y,z
x,-y,-z
-x,y,-z
-x,-y,-z
x,y,-z
-x,y,z
x,-y,z
1/2+x,1/2+y,1/2+z
1/2-x,1/2-y,1/2+z
1/2+x,1/2-y,1/2-z
1/2-x,1/2+y,1/2-z
1/2-x,1/2-y,1/2-z
1/2+x,1/2+y,1/2-z
1/2-x,1/2+y,1/2+z
1/2+x,1/2-y,1/2+z
loop_
_atom_site_type_symbol
_atom_site_label
_atom_site_fract_x
_atom_site_fract_y
_atom_site_fract_z
Si Si1 0.082478 0.304356 0.910810
Si Si2 0.835893 0.793728 0.000000
Si Si3 0.585677 0.500000 0.245173
Si Si4 0.415108 0.500000 0.346537
Si Si5 0.914672 0.693061 0.317375
Si Si6 0.420305 0.206101 0.082422
Si Si7 0.327167 0.206828 0.000000
O O1 0.090625 0.500000 0.891850
O O2 0.126983 0.285159 0.956259
O O3 0.000000 0.261057 0.922218
O O4 0.111893 0.171854 0.872792
O O5 0.754222 0.728715 0.000000
O O6 0.843281 0.000000 0.000000
O O7 0.500000 0.500000 0.245169
O O8 0.617430 0.500000 0.295973
O O9 0.614915 0.328443 0.219637
O O10 0.500000 0.500000 0.342697
O O11 0.884256 0.500000 0.306341
O O12 0.890841 0.755870 0.367620
O O13 0.000000 0.686339 0.316688
O O14 0.500000 0.283894 0.074456
O O15 0.424759 0.000000 0.078653
O O16 0.366696 0.282036 0.044595
O O17 0.329908 0.000000 0.000000
#
# Coordination Sequence:
#
# PCOD8290446 Si02
#       7
#    16   8   8   8  16  16   8
#     4  10  20  34  53  74  98 131 165 198 242 298
#     4  11  20  31  49  72 103 131 165 204 243 295
#     4   9  16  26  43  69 101 127 152 198 248 290
#     4   9  18  31  48  75 103 126 157 198 247 294
#     4   8  14  24  41  65  93 128 164 196 238 286
#     4   8  13  24  43  68 101 137 172 207 241 286
#     4   9  17  26  43  73 102 131 173 204 249 291
#
# _framework density 18.867723000000002
#
# number of rings (size 3 to 8) (size 9 to 14) (size 15 to 20)
#    0.000    3.000    1.000    2.100    0.000    3.200 
#    0.000    4.000    4.400    0.000    0.000    4.900 
#    0.000    0.000    0.000    0.000    0.000    0.000 
#
# Total GULP energy -495822.995795 kJ/mol
# GULP energy per Si atom -12395.574895 kJ/mol
# Density = 1.882478 g / cm^3
# Si number density = 18.867723 Si / 1000 Ang^3
#
#
#
# Elastic Constant Matrix: (Units=GPa)
#
#
# Indices 1 2 3 4 5 6 
#
# 1 57.8350 25.0061 47.1054 0.0000 0.0000 0.0000
# 2 25.0061 106.7836 71.9256 0.0000 0.0000 0.0000
# 3 47.1054 71.9256 185.9429 0.0000 0.0000 0.0000
# 4 0.0000 0.0000 0.0000 14.2768 0.0000 0.0000
# 5 0.0000 0.0000 0.0000 0.0000 -33.2569 0.0000
# 6 0.0000 0.0000 0.0000 0.0000 0.0000 7.4780
#
#
#
# Elastic Compliance Matrix: (Units=1/GPa)
#
#
# Indices 1 2 3 4 5 6 
#
# 1 0.022066 -0.001896 -0.004857 0.000000 0.000000 0.000000
# 2 -0.001896 0.012827 -0.004481 0.000000 0.000000 0.000000
# 3 -0.004857 -0.004481 0.008342 0.000000 0.000000 0.000000
# 4 0.000000 0.000000 0.000000 0.070044 0.000000 0.000000
# 5 0.000000 0.000000 0.000000 0.000000 -0.030069 0.000000
# 6 0.000000 0.000000 0.000000 0.000000 0.000000 0.133725
#
#
# Mechanical properties :
#
#
# Convention : Reuss Voigt Hill
#
# Bulk Modulus (GPa) = 48.15371 70.95953 59.55662
# Shear Modulus (GPa) = 20.29834 11.46788 15.88311
#
# Velocity S-wave (km/s) = 3.28353 2.46804 2.90455
# Velocity P-wave (km/s) = 6.32081 6.76847 6.54847
#
# Compressibility (1/GPa) = 0.02076683
#
# Stress axis : x y z
#
# Youngs Moduli (GPa) = 45.31862 77.95877 119.87775
#
# Poissons Ratio (x) = 0.14782 0.58220
# Poissons Ratio (y) = 0.08593 0.53723
# Poissons Ratio (z) = 0.22009 0.34937
#
# Static dielectric constant tensor:
#      x y z
#    x 3.097780 0.000000 0.000000 
#    y 0.000000 3.520160 0.000000 
#    z 0.000000 0.000000 3.710990 
# 
# 
# High freq. dielectric constant tensor:
#      x y z
#    x 1.674300 0.000000 0.000000 
#    y 0.000000 1.729410 0.000000 
#    z 0.000000 0.000000 1.735830 
# 
# From -- ./inp_files/66313.got.cif
#   From: 2010.06.25/outbox.cif.g09.slc.cpg/sg71_34_cif.got.tgz:66313.got - 2010.06.28 04:59:45.
