data_PCOD8290885
_publ_section_title
;
Structure prediction by ZEFSAII (Michael W. Deem and Ramdas Pophale) SiO2 
 PCOD8290885
Probable space group: I M M M
;
_chemical_formula_sum "Si O2"
_cell_formula_units_Z 88
_cell_length_a 8.981675
_cell_length_b 17.852766
_cell_length_c 27.350421
_cell_angle_alpha 90.000000
_cell_angle_beta 90.000000
_cell_angle_gamma 90.000000
_cell_volume 4385.578252
_symmetry_space_group_name_H-M "I M M M"
_symmetry_group_IT_number 71
_symmetry_cell_setting 'orthorhombic'
loop_
_space_group_symop_operation_xyz
x,y,z
-x,-y,z
x,-y,-z
-x,y,-z
-x,-y,-z
x,y,-z
-x,y,z
x,-y,z
1/2+x,1/2+y,1/2+z
1/2-x,1/2-y,1/2+z
1/2+x,1/2-y,1/2-z
1/2-x,1/2+y,1/2-z
1/2-x,1/2-y,1/2-z
1/2+x,1/2+y,1/2-z
1/2-x,1/2+y,1/2+z
1/2+x,1/2-y,1/2+z
loop_
_atom_site_type_symbol
_atom_site_label
_atom_site_fract_x
_atom_site_fract_y
_atom_site_fract_z
Si Si1 0.822484 0.000000 0.557009
Si Si2 0.325995 0.414284 0.601912
Si Si3 0.832390 0.287717 0.444876
Si Si4 0.823197 0.852937 0.614657
Si Si5 0.334824 0.912198 0.198674
Si Si6 0.176331 0.822407 0.725000
O O1 0.761646 0.927538 0.587281
O O2 0.765847 0.000000 0.500000
O O3 0.000000 0.000000 0.556479
O O4 0.500000 0.405998 0.610983
O O5 0.283847 0.500000 0.589583
O O6 0.270777 0.361515 0.558204
O O7 0.241068 0.382349 0.649360
O O8 0.833064 0.259113 0.500000
O O9 0.763846 0.219905 0.413696
O O10 0.000000 0.307951 0.427620
O O11 0.767079 0.841668 0.670318
O O12 0.000000 0.856662 0.613121
O O13 0.500000 0.875866 0.203793
O O14 0.229054 0.893255 0.243838
O O15 0.348476 0.000000 0.195717
O O16 0.250000 0.750000 0.750000
O O17 0.000000 0.812890 0.726429
#
# Coordination Sequence:
#
# PCOD8290885 Si02
#       6
#     8  16  16  16  16  16
#     4   9  16  30  54  82 113 147 187 239 296 343
#     4  10  21  37  57  82 111 146 190 237 286 342
#     4  10  20  35  56  82 113 148 188 234 286 343
#     4   9  19  33  52  81 114 148 188 236 286 342
#     4  10  21  37  57  80 110 146 185 229 282 343
#     4  11  22  35  55  82 116 153 193 238 286 344
#
# _framework density 20.065770000000001
#
# number of rings (size 3 to 8) (size 9 to 14) (size 15 to 20)
#    0.000    2.091    0.000    3.273    1.273    6.545 
#    0.000    2.727    0.000    0.000    0.000    0.000 
#    0.000    5.091    0.000    0.000    0.000    0.000 
#
# Total GULP energy -545478.534458 kJ/mol
# GULP energy per Si atom -12397.239419 kJ/mol
# Density = 2.002010 g / cm^3
# Si number density = 20.065770 Si / 1000 Ang^3
#
#
#
# Elastic Constant Matrix: (Units=GPa)
#
#
# Indices 1 2 3 4 5 6 
#
# 1 61.1235 34.2796 27.9535 0.0000 0.0000 0.0000
# 2 34.2796 108.4549 55.1979 0.0000 0.0000 0.0000
# 3 27.9535 55.1979 121.1067 0.0000 0.0000 0.0000
# 4 0.0000 0.0000 0.0000 39.7295 0.0000 0.0000
# 5 0.0000 0.0000 0.0000 0.0000 26.0657 0.0000
# 6 0.0000 0.0000 0.0000 0.0000 0.0000 26.1417
#
#
#
# Elastic Compliance Matrix: (Units=1/GPa)
#
#
# Indices 1 2 3 4 5 6 
#
# 1 0.020366 -0.005266 -0.002301 0.000000 0.000000 0.000000
# 2 -0.005266 0.013367 -0.004877 0.000000 0.000000 0.000000
# 3 -0.002301 -0.004877 0.011011 0.000000 0.000000 0.000000
# 4 0.000000 0.000000 0.000000 0.025170 0.000000 0.000000
# 5 0.000000 0.000000 0.000000 0.000000 0.038365 0.000000
# 6 0.000000 0.000000 0.000000 0.000000 0.000000 0.038253
#
#
# Mechanical properties :
#
#
# Convention : Reuss Voigt Hill
#
# Bulk Modulus (GPa) = 50.36124 58.39411 54.37768
# Shear Modulus (GPa) = 28.08392 29.93765 29.01078
#
# Velocity S-wave (km/s) = 3.74517 3.86680 3.80647
# Velocity P-wave (km/s) = 6.62226 7.00719 6.81744
#
# Compressibility (1/GPa) = 0.01985654
#
# Stress axis : x y z
#
# Youngs Moduli (GPa) = 49.10178 74.81107 90.81861
#
# Poissons Ratio (x) = 0.39397 0.20893
# Poissons Ratio (y) = 0.25858 0.44291
# Poissons Ratio (z) = 0.11296 0.36484
#
# Static dielectric constant tensor:
#      x y z
#    x 3.566380 0.000000 0.000000 
#    y 0.000000 3.721340 0.000000 
#    z 0.000000 0.000000 3.841270 
# 
# 
# High freq. dielectric constant tensor:
#      x y z
#    x 1.752920 0.000000 0.000000 
#    y 0.000000 1.790080 0.000000 
#    z 0.000000 0.000000 1.791370 
# 
# From -- ./inp_files/57533.got.cif
#   From: 2010.06.25/outbox.cif.g09.slc.cpg/sg71_29_cif.got.tgz:57533.got - 2010.06.28 04:59:45.
