data_PCOD8290844
_publ_section_title
;
Structure prediction by ZEFSAII (Michael W. Deem and Ramdas Pophale) SiO2 
 PCOD8290844
Probable space group: I M M M
;
_chemical_formula_sum "Si O2"
_cell_formula_units_Z 120
_cell_length_a 20.842271
_cell_length_b 23.216565
_cell_length_c 13.475314
_cell_angle_alpha 90.000000
_cell_angle_beta 90.000000
_cell_angle_gamma 90.000000
_cell_volume 6520.514974
_symmetry_space_group_name_H-M "I M M M"
_symmetry_group_IT_number 71
_symmetry_cell_setting 'orthorhombic'
loop_
_space_group_symop_operation_xyz
x,y,z
-x,-y,z
x,-y,-z
-x,y,-z
-x,-y,-z
x,y,-z
-x,y,z
x,-y,z
1/2+x,1/2+y,1/2+z
1/2-x,1/2-y,1/2+z
1/2+x,1/2-y,1/2-z
1/2-x,1/2+y,1/2-z
1/2-x,1/2-y,1/2-z
1/2+x,1/2+y,1/2-z
1/2-x,1/2+y,1/2+z
1/2+x,1/2-y,1/2+z
loop_
_atom_site_type_symbol
_atom_site_label
_atom_site_fract_x
_atom_site_fract_y
_atom_site_fract_z
Si Si1 0.384251 0.247153 0.882275
Si Si2 0.755867 0.118480 0.112833
Si Si3 0.116306 0.628481 0.303197
Si Si4 0.427741 0.371848 0.884516
Si Si5 0.306224 0.433035 0.196147
Si Si6 0.311479 0.135848 0.614367
Si Si7 0.500000 0.066980 0.891055
Si Si8 0.257664 0.253228 0.385672
O O1 0.413534 0.191927 0.824861
O O2 0.423690 0.304410 0.855859
O O3 0.312447 0.254958 0.837631
O O4 0.385086 0.234546 0.000000
O O5 0.679512 0.119813 0.129303
O O6 0.790715 0.074762 0.187152
O O7 0.784737 0.182673 0.133324
O O8 0.769732 0.098992 0.000000
O O9 0.132661 0.614427 0.187707
O O10 0.063460 0.582338 0.330815
O O11 0.500000 0.392928 0.860338
O O12 0.377836 0.410190 0.823226
O O13 0.411348 0.379820 0.000000
O O14 0.302468 0.500000 0.168437
O O15 0.254828 0.398920 0.128975
O O16 0.333536 0.130438 0.500000
O O17 0.302965 0.202007 0.652788
O O18 0.500000 0.000000 0.905715
O O19 0.500000 0.096926 0.000000
O O20 0.247535 0.240516 0.500000
#
# Coordination Sequence:
#
# PCOD8290844 Si02
#       8
#    16  16  16  16  16  16   8  16
#     4   9  16  29  51  80 112 137 172 221 272 326
#     4   9  19  35  57  85 112 135 172 227 281 328
#     4  10  21  33  56  84 109 143 180 217 271 326
#     4  10  21  35  52  77 108 145 181 222 270 317
#     4  11  23  35  53  79 109 148 187 220 265 323
#     4  10  20  35  55  82 114 144 180 223 267 318
#     4  11  24  42  59  77 109 147 183 225 273 328
#     4   8  14  28  52  80 109 139 167 210 274 329
#
# _framework density 18.403455000000001
#
# number of rings (size 3 to 8) (size 9 to 14) (size 15 to 20)
#    0.000    2.333    1.333    2.400    2.800    5.333 
#    0.000    1.000    0.000    0.800    0.000    0.933 
#    0.000    0.000    0.000    0.000    0.000    0.000 
#
# Total GULP energy -743727.115672 kJ/mol
# GULP energy per Si atom -12395.451928 kJ/mol
# Density = 1.836157 g / cm^3
# Si number density = 18.403455 Si / 1000 Ang^3
#
#
#
# Elastic Constant Matrix: (Units=GPa)
#
#
# Indices 1 2 3 4 5 6 
#
# 1 76.6506 31.9489 32.0701 0.0000 0.0000 0.0000
# 2 31.9489 79.6178 21.2747 0.0000 0.0000 0.0000
# 3 32.0701 21.2747 102.0427 0.0000 0.0000 0.0000
# 4 0.0000 0.0000 0.0000 20.6872 0.0000 0.0000
# 5 0.0000 0.0000 0.0000 0.0000 19.9220 0.0000
# 6 0.0000 0.0000 0.0000 0.0000 0.0000 19.5694
#
#
#
# Elastic Compliance Matrix: (Units=1/GPa)
#
#
# Indices 1 2 3 4 5 6 
#
# 1 0.017217 -0.005785 -0.004205 0.000000 0.000000 0.000000
# 2 -0.005785 0.015245 -0.001360 0.000000 0.000000 0.000000
# 3 -0.004205 -0.001360 0.011405 0.000000 0.000000 0.000000
# 4 0.000000 0.000000 0.000000 0.048339 0.000000 0.000000
# 5 0.000000 0.000000 0.000000 0.000000 0.050196 0.000000
# 6 0.000000 0.000000 0.000000 0.000000 0.000000 0.051100
#
#
# Mechanical properties :
#
#
# Convention : Reuss Voigt Hill
#
# Bulk Modulus (GPa) = 47.24493 47.65539 47.45016
# Shear Modulus (GPa) = 22.39567 23.57021 22.98294
#
# Velocity S-wave (km/s) = 3.49223 3.58264 3.53772
# Velocity P-wave (km/s) = 6.47985 6.56237 6.52124
#
# Compressibility (1/GPa) = 0.02116629
#
# Stress axis : x y z
#
# Youngs Moduli (GPa) = 58.08292 65.59563 87.68172
#
# Poissons Ratio (x) = 0.37948 0.36868
# Poissons Ratio (y) = 0.33602 0.11927
# Poissons Ratio (z) = 0.24423 0.08922
#
# Static dielectric constant tensor:
#      x y z
#    x 3.109810 0.000000 0.000000 
#    y 0.000000 3.376270 0.000000 
#    z 0.000000 0.000000 3.321680 
# 
# 
# High freq. dielectric constant tensor:
#      x y z
#    x 1.679660 0.000000 0.000000 
#    y 0.000000 1.709870 0.000000 
#    z 0.000000 0.000000 1.710170 
# 
# From -- ./inp_files/38418.got.cif
#   From: 2010.06.25/outbox.cif.g09.slc.cpg/sg71_20_cif.got.tgz:38418.got - 2010.06.28 04:59:45.
