data_PCOD8290700
_publ_section_title
;
Structure prediction by ZEFSAII (Michael W. Deem and Ramdas Pophale) SiO2 
 PCOD8290700
Probable space group: I M M M
;
_chemical_formula_sum "Si O2"
_cell_formula_units_Z 72
_cell_length_a 28.847716
_cell_length_b 9.093921
_cell_length_c 13.804411
_cell_angle_alpha 90.000000
_cell_angle_beta 90.000000
_cell_angle_gamma 90.000000
_cell_volume 3621.433311
_symmetry_space_group_name_H-M "I M M M"
_symmetry_group_IT_number 71
_symmetry_cell_setting 'orthorhombic'
loop_
_space_group_symop_operation_xyz
x,y,z
-x,-y,z
x,-y,-z
-x,y,-z
-x,-y,-z
x,y,-z
-x,y,z
x,-y,z
1/2+x,1/2+y,1/2+z
1/2-x,1/2-y,1/2+z
1/2+x,1/2-y,1/2-z
1/2-x,1/2+y,1/2-z
1/2-x,1/2-y,1/2-z
1/2+x,1/2+y,1/2-z
1/2-x,1/2+y,1/2+z
1/2+x,1/2-y,1/2+z
loop_
_atom_site_type_symbol
_atom_site_label
_atom_site_fract_x
_atom_site_fract_y
_atom_site_fract_z
Si Si1 0.910292 0.826897 0.274827
Si Si2 0.318457 0.670762 0.111312
Si Si3 0.271378 0.333440 0.384717
Si Si4 0.864229 0.672262 0.112198
Si Si5 0.500000 0.674765 0.109271
O O1 0.865561 0.783132 0.336931
O O2 0.906937 0.741170 0.172644
O O3 0.954911 0.769365 0.333181
O O4 0.913535 0.000000 0.254429
O O5 0.307414 0.500000 0.123456
O O6 0.274868 0.757135 0.158146
O O7 0.325123 0.714378 0.000000
O O8 0.268695 0.326719 0.500000
O O9 0.274639 0.500000 0.346162
O O10 0.317107 0.248403 0.349709
O O11 0.860075 0.500000 0.131159
O O12 0.873602 0.707587 0.000000
O O13 0.500000 0.500000 0.102983
O O14 0.500000 0.739701 0.000000
#
# Coordination Sequence:
#
# PCOD8290700 Si02
#       5
#    16  16  16  16   8
#     4  10  20  34  56  83 107 137 178 221 265 313
#     4   9  17  30  49  76 110 144 177 214 260 317
#     4   9  17  30  50  76 106 141 180 221 263 308
#     4  10  21  37  55  75 104 143 182 221 266 314
#     4   9  18  36  62  89 114 138 169 213 264 317
#
# _framework density 19.881630000000001
#
# number of rings (size 3 to 8) (size 9 to 14) (size 15 to 20)
#    0.000    2.556    0.000    2.000    0.000    8.444 
#    0.000    1.111    0.000    6.000    0.000    0.000 
#    0.000    0.000    0.000    0.000    0.000    0.000 
#
# Total GULP energy -446468.832501 kJ/mol
# GULP energy per Si atom -12401.912014 kJ/mol
# Density = 1.983638 g / cm^3
# Si number density = 19.881630 Si / 1000 Ang^3
#
#
#
# Elastic Constant Matrix: (Units=GPa)
#
#
# Indices 1 2 3 4 5 6 
#
# 1 149.9572 56.6429 81.9817 0.0000 0.0000 0.0000
# 2 56.6429 80.4996 46.1901 0.0000 0.0000 0.0000
# 3 81.9817 46.1901 91.0573 0.0000 0.0000 0.0000
# 4 0.0000 0.0000 0.0000 24.4978 0.0000 0.0000
# 5 0.0000 0.0000 0.0000 0.0000 35.1295 0.0000
# 6 0.0000 0.0000 0.0000 0.0000 0.0000 25.7764
#
#
#
# Elastic Compliance Matrix: (Units=1/GPa)
#
#
# Indices 1 2 3 4 5 6 
#
# 1 0.013855 -0.003655 -0.010620 0.000000 0.000000 0.000000
# 2 -0.003655 0.018487 -0.006087 0.000000 0.000000 0.000000
# 3 -0.010620 -0.006087 0.023631 0.000000 0.000000 0.000000
# 4 0.000000 0.000000 0.000000 0.040820 0.000000 0.000000
# 5 0.000000 0.000000 0.000000 0.000000 0.028466 0.000000
# 6 0.000000 0.000000 0.000000 0.000000 0.000000 0.038795
#
#
# Mechanical properties :
#
#
# Convention : Reuss Voigt Hill
#
# Bulk Modulus (GPa) = 65.57750 76.79373 71.18562
# Shear Modulus (GPa) = 23.82512 26.19403 25.00958
#
# Velocity S-wave (km/s) = 3.46547 3.63367 3.55057
# Velocity P-wave (km/s) = 7.00487 7.50427 7.25887
#
# Compressibility (1/GPa) = 0.01524913
#
# Stress axis : x y z
#
# Youngs Moduli (GPa) = 72.17430 54.09188 42.31686
#
# Poissons Ratio (x) = 0.19773 0.44941
# Poissons Ratio (y) = 0.26383 0.25757
# Poissons Ratio (z) = 0.76650 0.32924
#
# Static dielectric constant tensor:
#      x y z
#    x 3.627770 0.000000 0.000000 
#    y 0.000000 3.434610 0.000000 
#    z 0.000000 0.000000 3.732700 
# 
# 
# High freq. dielectric constant tensor:
#      x y z
#    x 1.762880 0.000000 0.000000 
#    y 0.000000 1.756290 0.000000 
#    z 0.000000 0.000000 1.787260 
# 
# From -- ./inp_files/6008.got.cif
#   From: 2010.06.25/outbox.cif.g09.slc.cpg/sg71_4_cif.got.tgz:6008.got - 2010.06.28 04:59:45.
