data_PCOD8290472
_publ_section_title
;
Structure prediction by ZEFSAII (Michael W. Deem and Ramdas Pophale) SiO2 
 PCOD8290472
Probable space group: I M M M
;
_chemical_formula_sum "Si O2"
_cell_formula_units_Z 104
_cell_length_a 31.041106
_cell_length_b 9.545930
_cell_length_c 19.522285
_cell_angle_alpha 90.000000
_cell_angle_beta 90.000000
_cell_angle_gamma 90.000000
_cell_volume 5784.769795
_symmetry_space_group_name_H-M "I M M M"
_symmetry_group_IT_number 71
_symmetry_cell_setting 'orthorhombic'
loop_
_space_group_symop_operation_xyz
x,y,z
-x,-y,z
x,-y,-z
-x,y,-z
-x,-y,-z
x,y,-z
-x,y,z
x,-y,z
1/2+x,1/2+y,1/2+z
1/2-x,1/2-y,1/2+z
1/2+x,1/2-y,1/2-z
1/2-x,1/2+y,1/2-z
1/2-x,1/2-y,1/2-z
1/2+x,1/2+y,1/2-z
1/2-x,1/2+y,1/2+z
1/2+x,1/2-y,1/2+z
loop_
_atom_site_type_symbol
_atom_site_label
_atom_site_fract_x
_atom_site_fract_y
_atom_site_fract_z
Si Si1 0.675512 0.338518 0.076232
Si Si2 0.548678 0.837863 0.787376
Si Si3 0.407699 0.159616 0.924089
Si Si4 0.287723 0.662690 0.216573
Si Si5 0.592010 0.334122 0.424932
Si Si6 0.123040 0.164202 0.783315
Si Si7 0.500000 0.651208 0.419593
O O1 0.661719 0.500000 0.079695
O O2 0.633203 0.252906 0.094981
O O3 0.711394 0.308397 0.134497
O O4 0.693337 0.299840 0.000000
O O5 0.500000 0.792023 0.768548
O O6 0.554847 0.814064 0.868990
O O7 0.582399 0.744513 0.746911
O O8 0.556448 0.000000 0.768453
O O9 0.391500 0.000000 0.921573
O O10 0.425440 0.197349 0.000000
O O11 0.279778 0.500000 0.232967
O O12 0.250000 0.750000 0.250000
O O13 0.332754 0.714494 0.249000
O O14 0.607190 0.275987 0.500000
O O15 0.585371 0.500000 0.431163
O O16 0.626084 0.299564 0.364938
O O17 0.545057 0.268693 0.402251
O O18 0.115650 0.000000 0.770442
O O19 0.500000 0.500000 0.381582
O O20 0.500000 0.626643 0.500000
#
# Coordination Sequence:
#
# PCOD8290472 Si02
#       7
#    16  16  16  16  16  16   8
#     4   9  17  32  54  77 104 136 169 209 255 305
#     4  10  21  34  48  72 108 145 175 206 254 311
#     4   9  17  30  50  74 100 135 178 216 249 292
#     4  10  21  36  54  79 105 132 170 212 260 313
#     4   8  14  25  43  69 100 129 159 202 253 297
#     4  10  20  34  53  77 102 130 172 218 257 305
#     4   7  10  18  34  60  91 121 154 187 228 286
#
# _framework density 17.978244
#
# number of rings (size 3 to 8) (size 9 to 14) (size 15 to 20)
#    0.000    2.846    1.538    0.923    1.077    1.846 
#    0.000    2.308    0.000    1.385    0.000    4.308 
#    0.000    0.000    0.000    0.000    0.000    0.000 
#
# Total GULP energy -644239.811207 kJ/mol
# GULP energy per Si atom -12389.227139 kJ/mol
# Density = 1.793732 g / cm^3
# Si number density = 17.978244 Si / 1000 Ang^3
#
#
#
# Elastic Constant Matrix: (Units=GPa)
#
#
# Indices 1 2 3 4 5 6 
#
# 1 106.7867 43.5402 65.0623 0.0000 0.0000 0.0000
# 2 43.5402 42.7499 32.5862 0.0000 0.0000 0.0000
# 3 65.0623 32.5862 119.8844 0.0000 0.0000 0.0000
# 4 0.0000 0.0000 0.0000 19.5098 0.0000 0.0000
# 5 0.0000 0.0000 0.0000 0.0000 26.5402 0.0000
# 6 0.0000 0.0000 0.0000 0.0000 0.0000 25.9994
#
#
#
# Elastic Compliance Matrix: (Units=1/GPa)
#
#
# Indices 1 2 3 4 5 6 
#
# 1 0.019323 -0.014741 -0.006480 0.000000 0.000000 0.000000
# 2 -0.014741 0.040750 -0.003077 0.000000 0.000000 0.000000
# 3 -0.006480 -0.003077 0.012694 0.000000 0.000000 0.000000
# 4 0.000000 0.000000 0.000000 0.051256 0.000000 0.000000
# 5 0.000000 0.000000 0.000000 0.000000 0.037679 0.000000
# 6 0.000000 0.000000 0.000000 0.000000 0.000000 0.038462
#
#
# Mechanical properties :
#
#
# Convention : Reuss Voigt Hill
#
# Bulk Modulus (GPa) = 41.36851 61.31093 51.33972
# Shear Modulus (GPa) = 19.46917 22.95870 21.21393
#
# Velocity S-wave (km/s) = 3.29436 3.57743 3.43881
# Velocity P-wave (km/s) = 6.12623 7.15827 6.66226
#
# Compressibility (1/GPa) = 0.02417297
#
# Stress axis : x y z
#
# Youngs Moduli (GPa) = 51.75259 24.53980 78.77542
#
# Poissons Ratio (x) = 0.36173 0.51046
# Poissons Ratio (y) = 0.76287 0.24236
# Poissons Ratio (z) = 0.33535 0.07550
#
# Static dielectric constant tensor:
#      x y z
#    x 3.176130 0.000000 0.000000 
#    y 0.000000 3.103000 0.000000 
#    z 0.000000 0.000000 3.760950 
# 
# 
# High freq. dielectric constant tensor:
#      x y z
#    x 1.666260 0.000000 0.000000 
#    y 0.000000 1.664960 0.000000 
#    z 0.000000 0.000000 1.714850 
# 
# From -- ./inp_files/50932.got.cif
#   From: 2010.06.25/outbox.cif.g09.slc.cpg/sg71_26_cif.got.tgz:50932.got - 2010.06.28 04:59:45.
