data_PCOD8290931
_publ_section_title
;
Structure prediction by ZEFSAII (Michael W. Deem and Ramdas Pophale) SiO2 
 PCOD8290931
Probable space group: I M M M
;
_chemical_formula_sum "Si O2"
_cell_formula_units_Z 104
_cell_length_a 8.104399
_cell_length_b 33.593774
_cell_length_c 19.174307
_cell_angle_alpha 90.000000
_cell_angle_beta 90.000000
_cell_angle_gamma 90.000000
_cell_volume 5220.345981
_symmetry_space_group_name_H-M "I M M M"
_symmetry_group_IT_number 71
_symmetry_cell_setting 'orthorhombic'
loop_
_space_group_symop_operation_xyz
x,y,z
-x,-y,z
x,-y,-z
-x,y,-z
-x,-y,-z
x,y,-z
-x,y,z
x,-y,z
1/2+x,1/2+y,1/2+z
1/2-x,1/2-y,1/2+z
1/2+x,1/2-y,1/2-z
1/2-x,1/2+y,1/2-z
1/2-x,1/2-y,1/2-z
1/2+x,1/2+y,1/2-z
1/2-x,1/2+y,1/2+z
1/2+x,1/2-y,1/2+z
loop_
_atom_site_type_symbol
_atom_site_label
_atom_site_fract_x
_atom_site_fract_y
_atom_site_fract_z
Si Si1 0.803761 0.696917 0.921894
Si Si2 0.695080 0.455026 0.078848
Si Si3 0.694007 0.878519 0.338274
Si Si4 0.500000 0.956872 0.082899
Si Si5 0.805152 0.767472 0.177984
Si Si6 0.818036 0.089192 0.080066
Si Si7 0.810154 0.354386 0.685000
O O1 0.730733 0.656764 0.886266
O O2 0.747328 0.736696 0.881794
O O3 0.000000 0.694517 0.921832
O O4 0.732589 0.699098 0.000000
O O5 0.500000 0.453608 0.080353
O O6 0.754293 0.500000 0.099708
O O7 0.760721 0.422356 0.133425
O O8 0.757847 0.445321 0.000000
O O9 0.500000 0.874110 0.338061
O O10 0.757064 0.870611 0.259521
O O11 0.329334 0.938016 0.109725
O O12 0.500000 0.000000 0.116762
O O13 0.500000 0.958215 0.000000
O O14 0.750000 0.750000 0.250000
O O15 0.701967 0.807633 0.173217
O O16 0.000000 0.775584 0.174870
O O17 0.809972 0.128737 0.125581
O O18 0.000000 0.069118 0.088311
O O19 0.785980 0.100671 0.000000
O O20 0.000000 0.367446 0.673748
#
# Coordination Sequence:
#
# PCOD8290931 Si02
#       7
#    16  16  16   8  16  16  16
#     4   9  18  34  55  80 111 144 184 237 290 340
#     4   9  19  36  56  80 113 150 187 232 287 344
#     4  10  20  35  57  83 111 148 193 239 286 343
#     4   9  18  36  62  90 122 156 191 247 309 353
#     4  11  21  36  56  81 112 151 195 239 293 357
#     4  10  21  38  61  90 121 158 205 248 298 365
#     4  11  22  38  59  84 116 155 199 246 301 355
#
# _framework density 19.922051
#
# number of rings (size 3 to 8) (size 9 to 14) (size 15 to 20)
#    0.000    2.077    2.308    1.846    0.000    3.385 
#    0.000    4.615    0.000    2.308    0.000    0.000 
#    0.000    0.000    0.000    0.000    0.000    0.000 
#
# Total GULP energy -644469.545648 kJ/mol
# GULP energy per Si atom -12393.645109 kJ/mol
# Density = 1.987671 g / cm^3
# Si number density = 19.922051 Si / 1000 Ang^3
#
#
#
# Elastic Constant Matrix: (Units=GPa)
#
#
# Indices 1 2 3 4 5 6 
#
# 1 70.7392 28.3805 33.7310 0.0000 0.0000 0.0000
# 2 28.3805 142.1228 69.6902 0.0000 0.0000 0.0000
# 3 33.7310 69.6902 118.8596 0.0002 0.0000 0.0000
# 4 0.0000 0.0000 0.0002 33.4932 0.0000 0.0000
# 5 0.0000 0.0000 0.0000 0.0000 22.1990 0.0000
# 6 0.0000 0.0000 0.0000 0.0000 0.0000 25.8607
#
#
#
# Elastic Compliance Matrix: (Units=1/GPa)
#
#
# Indices 1 2 3 4 5 6 
#
# 1 0.016546 -0.001406 -0.003871 0.000000 0.000000 0.000000
# 2 -0.001406 0.009995 -0.005461 0.000000 0.000000 0.000000
# 3 -0.003871 -0.005461 0.012714 0.000000 0.000000 0.000000
# 4 0.000000 0.000000 0.000000 0.029857 0.000000 0.000000
# 5 0.000000 0.000000 0.000000 0.000000 0.045047 0.000000
# 6 0.000000 0.000000 0.000000 0.000000 0.000000 0.038669
#
#
# Mechanical properties :
#
#
# Convention : Reuss Voigt Hill
#
# Bulk Modulus (GPa) = 56.24826 66.14725 61.19776
# Shear Modulus (GPa) = 27.74215 29.63856 28.69036
#
# Velocity S-wave (km/s) = 3.73572 3.86129 3.79902
# Velocity P-wave (km/s) = 6.84857 7.29072 7.07310
#
# Compressibility (1/GPa) = 0.01777833
#
# Stress axis : x y z
#
# Youngs Moduli (GPa) = 60.43577 100.05172 78.65325
#
# Poissons Ratio (x) = 0.14065 0.30450
# Poissons Ratio (y) = 0.08496 0.42955
# Poissons Ratio (z) = 0.23397 0.54641
#
# Static dielectric constant tensor:
#      x y z
#    x 3.497490 0.000000 0.000000 
#    y 0.000000 3.790400 0.000000 
#    z 0.000000 0.000000 3.740330 
# 
# 
# High freq. dielectric constant tensor:
#      x y z
#    x 1.766490 0.000000 0.000000 
#    y 0.000000 1.778330 0.000000 
#    z 0.000000 0.000000 1.771980 
# 
# From -- ./inp_files/51156.got.cif
#   From: 2010.06.25/outbox.cif.g09.slc.cpg/sg71_26_cif.got.tgz:51156.got - 2010.06.28 04:59:45.
