data_PCOD8290060
_publ_section_title
;
Structure prediction by ZEFSAII (Michael W. Deem and Ramdas Pophale) SiO2 
 PCOD8290060
Probable space group: I M M M
;
_chemical_formula_sum "Si O2"
_cell_formula_units_Z 104
_cell_length_a 13.756838
_cell_length_b 18.189995
_cell_length_c 23.697886
_cell_angle_alpha 90.000000
_cell_angle_beta 90.000000
_cell_angle_gamma 90.000000
_cell_volume 5930.083502
_symmetry_space_group_name_H-M "I M M M"
_symmetry_group_IT_number 71
_symmetry_cell_setting 'orthorhombic'
loop_
_space_group_symop_operation_xyz
x,y,z
-x,-y,z
x,-y,-z
-x,y,-z
-x,-y,-z
x,y,-z
-x,y,z
x,-y,z
1/2+x,1/2+y,1/2+z
1/2-x,1/2-y,1/2+z
1/2+x,1/2-y,1/2-z
1/2-x,1/2+y,1/2-z
1/2-x,1/2-y,1/2-z
1/2+x,1/2+y,1/2-z
1/2-x,1/2+y,1/2+z
1/2+x,1/2-y,1/2+z
loop_
_atom_site_type_symbol
_atom_site_label
_atom_site_fract_x
_atom_site_fract_y
_atom_site_fract_z
Si Si1 0.389892 0.413098 0.500000
Si Si2 0.890219 0.087220 0.878941
Si Si3 0.884504 0.417309 0.562237
Si Si4 0.225800 0.912617 0.771430
Si Si5 0.114300 0.836339 0.328480
Si Si6 0.386355 0.166026 0.172366
Si Si7 0.115299 0.917724 0.561878
O O1 0.392952 0.500000 0.500000
O O2 0.500000 0.383283 0.500000
O O3 0.341644 0.388066 0.560144
O O4 0.830561 0.118681 0.826386
O O5 0.000000 0.117820 0.875019
O O6 0.891943 0.000000 0.874374
O O7 0.842533 0.394975 0.500000
O O8 0.848634 0.500000 0.577313
O O9 0.848680 0.362843 0.611305
O O10 0.000000 0.415659 0.558741
O O11 0.172513 0.883853 0.716386
O O12 0.333541 0.878338 0.777215
O O13 0.231829 0.000000 0.768438
O O14 0.139547 0.751259 0.322079
O O15 0.151511 0.861810 0.390166
O O16 0.000000 0.851848 0.320390
O O17 0.500000 0.150981 0.179662
O O18 0.153975 0.892305 0.500000
O O19 0.000000 0.918226 0.560711
O O20 0.153363 0.000000 0.575346
#
# Coordination Sequence:
#
# PCOD8290060 Si02
#       7
#     8  16  16  16  16  16  16
#     4   7  10  20  38  58  83 113 143 181 231 280
#     4   8  14  25  42  64  88 114 147 191 241 287
#     4   8  14  27  47  67  88 119 161 205 240 271
#     4  11  21  32  48  70  94 124 163 206 247 290
#     4  10  20  33  50  71  98 129 159 198 245 297
#     4  10  21  35  48  65  94 132 169 202 243 293
#     4   8  14  26  46  72  98 122 149 184 233 293
#
# _framework density 17.537694999999999
#
# number of rings (size 3 to 8) (size 9 to 14) (size 15 to 20)
#    0.000    3.000    0.000    3.692    0.000    3.077 
#    1.385    3.077    0.000    0.000    0.000    0.000 
#    0.000    0.615    0.000    3.231    0.000    0.462 
#
# Total GULP energy -644332.369996 kJ/mol
# GULP energy per Si atom -12391.007115 kJ/mol
# Density = 1.749778 g / cm^3
# Si number density = 17.537695 Si / 1000 Ang^3
#
#
#
# Elastic Constant Matrix: (Units=GPa)
#
#
# Indices 1 2 3 4 5 6 
#
# 1 33.4438 34.4091 39.4035 0.0000 0.0000 0.0000
# 2 34.4091 89.4434 57.7259 0.0000 0.0000 0.0000
# 3 39.4035 57.7259 130.9375 0.0000 0.0000 0.0000
# 4 0.0000 0.0000 0.0000 24.2518 0.0000 0.0000
# 5 0.0000 0.0000 0.0000 0.0000 22.6589 0.0000
# 6 0.0000 0.0000 0.0000 0.0000 0.0000 17.4819
#
#
#
# Elastic Compliance Matrix: (Units=1/GPa)
#
#
# Indices 1 2 3 4 5 6 
#
# 1 0.058651 -0.015615 -0.010766 0.000000 0.000000 0.000000
# 2 -0.015615 0.019784 -0.004023 0.000000 0.000000 0.000000
# 3 -0.010766 -0.004023 0.012651 0.000000 0.000000 0.000000
# 4 0.000000 0.000000 0.000000 0.041234 0.000000 0.000000
# 5 0.000000 0.000000 0.000000 0.000000 0.044133 0.000000
# 6 0.000000 0.000000 0.000000 0.000000 0.000000 0.057202
#
#
# Mechanical properties :
#
#
# Convention : Reuss Voigt Hill
#
# Bulk Modulus (GPa) = 33.02757 57.43350 45.23053
# Shear Modulus (GPa) = 16.41744 21.03094 18.72419
#
# Velocity S-wave (km/s) = 3.06293 3.46668 3.27104
# Velocity P-wave (km/s) = 5.60196 6.98882 6.33346
#
# Compressibility (1/GPa) = 0.03027774
#
# Stress axis : x y z
#
# Youngs Moduli (GPa) = 17.05002 50.54673 79.04748
#
# Poissons Ratio (x) = 0.78928 0.85102
# Poissons Ratio (y) = 0.26623 0.31800
# Poissons Ratio (z) = 0.18356 0.20334
#
# Static dielectric constant tensor:
#      x y z
#    x 3.129430 0.000000 0.000000 
#    y 0.000000 3.022390 0.000000 
#    z 0.000000 0.000000 3.703810 
# 
# 
# High freq. dielectric constant tensor:
#      x y z
#    x 1.653830 0.000000 0.000000 
#    y 0.000000 1.641700 0.000000 
#    z 0.000000 0.000000 1.689450 
# 
# From -- ./inp_files/39476.got.cif
#   From: 2010.06.25/outbox.cif.g09.slc.cpg/sg71_20_cif.got.tgz:39476.got - 2010.06.28 04:59:45.
