data_PCOD8290673
_publ_section_title
;
Structure prediction by ZEFSAII (Michael W. Deem and Ramdas Pophale) SiO2 
 PCOD8290673
Probable space group: I M M M
;
_chemical_formula_sum "Si O2"
_cell_formula_units_Z 112
_cell_length_a 13.618202
_cell_length_b 25.781909
_cell_length_c 15.279920
_cell_angle_alpha 90.000000
_cell_angle_beta 90.000000
_cell_angle_gamma 90.000000
_cell_volume 5364.829491
_symmetry_space_group_name_H-M "I M M M"
_symmetry_group_IT_number 71
_symmetry_cell_setting 'orthorhombic'
loop_
_space_group_symop_operation_xyz
x,y,z
-x,-y,z
x,-y,-z
-x,y,-z
-x,-y,-z
x,y,-z
-x,y,z
x,-y,z
1/2+x,1/2+y,1/2+z
1/2-x,1/2-y,1/2+z
1/2+x,1/2-y,1/2-z
1/2-x,1/2+y,1/2-z
1/2-x,1/2-y,1/2-z
1/2+x,1/2+y,1/2-z
1/2-x,1/2+y,1/2+z
1/2+x,1/2-y,1/2+z
loop_
_atom_site_type_symbol
_atom_site_label
_atom_site_fract_x
_atom_site_fract_y
_atom_site_fract_z
Si Si1 0.612732 0.166409 0.904881
Si Si2 0.112007 0.415177 0.100364
Si Si3 0.889258 0.259470 0.746088
Si Si4 0.803857 0.442424 0.401130
Si Si5 0.304757 0.806429 0.592931
Si Si6 0.108816 0.155317 0.348526
Si Si7 0.709502 0.443244 0.221232
O O1 0.500000 0.181142 0.910977
O O2 0.657447 0.204676 0.831514
O O3 0.621318 0.105029 0.883401
O O4 0.661864 0.178673 0.000000
O O5 0.120031 0.353273 0.109940
O O6 0.186344 0.440497 0.169826
O O7 0.000000 0.431685 0.122925
O O8 0.137901 0.431842 0.000000
O O9 0.817478 0.265785 0.828992
O O10 0.889310 0.198653 0.726776
O O11 0.000000 0.278100 0.767757
O O12 0.759169 0.437340 0.500000
O O13 0.854077 0.500000 0.392218
O O14 0.721932 0.436865 0.326007
O O15 0.328751 0.779481 0.500000
O O16 0.193962 0.829225 0.583973
O O17 0.131044 0.099117 0.308542
O O18 0.000000 0.154053 0.392535
O O19 0.664823 0.500000 0.201572
#
# Coordination Sequence:
#
# PCOD8290673 Si02
#       7
#    16  16  16  16  16  16  16
#     4   9  17  29  48  76 109 146 184 217 256 313
#     4   9  18  33  54  82 115 146 176 216 270 334
#     4  10  20  35  56  82 114 146 178 223 273 324
#     4   9  18  32  50  74 106 143 180 219 263 312
#     4  10  20  34  55  83 115 151 183 212 260 327
#     4  10  22  39  57  79 108 142 184 235 283 322
#     4  10  21  37  57  79 104 140 186 232 281 336
#
# _framework density 20.876712000000001
#
# number of rings (size 3 to 8) (size 9 to 14) (size 15 to 20)
#    0.000    2.429    0.000    2.571    0.000    4.571 
#    0.000    7.143    0.000    1.286    0.000    6.000 
#    0.000    0.000    0.000    0.000    0.000    0.000 
#
# Total GULP energy -693749.421551 kJ/mol
# GULP energy per Si atom -12388.382528 kJ/mol
# Density = 2.082920 g / cm^3
# Si number density = 20.876712 Si / 1000 Ang^3
#
#
#
# Elastic Constant Matrix: (Units=GPa)
#
#
# Indices 1 2 3 4 5 6 
#
# 1 71.9661 26.2648 18.2688 0.0000 0.0000 0.0000
# 2 26.2648 120.4090 44.8121 0.0000 0.0000 0.0000
# 3 18.2688 44.8121 113.0885 0.0002 0.0000 0.0000
# 4 0.0000 0.0000 0.0002 5.3750 0.0000 0.0000
# 5 0.0000 0.0000 0.0000 0.0000 6.9819 0.0000
# 6 0.0000 0.0000 0.0000 0.0000 0.0000 23.7663
#
#
#
# Elastic Compliance Matrix: (Units=1/GPa)
#
#
# Indices 1 2 3 4 5 6 
#
# 1 0.015270 -0.002830 -0.001345 0.000000 0.000000 0.000000
# 2 -0.002830 0.010266 -0.003611 0.000000 0.000000 0.000000
# 3 -0.001345 -0.003611 0.010491 0.000000 0.000000 0.000000
# 4 0.000000 0.000000 0.000000 0.186047 0.000000 0.000000
# 5 0.000000 0.000000 0.000000 0.000000 0.143228 0.000000
# 6 0.000000 0.000000 0.000000 0.000000 0.000000 0.042076
#
#
# Mechanical properties :
#
#
# Convention : Reuss Voigt Hill
#
# Bulk Modulus (GPa) = 48.88963 53.79500 51.34231
# Shear Modulus (GPa) = 11.63415 21.63249 16.63332
#
# Velocity S-wave (km/s) = 2.36324 3.22250 2.82572
# Velocity P-wave (km/s) = 5.56018 6.29841 5.94077
#
# Compressibility (1/GPa) = 0.02045424
#
# Stress axis : x y z
#
# Youngs Moduli (GPa) = 65.48869 97.40705 95.32178
#
# Poissons Ratio (x) = 0.27567 0.12824
# Poissons Ratio (y) = 0.18534 0.34419
# Poissons Ratio (z) = 0.08810 0.35172
#
# Static dielectric constant tensor:
#      x y z
#    x 3.546860 0.000000 0.000000 
#    y 0.000000 3.813920 0.000000 
#    z 0.000000 0.000000 3.928780 
# 
# 
# High freq. dielectric constant tensor:
#      x y z
#    x 1.781760 0.000000 0.000000 
#    y 0.000000 1.820660 0.000000 
#    z 0.000000 0.000000 1.819940 
# 
# From -- ./inp_files/35084.got.cif
#   From: 2010.06.25/outbox.cif.g09.slc.cpg/sg71_18_cif.got.tgz:35084.got - 2010.06.28 04:59:45.
