data_PCOD8290659
_publ_section_title
;
Structure prediction by ZEFSAII (Michael W. Deem and Ramdas Pophale) SiO2 
 PCOD8290659
Probable space group: I M M M
;
_chemical_formula_sum "Si O2"
_cell_formula_units_Z 64
_cell_length_a 7.698746
_cell_length_b 18.314976
_cell_length_c 24.061014
_cell_angle_alpha 90.000000
_cell_angle_beta 90.000000
_cell_angle_gamma 90.000000
_cell_volume 3392.659475
_symmetry_space_group_name_H-M "I M M M"
_symmetry_group_IT_number 71
_symmetry_cell_setting 'orthorhombic'
loop_
_space_group_symop_operation_xyz
x,y,z
-x,-y,z
x,-y,-z
-x,y,-z
-x,-y,-z
x,y,-z
-x,y,z
x,-y,z
1/2+x,1/2+y,1/2+z
1/2-x,1/2-y,1/2+z
1/2+x,1/2-y,1/2-z
1/2-x,1/2+y,1/2-z
1/2-x,1/2-y,1/2-z
1/2+x,1/2+y,1/2-z
1/2-x,1/2+y,1/2+z
1/2+x,1/2-y,1/2+z
loop_
_atom_site_type_symbol
_atom_site_label
_atom_site_fract_x
_atom_site_fract_y
_atom_site_fract_z
Si Si1 0.193257 0.416586 0.139535
Si Si2 0.798356 0.833758 0.254354
Si Si3 0.500000 0.586700 0.938091
Si Si4 0.198365 0.914425 0.857669
Si Si5 0.500000 0.913482 0.938192
O O1 0.241379 0.500000 0.154979
O O2 0.194408 0.369219 0.195198
O O3 0.328603 0.385607 0.094255
O O4 0.000000 0.411523 0.113704
O O5 0.750000 0.750000 0.250000
O O6 0.742935 0.873000 0.197669
O O7 0.000000 0.845413 0.266289
O O8 0.500000 0.500000 0.942426
O O9 0.500000 0.620879 0.000000
O O10 0.325682 0.887340 0.906641
O O11 0.000000 0.895371 0.874568
O O12 0.220439 0.000000 0.846177
O O13 0.500000 0.000000 0.942338
O O14 0.500000 0.879004 0.000000
#
# Coordination Sequence:
#
# PCOD8290659 Si02
#       5
#    16  16   8  16   8
#     4  10  20  34  55  82 110 143 180 221 271 326
#     4  11  22  35  53  79 111 143 181 226 273 325
#     4   9  18  34  55  81 113 145 180 223 268 319
#     4   9  19  34  53  78 107 140 175 216 265 318
#     4   9  18  32  53  81 109 139 176 217 262 315
#
# _framework density 18.864256999999998
#
# number of rings (size 3 to 8) (size 9 to 14) (size 15 to 20)
#    0.000    2.250    1.250    1.500    3.500    2.000 
#    0.000    5.000    0.000    3.000    0.000    3.500 
#    0.000    0.000    0.000    0.000    0.000    0.000 
#
# Total GULP energy -396830.936408 kJ/mol
# GULP energy per Si atom -12400.966763 kJ/mol
# Density = 1.882132 g / cm^3
# Si number density = 18.864257 Si / 1000 Ang^3
#
#
#
# Elastic Constant Matrix: (Units=GPa)
#
#
# Indices 1 2 3 4 5 6 
#
# 1 130.2344 25.4885 83.7963 0.0000 0.0000 0.0000
# 2 25.4885 56.5384 43.0601 0.0000 0.0000 0.0000
# 3 83.7963 43.0601 166.1051 0.0000 0.0000 0.0000
# 4 0.0000 0.0000 0.0000 -0.2986 0.0000 0.0000
# 5 0.0000 0.0000 0.0000 0.0000 24.9000 0.0000
# 6 0.0000 0.0000 0.0000 0.0000 0.0000 19.2514
#
#
#
# Elastic Compliance Matrix: (Units=1/GPa)
#
#
# Indices 1 2 3 4 5 6 
#
# 1 0.011409 -0.000947 -0.005510 0.000000 0.000000 0.000000
# 2 -0.000947 0.022117 -0.005256 0.000000 0.000000 0.000000
# 3 -0.005510 -0.005256 0.010163 0.000000 0.000000 0.000000
# 4 0.000000 0.000000 0.000000 -3.349040 0.000000 0.000000
# 5 0.000000 0.000000 0.000000 0.000000 0.040161 0.000000
# 6 0.000000 0.000000 0.000000 0.000000 0.000000 0.051944
#
#
# Mechanical properties :
#
#
# Convention : Reuss Voigt Hill
#
# Bulk Modulus (GPa) = 49.35136 73.06308 61.20722
# Shear Modulus (GPa) = -1.57081 22.13942 10.28431
#
# Velocity S-wave (km/s) = -0.91351 3.42953 2.33743
# Velocity P-wave (km/s) = 5.01053 7.38222 6.30883
#
# Compressibility (1/GPa) = 0.02026287
#
# Stress axis : x y z
#
# Youngs Moduli (GPa) = 87.64856 45.21451 98.40049
#
# Poissons Ratio (x) = 0.04281 0.54221
# Poissons Ratio (y) = 0.08299 0.51717
# Poissons Ratio (z) = 0.48296 0.23764
#
# Static dielectric constant tensor:
#      x y z
#    x 3.697280 0.000000 0.000000 
#    y 0.000000 3.117570 0.000000 
#    z 0.000000 0.000000 3.545180 
# 
# 
# High freq. dielectric constant tensor:
#      x y z
#    x 1.751290 0.000000 0.000000 
#    y 0.000000 1.697730 0.000000 
#    z 0.000000 0.000000 1.725850 
# 
# From -- ./inp_files/53679.got.cif
#   From: 2010.06.25/outbox.cif.g09.slc.cpg/sg71_27_cif.got.tgz:53679.got - 2010.06.28 04:59:45.
