data_PCOD8290317
_publ_section_title
;
Structure prediction by ZEFSAII (Michael W. Deem and Ramdas Pophale) SiO2 
 PCOD8290317
Probable space group: I M M M
;
_chemical_formula_sum "Si O2"
_cell_formula_units_Z 112
_cell_length_a 13.691071
_cell_length_b 15.918199
_cell_length_c 26.569131
_cell_angle_alpha 90.000000
_cell_angle_beta 90.000000
_cell_angle_gamma 90.000000
_cell_volume 5790.401823
_symmetry_space_group_name_H-M "I M M M"
_symmetry_group_IT_number 71
_symmetry_cell_setting 'orthorhombic'
loop_
_space_group_symop_operation_xyz
x,y,z
-x,-y,z
x,-y,-z
-x,y,-z
-x,-y,-z
x,y,-z
-x,y,z
x,-y,z
1/2+x,1/2+y,1/2+z
1/2-x,1/2-y,1/2+z
1/2+x,1/2-y,1/2-z
1/2-x,1/2+y,1/2-z
1/2-x,1/2-y,1/2-z
1/2+x,1/2+y,1/2-z
1/2-x,1/2+y,1/2+z
1/2+x,1/2-y,1/2+z
loop_
_atom_site_type_symbol
_atom_site_label
_atom_site_fract_x
_atom_site_fract_y
_atom_site_fract_z
Si Si1 0.112014 0.658542 0.898041
Si Si2 0.780539 0.000000 0.059337
Si Si3 0.699938 0.403556 0.943275
Si Si4 0.612778 0.664426 0.557071
Si Si5 0.701815 0.097521 0.297772
Si Si6 0.111941 0.836847 0.345698
Si Si7 0.611751 0.000000 0.129460
Si Si8 0.887725 0.655099 0.698425
O O1 0.183940 0.604025 0.933011
O O2 0.134922 0.756558 0.907261
O O3 0.132547 0.637972 0.840051
O O4 0.000000 0.636791 0.912048
O O5 0.832473 0.916141 0.080086
O O6 0.669539 0.000000 0.077347
O O7 0.785467 0.000000 0.000000
O O8 0.669323 0.500000 0.935526
O O9 0.637304 0.346824 0.904858
O O10 0.676348 0.373872 0.000000
O O11 0.647451 0.685477 0.500000
O O12 0.500000 0.640942 0.557066
O O13 0.816011 0.104944 0.312779
O O14 0.681379 0.148911 0.247022
O O15 0.674878 0.000000 0.290578
O O16 0.131290 0.741119 0.330807
O O17 0.000000 0.863698 0.335526
O O18 0.641322 0.081258 0.161000
O O19 0.500000 0.000000 0.113571
O O20 0.000000 0.646501 0.715910
#
# Coordination Sequence:
#
# PCOD8290317 Si02
#       8
#    16   8  16  16  16  16   8  16
#     4  10  20  33  54  85 118 148 184 236 286 334
#     4  10  21  35  58  83 109 152 195 240 288 333
#     4  10  22  38  57  83 116 154 192 231 280 341
#     4   9  18  34  55  80 112 151 191 230 282 345
#     4  11  22  37  61  87 114 150 188 229 278 342
#     4  10  22  39  60  86 115 149 190 237 282 327
#     4  10  22  38  59  86 116 151 190 232 286 343
#     4  10  21  40  62  84 113 148 186 230 282 341
#
# _framework density 19.342354
#
# number of rings (size 3 to 8) (size 9 to 14) (size 15 to 20)
#    0.000    2.000    0.714    3.214    4.000    5.000 
#    0.000    1.429    0.000    3.429    0.000    0.000 
#    0.000    0.000    0.000    0.000    0.000    0.000 
#
# Total GULP energy -694463.461750 kJ/mol
# GULP energy per Si atom -12401.133246 kJ/mol
# Density = 1.929833 g / cm^3
# Si number density = 19.342354 Si / 1000 Ang^3
#
#
#
# Elastic Constant Matrix: (Units=GPa)
#
#
# Indices 1 2 3 4 5 6 
#
# 1 86.5643 28.4260 44.8567 0.0000 0.0000 0.0000
# 2 28.4260 104.2767 60.2101 0.0000 0.0000 0.0000
# 3 44.8567 60.2101 86.2098 0.0000 0.0000 0.0000
# 4 0.0000 0.0000 0.0000 43.0130 0.0000 0.0000
# 5 0.0000 0.0000 0.0000 0.0000 25.2740 0.0000
# 6 0.0000 0.0000 0.0000 0.0000 0.0000 29.2839
#
#
#
# Elastic Compliance Matrix: (Units=1/GPa)
#
#
# Indices 1 2 3 4 5 6 
#
# 1 0.015851 0.000739 -0.008764 0.000000 0.000000 0.000000
# 2 0.000739 0.016105 -0.011633 0.000000 0.000000 0.000000
# 3 -0.008764 -0.011633 0.024284 0.000000 0.000000 0.000000
# 4 0.000000 0.000000 0.000000 0.023249 0.000000 0.000000
# 5 0.000000 0.000000 0.000000 0.000000 0.039566 0.000000
# 6 0.000000 0.000000 0.000000 0.000000 0.000000 0.034148
#
#
# Mechanical properties :
#
#
# Convention : Reuss Voigt Hill
#
# Bulk Modulus (GPa) = 59.08254 60.44848 59.76551
# Shear Modulus (GPa) = 25.23218 29.08472 27.15845
#
# Velocity S-wave (km/s) = 3.61571 3.88194 3.75119
# Velocity P-wave (km/s) = 6.93132 7.17024 7.05179
#
# Compressibility (1/GPa) = 0.01692547
#
# Stress axis : x y z
#
# Youngs Moduli (GPa) = 63.08904 62.09184 41.17923
#
# Poissons Ratio (x) = -0.04591 0.36089
# Poissons Ratio (y) = -0.04665 0.47903
# Poissons Ratio (z) = 0.55290 0.72230
#
# Static dielectric constant tensor:
#      x y z
#    x 3.523000 0.000000 0.000000 
#    y 0.000000 3.609890 0.000000 
#    z 0.000000 0.000000 3.421090 
# 
# 
# High freq. dielectric constant tensor:
#      x y z
#    x 1.749470 0.000000 0.000000 
#    y 0.000000 1.760550 0.000000 
#    z 0.000000 0.000000 1.744190 
# 
# From -- ./inp_files/35205.got.cif
#   From: 2010.06.25/outbox.cif.g09.slc.cpg/sg71_18_cif.got.tgz:35205.got - 2010.06.28 04:59:45.
