data_PCOD8290742
_publ_section_title
;
Structure prediction by ZEFSAII (Michael W. Deem and Ramdas Pophale) SiO2 
 PCOD8290742
Probable space group: I M M M
;
_chemical_formula_sum "Si O2"
_cell_formula_units_Z 80
_cell_length_a 9.874630
_cell_length_b 12.562686
_cell_length_c 38.450375
_cell_angle_alpha 90.000000
_cell_angle_beta 90.000000
_cell_angle_gamma 90.000000
_cell_volume 4769.841154
_symmetry_space_group_name_H-M "I M M M"
_symmetry_group_IT_number 71
_symmetry_cell_setting 'orthorhombic'
loop_
_space_group_symop_operation_xyz
x,y,z
-x,-y,z
x,-y,-z
-x,y,-z
-x,-y,-z
x,y,-z
-x,y,z
x,-y,z
1/2+x,1/2+y,1/2+z
1/2-x,1/2-y,1/2+z
1/2+x,1/2-y,1/2-z
1/2-x,1/2+y,1/2-z
1/2-x,1/2-y,1/2-z
1/2+x,1/2+y,1/2-z
1/2-x,1/2+y,1/2+z
1/2+x,1/2-y,1/2+z
loop_
_atom_site_type_symbol
_atom_site_label
_atom_site_fract_x
_atom_site_fract_y
_atom_site_fract_z
Si Si1 0.155266 0.202079 0.540000
Si Si2 0.650776 0.617203 0.458702
Si Si3 0.343985 0.500000 0.086194
Si Si4 0.657924 0.000000 0.346988
Si Si5 0.344366 0.806846 0.297054
Si Si6 0.344021 0.121759 0.219266
O O1 0.193242 0.177114 0.500000
O O2 0.242774 0.298263 0.556040
O O3 0.000000 0.236318 0.543219
O O4 0.190110 0.100263 0.562523
O O5 0.659171 0.614131 0.500000
O O6 0.500000 0.650379 0.446721
O O7 0.686607 0.500000 0.443952
O O8 0.500000 0.500000 0.098454
O O9 0.247365 0.500000 0.118904
O O10 0.695172 0.894218 0.325593
O O11 0.500000 0.000000 0.356886
O O12 0.500000 0.770701 0.300760
O O13 0.318037 0.861560 0.260039
O O14 0.250712 0.702609 0.302404
O O15 0.500000 0.145538 0.209772
O O16 0.306294 0.000000 0.209743
#
# Coordination Sequence:
#
# PCOD8290742 Si02
#       6
#    16  16   8   8  16  16
#     4   9  17  30  48  69  94 123 155 195 243 289
#     4   8  14  25  42  66  95 121 144 179 229 279
#     4  10  21  34  48  68  94 124 160 200 238 284
#     4  10  20  35  51  67  94 130 162 194 236 284
#     4   9  17  30  47  68  96 127 156 189 229 274
#     4   9  16  28  47  72 100 125 152 189 233 275
#
# _framework density 16.772047000000001
#
# number of rings (size 3 to 8) (size 9 to 14) (size 15 to 20)
#    0.000    3.000    1.000    0.900    0.000    3.600 
#    0.000    2.000    0.000    4.200    0.000    0.000 
#    0.000    0.000    0.000    0.000    0.000    0.000 
#
# Total GULP energy -495887.909189 kJ/mol
# GULP energy per Si atom -12397.197730 kJ/mol
# Density = 1.673387 g / cm^3
# Si number density = 16.772047 Si / 1000 Ang^3
#
#
#
# Elastic Constant Matrix: (Units=GPa)
#
#
# Indices 1 2 3 4 5 6 
#
# 1 103.6298 99.8770 49.6266 0.0000 0.0000 0.0000
# 2 99.8770 162.2503 49.8591 0.0000 0.0000 0.0000
# 3 49.6266 49.8591 59.7410 0.0000 0.0000 0.0000
# 4 0.0000 0.0000 0.0000 305.3034 0.0000 0.0000
# 5 0.0000 0.0000 0.0000 0.0000 24.6811 0.0000
# 6 0.0000 0.0000 0.0000 0.0000 0.0000 32.3334
#
#
#
# Elastic Compliance Matrix: (Units=1/GPa)
#
#
# Indices 1 2 3 4 5 6 
#
# 1 0.029345 -0.014220 -0.012509 0.000000 0.000000 0.000000
# 2 -0.014220 0.015180 -0.000856 0.000000 0.000000 0.000000
# 3 -0.012509 -0.000856 0.027845 0.000000 0.000000 0.000000
# 4 0.000000 0.000000 0.000000 0.003275 0.000000 0.000000
# 5 0.000000 0.000000 0.000000 0.000000 0.040517 0.000000
# 6 0.000000 0.000000 0.000000 0.000000 0.000000 0.030928
#
#
# Mechanical properties :
#
#
# Convention : Reuss Voigt Hill
#
# Bulk Modulus (GPa) = 58.14312 80.48296 69.31304
# Shear Modulus (GPa) = 24.03906 80.88081 52.45994
#
# Velocity S-wave (km/s) = 3.78998 6.95185 5.59876
# Velocity P-wave (km/s) = 7.34124 10.60793 9.12201
#
# Compressibility (1/GPa) = 0.01719894
#
# Stress axis : x y z
#
# Youngs Moduli (GPa) = 34.07690 65.87572 35.91325
#
# Poissons Ratio (x) = 0.93677 0.44924
# Poissons Ratio (y) = 0.48458 0.03076
# Poissons Ratio (z) = 0.42627 0.05642
#
# Static dielectric constant tensor:
#      x y z
#    x 3.250240 0.000000 0.000000 
#    y 0.000000 3.427860 0.000000 
#    z 0.000000 0.000000 2.755390 
# 
# 
# High freq. dielectric constant tensor:
#      x y z
#    x 1.649120 0.000000 0.000000 
#    y 0.000000 1.657110 0.000000 
#    z 0.000000 0.000000 1.600730 
# 
# From -- ./inp_files/69013.got.cif
#   From: 2010.06.25/outbox.cif.g09.slc.cpg/sg71_35_cif.got.tgz:69013.got - 2010.06.28 04:59:45.
