data_PCOD8290555
_publ_section_title
;
Structure prediction by ZEFSAII (Michael W. Deem and Ramdas Pophale) SiO2 
 PCOD8290555
Probable space group: I M M M
;
_chemical_formula_sum "Si O2"
_cell_formula_units_Z 88
_cell_length_a 9.117492
_cell_length_b 18.155510
_cell_length_c 28.691539
_cell_angle_alpha 90.000000
_cell_angle_beta 90.000000
_cell_angle_gamma 90.000000
_cell_volume 4749.388411
_symmetry_space_group_name_H-M "I M M M"
_symmetry_group_IT_number 71
_symmetry_cell_setting 'orthorhombic'
loop_
_space_group_symop_operation_xyz
x,y,z
-x,-y,z
x,-y,-z
-x,y,-z
-x,-y,-z
x,y,-z
-x,y,z
x,-y,z
1/2+x,1/2+y,1/2+z
1/2-x,1/2-y,1/2+z
1/2+x,1/2-y,1/2-z
1/2-x,1/2+y,1/2-z
1/2-x,1/2-y,1/2-z
1/2+x,1/2+y,1/2-z
1/2-x,1/2+y,1/2+z
1/2+x,1/2-y,1/2+z
loop_
_atom_site_type_symbol
_atom_site_label
_atom_site_fract_x
_atom_site_fract_y
_atom_site_fract_z
Si Si1 0.829220 0.140349 0.094095
Si Si2 0.673988 0.580827 0.115478
Si Si3 0.834279 0.500000 0.555060
Si Si4 0.168371 0.186705 0.805540
Si Si5 0.328281 0.336550 0.203927
Si Si6 0.671202 0.717233 0.945511
O O1 0.805777 0.134738 0.149944
O O2 0.763999 0.215359 0.074060
O O3 0.000000 0.136856 0.080905
O O4 0.747944 0.072045 0.071932
O O5 0.500000 0.576879 0.113309
O O6 0.739449 0.500000 0.103020
O O7 0.727267 0.601016 0.168094
O O8 0.728648 0.642288 0.078933
O O9 0.835268 0.500000 0.500000
O O10 0.000000 0.500000 0.574577
O O11 0.262169 0.259485 0.812075
O O12 0.214084 0.144189 0.757637
O O13 0.000000 0.211694 0.802231
O O14 0.500000 0.327081 0.198037
O O15 0.500000 0.731665 0.934817
O O16 0.700423 0.708341 0.000000
#
# Coordination Sequence:
#
# PCOD8290555 Si02
#       6
#    16  16   8  16  16  16
#     4  11  22  37  57  82 112 142 175 219 275 335
#     4   9  17  30  50  78 108 140 179 223 269 314
#     4  11  25  43  61  81 107 141 183 229 274 323
#     4   9  18  31  51  80 107 136 173 216 264 316
#     4   9  16  30  52  77 104 139 179 218 261 313
#     4  10  20  34  54  79 106 139 182 228 270 317
#
# _framework density 18.528701000000002
#
# number of rings (size 3 to 8) (size 9 to 14) (size 15 to 20)
#    0.000    2.273    1.818    1.364    0.000    4.364 
#    1.636    1.818    0.000    2.182    0.000    1.273 
#    0.000    0.000    0.000    0.000    0.000    0.000 
#
# Total GULP energy -545405.476825 kJ/mol
# GULP energy per Si atom -12395.579019 kJ/mol
# Density = 1.848653 g / cm^3
# Si number density = 18.528701 Si / 1000 Ang^3
#
#
#
# Elastic Constant Matrix: (Units=GPa)
#
#
# Indices 1 2 3 4 5 6 
#
# 1 61.8688 45.7436 44.7163 0.0000 0.0000 0.0000
# 2 45.7436 141.4893 71.7260 0.0000 0.0000 0.0001
# 3 44.7163 71.7260 121.7788 0.0000 0.0000 0.0001
# 4 0.0000 0.0000 0.0000 0.8305 0.0000 -0.0004
# 5 0.0000 0.0000 0.0000 0.0000 22.3847 0.0000
# 6 0.0000 0.0001 0.0001 -0.0004 0.0000 -562.8901
#
#
#
# Elastic Compliance Matrix: (Units=1/GPa)
#
#
# Indices 1 2 3 4 5 6 
#
# 1 0.024007 -0.004694 -0.006050 0.000000 0.000000 0.000000
# 2 -0.004694 0.010994 -0.004752 0.000000 0.000000 0.000000
# 3 -0.006050 -0.004752 0.013232 0.000000 0.000000 0.000000
# 4 0.000000 0.000000 0.000000 1.204083 0.000000 -0.000001
# 5 0.000000 0.000000 0.000000 0.000000 0.044673 0.000000
# 6 0.000000 0.000000 0.000000 -0.000001 0.000000 -0.001777
#
#
# Mechanical properties :
#
#
# Convention : Reuss Voigt Hill
#
# Bulk Modulus (GPa) = 58.00325 72.16764 65.08545
# Shear Modulus (GPa) = 3.75389 -97.07158 -46.65884
#
# Velocity S-wave (km/s) = 1.42492 -7.24594 -5.02360
# Velocity P-wave (km/s) = 5.83778 5.56517 1.24671
#
# Compressibility (1/GPa) = 0.01724041
#
# Stress axis : x y z
#
# Youngs Moduli (GPa) = 41.65456 90.95741 75.57507
#
# Poissons Ratio (x) = 0.42699 0.45725
# Poissons Ratio (y) = 0.19554 0.35911
# Poissons Ratio (z) = 0.25202 0.43220
#
# Static dielectric constant tensor:
#      x y z
#    x 3.312610 0.000000 0.000000 
#    y 0.000000 3.401020 0.000000 
#    z 0.000000 0.000000 3.846310 
# 
# 
# High freq. dielectric constant tensor:
#      x y z
#    x 1.698910 0.000000 0.000000 
#    y 0.000000 1.705640 0.000000 
#    z 0.000000 0.000000 1.739190 
# 
# From -- ./inp_files/8757.got.cif
#   From: 2010.06.25/outbox.cif.g09.slc.cpg/sg71_5_cif.got.tgz:8757.got - 2010.06.28 04:59:45.
