data_PCOD8290872
_publ_section_title
;
Structure prediction by ZEFSAII (Michael W. Deem and Ramdas Pophale) SiO2 
 PCOD8290872
Probable space group: I M M M
;
_chemical_formula_sum "Si O2"
_cell_formula_units_Z 72
_cell_length_a 11.557205
_cell_length_b 20.376934
_cell_length_c 17.090097
_cell_angle_alpha 90.000000
_cell_angle_beta 90.000000
_cell_angle_gamma 90.000000
_cell_volume 4024.724740
_symmetry_space_group_name_H-M "I M M M"
_symmetry_group_IT_number 71
_symmetry_cell_setting 'orthorhombic'
loop_
_space_group_symop_operation_xyz
x,y,z
-x,-y,z
x,-y,-z
-x,y,-z
-x,-y,-z
x,y,-z
-x,y,z
x,-y,z
1/2+x,1/2+y,1/2+z
1/2-x,1/2-y,1/2+z
1/2+x,1/2-y,1/2-z
1/2-x,1/2+y,1/2-z
1/2-x,1/2-y,1/2-z
1/2+x,1/2+y,1/2-z
1/2-x,1/2+y,1/2+z
1/2+x,1/2-y,1/2+z
loop_
_atom_site_type_symbol
_atom_site_label
_atom_site_fract_x
_atom_site_fract_y
_atom_site_fract_z
Si Si1 0.863539 0.000000 0.912835
Si Si2 0.365692 0.624726 0.687218
Si Si3 0.875723 0.000000 0.409508
Si Si4 0.500000 0.075619 0.411109
Si Si5 0.631567 0.755158 0.589287
Si Si6 0.265843 0.880186 0.347275
O O1 0.823625 0.935640 0.866065
O O2 0.000000 0.000000 0.921635
O O3 0.807842 0.000000 0.000000
O O4 0.500000 0.616380 0.713563
O O5 0.348114 0.691106 0.640146
O O6 0.278469 0.627772 0.759524
O O7 0.814280 0.067788 0.390117
O O8 0.894947 0.000000 0.500000
O O9 0.000000 0.000000 0.365863
O O10 0.500000 0.109586 0.500000
O O11 0.605894 0.092363 0.354823
O O12 0.500000 0.000000 0.430193
O O13 0.648473 0.733984 0.500000
O O14 0.500000 0.782912 0.603127
O O15 0.729346 0.808640 0.611705
#
# Coordination Sequence:
#
# PCOD8290872 Si02
#       6
#     8  16   8   8  16  16
#     4   9  17  33  56  80 109 142 179 222 272 329
#     4  10  21  35  54  84 115 144 180 228 287 339
#     4  11  23  36  53  78 110 147 180 215 271 341
#     4  11  22  36  56  82 108 143 191 235 274 324
#     4  10  20  35  56  81 110 145 189 236 281 328
#     4  12  21  35  55  81 112 144 183 232 281 328
#
# _framework density 17.889420999999999
#
# number of rings (size 3 to 8) (size 9 to 14) (size 15 to 20)
#    0.000    1.444    2.222    4.667    0.000    3.556 
#    0.000    0.000    0.000    0.000    0.000    3.111 
#    0.000    0.000    0.000    0.000    0.000    0.000 
#
# Total GULP energy -446164.494769 kJ/mol
# GULP energy per Si atom -12393.458188 kJ/mol
# Density = 1.784870 g / cm^3
# Si number density = 17.889421 Si / 1000 Ang^3
#
#
#
# Elastic Constant Matrix: (Units=GPa)
#
#
# Indices 1 2 3 4 5 6 
#
# 1 107.0162 55.5510 65.4567 0.0000 0.0000 0.0000
# 2 55.5510 131.2908 56.1059 0.0000 0.0000 0.0000
# 3 65.4567 56.1059 139.5359 0.0000 0.0000 0.0000
# 4 0.0000 0.0000 0.0000 26.3020 0.0000 0.0000
# 5 0.0000 0.0000 0.0000 0.0000 26.3438 0.0000
# 6 0.0000 0.0000 0.0000 0.0000 0.0000 7.3346
#
#
#
# Elastic Compliance Matrix: (Units=1/GPa)
#
#
# Indices 1 2 3 4 5 6 
#
# 1 0.014609 -0.003927 -0.005274 0.000000 0.000000 0.000000
# 2 -0.003927 0.010253 -0.002280 0.000000 0.000000 0.000000
# 3 -0.005274 -0.002280 0.010557 0.000000 0.000000 0.000000
# 4 0.000000 0.000000 0.000000 0.038020 0.000000 0.000000
# 5 0.000000 0.000000 0.000000 0.000000 0.037960 0.000000
# 6 0.000000 0.000000 0.000000 0.000000 0.000000 0.136339
#
#
# Mechanical properties :
#
#
# Convention : Reuss Voigt Hill
#
# Bulk Modulus (GPa) = 80.28177 81.34111 80.81144
# Shear Modulus (GPa) = 18.19153 25.37803 21.78478
#
# Velocity S-wave (km/s) = 3.19233 3.77052 3.49341
# Velocity P-wave (km/s) = 7.65258 8.03264 7.84491
#
# Compressibility (1/GPa) = 0.01245613
#
# Stress axis : x y z
#
# Youngs Moduli (GPa) = 68.45159 97.53371 94.71997
#
# Poissons Ratio (x) = 0.38306 0.49954
# Poissons Ratio (y) = 0.26884 0.21598
# Poissons Ratio (z) = 0.36100 0.22239
#
# Static dielectric constant tensor:
#      x y z
#    x 3.234170 0.000000 0.000000 
#    y 0.000000 3.793280 0.000000 
#    z 0.000000 0.000000 3.371600 
# 
# 
# High freq. dielectric constant tensor:
#      x y z
#    x 1.664860 0.000000 0.000000 
#    y 0.000000 1.717730 0.000000 
#    z 0.000000 0.000000 1.695790 
# 
# From -- ./inp_files/43229.got.cif
#   From: 2010.06.25/outbox.cif.g09.slc.cpg/sg71_22_cif.got.tgz:43229.got - 2010.06.28 04:59:45.
