data_PCOD8290741
_publ_section_title
;
Structure prediction by ZEFSAII (Michael W. Deem and Ramdas Pophale) SiO2 
 PCOD8290741
Probable space group: I M M M
;
_chemical_formula_sum "Si O2"
_cell_formula_units_Z 72
_cell_length_a 14.154502
_cell_length_b 11.865884
_cell_length_c 24.357974
_cell_angle_alpha 90.000000
_cell_angle_beta 90.000000
_cell_angle_gamma 90.000000
_cell_volume 4091.060058
_symmetry_space_group_name_H-M "I M M M"
_symmetry_group_IT_number 71
_symmetry_cell_setting 'orthorhombic'
loop_
_space_group_symop_operation_xyz
x,y,z
-x,-y,z
x,-y,-z
-x,y,-z
-x,-y,-z
x,y,-z
-x,y,z
x,-y,z
1/2+x,1/2+y,1/2+z
1/2-x,1/2-y,1/2+z
1/2+x,1/2-y,1/2-z
1/2-x,1/2+y,1/2-z
1/2-x,1/2-y,1/2-z
1/2+x,1/2+y,1/2-z
1/2-x,1/2+y,1/2+z
1/2+x,1/2-y,1/2+z
loop_
_atom_site_type_symbol
_atom_site_label
_atom_site_fract_x
_atom_site_fract_y
_atom_site_fract_z
Si Si1 0.183259 0.778052 0.402264
Si Si2 0.314154 0.763621 0.303220
Si Si3 0.500000 0.627438 0.718673
Si Si4 0.500000 0.627795 0.151561
Si Si5 0.783362 0.500000 0.060844
Si Si6 0.610023 0.133554 0.000000
Si Si7 0.110139 0.500000 0.168281
O O1 0.258993 0.730711 0.358775
O O2 0.218630 0.890353 0.432192
O O3 0.161831 0.681609 0.446376
O O4 0.090210 0.805843 0.368652
O O5 0.250000 0.750000 0.250000
O O6 0.406727 0.687213 0.303762
O O7 0.342162 0.894028 0.302986
O O8 0.500000 0.500000 0.696551
O O9 0.500000 0.630120 0.783569
O O10 0.500000 0.500000 0.129257
O O11 0.870371 0.500000 0.103078
O O12 0.827317 0.500000 0.000000
O O13 0.500000 0.170027 0.000000
O O14 0.621273 0.000000 0.000000
O O15 0.000000 0.500000 0.179467
#
# Coordination Sequence:
#
# PCOD8290741 Si02
#       7
#    16  16   8   8   8   8   8
#     4  11  21  36  60  85 119 151 192 239 298 346
#     4  11  23  39  60  88 120 155 195 243 295 353
#     4  11  24  39  60  85 120 159 199 237 287 352
#     4  11  20  33  57  92 118 148 190 245 292 347
#     4  10  20  34  60  90 109 149 195 239 296 350
#     4  11  24  39  55  82 119 159 200 237 281 354
#     4  10  22  39  59  87 120 153 195 249 298 351
#
# _framework density 17.599350000000001
#
# number of rings (size 3 to 8) (size 9 to 14) (size 15 to 20)
#    0.000    1.222    6.667    0.000    1.556    1.111 
#    0.000    1.667    2.444    0.667    0.000    1.556 
#    0.000    0.000    0.000    0.000    0.000    0.000 
#
# Total GULP energy -446499.920053 kJ/mol
# GULP energy per Si atom -12402.775557 kJ/mol
# Density = 1.755929 g / cm^3
# Si number density = 17.599350 Si / 1000 Ang^3
#
#
#
# Elastic Constant Matrix: (Units=GPa)
#
#
# Indices 1 2 3 4 5 6 
#
# 1 132.3221 60.2737 66.2998 0.0000 0.0000 0.0000
# 2 60.2737 122.9061 64.0560 0.0000 0.0000 0.0000
# 3 66.2998 64.0560 121.6106 0.0000 0.0000 0.0000
# 4 0.0000 0.0000 0.0000 31.8297 0.0000 0.0000
# 5 0.0000 0.0000 0.0000 0.0000 29.3058 0.0000
# 6 0.0000 0.0000 0.0000 0.0000 0.0000 28.9794
#
#
#
# Elastic Compliance Matrix: (Units=1/GPa)
#
#
# Indices 1 2 3 4 5 6 
#
# 1 0.011240 -0.003196 -0.004445 0.000000 0.000000 0.000000
# 2 -0.003196 0.012124 -0.004644 0.000000 0.000000 0.000000
# 3 -0.004445 -0.004644 0.013092 0.000000 0.000000 0.000000
# 4 0.000000 0.000000 0.000000 0.031417 0.000000 0.000000
# 5 0.000000 0.000000 0.000000 0.000000 0.034123 0.000000
# 6 0.000000 0.000000 0.000000 0.000000 0.000000 0.034507
#
#
# Mechanical properties :
#
#
# Convention : Reuss Voigt Hill
#
# Bulk Modulus (GPa) = 84.11989 84.23307 84.17648
# Shear Modulus (GPa) = 30.29693 30.43694 30.36694
#
# Velocity S-wave (km/s) = 4.15357 4.16316 4.15837
# Velocity P-wave (km/s) = 8.42044 8.43057 8.42551
#
# Compressibility (1/GPa) = 0.01188779
#
# Stress axis : x y z
#
# Youngs Moduli (GPa) = 88.96875 82.48339 76.38262
#
# Poissons Ratio (x) = 0.26359 0.33948
# Poissons Ratio (y) = 0.28432 0.35469
# Poissons Ratio (z) = 0.39542 0.38302
#
# Static dielectric constant tensor:
#      x y z
#    x 3.415200 0.000000 0.000000 
#    y 0.000000 3.322110 0.000000 
#    z 0.000000 0.000000 3.307410 
# 
# 
# High freq. dielectric constant tensor:
#      x y z
#    x 1.689000 0.000000 0.000000 
#    y 0.000000 1.682110 0.000000 
#    z 0.000000 0.000000 1.684320 
# 
# From -- ./inp_files/59611.got.cif
#   From: 2010.06.25/outbox.cif.g09.slc.cpg/sg71_30_cif.got.tgz:59611.got - 2010.06.28 04:59:45.
