data_PCOD8290751
_publ_section_title
;
Structure prediction by ZEFSAII (Michael W. Deem and Ramdas Pophale) SiO2 
 PCOD8290751
Probable space group: I M M M
;
_chemical_formula_sum "Si O2"
_cell_formula_units_Z 80
_cell_length_a 18.203977
_cell_length_b 17.638418
_cell_length_c 14.186797
_cell_angle_alpha 90.000000
_cell_angle_beta 90.000000
_cell_angle_gamma 90.000000
_cell_volume 4555.229507
_symmetry_space_group_name_H-M "I M M M"
_symmetry_group_IT_number 71
_symmetry_cell_setting 'orthorhombic'
loop_
_space_group_symop_operation_xyz
x,y,z
-x,-y,z
x,-y,-z
-x,y,-z
-x,-y,-z
x,y,-z
-x,y,z
x,-y,z
1/2+x,1/2+y,1/2+z
1/2-x,1/2-y,1/2+z
1/2+x,1/2-y,1/2-z
1/2-x,1/2+y,1/2-z
1/2-x,1/2-y,1/2-z
1/2+x,1/2+y,1/2-z
1/2-x,1/2+y,1/2+z
1/2+x,1/2-y,1/2+z
loop_
_atom_site_type_symbol
_atom_site_label
_atom_site_fract_x
_atom_site_fract_y
_atom_site_fract_z
Si Si1 0.000000 0.585043 0.888238
Si Si2 0.000000 0.084960 0.111558
Si Si3 0.419125 0.589794 0.105570
Si Si4 0.649679 0.159777 0.390760
Si Si5 0.282010 0.590049 0.223718
Si Si6 0.150127 0.838232 0.108681
O O1 0.071858 0.629257 0.852900
O O2 0.000000 0.500000 0.846639
O O3 0.000000 0.583142 0.000000
O O4 0.927654 0.129006 0.145273
O O5 0.000000 0.000000 0.155752
O O6 0.000000 0.080155 0.000000
O O7 0.500000 0.613284 0.145346
O O8 0.412839 0.500000 0.101562
O O9 0.354210 0.622231 0.170251
O O10 0.409367 0.622642 0.000000
O O11 0.662416 0.137919 0.500000
O O12 0.710958 0.120076 0.328730
O O13 0.651064 0.249030 0.375883
O O14 0.279095 0.500000 0.227500
O O15 0.285448 0.623326 0.329683
O O16 0.164377 0.859729 0.000000
#
# Coordination Sequence:
#
# PCOD8290751 Si02
#       6
#     8   8  16  16  16  16
#     4   9  17  31  53  77 100 125 160 211 267 315
#     4   9  17  31  51  73  98 131 174 215 249 295
#     4   8  15  28  44  65  96 130 163 203 251 301
#     4  10  20  35  53  75 104 136 170 211 264 320
#     4  11  21  31  50  76 102 133 175 218 259 307
#     4  10  21  35  50  71 104 143 175 211 259 311
#
# _framework density 17.562232999999999
#
# number of rings (size 3 to 8) (size 9 to 14) (size 15 to 20)
#    0.000    2.400    0.000    3.600    1.400    5.600 
#    0.000    0.000    0.000    0.000    0.000    0.700 
#    0.000    2.400    0.000    0.000    0.000    0.000 
#
# Total GULP energy -495956.037235 kJ/mol
# GULP energy per Si atom -12398.900931 kJ/mol
# Density = 1.752226 g / cm^3
# Si number density = 17.562233 Si / 1000 Ang^3
#
#
#
# Elastic Constant Matrix: (Units=GPa)
#
#
# Indices 1 2 3 4 5 6 
#
# 1 140.9433 55.1279 66.2949 0.0000 0.0000 0.0000
# 2 55.1279 91.0192 46.1721 0.0000 0.0000 0.0000
# 3 66.2949 46.1721 75.1242 0.0000 0.0000 0.0000
# 4 0.0000 0.0000 0.0000 22.3544 0.0000 0.0000
# 5 0.0000 0.0000 0.0000 0.0000 18.0216 0.0000
# 6 0.0000 0.0000 0.0000 0.0000 0.0000 31.0516
#
#
#
# Elastic Compliance Matrix: (Units=1/GPa)
#
#
# Indices 1 2 3 4 5 6 
#
# 1 0.012636 -0.002901 -0.009368 0.000000 0.000000 0.000000
# 2 -0.002901 0.016630 -0.007661 0.000000 0.000000 0.000000
# 3 -0.009368 -0.007661 0.026287 0.000000 0.000000 0.000000
# 4 0.000000 0.000000 0.000000 0.044734 0.000000 0.000000
# 5 0.000000 0.000000 0.000000 0.000000 0.055489 0.000000
# 6 0.000000 0.000000 0.000000 0.000000 0.000000 0.032204
#
#
# Mechanical properties :
#
#
# Convention : Reuss Voigt Hill
#
# Bulk Modulus (GPa) = 63.72274 71.36407 67.54341
# Shear Modulus (GPa) = 21.45270 23.58496 22.51883
#
# Velocity S-wave (km/s) = 3.49882 3.66859 3.58471
# Velocity P-wave (km/s) = 7.25845 7.65950 7.46167
#
# Compressibility (1/GPa) = 0.01569298
#
# Stress axis : x y z
#
# Youngs Moduli (GPa) = 79.13780 60.13215 38.04228
#
# Poissons Ratio (x) = 0.17446 0.35638
# Poissons Ratio (y) = 0.22960 0.29143
# Poissons Ratio (z) = 0.74136 0.46066
#
# Static dielectric constant tensor:
#      x y z
#    x 3.419150 0.000000 0.000000 
#    y 0.000000 3.152290 0.000000 
#    z 0.000000 0.000000 3.252670 
# 
# 
# High freq. dielectric constant tensor:
#      x y z
#    x 1.678810 0.000000 0.000000 
#    y 0.000000 1.664220 0.000000 
#    z 0.000000 0.000000 1.667130 
# 
# From -- ./inp_files/36261.got.cif
#   From: 2010.06.25/outbox.cif.g09.slc.cpg/sg71_19_cif.got.tgz:36261.got - 2010.06.28 04:59:45.
