data_PCOD8290898
_publ_section_title
;
Structure prediction by ZEFSAII (Michael W. Deem and Ramdas Pophale) SiO2 
 PCOD8290898
Probable space group: I M M M
;
_chemical_formula_sum "Si O2"
_cell_formula_units_Z 104
_cell_length_a 27.845454
_cell_length_b 8.852253
_cell_length_c 22.515616
_cell_angle_alpha 90.000000
_cell_angle_beta 90.000000
_cell_angle_gamma 90.000000
_cell_volume 5549.986849
_symmetry_space_group_name_H-M "I M M M"
_symmetry_group_IT_number 71
_symmetry_cell_setting 'orthorhombic'
loop_
_space_group_symop_operation_xyz
x,y,z
-x,-y,z
x,-y,-z
-x,y,-z
-x,-y,-z
x,y,-z
-x,y,z
x,-y,z
1/2+x,1/2+y,1/2+z
1/2-x,1/2-y,1/2+z
1/2+x,1/2-y,1/2-z
1/2-x,1/2+y,1/2-z
1/2-x,1/2-y,1/2-z
1/2+x,1/2+y,1/2-z
1/2-x,1/2+y,1/2+z
1/2+x,1/2-y,1/2+z
loop_
_atom_site_type_symbol
_atom_site_label
_atom_site_fract_x
_atom_site_fract_y
_atom_site_fract_z
Si Si1 0.943991 0.179474 0.000000
Si Si2 0.392620 0.175031 0.612666
Si Si3 0.800569 0.325442 0.694991
Si Si4 0.944806 0.673067 0.766074
Si Si5 0.889225 0.826374 0.663250
Si Si6 0.943514 0.667943 0.565781
Si Si7 0.693477 0.323834 0.678787
O O1 0.915428 0.238595 0.057226
O O2 0.000000 0.234683 0.000000
O O3 0.942090 0.000000 0.000000
O O4 0.429575 0.198216 0.666278
O O5 0.340236 0.238503 0.631496
O O6 0.386309 0.000000 0.595903
O O7 0.804392 0.500000 0.712352
O O8 0.841658 0.273024 0.649567
O O9 0.749492 0.290228 0.664153
O O10 0.813109 0.231232 0.754021
O O11 0.936299 0.500000 0.746505
O O12 0.913685 0.781336 0.725120
O O13 0.000000 0.719261 0.759540
O O14 0.924705 0.796670 0.609076
O O15 0.874980 0.000000 0.665872
O O16 0.922310 0.694603 0.500000
O O17 0.929221 0.500000 0.588589
O O18 0.000000 0.683194 0.563864
O O19 0.681077 0.500000 0.675251
#
# Coordination Sequence:
#
# PCOD8290898 Si02
#       7
#     8  16  16  16  16  16  16
#     4  11  25  43  63  87 119 159 203 253 300 349
#     4  11  22  38  62  87 115 154 196 239 294 355
#     4  10  20  35  56  83 116 152 188 226 277 340
#     4  10  21  36  54  79 113 151 189 230 279 339
#     4  12  23  33  52  83 116 149 185 232 284 332
#     4   9  19  37  59  79 104 145 191 229 271 332
#     4  10  20  35  58  87 115 145 185 234 284 338
#
# _framework density 18.738782
#
# number of rings (size 3 to 8) (size 9 to 14) (size 15 to 20)
#    0.000    1.615    1.538    4.385    0.000    6.462 
#    0.000    0.769    1.692    0.000    0.000    0.000 
#    0.000    0.000    0.000    0.000    0.000    0.000 
#
# Total GULP energy -644776.060726 kJ/mol
# GULP energy per Si atom -12399.539629 kJ/mol
# Density = 1.869613 g / cm^3
# Si number density = 18.738782 Si / 1000 Ang^3
#
#
#
# Elastic Constant Matrix: (Units=GPa)
#
#
# Indices 1 2 3 4 5 6 
#
# 1 115.2661 53.2602 38.6049 0.0000 0.0000 0.0000
# 2 53.2602 90.0904 38.2254 0.0000 0.0000 0.0000
# 3 38.6049 38.2254 74.1903 0.0000 0.0000 0.0000
# 4 0.0000 0.0000 0.0000 20.6704 0.0000 0.0000
# 5 0.0000 0.0000 0.0000 0.0000 22.3955 0.0000
# 6 0.0000 0.0000 0.0000 0.0000 0.0000 29.3892
#
#
#
# Elastic Compliance Matrix: (Units=1/GPa)
#
#
# Indices 1 2 3 4 5 6 
#
# 1 0.012601 -0.005973 -0.003479 0.000000 0.000000 0.000000
# 2 -0.005973 0.017037 -0.005670 0.000000 0.000000 0.000000
# 3 -0.003479 -0.005670 0.018211 0.000000 0.000000 0.000000
# 4 0.000000 0.000000 0.000000 0.048378 0.000000 0.000000
# 5 0.000000 0.000000 0.000000 0.000000 0.044652 0.000000
# 6 0.000000 0.000000 0.000000 0.000000 0.000000 0.034026
#
#
# Mechanical properties :
#
#
# Convention : Reuss Voigt Hill
#
# Bulk Modulus (GPa) = 56.80605 59.96974 58.38789
# Shear Modulus (GPa) = 23.69475 24.45478 24.07477
#
# Velocity S-wave (km/s) = 3.55981 3.61645 3.58824
# Velocity P-wave (km/s) = 6.87581 7.03639 6.95656
#
# Compressibility (1/GPa) = 0.01760376
#
# Stress axis : x y z
#
# Youngs Moduli (GPa) = 79.35981 58.69591 54.91306
#
# Poissons Ratio (x) = 0.35060 0.19106
# Poissons Ratio (y) = 0.47403 0.31135
# Poissons Ratio (z) = 0.27611 0.33280
#
# Static dielectric constant tensor:
#      x y z
#    x 3.702420 0.000000 0.000000 
#    y 0.000000 3.494530 0.000000 
#    z 0.000000 0.000000 3.302470 
# 
# 
# High freq. dielectric constant tensor:
#      x y z
#    x 1.739320 0.000000 0.000000 
#    y 0.000000 1.734030 0.000000 
#    z 0.000000 0.000000 1.706020 
# 
# From -- ./inp_files/56241.got.cif
#   From: 2010.06.25/outbox.cif.g09.slc.cpg/sg71_29_cif.got.tgz:56241.got - 2010.06.28 04:59:45.
