data_PCOD8290817
_publ_section_title
;
Structure prediction by ZEFSAII (Michael W. Deem and Ramdas Pophale) SiO2 
 PCOD8290817
Probable space group: I M M M
;
_chemical_formula_sum "Si O2"
_cell_formula_units_Z 104
_cell_length_a 25.153469
_cell_length_b 9.452218
_cell_length_c 24.068252
_cell_angle_alpha 90.000000
_cell_angle_beta 90.000000
_cell_angle_gamma 90.000000
_cell_volume 5722.373066
_symmetry_space_group_name_H-M "I M M M"
_symmetry_group_IT_number 71
_symmetry_cell_setting 'orthorhombic'
loop_
_space_group_symop_operation_xyz
x,y,z
-x,-y,z
x,-y,-z
-x,y,-z
-x,-y,-z
x,y,-z
-x,y,z
x,-y,z
1/2+x,1/2+y,1/2+z
1/2-x,1/2-y,1/2+z
1/2+x,1/2-y,1/2-z
1/2-x,1/2+y,1/2-z
1/2-x,1/2-y,1/2-z
1/2+x,1/2+y,1/2-z
1/2-x,1/2+y,1/2+z
1/2+x,1/2-y,1/2+z
loop_
_atom_site_type_symbol
_atom_site_label
_atom_site_fract_x
_atom_site_fract_y
_atom_site_fract_z
Si Si1 0.195889 0.166288 0.758006
Si Si2 0.063447 0.843857 0.500000
Si Si3 0.660446 0.159293 0.160370
Si Si4 0.939034 0.665340 0.935883
Si Si5 0.845781 0.165455 0.119538
Si Si6 0.237950 0.332462 0.562212
Si Si7 0.941232 0.655435 0.402371
O O1 0.250000 0.250000 0.750000
O O2 0.159380 0.228327 0.709738
O O3 0.169041 0.199518 0.816914
O O4 0.205485 0.000000 0.750256
O O5 0.084156 0.763720 0.554000
O O6 0.000000 0.842034 0.500000
O O7 0.087555 0.000000 0.500000
O O8 0.694399 0.217808 0.107620
O O9 0.597939 0.151514 0.149127
O O10 0.681326 0.000000 0.176433
O O11 0.928936 0.500000 0.926005
O O12 0.899133 0.751963 0.896761
O O13 0.000000 0.703973 0.920273
O O14 0.928254 0.705058 0.000000
O O15 0.796633 0.216943 0.081296
O O16 0.856832 0.000000 0.111053
O O17 0.226213 0.270763 0.500000
O O18 0.235679 0.500000 0.559612
O O19 0.943981 0.500000 0.430378
O O20 0.000000 0.702572 0.382230
#
# Coordination Sequence:
#
# PCOD8290817 Si02
#       7
#    16   8  16  16  16  16  16
#     4  11  22  38  58  80 108 142 185 230 272 322
#     4   9  17  29  47  71 101 137 173 213 264 315
#     4  10  20  35  55  78 107 144 183 222 274 327
#     4   9  19  36  57  84 119 153 183 221 275 335
#     4  10  20  35  56  81 109 144 188 229 267 323
#     4   9  17  30  50  77 108 140 175 217 267 322
#     4   9  18  32  51  75 102 135 179 224 263 315
#
# _framework density 18.174278000000001
#
# number of rings (size 3 to 8) (size 9 to 14) (size 15 to 20)
#    0.000    2.385    1.538    1.615    1.077    4.000 
#    0.000    1.538    0.000    2.769    0.000    0.000 
#    0.000    0.000    0.000    0.000    0.000    0.000 
#
# Total GULP energy -644458.707565 kJ/mol
# GULP energy per Si atom -12393.436684 kJ/mol
# Density = 1.813291 g / cm^3
# Si number density = 18.174278 Si / 1000 Ang^3
#
#
#
# Elastic Constant Matrix: (Units=GPa)
#
#
# Indices 1 2 3 4 5 6 
#
# 1 109.3370 45.1812 53.1266 0.0000 0.0000 0.0000
# 2 45.1812 85.7688 55.4596 0.0000 0.0000 0.0000
# 3 53.1266 55.4596 122.0793 0.0000 0.0000 0.0000
# 4 0.0000 0.0000 0.0000 32.1021 0.0000 0.0000
# 5 0.0000 0.0000 0.0000 0.0000 26.5753 0.0000
# 6 0.0000 0.0000 0.0000 0.0000 0.0000 25.8640
#
#
#
# Elastic Compliance Matrix: (Units=1/GPa)
#
#
# Indices 1 2 3 4 5 6 
#
# 1 0.012673 -0.004403 -0.003515 0.000000 0.000000 0.000000
# 2 -0.004403 0.018039 -0.006279 0.000000 0.000000 0.000000
# 3 -0.003515 -0.006279 0.012573 0.000000 0.000000 0.000000
# 4 0.000000 0.000000 0.000000 0.031151 0.000000 0.000000
# 5 0.000000 0.000000 0.000000 0.000000 0.037629 0.000000
# 6 0.000000 0.000000 0.000000 0.000000 0.000000 0.038664
#
#
# Mechanical properties :
#
#
# Convention : Reuss Voigt Hill
#
# Bulk Modulus (GPa) = 67.15057 69.41334 68.28196
# Shear Modulus (GPa) = 27.16116 27.80278 27.48197
#
# Velocity S-wave (km/s) = 3.87005 3.91549 3.89284
# Velocity P-wave (km/s) = 7.54971 7.66274 7.60643
#
# Compressibility (1/GPa) = 0.01489191
#
# Stress axis : x y z
#
# Youngs Moduli (GPa) = 78.90488 55.43645 79.53366
#
# Poissons Ratio (x) = 0.24411 0.27955
# Poissons Ratio (y) = 0.34745 0.49936
# Poissons Ratio (z) = 0.27734 0.34806
#
# Static dielectric constant tensor:
#      x y z
#    x 3.391960 0.000000 0.000000 
#    y 0.000000 3.807820 0.000000 
#    z 0.000000 0.000000 3.165080 
# 
# 
# High freq. dielectric constant tensor:
#      x y z
#    x 1.706160 0.000000 0.000000 
#    y 0.000000 1.687690 0.000000 
#    z 0.000000 0.000000 1.695530 
# 
# From -- ./inp_files/61945.got.cif
#   From: 2010.06.25/outbox.cif.g09.slc.cpg/sg71_31_cif.got.tgz:61945.got - 2010.06.28 04:59:45.
