data_PCOD8290833
_publ_section_title
;
Structure prediction by ZEFSAII (Michael W. Deem and Ramdas Pophale) SiO2 
 PCOD8290833
Probable space group: I M M M
;
_chemical_formula_sum "Si O2"
_cell_formula_units_Z 104
_cell_length_a 27.216685
_cell_length_b 21.840406
_cell_length_c 8.906611
_cell_angle_alpha 90.000000
_cell_angle_beta 90.000000
_cell_angle_gamma 90.000000
_cell_volume 5294.298442
_symmetry_space_group_name_H-M "I M M M"
_symmetry_group_IT_number 71
_symmetry_cell_setting 'orthorhombic'
loop_
_space_group_symop_operation_xyz
x,y,z
-x,-y,z
x,-y,-z
-x,y,-z
-x,-y,-z
x,y,-z
-x,y,z
x,-y,z
1/2+x,1/2+y,1/2+z
1/2-x,1/2-y,1/2+z
1/2+x,1/2-y,1/2-z
1/2-x,1/2+y,1/2-z
1/2-x,1/2-y,1/2-z
1/2+x,1/2+y,1/2-z
1/2-x,1/2+y,1/2+z
1/2+x,1/2-y,1/2+z
loop_
_atom_site_type_symbol
_atom_site_label
_atom_site_fract_x
_atom_site_fract_y
_atom_site_fract_z
Si Si1 0.770537 0.071307 0.177474
Si Si2 0.627984 0.569659 0.829345
Si Si3 0.445069 0.670436 0.176784
Si Si4 0.375423 0.224303 0.169724
Si Si5 0.941149 0.500000 0.166199
Si Si6 0.946131 0.612766 0.334250
Si Si7 0.777126 0.308588 0.178413
O O1 0.826689 0.085659 0.221151
O O2 0.738104 0.124400 0.256480
O O3 0.757118 0.000000 0.225463
O O4 0.763812 0.078405 0.000000
O O5 0.612543 0.500000 0.813901
O O6 0.578381 0.604940 0.782910
O O7 0.644012 0.586314 0.000000
O O8 0.500000 0.676176 0.248813
O O9 0.404536 0.718000 0.238978
O O10 0.450225 0.681047 0.000000
O O11 0.416071 0.173424 0.164230
O O12 0.333761 0.202680 0.283293
O O13 0.354753 0.236866 0.000000
O O14 0.918596 0.560788 0.238941
O O15 0.000000 0.500000 0.185198
O O16 0.921929 0.500000 0.000000
O O17 0.951471 0.585491 0.500000
O O18 0.000000 0.627939 0.266880
O O19 0.750000 0.250000 0.250000
O O20 0.768727 0.309194 0.000000
#
# Coordination Sequence:
#
# PCOD8290833 Si02
#       7
#    16  16  16  16   8  16  16
#     4  10  21  39  63  89 118 153 194 242 296 355
#     4   9  17  30  52  83 117 153 191 231 279 337
#     4   9  17  30  51  80 113 149 190 236 280 325
#     4  10  20  35  55  80 108 142 186 234 284 333
#     4   9  17  29  47  71  99 133 173 217 265 317
#     4   9  17  31  52  76 103 138 180 223 268 322
#     4  12  25  41  62  86 115 150 192 241 293 352
#
# _framework density 19.643772999999999
#
# number of rings (size 3 to 8) (size 9 to 14) (size 15 to 20)
#    0.000    2.231    0.000    3.462    0.000    5.846 
#    1.385    1.538    0.000    2.769    0.000    2.154 
#    0.000    0.000    0.000    0.000    0.000    0.000 
#
# Total GULP energy -644313.929744 kJ/mol
# GULP energy per Si atom -12390.652495 kJ/mol
# Density = 1.959906 g / cm^3
# Si number density = 19.643773 Si / 1000 Ang^3
#
#
#
# Elastic Constant Matrix: (Units=GPa)
#
#
# Indices 1 2 3 4 5 6 
#
# 1 105.7289 60.1184 33.2084 0.0000 0.0000 0.0000
# 2 60.1184 131.8846 49.5075 0.0000 0.0000 0.0000
# 3 33.2084 49.5075 87.9087 0.0000 0.0000 0.0000
# 4 0.0000 0.0000 0.0000 2.6437 0.0000 0.0000
# 5 0.0000 0.0000 0.0000 0.0000 24.7292 0.0000
# 6 0.0000 0.0000 0.0000 0.0000 0.0000 29.2899
#
#
#
# Elastic Compliance Matrix: (Units=1/GPa)
#
#
# Indices 1 2 3 4 5 6 
#
# 1 0.013039 -0.005193 -0.002001 0.000000 0.000000 0.000000
# 2 -0.005193 0.011683 -0.004618 0.000000 0.000000 0.000000
# 3 -0.002001 -0.004618 0.014732 0.000000 0.000000 0.000000
# 4 0.000000 0.000000 0.000000 0.378259 0.000000 0.000000
# 5 0.000000 0.000000 0.000000 0.000000 0.040438 0.000000
# 6 0.000000 0.000000 0.000000 0.000000 0.000000 0.034141
#
#
# Mechanical properties :
#
#
# Convention : Reuss Voigt Hill
#
# Bulk Modulus (GPa) = 63.16897 67.91009 65.53953
# Shear Modulus (GPa) = 9.59336 23.51175 16.55255
#
# Velocity S-wave (km/s) = 2.21230 3.46339 2.90597
# Velocity P-wave (km/s) = 6.22517 7.11613 6.68551
#
# Compressibility (1/GPa) = 0.01583056
#
# Stress axis : x y z
#
# Youngs Moduli (GPa) = 76.69119 85.59559 67.87868
#
# Poissons Ratio (x) = 0.44446 0.13586
# Poissons Ratio (y) = 0.39822 0.31346
# Poissons Ratio (z) = 0.15349 0.39527
#
# Static dielectric constant tensor:
#      x y z
#    x 3.380690 0.000000 0.000000 
#    y 0.000000 3.881360 0.000000 
#    z 0.000000 0.000000 3.660760 
# 
# 
# High freq. dielectric constant tensor:
#      x y z
#    x 1.753780 0.000000 0.000000 
#    y 0.000000 1.784640 0.000000 
#    z 0.000000 0.000000 1.739910 
# 
# From -- ./inp_files/11155.got.cif
#   From: 2010.06.25/outbox.cif.g09.slc.cpg/sg71_6_cif.got.tgz:11155.got - 2010.06.28 04:59:45.
