data_PCOD8290428
_publ_section_title
;
Structure prediction by ZEFSAII (Michael W. Deem and Ramdas Pophale) SiO2 
 PCOD8290428
Probable space group: I M M M
;
_chemical_formula_sum "Si O2"
_cell_formula_units_Z 96
_cell_length_a 23.579978
_cell_length_b 9.212429
_cell_length_c 24.842686
_cell_angle_alpha 90.000000
_cell_angle_beta 90.000000
_cell_angle_gamma 90.000000
_cell_volume 5396.548686
_symmetry_space_group_name_H-M "I M M M"
_symmetry_group_IT_number 71
_symmetry_cell_setting 'orthorhombic'
loop_
_space_group_symop_operation_xyz
x,y,z
-x,-y,z
x,-y,-z
-x,y,-z
-x,-y,-z
x,y,-z
-x,y,z
x,-y,z
1/2+x,1/2+y,1/2+z
1/2-x,1/2-y,1/2+z
1/2+x,1/2-y,1/2-z
1/2-x,1/2+y,1/2-z
1/2-x,1/2-y,1/2-z
1/2+x,1/2+y,1/2-z
1/2-x,1/2+y,1/2+z
1/2+x,1/2-y,1/2+z
loop_
_atom_site_type_symbol
_atom_site_label
_atom_site_fract_x
_atom_site_fract_y
_atom_site_fract_z
Si Si1 0.188638 0.831521 0.562569
Si Si2 0.118037 0.668157 0.645937
Si Si3 0.000000 0.670964 0.694382
Si Si4 0.500000 0.665701 0.694378
Si Si5 0.801461 0.167711 0.939206
Si Si6 0.622323 0.667059 0.341235
Si Si7 0.190772 0.669327 0.751181
O O1 0.176898 0.802856 0.500000
O O2 0.136819 0.761397 0.594798
O O3 0.247631 0.759258 0.580688
O O4 0.192541 0.000000 0.576544
O O5 0.117922 0.500000 0.629564
O O6 0.055251 0.721622 0.661721
O O7 0.160264 0.698328 0.694908
O O8 0.000000 0.736834 0.753259
O O9 0.000000 0.500000 0.703307
O O10 0.500000 0.500000 0.714174
O O11 0.444838 0.698933 0.658096
O O12 0.854430 0.203017 0.900749
O O13 0.783564 0.000000 0.935506
O O14 0.819207 0.210304 0.000000
O O15 0.635318 0.500000 0.325788
O O16 0.651820 0.770141 0.298381
O O17 0.201016 0.500000 0.761404
O O18 0.250000 0.750000 0.750000
#
# Coordination Sequence:
#
# PCOD8290428 Si02
#       7
#    16  16   8   8  16  16  16
#     4  10  21  36  55  80 108 137 172 216 265 316
#     4  10  21  36  55  77 103 137 176 216 259 312
#     4  10  20  38  57  76 103 138 182 221 256 311
#     4  10  20  34  53  77 107 142 178 220 266 313
#     4   9  18  34  55  77 105 142 180 218 262 313
#     4  10  20  34  52  77 107 139 179 219 263 316
#     4  11  22  34  51  77 108 138 171 216 268 318
#
# _framework density 17.789147
#
# number of rings (size 3 to 8) (size 9 to 14) (size 15 to 20)
#    0.000    2.000    1.667    2.000    0.000    7.667 
#    0.000    0.833    0.000    5.000    0.000    0.000 
#    0.000    4.667    0.000    0.000    0.000    0.000 
#
# Total GULP energy -595359.948142 kJ/mol
# GULP energy per Si atom -12403.332253 kJ/mol
# Density = 1.774866 g / cm^3
# Si number density = 17.789147 Si / 1000 Ang^3
#
#
#
# Elastic Constant Matrix: (Units=GPa)
#
#
# Indices 1 2 3 4 5 6 
#
# 1 144.5762 57.7111 56.9086 0.0000 0.0000 0.0000
# 2 57.7111 74.9135 47.6255 0.0000 0.0000 0.0000
# 3 56.9086 47.6255 85.7683 0.0000 0.0000 0.0000
# 4 0.0000 0.0000 0.0000 29.4113 0.0000 0.0000
# 5 0.0000 0.0000 0.0000 0.0000 -8.3481 0.0000
# 6 0.0000 0.0000 0.0000 0.0000 0.0000 23.8660
#
#
#
# Elastic Compliance Matrix: (Units=1/GPa)
#
#
# Indices 1 2 3 4 5 6 
#
# 1 0.010782 -0.005808 -0.003929 0.000000 0.000000 0.000000
# 2 -0.005808 0.023761 -0.009340 0.000000 0.000000 0.000000
# 3 -0.003929 -0.009340 0.019452 0.000000 0.000000 0.000000
# 4 0.000000 0.000000 0.000000 0.034001 0.000000 0.000000
# 5 0.000000 0.000000 0.000000 0.000000 -0.119788 0.000000
# 6 0.000000 0.000000 0.000000 0.000000 0.000000 0.041901
#
#
# Mechanical properties :
#
#
# Convention : Reuss Voigt Hill
#
# Bulk Modulus (GPa) = 63.12695 69.97204 66.54950
# Shear Modulus (GPa) = 93.38268 18.52003 55.95136
#
# Velocity S-wave (km/s) = 7.25315 3.23009 5.61434
# Velocity P-wave (km/s) = 10.28141 7.30279 8.91735
#
# Compressibility (1/GPa) = 0.01584109
#
# Stress axis : x y z
#
# Youngs Moduli (GPa) = 92.74996 42.08530 51.40746
#
# Poissons Ratio (x) = 0.24445 0.20196
# Poissons Ratio (y) = 0.53872 0.48016
# Poissons Ratio (z) = 0.36437 0.39309
#
# Static dielectric constant tensor:
#      x y z
#    x 3.285680 0.000000 0.000000 
#    y 0.000000 3.354910 0.000000 
#    z 0.000000 0.000000 3.301080 
# 
# 
# High freq. dielectric constant tensor:
#      x y z
#    x 1.691710 0.000000 0.000000 
#    y 0.000000 1.690770 0.000000 
#    z 0.000000 0.000000 1.685020 
# 
# From -- ./inp_files/12908.got.cif
#   From: 2010.06.25/outbox.cif.g09.slc.cpg/sg71_7_cif.got.tgz:12908.got - 2010.06.28 04:59:45.
