data_PCOD8290120
_publ_section_title
;
Structure prediction by ZEFSAII (Michael W. Deem and Ramdas Pophale) SiO2 
 PCOD8290120
Probable space group: I M M M
;
_chemical_formula_sum "Si O2"
_cell_formula_units_Z 120
_cell_length_a 29.275776
_cell_length_b 9.105710
_cell_length_c 24.435187
_cell_angle_alpha 90.000000
_cell_angle_beta 90.000000
_cell_angle_gamma 90.000000
_cell_volume 6513.852157
_symmetry_space_group_name_H-M "I M M M"
_symmetry_group_IT_number 71
_symmetry_cell_setting 'orthorhombic'
loop_
_space_group_symop_operation_xyz
x,y,z
-x,-y,z
x,-y,-z
-x,y,-z
-x,-y,-z
x,y,-z
-x,y,z
x,-y,z
1/2+x,1/2+y,1/2+z
1/2-x,1/2-y,1/2+z
1/2+x,1/2-y,1/2-z
1/2-x,1/2+y,1/2-z
1/2-x,1/2-y,1/2-z
1/2+x,1/2+y,1/2-z
1/2-x,1/2+y,1/2+z
1/2+x,1/2-y,1/2+z
loop_
_atom_site_type_symbol
_atom_site_label
_atom_site_fract_x
_atom_site_fract_y
_atom_site_fract_z
Si Si1 0.157718 0.170286 0.561572
Si Si2 0.127221 0.171601 0.823581
Si Si3 0.915134 0.325743 0.368428
Si Si4 0.947673 0.829063 0.738293
Si Si5 0.716525 0.832058 0.709448
Si Si6 0.651643 0.672785 0.441173
Si Si7 0.000000 0.674425 0.438997
Si Si8 0.759373 0.334146 0.086097
O O1 0.139585 0.200309 0.500000
O O2 0.131544 0.268931 0.605483
O O3 0.210431 0.216938 0.564151
O O4 0.151650 0.000000 0.577657
O O5 0.078520 0.202725 0.795264
O O6 0.166745 0.257223 0.791269
O O7 0.124033 0.227836 0.887174
O O8 0.139699 0.000000 0.821140
O O9 0.913939 0.500000 0.364272
O O10 0.922111 0.261795 0.308289
O O11 0.955842 0.267885 0.407028
O O12 0.000000 0.776469 0.745158
O O13 0.945378 0.000000 0.722761
O O14 0.750000 0.750000 0.750000
O O15 0.740661 0.821236 0.651187
O O16 0.710058 0.000000 0.728389
O O17 0.629082 0.721022 0.500000
O O18 0.654652 0.500000 0.438664
O O19 0.703038 0.731159 0.440670
O O20 0.000000 0.500000 0.441648
O O21 0.000000 0.741721 0.500000
O O22 0.769887 0.500000 0.067354
#
# Coordination Sequence:
#
# PCOD8290120 Si02
#       8
#    16  16  16  16  16  16   8  16
#     4  10  21  36  52  73 103 138 176 215 257 307
#     4   9  19  35  54  77 106 140 175 215 265 316
#     4  11  22  36  54  76 102 132 170 218 269 318
#     4  10  21  38  59  79 103 136 176 220 267 325
#     4  10  20  33  50  75 107 141 178 217 260 309
#     4   9  17  31  53  80 108 137 172 213 255 304
#     4   9  18  34  53  71  95 125 158 205 266 322
#     4   9  19  34  51  72 102 141 178 212 252 301
#
# _framework density 18.422277999999999
#
# number of rings (size 3 to 8) (size 9 to 14) (size 15 to 20)
#    0.000    2.333    0.667    1.600    1.867    3.200 
#    0.000    0.000    0.000    2.000    0.000    2.800 
#    0.000    0.000    0.000    7.867    0.000    8.267 
#
# Total GULP energy -743887.463997 kJ/mol
# GULP energy per Si atom -12398.124400 kJ/mol
# Density = 1.838035 g / cm^3
# Si number density = 18.422278 Si / 1000 Ang^3
#
#
#
# Elastic Constant Matrix: (Units=GPa)
#
#
# Indices 1 2 3 4 5 6 
#
# 1 72.8632 23.7973 55.7364 0.0000 0.0000 0.0000
# 2 23.7973 44.0070 37.5843 0.0000 0.0000 0.0000
# 3 55.7364 37.5843 127.9701 0.0000 0.0000 0.0000
# 4 0.0000 0.0000 0.0000 19.9403 0.0000 0.0000
# 5 0.0000 0.0000 0.0000 0.0000 27.0426 0.0000
# 6 0.0000 0.0000 0.0000 0.0000 0.0000 22.8497
#
#
#
# Elastic Compliance Matrix: (Units=1/GPa)
#
#
# Indices 1 2 3 4 5 6 
#
# 1 0.021316 -0.004802 -0.007873 0.000000 0.000000 0.000000
# 2 -0.004802 0.031414 -0.007134 0.000000 0.000000 0.000000
# 3 -0.007873 -0.007134 0.013339 0.000000 0.000000 0.000000
# 4 0.000000 0.000000 0.000000 0.050150 0.000000 0.000000
# 5 0.000000 0.000000 0.000000 0.000000 0.036979 0.000000
# 6 0.000000 0.000000 0.000000 0.000000 0.000000 0.043764
#
#
# Mechanical properties :
#
#
# Convention : Reuss Voigt Hill
#
# Bulk Modulus (GPa) = 37.81034 53.23072 45.52053
# Shear Modulus (GPa) = 20.37513 22.48134 21.42824
#
# Velocity S-wave (km/s) = 3.32927 3.49712 3.41423
# Velocity P-wave (km/s) = 5.94538 6.72785 6.34868
#
# Compressibility (1/GPa) = 0.02644779
#
# Stress axis : x y z
#
# Youngs Moduli (GPa) = 46.91417 31.83313 74.96880
#
# Poissons Ratio (x) = 0.15287 0.59026
# Poissons Ratio (y) = 0.22530 0.53486
# Poissons Ratio (z) = 0.36937 0.22711
#
# Static dielectric constant tensor:
#      x y z
#    x 3.291780 0.000000 0.000000 
#    y 0.000000 3.324490 0.000000 
#    z 0.000000 0.000000 3.782460 
# 
# 
# High freq. dielectric constant tensor:
#      x y z
#    x 1.695560 0.000000 0.000000 
#    y 0.000000 1.705500 0.000000 
#    z 0.000000 0.000000 1.727940 
# 
# From -- ./inp_files/67204.got.cif
#   From: 2010.06.25/outbox.cif.g09.slc.cpg/sg71_34_cif.got.tgz:67204.got - 2010.06.28 04:59:45.
