data_PCOD8290296
_publ_section_title
;
Structure prediction by ZEFSAII (Michael W. Deem and Ramdas Pophale) SiO2 
 PCOD8290296
Probable space group: I M M M
;
_chemical_formula_sum "Si O2"
_cell_formula_units_Z 96
_cell_length_a 26.775468
_cell_length_b 14.713393
_cell_length_c 12.788593
_cell_angle_alpha 90.000000
_cell_angle_beta 90.000000
_cell_angle_gamma 90.000000
_cell_volume 5038.168309
_symmetry_space_group_name_H-M "I M M M"
_symmetry_group_IT_number 71
_symmetry_cell_setting 'orthorhombic'
loop_
_space_group_symop_operation_xyz
x,y,z
-x,-y,z
x,-y,-z
-x,y,-z
-x,-y,-z
x,y,-z
-x,y,z
x,-y,z
1/2+x,1/2+y,1/2+z
1/2-x,1/2-y,1/2+z
1/2+x,1/2-y,1/2-z
1/2-x,1/2+y,1/2-z
1/2-x,1/2-y,1/2-z
1/2+x,1/2+y,1/2-z
1/2-x,1/2+y,1/2+z
1/2+x,1/2-y,1/2+z
loop_
_atom_site_type_symbol
_atom_site_label
_atom_site_fract_x
_atom_site_fract_y
_atom_site_fract_z
Si Si1 0.851883 0.273805 0.387591
Si Si2 0.192916 0.896550 0.702905
Si Si3 0.559657 0.266768 0.500000
Si Si4 0.401598 0.599806 0.323941
Si Si5 0.637212 0.106009 0.500000
Si Si6 0.192513 0.395956 0.787300
Si Si7 0.943767 0.165719 0.383863
O O1 0.837810 0.317198 0.500000
O O2 0.825832 0.174473 0.383311
O O3 0.838133 0.338980 0.294911
O O4 0.911237 0.257852 0.379061
O O5 0.158184 0.885036 0.807060
O O6 0.249714 0.871189 0.728921
O O7 0.189653 0.000000 0.659358
O O8 0.500000 0.250299 0.500000
O O9 0.575441 0.323148 0.397487
O O10 0.587926 0.169689 0.500000
O O11 0.411148 0.500000 0.373647
O O12 0.426598 0.598514 0.208658
O O13 0.672618 0.128700 0.597976
O O14 0.620072 0.000000 0.500000
O O15 0.182370 0.500000 0.761442
O O16 0.938195 0.119936 0.500000
O O17 0.000000 0.196461 0.363132
#
# Coordination Sequence:
#
# PCOD8290296 Si02
#       7
#    16  16   8  16   8  16  16
#     4  10  20  33  53  82 112 144 180 221 271 330
#     4   9  19  36  55  78 111 146 182 224 268 320
#     4  12  25  39  58  83 115 152 189 236 288 336
#     4  10  21  37  55  81 116 152 187 222 267 333
#     4  10  22  40  63  84 106 143 194 247 288 334
#     4  10  21  38  58  82 110 144 184 230 283 332
#     4   9  18  33  53  77 107 144 186 229 271 313
#
# _framework density 19.054545000000001
#
# number of rings (size 3 to 8) (size 9 to 14) (size 15 to 20)
#    0.000    2.167    0.000    3.250    1.167    2.833 
#    1.500    4.167    0.000    1.500    0.000    2.333 
#    0.000    0.000    0.000    0.000    0.000    0.167 
#
# Total GULP energy -594842.616177 kJ/mol
# GULP energy per Si atom -12392.554504 kJ/mol
# Density = 1.901118 g / cm^3
# Si number density = 19.054545 Si / 1000 Ang^3
#
#
#
# Elastic Constant Matrix: (Units=GPa)
#
#
# Indices 1 2 3 4 5 6 
#
# 1 130.8874 53.3245 40.9410 0.0000 0.0000 0.0000
# 2 53.3245 82.9695 51.2024 0.0000 0.0000 0.0000
# 3 40.9410 51.2024 113.8988 0.0000 0.0000 0.0000
# 4 0.0000 0.0000 0.0000 -6.7863 0.0000 0.0000
# 5 0.0000 0.0000 0.0000 0.0000 22.1366 0.0000
# 6 0.0000 0.0000 0.0000 0.0000 0.0000 20.0014
#
#
#
# Elastic Compliance Matrix: (Units=1/GPa)
#
#
# Indices 1 2 3 4 5 6 
#
# 1 0.010435 -0.006078 -0.001019 0.000000 0.000000 0.000000
# 2 -0.006078 0.020220 -0.006905 0.000000 0.000000 0.000000
# 3 -0.001019 -0.006905 0.012250 0.000000 0.000000 0.000000
# 4 0.000000 0.000000 0.000000 -0.147355 0.000000 0.000000
# 5 0.000000 0.000000 0.000000 0.000000 0.045174 0.000000
# 6 0.000000 0.000000 0.000000 0.000000 0.000000 0.049997
#
#
# Mechanical properties :
#
#
# Convention : Reuss Voigt Hill
#
# Bulk Modulus (GPa) = 67.10555 68.74348 67.92452
# Shear Modulus (GPa) = 211.04221 19.22284 115.13252
#
# Velocity S-wave (km/s) = 10.53553 3.17966 7.78163
# Velocity P-wave (km/s) = 13.53848 7.04527 10.79181
#
# Compressibility (1/GPa) = 0.01490190
#
# Stress axis : x y z
#
# Youngs Moduli (GPa) = 95.83164 49.45531 81.63268
#
# Poissons Ratio (x) = 0.30059 0.08315
# Poissons Ratio (y) = 0.58246 0.56369
# Poissons Ratio (z) = 0.09761 0.34150
#
# Static dielectric constant tensor:
#      x y z
#    x 3.742980 0.000000 0.000000 
#    y 0.000000 3.362570 0.000000 
#    z 0.000000 0.000000 3.474710 
# 
# 
# High freq. dielectric constant tensor:
#      x y z
#    x 1.748710 0.000000 0.000000 
#    y 0.000000 1.723930 0.000000 
#    z 0.000000 0.000000 1.739870 
# 
# From -- ./inp_files/29991.got.cif
#   From: 2010.06.25/outbox.cif.g09.slc.cpg/sg71_15_cif.got.tgz:29991.got - 2010.06.28 04:59:45.
