data_PCOD8290173
_publ_section_title
;
Structure prediction by ZEFSAII (Michael W. Deem and Ramdas Pophale) SiO2 
 PCOD8290173
Probable space group: I M M M
;
_chemical_formula_sum "Si O2"
_cell_formula_units_Z 96
_cell_length_a 18.718058
_cell_length_b 31.317767
_cell_length_c 9.023724
_cell_angle_alpha 90.000000
_cell_angle_beta 90.000000
_cell_angle_gamma 90.000000
_cell_volume 5289.777206
_symmetry_space_group_name_H-M "I M M M"
_symmetry_group_IT_number 71
_symmetry_cell_setting 'orthorhombic'
loop_
_space_group_symop_operation_xyz
x,y,z
-x,-y,z
x,-y,-z
-x,y,-z
-x,-y,-z
x,y,-z
-x,y,z
x,-y,z
1/2+x,1/2+y,1/2+z
1/2-x,1/2-y,1/2+z
1/2+x,1/2-y,1/2-z
1/2-x,1/2+y,1/2-z
1/2-x,1/2-y,1/2-z
1/2+x,1/2+y,1/2-z
1/2-x,1/2+y,1/2+z
1/2+x,1/2-y,1/2+z
loop_
_atom_site_type_symbol
_atom_site_label
_atom_site_fract_x
_atom_site_fract_y
_atom_site_fract_z
Si Si1 0.418131 0.708417 0.672476
Si Si2 0.835097 0.136761 0.333466
Si Si3 0.582411 0.205298 0.173818
Si Si4 0.834382 0.630422 0.169989
Si Si5 0.818909 0.045558 0.667937
Si Si6 0.826634 0.546917 0.672110
O O1 0.408177 0.717236 0.500000
O O2 0.500000 0.698340 0.713891
O O3 0.370673 0.668103 0.716952
O O4 0.390555 0.750091 0.758203
O O5 0.853575 0.152144 0.500000
O O6 0.750290 0.135081 0.308455
O O7 0.865959 0.088377 0.305084
O O8 0.500000 0.197508 0.215746
O O9 0.628808 0.167646 0.239396
O O10 0.594814 0.207396 0.000000
O O11 0.862743 0.584879 0.233060
O O12 0.857559 0.633904 0.000000
O O13 0.786615 0.049610 0.500000
O O14 0.756342 0.044402 0.787065
O O15 0.861788 0.000000 0.681465
O O16 0.834202 0.558535 0.500000
O O17 0.861557 0.500000 0.704850
#
# Coordination Sequence:
#
# PCOD8290173 Si02
#       6
#    16  16  16  16  16  16
#     4  10  21  36  53  72  95 127 166 204 245 295
#     4   9  18  31  49  75 102 129 163 202 245 288
#     4  10  21  37  56  75  96 126 163 201 244 295
#     4  10  20  33  51  76 104 132 163 201 244 289
#     4   8  14  26  44  67  97 130 163 200 241 287
#     4   9  16  26  43  69 100 132 165 200 239 284
#
# _framework density 18.148212999999998
#
# number of rings (size 3 to 8) (size 9 to 14) (size 15 to 20)
#    0.000    2.667    0.000    3.000    0.000    7.000 
#    0.000    0.000    0.000    1.000    0.000    7.000 
#    0.000    0.000    0.000    0.000    0.000    0.000 
#
# Total GULP energy -594823.148657 kJ/mol
# GULP energy per Si atom -12392.148930 kJ/mol
# Density = 1.810691 g / cm^3
# Si number density = 18.148213 Si / 1000 Ang^3
#
#
#
# Elastic Constant Matrix: (Units=GPa)
#
#
# Indices 1 2 3 4 5 6 
#
# 1 28.0532 39.3468 22.7118 -0.0011 0.0012 -0.0010
# 2 39.3468 171.5255 56.6257 -0.0007 -0.0006 0.0003
# 3 22.7118 56.6257 77.8116 -0.0098 -0.0037 0.0034
# 4 -0.0011 -0.0007 -0.0098 35.0285 -0.0013 0.0011
# 5 0.0012 -0.0006 -0.0037 -0.0013 21.8326 -0.0023
# 6 -0.0010 0.0003 0.0034 0.0011 -0.0023 -15.2967
#
#
#
# Elastic Compliance Matrix: (Units=1/GPa)
#
#
# Indices 1 2 3 4 5 6 
#
# 1 0.057378 -0.010047 -0.009436 -0.000001 -0.000005 -0.000006
# 2 -0.010047 0.009433 -0.003932 -0.000001 0.000000 0.000000
# 3 -0.009436 -0.003932 0.018467 0.000005 0.000004 0.000005
# 4 -0.000001 -0.000001 0.000005 0.028548 0.000002 0.000002
# 5 -0.000005 0.000000 0.000004 0.000002 0.045803 -0.000007
# 6 -0.000006 0.000000 0.000005 0.000002 -0.000007 -0.065374
#
#
# Mechanical properties :
#
#
# Convention : Reuss Voigt Hill
#
# Bulk Modulus (GPa) = 26.00938 57.19545 41.60241
# Shear Modulus (GPa) = 32.48840 18.89327 25.69084
#
# Velocity S-wave (km/s) = 4.23563 3.23004 3.76654
# Velocity P-wave (km/s) = 6.18737 6.74500 6.47219
#
# Compressibility (1/GPa) = 0.03844767
#
# Stress axis : x y z
#
# Youngs Moduli (GPa) = 17.42840 106.01292 54.15008
#
# Poissons Ratio (x) = 1.06510 0.51096
# Poissons Ratio (y) = 0.17510 0.21292
# Poissons Ratio (z) = 0.16445 0.41684
#
# Static dielectric constant tensor:
#      x y z
#    x 2.850370 0.000000 0.000000 
#    y 0.000000 3.844210 -0.000010 
#    z 0.000000 -0.000010 3.410100 
# 
# 
# High freq. dielectric constant tensor:
#      x y z
#    x 1.639390 0.000000 0.000000 
#    y 0.000000 1.731910 0.000000 
#    z 0.000000 0.000000 1.714430 
# 
# From -- ./inp_files/10814.got.cif
#   From: 2010.06.25/outbox.cif.g09.slc.cpg/sg71_6_cif.got.tgz:10814.got - 2010.06.28 04:59:45.
