data_PCOD8290978
_publ_section_title
;
Structure prediction by ZEFSAII (Michael W. Deem and Ramdas Pophale) SiO2 
 PCOD8290978
Probable space group: I M M M
;
_chemical_formula_sum "Si O2"
_cell_formula_units_Z 64
_cell_length_a 22.514857
_cell_length_b 8.724531
_cell_length_c 16.843631
_cell_angle_alpha 90.000000
_cell_angle_beta 90.000000
_cell_angle_gamma 90.000000
_cell_volume 3308.620846
_symmetry_space_group_name_H-M "I M M M"
_symmetry_group_IT_number 71
_symmetry_cell_setting 'orthorhombic'
loop_
_space_group_symop_operation_xyz
x,y,z
-x,-y,z
x,-y,-z
-x,y,-z
-x,-y,-z
x,y,-z
-x,y,z
x,-y,z
1/2+x,1/2+y,1/2+z
1/2-x,1/2-y,1/2+z
1/2+x,1/2-y,1/2-z
1/2-x,1/2+y,1/2-z
1/2-x,1/2-y,1/2-z
1/2+x,1/2+y,1/2-z
1/2-x,1/2+y,1/2+z
1/2+x,1/2-y,1/2+z
loop_
_atom_site_type_symbol
_atom_site_label
_atom_site_fract_x
_atom_site_fract_y
_atom_site_fract_z
Si Si1 0.614766 0.318331 0.324213
Si Si2 0.566751 0.683425 0.000000
Si Si3 0.862048 0.821788 0.646776
Si Si4 0.267110 0.177983 0.667010
Si Si5 0.500000 0.181296 0.408278
O O1 0.609407 0.500000 0.328842
O O2 0.621015 0.254150 0.233651
O O3 0.675328 0.264302 0.369590
O O4 0.558057 0.245846 0.365650
O O5 0.597211 0.753068 0.921168
O O6 0.571954 0.500000 0.000000
O O7 0.500000 0.741908 0.000000
O O8 0.793707 0.797428 0.617425
O O9 0.876089 0.000000 0.654278
O O10 0.250000 0.250000 0.750000
O O11 0.282980 0.000000 0.675842
O O12 0.500000 0.233955 0.500000
O O13 0.500000 0.000000 0.400927
#
# Coordination Sequence:
#
# PCOD8290978 Si02
#       5
#    16   8  16  16   8
#     4  10  20  35  58  83 109 141 181 227 281 338
#     4   9  16  26  44  74 114 147 180 221 258 300
#     4   8  16  29  48  79 112 146 183 223 265 312
#     4   9  16  30  51  78 111 144 187 233 275 323
#     4  11  25  43  59  80 107 138 180 227 281 345
#
# _framework density 19.343406999999999
#
# number of rings (size 3 to 8) (size 9 to 14) (size 15 to 20)
#    0.000    2.750    0.000    3.375    1.750    1.000 
#    2.250    0.000    0.000    0.000    0.000   18.375 
#    0.000    0.000    0.000    0.000    0.000    0.000 
#
# Total GULP energy -396460.614436 kJ/mol
# GULP energy per Si atom -12389.394201 kJ/mol
# Density = 1.929938 g / cm^3
# Si number density = 19.343407 Si / 1000 Ang^3
#
#
#
# Elastic Constant Matrix: (Units=GPa)
#
#
# Indices 1 2 3 4 5 6 
#
# 1 201.2169 48.9306 80.4104 0.0000 0.0000 0.0000
# 2 48.9306 55.6630 28.3556 0.0000 0.0000 0.0000
# 3 80.4104 28.3556 100.0002 0.0000 0.0000 0.0000
# 4 0.0000 0.0000 0.0000 16.1861 0.0000 0.0000
# 5 0.0000 0.0000 0.0000 0.0000 27.3220 0.0000
# 6 0.0000 0.0000 0.0000 0.0000 0.0000 33.3236
#
#
#
# Elastic Compliance Matrix: (Units=1/GPa)
#
#
# Indices 1 2 3 4 5 6 
#
# 1 0.008182 -0.004489 -0.005306 0.000000 0.000000 0.000000
# 2 -0.004489 0.023462 -0.003043 0.000000 0.000000 0.000000
# 3 -0.005306 -0.003043 0.015129 0.000000 0.000000 0.000000
# 4 0.000000 0.000000 0.000000 0.061781 0.000000 0.000000
# 5 0.000000 0.000000 0.000000 0.000000 0.036601 0.000000
# 6 0.000000 0.000000 0.000000 0.000000 0.000000 0.030009
#
#
# Mechanical properties :
#
#
# Convention : Reuss Voigt Hill
#
# Bulk Modulus (GPa) = 47.40119 74.69702 61.04910
# Shear Modulus (GPa) = 24.05325 28.64525 26.34925
#
# Velocity S-wave (km/s) = 3.53013 3.85239 3.69478
# Velocity P-wave (km/s) = 6.41670 7.64775 7.05911
#
# Compressibility (1/GPa) = 0.02109652
#
# Stress axis : x y z
#
# Youngs Moduli (GPa) = 122.22173 42.62281 66.09637
#
# Poissons Ratio (x) = 0.19134 0.35071
# Poissons Ratio (y) = 0.54868 0.20112
# Poissons Ratio (z) = 0.64852 0.12969
#
# Static dielectric constant tensor:
#      x y z
#    x 4.181930 0.000000 0.000000 
#    y 0.000000 3.343940 0.000000 
#    z 0.000000 0.000000 3.605680 
# 
# 
# High freq. dielectric constant tensor:
#      x y z
#    x 1.775920 0.000000 0.000000 
#    y 0.000000 1.724700 0.000000 
#    z 0.000000 0.000000 1.727070 
# 
# From -- ./inp_files/46814.got.cif
#   From: 2010.06.25/outbox.cif.g09.slc.cpg/sg71_24_cif.got.tgz:46814.got - 2010.06.28 04:59:45.
