data_PCOD8290788
_publ_section_title
;
Structure prediction by ZEFSAII (Michael W. Deem and Ramdas Pophale) SiO2 
 PCOD8290788
Probable space group: I M M M
;
_chemical_formula_sum "Si O2"
_cell_formula_units_Z 80
_cell_length_a 10.641285
_cell_length_b 17.642783
_cell_length_c 23.212074
_cell_angle_alpha 90.000000
_cell_angle_beta 90.000000
_cell_angle_gamma 90.000000
_cell_volume 4357.878460
_symmetry_space_group_name_H-M "I M M M"
_symmetry_group_IT_number 71
_symmetry_cell_setting 'orthorhombic'
loop_
_space_group_symop_operation_xyz
x,y,z
-x,-y,z
x,-y,-z
-x,y,-z
-x,-y,-z
x,y,-z
-x,y,z
x,-y,z
1/2+x,1/2+y,1/2+z
1/2-x,1/2-y,1/2+z
1/2+x,1/2-y,1/2-z
1/2-x,1/2+y,1/2-z
1/2-x,1/2-y,1/2-z
1/2+x,1/2+y,1/2-z
1/2-x,1/2+y,1/2+z
1/2+x,1/2-y,1/2+z
loop_
_atom_site_type_symbol
_atom_site_label
_atom_site_fract_x
_atom_site_fract_y
_atom_site_fract_z
Si Si1 0.000000 0.089587 0.063245
Si Si2 0.854647 0.697899 0.564237
Si Si3 0.149428 0.000000 0.434497
Si Si4 0.273473 0.410187 0.357975
Si Si5 0.852984 0.816124 0.749860
Si Si6 0.355429 0.349319 0.880234
O O1 0.119864 0.116847 0.097993
O O2 0.000000 0.000000 0.058522
O O3 0.000000 0.126909 0.000000
O O4 0.797570 0.680591 0.500000
O O5 0.844628 0.629499 0.611026
O O6 0.791754 0.773769 0.592230
O O7 0.000000 0.712727 0.556313
O O8 0.208979 0.924928 0.405516
O O9 0.191395 0.000000 0.500000
O O10 0.000000 0.000000 0.426422
O O11 0.253141 0.500000 0.353560
O O12 0.309195 0.379245 0.295381
O O13 0.750000 0.750000 0.750000
O O14 0.841719 0.854561 0.688111
O O15 0.000000 0.790022 0.760611
O O16 0.500000 0.348344 0.898758
#
# Coordination Sequence:
#
# PCOD8290788 Si02
#       6
#     8  16   8  16  16  16
#     4   9  18  34  52  74 106 139 175 225 276 322
#     4  10  20  35  54  78 112 151 190 231 284 347
#     4   9  16  28  48  78 111 139 177 234 295 345
#     4  11  22  35  54  82 110 145 186 233 282 334
#     4  11  22  38  59  81 112 148 192 237 286 342
#     4   9  18  31  50  77 107 145 183 232 289 341
#
# _framework density 18.357557
#
# number of rings (size 3 to 8) (size 9 to 14) (size 15 to 20)
#    0.000    2.000    3.000    1.200    1.400    4.000 
#    0.000    1.000    0.000    0.000    0.000    0.000 
#    0.000    0.800    0.000    0.000    0.000    0.000 
#
# Total GULP energy -495585.109929 kJ/mol
# GULP energy per Si atom -12389.627748 kJ/mol
# Density = 1.831577 g / cm^3
# Si number density = 18.357557 Si / 1000 Ang^3
#
#
#
# Elastic Constant Matrix: (Units=GPa)
#
#
# Indices 1 2 3 4 5 6 
#
# 1 36.4123 31.2403 29.0682 0.0000 0.0000 0.0000
# 2 31.2403 148.1534 73.2969 0.0000 0.0000 0.0000
# 3 29.0682 73.2969 145.9230 0.0000 0.0000 0.0000
# 4 0.0000 0.0000 0.0000 37.6533 0.0000 0.0000
# 5 0.0000 0.0000 0.0000 0.0000 27.2093 0.0000
# 6 0.0000 0.0000 0.0000 0.0000 0.0000 16.5453
#
#
#
# Elastic Compliance Matrix: (Units=1/GPa)
#
#
# Indices 1 2 3 4 5 6 
#
# 1 0.035543 -0.005312 -0.004412 0.000000 0.000000 0.000000
# 2 -0.005312 0.009776 -0.003852 0.000000 0.000000 0.000000
# 3 -0.004412 -0.003852 0.009667 0.000000 0.000000 0.000000
# 4 0.000000 0.000000 0.000000 0.026558 0.000000 0.000000
# 5 0.000000 0.000000 0.000000 0.000000 0.036752 0.000000
# 6 0.000000 0.000000 0.000000 0.000000 0.000000 0.060440
#
#
# Mechanical properties :
#
#
# Convention : Reuss Voigt Hill
#
# Bulk Modulus (GPa) = 35.92853 66.41107 51.16980
# Shear Modulus (GPa) = 23.23794 29.40714 26.32254
#
# Velocity S-wave (km/s) = 3.56174 4.00673 3.79077
# Velocity P-wave (km/s) = 6.04390 7.59343 6.86254
#
# Compressibility (1/GPa) = 0.02783303
#
# Stress axis : x y z
#
# Youngs Moduli (GPa) = 28.13502 102.29496 103.44737
#
# Poissons Ratio (x) = 0.54338 0.45642
# Poissons Ratio (y) = 0.14945 0.39849
# Poissons Ratio (z) = 0.12413 0.39406
#
# Static dielectric constant tensor:
#      x y z
#    x 3.159360 0.000000 0.000000 
#    y 0.000000 3.445840 0.000000 
#    z 0.000000 0.000000 3.724160 
# 
# 
# High freq. dielectric constant tensor:
#      x y z
#    x 1.664750 0.000000 0.000000 
#    y 0.000000 1.710510 0.000000 
#    z 0.000000 0.000000 1.736240 
# 
# From -- ./inp_files/25567.got.cif
#   From: 2010.06.25/outbox.cif.g09.slc.cpg/sg71_13_cif.got.tgz:25567.got - 2010.06.28 04:59:45.
