data_PCOD8290786
_publ_section_title
;
Structure prediction by ZEFSAII (Michael W. Deem and Ramdas Pophale) SiO2 
 PCOD8290786
Probable space group: I M M M
;
_chemical_formula_sum "Si O2"
_cell_formula_units_Z 72
_cell_length_a 29.699768
_cell_length_b 14.500556
_cell_length_c 8.889591
_cell_angle_alpha 90.000000
_cell_angle_beta 90.000000
_cell_angle_gamma 90.000000
_cell_volume 3828.419254
_symmetry_space_group_name_H-M "I M M M"
_symmetry_group_IT_number 71
_symmetry_cell_setting 'orthorhombic'
loop_
_space_group_symop_operation_xyz
x,y,z
-x,-y,z
x,-y,-z
-x,y,-z
-x,-y,-z
x,y,-z
-x,y,z
x,-y,z
1/2+x,1/2+y,1/2+z
1/2-x,1/2-y,1/2+z
1/2+x,1/2-y,1/2-z
1/2-x,1/2+y,1/2-z
1/2-x,1/2-y,1/2-z
1/2+x,1/2+y,1/2-z
1/2-x,1/2+y,1/2+z
1/2+x,1/2-y,1/2+z
loop_
_atom_site_type_symbol
_atom_site_label
_atom_site_fract_x
_atom_site_fract_y
_atom_site_fract_z
Si Si1 0.709455 0.195936 0.322688
Si Si2 0.946637 0.699578 0.673902
Si Si3 0.159303 0.000000 0.321293
Si Si4 0.738429 0.000000 0.321890
Si Si5 0.549248 0.000000 0.822124
Si Si6 0.125405 0.183927 0.823301
O O1 0.715933 0.200761 0.500000
O O2 0.750000 0.250000 0.250000
O O3 0.711510 0.090099 0.264738
O O4 0.662675 0.241335 0.272347
O O5 0.935034 0.718685 0.500000
O O6 0.927548 0.597341 0.723977
O O7 0.922970 0.776227 0.776065
O O8 0.000000 0.705293 0.700957
O O9 0.133336 0.088923 0.261819
O O10 0.158050 0.000000 0.500000
O O11 0.210481 0.000000 0.258482
O O12 0.741332 0.000000 0.500000
O O13 0.500000 0.000000 0.747027
O O14 0.543207 0.000000 0.000000
O O15 0.126529 0.165097 0.000000
#
# Coordination Sequence:
#
# PCOD8290786 Si02
#       6
#    16  16   8   8   8  16
#     4  10  20  35  54  78 108 142 181 223 269 321
#     4   9  18  35  59  84 112 149 192 232 272 328
#     4  11  21  37  61  79 102 148 196 232 272 336
#     4   9  18  34  56  79 106 145 186 224 267 320
#     4   7  12  27  53  81 107 138 178 225 268 309
#     4  11  23  36  55  84 117 146 180 233 289 338
#
# _framework density 18.806716999999999
#
# number of rings (size 3 to 8) (size 9 to 14) (size 15 to 20)
#    0.000    2.333    2.222    2.333    0.000    2.222 
#    0.000    2.778    0.000    5.333    0.000    0.000 
#    0.000    0.000    0.000    0.000    0.000    0.000 
#
# Total GULP energy -446210.719882 kJ/mol
# GULP energy per Si atom -12394.742219 kJ/mol
# Density = 1.876391 g / cm^3
# Si number density = 18.806717 Si / 1000 Ang^3
#
#
#
# Elastic Constant Matrix: (Units=GPa)
#
#
# Indices 1 2 3 4 5 6 
#
# 1 74.5001 57.6198 29.8592 0.0000 0.0000 0.0000
# 2 57.6198 175.4237 41.8606 0.0000 0.0000 0.0000
# 3 29.8592 41.8606 48.8758 0.0000 0.0000 0.0000
# 4 0.0000 0.0000 0.0000 20.0855 0.0000 0.0000
# 5 0.0000 0.0000 0.0000 0.0000 25.6233 0.0000
# 6 0.0000 0.0000 0.0000 0.0000 0.0000 26.8687
#
#
#
# Elastic Compliance Matrix: (Units=1/GPa)
#
#
# Indices 1 2 3 4 5 6 
#
# 1 0.020450 -0.004695 -0.008472 0.000000 0.000000 0.000000
# 2 -0.004695 0.008243 -0.004191 0.000000 0.000000 0.000000
# 3 -0.008472 -0.004191 0.029225 0.000000 0.000000 0.000000
# 4 0.000000 0.000000 0.000000 0.049787 0.000000 0.000000
# 5 0.000000 0.000000 0.000000 0.000000 0.039027 0.000000
# 6 0.000000 0.000000 0.000000 0.000000 0.000000 0.037218
#
#
# Mechanical properties :
#
#
# Convention : Reuss Voigt Hill
#
# Bulk Modulus (GPa) = 43.10132 61.94209 52.52171
# Shear Modulus (GPa) = 22.08477 25.81283 23.94880
#
# Velocity S-wave (km/s) = 3.43053 3.70879 3.57237
# Velocity P-wave (km/s) = 6.21765 7.16574 6.70846
#
# Compressibility (1/GPa) = 0.02320114
#
# Stress axis : x y z
#
# Youngs Moduli (GPa) = 48.90053 121.31705 34.21695
#
# Poissons Ratio (x) = 0.56962 0.28988
# Poissons Ratio (y) = 0.22960 0.14341
# Poissons Ratio (z) = 0.41427 0.50847
#
# Static dielectric constant tensor:
#      x y z
#    x 3.149230 0.000000 0.000000 
#    y 0.000000 3.803480 0.000000 
#    z 0.000000 0.000000 3.216040 
# 
# 
# High freq. dielectric constant tensor:
#      x y z
#    x 1.713550 0.000000 0.000000 
#    y 0.000000 1.747060 0.000000 
#    z 0.000000 0.000000 1.707900 
# 
# From -- ./inp_files/6226.got.cif
#   From: 2010.06.25/outbox.cif.g09.slc.cpg/sg71_4_cif.got.tgz:6226.got - 2010.06.28 04:59:45.
