data_PCOD8290272
_publ_section_title
;
Structure prediction by ZEFSAII (Michael W. Deem and Ramdas Pophale) SiO2 
 PCOD8290272
Probable space group: I M M M
;
_chemical_formula_sum "Si O2"
_cell_formula_units_Z 96
_cell_length_a 27.489251
_cell_length_b 8.723585
_cell_length_c 20.358057
_cell_angle_alpha 90.000000
_cell_angle_beta 90.000000
_cell_angle_gamma 90.000000
_cell_volume 4881.960147
_symmetry_space_group_name_H-M "I M M M"
_symmetry_group_IT_number 71
_symmetry_cell_setting 'orthorhombic'
loop_
_space_group_symop_operation_xyz
x,y,z
-x,-y,z
x,-y,-z
-x,y,-z
-x,-y,-z
x,y,-z
-x,y,z
x,-y,z
1/2+x,1/2+y,1/2+z
1/2-x,1/2-y,1/2+z
1/2+x,1/2-y,1/2-z
1/2-x,1/2+y,1/2-z
1/2-x,1/2-y,1/2-z
1/2+x,1/2+y,1/2-z
1/2-x,1/2+y,1/2+z
1/2+x,1/2-y,1/2+z
loop_
_atom_site_type_symbol
_atom_site_label
_atom_site_fract_x
_atom_site_fract_y
_atom_site_fract_z
Si Si1 0.056153 0.821050 0.813685
Si Si2 0.235605 0.820565 0.924521
Si Si3 0.554251 0.181957 0.072413
Si Si4 0.374127 0.318170 0.427760
Si Si5 0.714464 0.680082 0.803462
Si Si6 0.111053 0.319141 0.697168
O O1 0.087528 0.756256 0.874808
O O2 0.070303 0.723327 0.750284
O O3 0.000000 0.792571 0.830430
O O4 0.066966 0.000000 0.800884
O O5 0.180525 0.766918 0.908681
O O6 0.272027 0.730659 0.877146
O O7 0.241926 0.000000 0.910758
O O8 0.248905 0.782404 0.000000
O O9 0.500000 0.247151 0.085984
O O10 0.591721 0.242716 0.126891
O O11 0.552001 0.000000 0.075933
O O12 0.572093 0.235080 0.000000
O O13 0.387635 0.252373 0.500000
O O14 0.375773 0.500000 0.430951
O O15 0.717415 0.500000 0.797466
O O16 0.750000 0.750000 0.750000
O O17 0.660502 0.733425 0.785533
O O18 0.120174 0.500000 0.696598
#
# Coordination Sequence:
#
# PCOD8290272 Si02
#       6
#    16  16  16  16  16  16
#     4  10  20  33  52  80 113 147 183 227 276 324
#     4   9  18  35  59  84 112 149 191 231 273 328
#     4   8  15  30  53  80 108 139 178 222 264 310
#     4   8  15  30  53  79 106 139 180 223 264 311
#     4  12  25  40  58  81 111 146 187 236 288 342
#     4  11  22  36  56  81 108 142 184 230 281 335
#
# _framework density 19.664232999999999
#
# number of rings (size 3 to 8) (size 9 to 14) (size 15 to 20)
#    0.000    2.333    0.000    5.000    0.000    3.667 
#    0.000    3.333    0.000    3.000    0.000    7.000 
#    0.000    0.000    0.000    0.000    0.000    0.000 
#
# Total GULP energy -595188.184848 kJ/mol
# GULP energy per Si atom -12399.753851 kJ/mol
# Density = 1.961948 g / cm^3
# Si number density = 19.664233 Si / 1000 Ang^3
#
#
#
# Elastic Constant Matrix: (Units=GPa)
#
#
# Indices 1 2 3 4 5 6 
#
# 1 74.0091 21.7026 29.3176 0.0000 0.0000 0.0000
# 2 21.7026 66.8472 27.7921 0.0000 0.0000 0.0000
# 3 29.3176 27.7921 100.0696 0.0000 0.0000 0.0000
# 4 0.0000 0.0000 0.0000 25.9911 0.0000 0.0000
# 5 0.0000 0.0000 0.0000 0.0000 41.7560 0.0000
# 6 0.0000 0.0000 0.0000 0.0000 0.0000 24.5728
#
#
#
# Elastic Compliance Matrix: (Units=1/GPa)
#
#
# Indices 1 2 3 4 5 6 
#
# 1 0.016049 -0.003681 -0.003680 0.000000 0.000000 0.000000
# 2 -0.003681 0.017756 -0.003853 0.000000 0.000000 0.000000
# 3 -0.003680 -0.003853 0.012141 0.000000 0.000000 0.000000
# 4 0.000000 0.000000 0.000000 0.038475 0.000000 0.000000
# 5 0.000000 0.000000 0.000000 0.000000 0.023949 0.000000
# 6 0.000000 0.000000 0.000000 0.000000 0.000000 0.040695
#
#
# Mechanical properties :
#
#
# Convention : Reuss Voigt Hill
#
# Bulk Modulus (GPa) = 42.51761 44.28339 43.40050
# Shear Modulus (GPa) = 27.88131 29.27157 28.57644
#
# Velocity S-wave (km/s) = 3.76955 3.86238 3.81625
# Velocity P-wave (km/s) = 6.37297 6.51608 6.44492
#
# Compressibility (1/GPa) = 0.02351967
#
# Stress axis : x y z
#
# Youngs Moduli (GPa) = 62.31003 56.31780 82.36416
#
# Poissons Ratio (x) = 0.20728 0.30307
# Poissons Ratio (y) = 0.22934 0.31736
# Poissons Ratio (z) = 0.22928 0.21700
#
# Static dielectric constant tensor:
#      x y z
#    x 3.660460 0.000000 0.000000 
#    y 0.000000 3.196540 0.000000 
#    z 0.000000 0.000000 4.017930 
# 
# 
# High freq. dielectric constant tensor:
#      x y z
#    x 1.768680 0.000000 0.000000 
#    y 0.000000 1.727370 0.000000 
#    z 0.000000 0.000000 1.782330 
# 
# From -- ./inp_files/14851.got.cif
#   From: 2010.06.25/outbox.cif.g09.slc.cpg/sg71_8_cif.got.tgz:14851.got - 2010.06.28 04:59:45.
