data_PCOD8290565
_publ_section_title
;
Structure prediction by ZEFSAII (Michael W. Deem and Ramdas Pophale) SiO2 
 PCOD8290565
Probable space group: I M M M
;
_chemical_formula_sum "Si O2"
_cell_formula_units_Z 88
_cell_length_a 9.988454
_cell_length_b 20.673647
_cell_length_c 21.676897
_cell_angle_alpha 90.000000
_cell_angle_beta 90.000000
_cell_angle_gamma 90.000000
_cell_volume 4476.230936
_symmetry_space_group_name_H-M "I M M M"
_symmetry_group_IT_number 71
_symmetry_cell_setting 'orthorhombic'
loop_
_space_group_symop_operation_xyz
x,y,z
-x,-y,z
x,-y,-z
-x,y,-z
-x,-y,-z
x,y,-z
-x,y,z
x,-y,z
1/2+x,1/2+y,1/2+z
1/2-x,1/2-y,1/2+z
1/2+x,1/2-y,1/2-z
1/2-x,1/2+y,1/2-z
1/2-x,1/2-y,1/2-z
1/2+x,1/2+y,1/2-z
1/2-x,1/2+y,1/2+z
1/2+x,1/2-y,1/2+z
loop_
_atom_site_type_symbol
_atom_site_label
_atom_site_fract_x
_atom_site_fract_y
_atom_site_fract_z
Si Si1 0.653807 0.500000 0.426766
Si Si2 0.145070 0.165914 0.260830
Si Si3 0.760285 0.730511 0.647257
Si Si4 0.657046 0.074824 0.321199
Si Si5 0.155485 0.658876 0.932681
Si Si6 0.850127 0.612733 0.571258
O O1 0.500000 0.500000 0.400892
O O2 0.650347 0.500000 0.500000
O O3 0.737009 0.437211 0.404069
O O4 0.147151 0.221902 0.312649
O O5 0.155470 0.196963 0.193261
O O6 0.262341 0.113041 0.268517
O O7 0.000000 0.131912 0.265757
O O8 0.680604 0.770878 0.595993
O O9 0.847457 0.677359 0.611900
O O10 0.500000 0.088023 0.310297
O O11 0.706515 0.101808 0.387458
O O12 0.693060 0.000000 0.317257
O O13 0.000000 0.649545 0.942248
O O14 0.226337 0.652688 0.000000
O O15 0.821246 0.630164 0.500000
O O16 0.000000 0.582766 0.577818
#
# Coordination Sequence:
#
# PCOD8290565 Si02
#       6
#     8  16  16  16  16  16
#     4   9  19  35  53  75 105 139 173 213 260 309
#     4  10  21  36  56  80 107 143 185 227 270 321
#     4  10  20  34  54  79 110 142 177 224 275 322
#     4   9  19  36  56  79 110 146 183 227 275 323
#     4   9  17  30  52  83 114 142 176 220 274 335
#     4  10  20  35  56  80 107 141 179 218 265 324
#
# _framework density 19.659396999999998
#
# number of rings (size 3 to 8) (size 9 to 14) (size 15 to 20)
#    0.000    2.455    0.000    1.909    0.000    8.364 
#    1.636    3.636    0.000    4.909    0.000    5.091 
#    0.000    0.000    0.000    0.000    0.000    0.000 
#
# Total GULP energy -545394.551328 kJ/mol
# GULP energy per Si atom -12395.330712 kJ/mol
# Density = 1.961465 g / cm^3
# Si number density = 19.659397 Si / 1000 Ang^3
#
#
#
# Elastic Constant Matrix: (Units=GPa)
#
#
# Indices 1 2 3 4 5 6 
#
# 1 102.1384 53.9370 28.8989 0.0000 0.0000 0.0000
# 2 53.9370 124.3096 33.1219 0.0000 0.0000 0.0000
# 3 28.8989 33.1219 59.5271 0.0000 0.0000 0.0000
# 4 0.0000 0.0000 0.0000 20.9792 0.0000 0.0000
# 5 0.0000 0.0000 0.0000 0.0000 11.6386 0.0000
# 6 0.0000 0.0000 0.0000 0.0000 0.0000 23.9018
#
#
#
# Elastic Compliance Matrix: (Units=1/GPa)
#
#
# Indices 1 2 3 4 5 6 
#
# 1 0.013410 -0.004795 -0.003842 0.000000 0.000000 0.000000
# 2 -0.004795 0.011159 -0.003881 0.000000 0.000000 0.000000
# 3 -0.003842 -0.003881 0.020824 0.000000 0.000000 0.000000
# 4 0.000000 0.000000 0.000000 0.047666 0.000000 0.000000
# 5 0.000000 0.000000 0.000000 0.000000 0.085921 0.000000
# 6 0.000000 0.000000 0.000000 0.000000 0.000000 0.041838
#
#
# Mechanical properties :
#
#
# Convention : Reuss Voigt Hill
#
# Bulk Modulus (GPa) = 49.12505 57.54342 53.33423
# Shear Modulus (GPa) = 19.79101 22.63840 21.21471
#
# Velocity S-wave (km/s) = 3.17629 3.39710 3.28855
# Velocity P-wave (km/s) = 6.20436 6.68736 6.45038
#
# Compressibility (1/GPa) = 0.02035621
#
# Stress axis : x y z
#
# Youngs Moduli (GPa) = 74.57296 89.61411 48.02137
#
# Poissons Ratio (x) = 0.42966 0.18451
# Poissons Ratio (y) = 0.35755 0.18639
# Poissons Ratio (z) = 0.28653 0.34783
#
# Static dielectric constant tensor:
#      x y z
#    x 3.428840 0.000000 0.000000 
#    y 0.000000 3.498000 0.000000 
#    z 0.000000 0.000000 3.828850 
# 
# 
# High freq. dielectric constant tensor:
#      x y z
#    x 1.751610 0.000000 0.000000 
#    y 0.000000 1.758060 0.000000 
#    z 0.000000 0.000000 1.764610 
# 
# From -- ./inp_files/55551.got.cif
#   From: 2010.06.25/outbox.cif.g09.slc.cpg/sg71_28_cif.got.tgz:55551.got - 2010.06.28 04:59:45.
