data_PCOD8290955
_publ_section_title
;
Structure prediction by ZEFSAII (Michael W. Deem and Ramdas Pophale) SiO2 
 PCOD8290955
Probable space group: I M M M
;
_chemical_formula_sum "Si O2"
_cell_formula_units_Z 96
_cell_length_a 13.793201
_cell_length_b 24.068724
_cell_length_c 15.290781
_cell_angle_alpha 90.000000
_cell_angle_beta 90.000000
_cell_angle_gamma 90.000000
_cell_volume 5076.306076
_symmetry_space_group_name_H-M "I M M M"
_symmetry_group_IT_number 71
_symmetry_cell_setting 'orthorhombic'
loop_
_space_group_symop_operation_xyz
x,y,z
-x,-y,z
x,-y,-z
-x,y,-z
-x,-y,-z
x,y,-z
-x,y,z
x,-y,z
1/2+x,1/2+y,1/2+z
1/2-x,1/2-y,1/2+z
1/2+x,1/2-y,1/2-z
1/2-x,1/2+y,1/2-z
1/2-x,1/2-y,1/2-z
1/2+x,1/2+y,1/2-z
1/2-x,1/2+y,1/2+z
1/2+x,1/2-y,1/2+z
loop_
_atom_site_type_symbol
_atom_site_label
_atom_site_fract_x
_atom_site_fract_y
_atom_site_fract_z
Si Si1 0.246557 0.785627 0.658886
Si Si2 0.714382 0.000000 0.098103
Si Si3 0.891874 0.300967 0.403819
Si Si4 0.386257 0.181877 0.500000
Si Si5 0.220747 0.910371 0.675928
Si Si6 0.611500 0.500000 0.273738
Si Si7 0.887178 0.591204 0.696093
Si Si8 0.304177 0.937904 0.500000
O O1 0.250000 0.750000 0.750000
O O2 0.173384 0.753168 0.597270
O O3 0.340172 0.794518 0.592768
O O4 0.200259 0.844845 0.683051
O O5 0.647480 0.946967 0.116931
O O6 0.818187 0.000000 0.143978
O O7 0.746391 0.000000 0.000000
O O8 0.883677 0.328693 0.500000
O O9 0.862989 0.345515 0.329970
O O10 0.000000 0.280525 0.385040
O O11 0.500000 0.198188 0.500000
O O12 0.378796 0.114241 0.500000
O O13 0.325201 0.924692 0.719247
O O14 0.229315 0.932597 0.578939
O O15 0.132737 0.943659 0.719932
O O16 0.500000 0.500000 0.303589
O O17 0.000000 0.581961 0.716817
O O18 0.353789 0.000000 0.500000
#
# Coordination Sequence:
#
# PCOD8290955 Si02
#       8
#    16   8  16   8  16   8  16   8
#     4  11  21  38  63  84 119 163 198 250 303 358
#     4  10  21  37  59  85 114 147 181 225 292 356
#     4  10  20  35  57  85 112 146 193 244 296 353
#     4  10  24  41  61  94 129 161 205 253 304 372
#     4  10  21  37  60  84 115 156 195 241 296 349
#     4  10  22  41  61  83 114 149 196 246 284 339
#     4  10  20  35  57  85 116 146 185 235 290 355
#     4  10  20  39  62  86 119 156 195 243 304 363
#
# _framework density 18.911390000000001
#
# number of rings (size 3 to 8) (size 9 to 14) (size 15 to 20)
#    0.000    1.833    3.333    0.750    0.000    5.667 
#    0.000    0.833    0.000    0.000    0.000    0.000 
#    0.000    0.000    0.000    0.000    0.000    0.000 
#
# Total GULP energy -594637.559938 kJ/mol
# GULP energy per Si atom -12388.282499 kJ/mol
# Density = 1.886835 g / cm^3
# Si number density = 18.911390 Si / 1000 Ang^3
#
#
#
# Elastic Constant Matrix: (Units=GPa)
#
#
# Indices 1 2 3 4 5 6 
#
# 1 84.3689 48.9732 11.6377 -0.0004 0.0000 0.0000
# 2 48.9732 120.9852 37.3633 -0.0003 0.0001 0.0001
# 3 11.6377 37.3633 93.9271 -0.0012 0.0001 0.0001
# 4 -0.0004 -0.0003 -0.0012 35.6900 0.0001 0.0001
# 5 0.0000 0.0001 0.0001 0.0001 15.9236 0.0000
# 6 0.0000 0.0001 0.0001 0.0001 0.0000 24.7564
#
#
#
# Elastic Compliance Matrix: (Units=1/GPa)
#
#
# Indices 1 2 3 4 5 6 
#
# 1 0.015529 -0.006489 0.000657 0.000000 0.000000 0.000000
# 2 -0.006489 0.012134 -0.004023 0.000000 0.000000 0.000000
# 3 0.000657 -0.004023 0.012165 0.000000 0.000000 0.000000
# 4 0.000000 0.000000 0.000000 0.028019 0.000000 0.000000
# 5 0.000000 0.000000 0.000000 0.000000 0.062800 0.000000
# 6 0.000000 0.000000 0.000000 0.000000 0.000000 0.040394
#
#
# Mechanical properties :
#
#
# Convention : Reuss Voigt Hill
#
# Bulk Modulus (GPa) = 49.70357 55.02551 52.36454
# Shear Modulus (GPa) = 25.32203 28.69446 27.00825
#
# Velocity S-wave (km/s) = 3.66318 3.89949 3.78318
# Velocity P-wave (km/s) = 6.65066 7.03096 6.84345
#
# Compressibility (1/GPa) = 0.02011928
#
# Stress axis : x y z
#
# Youngs Moduli (GPa) = 64.39770 82.41028 82.20006
#
# Poissons Ratio (x) = 0.53473 -0.05402
# Poissons Ratio (y) = 0.41786 0.33069
# Poissons Ratio (z) = -0.04232 0.33154
#
# Static dielectric constant tensor:
#      x y z
#    x 3.170870 0.000000 0.000000 
#    y 0.000000 3.719250 0.000000 
#    z 0.000000 0.000000 3.689640 
# 
# 
# High freq. dielectric constant tensor:
#      x y z
#    x 1.706750 0.000000 0.000000 
#    y 0.000000 1.745530 0.000000 
#    z 0.000000 0.000000 1.749510 
# 
# From -- ./inp_files/34839.got.cif
#   From: 2010.06.25/outbox.cif.g09.slc.cpg/sg71_18_cif.got.tgz:34839.got - 2010.06.28 04:59:45.
