data_PCOD8290689
_publ_section_title
;
Structure prediction by ZEFSAII (Michael W. Deem and Ramdas Pophale) SiO2 
 PCOD8290689
Probable space group: I M M M
;
_chemical_formula_sum "Si O2"
_cell_formula_units_Z 88
_cell_length_a 19.955478
_cell_length_b 24.063751
_cell_length_c 8.853711
_cell_angle_alpha 90.000000
_cell_angle_beta 90.000000
_cell_angle_gamma 90.000000
_cell_volume 4251.584371
_symmetry_space_group_name_H-M "I M M M"
_symmetry_group_IT_number 71
_symmetry_cell_setting 'orthorhombic'
loop_
_space_group_symop_operation_xyz
x,y,z
-x,-y,z
x,-y,-z
-x,y,-z
-x,-y,-z
x,y,-z
-x,y,z
x,-y,z
1/2+x,1/2+y,1/2+z
1/2-x,1/2-y,1/2+z
1/2+x,1/2-y,1/2-z
1/2-x,1/2+y,1/2-z
1/2-x,1/2-y,1/2-z
1/2+x,1/2+y,1/2-z
1/2-x,1/2+y,1/2+z
1/2+x,1/2-y,1/2+z
loop_
_atom_site_type_symbol
_atom_site_label
_atom_site_fract_x
_atom_site_fract_y
_atom_site_fract_z
Si Si1 0.425903 0.823693 0.826331
Si Si2 0.000000 0.936063 0.678701
Si Si3 0.235093 0.063499 0.669045
Si Si4 0.623223 0.627017 0.324456
Si Si5 0.176934 0.245286 0.177291
Si Si6 0.628384 0.939056 0.170460
O O1 0.500000 0.803137 0.777282
O O2 0.368492 0.797223 0.724053
O O3 0.425374 0.890449 0.804027
O O4 0.411931 0.807649 0.000000
O O5 0.064617 0.902075 0.731293
O O6 0.000000 0.937738 0.500000
O O7 0.000000 0.000000 0.740969
O O8 0.224582 0.087741 0.500000
O O9 0.192317 0.096038 0.791987
O O10 0.312126 0.069997 0.711887
O O11 0.211619 0.000000 0.673364
O O12 0.604835 0.623194 0.500000
O O13 0.635496 0.690547 0.272671
O O14 0.250000 0.250000 0.250000
O O15 0.188697 0.245291 0.000000
O O16 0.595091 0.000000 0.197532
O O17 0.657475 0.935841 0.000000
#
# Coordination Sequence:
#
# PCOD8290689 Si02
#       6
#    16   8  16  16  16  16
#     4  10  22  39  60  88 121 157 199 245 297 357
#     4  11  25  43  63  91 125 161 204 253 308 373
#     4  10  20  34  55  85 118 151 193 245 298 353
#     4  11  24  40  60  86 118 157 202 250 302 364
#     4  11  25  43  64  90 121 158 205 257 308 364
#     4   9  18  34  57  85 118 155 195 241 294 352
#
# _framework density 20.698166000000001
#
# number of rings (size 3 to 8) (size 9 to 14) (size 15 to 20)
#    0.000    1.727    0.000    3.545    1.273   12.727 
#    0.000    1.818    0.000    0.000    0.000    3.818 
#    0.000    0.000    0.000    0.000    0.000    0.000 
#
# Total GULP energy -545560.640314 kJ/mol
# GULP energy per Si atom -12399.105462 kJ/mol
# Density = 2.065106 g / cm^3
# Si number density = 20.698166 Si / 1000 Ang^3
#
#
#
# Elastic Constant Matrix: (Units=GPa)
#
#
# Indices 1 2 3 4 5 6 
#
# 1 103.1842 58.1132 35.6911 0.0000 0.0000 0.0000
# 2 58.1132 121.2923 43.9439 0.0000 0.0000 0.0000
# 3 35.6911 43.9439 65.1259 0.0000 0.0000 0.0000
# 4 0.0000 0.0000 0.0000 31.1179 0.0000 0.0000
# 5 0.0000 0.0000 0.0000 0.0000 30.9284 0.0000
# 6 0.0000 0.0000 0.0000 0.0000 0.0000 34.5371
#
#
#
# Elastic Compliance Matrix: (Units=1/GPa)
#
#
# Indices 1 2 3 4 5 6 
#
# 1 0.014087 -0.005231 -0.004190 0.000000 0.000000 0.000000
# 2 -0.005231 0.012855 -0.005807 0.000000 0.000000 0.000000
# 3 -0.004190 -0.005807 0.021570 0.000000 0.000000 0.000000
# 4 0.000000 0.000000 0.000000 0.032136 0.000000 0.000000
# 5 0.000000 0.000000 0.000000 0.000000 0.032333 0.000000
# 6 0.000000 0.000000 0.000000 0.000000 0.000000 0.028954
#
#
# Mechanical properties :
#
#
# Convention : Reuss Voigt Hill
#
# Bulk Modulus (GPa) = 55.38824 62.78875 59.08850
# Shear Modulus (GPa) = 28.02543 29.44030 28.73286
#
# Velocity S-wave (km/s) = 3.68367 3.77551 3.72988
# Velocity P-wave (km/s) = 6.70154 7.02903 6.86724
#
# Compressibility (1/GPa) = 0.01805437
#
# Stress axis : x y z
#
# Youngs Moduli (GPa) = 70.98729 77.79243 46.36157
#
# Poissons Ratio (x) = 0.40694 0.19427
# Poissons Ratio (y) = 0.37135 0.26922
# Poissons Ratio (z) = 0.29746 0.45174
#
# Static dielectric constant tensor:
#      x y z
#    x 3.650520 0.000000 0.000000 
#    y 0.000000 4.071640 0.000000 
#    z 0.000000 0.000000 3.714890 
# 
# 
# High freq. dielectric constant tensor:
#      x y z
#    x 1.804160 0.000000 0.000000 
#    y 0.000000 1.822360 0.000000 
#    z 0.000000 0.000000 1.808340 
# 
# From -- ./inp_files/10463.got.cif
#   From: 2010.06.25/outbox.cif.g09.slc.cpg/sg71_6_cif.got.tgz:10463.got - 2010.06.28 04:59:45.
