data_PCOD8290192
_publ_section_title
;
Structure prediction by ZEFSAII (Michael W. Deem and Ramdas Pophale) SiO2 
 PCOD8290192
Probable space group: I M M M
;
_chemical_formula_sum "Si O2"
_cell_formula_units_Z 56
_cell_length_a 9.676427
_cell_length_b 9.177067
_cell_length_c 35.355805
_cell_angle_alpha 90.000000
_cell_angle_beta 90.000000
_cell_angle_gamma 90.000000
_cell_volume 3139.638579
_symmetry_space_group_name_H-M "I M M M"
_symmetry_group_IT_number 71
_symmetry_cell_setting 'orthorhombic'
loop_
_space_group_symop_operation_xyz
x,y,z
-x,-y,z
x,-y,-z
-x,y,-z
-x,-y,-z
x,y,-z
-x,y,z
x,-y,z
1/2+x,1/2+y,1/2+z
1/2-x,1/2-y,1/2+z
1/2+x,1/2-y,1/2-z
1/2-x,1/2+y,1/2-z
1/2-x,1/2-y,1/2-z
1/2+x,1/2+y,1/2-z
1/2-x,1/2+y,1/2+z
1/2+x,1/2-y,1/2+z
loop_
_atom_site_type_symbol
_atom_site_label
_atom_site_fract_x
_atom_site_fract_y
_atom_site_fract_z
Si Si1 0.839349 0.329461 0.574298
Si Si2 0.164101 0.835597 0.500000
Si Si3 0.838602 0.667329 0.134580
Si Si4 0.845163 0.669350 0.220707
O O1 0.815538 0.500000 0.568320
O O2 0.782238 0.247742 0.537124
O O3 0.752645 0.275346 0.609869
O O4 0.000000 0.293557 0.581516
O O5 0.000000 0.835381 0.500000
O O6 0.223025 0.000000 0.500000
O O7 0.805701 0.500000 0.123897
O O8 0.796349 0.698252 0.177866
O O9 0.000000 0.700045 0.128093
O O10 0.839322 0.500000 0.229971
O O11 0.750000 0.750000 0.250000
O O12 0.000000 0.728908 0.225927
#
# Coordination Sequence:
#
# PCOD8290192 Si02
#       4
#    16   8  16  16
#     4  10  20  33  51  77 106 133 164 206 253 298
#     4   9  17  31  52  75 100 133 170 206 246 293
#     4   9  19  36  54  72  99 135 171 207 249 297
#     4   9  19  35  53  74 101 132 167 208 252 298
#
# _framework density 17.836445999999999
#
# number of rings (size 3 to 8) (size 9 to 14) (size 15 to 20)
#    0.000    2.714    0.000    3.000    0.000    6.857 
#    0.000    9.286    0.000    4.286    0.000    0.000 
#    0.000    0.000    0.000    0.000    0.000    0.000 
#
# Total GULP energy -347208.009686 kJ/mol
# GULP energy per Si atom -12400.286060 kJ/mol
# Density = 1.779585 g / cm^3
# Si number density = 17.836446 Si / 1000 Ang^3
#
#
#
# Elastic Constant Matrix: (Units=GPa)
#
#
# Indices 1 2 3 4 5 6 
#
# 1 57.6353 44.6540 56.1120 0.0000 0.0000 0.0000
# 2 44.6540 98.7174 68.1048 0.0000 0.0000 0.0000
# 3 56.1120 68.1048 123.4962 0.0000 0.0000 0.0000
# 4 0.0000 0.0000 0.0000 41.3407 0.0000 0.0000
# 5 0.0000 0.0000 0.0000 0.0000 27.8996 0.0000
# 6 0.0000 0.0000 0.0000 0.0000 0.0000 31.9036
#
#
#
# Elastic Compliance Matrix: (Units=1/GPa)
#
#
# Indices 1 2 3 4 5 6 
#
# 1 0.034403 -0.007712 -0.011379 0.000000 0.000000 0.000000
# 2 -0.007712 0.018079 -0.006466 0.000000 0.000000 0.000000
# 3 -0.011379 -0.006466 0.016833 0.000000 0.000000 0.000000
# 4 0.000000 0.000000 0.000000 0.024189 0.000000 0.000000
# 5 0.000000 0.000000 0.000000 0.000000 0.035843 0.000000
# 6 0.000000 0.000000 0.000000 0.000000 0.000000 0.031344
#
#
# Mechanical properties :
#
#
# Convention : Reuss Voigt Hill
#
# Bulk Modulus (GPa) = 54.93774 68.62115 61.77945
# Shear Modulus (GPa) = 22.94902 27.62731 25.28817
#
# Velocity S-wave (km/s) = 3.59086 3.93991 3.76943
# Velocity P-wave (km/s) = 6.93254 7.69760 7.32507
#
# Compressibility (1/GPa) = 0.01820242
#
# Stress axis : x y z
#
# Youngs Moduli (GPa) = 29.06685 55.31148 59.40561
#
# Poissons Ratio (x) = 0.42656 0.67596
# Poissons Ratio (y) = 0.22416 0.38413
# Poissons Ratio (z) = 0.33074 0.35766
#
# Static dielectric constant tensor:
#      x y z
#    x 3.321210 0.000000 0.000000 
#    y 0.000000 3.285480 0.000000 
#    z 0.000000 0.000000 2.892400 
# 
# 
# High freq. dielectric constant tensor:
#      x y z
#    x 1.671060 0.000000 0.000000 
#    y 0.000000 1.693890 0.000000 
#    z 0.000000 0.000000 1.700020 
# 
# From -- ./inp_files/3564.got.cif
#   From: 2010.06.25/outbox.cif.g09.slc.cpg/sg71_2_cif.got.tgz:3564.got - 2010.06.28 04:59:45.
