data_PCOD8290996
_publ_section_title
;
Structure prediction by ZEFSAII (Michael W. Deem and Ramdas Pophale) SiO2 
 PCOD8290996
Probable space group: I M M M
;
_chemical_formula_sum "Si O2"
_cell_formula_units_Z 88
_cell_length_a 22.357967
_cell_length_b 8.807858
_cell_length_c 22.333981
_cell_angle_alpha 90.000000
_cell_angle_beta 90.000000
_cell_angle_gamma 90.000000
_cell_volume 4398.137042
_symmetry_space_group_name_H-M "I M M M"
_symmetry_group_IT_number 71
_symmetry_cell_setting 'orthorhombic'
loop_
_space_group_symop_operation_xyz
x,y,z
-x,-y,z
x,-y,-z
-x,y,-z
-x,-y,-z
x,y,-z
-x,y,z
x,-y,z
1/2+x,1/2+y,1/2+z
1/2-x,1/2-y,1/2+z
1/2+x,1/2-y,1/2-z
1/2-x,1/2+y,1/2-z
1/2-x,1/2-y,1/2-z
1/2+x,1/2+y,1/2-z
1/2-x,1/2+y,1/2+z
1/2+x,1/2-y,1/2+z
loop_
_atom_site_type_symbol
_atom_site_label
_atom_site_fract_x
_atom_site_fract_y
_atom_site_fract_z
Si Si1 0.210276 0.327733 0.433014
Si Si2 0.668304 0.822765 0.409287
Si Si3 0.500000 0.165780 0.849532
Si Si4 0.877109 0.822060 0.342941
Si Si5 0.626076 0.179150 0.717592
Si Si6 0.567561 0.178180 0.500000
Si Si7 0.500000 0.163803 0.290855
O O1 0.183796 0.317956 0.500000
O O2 0.206107 0.500000 0.408718
O O3 0.278968 0.276555 0.436386
O O4 0.173683 0.216034 0.390588
O O5 0.670048 0.790961 0.337650
O O6 0.605743 0.773437 0.440893
O O7 0.680108 0.000000 0.422432
O O8 0.439728 0.255154 0.867112
O O9 0.500000 0.139618 0.779774
O O10 0.500000 0.000000 0.881668
O O11 0.854111 0.759595 0.278657
O O12 0.884734 0.000000 0.336754
O O13 0.561940 0.248747 0.694445
O O14 0.618558 0.000000 0.731049
O O15 0.500000 0.251951 0.500000
O O16 0.558632 0.000000 0.500000
O O17 0.500000 0.000000 0.324294
#
# Coordination Sequence:
#
# PCOD8290996 Si02
#       7
#    16  16   8  16  16   8   8
#     4  11  24  42  62  81 109 153 199 241 297 360
#     4  10  20  35  58  86 118 155 200 249 294 344
#     4   9  17  35  60  86 120 154 185 226 279 343
#     4  11  22  37  61  90 120 151 190 241 292 345
#     4   9  18  32  53  83 117 155 195 238 294 351
#     4   9  18  32  55  89 125 156 197 250 293 337
#     4   7  12  25  47  75 110 148 185 220 265 332
#
# _framework density 20.008472000000001
#
# number of rings (size 3 to 8) (size 9 to 14) (size 15 to 20)
#    0.000    2.273    0.909    3.545    1.273    2.545 
#    0.000    0.455    0.000    3.818    0.000    0.000 
#    0.000    0.000    0.000    0.000    0.000    0.000 
#
# Total GULP energy -545210.604386 kJ/mol
# GULP energy per Si atom -12391.150100 kJ/mol
# Density = 1.996293 g / cm^3
# Si number density = 20.008472 Si / 1000 Ang^3
#
#
#
# Elastic Constant Matrix: (Units=GPa)
#
#
# Indices 1 2 3 4 5 6 
#
# 1 91.6763 28.5776 39.9412 0.0000 0.0000 0.0000
# 2 28.5776 91.6612 36.8555 0.0000 0.0000 0.0000
# 3 39.9412 36.8555 97.6120 0.0000 0.0000 0.0000
# 4 0.0000 0.0000 0.0000 17.9539 0.0000 0.0000
# 5 0.0000 0.0000 0.0000 0.0000 28.3105 0.0000
# 6 0.0000 0.0000 0.0000 0.0000 0.0000 24.1363
#
#
#
# Elastic Compliance Matrix: (Units=1/GPa)
#
#
# Indices 1 2 3 4 5 6 
#
# 1 0.013701 -0.002378 -0.004708 0.000000 0.000000 0.000000
# 2 -0.002378 0.013275 -0.004039 0.000000 0.000000 0.000000
# 3 -0.004708 -0.004039 0.013696 0.000000 0.000000 0.000000
# 4 0.000000 0.000000 0.000000 0.055698 0.000000 0.000000
# 5 0.000000 0.000000 0.000000 0.000000 0.035323 0.000000
# 6 0.000000 0.000000 0.000000 0.000000 0.000000 0.041431
#
#
# Mechanical properties :
#
#
# Convention : Reuss Voigt Hill
#
# Bulk Modulus (GPa) = 54.28646 54.63312 54.45979
# Shear Modulus (GPa) = 24.81195 25.78514 25.29855
#
# Velocity S-wave (km/s) = 3.52529 3.59376 3.55969
# Velocity P-wave (km/s) = 6.61520 6.67715 6.64625
#
# Compressibility (1/GPa) = 0.01842080
#
# Stress axis : x y z
#
# Youngs Moduli (GPa) = 72.98988 75.32747 73.01317
#
# Poissons Ratio (x) = 0.17916 0.34375
# Poissons Ratio (y) = 0.17360 0.29491
# Poissons Ratio (z) = 0.34364 0.30426
#
# Static dielectric constant tensor:
#      x y z
#    x 3.934240 0.000000 0.000000 
#    y 0.000000 3.376580 0.000000 
#    z 0.000000 0.000000 3.520110 
# 
# 
# High freq. dielectric constant tensor:
#      x y z
#    x 1.781830 0.000000 0.000000 
#    y 0.000000 1.752980 0.000000 
#    z 0.000000 0.000000 1.772190 
# 
# From -- ./inp_files/61163.got.cif
#   From: 2010.06.25/outbox.cif.g09.slc.cpg/sg71_31_cif.got.tgz:61163.got - 2010.06.28 04:59:45.
