data_PCOD8290775
_publ_section_title
;
Structure prediction by ZEFSAII (Michael W. Deem and Ramdas Pophale) SiO2 
 PCOD8290775
Probable space group: I M M M
;
_chemical_formula_sum "Si O2"
_cell_formula_units_Z 88
_cell_length_a 27.463883
_cell_length_b 9.137866
_cell_length_c 18.967052
_cell_angle_alpha 90.000000
_cell_angle_beta 90.000000
_cell_angle_gamma 90.000000
_cell_volume 4759.995699
_symmetry_space_group_name_H-M "I M M M"
_symmetry_group_IT_number 71
_symmetry_cell_setting 'orthorhombic'
loop_
_space_group_symop_operation_xyz
x,y,z
-x,-y,z
x,-y,-z
-x,y,-z
-x,-y,-z
x,y,-z
-x,y,z
x,-y,z
1/2+x,1/2+y,1/2+z
1/2-x,1/2-y,1/2+z
1/2+x,1/2-y,1/2-z
1/2-x,1/2+y,1/2-z
1/2-x,1/2-y,1/2-z
1/2+x,1/2+y,1/2-z
1/2-x,1/2+y,1/2+z
1/2+x,1/2-y,1/2+z
loop_
_atom_site_type_symbol
_atom_site_label
_atom_site_fract_x
_atom_site_fract_y
_atom_site_fract_z
Si Si1 0.943363 0.830509 0.188452
Si Si2 0.312037 0.328359 0.918106
Si Si3 0.500000 0.325079 0.079450
Si Si4 0.092844 0.826848 0.338712
Si Si5 0.120247 0.329355 0.917876
Si Si6 0.716039 0.664790 0.583747
O O1 0.912534 0.781911 0.257080
O O2 0.926417 0.733207 0.122799
O O3 0.000000 0.801181 0.203474
O O4 0.934245 0.000000 0.170275
O O5 0.303347 0.500000 0.907214
O O6 0.356848 0.267684 0.871578
O O7 0.264398 0.245793 0.889305
O O8 0.322677 0.293136 0.000000
O O9 0.500000 0.500000 0.082706
O O10 0.452273 0.260636 0.117606
O O11 0.500000 0.267317 0.000000
O O12 0.091461 0.000000 0.346819
O O13 0.126134 0.500000 0.903001
O O14 0.168568 0.249758 0.888602
O O15 0.111800 0.296803 0.000000
O O16 0.715872 0.665675 0.500000
O O17 0.715055 0.500000 0.613796
#
# Coordination Sequence:
#
# PCOD8290775 Si02
#       6
#    16  16   8  16  16  16
#     4  10  20  35  54  75 104 140 173 209 255 305
#     4   9  16  27  47  76 108 140 174 212 252 293
#     4   9  14  22  42  72 104 137 176 218 253 287
#     4   9  16  28  45  71 106 141 175 211 252 295
#     4  10  21  37  57  79 101 126 163 213 263 313
#     4   9  17  31  52  77 104 133 166 207 257 310
#
# _framework density 18.487411999999999
#
# number of rings (size 3 to 8) (size 9 to 14) (size 15 to 20)
#    0.000    2.636    0.909    1.636    0.000    6.182 
#    0.000    3.636    0.000    0.000    0.000    0.000 
#    0.000    4.364    0.000    0.000    0.000    0.000 
#
# Total GULP energy -545604.750315 kJ/mol
# GULP energy per Si atom -12400.107962 kJ/mol
# Density = 1.844533 g / cm^3
# Si number density = 18.487412 Si / 1000 Ang^3
#
#
#
# Elastic Constant Matrix: (Units=GPa)
#
#
# Indices 1 2 3 4 5 6 
#
# 1 98.4037 43.2505 48.1021 0.0000 0.0000 0.0000
# 2 43.2505 70.9741 39.4649 0.0000 0.0000 0.0000
# 3 48.1021 39.4649 75.9850 0.0000 0.0000 0.0000
# 4 0.0000 0.0000 0.0000 13.7674 0.0000 0.0000
# 5 0.0000 0.0000 0.0000 0.0000 23.9838 0.0000
# 6 0.0000 0.0000 0.0000 0.0000 0.0000 25.7026
#
#
#
# Elastic Compliance Matrix: (Units=1/GPa)
#
#
# Indices 1 2 3 4 5 6 
#
# 1 0.016302 -0.005900 -0.007256 0.000000 0.000000 0.000000
# 2 -0.005900 0.021946 -0.007664 0.000000 0.000000 0.000000
# 3 -0.007256 -0.007664 0.021734 0.000000 0.000000 0.000000
# 4 0.000000 0.000000 0.000000 0.072635 0.000000 0.000000
# 5 0.000000 0.000000 0.000000 0.000000 0.041695 0.000000
# 6 0.000000 0.000000 0.000000 0.000000 0.000000 0.038907
#
#
# Mechanical properties :
#
#
# Convention : Reuss Voigt Hill
#
# Bulk Modulus (GPa) = 54.51329 56.33308 55.42319
# Shear Modulus (GPa) = 19.15917 20.32712 19.74314
#
# Velocity S-wave (km/s) = 3.22271 3.31949 3.27146
# Velocity P-wave (km/s) = 6.58776 6.72526 6.65687
#
# Compressibility (1/GPa) = 0.01834415
#
# Stress axis : x y z
#
# Youngs Moduli (GPa) = 61.34190 45.56613 46.01071
#
# Poissons Ratio (x) = 0.26882 0.33385
# Poissons Ratio (y) = 0.36190 0.35261
# Poissons Ratio (z) = 0.44509 0.34920
#
# Static dielectric constant tensor:
#      x y z
#    x 3.566610 0.000000 0.000000 
#    y 0.000000 3.130180 0.000000 
#    z 0.000000 0.000000 3.220960 
# 
# 
# High freq. dielectric constant tensor:
#      x y z
#    x 1.728670 0.000000 0.000000 
#    y 0.000000 1.685040 0.000000 
#    z 0.000000 0.000000 1.698660 
# 
# From -- ./inp_files/10451.got.cif
#   From: 2010.06.25/outbox.cif.g09.slc.cpg/sg71_6_cif.got.tgz:10451.got - 2010.06.28 04:59:45.
