data_PCOD8290831
_publ_section_title
;
Structure prediction by ZEFSAII (Michael W. Deem and Ramdas Pophale) SiO2 
 PCOD8290831
Probable space group: I M M M
;
_chemical_formula_sum "Si O2"
_cell_formula_units_Z 104
_cell_length_a 18.275333
_cell_length_b 28.393290
_cell_length_c 10.144555
_cell_angle_alpha 90.000000
_cell_angle_beta 90.000000
_cell_angle_gamma 90.000000
_cell_volume 5263.977428
_symmetry_space_group_name_H-M "I M M M"
_symmetry_group_IT_number 71
_symmetry_cell_setting 'orthorhombic'
loop_
_space_group_symop_operation_xyz
x,y,z
-x,-y,z
x,-y,-z
-x,y,-z
-x,-y,-z
x,y,-z
-x,y,z
x,-y,z
1/2+x,1/2+y,1/2+z
1/2-x,1/2-y,1/2+z
1/2+x,1/2-y,1/2-z
1/2-x,1/2+y,1/2-z
1/2-x,1/2-y,1/2-z
1/2+x,1/2+y,1/2-z
1/2-x,1/2+y,1/2+z
1/2+x,1/2-y,1/2+z
loop_
_atom_site_type_symbol
_atom_site_label
_atom_site_fract_x
_atom_site_fract_y
_atom_site_fract_z
Si Si1 0.839860 0.051979 0.142133
Si Si2 0.920229 0.555584 0.500000
Si Si3 0.086323 0.292189 0.343621
Si Si4 0.681208 0.053010 0.766948
Si Si5 0.328212 0.701240 0.148286
Si Si6 0.819362 0.348512 0.846647
Si Si7 0.418397 0.611821 0.148709
O O1 0.752999 0.049104 0.144717
O O2 0.864988 0.082222 0.263222
O O3 0.874122 0.000000 0.155887
O O4 0.863251 0.073624 0.000000
O O5 0.926145 0.500000 0.500000
O O6 0.881259 0.571193 0.634128
O O7 0.000000 0.579918 0.500000
O O8 0.098905 0.302797 0.500000
O O9 0.137997 0.249002 0.291162
O O10 0.113312 0.334520 0.249270
O O11 0.000000 0.282313 0.318833
O O12 0.689964 0.094376 0.658186
O O13 0.664987 0.000000 0.706596
O O14 0.254170 0.678250 0.209948
O O15 0.395982 0.665817 0.156470
O O16 0.306356 0.712487 0.000000
O O17 0.834673 0.335718 0.000000
O O18 0.500000 0.606863 0.203190
O O19 0.411793 0.592682 0.000000
#
# Coordination Sequence:
#
# PCOD8290831 Si02
#       7
#    16   8  16  16  16  16  16
#     4  10  20  35  55  79 114 157 197 243 297 351
#     4   9  18  34  58  86 113 147 197 253 296 336
#     4  10  22  40  63  88 116 154 198 244 296 356
#     4  10  20  36  59  87 120 157 198 241 292 355
#     4   9  18  37  61  87 116 150 195 242 293 352
#     4  11  23  38  60  90 122 156 194 242 298 354
#     4  10  20  35  57  83 113 152 198 247 295 349
#
# _framework density 19.756924000000001
#
# number of rings (size 3 to 8) (size 9 to 14) (size 15 to 20)
#    0.000    2.077    2.308    0.923    1.077    4.000 
#    0.000    3.846    0.000    1.846    0.000    3.231 
#    0.000    0.000    0.000    0.000    0.000    0.000 
#
# Total GULP energy -644200.427502 kJ/mol
# GULP energy per Si atom -12388.469760 kJ/mol
# Density = 1.971196 g / cm^3
# Si number density = 19.756924 Si / 1000 Ang^3
#
#
#
# Elastic Constant Matrix: (Units=GPa)
#
#
# Indices 1 2 3 4 5 6 
#
# 1 100.9012 33.7674 36.4271 -0.0001 -0.0002 0.0000
# 2 33.7674 96.6769 39.1005 0.0000 -0.0001 0.0000
# 3 36.4271 39.1005 75.1888 0.0009 -0.0002 0.0000
# 4 -0.0001 0.0000 0.0009 25.4815 -0.0001 0.0000
# 5 -0.0002 -0.0001 -0.0002 -0.0001 24.3737 0.0001
# 6 0.0000 0.0000 0.0000 0.0000 0.0001 22.2384
#
#
#
# Elastic Compliance Matrix: (Units=1/GPa)
#
#
# Indices 1 2 3 4 5 6 
#
# 1 0.012442 -0.002416 -0.004771 0.000000 0.000000 0.000000
# 2 -0.002416 0.013568 -0.005885 0.000000 0.000000 0.000000
# 3 -0.004771 -0.005885 0.018672 -0.000001 0.000000 0.000000
# 4 0.000000 0.000000 -0.000001 0.039244 0.000000 0.000000
# 5 0.000000 0.000000 0.000000 0.000000 0.041028 0.000000
# 6 0.000000 0.000000 0.000000 0.000000 0.000000 0.044967
#
#
# Mechanical properties :
#
#
# Convention : Reuss Voigt Hill
#
# Bulk Modulus (GPa) = 53.94763 54.59522 54.27142
# Shear Modulus (GPa) = 24.72254 25.31685 25.01970
#
# Velocity S-wave (km/s) = 3.54126 3.58357 3.56248
# Velocity P-wave (km/s) = 6.63970 6.69448 6.66715
#
# Compressibility (1/GPa) = 0.01853650
#
# Stress axis : x y z
#
# Youngs Moduli (GPa) = 80.37460 73.70377 53.55620
#
# Poissons Ratio (x) = 0.17806 0.25554
# Poissons Ratio (y) = 0.19418 0.31519
# Poissons Ratio (z) = 0.38350 0.43376
#
# Static dielectric constant tensor:
#      x y z
#    x 3.789860 0.000000 0.000000 
#    y 0.000000 3.628790 0.000000 
#    z 0.000000 0.000000 3.292210 
# 
# 
# High freq. dielectric constant tensor:
#      x y z
#    x 1.771230 0.000000 0.000000 
#    y 0.000000 1.771300 0.000000 
#    z 0.000000 0.000000 1.744060 
# 
# From -- ./inp_files/24577.got.cif
#   From: 2010.06.25/outbox.cif.g09.slc.cpg/sg71_13_cif.got.tgz:24577.got - 2010.06.28 04:59:45.
