data_PCOD8290664
_publ_section_title
;
Structure prediction by ZEFSAII (Michael W. Deem and Ramdas Pophale) SiO2 
 PCOD8290664
Probable space group: I M M M
;
_chemical_formula_sum "Si O2"
_cell_formula_units_Z 112
_cell_length_a 15.441712
_cell_length_b 27.502666
_cell_length_c 13.475645
_cell_angle_alpha 90.000000
_cell_angle_beta 90.000000
_cell_angle_gamma 90.000000
_cell_volume 5722.948060
_symmetry_space_group_name_H-M "I M M M"
_symmetry_group_IT_number 71
_symmetry_cell_setting 'orthorhombic'
loop_
_space_group_symop_operation_xyz
x,y,z
-x,-y,z
x,-y,-z
-x,y,-z
-x,-y,-z
x,y,-z
-x,y,z
x,-y,z
1/2+x,1/2+y,1/2+z
1/2-x,1/2-y,1/2+z
1/2+x,1/2-y,1/2-z
1/2-x,1/2+y,1/2-z
1/2-x,1/2-y,1/2-z
1/2+x,1/2+y,1/2-z
1/2-x,1/2+y,1/2+z
1/2+x,1/2-y,1/2+z
loop_
_atom_site_type_symbol
_atom_site_label
_atom_site_fract_x
_atom_site_fract_y
_atom_site_fract_z
Si Si1 0.741149 0.443208 0.116199
Si Si2 0.595044 0.116480 0.387174
Si Si3 0.355402 0.301242 0.108316
Si Si4 0.404562 0.196726 0.892435
Si Si5 0.596481 0.387556 0.769173
Si Si6 0.397641 0.689530 0.612009
Si Si7 0.670507 0.209672 0.690103
O O1 0.755761 0.500000 0.129141
O O2 0.827622 0.416496 0.157638
O O3 0.662888 0.427706 0.189320
O O4 0.721754 0.430234 0.000000
O O5 0.585137 0.100718 0.500000
O O6 0.500000 0.108077 0.335772
O O7 0.621178 0.173276 0.383703
O O8 0.416664 0.254781 0.103216
O O9 0.411350 0.345197 0.149710
O O10 0.272731 0.289054 0.176365
O O11 0.319803 0.315960 0.000000
O O12 0.500000 0.174033 0.875757
O O13 0.343039 0.185374 0.799727
O O14 0.366702 0.178640 0.000000
O O15 0.500000 0.410673 0.756640
O O16 0.628120 0.361286 0.666753
O O17 0.358471 0.689845 0.500000
O O18 0.500000 0.693123 0.607655
O O19 0.365525 0.735994 0.675027
#
# Coordination Sequence:
#
# PCOD8290664 Si02
#       7
#    16  16  16  16  16  16  16
#     4  10  22  40  60  84 112 140 180 236 290 340
#     4  10  20  34  55  82 112 149 188 226 275 333
#     4  11  21  32  49  73 104 145 189 228 266 318
#     4  10  21  34  47  69 104 148 195 234 272 321
#     4  11  22  37  57  81 111 149 184 223 277 332
#     4  10  21  35  52  79 114 151 190 228 268 321
#     4  12  20  33  51  79 113 152 194 230 267 315
#
# _framework density 19.570333000000002
#
# number of rings (size 3 to 8) (size 9 to 14) (size 15 to 20)
#    0.000    1.429    2.857    3.857    0.000    3.429 
#    0.000    2.143    0.000    0.429    0.000    2.000 
#    0.000    0.000    0.000    4.286    0.000    0.286 
#
# Total GULP energy -693833.559206 kJ/mol
# GULP energy per Si atom -12389.884986 kJ/mol
# Density = 1.952579 g / cm^3
# Si number density = 19.570333 Si / 1000 Ang^3
#
#
#
# Elastic Constant Matrix: (Units=GPa)
#
#
# Indices 1 2 3 4 5 6 
#
# 1 105.3920 30.6472 25.4685 0.0000 0.0000 0.0000
# 2 30.6472 69.2225 4.8167 0.0001 0.0000 0.0000
# 3 25.4685 4.8167 108.2250 -0.0003 0.0001 0.0001
# 4 0.0000 0.0001 -0.0003 21.7086 0.0000 0.0000
# 5 0.0000 0.0000 0.0001 0.0000 23.3586 0.0000
# 6 0.0000 0.0000 0.0001 0.0000 0.0000 17.1924
#
#
#
# Elastic Compliance Matrix: (Units=1/GPa)
#
#
# Indices 1 2 3 4 5 6 
#
# 1 0.011524 -0.004929 -0.002493 0.000000 0.000000 0.000000
# 2 -0.004929 0.016599 0.000421 0.000000 0.000000 0.000000
# 3 -0.002493 0.000421 0.009808 0.000000 0.000000 0.000000
# 4 0.000000 0.000000 0.000000 0.046065 0.000000 0.000000
# 5 0.000000 0.000000 0.000000 0.000000 0.042811 0.000000
# 6 0.000000 0.000000 0.000000 0.000000 0.000000 0.058165
#
#
# Mechanical properties :
#
#
# Convention : Reuss Voigt Hill
#
# Bulk Modulus (GPa) = 41.78762 44.96715 43.37739
# Shear Modulus (GPa) = 24.16062 27.24573 25.70318
#
# Velocity S-wave (km/s) = 3.51743 3.73526 3.62798
# Velocity P-wave (km/s) = 6.15592 6.45213 6.30576
#
# Compressibility (1/GPa) = 0.02393053
#
# Stress axis : x y z
#
# Youngs Moduli (GPa) = 86.77596 60.24482 101.95930
#
# Poissons Ratio (x) = 0.29692 0.25414
# Poissons Ratio (y) = 0.42768 -0.04293
# Poissons Ratio (z) = 0.21629 -0.02537
#
# Static dielectric constant tensor:
#      x y z
#    x 3.708430 0.000000 0.000000 
#    y 0.000000 3.175000 0.000000 
#    z 0.000000 0.000000 3.964390 
# 
# 
# High freq. dielectric constant tensor:
#      x y z
#    x 1.773780 0.000000 0.000000 
#    y 0.000000 1.706830 0.000000 
#    z 0.000000 0.000000 1.761820 
# 
# From -- ./inp_files/35148.got.cif
#   From: 2010.06.25/outbox.cif.g09.slc.cpg/sg71_18_cif.got.tgz:35148.got - 2010.06.28 04:59:45.
