data_PCOD8290568
_publ_section_title
;
Structure prediction by ZEFSAII (Michael W. Deem and Ramdas Pophale) SiO2 
 PCOD8290568
Probable space group: I M M M
;
_chemical_formula_sum "Si O2"
_cell_formula_units_Z 120
_cell_length_a 9.727958
_cell_length_b 28.122023
_cell_length_c 23.723137
_cell_angle_alpha 90.000000
_cell_angle_beta 90.000000
_cell_angle_gamma 90.000000
_cell_volume 6489.935235
_symmetry_space_group_name_H-M "I M M M"
_symmetry_group_IT_number 71
_symmetry_cell_setting 'orthorhombic'
loop_
_space_group_symop_operation_xyz
x,y,z
-x,-y,z
x,-y,-z
-x,y,-z
-x,-y,-z
x,y,-z
-x,y,z
x,-y,z
1/2+x,1/2+y,1/2+z
1/2-x,1/2-y,1/2+z
1/2+x,1/2-y,1/2-z
1/2-x,1/2+y,1/2-z
1/2-x,1/2-y,1/2-z
1/2+x,1/2+y,1/2-z
1/2-x,1/2+y,1/2+z
1/2+x,1/2-y,1/2+z
loop_
_atom_site_type_symbol
_atom_site_label
_atom_site_fract_x
_atom_site_fract_y
_atom_site_fract_z
Si Si1 0.657377 0.859451 0.239391
Si Si2 0.841504 0.314970 0.854751
Si Si3 0.841454 0.229248 0.064287
Si Si4 0.842626 0.053993 0.726473
Si Si5 0.663664 0.551555 0.000000
Si Si6 0.337221 0.051893 0.936636
Si Si7 0.660052 0.149558 0.113318
Si Si8 0.656616 0.600448 0.889429
O O1 0.500000 0.876724 0.243981
O O2 0.687806 0.818684 0.286880
O O3 0.748764 0.906832 0.243575
O O4 0.686337 0.836403 0.178490
O O5 0.800285 0.266142 0.885933
O O6 0.748491 0.354054 0.882337
O O7 0.000000 0.326197 0.867285
O O8 0.747563 0.183277 0.072959
O O9 0.000000 0.214503 0.071597
O O10 0.816661 0.248646 0.000000
O O11 0.830150 0.061556 0.659592
O O12 0.000000 0.061661 0.746135
O O13 0.794505 0.000000 0.740463
O O14 0.717942 0.577701 0.054789
O O15 0.731153 0.500000 0.000000
O O16 0.500000 0.548299 0.000000
O O17 0.500000 0.050219 0.937415
O O18 0.288788 0.095148 0.896682
O O19 0.282295 0.000000 0.914870
O O20 0.282263 0.060965 0.000000
O O21 0.500000 0.155364 0.097102
O O22 0.500000 0.617699 0.896041
#
# Coordination Sequence:
#
# PCOD8290568 Si02
#       8
#    16  16  16  16   8  16  16  16
#     4   9  19  34  51  74 102 133 170 214 262 307
#     4   9  19  36  53  70  98 134 171 210 256 309
#     4  10  22  38  55  75 100 134 171 206 254 315
#     4   9  17  30  48  70  99 136 175 211 250 301
#     4   9  16  26  43  69  99 129 163 209 266 315
#     4   8  14  26  46  72 101 131 160 191 234 290
#     4  10  20  34  54  80 106 130 164 211 257 298
#     4   9  17  29  47  71  97 128 168 215 260 304
#
# _framework density 18.490168000000001
#
# number of rings (size 3 to 8) (size 9 to 14) (size 15 to 20)
#    0.000    2.867    0.000    1.200    0.933    4.800 
#    0.000    1.333    0.000    2.000    0.000    1.867 
#    0.000    0.000    0.000    0.000    0.000    0.000 
#
# Total GULP energy -743483.820728 kJ/mol
# GULP energy per Si atom -12391.397012 kJ/mol
# Density = 1.844808 g / cm^3
# Si number density = 18.490168 Si / 1000 Ang^3
#
#
#
# Elastic Constant Matrix: (Units=GPa)
#
#
# Indices 1 2 3 4 5 6 
#
# 1 40.0017 36.4841 23.5891 0.0000 0.0000 0.0000
# 2 36.4841 105.0366 45.0730 0.0000 0.0000 0.0000
# 3 23.5891 45.0730 96.2665 -0.0001 0.0000 -0.0003
# 4 0.0000 0.0000 -0.0001 22.7512 0.0000 -0.0001
# 5 0.0000 0.0000 0.0000 0.0000 20.5132 0.0000
# 6 0.0000 0.0000 -0.0003 -0.0001 0.0000 88.7105
#
#
#
# Elastic Compliance Matrix: (Units=1/GPa)
#
#
# Indices 1 2 3 4 5 6 
#
# 1 0.037720 -0.011433 -0.003890 0.000000 0.000000 0.000000
# 2 -0.011433 0.015379 -0.004399 0.000000 0.000000 0.000000
# 3 -0.003890 -0.004399 0.013401 0.000000 0.000000 0.000000
# 4 0.000000 0.000000 0.000000 0.043954 0.000000 0.000000
# 5 0.000000 0.000000 0.000000 0.000000 0.048749 0.000000
# 6 0.000000 0.000000 0.000000 0.000000 0.000000 0.011273
#
#
# Mechanical properties :
#
#
# Convention : Reuss Voigt Hill
#
# Bulk Modulus (GPa) = 36.95987 50.17746 43.56866
# Shear Modulus (GPa) = 22.83738 35.47221 29.15480
#
# Velocity S-wave (km/s) = 3.51823 4.38475 3.97517
# Velocity P-wave (km/s) = 6.04452 7.26849 6.68458
#
# Compressibility (1/GPa) = 0.02705637
#
# Stress axis : x y z
#
# Youngs Moduli (GPa) = 26.51087 65.02180 74.62199
#
# Poissons Ratio (x) = 0.74338 0.29028
# Poissons Ratio (y) = 0.30309 0.32829
# Poissons Ratio (z) = 0.10313 0.28605
#
# Static dielectric constant tensor:
#      x y z
#    x 3.206320 0.000000 0.000000 
#    y 0.000000 3.406320 0.000000 
#    z 0.000000 0.000000 3.587060 
# 
# 
# High freq. dielectric constant tensor:
#      x y z
#    x 1.692600 0.000000 0.000000 
#    y 0.000000 1.709070 0.000000 
#    z 0.000000 0.000000 1.723690 
# 
# From -- ./inp_files/63802.got.cif
#   From: 2010.06.25/outbox.cif.g09.slc.cpg/sg71_32_cif.got.tgz:63802.got - 2010.06.28 04:59:45.
