data_PCOD8290415
_publ_section_title
;
Structure prediction by ZEFSAII (Michael W. Deem and Ramdas Pophale) SiO2 
 PCOD8290415
Probable space group: I M M M
;
_chemical_formula_sum "Si O2"
_cell_formula_units_Z 96
_cell_length_a 8.917865
_cell_length_b 19.549455
_cell_length_c 30.679911
_cell_angle_alpha 90.000000
_cell_angle_beta 90.000000
_cell_angle_gamma 90.000000
_cell_volume 5348.717292
_symmetry_space_group_name_H-M "I M M M"
_symmetry_group_IT_number 71
_symmetry_cell_setting 'orthorhombic'
loop_
_space_group_symop_operation_xyz
x,y,z
-x,-y,z
x,-y,-z
-x,y,-z
-x,-y,-z
x,y,-z
-x,y,z
x,-y,z
1/2+x,1/2+y,1/2+z
1/2-x,1/2-y,1/2+z
1/2+x,1/2-y,1/2-z
1/2-x,1/2+y,1/2-z
1/2-x,1/2-y,1/2-z
1/2+x,1/2+y,1/2-z
1/2-x,1/2+y,1/2+z
1/2+x,1/2-y,1/2+z
loop_
_atom_site_type_symbol
_atom_site_label
_atom_site_fract_x
_atom_site_fract_y
_atom_site_fract_z
Si Si1 0.329438 0.424417 0.673424
Si Si2 0.326141 0.287030 0.368774
Si Si3 0.824569 0.577575 0.763461
Si Si4 0.177496 0.789550 0.709527
Si Si5 0.331692 0.574220 0.051767
Si Si6 0.675671 0.208466 0.548331
O O1 0.500000 0.417501 0.691040
O O2 0.302446 0.500000 0.653298
O O3 0.298357 0.368276 0.636196
O O4 0.217746 0.410859 0.713129
O O5 0.500000 0.267873 0.360370
O O6 0.224155 0.245922 0.335204
O O7 0.277315 0.267999 0.418051
O O8 0.783070 0.500000 0.777919
O O9 0.733465 0.631794 0.792478
O O10 0.000000 0.591737 0.768811
O O11 0.250000 0.750000 0.750000
O O12 0.000000 0.787649 0.714973
O O13 0.500000 0.585795 0.069018
O O14 0.271843 0.500000 0.068650
O O15 0.230242 0.636323 0.068719
O O16 0.329390 0.573835 0.000000
O O17 0.745190 0.223241 0.500000
O O18 0.500000 0.203365 0.543764
#
# Coordination Sequence:
#
# PCOD8290415 Si02
#       6
#    16  16  16  16  16  16
#     4   9  17  30  50  74  99 132 174 215 254 302
#     4  10  20  34  52  75 104 137 173 216 262 308
#     4  10  20  34  53  77 106 139 174 213 256 304
#     4  12  23  35  53  77 106 138 172 212 258 310
#     4   8  14  26  45  68  93 122 159 205 254 301
#     4   9  18  32  50  73 101 134 172 213 259 308
#
# _framework density 17.948228
#
# number of rings (size 3 to 8) (size 9 to 14) (size 15 to 20)
#    0.000    2.333    1.667    2.500    0.000    2.000 
#    0.000    2.500    0.000    1.500    0.000    3.500 
#    0.000    0.000    0.000    9.833    0.000   10.333 
#
# Total GULP energy -594964.311198 kJ/mol
# GULP energy per Si atom -12395.089817 kJ/mol
# Density = 1.790738 g / cm^3
# Si number density = 17.948228 Si / 1000 Ang^3
#
#
#
# Elastic Constant Matrix: (Units=GPa)
#
#
# Indices 1 2 3 4 5 6 
#
# 1 70.0874 43.7855 33.7616 0.0000 0.0000 0.0000
# 2 43.7855 146.6138 60.2151 0.0000 0.0000 0.0000
# 3 33.7616 60.2151 75.8000 0.0000 0.0000 0.0000
# 4 0.0000 0.0000 0.0000 26.3439 0.0000 0.0000
# 5 0.0000 0.0000 0.0000 0.0000 17.6506 0.0000
# 6 0.0000 0.0000 0.0000 0.0000 0.0000 24.1507
#
#
#
# Elastic Compliance Matrix: (Units=1/GPa)
#
#
# Indices 1 2 3 4 5 6 
#
# 1 0.019181 -0.003294 -0.005926 0.000000 0.000000 0.000000
# 2 -0.003294 0.010689 -0.007024 0.000000 0.000000 0.000000
# 3 -0.005926 -0.007024 0.021412 0.000000 0.000000 0.000000
# 4 0.000000 0.000000 0.000000 0.037959 0.000000 0.000000
# 5 0.000000 0.000000 0.000000 0.000000 0.056655 0.000000
# 6 0.000000 0.000000 0.000000 0.000000 0.000000 0.041407
#
#
# Mechanical properties :
#
#
# Convention : Reuss Voigt Hill
#
# Bulk Modulus (GPa) = 53.21210 63.11395 58.16303
# Shear Modulus (GPa) = 22.11828 23.94497 23.03163
#
# Velocity S-wave (km/s) = 3.51428 3.65651 3.58610
# Velocity P-wave (km/s) = 6.79550 7.28475 7.04437
#
# Compressibility (1/GPa) = 0.01879272
#
# Stress axis : x y z
#
# Youngs Moduli (GPa) = 52.13600 93.55081 46.70231
#
# Poissons Ratio (x) = 0.30818 0.27677
# Poissons Ratio (y) = 0.17175 0.32805
# Poissons Ratio (z) = 0.30897 0.65713
#
# Static dielectric constant tensor:
#      x y z
#    x 3.334220 0.000000 0.000000 
#    y 0.000000 3.816190 0.000000 
#    z 0.000000 0.000000 3.185720 
# 
# 
# High freq. dielectric constant tensor:
#      x y z
#    x 1.691740 0.000000 0.000000 
#    y 0.000000 1.706450 0.000000 
#    z 0.000000 0.000000 1.653490 
# 
# From -- ./inp_files/63218.got.cif
#   From: 2010.06.25/outbox.cif.g09.slc.cpg/sg71_32_cif.got.tgz:63218.got - 2010.06.28 04:59:45.
