data_PCOD8290853
_publ_section_title
;
Structure prediction by ZEFSAII (Michael W. Deem and Ramdas Pophale) SiO2 
 PCOD8290853
Probable space group: I M M M
;
_chemical_formula_sum "Si O2"
_cell_formula_units_Z 88
_cell_length_a 9.320669
_cell_length_b 20.458969
_cell_length_c 24.382067
_cell_angle_alpha 90.000000
_cell_angle_beta 90.000000
_cell_angle_gamma 90.000000
_cell_volume 4649.447520
_symmetry_space_group_name_H-M "I M M M"
_symmetry_group_IT_number 71
_symmetry_cell_setting 'orthorhombic'
loop_
_space_group_symop_operation_xyz
x,y,z
-x,-y,z
x,-y,-z
-x,y,-z
-x,-y,-z
x,y,-z
-x,y,z
x,-y,z
1/2+x,1/2+y,1/2+z
1/2-x,1/2-y,1/2+z
1/2+x,1/2-y,1/2-z
1/2-x,1/2+y,1/2-z
1/2-x,1/2-y,1/2-z
1/2+x,1/2+y,1/2-z
1/2-x,1/2+y,1/2+z
1/2+x,1/2-y,1/2+z
loop_
_atom_site_type_symbol
_atom_site_label
_atom_site_fract_x
_atom_site_fract_y
_atom_site_fract_z
Si Si1 0.168543 0.426168 0.677259
Si Si2 0.835396 0.196904 0.785337
Si Si3 0.159779 0.000000 0.565607
Si Si4 0.665280 0.880261 0.940526
Si Si5 0.159754 0.380468 0.064604
Si Si6 0.161756 0.239484 0.909298
O O1 0.205012 0.500000 0.696727
O O2 0.257192 0.374247 0.714054
O O3 0.213225 0.422466 0.612414
O O4 0.000000 0.411185 0.684638
O O5 0.750000 0.250000 0.750000
O O6 0.833379 0.224773 0.845711
O O7 0.000000 0.188887 0.764264
O O8 0.239865 0.063432 0.589609
O O9 0.158352 0.000000 0.500000
O O10 0.000000 0.000000 0.589477
O O11 0.500000 0.862548 0.933833
O O12 0.748314 0.812211 0.943401
O O13 0.692247 0.915971 0.000000
O O14 0.228464 0.311025 0.080703
O O15 0.000000 0.387566 0.089980
O O16 0.151735 0.388675 0.000000
O O17 0.000000 0.238099 0.932343
#
# Coordination Sequence:
#
# PCOD8290853 Si02
#       6
#    16  16   8  16  16  16
#     4   9  18  33  53  77 106 140 176 212 252 301
#     4  10  20  35  56  78 100 127 165 212 261 312
#     4   9  17  27  39  59  87 119 153 187 227 275
#     4   9  17  28  44  71 106 140 172 205 243 287
#     4   9  16  27  44  64  88 120 156 191 229 279
#     4   9  18  31  48  70  94 124 163 204 246 294
#
# _framework density 18.92698
#
# number of rings (size 3 to 8) (size 9 to 14) (size 15 to 20)
#    0.000    2.818    0.000    1.364    0.000    4.364 
#    0.000    3.636    2.000    0.000    0.000    5.091 
#    0.000    0.000    0.000    0.000    0.000    0.000 
#
# Total GULP energy -545283.757305 kJ/mol
# GULP energy per Si atom -12392.812666 kJ/mol
# Density = 1.888390 g / cm^3
# Si number density = 18.926980 Si / 1000 Ang^3
#
#
#
# Elastic Constant Matrix: (Units=GPa)
#
#
# Indices 1 2 3 4 5 6 
#
# 1 87.8590 58.5286 19.6778 0.0000 0.0000 0.0000
# 2 58.5286 135.4129 18.9458 0.0000 0.0000 0.0000
# 3 19.6778 18.9458 36.0336 0.0000 0.0000 0.0000
# 4 0.0000 0.0000 0.0000 20.5724 0.0000 0.0000
# 5 0.0000 0.0000 0.0000 0.0000 18.9408 0.0000
# 6 0.0000 0.0000 0.0000 0.0000 0.0000 29.0969
#
#
#
# Elastic Compliance Matrix: (Units=1/GPa)
#
#
# Indices 1 2 3 4 5 6 
#
# 1 0.017063 -0.006553 -0.005872 0.000000 0.000000 0.000000
# 2 -0.006553 0.010488 -0.001936 0.000000 0.000000 0.000000
# 3 -0.005872 -0.001936 0.031977 0.000000 0.000000 0.000000
# 4 0.000000 0.000000 0.000000 0.048609 0.000000 0.000000
# 5 0.000000 0.000000 0.000000 0.000000 0.052796 0.000000
# 6 0.000000 0.000000 0.000000 0.000000 0.000000 0.034368
#
#
# Mechanical properties :
#
#
# Convention : Reuss Voigt Hill
#
# Bulk Modulus (GPa) = 32.46258 50.40111 41.43184
# Shear Modulus (GPa) = 21.34099 24.53223 22.93661
#
# Velocity S-wave (km/s) = 3.36153 3.60412 3.48494
# Velocity P-wave (km/s) = 5.67937 6.63375 6.17502
#
# Compressibility (1/GPa) = 0.03080470
#
# Stress axis : x y z
#
# Youngs Moduli (GPa) = 58.60750 95.34587 31.27297
#
# Poissons Ratio (x) = 0.62483 0.18364
# Poissons Ratio (y) = 0.38407 0.06054
# Poissons Ratio (z) = 0.34416 0.18457
#
# Static dielectric constant tensor:
#      x y z
#    x 3.661330 0.000000 0.000000 
#    y 0.000000 3.531890 0.000000 
#    z 0.000000 0.000000 3.267260 
# 
# 
# High freq. dielectric constant tensor:
#      x y z
#    x 1.731630 0.000000 0.000000 
#    y 0.000000 1.737390 0.000000 
#    z 0.000000 0.000000 1.703070 
# 
# From -- ./inp_files/50791.got.cif
#   From: 2010.06.25/outbox.cif.g09.slc.cpg/sg71_26_cif.got.tgz:50791.got - 2010.06.28 04:59:45.
