data_PCOD8290348
_publ_section_title
;
Structure prediction by ZEFSAII (Michael W. Deem and Ramdas Pophale) SiO2 
 PCOD8290348
Probable space group: I M M M
;
_chemical_formula_sum "Si O2"
_cell_formula_units_Z 120
_cell_length_a 20.432069
_cell_length_b 14.004881
_cell_length_c 23.361126
_cell_angle_alpha 90.000000
_cell_angle_beta 90.000000
_cell_angle_gamma 90.000000
_cell_volume 6684.755717
_symmetry_space_group_name_H-M "I M M M"
_symmetry_group_IT_number 71
_symmetry_cell_setting 'orthorhombic'
loop_
_space_group_symop_operation_xyz
x,y,z
-x,-y,z
x,-y,-z
-x,y,-z
-x,-y,-z
x,y,-z
-x,y,z
x,-y,z
1/2+x,1/2+y,1/2+z
1/2-x,1/2-y,1/2+z
1/2+x,1/2-y,1/2-z
1/2-x,1/2+y,1/2-z
1/2-x,1/2-y,1/2-z
1/2+x,1/2+y,1/2-z
1/2-x,1/2+y,1/2+z
1/2+x,1/2-y,1/2+z
loop_
_atom_site_type_symbol
_atom_site_label
_atom_site_fract_x
_atom_site_fract_y
_atom_site_fract_z
Si Si1 0.575839 0.605607 0.350151
Si Si2 0.875872 0.393374 0.628063
Si Si3 0.575897 0.894581 0.743529
Si Si4 0.799049 0.611562 0.933672
Si Si5 0.277348 0.259365 0.845037
Si Si6 0.500000 0.886364 0.936230
Si Si7 0.073999 0.727281 0.934148
Si Si8 0.657160 0.714091 0.730542
O O1 0.500000 0.612560 0.336854
O O2 0.595622 0.500000 0.371245
O O3 0.596837 0.679872 0.399166
O O4 0.611556 0.627878 0.290197
O O5 0.856520 0.500000 0.606682
O O6 0.903787 0.399391 0.691209
O O7 0.813023 0.325734 0.620941
O O8 0.933894 0.345887 0.591379
O O9 0.500000 0.865571 0.737224
O O10 0.620956 0.814293 0.714408
O O11 0.588283 0.000000 0.715965
O O12 0.794286 0.500000 0.920394
O O13 0.748477 0.664231 0.891050
O O14 0.874076 0.643357 0.921747
O O15 0.780369 0.633474 0.000000
O O16 0.327878 0.303680 0.797914
O O17 0.221786 0.209864 0.807477
O O18 0.500000 0.000000 0.929142
O O19 0.500000 0.849293 0.000000
O O20 0.000000 0.693405 0.917023
O O21 0.075362 0.758164 0.000000
#
# Coordination Sequence:
#
# PCOD8290348 Si02
#       8
#    16  16  16  16  16   8  16  16
#     4  10  20  34  53  77 107 142 178 219 263 309
#     4   9  17  31  51  76 105 137 171 207 256 319
#     4   9  16  29  51  75 102 139 177 215 261 310
#     4  10  21  38  58  78 105 141 181 227 273 315
#     4  10  21  35  52  76 106 144 181 215 262 317
#     4   9  16  28  50  80 109 131 159 209 267 316
#     4   9  18  35  58  81 106 137 177 225 268 313
#     4  10  20  34  50  75 109 143 180 220 261 310
#
# _framework density 17.951291999999999
#
# number of rings (size 3 to 8) (size 9 to 14) (size 15 to 20)
#    0.000    2.467    2.000    0.400    0.000    2.667 
#    0.000    5.333    0.000    0.000    0.000    0.000 
#    0.000    1.600    0.000    0.000    0.000    0.000 
#
# Total GULP energy -743689.952060 kJ/mol
# GULP energy per Si atom -12394.832534 kJ/mol
# Density = 1.791043 g / cm^3
# Si number density = 17.951292 Si / 1000 Ang^3
#
#
#
# Elastic Constant Matrix: (Units=GPa)
#
#
# Indices 1 2 3 4 5 6 
#
# 1 94.3067 64.7463 36.0703 0.0000 0.0000 0.0000
# 2 64.7463 99.8210 49.5211 0.0000 0.0000 0.0000
# 3 36.0703 49.5211 56.9060 0.0000 0.0000 0.0000
# 4 0.0000 0.0000 0.0000 22.7962 0.0000 0.0000
# 5 0.0000 0.0000 0.0000 0.0000 23.0801 0.0000
# 6 0.0000 0.0000 0.0000 0.0000 0.0000 29.5087
#
#
#
# Elastic Compliance Matrix: (Units=1/GPa)
#
#
# Indices 1 2 3 4 5 6 
#
# 1 0.019295 -0.011346 -0.002357 0.000000 0.000000 0.000000
# 2 -0.011346 0.024300 -0.013955 0.000000 0.000000 0.000000
# 3 -0.002357 -0.013955 0.031211 0.000000 0.000000 0.000000
# 4 0.000000 0.000000 0.000000 0.043867 0.000000 0.000000
# 5 0.000000 0.000000 0.000000 0.000000 0.043327 0.000000
# 6 0.000000 0.000000 0.000000 0.000000 0.000000 0.033888
#
#
# Mechanical properties :
#
#
# Convention : Reuss Voigt Hill
#
# Bulk Modulus (GPa) = 51.30706 61.30103 56.30404
# Shear Modulus (GPa) = 19.40244 21.79007 20.59625
#
# Velocity S-wave (km/s) = 3.29118 3.48781 3.39092
# Velocity P-wave (km/s) = 6.56398 7.10228 6.83843
#
# Compressibility (1/GPa) = 0.01949050
#
# Stress axis : x y z
#
# Youngs Moduli (GPa) = 51.82823 41.15195 32.04039
#
# Poissons Ratio (x) = 0.46690 0.07550
# Poissons Ratio (y) = 0.58803 0.44713
# Poissons Ratio (z) = 0.12214 0.57428
#
# Static dielectric constant tensor:
#      x y z
#    x 3.378680 0.000000 0.000000 
#    y 0.000000 3.539610 0.000000 
#    z 0.000000 0.000000 3.357950 
# 
# 
# High freq. dielectric constant tensor:
#      x y z
#    x 1.697560 0.000000 0.000000 
#    y 0.000000 1.674450 0.000000 
#    z 0.000000 0.000000 1.690460 
# 
# From -- ./inp_files/66641.got.cif
#   From: 2010.06.25/outbox.cif.g09.slc.cpg/sg71_34_cif.got.tgz:66641.got - 2010.06.28 04:59:45.
