data_PCOD8290763
_publ_section_title
;
Structure prediction by ZEFSAII (Michael W. Deem and Ramdas Pophale) SiO2 
 PCOD8290763
Probable space group: I M M M
;
_chemical_formula_sum "Si O2"
_cell_formula_units_Z 96
_cell_length_a 13.865791
_cell_length_b 12.780696
_cell_length_c 29.616637
_cell_angle_alpha 90.000000
_cell_angle_beta 90.000000
_cell_angle_gamma 90.000000
_cell_volume 5248.496320
_symmetry_space_group_name_H-M "I M M M"
_symmetry_group_IT_number 71
_symmetry_cell_setting 'orthorhombic'
loop_
_space_group_symop_operation_xyz
x,y,z
-x,-y,z
x,-y,-z
-x,y,-z
-x,-y,-z
x,y,-z
-x,y,z
x,-y,z
1/2+x,1/2+y,1/2+z
1/2-x,1/2-y,1/2+z
1/2+x,1/2-y,1/2-z
1/2-x,1/2+y,1/2-z
1/2-x,1/2-y,1/2-z
1/2+x,1/2+y,1/2-z
1/2-x,1/2+y,1/2+z
1/2+x,1/2-y,1/2+z
loop_
_atom_site_type_symbol
_atom_site_label
_atom_site_fract_x
_atom_site_fract_y
_atom_site_fract_z
Si Si1 0.612789 0.226535 0.447257
Si Si2 0.888606 0.811029 0.732264
Si Si3 0.225154 0.382670 0.705601
Si Si4 0.105243 0.500000 0.946716
Si Si5 0.112119 0.882409 0.367642
Si Si6 0.613286 0.000000 0.947406
Si Si7 0.280042 0.817455 0.103496
O O1 0.629007 0.247119 0.500000
O O2 0.500000 0.238552 0.434956
O O3 0.675025 0.309885 0.419548
O O4 0.653997 0.110379 0.433007
O O5 0.855649 0.690620 0.727971
O O6 0.829331 0.866803 0.771738
O O7 0.867884 0.870604 0.685606
O O8 0.000000 0.814645 0.745995
O O9 0.188671 0.500000 0.713482
O O10 0.236607 0.361574 0.652943
O O11 0.000000 0.500000 0.924019
O O12 0.091702 0.500000 0.000000
O O13 0.169900 0.796491 0.396190
O O14 0.000000 0.864358 0.377847
O O15 0.143918 0.000000 0.382052
O O16 0.654723 0.104302 0.925017
O O17 0.500000 0.000000 0.938921
O O18 0.639784 0.000000 0.000000
#
# Coordination Sequence:
#
# PCOD8290763 Si02
#       7
#    16  16  16   8  16   8  16
#     4   9  18  33  53  77 107 143 185 228 275 336
#     4   9  19  35  56  79 109 148 182 217 267 325
#     4  10  20  35  53  82 112 141 185 228 266 322
#     4   7  12  26  48  72  96 129 174 216 254 309
#     4   9  18  33  54  82 111 142 180 225 281 340
#     4  11  24  42  61  79 106 147 195 245 291 338
#     4  11  21  35  56  83 111 145 186 233 282 332
#
# _framework density 18.290953999999999
#
# number of rings (size 3 to 8) (size 9 to 14) (size 15 to 20)
#    0.000    2.500    0.833    2.500    1.167    2.667 
#    0.000    0.417    0.000    1.500    0.000    3.500 
#    0.000    0.000    0.000    0.000    0.000    0.000 
#
# Total GULP energy -594995.897644 kJ/mol
# GULP energy per Si atom -12395.747868 kJ/mol
# Density = 1.824932 g / cm^3
# Si number density = 18.290954 Si / 1000 Ang^3
#
#
#
# Elastic Constant Matrix: (Units=GPa)
#
#
# Indices 1 2 3 4 5 6 
#
# 1 78.4670 40.9549 38.6586 0.0000 0.0000 0.0000
# 2 40.9549 124.5708 38.8942 0.0000 0.0000 0.0000
# 3 38.6586 38.8942 71.5886 0.0000 0.0000 0.0000
# 4 0.0000 0.0000 0.0000 23.4129 0.0000 0.0000
# 5 0.0000 0.0000 0.0000 0.0000 26.0198 0.0000
# 6 0.0000 0.0000 0.0000 0.0000 0.0000 24.8988
#
#
#
# Elastic Compliance Matrix: (Units=1/GPa)
#
#
# Indices 1 2 3 4 5 6 
#
# 1 0.018607 -0.003589 -0.008098 0.000000 0.000000 0.000000
# 2 -0.003589 0.010360 -0.003690 0.000000 0.000000 0.000000
# 3 -0.008098 -0.003690 0.020347 0.000000 0.000000 0.000000
# 4 0.000000 0.000000 0.000000 0.042712 0.000000 0.000000
# 5 0.000000 0.000000 0.000000 0.000000 0.038432 0.000000
# 6 0.000000 0.000000 0.000000 0.000000 0.000000 0.040163
#
#
# Mechanical properties :
#
#
# Convention : Reuss Voigt Hill
#
# Bulk Modulus (GPa) = 53.88325 56.84910 55.36617
# Shear Modulus (GPa) = 24.08926 25.27421 24.68174
#
# Velocity S-wave (km/s) = 3.63299 3.72127 3.67740
# Velocity P-wave (km/s) = 6.86448 7.04356 6.95460
#
# Compressibility (1/GPa) = 0.01855864
#
# Stress axis : x y z
#
# Youngs Moduli (GPa) = 53.74264 96.52755 49.14778
#
# Poissons Ratio (x) = 0.34644 0.39801
# Poissons Ratio (y) = 0.19288 0.18137
# Poissons Ratio (z) = 0.43522 0.35622
#
# Static dielectric constant tensor:
#      x y z
#    x 3.243120 0.000000 0.000000 
#    y 0.000000 3.597840 0.000000 
#    z 0.000000 0.000000 3.190190 
# 
# 
# High freq. dielectric constant tensor:
#      x y z
#    x 1.702580 0.000000 0.000000 
#    y 0.000000 1.720710 0.000000 
#    z 0.000000 0.000000 1.692890 
# 
# From -- ./inp_files/69916.got.cif
#   From: 2010.06.25/outbox.cif.g09.slc.cpg/sg71_35_cif.got.tgz:69916.got - 2010.06.28 04:59:45.
