data_PCOD8290046
_publ_section_title
;
Structure prediction by ZEFSAII (Michael W. Deem and Ramdas Pophale) SiO2 
 PCOD8290046
Probable space group: I M M M
;
_chemical_formula_sum "Si O2"
_cell_formula_units_Z 104
_cell_length_a 29.915618
_cell_length_b 12.360390
_cell_length_c 15.635230
_cell_angle_alpha 90.000000
_cell_angle_beta 90.000000
_cell_angle_gamma 90.000000
_cell_volume 5781.418758
_symmetry_space_group_name_H-M "I M M M"
_symmetry_group_IT_number 71
_symmetry_cell_setting 'orthorhombic'
loop_
_space_group_symop_operation_xyz
x,y,z
-x,-y,z
x,-y,-z
-x,y,-z
-x,-y,-z
x,y,-z
-x,y,z
x,-y,z
1/2+x,1/2+y,1/2+z
1/2-x,1/2-y,1/2+z
1/2+x,1/2-y,1/2-z
1/2-x,1/2+y,1/2-z
1/2-x,1/2-y,1/2-z
1/2+x,1/2+y,1/2-z
1/2-x,1/2+y,1/2+z
1/2+x,1/2-y,1/2+z
loop_
_atom_site_type_symbol
_atom_site_label
_atom_site_fract_x
_atom_site_fract_y
_atom_site_fract_z
Si Si1 0.149319 0.373649 0.500000
Si Si2 0.211841 0.269883 0.139492
Si Si3 0.120754 0.261356 0.666734
Si Si4 0.120293 0.371428 0.852174
Si Si5 0.250413 0.127603 0.000000
Si Si6 0.797254 0.126241 0.695921
Si Si7 0.051906 0.628222 0.000000
Si Si8 0.949213 0.121932 0.595191
O O1 0.153807 0.500000 0.500000
O O2 0.123960 0.343061 0.587184
O O3 0.199428 0.325258 0.500000
O O4 0.167130 0.330674 0.107270
O O5 0.223945 0.169410 0.081114
O O6 0.204522 0.213142 0.229029
O O7 0.251971 0.358365 0.140884
O O8 0.118450 0.323471 0.756645
O O9 0.158125 0.168038 0.649491
O O10 0.073962 0.199990 0.662675
O O11 0.120857 0.500000 0.845008
O O12 0.079245 0.333631 0.914404
O O13 0.248943 0.000000 0.000000
O O14 0.801668 0.000000 0.722214
O O15 0.050230 0.500000 0.000000
O O16 0.000000 0.672636 0.000000
O O17 0.928050 0.132885 0.500000
O O18 0.000000 0.158497 0.591290
O O19 0.944581 0.000000 0.628572
#
# Coordination Sequence:
#
# PCOD8290046 Si02
#       8
#     8  16  16  16   8  16   8  16
#     4  11  22  35  50  74 113 151 184 220 262 326
#     4  10  20  34  51  75 105 140 184 228 273 333
#     4  11  20  35  54  80 111 146 189 222 271 338
#     4  10  21  36  58  83 110 146 185 233 288 341
#     4  11  21  35  53  74 104 145 189 228 273 326
#     4  10  20  33  49  73 105 142 181 228 271 314
#     4   9  19  38  60  82 106 134 179 237 288 332
#     4   9  18  33  54  78 107 145 185 229 276 320
#
# _framework density 17.988662999999999
#
# number of rings (size 3 to 8) (size 9 to 14) (size 15 to 20)
#    0.000    1.923    2.308    2.769    0.000    0.615 
#    0.000    1.923    0.000    1.846    0.000    0.000 
#    0.000   22.769    0.000    0.000    0.000    0.000 
#
# Total GULP energy -644298.618771 kJ/mol
# GULP energy per Si atom -12390.358053 kJ/mol
# Density = 1.794772 g / cm^3
# Si number density = 17.988663 Si / 1000 Ang^3
#
#
#
# Elastic Constant Matrix: (Units=GPa)
#
#
# Indices 1 2 3 4 5 6 
#
# 1 116.3913 45.9610 48.2970 0.0000 0.0000 0.0000
# 2 45.9610 80.6448 24.9965 0.0000 0.0000 0.0000
# 3 48.2970 24.9965 85.9764 0.0000 0.0000 0.0000
# 4 0.0000 0.0000 0.0000 27.9556 0.0000 0.0000
# 5 0.0000 0.0000 0.0000 0.0000 30.7144 0.0000
# 6 0.0000 0.0000 0.0000 0.0000 0.0000 28.9302
#
#
#
# Elastic Compliance Matrix: (Units=1/GPa)
#
#
# Indices 1 2 3 4 5 6 
#
# 1 0.013267 -0.005771 -0.005775 0.000000 0.000000 0.000000
# 2 -0.005771 0.016139 -0.001450 0.000000 0.000000 0.000000
# 3 -0.005775 -0.001450 0.015297 0.000000 0.000000 0.000000
# 4 0.000000 0.000000 0.000000 0.035771 0.000000 0.000000
# 5 0.000000 0.000000 0.000000 0.000000 0.032558 0.000000
# 6 0.000000 0.000000 0.000000 0.000000 0.000000 0.034566
#
#
# Mechanical properties :
#
#
# Convention : Reuss Voigt Hill
#
# Bulk Modulus (GPa) = 53.44717 57.94684 55.69700
# Shear Modulus (GPa) = 27.80467 28.43725 28.12096
#
# Velocity S-wave (km/s) = 3.93578 3.98029 3.95810
# Velocity P-wave (km/s) = 7.10140 7.30798 7.20543
#
# Compressibility (1/GPa) = 0.01871007
#
# Stress axis : x y z
#
# Youngs Moduli (GPa) = 75.37556 61.96315 65.37364
#
# Poissons Ratio (x) = 0.35760 0.37752
# Poissons Ratio (y) = 0.43500 0.09480
# Poissons Ratio (z) = 0.43528 0.08986
#
# Static dielectric constant tensor:
#      x y z
#    x 3.615220 0.000000 0.000000 
#    y 0.000000 3.101570 0.000000 
#    z 0.000000 0.000000 2.882050 
# 
# 
# High freq. dielectric constant tensor:
#      x y z
#    x 1.700400 0.000000 0.000000 
#    y 0.000000 1.688160 0.000000 
#    z 0.000000 0.000000 1.690490 
# 
# From -- ./inp_files/48908.got.cif
#   From: 2010.06.25/outbox.cif.g09.slc.cpg/sg71_25_cif.got.tgz:48908.got - 2010.06.28 04:59:45.
