data_PCOD8290684
_publ_section_title
;
Structure prediction by ZEFSAII (Michael W. Deem and Ramdas Pophale) SiO2 
 PCOD8290684
Probable space group: I M M M
;
_chemical_formula_sum "Si O2"
_cell_formula_units_Z 112
_cell_length_a 26.978966
_cell_length_b 13.664458
_cell_length_c 14.752235
_cell_angle_alpha 90.000000
_cell_angle_beta 90.000000
_cell_angle_gamma 90.000000
_cell_volume 5438.454919
_symmetry_space_group_name_H-M "I M M M"
_symmetry_group_IT_number 71
_symmetry_cell_setting 'orthorhombic'
loop_
_space_group_symop_operation_xyz
x,y,z
-x,-y,z
x,-y,-z
-x,y,-z
-x,-y,-z
x,y,-z
-x,y,z
x,-y,z
1/2+x,1/2+y,1/2+z
1/2-x,1/2-y,1/2+z
1/2+x,1/2-y,1/2-z
1/2-x,1/2+y,1/2-z
1/2-x,1/2-y,1/2-z
1/2+x,1/2+y,1/2-z
1/2-x,1/2+y,1/2+z
1/2+x,1/2-y,1/2+z
loop_
_atom_site_type_symbol
_atom_site_label
_atom_site_fract_x
_atom_site_fract_y
_atom_site_fract_z
Si Si1 0.653201 0.387679 0.901837
Si Si2 0.672228 0.112502 0.258051
Si Si3 0.944026 0.114923 0.152474
Si Si4 0.446097 0.303120 0.852217
Si Si5 0.350961 0.728476 0.397975
Si Si6 0.595216 0.890642 0.894900
Si Si7 0.716182 0.383451 0.265838
O O1 0.644482 0.500000 0.878285
O O2 0.599219 0.339363 0.912732
O O3 0.686075 0.341624 0.821586
O O4 0.679783 0.374580 0.000000
O O5 0.644780 0.174070 0.336643
O O6 0.645702 0.124417 0.161367
O O7 0.727668 0.154307 0.244528
O O8 0.672576 0.000000 0.290488
O O9 0.938036 0.154292 0.253295
O O10 0.903997 0.173724 0.093954
O O11 0.000000 0.133870 0.116088
O O12 0.931585 0.000000 0.149670
O O13 0.500000 0.337365 0.889440
O O14 0.445491 0.184641 0.855995
O O15 0.334994 0.757032 0.500000
O O16 0.309436 0.656728 0.356357
O O17 0.573877 0.000000 0.880942
O O18 0.607871 0.871010 0.000000
O O19 0.715700 0.500000 0.270487
#
# Coordination Sequence:
#
# PCOD8290684 Si02
#       7
#    16  16  16  16  16  16  16
#     4  10  20  34  55  84 118 155 194 236 287 353
#     4  10  22  42  64  86 120 162 204 251 300 351
#     4  10  21  39  63  89 119 156 197 243 299 362
#     4  11  21  35  58  84 115 156 195 237 289 351
#     4  12  24  38  61  92 123 158 203 250 300 356
#     4  10  21  38  61  88 118 154 198 245 294 349
#     4  10  21  39  61  86 120 157 197 246 299 352
#
# _framework density 20.594085
#
# number of rings (size 3 to 8) (size 9 to 14) (size 15 to 20)
#    0.000    1.571    2.857    1.714    0.000    5.143 
#    0.000    5.000    0.000    0.429    0.000    1.000 
#    0.000    0.000    0.000    0.000    0.000    0.000 
#
# Total GULP energy -694256.703568 kJ/mol
# GULP energy per Si atom -12397.441135 kJ/mol
# Density = 2.054721 g / cm^3
# Si number density = 20.594085 Si / 1000 Ang^3
#
#
#
# Elastic Constant Matrix: (Units=GPa)
#
#
# Indices 1 2 3 4 5 6 
#
# 1 102.1552 30.2734 37.5923 0.0000 0.0000 0.0000
# 2 30.2734 68.7436 26.7596 0.0000 0.0000 0.0000
# 3 37.5923 26.7596 105.3517 0.0000 0.0000 0.0000
# 4 0.0000 0.0000 0.0000 21.6082 0.0000 0.0000
# 5 0.0000 0.0000 0.0000 0.0000 -1.8974 0.0000
# 6 0.0000 0.0000 0.0000 0.0000 0.0000 32.5754
#
#
#
# Elastic Compliance Matrix: (Units=1/GPa)
#
#
# Indices 1 2 3 4 5 6 
#
# 1 0.012224 -0.004090 -0.003323 0.000000 0.000000 0.000000
# 2 -0.004090 0.017511 -0.002989 0.000000 0.000000 0.000000
# 3 -0.003323 -0.002989 0.011437 0.000000 0.000000 0.000000
# 4 0.000000 0.000000 0.000000 0.046279 0.000000 0.000000
# 5 0.000000 0.000000 0.000000 0.000000 -0.527044 0.000000
# 6 0.000000 0.000000 0.000000 0.000000 0.000000 0.030698
#
#
# Mechanical properties :
#
#
# Convention : Reuss Voigt Hill
#
# Bulk Modulus (GPa) = 49.09325 51.72237 50.40781
# Shear Modulus (GPa) = -13.11293 22.56559 4.72633
#
# Velocity S-wave (km/s) = -2.52609 3.31377 1.51657
# Velocity P-wave (km/s) = 3.92200 6.30961 5.25325
#
# Compressibility (1/GPa) = 0.02036940
#
# Stress axis : x y z
#
# Youngs Moduli (GPa) = 81.80754 57.10645 87.43655
#
# Poissons Ratio (x) = 0.23354 0.29055
# Poissons Ratio (y) = 0.33456 0.26131
# Poissons Ratio (z) = 0.27185 0.17067
#
# Static dielectric constant tensor:
#      x y z
#    x 3.827340 0.000000 0.000000 
#    y 0.000000 3.929960 0.000000 
#    z 0.000000 0.000000 3.592430 
# 
# 
# High freq. dielectric constant tensor:
#      x y z
#    x 1.800520 0.000000 0.000000 
#    y 0.000000 1.817950 0.000000 
#    z 0.000000 0.000000 1.796110 
# 
# From -- ./inp_files/40338.got.cif
#   From: 2010.06.25/outbox.cif.g09.slc.cpg/sg71_21_cif.got.tgz:40338.got - 2010.06.28 04:59:45.
