data_PCOD8290571
_publ_section_title
;
Structure prediction by ZEFSAII (Michael W. Deem and Ramdas Pophale) SiO2 
 PCOD8290571
Probable space group: I M M M
;
_chemical_formula_sum "Si O2"
_cell_formula_units_Z 72
_cell_length_a 23.395601
_cell_length_b 17.215726
_cell_length_c 8.956427
_cell_angle_alpha 90.000000
_cell_angle_beta 90.000000
_cell_angle_gamma 90.000000
_cell_volume 3607.400312
_symmetry_space_group_name_H-M "I M M M"
_symmetry_group_IT_number 71
_symmetry_cell_setting 'orthorhombic'
loop_
_space_group_symop_operation_xyz
x,y,z
-x,-y,z
x,-y,-z
-x,y,-z
-x,-y,-z
x,y,-z
-x,y,z
x,-y,z
1/2+x,1/2+y,1/2+z
1/2-x,1/2-y,1/2+z
1/2+x,1/2-y,1/2-z
1/2-x,1/2+y,1/2-z
1/2-x,1/2-y,1/2-z
1/2+x,1/2+y,1/2-z
1/2-x,1/2+y,1/2+z
1/2+x,1/2-y,1/2+z
loop_
_atom_site_type_symbol
_atom_site_label
_atom_site_fract_x
_atom_site_fract_y
_atom_site_fract_z
Si Si1 0.230713 0.170086 0.823328
Si Si2 0.829049 0.590987 0.164479
Si Si3 0.500000 0.410158 0.826438
Si Si4 0.624347 0.408770 0.822991
Si Si5 0.562652 0.907558 0.167360
O O1 0.250000 0.250000 0.750000
O O2 0.276949 0.106050 0.775774
O O3 0.169085 0.143870 0.764887
O O4 0.228765 0.178271 0.000000
O O5 0.836951 0.500000 0.150037
O O6 0.887825 0.628089 0.228346
O O7 0.817438 0.627168 0.000000
O O8 0.500000 0.500000 0.790320
O O9 0.561232 0.378385 0.766447
O O10 0.500000 0.394410 0.000000
O O11 0.632989 0.500000 0.785093
O O12 0.632000 0.396337 0.000000
O O13 0.500000 0.881670 0.227272
O O14 0.566545 0.000000 0.164662
O O15 0.571634 0.875391 0.000000
#
# Coordination Sequence:
#
# PCOD8290571 Si02
#       5
#    16  16   8  16  16
#     4  12  25  39  55  75 106 146 186 229 277 329
#     4  10  20  34  54  80 108 138 176 222 270 321
#     4   7  12  26  53  87 117 145 176 213 262 323
#     4   9  17  33  59  89 118 147 182 223 269 327
#     4   8  14  26  46  73 104 136 170 210 256 305
#
# _framework density 19.958971999999999
#
# number of rings (size 3 to 8) (size 9 to 14) (size 15 to 20)
#    0.000    2.556    0.000    5.333    0.000    4.889 
#    0.000    2.778    2.444    2.000    0.000    0.000 
#    0.000    0.000    0.000    0.000    0.000    0.000 
#
# Total GULP energy -446034.819230 kJ/mol
# GULP energy per Si atom -12389.856090 kJ/mol
# Density = 1.991354 g / cm^3
# Si number density = 19.958972 Si / 1000 Ang^3
#
#
#
# Elastic Constant Matrix: (Units=GPa)
#
#
# Indices 1 2 3 4 5 6 
#
# 1 208.3391 41.0732 81.5479 0.0000 0.0000 0.0000
# 2 41.0732 37.9227 34.2737 0.0000 0.0000 0.0000
# 3 81.5479 34.2737 124.9955 0.0000 0.0000 0.0000
# 4 0.0000 0.0000 0.0000 21.0524 0.0000 0.0000
# 5 0.0000 0.0000 0.0000 0.0000 38.0837 0.0000
# 6 0.0000 0.0000 0.0000 0.0000 0.0000 13.7889
#
#
#
# Elastic Compliance Matrix: (Units=1/GPa)
#
#
# Indices 1 2 3 4 5 6 
#
# 1 0.007000 -0.004592 -0.003308 0.000000 0.000000 0.000000
# 2 -0.004592 0.038069 -0.007443 0.000000 0.000000 0.000000
# 3 -0.003308 -0.007443 0.012199 0.000000 0.000000 0.000000
# 4 0.000000 0.000000 0.000000 0.047501 0.000000 0.000000
# 5 0.000000 0.000000 0.000000 0.000000 0.026258 0.000000
# 6 0.000000 0.000000 0.000000 0.000000 0.000000 0.072522
#
#
# Mechanical properties :
#
#
# Convention : Reuss Voigt Hill
#
# Bulk Modulus (GPa) = 37.61727 76.11634 56.86680
# Shear Modulus (GPa) = 20.56811 28.87584 24.72198
#
# Velocity S-wave (km/s) = 3.21365 3.80776 3.52325
# Velocity P-wave (km/s) = 5.71474 7.58625 6.71601
#
# Compressibility (1/GPa) = 0.02658353
#
# Stress axis : x y z
#
# Youngs Moduli (GPa) = 142.86083 26.26777 81.97393
#
# Poissons Ratio (x) = 0.12062 0.27114
# Poissons Ratio (y) = 0.65601 0.61011
# Poissons Ratio (z) = 0.47253 0.19551
#
# Static dielectric constant tensor:
#      x y z
#    x 4.282500 0.000000 0.000000 
#    y 0.000000 3.143780 0.000000 
#    z 0.000000 0.000000 3.899560 
# 
# 
# High freq. dielectric constant tensor:
#      x y z
#    x 1.806460 0.000000 0.000000 
#    y 0.000000 1.731050 0.000000 
#    z 0.000000 0.000000 1.762380 
# 
# From -- ./inp_files/12186.got.cif
#   From: 2010.06.25/outbox.cif.g09.slc.cpg/sg71_7_cif.got.tgz:12186.got - 2010.06.28 04:59:45.
