data_PCOD8290842
_publ_section_title
;
Structure prediction by ZEFSAII (Michael W. Deem and Ramdas Pophale) SiO2 
 PCOD8290842
Probable space group: I M M M
;
_chemical_formula_sum "Si O2"
_cell_formula_units_Z 104
_cell_length_a 21.755163
_cell_length_b 8.760163
_cell_length_c 27.340077
_cell_angle_alpha 90.000000
_cell_angle_beta 90.000000
_cell_angle_gamma 90.000000
_cell_volume 5210.438355
_symmetry_space_group_name_H-M "I M M M"
_symmetry_group_IT_number 71
_symmetry_cell_setting 'orthorhombic'
loop_
_space_group_symop_operation_xyz
x,y,z
-x,-y,z
x,-y,-z
-x,y,-z
-x,-y,-z
x,y,-z
-x,y,z
x,-y,z
1/2+x,1/2+y,1/2+z
1/2-x,1/2-y,1/2+z
1/2+x,1/2-y,1/2-z
1/2-x,1/2+y,1/2-z
1/2-x,1/2-y,1/2-z
1/2+x,1/2+y,1/2-z
1/2-x,1/2+y,1/2+z
1/2+x,1/2-y,1/2+z
loop_
_atom_site_type_symbol
_atom_site_label
_atom_site_fract_x
_atom_site_fract_y
_atom_site_fract_z
Si Si1 0.500000 0.167792 0.056383
Si Si2 0.930615 0.319022 0.811088
Si Si3 0.820746 0.321487 0.877511
Si Si4 0.771012 0.319842 0.443708
Si Si5 0.889555 0.820608 0.394404
Si Si6 0.899207 0.332509 0.703336
Si Si7 0.742157 0.167696 0.800021
O O1 0.560717 0.264106 0.067161
O O2 0.500000 0.000000 0.082732
O O3 0.500000 0.135397 0.000000
O O4 0.923078 0.500000 0.809009
O O5 0.884991 0.257594 0.853947
O O6 0.912832 0.256547 0.756727
O O7 0.000000 0.268545 0.824340
O O8 0.826038 0.500000 0.888277
O O9 0.797356 0.238261 0.927006
O O10 0.767705 0.286623 0.838872
O O11 0.781180 0.271236 0.500000
O O12 0.772577 0.500000 0.437050
O O13 0.823922 0.251807 0.408978
O O14 0.918921 0.776304 0.341279
O O15 0.880983 0.000000 0.396720
O O16 0.931850 0.500000 0.700721
O O17 0.828689 0.358402 0.692340
O O18 0.750000 0.250000 0.750000
O O19 0.774831 0.000000 0.802389
#
# Coordination Sequence:
#
# PCOD8290842 Si02
#       7
#     8  16  16  16  16  16  16
#     4  11  25  45  65  81 107 157 211 251 296 355
#     4   9  19  36  58  85 117 157 201 242 287 349
#     4  11  21  36  59  88 118 150 195 247 304 361
#     4  11  24  42  63  87 116 152 196 245 304 371
#     4  12  25  39  59  89 123 155 197 251 302 348
#     4  10  20  35  55  81 116 159 201 233 281 348
#     4  11  20  32  53  81 115 153 192 233 284 341
#
# _framework density 19.959931999999998
#
# number of rings (size 3 to 8) (size 9 to 14) (size 15 to 20)
#    0.000    1.308    3.077    3.462    1.077    4.308 
#    0.000    0.000    0.000    4.154    0.000    3.231 
#    0.000    0.000    0.000    0.000    0.000    0.000 
#
# Total GULP energy -644299.522257 kJ/mol
# GULP energy per Si atom -12390.375428 kJ/mol
# Density = 1.991450 g / cm^3
# Si number density = 19.959932 Si / 1000 Ang^3
#
#
#
# Elastic Constant Matrix: (Units=GPa)
#
#
# Indices 1 2 3 4 5 6 
#
# 1 117.6778 23.0395 39.7759 0.0000 0.0000 0.0000
# 2 23.0395 78.7130 32.1600 0.0000 0.0000 0.0000
# 3 39.7759 32.1600 88.4072 0.0000 0.0000 0.0000
# 4 0.0000 0.0000 0.0000 24.5146 0.0000 0.0000
# 5 0.0000 0.0000 0.0000 0.0000 23.2718 0.0000
# 6 0.0000 0.0000 0.0000 0.0000 0.0000 22.4971
#
#
#
# Elastic Compliance Matrix: (Units=1/GPa)
#
#
# Indices 1 2 3 4 5 6 
#
# 1 0.010133 -0.001296 -0.004088 0.000000 0.000000 0.000000
# 2 -0.001296 0.015088 -0.004906 0.000000 0.000000 0.000000
# 3 -0.004088 -0.004906 0.014935 0.000000 0.000000 0.000000
# 4 0.000000 0.000000 0.000000 0.040792 0.000000 0.000000
# 5 0.000000 0.000000 0.000000 0.000000 0.042970 0.000000
# 6 0.000000 0.000000 0.000000 0.000000 0.000000 0.044450
#
#
# Mechanical properties :
#
#
# Convention : Reuss Voigt Hill
#
# Bulk Modulus (GPa) = 51.07816 52.74988 51.91402
# Shear Modulus (GPa) = 25.57902 26.71155 26.14528
#
# Velocity S-wave (km/s) = 3.58371 3.66219 3.62316
# Velocity P-wave (km/s) = 6.53987 6.66089 6.60066
#
# Compressibility (1/GPa) = 0.01957784
#
# Stress axis : x y z
#
# Youngs Moduli (GPa) = 98.68597 66.27804 66.95732
#
# Poissons Ratio (x) = 0.08589 0.27370
# Poissons Ratio (y) = 0.12789 0.32846
# Poissons Ratio (z) = 0.40340 0.32513
#
# Static dielectric constant tensor:
#      x y z
#    x 3.739820 0.000000 0.000000 
#    y 0.000000 3.656050 0.000000 
#    z 0.000000 0.000000 3.727460 
# 
# 
# High freq. dielectric constant tensor:
#      x y z
#    x 1.768080 0.000000 0.000000 
#    y 0.000000 1.767680 0.000000 
#    z 0.000000 0.000000 1.773420 
# 
# From -- ./inp_files/66458.got.cif
#   From: 2010.06.25/outbox.cif.g09.slc.cpg/sg71_34_cif.got.tgz:66458.got - 2010.06.28 04:59:45.
