data_PCOD8290658
_publ_section_title
;
Structure prediction by ZEFSAII (Michael W. Deem and Ramdas Pophale) SiO2 
 PCOD8290658
Probable space group: I M M M
;
_chemical_formula_sum "Si O2"
_cell_formula_units_Z 88
_cell_length_a 12.276547
_cell_length_b 17.441632
_cell_length_c 22.870259
_cell_angle_alpha 90.000000
_cell_angle_beta 90.000000
_cell_angle_gamma 90.000000
_cell_volume 4897.048811
_symmetry_space_group_name_H-M "I M M M"
_symmetry_group_IT_number 71
_symmetry_cell_setting 'orthorhombic'
loop_
_space_group_symop_operation_xyz
x,y,z
-x,-y,z
x,-y,-z
-x,y,-z
-x,-y,-z
x,y,-z
-x,y,z
x,-y,z
1/2+x,1/2+y,1/2+z
1/2-x,1/2-y,1/2+z
1/2+x,1/2-y,1/2-z
1/2-x,1/2+y,1/2-z
1/2-x,1/2-y,1/2-z
1/2+x,1/2+y,1/2-z
1/2-x,1/2+y,1/2+z
1/2+x,1/2-y,1/2+z
loop_
_atom_site_type_symbol
_atom_site_label
_atom_site_fract_x
_atom_site_fract_y
_atom_site_fract_z
Si Si1 0.732108 0.204266 0.430061
Si Si2 0.628651 0.000000 0.068600
Si Si3 0.000000 0.695270 0.063790
Si Si4 0.123225 0.090770 0.766577
Si Si5 0.500000 0.376945 0.436042
Si Si6 0.628207 0.586011 0.135166
Si Si7 0.775002 0.870553 0.119541
O O1 0.728788 0.213703 0.500000
O O2 0.614353 0.172916 0.405467
O O3 0.822090 0.143462 0.412010
O O4 0.757641 0.286555 0.402425
O O5 0.677633 0.924938 0.099194
O O6 0.500000 0.000000 0.079381
O O7 0.657069 0.000000 0.000000
O O8 0.000000 0.786358 0.058434
O O9 0.000000 0.656604 0.000000
O O10 0.158600 0.112825 0.700703
O O11 0.210198 0.130329 0.810094
O O12 0.000000 0.120527 0.779008
O O13 0.127004 0.000000 0.774302
O O14 0.500000 0.415012 0.500000
O O15 0.609869 0.403960 0.403950
O O16 0.500000 0.587417 0.126527
O O17 0.672131 0.500000 0.123445
#
# Coordination Sequence:
#
# PCOD8290658 Si02
#       7
#    16   8   8  16   8  16  16
#     4  10  20  34  55  82 110 141 180 226 278 331
#     4  11  24  37  47  69 113 160 190 215 260 322
#     4   7  14  30  48  72 110 139 159 208 273 321
#     4   9  17  33  56  84 110 138 178 228 279 318
#     4   9  16  27  48  82 108 128 172 227 271 312
#     4   9  20  38  59  80 107 139 179 230 279 329
#     4  11  19  33  56  78 107 146 181 226 271 322
#
# _framework density 17.970006000000001
#
# number of rings (size 3 to 8) (size 9 to 14) (size 15 to 20)
#    0.000    2.455    1.818    3.818    0.000    2.545 
#    0.000    2.273    2.000    1.636    0.000    0.000 
#    0.000    0.000    0.000    0.000    0.000    0.000 
#
# Total GULP energy -545318.927066 kJ/mol
# GULP energy per Si atom -12393.611979 kJ/mol
# Density = 1.792911 g / cm^3
# Si number density = 17.970006 Si / 1000 Ang^3
#
#
#
# Elastic Constant Matrix: (Units=GPa)
#
#
# Indices 1 2 3 4 5 6 
#
# 1 75.4659 41.5927 29.2965 0.0000 0.0000 0.0000
# 2 41.5927 82.1321 37.4308 0.0000 0.0000 0.0000
# 3 29.2965 37.4308 59.8113 0.0000 0.0000 0.0000
# 4 0.0000 0.0000 0.0000 25.0749 0.0000 0.0000
# 5 0.0000 0.0000 0.0000 0.0000 29.0969 0.0000
# 6 0.0000 0.0000 0.0000 0.0000 0.0000 29.3592
#
#
#
# Elastic Compliance Matrix: (Units=1/GPa)
#
#
# Indices 1 2 3 4 5 6 
#
# 1 0.019267 -0.007633 -0.004660 0.000000 0.000000 0.000000
# 2 -0.007633 0.020058 -0.008814 0.000000 0.000000 0.000000
# 3 -0.004660 -0.008814 0.024518 0.000000 0.000000 0.000000
# 4 0.000000 0.000000 0.000000 0.039881 0.000000 0.000000
# 5 0.000000 0.000000 0.000000 0.000000 0.034368 0.000000
# 6 0.000000 0.000000 0.000000 0.000000 0.000000 0.034061
#
#
# Mechanical properties :
#
#
# Convention : Reuss Voigt Hill
#
# Bulk Modulus (GPa) = 46.23585 48.22770 47.23177
# Shear Modulus (GPa) = 22.56565 23.97884 23.27224
#
# Velocity S-wave (km/s) = 3.54749 3.65688 3.60260
# Velocity P-wave (km/s) = 6.52417 6.68779 6.60649
#
# Compressibility (1/GPa) = 0.02162824
#
# Stress axis : x y z
#
# Youngs Moduli (GPa) = 51.90157 49.85599 40.78699
#
# Poissons Ratio (x) = 0.38056 0.19008
# Poissons Ratio (y) = 0.39618 0.35948
# Poissons Ratio (z) = 0.24188 0.43941
#
# Static dielectric constant tensor:
#      x y z
#    x 3.376710 0.000000 0.000000 
#    y 0.000000 3.024030 0.000000 
#    z 0.000000 0.000000 3.405090 
# 
# 
# High freq. dielectric constant tensor:
#      x y z
#    x 1.686110 0.000000 0.000000 
#    y 0.000000 1.672590 0.000000 
#    z 0.000000 0.000000 1.693030 
# 
# From -- ./inp_files/51817.got.cif
#   From: 2010.06.25/outbox.cif.g09.slc.cpg/sg71_26_cif.got.tgz:51817.got - 2010.06.28 04:59:45.
