data_PCOD8290627
_publ_section_title
;
Structure prediction by ZEFSAII (Michael W. Deem and Ramdas Pophale) SiO2 
 PCOD8290627
Probable space group: I M M M
;
_chemical_formula_sum "Si O2"
_cell_formula_units_Z 88
_cell_length_a 27.358391
_cell_length_b 19.192074
_cell_length_c 8.756607
_cell_angle_alpha 90.000000
_cell_angle_beta 90.000000
_cell_angle_gamma 90.000000
_cell_volume 4597.781415
_symmetry_space_group_name_H-M "I M M M"
_symmetry_group_IT_number 71
_symmetry_cell_setting 'orthorhombic'
loop_
_space_group_symop_operation_xyz
x,y,z
-x,-y,z
x,-y,-z
-x,y,-z
-x,-y,-z
x,y,-z
-x,y,z
x,-y,z
1/2+x,1/2+y,1/2+z
1/2-x,1/2-y,1/2+z
1/2+x,1/2-y,1/2-z
1/2-x,1/2+y,1/2-z
1/2-x,1/2-y,1/2-z
1/2+x,1/2+y,1/2-z
1/2-x,1/2+y,1/2+z
1/2+x,1/2-y,1/2+z
loop_
_atom_site_type_symbol
_atom_site_label
_atom_site_fract_x
_atom_site_fract_y
_atom_site_fract_z
Si Si1 0.913877 0.645582 0.171700
Si Si2 0.158032 0.174892 0.681485
Si Si3 0.554987 0.000000 0.318912
Si Si4 0.053231 0.220441 0.679790
Si Si5 0.803362 0.689761 0.172703
Si Si6 0.768917 0.920083 0.819699
O O1 0.919492 0.569253 0.246273
O O2 0.944413 0.699074 0.273478
O O3 0.857518 0.661821 0.170507
O O4 0.935543 0.648407 0.000000
O O5 0.158409 0.176016 0.500000
O O6 0.101967 0.181860 0.745302
O O7 0.195185 0.235880 0.739883
O O8 0.179096 0.102458 0.745903
O O9 0.500000 0.000000 0.261424
O O10 0.559789 0.000000 0.500000
O O11 0.055051 0.214885 0.500000
O O12 0.000000 0.190215 0.737046
O O13 0.772618 0.630978 0.257896
O O14 0.783449 0.700572 0.000000
O O15 0.757914 0.000000 0.771782
O O16 0.772599 0.912627 0.000000
#
# Coordination Sequence:
#
# PCOD8290627 Si02
#       6
#    16  16   8  16  16  16
#     4   9  18  30  47  71  99 134 175 217 255 301
#     4  10  20  36  58  81 108 140 176 217 261 313
#     4   9  16  26  41  63  95 133 171 213 256 293
#     4   9  18  33  53  77 104 132 166 211 260 309
#     4  10  20  34  55  79 106 140 180 221 261 312
#     4  11  24  39  55  77 107 140 176 219 268 319
#
# _framework density 19.139665999999998
#
# number of rings (size 3 to 8) (size 9 to 14) (size 15 to 20)
#    0.000    2.273    0.000    2.727    1.273    4.000 
#    0.000    0.455    0.000    2.182    0.000    3.818 
#    0.000    0.000    0.000    0.000    0.000    0.000 
#
# Total GULP energy -545295.825397 kJ/mol
# GULP energy per Si atom -12393.086941 kJ/mol
# Density = 1.909610 g / cm^3
# Si number density = 19.139666 Si / 1000 Ang^3
#
#
#
# Elastic Constant Matrix: (Units=GPa)
#
#
# Indices 1 2 3 4 5 6 
#
# 1 75.8883 34.4848 26.5327 0.0000 0.0000 0.0000
# 2 34.4848 80.9360 30.2656 0.0000 0.0000 0.0000
# 3 26.5327 30.2656 47.5183 0.0000 0.0000 0.0000
# 4 0.0000 0.0000 0.0000 24.6466 0.0000 0.0000
# 5 0.0000 0.0000 0.0000 0.0000 20.4642 0.0000
# 6 0.0000 0.0000 0.0000 0.0000 0.0000 9.0080
#
#
#
# Elastic Compliance Matrix: (Units=1/GPa)
#
#
# Indices 1 2 3 4 5 6 
#
# 1 0.017839 -0.005088 -0.006720 0.000000 0.000000 0.000000
# 2 -0.005088 0.017669 -0.008413 0.000000 0.000000 0.000000
# 3 -0.006720 -0.008413 0.030155 0.000000 0.000000 0.000000
# 4 0.000000 0.000000 0.000000 0.040574 0.000000 0.000000
# 5 0.000000 0.000000 0.000000 0.000000 0.048866 0.000000
# 6 0.000000 0.000000 0.000000 0.000000 0.000000 0.111012
#
#
# Mechanical properties :
#
#
# Convention : Reuss Voigt Hill
#
# Bulk Modulus (GPa) = 39.64886 42.98987 41.31936
# Shear Modulus (GPa) = 15.87485 18.36108 17.11796
#
# Velocity S-wave (km/s) = 2.88309 3.10065 2.99385
# Velocity P-wave (km/s) = 5.64300 5.94379 5.79535
#
# Compressibility (1/GPa) = 0.02522141
#
# Stress axis : x y z
#
# Youngs Moduli (GPa) = 56.05789 56.59553 33.16163
#
# Poissons Ratio (x) = 0.28794 0.22285
# Poissons Ratio (y) = 0.28520 0.27899
# Poissons Ratio (z) = 0.37671 0.47615
#
# Static dielectric constant tensor:
#      x y z
#    x 4.001460 0.000000 0.000000 
#    y 0.000000 3.579250 0.000000 
#    z 0.000000 0.000000 3.502740 
# 
# 
# High freq. dielectric constant tensor:
#      x y z
#    x 1.759580 0.000000 0.000000 
#    y 0.000000 1.724130 0.000000 
#    z 0.000000 0.000000 1.733750 
# 
# From -- ./inp_files/16639.got.cif
#   From: 2010.06.25/outbox.cif.g09.slc.cpg/sg71_9_cif.got.tgz:16639.got - 2010.06.28 04:59:45.
