data_PCOD8290548
_publ_section_title
;
Structure prediction by ZEFSAII (Michael W. Deem and Ramdas Pophale) SiO2 
 PCOD8290548
Probable space group: I M M M
;
_chemical_formula_sum "Si O2"
_cell_formula_units_Z 88
_cell_length_a 9.611093
_cell_length_b 20.435331
_cell_length_c 23.452723
_cell_angle_alpha 90.000000
_cell_angle_beta 90.000000
_cell_angle_gamma 90.000000
_cell_volume 4606.252388
_symmetry_space_group_name_H-M "I M M M"
_symmetry_group_IT_number 71
_symmetry_cell_setting 'orthorhombic'
loop_
_space_group_symop_operation_xyz
x,y,z
-x,-y,z
x,-y,-z
-x,y,-z
-x,-y,-z
x,y,-z
-x,y,z
x,-y,z
1/2+x,1/2+y,1/2+z
1/2-x,1/2-y,1/2+z
1/2+x,1/2-y,1/2-z
1/2-x,1/2+y,1/2-z
1/2-x,1/2-y,1/2-z
1/2+x,1/2+y,1/2-z
1/2-x,1/2+y,1/2+z
1/2+x,1/2-y,1/2+z
loop_
_atom_site_type_symbol
_atom_site_label
_atom_site_fract_x
_atom_site_fract_y
_atom_site_fract_z
Si Si1 0.651326 0.500000 0.270105
Si Si2 0.841817 0.745693 0.935167
Si Si3 0.335851 0.000000 0.064252
Si Si4 0.337042 0.125843 0.358643
Si Si5 0.845071 0.615164 0.729956
Si Si6 0.657843 0.859454 0.892295
Si Si7 0.656599 0.500000 0.863650
O O1 0.500000 0.500000 0.299397
O O2 0.734442 0.437508 0.289696
O O3 0.636344 0.500000 0.202929
O O4 0.786264 0.687499 0.895125
O O5 0.751708 0.810451 0.927993
O O6 0.000000 0.762960 0.918586
O O7 0.830630 0.721211 0.000000
O O8 0.287170 0.066025 0.097330
O O9 0.500000 0.000000 0.061826
O O10 0.273823 0.000000 0.000000
O O11 0.500000 0.109772 0.369011
O O12 0.309089 0.145135 0.291973
O O13 0.245661 0.064319 0.380136
O O14 0.837586 0.662880 0.674998
O O15 0.000000 0.583900 0.733746
O O16 0.500000 0.853265 0.914983
O O17 0.500000 0.500000 0.891786
#
# Coordination Sequence:
#
# PCOD8290548 Si02
#       7
#     8  16   8  16  16  16   8
#     4   9  16  26  44  73 108 140 166 200 251 305
#     4  10  22  39  55  73 101 137 176 217 262 314
#     4   9  17  30  49  73 100 131 168 206 244 295
#     4   9  18  34  55  76 103 141 176 207 254 316
#     4   9  17  30  49  74 103 135 172 211 254 308
#     4  10  20  34  54  78 103 134 173 216 260 307
#     4   9  17  30  51  81 109 131 165 214 259 300
#
# _framework density 19.104468000000001
#
# number of rings (size 3 to 8) (size 9 to 14) (size 15 to 20)
#    0.000    2.636    0.000    1.636    0.000    6.909 
#    0.000    0.909    0.000    4.364    0.000    0.000 
#    0.000    0.000    0.000    0.000    0.000    0.000 
#
# Total GULP energy -545146.567788 kJ/mol
# GULP energy per Si atom -12389.694722 kJ/mol
# Density = 1.906098 g / cm^3
# Si number density = 19.104468 Si / 1000 Ang^3
#
#
#
# Elastic Constant Matrix: (Units=GPa)
#
#
# Indices 1 2 3 4 5 6 
#
# 1 77.5795 42.0737 26.8726 0.0000 0.0000 0.0000
# 2 42.0737 105.6362 50.0242 0.0000 0.0000 0.0000
# 3 26.8726 50.0242 100.3292 0.0000 0.0000 0.0000
# 4 0.0000 0.0000 0.0000 24.0270 0.0000 0.0000
# 5 0.0000 0.0000 0.0000 0.0000 18.7498 0.0000
# 6 0.0000 0.0000 0.0000 0.0000 0.0000 27.7140
#
#
#
# Elastic Compliance Matrix: (Units=1/GPa)
#
#
# Indices 1 2 3 4 5 6 
#
# 1 0.016614 -0.005904 -0.001506 0.000000 0.000000 0.000000
# 2 -0.005904 0.014490 -0.005644 0.000000 0.000000 0.000000
# 3 -0.001506 -0.005644 0.013185 0.000000 0.000000 0.000000
# 4 0.000000 0.000000 0.000000 0.041620 0.000000 0.000000
# 5 0.000000 0.000000 0.000000 0.000000 0.053334 0.000000
# 6 0.000000 0.000000 0.000000 0.000000 0.000000 0.036083
#
#
# Mechanical properties :
#
#
# Convention : Reuss Voigt Hill
#
# Bulk Modulus (GPa) = 55.00163 57.94288 56.47225
# Shear Modulus (GPa) = 24.09722 25.06977 24.58350
#
# Velocity S-wave (km/s) = 3.55539 3.62642 3.59108
# Velocity P-wave (km/s) = 6.76068 6.92315 6.84240
#
# Compressibility (1/GPa) = 0.01818128
#
# Stress axis : x y z
#
# Youngs Moduli (GPa) = 60.19200 69.01124 75.84630
#
# Poissons Ratio (x) = 0.40742 0.11424
# Poissons Ratio (y) = 0.35536 0.42805
# Poissons Ratio (z) = 0.09066 0.38948
#
# Static dielectric constant tensor:
#      x y z
#    x 3.707410 0.000000 0.000000 
#    y 0.000000 3.273070 0.000000 
#    z 0.000000 0.000000 3.518420 
# 
# 
# High freq. dielectric constant tensor:
#      x y z
#    x 1.734150 0.000000 0.000000 
#    y 0.000000 1.716120 0.000000 
#    z 0.000000 0.000000 1.742510 
# 
# From -- ./inp_files/57601.got.cif
#   From: 2010.06.25/outbox.cif.g09.slc.cpg/sg71_29_cif.got.tgz:57601.got - 2010.06.28 04:59:45.
