data_PCOD8290455
_publ_section_title
;
Structure prediction by ZEFSAII (Michael W. Deem and Ramdas Pophale) SiO2 
 PCOD8290455
Probable space group: I M M M
;
_chemical_formula_sum "Si O2"
_cell_formula_units_Z 88
_cell_length_a 28.917100
_cell_length_b 9.479042
_cell_length_c 18.118148
_cell_angle_alpha 90.000000
_cell_angle_beta 90.000000
_cell_angle_gamma 90.000000
_cell_volume 4966.300421
_symmetry_space_group_name_H-M "I M M M"
_symmetry_group_IT_number 71
_symmetry_cell_setting 'orthorhombic'
loop_
_space_group_symop_operation_xyz
x,y,z
-x,-y,z
x,-y,-z
-x,y,-z
-x,-y,-z
x,y,-z
-x,y,z
x,-y,z
1/2+x,1/2+y,1/2+z
1/2-x,1/2-y,1/2+z
1/2+x,1/2-y,1/2-z
1/2-x,1/2+y,1/2-z
1/2-x,1/2-y,1/2-z
1/2+x,1/2+y,1/2-z
1/2-x,1/2+y,1/2+z
1/2+x,1/2-y,1/2+z
loop_
_atom_site_type_symbol
_atom_site_label
_atom_site_fract_x
_atom_site_fract_y
_atom_site_fract_z
Si Si1 0.901769 0.835752 0.854484
Si Si2 0.945611 0.834624 0.297156
Si Si3 0.552424 0.332063 0.500000
Si Si4 0.697265 0.338447 0.687034
Si Si5 0.798265 0.337275 0.332313
Si Si6 0.388417 0.834801 0.915417
O O1 0.922524 0.774049 0.778154
O O2 0.846940 0.807670 0.864063
O O3 0.914094 0.000000 0.853707
O O4 0.924804 0.765504 0.926439
O O5 0.924028 0.752561 0.366132
O O6 0.000000 0.804300 0.294142
O O7 0.935048 0.000000 0.307514
O O8 0.558624 0.500000 0.500000
O O9 0.500000 0.284191 0.500000
O O10 0.697270 0.500000 0.713280
O O11 0.745059 0.303017 0.643361
O O12 0.690160 0.248066 0.759623
O O13 0.803203 0.500000 0.311186
O O14 0.834952 0.297066 0.395644
O O15 0.398021 0.000000 0.903121
O O16 0.396391 0.791160 0.000000
#
# Coordination Sequence:
#
# PCOD8290455 Si02
#       6
#    16  16   8  16  16  16
#     4   9  16  28  46  71 101 130 159 195 243 294
#     4  10  20  34  53  75  98 126 164 210 254 295
#     4   9  16  26  42  68 103 135 159 191 242 297
#     4   9  16  28  49  74  98 124 158 200 241 284
#     4   9  17  30  48  71  96 126 161 197 240 289
#     4  10  21  36  51  70 100 135 168 204 249 299
#
# _framework density 17.719428000000001
#
# number of rings (size 3 to 8) (size 9 to 14) (size 15 to 20)
#    0.000    2.636    1.818    0.545    0.000    3.273 
#    1.636    1.818    0.000    0.000    0.000    2.545 
#    0.000    4.364    0.000    0.000    0.000    0.000 
#
# Total GULP energy -545337.879498 kJ/mol
# GULP energy per Si atom -12394.042716 kJ/mol
# Density = 1.767910 g / cm^3
# Si number density = 17.719428 Si / 1000 Ang^3
#
#
#
# Elastic Constant Matrix: (Units=GPa)
#
#
# Indices 1 2 3 4 5 6 
#
# 1 127.6533 30.3629 67.8992 0.0000 0.0000 0.0000
# 2 30.3629 27.5725 28.8849 0.0000 0.0000 0.0000
# 3 67.8992 28.8849 124.1093 0.0000 0.0000 0.0000
# 4 0.0000 0.0000 0.0000 16.7143 0.0000 0.0000
# 5 0.0000 0.0000 0.0000 0.0000 29.0749 0.0000
# 6 0.0000 0.0000 0.0000 0.0000 0.0000 22.6711
#
#
#
# Elastic Compliance Matrix: (Units=1/GPa)
#
#
# Indices 1 2 3 4 5 6 
#
# 1 0.012447 -0.008692 -0.004787 0.000000 0.000000 0.000000
# 2 -0.008692 0.054032 -0.007820 0.000000 0.000000 0.000000
# 3 -0.004787 -0.007820 0.012496 0.000000 0.000000 0.000000
# 4 0.000000 0.000000 0.000000 0.059829 0.000000 0.000000
# 5 0.000000 0.000000 0.000000 0.000000 0.034394 0.000000
# 6 0.000000 0.000000 0.000000 0.000000 0.000000 0.044109
#
#
# Mechanical properties :
#
#
# Convention : Reuss Voigt Hill
#
# Bulk Modulus (GPa) = 27.48933 59.29213 43.39073
# Shear Modulus (GPa) = 18.38021 23.83793 21.10907
#
# Velocity S-wave (km/s) = 3.22419 3.67181 3.45526
# Velocity P-wave (km/s) = 5.42291 7.17709 6.36076
#
# Compressibility (1/GPa) = 0.03637775
#
# Stress axis : x y z
#
# Youngs Moduli (GPa) = 80.33833 18.50748 80.02438
#
# Poissons Ratio (x) = 0.16087 0.38306
# Poissons Ratio (y) = 0.69833 0.62577
# Poissons Ratio (z) = 0.38456 0.14472
#
# Static dielectric constant tensor:
#      x y z
#    x 3.589490 0.000000 0.000000 
#    y 0.000000 3.007070 0.000000 
#    z 0.000000 0.000000 3.322770 
# 
# 
# High freq. dielectric constant tensor:
#      x y z
#    x 1.707430 0.000000 0.000000 
#    y 0.000000 1.648360 0.000000 
#    z 0.000000 0.000000 1.670450 
# 
# From -- ./inp_files/8737.got.cif
#   From: 2010.06.25/outbox.cif.g09.slc.cpg/sg71_5_cif.got.tgz:8737.got - 2010.06.28 04:59:45.
