data_PCOD8290610
_publ_section_title
;
Structure prediction by ZEFSAII (Michael W. Deem and Ramdas Pophale) SiO2 
 PCOD8290610
Probable space group: I M M M
;
_chemical_formula_sum "Si O2"
_cell_formula_units_Z 104
_cell_length_a 22.744323
_cell_length_b 8.783887
_cell_length_c 27.746989
_cell_angle_alpha 90.000000
_cell_angle_beta 90.000000
_cell_angle_gamma 90.000000
_cell_volume 5543.392328
_symmetry_space_group_name_H-M "I M M M"
_symmetry_group_IT_number 71
_symmetry_cell_setting 'orthorhombic'
loop_
_space_group_symop_operation_xyz
x,y,z
-x,-y,z
x,-y,-z
-x,y,-z
-x,-y,-z
x,y,-z
-x,y,z
x,-y,z
1/2+x,1/2+y,1/2+z
1/2-x,1/2-y,1/2+z
1/2+x,1/2-y,1/2-z
1/2-x,1/2+y,1/2-z
1/2-x,1/2-y,1/2-z
1/2+x,1/2+y,1/2-z
1/2-x,1/2+y,1/2+z
1/2+x,1/2-y,1/2+z
loop_
_atom_site_type_symbol
_atom_site_label
_atom_site_fract_x
_atom_site_fract_y
_atom_site_fract_z
Si Si1 0.253954 0.178918 0.802988
Si Si2 0.570121 0.171376 0.500000
Si Si3 0.930389 0.829244 0.095702
Si Si4 0.433929 0.680717 0.946230
Si Si5 0.134276 0.821441 0.353508
Si Si6 0.066464 0.674970 0.272994
Si Si7 0.363243 0.823203 0.321948
O O1 0.250000 0.250000 0.750000
O O2 0.308048 0.234809 0.835349
O O3 0.195026 0.224634 0.831276
O O4 0.259651 0.000000 0.796591
O O5 0.500000 0.169234 0.500000
O O6 0.594878 0.259857 0.453688
O O7 0.595073 0.000000 0.500000
O O8 0.911165 0.720857 0.138776
O O9 0.000000 0.830447 0.094293
O O10 0.905732 0.000000 0.102352
O O11 0.500000 0.743254 0.935351
O O12 0.436220 0.500000 0.943972
O O13 0.386779 0.738142 0.906351
O O14 0.414116 0.734173 0.000000
O O15 0.080874 0.785062 0.317341
O O16 0.147625 0.000000 0.353913
O O17 0.075039 0.500000 0.288818
O O18 0.110468 0.716585 0.230064
O O19 0.000000 0.705574 0.255845
O O20 0.347687 0.000000 0.326323
#
# Coordination Sequence:
#
# PCOD8290610 Si02
#       7
#    16   8  16  16  16  16  16
#     4  12  24  40  59  80 107 145 189 232 279 332
#     4   9  17  31  53  79 107 143 185 225 268 325
#     4  10  20  34  54  82 115 148 182 226 280 335
#     4   8  15  30  54  86 121 152 185 230 282 334
#     4  11  21  34  57  85 112 148 191 233 278 334
#     4  10  21  35  52  78 114 150 181 222 277 332
#     4  11  22  37  57  80 108 146 188 231 279 333
#
# _framework density 18.761075000000002
#
# number of rings (size 3 to 8) (size 9 to 14) (size 15 to 20)
#    0.000    1.769    1.538    4.385    0.000    4.000 
#    0.000    0.000    1.692    1.846    0.000    5.385 
#    0.000    0.000    0.000    0.000    0.000    0.000 
#
# Total GULP energy -644785.252914 kJ/mol
# GULP energy per Si atom -12399.716402 kJ/mol
# Density = 1.871837 g / cm^3
# Si number density = 18.761075 Si / 1000 Ang^3
#
#
#
# Elastic Constant Matrix: (Units=GPa)
#
#
# Indices 1 2 3 4 5 6 
#
# 1 89.4485 44.5409 44.9967 0.0000 0.0000 0.0000
# 2 44.5409 88.0779 53.3695 0.0000 0.0000 0.0000
# 3 44.9967 53.3695 135.0704 0.0000 0.0000 0.0000
# 4 0.0000 0.0000 0.0000 26.4281 0.0000 0.0000
# 5 0.0000 0.0000 0.0000 0.0000 20.9423 0.0000
# 6 0.0000 0.0000 0.0000 0.0000 0.0000 29.1431
#
#
#
# Elastic Compliance Matrix: (Units=1/GPa)
#
#
# Indices 1 2 3 4 5 6 
#
# 1 0.015682 -0.006265 -0.002749 0.000000 0.000000 0.000000
# 2 -0.006265 0.017430 -0.004800 0.000000 0.000000 0.000000
# 3 -0.002749 -0.004800 0.010216 0.000000 0.000000 0.000000
# 4 0.000000 0.000000 0.000000 0.037839 0.000000 0.000000
# 5 0.000000 0.000000 0.000000 0.000000 0.047750 0.000000
# 6 0.000000 0.000000 0.000000 0.000000 0.000000 0.034313
#
#
# Mechanical properties :
#
#
# Convention : Reuss Voigt Hill
#
# Bulk Modulus (GPa) = 63.69134 66.49011 65.09072
# Shear Modulus (GPa) = 25.49834 26.61533 26.05683
#
# Velocity S-wave (km/s) = 3.69061 3.77058 3.73081
# Velocity P-wave (km/s) = 7.22379 7.38063 7.30263
#
# Compressibility (1/GPa) = 0.01570072
#
# Stress axis : x y z
#
# Youngs Moduli (GPa) = 63.76761 57.37184 97.88645
#
# Poissons Ratio (x) = 0.35942 0.26908
# Poissons Ratio (y) = 0.39948 0.46986
# Poissons Ratio (z) = 0.17529 0.27539
#
# Static dielectric constant tensor:
#      x y z
#    x 3.433750 0.000000 0.000000 
#    y 0.000000 3.434360 0.000000 
#    z 0.000000 0.000000 3.628130 
# 
# 
# High freq. dielectric constant tensor:
#      x y z
#    x 1.715230 0.000000 0.000000 
#    y 0.000000 1.724540 0.000000 
#    z 0.000000 0.000000 1.729760 
# 
# From -- ./inp_files/56716.got.cif
#   From: 2010.06.25/outbox.cif.g09.slc.cpg/sg71_29_cif.got.tgz:56716.got - 2010.06.28 04:59:45.
