data_PCOD8290091
_publ_section_title
;
Structure prediction by ZEFSAII (Michael W. Deem and Ramdas Pophale) SiO2 
 PCOD8290091
Probable space group: I M M M
;
_chemical_formula_sum "Si O2"
_cell_formula_units_Z 88
_cell_length_a 20.460022
_cell_length_b 14.060164
_cell_length_c 17.198389
_cell_angle_alpha 90.000000
_cell_angle_beta 90.000000
_cell_angle_gamma 90.000000
_cell_volume 4947.482316
_symmetry_space_group_name_H-M "I M M M"
_symmetry_group_IT_number 71
_symmetry_cell_setting 'orthorhombic'
loop_
_space_group_symop_operation_xyz
x,y,z
-x,-y,z
x,-y,-z
-x,y,-z
-x,-y,-z
x,y,-z
-x,y,z
x,-y,z
1/2+x,1/2+y,1/2+z
1/2-x,1/2-y,1/2+z
1/2+x,1/2-y,1/2-z
1/2-x,1/2+y,1/2-z
1/2-x,1/2-y,1/2-z
1/2+x,1/2+y,1/2-z
1/2-x,1/2+y,1/2+z
1/2+x,1/2-y,1/2+z
loop_
_atom_site_type_symbol
_atom_site_label
_atom_site_fract_x
_atom_site_fract_y
_atom_site_fract_z
Si Si1 0.856895 0.890890 0.358499
Si Si2 0.070958 0.606204 0.592033
Si Si3 0.199184 0.709719 0.411300
Si Si4 0.570783 0.386922 0.586448
Si Si5 0.689606 0.389611 0.316352
Si Si6 0.000000 0.111690 0.587737
O O1 0.810991 0.823834 0.411674
O O2 0.826737 0.876877 0.273367
O O3 0.933570 0.859304 0.365880
O O4 0.849088 0.000000 0.386158
O O5 0.074287 0.601194 0.500000
O O6 0.077714 0.500000 0.626526
O O7 0.130935 0.668616 0.622013
O O8 0.000000 0.649800 0.617434
O O9 0.216444 0.677006 0.500000
O O10 0.251520 0.674206 0.348482
O O11 0.583949 0.348559 0.500000
O O12 0.500000 0.350940 0.616091
O O13 0.571850 0.500000 0.587330
O O14 0.626247 0.346594 0.641523
O O15 0.703697 0.500000 0.337074
O O16 0.000000 0.157400 0.500000
O O17 0.000000 0.000000 0.578319
#
# Coordination Sequence:
#
# PCOD8290091 Si02
#       6
#    16  16  16  16  16   8
#     4  10  22  36  51  72 102 139 175 220 265 309
#     4   8  15  28  45  67  95 126 163 207 254 302
#     4  11  21  32  51  74 101 135 174 217 262 315
#     4   8  14  25  43  67  95 127 162 200 243 298
#     4  10  20  33  50  73 104 136 170 209 260 322
#     4   9  18  34  54  74  96 128 176 221 254 294
#
# _framework density 17.786823999999999
#
# number of rings (size 3 to 8) (size 9 to 14) (size 15 to 20)
#    0.000    2.636    0.000    3.273    2.545    2.909 
#    0.000    0.000    0.000    0.000    0.000    0.000 
#    0.000    0.727    0.000    3.818    0.000    0.182 
#
# Total GULP energy -545087.209697 kJ/mol
# GULP energy per Si atom -12388.345675 kJ/mol
# Density = 1.774634 g / cm^3
# Si number density = 17.786824 Si / 1000 Ang^3
#
#
#
# Elastic Constant Matrix: (Units=GPa)
#
#
# Indices 1 2 3 4 5 6 
#
# 1 117.5216 41.8117 46.6253 0.0000 0.0000 0.0000
# 2 41.8117 51.3320 21.3608 0.0000 0.0000 0.0000
# 3 46.6253 21.3608 57.8546 0.0000 0.0000 0.0000
# 4 0.0000 0.0000 0.0000 18.0410 0.0000 0.0000
# 5 0.0000 0.0000 0.0000 0.0000 205.0491 0.0000
# 6 0.0000 0.0000 0.0000 0.0000 0.0000 18.5441
#
#
#
# Elastic Compliance Matrix: (Units=1/GPa)
#
#
# Indices 1 2 3 4 5 6 
#
# 1 0.015147 -0.008576 -0.009041 0.000000 0.000000 0.000000
# 2 -0.008576 0.027873 -0.003380 0.000000 0.000000 0.000000
# 3 -0.009041 -0.003380 0.025819 0.000000 0.000000 0.000000
# 4 0.000000 0.000000 0.000000 0.055429 0.000000 0.000000
# 5 0.000000 0.000000 0.000000 0.000000 0.004877 0.000000
# 6 0.000000 0.000000 0.000000 0.000000 0.000000 0.053926
#
#
# Mechanical properties :
#
#
# Convention : Reuss Voigt Hill
#
# Bulk Modulus (GPa) = 37.24991 49.58933 43.41962
# Shear Modulus (GPa) = 21.36656 56.12087 38.74371
#
# Velocity S-wave (km/s) = 3.46968 5.62320 4.67221
# Velocity P-wave (km/s) = 6.08600 8.37263 7.31916
#
# Compressibility (1/GPa) = 0.02684570
#
# Stress axis : x y z
#
# Youngs Moduli (GPa) = 66.02020 35.87757 38.73183
#
# Poissons Ratio (x) = 0.30767 0.35016
# Poissons Ratio (y) = 0.56616 0.13091
# Poissons Ratio (z) = 0.59687 0.12126
#
# Static dielectric constant tensor:
#      x y z
#    x 3.743390 0.000000 0.000000 
#    y 0.000000 3.189430 0.000000 
#    z 0.000000 0.000000 3.116800 
# 
# 
# High freq. dielectric constant tensor:
#      x y z
#    x 1.696430 0.000000 0.000000 
#    y 0.000000 1.662440 0.000000 
#    z 0.000000 0.000000 1.662480 
# 
# From -- ./inp_files/34370.got.cif
#   From: 2010.06.25/outbox.cif.g09.slc.cpg/sg71_18_cif.got.tgz:34370.got - 2010.06.28 04:59:45.
