data_PCOD8290233
_publ_section_title
;
Structure prediction by ZEFSAII (Michael W. Deem and Ramdas Pophale) SiO2 
 PCOD8290233
Probable space group: I M M M
;
_chemical_formula_sum "Si O2"
_cell_formula_units_Z 88
_cell_length_a 9.038025
_cell_length_b 17.905549
_cell_length_c 29.962574
_cell_angle_alpha 90.000000
_cell_angle_beta 90.000000
_cell_angle_gamma 90.000000
_cell_volume 4848.867306
_symmetry_space_group_name_H-M "I M M M"
_symmetry_group_IT_number 71
_symmetry_cell_setting 'orthorhombic'
loop_
_space_group_symop_operation_xyz
x,y,z
-x,-y,z
x,-y,-z
-x,y,-z
-x,-y,-z
x,y,-z
-x,y,z
x,-y,z
1/2+x,1/2+y,1/2+z
1/2-x,1/2-y,1/2+z
1/2+x,1/2-y,1/2-z
1/2-x,1/2+y,1/2-z
1/2-x,1/2-y,1/2-z
1/2+x,1/2+y,1/2-z
1/2-x,1/2+y,1/2+z
1/2+x,1/2-y,1/2+z
loop_
_atom_site_type_symbol
_atom_site_label
_atom_site_fract_x
_atom_site_fract_y
_atom_site_fract_z
Si Si1 0.173159 0.851140 0.051475
Si Si2 0.173597 0.085061 0.349862
Si Si3 0.167721 0.500000 0.446956
Si Si4 0.665892 0.914051 0.743067
Si Si5 0.827204 0.722285 0.882608
Si Si6 0.826603 0.203837 0.788870
O O1 0.253412 0.924875 0.070879
O O2 0.225434 0.777374 0.077942
O O3 0.000000 0.864872 0.058461
O O4 0.214206 0.837409 0.000000
O O5 0.251561 0.102667 0.303110
O O6 0.238570 0.143747 0.385966
O O7 0.000000 0.097658 0.343996
O O8 0.207937 0.000000 0.365443
O O9 0.178087 0.500000 0.500000
O O10 0.000000 0.500000 0.429677
O O11 0.500000 0.880464 0.738441
O O12 0.754379 0.878141 0.784458
O O13 0.658901 0.000000 0.754488
O O14 0.786927 0.762842 0.836597
O O15 0.000000 0.703903 0.886631
O O16 0.750000 0.250000 0.750000
O O17 0.000000 0.198824 0.780920
#
# Coordination Sequence:
#
# PCOD8290233 Si02
#       6
#    16  16   8  16  16  16
#     4   9  18  35  58  80 104 136 174 215 258 307
#     4  10  20  33  52  77 102 133 174 215 256 307
#     4   9  17  31  53  81 109 137 171 211 257 307
#     4  10  20  34  51  70  97 135 176 215 254 299
#     4  10  21  35  53  78 104 134 172 214 261 309
#     4  11  21  33  50  73 103 137 172 212 257 305
#
# _framework density 18.148568999999998
#
# number of rings (size 3 to 8) (size 9 to 14) (size 15 to 20)
#    0.000    2.091    1.818    1.909    0.000    4.727 
#    1.636    0.000    0.000    0.545    0.000    3.818 
#    0.000    0.000    0.000    0.000    0.000    0.000 
#
# Total GULP energy -545555.000667 kJ/mol
# GULP energy per Si atom -12398.977288 kJ/mol
# Density = 1.810726 g / cm^3
# Si number density = 18.148569 Si / 1000 Ang^3
#
#
#
# Elastic Constant Matrix: (Units=GPa)
#
#
# Indices 1 2 3 4 5 6 
#
# 1 96.3395 68.9423 40.5584 0.0000 0.0000 0.0000
# 2 68.9423 142.5622 53.1092 0.0000 0.0000 0.0000
# 3 40.5584 53.1092 63.5318 0.0000 0.0000 0.0000
# 4 0.0000 0.0000 0.0000 31.7777 0.0000 0.0000
# 5 0.0000 0.0000 0.0000 0.0000 19.4857 0.0000
# 6 0.0000 0.0000 0.0000 0.0000 0.0000 37.0960
#
#
#
# Elastic Compliance Matrix: (Units=1/GPa)
#
#
# Indices 1 2 3 4 5 6 
#
# 1 0.017259 -0.006160 -0.005868 0.000000 0.000000 0.000000
# 2 -0.006160 0.012386 -0.006421 0.000000 0.000000 0.000000
# 3 -0.005868 -0.006421 0.024854 0.000000 0.000000 0.000000
# 4 0.000000 0.000000 0.000000 0.031469 0.000000 0.000000
# 5 0.000000 0.000000 0.000000 0.000000 0.051320 0.000000
# 6 0.000000 0.000000 0.000000 0.000000 0.000000 0.026957
#
#
# Mechanical properties :
#
#
# Convention : Reuss Voigt Hill
#
# Bulk Modulus (GPa) = 56.82030 69.73926 63.27978
# Shear Modulus (GPa) = 24.15345 26.99344 25.57344
#
# Velocity S-wave (km/s) = 3.65207 3.86081 3.75789
# Velocity P-wave (km/s) = 7.01141 7.64099 7.33296
#
# Compressibility (1/GPa) = 0.01759935
#
# Stress axis : x y z
#
# Youngs Moduli (GPa) = 57.94144 80.73944 40.23459
#
# Poissons Ratio (x) = 0.49736 0.23612
# Poissons Ratio (y) = 0.35692 0.25835
# Poissons Ratio (z) = 0.34003 0.51843
#
# Static dielectric constant tensor:
#      x y z
#    x 3.611770 0.000000 0.000000 
#    y 0.000000 3.106580 0.000000 
#    z 0.000000 0.000000 3.271600 
# 
# 
# High freq. dielectric constant tensor:
#      x y z
#    x 1.711890 0.000000 0.000000 
#    y 0.000000 1.719760 0.000000 
#    z 0.000000 0.000000 1.660260 
# 
# From -- ./inp_files/49250.got.cif
#   From: 2010.06.25/outbox.cif.g09.slc.cpg/sg71_25_cif.got.tgz:49250.got - 2010.06.28 04:59:45.
