data_PCOD8290579
_publ_section_title
;
Structure prediction by ZEFSAII (Michael W. Deem and Ramdas Pophale) SiO2 
 PCOD8290579
Probable space group: I M M M
;
_chemical_formula_sum "Si O2"
_cell_formula_units_Z 104
_cell_length_a 8.942160
_cell_length_b 28.011084
_cell_length_c 23.758481
_cell_angle_alpha 90.000000
_cell_angle_beta 90.000000
_cell_angle_gamma 90.000000
_cell_volume 5951.014696
_symmetry_space_group_name_H-M "I M M M"
_symmetry_group_IT_number 71
_symmetry_cell_setting 'orthorhombic'
loop_
_space_group_symop_operation_xyz
x,y,z
-x,-y,z
x,-y,-z
-x,y,-z
-x,-y,-z
x,y,-z
-x,y,z
x,-y,z
1/2+x,1/2+y,1/2+z
1/2-x,1/2-y,1/2+z
1/2+x,1/2-y,1/2-z
1/2-x,1/2+y,1/2-z
1/2-x,1/2-y,1/2-z
1/2+x,1/2+y,1/2-z
1/2-x,1/2+y,1/2+z
1/2+x,1/2-y,1/2+z
loop_
_atom_site_type_symbol
_atom_site_label
_atom_site_fract_x
_atom_site_fract_y
_atom_site_fract_z
Si Si1 0.831538 0.722310 0.433080
Si Si2 0.327595 0.627259 0.566426
Si Si3 0.171040 0.000000 0.566572
Si Si4 0.174133 0.944262 0.737851
Si Si5 0.323538 0.086873 0.372286
Si Si6 0.325720 0.182824 0.564447
Si Si7 0.173982 0.555291 0.353623
O O1 0.826793 0.722890 0.500000
O O2 0.736522 0.677455 0.410687
O O3 0.760878 0.771493 0.410537
O O4 0.000000 0.717694 0.410225
O O5 0.305016 0.622723 0.500000
O O6 0.500000 0.623890 0.583828
O O7 0.236733 0.584131 0.593683
O O8 0.251188 0.953226 0.589064
O O9 0.181399 0.000000 0.500000
O O10 0.000000 0.000000 0.587992
O O11 0.258576 0.914180 0.690413
O O12 0.240373 0.928438 0.797536
O O13 0.000000 0.931871 0.736859
O O14 0.203990 0.000000 0.726163
O O15 0.500000 0.078517 0.370840
O O16 0.279998 0.137654 0.398415
O O17 0.279430 0.172252 0.500000
O O18 0.500000 0.194354 0.568597
O O19 0.204373 0.500000 0.366495
O O20 0.000000 0.566056 0.345297
#
# Coordination Sequence:
#
# PCOD8290579 Si02
#       7
#    16  16   8  16  16  16  16
#     4   9  17  30  50  75 102 134 172 212 253 302
#     4  10  20  34  54  80 110 142 172 205 251 306
#     4  11  23  35  47  69 103 139 174 217 270 321
#     4  10  20  35  54  74 100 134 176 219 260 308
#     4  11  21  33  52  74 100 135 176 220 264 314
#     4   9  18  32  49  72 102 135 172 214 261 311
#     4  10  21  36  55  79 107 138 174 214 254 300
#
# _framework density 17.476011
#
# number of rings (size 3 to 8) (size 9 to 14) (size 15 to 20)
#    0.000    2.077    0.769    3.000    0.000    7.077 
#    0.000    3.077    0.000    0.923    0.000    0.000 
#    0.000    0.000    0.000    0.000    0.000    0.000 
#
# Total GULP energy -644992.211351 kJ/mol
# GULP energy per Si atom -12403.696372 kJ/mol
# Density = 1.743624 g / cm^3
# Si number density = 17.476011 Si / 1000 Ang^3
#
#
#
# Elastic Constant Matrix: (Units=GPa)
#
#
# Indices 1 2 3 4 5 6 
#
# 1 106.0152 64.2146 41.7504 0.0000 0.0000 0.0000
# 2 64.2146 113.9027 49.5355 0.0000 0.0000 0.0000
# 3 41.7504 49.5355 60.8355 0.0000 0.0000 0.0000
# 4 0.0000 0.0000 0.0000 14.2151 0.0000 0.0000
# 5 0.0000 0.0000 0.0000 0.0000 30.7473 0.0000
# 6 0.0000 0.0000 0.0000 0.0000 0.0000 32.1596
#
#
#
# Elastic Compliance Matrix: (Units=1/GPa)
#
#
# Indices 1 2 3 4 5 6 
#
# 1 0.015397 -0.006324 -0.005417 0.000000 0.000000 0.000000
# 2 -0.006324 0.016191 -0.008843 0.000000 0.000000 0.000000
# 3 -0.005417 -0.008843 0.027356 0.000000 0.000000 0.000000
# 4 0.000000 0.000000 0.000000 0.070348 0.000000 0.000000
# 5 0.000000 0.000000 0.000000 0.000000 0.032523 0.000000
# 6 0.000000 0.000000 0.000000 0.000000 0.000000 0.031095
#
#
# Mechanical properties :
#
#
# Convention : Reuss Voigt Hill
#
# Bulk Modulus (GPa) = 56.26002 65.75048 61.00525
# Shear Modulus (GPa) = 20.83321 23.77461 22.30391
#
# Velocity S-wave (km/s) = 3.45643 3.69238 3.57635
# Velocity P-wave (km/s) = 6.94203 7.47551 7.21370
#
# Compressibility (1/GPa) = 0.01777461
#
# Stress axis : x y z
#
# Youngs Moduli (GPa) = 64.94957 61.76414 36.55556
#
# Poissons Ratio (x) = 0.39062 0.19801
# Poissons Ratio (y) = 0.41076 0.32326
# Poissons Ratio (z) = 0.35182 0.54618
#
# Static dielectric constant tensor:
#      x y z
#    x 3.429570 0.000000 0.000000 
#    y 0.000000 3.290820 0.000000 
#    z 0.000000 0.000000 3.073970 
# 
# 
# High freq. dielectric constant tensor:
#      x y z
#    x 1.693270 0.000000 0.000000 
#    y 0.000000 1.672760 0.000000 
#    z 0.000000 0.000000 1.653540 
# 
# From -- ./inp_files/15514.got.cif
#   From: 2010.06.25/outbox.cif.g09.slc.cpg/sg71_8_cif.got.tgz:15514.got - 2010.06.28 04:59:45.
