data_PCOD8290503
_publ_section_title
;
Structure prediction by ZEFSAII (Michael W. Deem and Ramdas Pophale) SiO2 
 PCOD8290503
Probable space group: I M M M
;
_chemical_formula_sum "Si O2"
_cell_formula_units_Z 72
_cell_length_a 9.299018
_cell_length_b 31.783565
_cell_length_c 12.852464
_cell_angle_alpha 90.000000
_cell_angle_beta 90.000000
_cell_angle_gamma 90.000000
_cell_volume 3798.622118
_symmetry_space_group_name_H-M "I M M M"
_symmetry_group_IT_number 71
_symmetry_cell_setting 'orthorhombic'
loop_
_space_group_symop_operation_xyz
x,y,z
-x,-y,z
x,-y,-z
-x,y,-z
-x,-y,-z
x,y,-z
-x,y,z
x,-y,z
1/2+x,1/2+y,1/2+z
1/2-x,1/2-y,1/2+z
1/2+x,1/2-y,1/2-z
1/2-x,1/2+y,1/2-z
1/2-x,1/2-y,1/2-z
1/2+x,1/2+y,1/2-z
1/2-x,1/2+y,1/2+z
1/2+x,1/2-y,1/2+z
loop_
_atom_site_type_symbol
_atom_site_label
_atom_site_fract_x
_atom_site_fract_y
_atom_site_fract_z
Si Si1 0.832169 0.811748 0.303967
Si Si2 0.335184 0.889629 0.617124
Si Si3 0.665208 0.780096 0.881663
Si Si4 0.163266 0.050054 0.000000
Si Si5 0.332631 0.048424 0.799241
O O1 0.763140 0.848958 0.369654
O O2 0.763708 0.809847 0.189033
O O3 0.797784 0.768839 0.364982
O O4 0.000000 0.820290 0.292514
O O5 0.314648 0.907003 0.500000
O O6 0.500000 0.876511 0.637323
O O7 0.287511 0.926082 0.696500
O O8 0.500000 0.788707 0.852265
O O9 0.698141 0.792269 0.000000
O O10 0.243548 0.066803 0.896880
O O11 0.000000 0.066749 0.000000
O O12 0.170056 0.000000 0.000000
O O13 0.500000 0.053688 0.826146
O O14 0.293531 0.000000 0.777349
#
# Coordination Sequence:
#
# PCOD8290503 Si02
#       5
#    16  16  16   8  16
#     4  10  20  34  53  78 107 138 175 217 263 316
#     4  10  21  36  54  78 108 142 180 220 266 319
#     4   9  18  34  55  77 103 137 176 218 264 313
#     4   9  17  31  53  79 105 133 169 215 265 317
#     4   9  18  34  56  80 106 139 179 220 264 315
#
# _framework density 18.954241
#
# number of rings (size 3 to 8) (size 9 to 14) (size 15 to 20)
#    0.000    2.556    0.000    1.667    0.000    5.333 
#    2.000    2.222    0.000    0.000    0.000    4.667 
#    0.000    0.000    0.000    0.000    0.000    0.000 
#
# Total GULP energy -446492.880759 kJ/mol
# GULP energy per Si atom -12402.580021 kJ/mol
# Density = 1.891110 g / cm^3
# Si number density = 18.954241 Si / 1000 Ang^3
#
#
#
# Elastic Constant Matrix: (Units=GPa)
#
#
# Indices 1 2 3 4 5 6 
#
# 1 81.0077 31.6082 59.1300 -0.0003 -0.0002 0.0000
# 2 31.6082 50.8170 43.4320 -0.0001 -0.0001 0.0000
# 3 59.1300 43.4320 146.4594 -0.0046 0.0002 0.0001
# 4 -0.0003 -0.0001 -0.0046 29.8907 0.0001 0.0000
# 5 -0.0002 -0.0001 0.0002 0.0001 23.8326 -0.0004
# 6 0.0000 0.0000 0.0001 0.0000 -0.0004 24.2451
#
#
#
# Elastic Compliance Matrix: (Units=1/GPa)
#
#
# Indices 1 2 3 4 5 6 
#
# 1 0.019262 -0.007146 -0.005658 -0.000001 0.000000 0.000000
# 2 -0.007146 0.029010 -0.005718 -0.000001 0.000000 0.000000
# 3 -0.005658 -0.005718 0.010808 0.000002 0.000000 0.000000
# 4 -0.000001 -0.000001 0.000002 0.033455 0.000000 0.000000
# 5 0.000000 0.000000 0.000000 0.000000 0.041959 0.000001
# 6 0.000000 0.000000 0.000000 0.000000 0.000001 0.041245
#
#
# Mechanical properties :
#
#
# Convention : Reuss Voigt Hill
#
# Bulk Modulus (GPa) = 45.37742 60.73607 53.05675
# Shear Modulus (GPa) = 22.71400 25.20129 23.95765
#
# Velocity S-wave (km/s) = 3.46549 3.65030 3.55910
# Velocity P-wave (km/s) = 6.32497 7.06253 6.70391
#
# Compressibility (1/GPa) = 0.02203739
#
# Stress axis : x y z
#
# Youngs Moduli (GPa) = 51.91441 34.47086 92.52685
#
# Poissons Ratio (x) = 0.24632 0.52350
# Poissons Ratio (y) = 0.37096 0.52906
# Poissons Ratio (z) = 0.29372 0.19710
#
# Static dielectric constant tensor:
#      x y z
#    x 3.483620 0.000000 0.000000 
#    y 0.000000 3.232170 0.000000 
#    z 0.000000 0.000000 3.603200 
# 
# 
# High freq. dielectric constant tensor:
#      x y z
#    x 1.734290 0.000000 0.000000 
#    y 0.000000 1.713720 0.000000 
#    z 0.000000 0.000000 1.746730 
# 
# From -- ./inp_files/16374.got.cif
#   From: 2010.06.25/outbox.cif.g09.slc.cpg/sg71_9_cif.got.tgz:16374.got - 2010.06.28 04:59:45.
