data_PCOD8290631
_publ_section_title
;
Structure prediction by ZEFSAII (Michael W. Deem and Ramdas Pophale) SiO2 
 PCOD8290631
Probable space group: I M M M
;
_chemical_formula_sum "Si O2"
_cell_formula_units_Z 96
_cell_length_a 19.032425
_cell_length_b 9.265771
_cell_length_c 29.400846
_cell_angle_alpha 90.000000
_cell_angle_beta 90.000000
_cell_angle_gamma 90.000000
_cell_volume 5184.841886
_symmetry_space_group_name_H-M "I M M M"
_symmetry_group_IT_number 71
_symmetry_cell_setting 'orthorhombic'
loop_
_space_group_symop_operation_xyz
x,y,z
-x,-y,z
x,-y,-z
-x,y,-z
-x,-y,-z
x,y,-z
-x,y,z
x,-y,z
1/2+x,1/2+y,1/2+z
1/2-x,1/2-y,1/2+z
1/2+x,1/2-y,1/2-z
1/2-x,1/2+y,1/2-z
1/2-x,1/2-y,1/2-z
1/2+x,1/2+y,1/2-z
1/2-x,1/2+y,1/2+z
1/2+x,1/2-y,1/2+z
loop_
_atom_site_type_symbol
_atom_site_label
_atom_site_fract_x
_atom_site_fract_y
_atom_site_fract_z
Si Si1 0.686420 0.333026 0.051769
Si Si2 0.580555 0.833298 0.619379
Si Si3 0.580785 0.332475 0.869974
Si Si4 0.813365 0.334098 0.802311
Si Si5 0.824946 0.833148 0.946912
Si Si6 0.825113 0.668708 0.301964
O O1 0.707418 0.500000 0.056088
O O2 0.620423 0.293680 0.083208
O O3 0.752977 0.242204 0.068953
O O4 0.665932 0.292952 0.000000
O O5 0.500000 0.792269 0.627724
O O6 0.620861 0.797586 0.665969
O O7 0.609357 0.736878 0.578491
O O8 0.589635 0.000000 0.605685
O O9 0.500000 0.291075 0.877442
O O10 0.590200 0.500000 0.857614
O O11 0.610309 0.239245 0.828486
O O12 0.789545 0.500000 0.806577
O O13 0.836764 0.297422 0.751149
O O14 0.748102 0.237481 0.818551
O O15 0.819506 0.000000 0.934023
O O16 0.837882 0.808435 0.000000
O O17 0.823024 0.500000 0.312494
#
# Coordination Sequence:
#
# PCOD8290631 Si02
#       6
#    16  16  16  16  16  16
#     4   9  18  34  56  78 100 132 175 217 254 297
#     4  10  21  36  54  76 102 134 172 212 253 299
#     4  10  21  35  51  75 108 141 171 209 258 307
#     4   9  19  36  56  77 103 135 171 213 258 302
#     4  10  21  36  54  77 105 135 167 207 256 307
#     4  10  20  34  55  80 104 134 173 214 255 304
#
# _framework density 18.515512000000001
#
# number of rings (size 3 to 8) (size 9 to 14) (size 15 to 20)
#    0.000    2.333    0.000    2.000    0.000    9.000 
#    0.000    5.000    0.000    0.000    0.000    3.500 
#    0.000    0.000    0.000    0.000    0.000    0.000 
#
# Total GULP energy -595435.498192 kJ/mol
# GULP energy per Si atom -12404.906212 kJ/mol
# Density = 1.847337 g / cm^3
# Si number density = 18.515512 Si / 1000 Ang^3
#
#
#
# Elastic Constant Matrix: (Units=GPa)
#
#
# Indices 1 2 3 4 5 6 
#
# 1 157.0325 71.0234 71.6927 0.0000 0.0000 0.0000
# 2 71.0234 86.1081 53.4762 0.0000 0.0000 0.0000
# 3 71.6927 53.4762 85.6944 0.0000 0.0000 0.0000
# 4 0.0000 0.0000 0.0000 30.2332 0.0000 0.0000
# 5 0.0000 0.0000 0.0000 0.0000 25.2129 0.0000
# 6 0.0000 0.0000 0.0000 0.0000 0.0000 21.1061
#
#
#
# Elastic Compliance Matrix: (Units=1/GPa)
#
#
# Indices 1 2 3 4 5 6 
#
# 1 0.011911 -0.005937 -0.006260 0.000000 0.000000 0.000000
# 2 -0.005937 0.021921 -0.008713 0.000000 0.000000 0.000000
# 3 -0.006260 -0.008713 0.022344 0.000000 0.000000 0.000000
# 4 0.000000 0.000000 0.000000 0.033076 0.000000 0.000000
# 5 0.000000 0.000000 0.000000 0.000000 0.039662 0.000000
# 6 0.000000 0.000000 0.000000 0.000000 0.000000 0.047380
#
#
# Mechanical properties :
#
#
# Convention : Reuss Voigt Hill
#
# Bulk Modulus (GPa) = 69.65479 80.13552 74.89515
# Shear Modulus (GPa) = 22.43163 24.15330 23.29246
#
# Velocity S-wave (km/s) = 3.48444 3.61569 3.55067
# Velocity P-wave (km/s) = 7.34097 7.79776 7.57281
#
# Compressibility (1/GPa) = 0.01435651
#
# Stress axis : x y z
#
# Youngs Moduli (GPa) = 83.95317 45.61852 44.75488
#
# Poissons Ratio (x) = 0.27083 0.28019
# Poissons Ratio (y) = 0.49841 0.38993
# Poissons Ratio (z) = 0.52558 0.39746
#
# Static dielectric constant tensor:
#      x y z
#    x 3.366230 0.000000 0.000000 
#    y 0.000000 3.426570 0.000000 
#    z 0.000000 0.000000 3.508370 
# 
# 
# High freq. dielectric constant tensor:
#      x y z
#    x 1.712550 0.000000 0.000000 
#    y 0.000000 1.717220 0.000000 
#    z 0.000000 0.000000 1.726970 
# 
# From -- ./inp_files/10915.got.cif
#   From: 2010.06.25/outbox.cif.g09.slc.cpg/sg71_6_cif.got.tgz:10915.got - 2010.06.28 04:59:45.
