data_PCOD8290561
_publ_section_title
;
Structure prediction by ZEFSAII (Michael W. Deem and Ramdas Pophale) SiO2 
 PCOD8290561
Probable space group: I M M M
;
_chemical_formula_sum "Si O2"
_cell_formula_units_Z 104
_cell_length_a 25.922147
_cell_length_b 21.905046
_cell_length_c 9.462705
_cell_angle_alpha 90.000000
_cell_angle_beta 90.000000
_cell_angle_gamma 90.000000
_cell_volume 5373.168249
_symmetry_space_group_name_H-M "I M M M"
_symmetry_group_IT_number 71
_symmetry_cell_setting 'orthorhombic'
loop_
_space_group_symop_operation_xyz
x,y,z
-x,-y,z
x,-y,-z
-x,y,-z
-x,-y,-z
x,y,-z
-x,y,z
x,-y,z
1/2+x,1/2+y,1/2+z
1/2-x,1/2-y,1/2+z
1/2+x,1/2-y,1/2-z
1/2-x,1/2+y,1/2-z
1/2-x,1/2-y,1/2-z
1/2+x,1/2+y,1/2-z
1/2-x,1/2+y,1/2+z
1/2+x,1/2-y,1/2+z
loop_
_atom_site_type_symbol
_atom_site_label
_atom_site_fract_x
_atom_site_fract_y
_atom_site_fract_z
Si Si1 0.295486 0.358066 0.664566
Si Si2 0.441693 0.332239 0.158940
Si Si3 0.500000 0.930554 0.332781
Si Si4 0.799735 0.568734 0.662032
Si Si5 0.366360 0.746809 0.663839
Si Si6 0.389329 0.885034 0.335309
Si Si7 0.104246 0.929830 0.165584
O O1 0.288005 0.368184 0.500000
O O2 0.241692 0.382874 0.730334
O O3 0.311398 0.287335 0.699905
O O4 0.341702 0.401273 0.716493
O O5 0.500000 0.309509 0.154287
O O6 0.410789 0.280367 0.240169
O O7 0.439463 0.396245 0.243234
O O8 0.419881 0.340279 0.000000
O O9 0.500000 0.932986 0.500000
O O10 0.448481 0.894284 0.281972
O O11 0.500000 0.000000 0.272546
O O12 0.812727 0.585426 0.500000
O O13 0.776941 0.500000 0.672014
O O14 0.852587 0.569672 0.749972
O O15 0.379992 0.733781 0.500000
O O16 0.366009 0.818171 0.696314
O O17 0.385877 0.901227 0.500000
O O18 0.103346 0.000000 0.206017
O O19 0.094149 0.918824 0.000000
#
# Coordination Sequence:
#
# PCOD8290561 Si02
#       7
#    16  16   8  16  16  16  16
#     4   8  15  31  53  77 105 138 174 216 262 312
#     4  10  21  34  48  70 103 140 174 217 275 329
#     4   9  18  34  55  77 105 141 174 211 266 323
#     4  10  20  34  54  79 108 143 178 211 258 322
#     4   9  19  35  56  79 102 133 180 227 266 313
#     4  10  21  36  56  82 107 136 176 224 273 319
#     4   9  17  31  52  75  99 134 182 228 267 312
#
# _framework density 19.355433000000001
#
# number of rings (size 3 to 8) (size 9 to 14) (size 15 to 20)
#    0.000    2.692    0.000    2.308    1.077    5.846 
#    0.000    5.000    0.000    5.077    0.000    0.000 
#    0.000    0.000    0.000    0.000    0.000    0.000 
#
# Total GULP energy -644410.027538 kJ/mol
# GULP energy per Si atom -12392.500530 kJ/mol
# Density = 1.931138 g / cm^3
# Si number density = 19.355433 Si / 1000 Ang^3
#
#
#
# Elastic Constant Matrix: (Units=GPa)
#
#
# Indices 1 2 3 4 5 6 
#
# 1 116.5774 38.0148 32.0243 0.0000 0.0000 0.0000
# 2 38.0148 95.8597 27.3428 0.0000 0.0000 0.0000
# 3 32.0243 27.3428 55.1646 0.0000 0.0000 0.0000
# 4 0.0000 0.0000 0.0000 17.6835 0.0000 0.0000
# 5 0.0000 0.0000 0.0000 0.0000 24.5058 0.0000
# 6 0.0000 0.0000 0.0000 0.0000 0.0000 26.4340
#
#
#
# Elastic Compliance Matrix: (Units=1/GPa)
#
#
# Indices 1 2 3 4 5 6 
#
# 1 0.010866 -0.002923 -0.004859 0.000000 0.000000 0.000000
# 2 -0.002923 0.012936 -0.004715 0.000000 0.000000 0.000000
# 3 -0.004859 -0.004715 0.023285 0.000000 0.000000 0.000000
# 4 0.000000 0.000000 0.000000 0.056550 0.000000 0.000000
# 5 0.000000 0.000000 0.000000 0.000000 0.040807 0.000000
# 6 0.000000 0.000000 0.000000 0.000000 0.000000 0.037830
#
#
# Mechanical properties :
#
#
# Convention : Reuss Voigt Hill
#
# Bulk Modulus (GPa) = 45.26291 51.37395 48.31843
# Shear Modulus (GPa) = 23.29560 25.07262 24.18411
#
# Velocity S-wave (km/s) = 3.47301 3.60304 3.53862
# Velocity P-wave (km/s) = 6.28636 6.62640 6.45862
#
# Compressibility (1/GPa) = 0.02209314
#
# Stress axis : x y z
#
# Youngs Moduli (GPa) = 92.03016 77.30372 42.94544
#
# Poissons Ratio (x) = 0.22597 0.20868
# Poissons Ratio (y) = 0.26901 0.20248
# Poissons Ratio (z) = 0.44718 0.36448
#
# Static dielectric constant tensor:
#      x y z
#    x 3.573330 0.000000 0.000000 
#    y 0.000000 3.623850 0.000000 
#    z 0.000000 0.000000 3.288980 
# 
# 
# High freq. dielectric constant tensor:
#      x y z
#    x 1.749680 0.000000 0.000000 
#    y 0.000000 1.757610 0.000000 
#    z 0.000000 0.000000 1.723580 
# 
# From -- ./inp_files/15021.got.cif
#   From: 2010.06.25/outbox.cif.g09.slc.cpg/sg71_8_cif.got.tgz:15021.got - 2010.06.28 04:59:45.
