data_PCOD8290350
_publ_section_title
;
Structure prediction by ZEFSAII (Michael W. Deem and Ramdas Pophale) SiO2 
 PCOD8290350
Probable space group: I M M M
;
_chemical_formula_sum "Si O2"
_cell_formula_units_Z 112
_cell_length_a 9.739150
_cell_length_b 17.977102
_cell_length_c 36.007208
_cell_angle_alpha 90.000000
_cell_angle_beta 90.000000
_cell_angle_gamma 90.000000
_cell_volume 6304.202935
_symmetry_space_group_name_H-M "I M M M"
_symmetry_group_IT_number 71
_symmetry_cell_setting 'orthorhombic'
loop_
_space_group_symop_operation_xyz
x,y,z
-x,-y,z
x,-y,-z
-x,y,-z
-x,-y,-z
x,y,-z
-x,y,z
x,-y,z
1/2+x,1/2+y,1/2+z
1/2-x,1/2-y,1/2+z
1/2+x,1/2-y,1/2-z
1/2-x,1/2+y,1/2-z
1/2-x,1/2-y,1/2-z
1/2+x,1/2+y,1/2-z
1/2-x,1/2+y,1/2+z
1/2+x,1/2-y,1/2+z
loop_
_atom_site_type_symbol
_atom_site_label
_atom_site_fract_x
_atom_site_fract_y
_atom_site_fract_z
Si Si1 0.154208 0.411651 0.041170
Si Si2 0.345987 0.411595 0.459088
Si Si3 0.842367 0.414367 0.606055
Si Si4 0.159482 0.087400 0.392029
Si Si5 0.658376 0.587426 0.744928
Si Si6 0.339238 0.837814 0.817033
Si Si7 0.162304 0.832062 0.681395
O O1 0.158630 0.500000 0.041226
O O2 0.258874 0.381272 0.072203
O O3 0.000000 0.384118 0.050477
O O4 0.197601 0.382832 0.000000
O O5 0.303126 0.381789 0.500000
O O6 0.500000 0.385226 0.449600
O O7 0.337703 0.500000 0.459284
O O8 0.244344 0.379707 0.427891
O O9 0.803684 0.500000 0.614051
O O10 0.806653 0.367396 0.642172
O O11 0.000000 0.406306 0.594638
O O12 0.219875 0.129626 0.355947
O O13 0.000000 0.105502 0.398738
O O14 0.183301 0.000000 0.385783
O O15 0.500000 0.609918 0.737455
O O16 0.673759 0.500000 0.749690
O O17 0.751391 0.614090 0.711251
O O18 0.716419 0.624887 0.782403
O O19 0.500000 0.846258 0.807230
O O20 0.289142 0.752877 0.815561
O O21 0.000000 0.838172 0.679671
#
# Coordination Sequence:
#
# PCOD8290350 Si02
#       7
#    16  16  16  16  16  16  16
#     4   8  14  25  41  63  93 125 154 190 239 287
#     4   8  14  25  42  65  91 117 147 186 230 271
#     4   9  17  28  43  65  91 118 150 188 228 269
#     4   9  16  27  46  70  93 119 156 200 239 278
#     4  10  20  34  53  75  97 122 155 194 235 280
#     4  10  20  34  51  70  96 128 159 192 231 278
#     4   9  18  33  51  70  95 127 158 190 234 283
#
# _framework density 17.765924999999999
#
# number of rings (size 3 to 8) (size 9 to 14) (size 15 to 20)
#    0.000    3.000    0.000    2.143    0.000    3.714 
#    0.000    5.714    0.000    2.571    0.000    6.000 
#    0.000    0.000    0.000    0.000    0.000    0.000 
#
# Total GULP energy -694248.100860 kJ/mol
# GULP energy per Si atom -12397.287515 kJ/mol
# Density = 1.772549 g / cm^3
# Si number density = 17.765925 Si / 1000 Ang^3
#
#
#
# Elastic Constant Matrix: (Units=GPa)
#
#
# Indices 1 2 3 4 5 6 
#
# 1 71.2934 31.6920 75.4509 0.0000 0.0000 0.0000
# 2 31.6920 62.3612 46.9660 0.0000 0.0000 0.0000
# 3 75.4509 46.9660 146.6971 0.0000 0.0000 0.0000
# 4 0.0000 0.0000 0.0000 3.0495 0.0000 0.0000
# 5 0.0000 0.0000 0.0000 0.0000 28.1147 0.0000
# 6 0.0000 0.0000 0.0000 0.0000 0.0000 15.0989
#
#
#
# Elastic Compliance Matrix: (Units=1/GPa)
#
#
# Indices 1 2 3 4 5 6 
#
# 1 0.031963 -0.005090 -0.014810 0.000000 0.000000 0.000000
# 2 -0.005090 0.021941 -0.004407 0.000000 0.000000 0.000000
# 3 -0.014810 -0.004407 0.015845 0.000000 0.000000 0.000000
# 4 0.000000 0.000000 0.000000 0.327924 0.000000 0.000000
# 5 0.000000 0.000000 0.000000 0.000000 0.035569 0.000000
# 6 0.000000 0.000000 0.000000 0.000000 0.000000 0.066230
#
#
# Mechanical properties :
#
#
# Convention : Reuss Voigt Hill
#
# Bulk Modulus (GPa) = 47.31311 65.39662 56.35486
# Shear Modulus (GPa) = 9.00692 17.66880 13.33786
#
# Velocity S-wave (km/s) = 2.25406 3.15704 2.74296
# Velocity P-wave (km/s) = 5.78477 7.08373 6.46695
#
# Compressibility (1/GPa) = 0.02113579
#
# Stress axis : x y z
#
# Youngs Moduli (GPa) = 31.28663 45.57660 63.11221
#
# Poissons Ratio (x) = 0.23197 0.93468
# Poissons Ratio (y) = 0.15924 0.27812
# Poissons Ratio (z) = 0.46335 0.20085
#
# Static dielectric constant tensor:
#      x y z
#    x 3.240580 0.000000 0.000000 
#    y 0.000000 3.071120 0.000000 
#    z 0.000000 0.000000 3.646780 
# 
# 
# High freq. dielectric constant tensor:
#      x y z
#    x 1.669010 0.000000 0.000000 
#    y 0.000000 1.659480 0.000000 
#    z 0.000000 0.000000 1.701540 
# 
# From -- ./inp_files/69326.got.cif
#   From: 2010.06.25/outbox.cif.g09.slc.cpg/sg71_35_cif.got.tgz:69326.got - 2010.06.28 04:59:45.
