data_PCOD8290720
_publ_section_title
;
Structure prediction by ZEFSAII (Michael W. Deem and Ramdas Pophale) SiO2 
 PCOD8290720
Probable space group: I M M M
;
_chemical_formula_sum "Si O2"
_cell_formula_units_Z 112
_cell_length_a 27.347379
_cell_length_b 15.027945
_cell_length_c 13.619296
_cell_angle_alpha 90.000000
_cell_angle_beta 90.000000
_cell_angle_gamma 90.000000
_cell_volume 5597.188914
_symmetry_space_group_name_H-M "I M M M"
_symmetry_group_IT_number 71
_symmetry_cell_setting 'orthorhombic'
loop_
_space_group_symop_operation_xyz
x,y,z
-x,-y,z
x,-y,-z
-x,y,-z
-x,-y,-z
x,y,-z
-x,y,z
x,-y,z
1/2+x,1/2+y,1/2+z
1/2-x,1/2-y,1/2+z
1/2+x,1/2-y,1/2-z
1/2-x,1/2+y,1/2-z
1/2-x,1/2-y,1/2-z
1/2+x,1/2+y,1/2-z
1/2-x,1/2+y,1/2+z
1/2+x,1/2-y,1/2+z
loop_
_atom_site_type_symbol
_atom_site_label
_atom_site_fract_x
_atom_site_fract_y
_atom_site_fract_z
Si Si1 0.266768 0.847436 0.220957
Si Si2 0.826531 0.401623 0.107703
Si Si3 0.889528 0.101501 0.610997
Si Si4 0.336984 0.598395 0.307408
Si Si5 0.944887 0.263210 0.310679
Si Si6 0.136305 0.602842 0.384135
Si Si7 0.099945 0.750793 0.888361
O O1 0.250000 0.750000 0.250000
O O2 0.280353 0.897870 0.321016
O O3 0.220843 0.896326 0.171655
O O4 0.313231 0.850049 0.148516
O O5 0.849413 0.500000 0.108287
O O6 0.869027 0.335764 0.141696
O O7 0.807496 0.374592 0.000000
O O8 0.869102 0.116373 0.500000
O O9 0.847292 0.120421 0.691942
O O10 0.932657 0.171976 0.631499
O O11 0.909404 0.000000 0.621752
O O12 0.355535 0.500000 0.333661
O O13 0.365034 0.663983 0.380144
O O14 0.909558 0.343769 0.340860
O O15 0.942545 0.244205 0.192939
O O16 0.000000 0.290822 0.337445
O O17 0.133224 0.607183 0.500000
O O18 0.134954 0.500000 0.347034
O O19 0.079232 0.745065 0.000000
#
# Coordination Sequence:
#
# PCOD8290720 Si02
#       7
#    16  16  16  16  16  16  16
#     4  12  21  36  58  85 121 158 196 241 283 336
#     4  10  20  35  57  81 109 148 190 235 286 337
#     4   9  19  37  59  87 124 158 191 241 303 360
#     4  10  20  34  56  86 120 159 199 238 283 344
#     4  11  23  40  63  89 114 148 198 253 304 357
#     4  11  25  43  61  85 122 164 201 242 294 352
#     4  10  21  39  59  84 116 149 190 240 295 353
#
# _framework density 20.010045000000002
#
# number of rings (size 3 to 8) (size 9 to 14) (size 15 to 20)
#    0.000    1.571    2.857    2.571    0.000    4.000 
#    0.000    2.857    0.000    0.000    0.000    7.000 
#    0.000    0.000    0.000    0.000    0.000    0.000 
#
# Total GULP energy -694194.848637 kJ/mol
# GULP energy per Si atom -12396.336583 kJ/mol
# Density = 1.996450 g / cm^3
# Si number density = 20.010045 Si / 1000 Ang^3
#
#
#
# Elastic Constant Matrix: (Units=GPa)
#
#
# Indices 1 2 3 4 5 6 
#
# 1 110.9586 37.4473 24.6308 0.0000 0.0000 0.0000
# 2 37.4473 128.5356 22.8882 0.0000 0.0000 0.0000
# 3 24.6308 22.8882 83.0628 0.0000 0.0000 0.0000
# 4 0.0000 0.0000 0.0000 28.6420 0.0000 0.0000
# 5 0.0000 0.0000 0.0000 0.0000 13.1551 0.0000
# 6 0.0000 0.0000 0.0000 0.0000 0.0000 17.3699
#
#
#
# Elastic Compliance Matrix: (Units=1/GPa)
#
#
# Indices 1 2 3 4 5 6 
#
# 1 0.010421 -0.002614 -0.002370 0.000000 0.000000 0.000000
# 2 -0.002614 0.008837 -0.001660 0.000000 0.000000 0.000000
# 3 -0.002370 -0.001660 0.013199 0.000000 0.000000 0.000000
# 4 0.000000 0.000000 0.000000 0.034914 0.000000 0.000000
# 5 0.000000 0.000000 0.000000 0.000000 0.076016 0.000000
# 6 0.000000 0.000000 0.000000 0.000000 0.000000 0.057571
#
#
# Mechanical properties :
#
#
# Convention : Reuss Voigt Hill
#
# Bulk Modulus (GPa) = 52.16609 54.72105 53.44357
# Shear Modulus (GPa) = 22.66187 27.67278 25.16732
#
# Velocity S-wave (km/s) = 3.36895 3.72283 3.55030
# Velocity P-wave (km/s) = 6.42337 6.77388 6.60095
#
# Compressibility (1/GPa) = 0.01916954
#
# Stress axis : x y z
#
# Youngs Moduli (GPa) = 95.96385 113.15965 75.76215
#
# Poissons Ratio (x) = 0.29579 0.17954
# Poissons Ratio (y) = 0.25084 0.12576
# Poissons Ratio (z) = 0.22741 0.18784
#
# Static dielectric constant tensor:
#      x y z
#    x 3.355000 0.000000 0.000000 
#    y 0.000000 3.900340 0.000000 
#    z 0.000000 0.000000 3.785970 
# 
# 
# High freq. dielectric constant tensor:
#      x y z
#    x 1.742310 0.000000 0.000000 
#    y 0.000000 1.798640 0.000000 
#    z 0.000000 0.000000 1.791590 
# 
# From -- ./inp_files/35109.got.cif
#   From: 2010.06.25/outbox.cif.g09.slc.cpg/sg71_18_cif.got.tgz:35109.got - 2010.06.28 04:59:45.
