data_PCOD8290465
_publ_section_title
;
Structure prediction by ZEFSAII (Michael W. Deem and Ramdas Pophale) SiO2 
 PCOD8290465
Probable space group: I M M M
;
_chemical_formula_sum "Si O2"
_cell_formula_units_Z 120
_cell_length_a 27.921841
_cell_length_b 8.782801
_cell_length_c 28.084297
_cell_angle_alpha 90.000000
_cell_angle_beta 90.000000
_cell_angle_gamma 90.000000
_cell_volume 6887.167565
_symmetry_space_group_name_H-M "I M M M"
_symmetry_group_IT_number 71
_symmetry_cell_setting 'orthorhombic'
loop_
_space_group_symop_operation_xyz
x,y,z
-x,-y,z
x,-y,-z
-x,y,-z
-x,-y,-z
x,y,-z
-x,y,z
x,-y,z
1/2+x,1/2+y,1/2+z
1/2-x,1/2-y,1/2+z
1/2+x,1/2-y,1/2-z
1/2-x,1/2+y,1/2-z
1/2-x,1/2-y,1/2-z
1/2+x,1/2+y,1/2-z
1/2-x,1/2+y,1/2+z
1/2+x,1/2-y,1/2+z
loop_
_atom_site_type_symbol
_atom_site_label
_atom_site_fract_x
_atom_site_fract_y
_atom_site_fract_z
Si Si1 0.723899 0.823323 0.554677
Si Si2 0.800784 0.825856 0.299352
Si Si3 0.093944 0.321284 0.446194
Si Si4 0.555351 0.821680 0.554599
Si Si5 0.812487 0.675587 0.797624
Si Si6 0.811976 0.678087 0.393748
Si Si7 0.500000 0.327403 0.943435
Si Si8 0.140781 0.820227 0.109439
O O1 0.737179 0.791632 0.500000
O O2 0.767406 0.774007 0.587706
O O3 0.677161 0.726989 0.567742
O O4 0.712690 0.000000 0.564340
O O5 0.823772 0.770655 0.249868
O O6 0.743965 0.806412 0.305181
O O7 0.822950 0.716194 0.339132
O O8 0.816019 0.000000 0.307137
O O9 0.097776 0.263611 0.500000
O O10 0.088368 0.500000 0.442496
O O11 0.141695 0.263755 0.421374
O O12 0.047368 0.248823 0.421242
O O13 0.566939 0.773196 0.500000
O O14 0.500000 0.784087 0.566264
O O15 0.588038 0.731058 0.592374
O O16 0.565539 0.000000 0.560767
O O17 0.826825 0.500000 0.790593
O O18 0.843157 0.741888 0.841254
O O19 0.801626 0.500000 0.401211
O O20 0.500000 0.500000 0.927690
O O21 0.500000 0.302228 0.000000
O O22 0.141530 0.000000 0.117150
#
# Coordination Sequence:
#
# PCOD8290465 Si02
#       8
#    16  16  16  16  16  16   8  16
#     4  11  23  36  49  69 103 145 182 215 254 304
#     4  10  20  34  53  76 105 137 172 215 261 307
#     4   9  18  32  49  70  99 135 171 208 250 299
#     4   9  19  37  59  81 108 144 184 225 270 322
#     4  10  20  35  55  76 103 136 174 216 259 307
#     4  11  21  33  51  75 104 137 174 211 256 311
#     4   9  17  29  47  71  95 123 165 213 253 289
#     4  12  23  34  53  80 109 140 177 220 266 316
#
# _framework density 17.423708000000001
#
# number of rings (size 3 to 8) (size 9 to 14) (size 15 to 20)
#    0.000    1.800    1.333    4.200    0.000    6.667 
#    0.000    2.000    0.000    0.000    1.733    0.000 
#    0.000    0.000    0.000    0.000    0.000    0.000 
#
# Total GULP energy -744011.411051 kJ/mol
# GULP energy per Si atom -12400.190184 kJ/mol
# Density = 1.738405 g / cm^3
# Si number density = 17.423708 Si / 1000 Ang^3
#
#
#
# Elastic Constant Matrix: (Units=GPa)
#
#
# Indices 1 2 3 4 5 6 
#
# 1 89.6562 36.8293 37.2380 0.0000 0.0000 0.0000
# 2 36.8293 71.2343 30.3802 0.0000 0.0000 0.0000
# 3 37.2380 30.3802 89.4181 0.0000 0.0000 0.0000
# 4 0.0000 0.0000 0.0000 28.9514 0.0000 0.0000
# 5 0.0000 0.0000 0.0000 0.0000 14.9126 0.0000
# 6 0.0000 0.0000 0.0000 0.0000 0.0000 24.4790
#
#
#
# Elastic Compliance Matrix: (Units=1/GPa)
#
#
# Indices 1 2 3 4 5 6 
#
# 1 0.015491 -0.006149 -0.004362 0.000000 0.000000 0.000000
# 2 -0.006149 0.018858 -0.003846 0.000000 0.000000 0.000000
# 3 -0.004362 -0.003846 0.014307 0.000000 0.000000 0.000000
# 4 0.000000 0.000000 0.000000 0.034541 0.000000 0.000000
# 5 0.000000 0.000000 0.000000 0.000000 0.067058 0.000000
# 6 0.000000 0.000000 0.000000 0.000000 0.000000 0.040851
#
#
# Mechanical properties :
#
#
# Convention : Reuss Voigt Hill
#
# Bulk Modulus (GPa) = 50.14778 51.02264 50.58521
# Shear Modulus (GPa) = 22.07824 23.39266 22.73545
#
# Velocity S-wave (km/s) = 3.56355 3.66809 3.61620
# Velocity P-wave (km/s) = 6.76577 6.87655 6.82138
#
# Compressibility (1/GPa) = 0.01994106
#
# Stress axis : x y z
#
# Youngs Moduli (GPa) = 64.55194 53.02898 69.89649
#
# Poissons Ratio (x) = 0.32607 0.30491
# Poissons Ratio (y) = 0.39692 0.26884
# Poissons Ratio (z) = 0.28159 0.20396
#
# Static dielectric constant tensor:
#      x y z
#    x 3.258180 0.000000 0.000000 
#    y 0.000000 3.255220 0.000000 
#    z 0.000000 0.000000 3.243400 
# 
# 
# High freq. dielectric constant tensor:
#      x y z
#    x 1.657720 0.000000 0.000000 
#    y 0.000000 1.683120 0.000000 
#    z 0.000000 0.000000 1.662680 
# 
# From -- ./inp_files/67155.got.cif
#   From: 2010.06.25/outbox.cif.g09.slc.cpg/sg71_34_cif.got.tgz:67155.got - 2010.06.28 04:59:45.
