data_PCOD8290132
_publ_section_title
;
Structure prediction by ZEFSAII (Michael W. Deem and Ramdas Pophale) SiO2 
 PCOD8290132
Probable space group: I M M M
;
_chemical_formula_sum "Si O2"
_cell_formula_units_Z 104
_cell_length_a 10.033159
_cell_length_b 15.751559
_cell_length_c 33.769248
_cell_angle_alpha 90.000000
_cell_angle_beta 90.000000
_cell_angle_gamma 90.000000
_cell_volume 5336.820902
_symmetry_space_group_name_H-M "I M M M"
_symmetry_group_IT_number 71
_symmetry_cell_setting 'orthorhombic'
loop_
_space_group_symop_operation_xyz
x,y,z
-x,-y,z
x,-y,-z
-x,y,-z
-x,-y,-z
x,y,-z
-x,y,z
x,-y,z
1/2+x,1/2+y,1/2+z
1/2-x,1/2-y,1/2+z
1/2+x,1/2-y,1/2-z
1/2-x,1/2+y,1/2-z
1/2-x,1/2-y,1/2-z
1/2+x,1/2+y,1/2-z
1/2-x,1/2+y,1/2+z
1/2+x,1/2-y,1/2+z
loop_
_atom_site_type_symbol
_atom_site_label
_atom_site_fract_x
_atom_site_fract_y
_atom_site_fract_z
Si Si1 0.349484 0.596714 0.240469
Si Si2 0.272730 0.903839 0.416981
Si Si3 0.154473 0.637600 0.830131
Si Si4 0.347147 0.333867 0.679014
Si Si5 0.649226 0.260469 0.456851
Si Si6 0.341119 0.405327 0.599099
Si Si7 0.500000 0.400620 0.955735
O O1 0.500000 0.628857 0.228893
O O2 0.357961 0.500000 0.254030
O O3 0.247869 0.604123 0.204481
O O4 0.284509 0.648170 0.277671
O O5 0.291987 0.905352 0.370020
O O6 0.364818 0.832353 0.436652
O O7 0.125982 0.872749 0.429725
O O8 0.303673 0.000000 0.432650
O O9 0.170730 0.737571 0.834071
O O10 0.000000 0.612009 0.822553
O O11 0.500000 0.359916 0.684378
O O12 0.283608 0.389502 0.643463
O O13 0.720677 0.254216 0.500000
O O14 0.500000 0.292663 0.463355
O O15 0.720551 0.333352 0.430141
O O16 0.500000 0.394774 0.601104
O O17 0.299964 0.500000 0.584900
O O18 0.500000 0.500000 0.961390
O O19 0.500000 0.358997 0.000000
#
# Coordination Sequence:
#
# PCOD8290132 Si02
#       7
#    16  16  16  16  16  16   8
#     4  10  21  35  54  80 109 143 190 239 277 325
#     4  11  22  36  56  79 109 146 185 226 272 329
#     4  11  22  36  55  80 114 151 185 225 279 341
#     4   9  17  33  54  77 106 143 186 229 276 329
#     4  10  20  33  50  77 111 143 177 218 269 332
#     4   9  16  29  51  76 105 140 178 224 276 326
#     4   9  20  38  58  80 105 141 191 239 278 320
#
# _framework density 19.487257
#
# number of rings (size 3 to 8) (size 9 to 14) (size 15 to 20)
#    0.000    2.077    1.538    2.308    1.077    5.231 
#    0.000    2.308    0.000    0.000    0.000    0.538 
#    0.000    1.846    0.000    0.000    0.000    0.000 
#
# Total GULP energy -644359.621344 kJ/mol
# GULP energy per Si atom -12391.531180 kJ/mol
# Density = 1.944290 g / cm^3
# Si number density = 19.487257 Si / 1000 Ang^3
#
#
#
# Elastic Constant Matrix: (Units=GPa)
#
#
# Indices 1 2 3 4 5 6 
#
# 1 63.5160 13.8567 33.9079 0.0000 0.0000 0.0000
# 2 13.8567 107.4058 51.1580 0.0000 0.0000 0.0000
# 3 33.9079 51.1580 149.2299 0.0000 0.0000 0.0000
# 4 0.0000 0.0000 0.0000 20.3541 0.0000 0.0000
# 5 0.0000 0.0000 0.0000 0.0000 19.4239 0.0000
# 6 0.0000 0.0000 0.0000 0.0000 0.0000 12.3166
#
#
#
# Elastic Compliance Matrix: (Units=1/GPa)
#
#
# Indices 1 2 3 4 5 6 
#
# 1 0.017935 -0.000446 -0.003923 0.000000 0.000000 0.000000
# 2 -0.000446 0.011138 -0.003717 0.000000 0.000000 0.000000
# 3 -0.003923 -0.003717 0.008867 0.000000 0.000000 0.000000
# 4 0.000000 0.000000 0.000000 0.049130 0.000000 0.000000
# 5 0.000000 0.000000 0.000000 0.000000 0.051483 0.000000
# 6 0.000000 0.000000 0.000000 0.000000 0.000000 0.081191
#
#
# Mechanical properties :
#
#
# Convention : Reuss Voigt Hill
#
# Bulk Modulus (GPa) = 45.93494 57.55521 51.74507
# Shear Modulus (GPa) = 20.56160 25.16753 22.86456
#
# Velocity S-wave (km/s) = 3.25180 3.59762 3.42908
# Velocity P-wave (km/s) = 6.14182 6.84515 6.50300
#
# Compressibility (1/GPa) = 0.02176992
#
# Stress axis : x y z
#
# Youngs Moduli (GPa) = 55.75595 89.77891 112.78234
#
# Poissons Ratio (x) = 0.04000 0.44239
# Poissons Ratio (y) = 0.02484 0.41923
# Poissons Ratio (z) = 0.21870 0.33372
#
# Static dielectric constant tensor:
#      x y z
#    x 3.296540 0.000000 0.000000 
#    y 0.000000 3.589970 0.000000 
#    z 0.000000 0.000000 3.804580 
# 
# 
# High freq. dielectric constant tensor:
#      x y z
#    x 1.703070 0.000000 0.000000 
#    y 0.000000 1.763560 0.000000 
#    z 0.000000 0.000000 1.773200 
# 
# From -- ./inp_files/69319.got.cif
#   From: 2010.06.25/outbox.cif.g09.slc.cpg/sg71_35_cif.got.tgz:69319.got - 2010.06.28 04:59:45.
