data_PCOD8290074
_publ_section_title
;
Structure prediction by ZEFSAII (Michael W. Deem and Ramdas Pophale) SiO2 
 PCOD8290074
Probable space group: I M M M
;
_chemical_formula_sum "Si O2"
_cell_formula_units_Z 80
_cell_length_a 25.274772
_cell_length_b 19.481019
_cell_length_c 9.300089
_cell_angle_alpha 90.000000
_cell_angle_beta 90.000000
_cell_angle_gamma 90.000000
_cell_volume 4579.162138
_symmetry_space_group_name_H-M "I M M M"
_symmetry_group_IT_number 71
_symmetry_cell_setting 'orthorhombic'
loop_
_space_group_symop_operation_xyz
x,y,z
-x,-y,z
x,-y,-z
-x,y,-z
-x,-y,-z
x,y,-z
-x,y,z
x,-y,z
1/2+x,1/2+y,1/2+z
1/2-x,1/2-y,1/2+z
1/2+x,1/2-y,1/2-z
1/2-x,1/2+y,1/2-z
1/2-x,1/2-y,1/2-z
1/2+x,1/2+y,1/2-z
1/2-x,1/2+y,1/2+z
1/2+x,1/2-y,1/2+z
loop_
_atom_site_type_symbol
_atom_site_label
_atom_site_fract_x
_atom_site_fract_y
_atom_site_fract_z
Si Si1 0.614410 0.418244 0.335265
Si Si2 0.689094 0.813355 0.666067
Si Si3 0.689431 0.678331 0.168058
Si Si4 0.898724 0.421349 0.166708
Si Si5 0.500000 0.081647 0.837640
Si Si6 0.500000 0.425157 0.330199
O O1 0.626859 0.398142 0.500000
O O2 0.615805 0.500000 0.316011
O O3 0.657864 0.385476 0.232578
O O4 0.555790 0.388734 0.288700
O O5 0.683108 0.792413 0.500000
O O6 0.670194 0.748938 0.759940
O O7 0.748996 0.834513 0.702433
O O8 0.653139 0.878224 0.706447
O O9 0.677960 0.682957 0.000000
O O10 0.886334 0.500000 0.207788
O O11 0.947791 0.391220 0.257061
O O12 0.913868 0.414519 0.000000
O O13 0.500000 0.000000 0.832569
O O14 0.500000 0.109798 0.000000
O O15 0.500000 0.500000 0.256442
O O16 0.500000 0.435421 0.500000
#
# Coordination Sequence:
#
# PCOD8290074 Si02
#       6
#    16  16  16  16   8   8
#     4   9  17  31  52  75  98 127 164 202 238 282
#     4   9  19  35  52  69  94 130 166 198 237 288
#     4  10  20  33  50  72  99 129 160 200 247 289
#     4   9  17  31  52  74  94 122 163 203 235 278
#     4   9  17  29  46  71 102 129 151 187 244 295
#     4   7  12  26  48  71  94 123 159 195 230 273
#
# _framework density 17.470444000000001
#
# number of rings (size 3 to 8) (size 9 to 14) (size 15 to 20)
#    0.000    3.000    0.000    2.100    0.000    4.000 
#    0.000    3.500    0.000    6.600    0.000    0.000 
#    0.000    0.000    0.000    0.000    0.000    0.000 
#
# Total GULP energy -495825.792608 kJ/mol
# GULP energy per Si atom -12395.644815 kJ/mol
# Density = 1.743068 g / cm^3
# Si number density = 17.470444 Si / 1000 Ang^3
#
#
#
# Elastic Constant Matrix: (Units=GPa)
#
#
# Indices 1 2 3 4 5 6 
#
# 1 114.9920 57.4086 56.9978 0.0000 0.0000 0.0000
# 2 57.4086 67.3627 43.3559 0.0000 0.0000 0.0000
# 3 56.9978 43.3559 78.7359 0.0000 0.0000 0.0000
# 4 0.0000 0.0000 0.0000 26.4115 0.0000 0.0000
# 5 0.0000 0.0000 0.0000 0.0000 27.9681 0.0000
# 6 0.0000 0.0000 0.0000 0.0000 0.0000 10.7971
#
#
#
# Elastic Compliance Matrix: (Units=1/GPa)
#
#
# Indices 1 2 3 4 5 6 
#
# 1 0.017194 -0.010289 -0.006782 0.000000 0.000000 0.000000
# 2 -0.010289 0.029151 -0.008604 0.000000 0.000000 0.000000
# 3 -0.006782 -0.008604 0.022348 0.000000 0.000000 0.000000
# 4 0.000000 0.000000 0.000000 0.037862 0.000000 0.000000
# 5 0.000000 0.000000 0.000000 0.000000 0.035755 0.000000
# 6 0.000000 0.000000 0.000000 0.000000 0.000000 0.092617
#
#
# Mechanical properties :
#
#
# Convention : Reuss Voigt Hill
#
# Bulk Modulus (GPa) = 57.65512 64.06837 60.86174
# Shear Modulus (GPa) = 17.11992 19.92388 18.52190
#
# Velocity S-wave (km/s) = 3.13379 3.38069 3.25958
# Velocity P-wave (km/s) = 6.79466 7.21047 7.00565
#
# Compressibility (1/GPa) = 0.01734451
#
# Stress axis : x y z
#
# Youngs Moduli (GPa) = 58.15917 34.30423 44.74726
#
# Poissons Ratio (x) = 0.35294 0.30346
# Poissons Ratio (y) = 0.59838 0.38500
# Poissons Ratio (z) = 0.39442 0.29515
#
# Static dielectric constant tensor:
#      x y z
#    x 3.480470 0.000000 0.000000 
#    y 0.000000 2.990310 0.000000 
#    z 0.000000 0.000000 3.182520 
# 
# 
# High freq. dielectric constant tensor:
#      x y z
#    x 1.685550 0.000000 0.000000 
#    y 0.000000 1.647910 0.000000 
#    z 0.000000 0.000000 1.665690 
# 
# From -- ./inp_files/10234.got.cif
#   From: 2010.06.25/outbox.cif.g09.slc.cpg/sg71_6_cif.got.tgz:10234.got - 2010.06.28 04:59:45.
