data_PCOD8290837
_publ_section_title
;
Structure prediction by ZEFSAII (Michael W. Deem and Ramdas Pophale) SiO2 
 PCOD8290837
Probable space group: I M M M
;
_chemical_formula_sum "Si O2"
_cell_formula_units_Z 104
_cell_length_a 21.192856
_cell_length_b 28.331223
_cell_length_c 8.793839
_cell_angle_alpha 90.000000
_cell_angle_beta 90.000000
_cell_angle_gamma 90.000000
_cell_volume 5279.992673
_symmetry_space_group_name_H-M "I M M M"
_symmetry_group_IT_number 71
_symmetry_cell_setting 'orthorhombic'
loop_
_space_group_symop_operation_xyz
x,y,z
-x,-y,z
x,-y,-z
-x,y,-z
-x,-y,-z
x,y,-z
-x,y,z
x,-y,z
1/2+x,1/2+y,1/2+z
1/2-x,1/2-y,1/2+z
1/2+x,1/2-y,1/2-z
1/2-x,1/2+y,1/2-z
1/2-x,1/2-y,1/2-z
1/2+x,1/2+y,1/2-z
1/2-x,1/2+y,1/2+z
1/2+x,1/2-y,1/2+z
loop_
_atom_site_type_symbol
_atom_site_label
_atom_site_fract_x
_atom_site_fract_y
_atom_site_fract_z
Si Si1 0.103891 0.371941 0.178418
Si Si2 0.655604 0.306252 0.177863
Si Si3 0.760010 0.636476 0.319920
Si Si4 0.821175 0.051020 0.175991
Si Si5 0.500000 0.053942 0.319615
Si Si6 0.069547 0.721264 0.674608
Si Si7 0.428712 0.382935 0.674993
O O1 0.168821 0.368077 0.268294
O O2 0.062661 0.417346 0.233586
O O3 0.066814 0.324319 0.217643
O O4 0.117025 0.375171 0.000000
O O5 0.722861 0.317070 0.258616
O O6 0.625652 0.256112 0.229051
O O7 0.603207 0.344601 0.218367
O O8 0.668109 0.306642 0.000000
O O9 0.756370 0.639316 0.500000
O O10 0.724972 0.590233 0.252377
O O11 0.893560 0.067102 0.196651
O O12 0.811706 0.000000 0.256224
O O13 0.804014 0.046226 0.000000
O O14 0.500000 0.052072 0.500000
O O15 0.500000 0.000000 0.253539
O O16 0.082015 0.706028 0.500000
O O17 0.000000 0.745495 0.688406
O O18 0.423193 0.365887 0.500000
O O19 0.500000 0.390461 0.727181
#
# Coordination Sequence:
#
# PCOD8290837 Si02
#       7
#    16  16  16  16   8  16  16
#     4  11  22  38  61  87 112 145 183 221 272 332
#     4  10  20  35  55  80 109 148 191 229 276 331
#     4  10  21  37  56  80 112 147 183 232 283 330
#     4   8  15  29  49  73 102 137 179 226 274 323
#     4   9  20  40  63  89 121 151 183 227 282 345
#     4  10  21  37  58  83 114 148 183 229 280 326
#     4   9  17  29  47  74 108 145 184 228 276 324
#
# _framework density 19.696995999999999
#
# number of rings (size 3 to 8) (size 9 to 14) (size 15 to 20)
#    0.000    2.385    0.769    2.769    0.000    3.692 
#    0.000    1.538    0.000   14.308    0.000    4.308 
#    0.000    0.000    0.000    0.000    0.000    0.000 
#
# Total GULP energy -644464.539217 kJ/mol
# GULP energy per Si atom -12393.548831 kJ/mol
# Density = 1.965217 g / cm^3
# Si number density = 19.696996 Si / 1000 Ang^3
#
#
#
# Elastic Constant Matrix: (Units=GPa)
#
#
# Indices 1 2 3 4 5 6 
#
# 1 140.9688 48.9302 23.6984 0.0000 0.0000 0.0000
# 2 48.9302 123.3379 27.5135 0.0000 0.0000 0.0000
# 3 23.6984 27.5135 45.7548 0.0000 0.0000 0.0000
# 4 0.0000 0.0000 0.0000 16.2523 0.0000 0.0000
# 5 0.0000 0.0000 0.0000 0.0000 27.0623 0.0000
# 6 0.0000 0.0000 0.0000 0.0000 0.0000 25.4906
#
#
#
# Elastic Compliance Matrix: (Units=1/GPa)
#
#
# Indices 1 2 3 4 5 6 
#
# 1 0.008516 -0.002765 -0.002748 0.000000 0.000000 0.000000
# 2 -0.002765 0.010262 -0.004738 0.000000 0.000000 0.000000
# 3 -0.002748 -0.004738 0.026128 0.000000 0.000000 0.000000
# 4 0.000000 0.000000 0.000000 0.061530 0.000000 0.000000
# 5 0.000000 0.000000 0.000000 0.000000 0.036952 0.000000
# 6 0.000000 0.000000 0.000000 0.000000 0.000000 0.039230
#
#
# Mechanical properties :
#
#
# Convention : Reuss Voigt Hill
#
# Bulk Modulus (GPa) = 40.97925 56.70509 48.84217
# Shear Modulus (GPa) = 23.66815 27.75566 25.71190
#
# Velocity S-wave (km/s) = 3.47019 3.75791 3.61691
# Velocity P-wave (km/s) = 6.07505 6.90510 6.50333
#
# Compressibility (1/GPa) = 0.02440259
#
# Stress axis : x y z
#
# Youngs Moduli (GPa) = 117.43253 97.44800 38.27292
#
# Poissons Ratio (x) = 0.26947 0.10516
# Poissons Ratio (y) = 0.32474 0.18135
# Poissons Ratio (z) = 0.32267 0.46175
#
# Static dielectric constant tensor:
#      x y z
#    x 3.736510 0.000000 0.000000 
#    y 0.000000 3.854820 0.000000 
#    z 0.000000 0.000000 3.312640 
# 
# 
# High freq. dielectric constant tensor:
#      x y z
#    x 1.778460 0.000000 0.000000 
#    y 0.000000 1.762920 0.000000 
#    z 0.000000 0.000000 1.742110 
# 
# From -- ./inp_files/11160.got.cif
#   From: 2010.06.25/outbox.cif.g09.slc.cpg/sg71_6_cif.got.tgz:11160.got - 2010.06.28 04:59:45.
