data_PCOD8290344
_publ_section_title
;
Structure prediction by ZEFSAII (Michael W. Deem and Ramdas Pophale) SiO2 
 PCOD8290344
Probable space group: I M M M
;
_chemical_formula_sum "Si O2"
_cell_formula_units_Z 120
_cell_length_a 26.424611
_cell_length_b 27.823151
_cell_length_c 8.968651
_cell_angle_alpha 90.000000
_cell_angle_beta 90.000000
_cell_angle_gamma 90.000000
_cell_volume 6593.895193
_symmetry_space_group_name_H-M "I M M M"
_symmetry_group_IT_number 71
_symmetry_cell_setting 'orthorhombic'
loop_
_space_group_symop_operation_xyz
x,y,z
-x,-y,z
x,-y,-z
-x,y,-z
-x,-y,-z
x,y,-z
-x,y,z
x,-y,z
1/2+x,1/2+y,1/2+z
1/2-x,1/2-y,1/2+z
1/2+x,1/2-y,1/2-z
1/2-x,1/2+y,1/2-z
1/2-x,1/2-y,1/2-z
1/2+x,1/2+y,1/2-z
1/2-x,1/2+y,1/2+z
1/2+x,1/2-y,1/2+z
loop_
_atom_site_type_symbol
_atom_site_label
_atom_site_fract_x
_atom_site_fract_y
_atom_site_fract_z
Si Si1 0.000000 0.056909 0.670991
Si Si2 0.697418 0.386256 0.824162
Si Si3 0.557966 0.291630 0.330369
Si Si4 0.595247 0.605051 0.324279
Si Si5 0.295721 0.053943 0.674449
Si Si6 0.752754 0.698140 0.676072
Si Si7 0.943426 0.304365 0.676187
Si Si8 0.150115 0.636151 0.674328
O O1 0.049702 0.075578 0.753370
O O2 0.000000 0.074897 0.500000
O O3 0.000000 0.000000 0.679634
O O4 0.647366 0.410275 0.754272
O O5 0.741412 0.423932 0.785729
O O6 0.709156 0.335240 0.746542
O O7 0.690847 0.378269 0.000000
O O8 0.566064 0.275561 0.500000
O O9 0.500000 0.305274 0.298673
O O10 0.590102 0.338377 0.290643
O O11 0.575987 0.247652 0.228716
O O12 0.596538 0.594214 0.500000
O O13 0.305192 0.054018 0.500000
O O14 0.340064 0.085431 0.747139
O O15 0.298189 0.000000 0.739168
O O16 0.743402 0.702362 0.500000
O O17 0.750000 0.750000 0.750000
O O18 0.807185 0.675298 0.714593
O O19 0.943936 0.303342 0.500000
O O20 0.903992 0.344377 0.733240
O O21 0.000000 0.315364 0.739136
O O22 0.149077 0.626324 0.500000
#
# Coordination Sequence:
#
# PCOD8290344 Si02
#       8
#     8  16  16  16  16  16  16  16
#     4  11  25  43  61  81 105 141 189 237 286 339
#     4  10  21  36  54  79 108 141 181 226 276 331
#     4   9  18  33  50  72 103 140 178 216 257 307
#     4  11  22  38  57  80 110 142 180 230 282 332
#     4   9  19  37  59  80 103 134 175 223 273 325
#     4  10  20  34  50  74 109 146 183 225 274 328
#     4   9  18  32  51  78 110 144 179 216 258 310
#     4   9  19  34  52  78 109 139 176 220 263 318
#
# _framework density 18.198651000000002
#
# number of rings (size 3 to 8) (size 9 to 14) (size 15 to 20)
#    0.000    2.333    0.667    1.400    1.867    4.000 
#    0.000    1.333    0.000    0.400    0.000    2.800 
#    0.000    0.000    0.000    0.000    0.000    0.000 
#
# Total GULP energy -744069.385629 kJ/mol
# GULP energy per Si atom -12401.156427 kJ/mol
# Density = 1.815723 g / cm^3
# Si number density = 18.198651 Si / 1000 Ang^3
#
#
#
# Elastic Constant Matrix: (Units=GPa)
#
#
# Indices 1 2 3 4 5 6 
#
# 1 97.2650 47.6337 42.4644 0.0000 0.0000 0.0000
# 2 47.6337 116.1030 44.5293 0.0000 0.0000 0.0000
# 3 42.4644 44.5293 67.2143 0.0000 0.0000 0.0000
# 4 0.0000 0.0000 0.0000 30.9611 0.0000 0.0000
# 5 0.0000 0.0000 0.0000 0.0000 27.7933 0.0000
# 6 0.0000 0.0000 0.0000 0.0000 0.0000 17.8440
#
#
#
# Elastic Compliance Matrix: (Units=1/GPa)
#
#
# Indices 1 2 3 4 5 6 
#
# 1 0.015141 -0.003409 -0.007307 0.000000 0.000000 0.000000
# 2 -0.003409 0.012315 -0.006004 0.000000 0.000000 0.000000
# 3 -0.007307 -0.006004 0.023472 0.000000 0.000000 0.000000
# 4 0.000000 0.000000 0.000000 0.032299 0.000000 0.000000
# 5 0.000000 0.000000 0.000000 0.000000 0.035980 0.000000
# 6 0.000000 0.000000 0.000000 0.000000 0.000000 0.056041
#
#
# Mechanical properties :
#
#
# Convention : Reuss Voigt Hill
#
# Bulk Modulus (GPa) = 57.18842 61.09300 59.14071
# Shear Modulus (GPa) = 23.30803 25.04999 24.17901
#
# Velocity S-wave (km/s) = 3.58265 3.71411 3.64897
# Velocity P-wave (km/s) = 6.97184 7.21358 7.09374
#
# Compressibility (1/GPa) = 0.01748606
#
# Stress axis : x y z
#
# Youngs Moduli (GPa) = 66.04571 81.20332 42.60378
#
# Poissons Ratio (x) = 0.27686 0.31130
# Poissons Ratio (y) = 0.22518 0.25581
# Poissons Ratio (z) = 0.48259 0.48758
#
# Static dielectric constant tensor:
#      x y z
#    x 3.524580 0.000000 0.000000 
#    y 0.000000 3.374770 0.000000 
#    z 0.000000 0.000000 3.369870 
# 
# 
# High freq. dielectric constant tensor:
#      x y z
#    x 1.703900 0.000000 0.000000 
#    y 0.000000 1.694800 0.000000 
#    z 0.000000 0.000000 1.708340 
# 
# From -- ./inp_files/15631.got.cif
#   From: 2010.06.25/outbox.cif.g09.slc.cpg/sg71_8_cif.got.tgz:15631.got - 2010.06.28 04:59:45.
