data_PCOD8290082
_publ_section_title
;
Structure prediction by ZEFSAII (Michael W. Deem and Ramdas Pophale) SiO2 
 PCOD8290082
Probable space group: I M M M
;
_chemical_formula_sum "Si O2"
_cell_formula_units_Z 112
_cell_length_a 14.609945
_cell_length_b 23.644151
_cell_length_c 17.212917
_cell_angle_alpha 90.000000
_cell_angle_beta 90.000000
_cell_angle_gamma 90.000000
_cell_volume 5946.025671
_symmetry_space_group_name_H-M "I M M M"
_symmetry_group_IT_number 71
_symmetry_cell_setting 'orthorhombic'
loop_
_space_group_symop_operation_xyz
x,y,z
-x,-y,z
x,-y,-z
-x,y,-z
-x,-y,-z
x,y,-z
-x,y,z
x,-y,z
1/2+x,1/2+y,1/2+z
1/2-x,1/2-y,1/2+z
1/2+x,1/2-y,1/2-z
1/2-x,1/2+y,1/2-z
1/2-x,1/2-y,1/2-z
1/2+x,1/2+y,1/2-z
1/2-x,1/2+y,1/2+z
1/2+x,1/2-y,1/2+z
loop_
_atom_site_type_symbol
_atom_site_label
_atom_site_fract_x
_atom_site_fract_y
_atom_site_fract_z
Si Si1 0.599161 0.115063 0.409551
Si Si2 0.397445 0.436988 0.592174
Si Si3 0.106298 0.833522 0.588868
Si Si4 0.220140 0.938082 0.592830
Si Si5 0.394307 0.784056 0.836247
Si Si6 0.275733 0.666564 0.592479
Si Si7 0.895535 0.733139 0.842605
O O1 0.590353 0.104102 0.500000
O O2 0.500000 0.102538 0.369619
O O3 0.676987 0.073714 0.375918
O O4 0.627747 0.180006 0.396890
O O5 0.398426 0.436823 0.500000
O O6 0.500000 0.420807 0.621902
O O7 0.371034 0.500000 0.622337
O O8 0.321828 0.392052 0.621590
O O9 0.136221 0.823344 0.500000
O O10 0.154492 0.888964 0.625320
O O11 0.135591 0.778505 0.636608
O O12 0.000000 0.845756 0.596192
O O13 0.217228 0.936741 0.500000
O O14 0.189086 0.000000 0.623268
O O15 0.500000 0.796669 0.859218
O O16 0.329745 0.830283 0.878784
O O17 0.378186 0.787154 0.744916
O O18 0.280758 0.672786 0.500000
O O19 0.329997 0.716590 0.633728
O O20 0.000000 0.753577 0.853897
#
# Coordination Sequence:
#
# PCOD8290082 Si02
#       7
#    16  16  16  16  16  16  16
#     4   9  17  29  46  69  96 122 149 188 237 284
#     4   8  15  29  49  75 105 130 154 193 247 300
#     4   9  17  30  48  68  91 121 158 199 239 276
#     4   9  17  28  43  65  91 119 154 195 236 277
#     4  10  21  35  50  70 100 136 167 199 244 298
#     4  11  20  30  51  78 101 128 165 206 245 293
#     4  10  20  33  50  73 101 130 161 201 249 298
#
# _framework density 18.836110999999999
#
# number of rings (size 3 to 8) (size 9 to 14) (size 15 to 20)
#    0.000    2.571    0.000    3.000    0.000    4.000 
#    0.000    2.857    0.000    3.857    0.000    6.000 
#    0.000    0.000    0.000    0.000    0.000    0.000 
#
# Total GULP energy -694146.281154 kJ/mol
# GULP energy per Si atom -12395.469306 kJ/mol
# Density = 1.879324 g / cm^3
# Si number density = 18.836111 Si / 1000 Ang^3
#
#
#
# Elastic Constant Matrix: (Units=GPa)
#
#
# Indices 1 2 3 4 5 6 
#
# 1 100.2326 65.2288 21.8135 0.0000 0.0000 0.0000
# 2 65.2288 95.1942 6.7554 0.0003 0.0000 0.0000
# 3 21.8135 6.7554 24.9837 0.0009 0.0000 0.0000
# 4 0.0000 0.0003 0.0009 3.4722 0.0000 0.0000
# 5 0.0000 0.0000 0.0000 0.0000 20.6385 0.0000
# 6 0.0000 0.0000 0.0000 0.0000 0.0000 31.6571
#
#
#
# Elastic Compliance Matrix: (Units=1/GPa)
#
#
# Indices 1 2 3 4 5 6 
#
# 1 0.022996 -0.014613 -0.016127 0.000006 0.000000 0.000000
# 2 -0.014613 0.019996 0.007352 -0.000004 0.000000 0.000000
# 3 -0.016127 0.007352 0.052119 -0.000015 0.000000 0.000000
# 4 0.000006 -0.000004 -0.000015 0.287998 0.000001 0.000000
# 5 0.000000 0.000000 0.000000 0.000001 0.048453 0.000000
# 6 0.000000 0.000000 0.000000 0.000000 0.000000 0.031588
#
#
# Mechanical properties :
#
#
# Convention : Reuss Voigt Hill
#
# Bulk Modulus (GPa) = 20.68891 45.33400 33.01145
# Shear Modulus (GPa) = 9.50501 19.59443 14.54972
#
# Velocity S-wave (km/s) = 2.24880 3.22880 2.78229
# Velocity P-wave (km/s) = 4.21311 6.16604 5.28064
#
# Compressibility (1/GPa) = 0.04833508
#
# Stress axis : x y z
#
# Youngs Moduli (GPa) = 43.48531 50.00945 19.18696
#
# Poissons Ratio (x) = 0.73079 0.30943
# Poissons Ratio (y) = 0.63545 -0.14106
# Poissons Ratio (z) = 0.70129 -0.36767
#
# Static dielectric constant tensor:
#      x y z
#    x 3.822850 0.000000 0.000000 
#    y 0.000000 3.598180 0.000000 
#    z 0.000000 0.000000 3.124350 
# 
# 
# High freq. dielectric constant tensor:
#      x y z
#    x 1.743020 0.000000 0.000000 
#    y 0.000000 1.720960 0.000000 
#    z 0.000000 0.000000 1.692660 
# 
# From -- ./inp_files/34853.got.cif
#   From: 2010.06.25/outbox.cif.g09.slc.cpg/sg71_18_cif.got.tgz:34853.got - 2010.06.28 04:59:45.
