data_PCOD8290986
_publ_section_title
;
Structure prediction by ZEFSAII (Michael W. Deem and Ramdas Pophale) SiO2 
 PCOD8290986
Probable space group: I M M M
;
_chemical_formula_sum "Si O2"
_cell_formula_units_Z 104
_cell_length_a 16.960668
_cell_length_b 27.970927
_cell_length_c 12.413112
_cell_angle_alpha 90.000000
_cell_angle_beta 90.000000
_cell_angle_gamma 90.000000
_cell_volume 5888.849927
_symmetry_space_group_name_H-M "I M M M"
_symmetry_group_IT_number 71
_symmetry_cell_setting 'orthorhombic'
loop_
_space_group_symop_operation_xyz
x,y,z
-x,-y,z
x,-y,-z
-x,y,-z
-x,-y,-z
x,y,-z
-x,y,z
x,-y,z
1/2+x,1/2+y,1/2+z
1/2-x,1/2-y,1/2+z
1/2+x,1/2-y,1/2-z
1/2-x,1/2+y,1/2-z
1/2-x,1/2-y,1/2-z
1/2+x,1/2+y,1/2-z
1/2-x,1/2+y,1/2+z
1/2+x,1/2-y,1/2+z
loop_
_atom_site_type_symbol
_atom_site_label
_atom_site_fract_x
_atom_site_fract_y
_atom_site_fract_z
Si Si1 0.587823 0.384164 0.626150
Si Si2 0.735030 0.444190 0.626020
Si Si3 0.500000 0.056116 0.619874
Si Si4 0.356558 0.710072 0.264569
Si Si5 0.299374 0.199016 0.626426
Si Si6 0.132303 0.389774 0.240069
Si Si7 0.000000 0.654722 0.380516
Si Si8 0.500000 0.732508 0.120082
O O1 0.577294 0.381876 0.500000
O O2 0.500000 0.391564 0.677982
O O3 0.646395 0.427587 0.657590
O O4 0.628963 0.335173 0.660441
O O5 0.752459 0.433706 0.500000
O O6 0.742344 0.500000 0.652031
O O7 0.796305 0.415580 0.699508
O O8 0.500000 0.078279 0.500000
O O9 0.420824 0.071395 0.680405
O O10 0.500000 0.000000 0.615156
O O11 0.356434 0.757090 0.340425
O O12 0.277270 0.703630 0.198700
O O13 0.423973 0.712437 0.177284
O O14 0.279571 0.202124 0.500000
O O15 0.338862 0.148148 0.651334
O O16 0.080161 0.362266 0.326644
O O17 0.000000 0.633368 0.500000
O O18 0.000000 0.711037 0.380048
O O19 0.500000 0.711799 0.000000
#
# Coordination Sequence:
#
# PCOD8290986 Si02
#       8
#    16  16   8  16  16  16   8   8
#     4  10  20  35  58  85 114 146 181 225 280 337
#     4  10  21  37  58  84 111 143 185 231 281 336
#     4  10  22  38  57  80 107 141 183 230 278 327
#     4  11  21  38  54  80 114 147 181 230 265 323
#     4  11  23  36  54  82 112 147 185 225 272 325
#     4  11  20  37  57  80 110 147 182 231 273 329
#     4  10  21  35  52  79 112 147 185 222 269 321
#     4  11  21  35  55  80 110 150 187 218 265 319
#
# _framework density 17.660494
#
# number of rings (size 3 to 8) (size 9 to 14) (size 15 to 20)
#    0.000    1.462    3.846    2.308    0.000    0.308 
#    0.000    2.308    0.000    3.692    0.000    0.000 
#    0.000    1.846    0.000    0.000    0.000    0.000 
#
# Total GULP energy -644785.974797 kJ/mol
# GULP energy per Si atom -12399.730285 kJ/mol
# Density = 1.762030 g / cm^3
# Si number density = 17.660494 Si / 1000 Ang^3
#
#
#
# Elastic Constant Matrix: (Units=GPa)
#
#
# Indices 1 2 3 4 5 6 
#
# 1 95.5960 29.5274 33.6910 -0.0003 0.0001 0.0000
# 2 29.5274 77.7119 18.6211 -0.0003 0.0001 -0.0001
# 3 33.6910 18.6211 43.2158 -0.0010 0.0001 -0.0011
# 4 -0.0003 -0.0003 -0.0010 25.2796 0.0000 -0.0005
# 5 0.0001 0.0001 0.0001 0.0000 36.0830 0.0002
# 6 0.0000 -0.0001 -0.0011 -0.0005 0.0002 9.8495
#
#
#
# Elastic Compliance Matrix: (Units=1/GPa)
#
#
# Indices 1 2 3 4 5 6 
#
# 1 0.015129 -0.003259 -0.010391 0.000000 0.000000 -0.000001
# 2 -0.003259 0.015052 -0.003945 0.000000 0.000000 0.000000
# 3 -0.010391 -0.003945 0.032940 0.000001 0.000000 0.000004
# 4 0.000000 0.000000 0.000001 0.039558 0.000000 0.000002
# 5 0.000000 0.000000 0.000000 0.000000 0.027714 -0.000001
# 6 -0.000001 0.000000 0.000004 0.000002 -0.000001 0.101527
#
#
# Mechanical properties :
#
#
# Convention : Reuss Voigt Hill
#
# Bulk Modulus (GPa) = 35.80105 42.24474 39.02289
# Shear Modulus (GPa) = 18.08849 23.22139 20.65494
#
# Velocity S-wave (km/s) = 3.20384 3.63006 3.42359
# Velocity P-wave (km/s) = 5.83112 6.44532 6.14590
#
# Compressibility (1/GPa) = 0.02793215
#
# Stress axis : x y z
#
# Youngs Moduli (GPa) = 66.09739 66.43847 30.35821
#
# Poissons Ratio (x) = 0.21650 0.31544
# Poissons Ratio (y) = 0.21539 0.11976
# Poissons Ratio (z) = 0.68679 0.26210
#
# Static dielectric constant tensor:
#      x y z
#    x 3.350580 0.000000 0.000000 
#    y 0.000000 3.304810 0.000000 
#    z 0.000000 0.000000 3.335380 
# 
# 
# High freq. dielectric constant tensor:
#      x y z
#    x 1.696580 0.000000 0.000000 
#    y 0.000000 1.684970 0.000000 
#    z 0.000000 0.000000 1.680160 
# 
# From -- ./inp_files/24597.got.cif
#   From: 2010.06.25/outbox.cif.g09.slc.cpg/sg71_13_cif.got.tgz:24597.got - 2010.06.28 04:59:45.
