data_PCOD8290137
_publ_section_title
;
Structure prediction by ZEFSAII (Michael W. Deem and Ramdas Pophale) SiO2 
 PCOD8290137
Probable space group: I M M M
;
_chemical_formula_sum "Si O2"
_cell_formula_units_Z 104
_cell_length_a 17.161636
_cell_length_b 25.817038
_cell_length_c 13.942081
_cell_angle_alpha 90.000000
_cell_angle_beta 90.000000
_cell_angle_gamma 90.000000
_cell_volume 6177.214779
_symmetry_space_group_name_H-M "I M M M"
_symmetry_group_IT_number 71
_symmetry_cell_setting 'orthorhombic'
loop_
_space_group_symop_operation_xyz
x,y,z
-x,-y,z
x,-y,-z
-x,y,-z
-x,-y,-z
x,y,-z
-x,y,z
x,-y,z
1/2+x,1/2+y,1/2+z
1/2-x,1/2-y,1/2+z
1/2+x,1/2-y,1/2-z
1/2-x,1/2+y,1/2-z
1/2-x,1/2-y,1/2-z
1/2+x,1/2+y,1/2-z
1/2-x,1/2+y,1/2+z
1/2+x,1/2-y,1/2+z
loop_
_atom_site_type_symbol
_atom_site_label
_atom_site_fract_x
_atom_site_fract_y
_atom_site_fract_z
Si Si1 0.592598 0.000000 0.394325
Si Si2 0.290150 0.652627 0.389663
Si Si3 0.910694 0.213168 0.781878
Si Si4 0.151058 0.693830 0.109195
Si Si5 0.183962 0.559535 0.390108
Si Si6 0.811136 0.750414 0.608044
Si Si7 0.591514 0.098252 0.721402
O O1 0.622790 0.050885 0.341861
O O2 0.500000 0.000000 0.395829
O O3 0.628574 0.000000 0.500000
O O4 0.316563 0.660648 0.500000
O O5 0.362888 0.663082 0.319139
O O6 0.261234 0.593955 0.371655
O O7 0.220580 0.693157 0.366248
O O8 0.902752 0.257726 0.861946
O O9 0.879486 0.234216 0.680234
O O10 0.000000 0.196803 0.768909
O O11 0.241223 0.708752 0.119101
O O12 0.136486 0.647834 0.182987
O O13 0.130055 0.677822 0.000000
O O14 0.157302 0.563552 0.500000
O O15 0.201823 0.500000 0.361465
O O16 0.112905 0.584179 0.330438
O O17 0.844894 0.751605 0.500000
O O18 0.500000 0.107986 0.713248
#
# Coordination Sequence:
#
# PCOD8290137 Si02
#       7
#     8  16  16  16  16  16  16
#     4   9  18  30  41  57  87 125 157 188 232 274
#     4   9  18  33  51  69  95 129 161 199 242 283
#     4  11  20  30  49  76 102 127 157 196 243 291
#     4  10  20  33  51  72  97 132 168 198 229 280
#     4  10  20  34  52  71  91 124 170 208 240 285
#     4   9  18  33  50  70  99 132 162 193 235 285
#     4  11  20  31  46  68  98 129 160 199 242 278
#
# _framework density 16.836067
#
# number of rings (size 3 to 8) (size 9 to 14) (size 15 to 20)
#    0.000    2.077    0.769    6.000    0.000    3.385 
#    0.000    0.769    0.000    5.077    0.000    2.154 
#    0.000    0.000    0.000    5.231    0.000    0.000 
#
# Total GULP energy -644783.479890 kJ/mol
# GULP energy per Si atom -12399.682306 kJ/mol
# Density = 1.679775 g / cm^3
# Si number density = 16.836067 Si / 1000 Ang^3
#
#
#
# Elastic Constant Matrix: (Units=GPa)
#
#
# Indices 1 2 3 4 5 6 
#
# 1 61.6767 20.0127 39.3925 0.0000 0.0000 0.0000
# 2 20.0127 92.6385 34.8018 0.0000 0.0000 0.0000
# 3 39.3925 34.8018 98.3311 -0.0001 0.0000 0.0000
# 4 0.0000 0.0000 -0.0001 28.3534 0.0000 0.0000
# 5 0.0000 0.0000 0.0000 0.0000 16.6566 0.0000
# 6 0.0000 0.0000 0.0000 0.0000 0.0000 14.6306
#
#
#
# Elastic Compliance Matrix: (Units=1/GPa)
#
#
# Indices 1 2 3 4 5 6 
#
# 1 0.022009 -0.001663 -0.008228 0.000000 0.000000 0.000000
# 2 -0.001663 0.012576 -0.003784 0.000000 0.000000 0.000000
# 3 -0.008228 -0.003784 0.014805 0.000000 0.000000 0.000000
# 4 0.000000 0.000000 0.000000 0.035269 0.000000 0.000000
# 5 0.000000 0.000000 0.000000 0.000000 0.060036 0.000000
# 6 0.000000 0.000000 0.000000 0.000000 0.000000 0.068350
#
#
# Mechanical properties :
#
#
# Convention : Reuss Voigt Hill
#
# Bulk Modulus (GPa) = 45.37692 49.00672 47.19182
# Shear Modulus (GPa) = 20.18219 22.49072 21.33646
#
# Velocity S-wave (km/s) = 3.46605 3.65891 3.56379
# Velocity P-wave (km/s) = 6.55963 6.85723 6.71008
#
# Compressibility (1/GPa) = 0.02203764
#
# Stress axis : x y z
#
# Youngs Moduli (GPa) = 45.43683 79.51822 67.54282
#
# Poissons Ratio (x) = 0.13227 0.55575
# Poissons Ratio (y) = 0.07558 0.25561
# Poissons Ratio (z) = 0.37386 0.30094
#
# Static dielectric constant tensor:
#      x y z
#    x 2.806510 0.000000 0.000000 
#    y 0.000000 3.223470 0.000000 
#    z 0.000000 0.000000 3.373930 
# 
# 
# High freq. dielectric constant tensor:
#      x y z
#    x 1.611400 0.000000 0.000000 
#    y 0.000000 1.642920 0.000000 
#    z 0.000000 0.000000 1.667480 
# 
# From -- ./inp_files/34909.got.cif
#   From: 2010.06.25/outbox.cif.g09.slc.cpg/sg71_18_cif.got.tgz:34909.got - 2010.06.28 04:59:45.
