data_PCOD8290975
_publ_section_title
;
Structure prediction by ZEFSAII (Michael W. Deem and Ramdas Pophale) SiO2 
 PCOD8290975
Probable space group: I M M M
;
_chemical_formula_sum "Si O2"
_cell_formula_units_Z 88
_cell_length_a 9.168126
_cell_length_b 22.350347
_cell_length_c 22.187141
_cell_angle_alpha 90.000000
_cell_angle_beta 90.000000
_cell_angle_gamma 90.000000
_cell_volume 4546.384755
_symmetry_space_group_name_H-M "I M M M"
_symmetry_group_IT_number 71
_symmetry_cell_setting 'orthorhombic'
loop_
_space_group_symop_operation_xyz
x,y,z
-x,-y,z
x,-y,-z
-x,y,-z
-x,-y,-z
x,y,-z
-x,y,z
x,-y,z
1/2+x,1/2+y,1/2+z
1/2-x,1/2-y,1/2+z
1/2+x,1/2-y,1/2-z
1/2-x,1/2+y,1/2-z
1/2-x,1/2-y,1/2-z
1/2+x,1/2+y,1/2-z
1/2-x,1/2+y,1/2+z
1/2+x,1/2-y,1/2+z
loop_
_atom_site_type_symbol
_atom_site_label
_atom_site_fract_x
_atom_site_fract_y
_atom_site_fract_z
Si Si1 0.172209 0.119439 0.649527
Si Si2 0.663924 0.000000 0.354394
Si Si3 0.833378 0.289659 0.932646
Si Si4 0.839973 0.500000 0.711648
Si Si5 0.334936 0.387803 0.285277
Si Si6 0.673247 0.070519 0.000000
Si Si7 0.332649 0.343970 0.410869
O O1 0.249724 0.059278 0.624895
O O2 0.226033 0.175093 0.610977
O O3 0.216722 0.133936 0.719151
O O4 0.000000 0.111568 0.641593
O O5 0.655170 0.000000 0.283196
O O6 0.500000 0.000000 0.382188
O O7 0.783865 0.220591 0.934879
O O8 0.000000 0.295332 0.909204
O O9 0.819379 0.316009 0.000000
O O10 0.758049 0.442093 0.688532
O O11 0.000000 0.500000 0.682764
O O12 0.500000 0.410442 0.278797
O O13 0.316319 0.338860 0.337809
O O14 0.736210 0.103734 0.940673
O O15 0.500000 0.077235 0.000000
O O16 0.717711 0.000000 0.000000
O O17 0.500000 0.357338 0.428537
#
# Coordination Sequence:
#
# PCOD8290975 Si02
#       7
#    16   8  16   8  16   8  16
#     4  10  20  35  57  87 120 149 181 231 289 341
#     4   9  17  33  56  82 112 150 187 223 270 330
#     4  10  21  39  60  81 108 148 196 238 277 333
#     4   9  17  29  49  77 113 149 183 222 277 336
#     4   9  19  34  54  82 113 147 188 232 279 336
#     4  11  25  41  57  85 123 154 189 246 295 327
#     4  10  21  40  62  82 109 153 201 236 274 338
#
# _framework density 19.356038000000002
#
# number of rings (size 3 to 8) (size 9 to 14) (size 15 to 20)
#    0.000    2.273    0.909    1.364    1.273    6.182 
#    0.000    0.455    0.000    2.727    0.000    0.000 
#    0.000    0.000    0.000    0.000    0.000    0.000 
#
# Total GULP energy -545423.721326 kJ/mol
# GULP energy per Si atom -12395.993667 kJ/mol
# Density = 1.931198 g / cm^3
# Si number density = 19.356038 Si / 1000 Ang^3
#
#
#
# Elastic Constant Matrix: (Units=GPa)
#
#
# Indices 1 2 3 4 5 6 
#
# 1 96.4430 52.4263 41.6871 0.0000 0.0000 0.0000
# 2 52.4263 104.1770 50.8198 0.0000 0.0000 0.0000
# 3 41.6871 50.8198 97.5951 0.0000 0.0000 0.0000
# 4 0.0000 0.0000 0.0000 28.3756 0.0000 0.0000
# 5 0.0000 0.0000 0.0000 0.0000 26.4815 0.0000
# 6 0.0000 0.0000 0.0000 0.0000 0.0000 34.2718
#
#
#
# Elastic Compliance Matrix: (Units=1/GPa)
#
#
# Indices 1 2 3 4 5 6 
#
# 1 0.015039 -0.005945 -0.003328 0.000000 0.000000 0.000000
# 2 -0.005945 0.015217 -0.005385 0.000000 0.000000 0.000000
# 3 -0.003328 -0.005385 0.014472 0.000000 0.000000 0.000000
# 4 0.000000 0.000000 0.000000 0.035242 0.000000 0.000000
# 5 0.000000 0.000000 0.000000 0.000000 0.037762 0.000000
# 6 0.000000 0.000000 0.000000 0.000000 0.000000 0.029179
#
#
# Mechanical properties :
#
#
# Convention : Reuss Voigt Hill
#
# Bulk Modulus (GPa) = 64.88044 65.34238 65.11141
# Shear Modulus (GPa) = 27.56887 28.04457 27.80672
#
# Velocity S-wave (km/s) = 3.77809 3.81054 3.79435
# Velocity P-wave (km/s) = 7.25425 7.29327 7.27379
#
# Compressibility (1/GPa) = 0.01541297
#
# Stress axis : x y z
#
# Youngs Moduli (GPa) = 66.49396 65.71385 69.09852
#
# Poissons Ratio (x) = 0.39064 0.22998
# Poissons Ratio (y) = 0.39528 0.37209
# Poissons Ratio (z) = 0.22131 0.35386
#
# Static dielectric constant tensor:
#      x y z
#    x 3.607790 0.000000 0.000000 
#    y 0.000000 3.442400 0.000000 
#    z 0.000000 0.000000 3.455280 
# 
# 
# High freq. dielectric constant tensor:
#      x y z
#    x 1.753410 0.000000 0.000000 
#    y 0.000000 1.741270 0.000000 
#    z 0.000000 0.000000 1.749290 
# 
# From -- ./inp_files/10563.got.cif
#   From: 2010.06.25/outbox.cif.g09.slc.cpg/sg71_6_cif.got.tgz:10563.got - 2010.06.28 04:59:45.
