data_PCOD8290274
_publ_section_title
;
Structure prediction by ZEFSAII (Michael W. Deem and Ramdas Pophale) SiO2 
 PCOD8290274
Probable space group: I M M M
;
_chemical_formula_sum "Si O2"
_cell_formula_units_Z 104
_cell_length_a 31.328922
_cell_length_b 9.249462
_cell_length_c 19.019446
_cell_angle_alpha 90.000000
_cell_angle_beta 90.000000
_cell_angle_gamma 90.000000
_cell_volume 5511.372775
_symmetry_space_group_name_H-M "I M M M"
_symmetry_group_IT_number 71
_symmetry_cell_setting 'orthorhombic'
loop_
_space_group_symop_operation_xyz
x,y,z
-x,-y,z
x,-y,-z
-x,y,-z
-x,-y,-z
x,y,-z
-x,y,z
x,-y,z
1/2+x,1/2+y,1/2+z
1/2-x,1/2-y,1/2+z
1/2+x,1/2-y,1/2-z
1/2-x,1/2+y,1/2-z
1/2-x,1/2-y,1/2-z
1/2+x,1/2+y,1/2-z
1/2-x,1/2+y,1/2+z
1/2+x,1/2-y,1/2+z
loop_
_atom_site_type_symbol
_atom_site_label
_atom_site_fract_x
_atom_site_fract_y
_atom_site_fract_z
Si Si1 0.083343 0.667565 0.079707
Si Si2 0.210009 0.167049 0.779713
Si Si3 0.415730 0.831000 0.081813
Si Si4 0.000000 0.162434 0.583095
Si Si5 0.047464 0.165860 0.202384
Si Si6 0.669986 0.665707 0.421688
Si Si7 0.124583 0.830208 0.698541
O O1 0.086278 0.500000 0.098270
O O2 0.049554 0.742349 0.130886
O O3 0.129829 0.733803 0.091953
O O4 0.067808 0.693173 0.000000
O O5 0.250000 0.250000 0.750000
O O6 0.205540 0.201778 0.862998
O O7 0.167002 0.215441 0.739996
O O8 0.218758 0.000000 0.766456
O O9 0.458421 0.749495 0.107463
O O10 0.376884 0.761175 0.126088
O O11 0.420780 0.000000 0.098100
O O12 0.406071 0.804176 0.000000
O O13 0.000000 0.149871 0.500000
O O14 0.000000 0.000000 0.616455
O O15 0.083420 0.218609 0.256462
O O16 0.000000 0.187082 0.235287
O O17 0.055830 0.000000 0.182238
O O18 0.689230 0.691326 0.500000
O O19 0.654684 0.500000 0.412240
O O20 0.123653 0.000000 0.681153
#
# Coordination Sequence:
#
# PCOD8290274 Si02
#       7
#    16  16  16   8  16  16  16
#     4  10  20  33  52  80 114 150 187 231 279 326
#     4  10  21  38  60  87 115 145 182 228 282 338
#     4  10  21  36  54  80 113 147 187 235 284 336
#     4   9  17  31  53  79 107 145 190 231 274 329
#     4  10  21  37  56  79 110 150 193 233 273 327
#     4   9  17  34  60  84 109 144 186 230 274 326
#     4  10  21  38  58  82 112 146 186 231 281 339
#
# _framework density 18.870072
#
# number of rings (size 3 to 8) (size 9 to 14) (size 15 to 20)
#    0.000    2.231    1.538    1.154    1.077    5.231 
#    0.000    2.308    0.000    2.769    0.000    0.000 
#    0.000    0.000    0.000    0.000    0.000    0.000 
#
# Total GULP energy -644815.958173 kJ/mol
# GULP energy per Si atom -12400.306888 kJ/mol
# Density = 1.882712 g / cm^3
# Si number density = 18.870072 Si / 1000 Ang^3
#
#
#
# Elastic Constant Matrix: (Units=GPa)
#
#
# Indices 1 2 3 4 5 6 
#
# 1 116.6542 45.5271 64.5748 0.0000 0.0000 0.0000
# 2 45.5271 83.4628 52.9370 0.0000 0.0000 0.0000
# 3 64.5748 52.9370 106.0426 0.0000 0.0000 0.0000
# 4 0.0000 0.0000 0.0000 30.8974 0.0000 0.0000
# 5 0.0000 0.0000 0.0000 0.0000 27.4401 0.0000
# 6 0.0000 0.0000 0.0000 0.0000 0.0000 32.2606
#
#
#
# Elastic Compliance Matrix: (Units=1/GPa)
#
#
# Indices 1 2 3 4 5 6 
#
# 1 0.013471 -0.003139 -0.006636 0.000000 0.000000 0.000000
# 2 -0.003139 0.018264 -0.007206 0.000000 0.000000 0.000000
# 3 -0.006636 -0.007206 0.017069 0.000000 0.000000 0.000000
# 4 0.000000 0.000000 0.000000 0.032365 0.000000 0.000000
# 5 0.000000 0.000000 0.000000 0.000000 0.036443 0.000000
# 6 0.000000 0.000000 0.000000 0.000000 0.000000 0.030998
#
#
# Mechanical properties :
#
#
# Convention : Reuss Voigt Hill
#
# Bulk Modulus (GPa) = 67.37993 70.24859 68.81426
# Shear Modulus (GPa) = 26.66400 27.66100 27.16250
#
# Velocity S-wave (km/s) = 3.76311 3.83282 3.79812
# Velocity P-wave (km/s) = 7.39366 7.54292 7.46866
#
# Compressibility (1/GPa) = 0.01484121
#
# Stress axis : x y z
#
# Youngs Moduli (GPa) = 74.23416 54.75197 58.58744
#
# Poissons Ratio (x) = 0.17187 0.38879
# Poissons Ratio (y) = 0.23303 0.42218
# Poissons Ratio (z) = 0.49262 0.39454
#
# Static dielectric constant tensor:
#      x y z
#    x 3.203900 0.000000 0.000000 
#    y 0.000000 3.465750 0.000000 
#    z 0.000000 0.000000 3.655830 
# 
# 
# High freq. dielectric constant tensor:
#      x y z
#    x 1.705200 0.000000 0.000000 
#    y 0.000000 1.732910 0.000000 
#    z 0.000000 0.000000 1.743270 
# 
# From -- ./inp_files/56645.got.cif
#   From: 2010.06.25/outbox.cif.g09.slc.cpg/sg71_29_cif.got.tgz:56645.got - 2010.06.28 04:59:45.
