data_PCOD8290053
_publ_section_title
;
Structure prediction by ZEFSAII (Michael W. Deem and Ramdas Pophale) SiO2 
 PCOD8290053
Probable space group: I M M M
;
_chemical_formula_sum "Si O2"
_cell_formula_units_Z 96
_cell_length_a 9.446414
_cell_length_b 19.367052
_cell_length_c 30.789688
_cell_angle_alpha 90.000000
_cell_angle_beta 90.000000
_cell_angle_gamma 90.000000
_cell_volume 5632.948515
_symmetry_space_group_name_H-M "I M M M"
_symmetry_group_IT_number 71
_symmetry_cell_setting 'orthorhombic'
loop_
_space_group_symop_operation_xyz
x,y,z
-x,-y,z
x,-y,-z
-x,y,-z
-x,-y,-z
x,y,-z
-x,y,z
x,-y,z
1/2+x,1/2+y,1/2+z
1/2-x,1/2-y,1/2+z
1/2+x,1/2-y,1/2-z
1/2-x,1/2+y,1/2-z
1/2-x,1/2-y,1/2-z
1/2+x,1/2+y,1/2-z
1/2-x,1/2+y,1/2+z
1/2+x,1/2-y,1/2+z
loop_
_atom_site_type_symbol
_atom_site_label
_atom_site_fract_x
_atom_site_fract_y
_atom_site_fract_z
Si Si1 0.167842 0.577180 0.454035
Si Si2 0.165054 0.821985 0.200348
Si Si3 0.840645 0.582049 0.047633
Si Si4 0.835293 0.078579 0.627912
Si Si5 0.663051 0.687640 0.199455
Si Si6 0.662542 0.082307 0.139850
O O1 0.215430 0.614601 0.500000
O O2 0.230113 0.500000 0.455479
O O3 0.213918 0.611193 0.407981
O O4 0.000000 0.573026 0.452561
O O5 0.239006 0.751263 0.185422
O O6 0.191126 0.834851 0.251222
O O7 0.235174 0.885902 0.175729
O O8 0.000000 0.817789 0.188838
O O9 0.833392 0.500000 0.047743
O O10 0.741284 0.611187 0.085733
O O11 0.000000 0.607387 0.056620
O O12 0.790341 0.608949 0.000000
O O13 0.794328 0.122585 0.670062
O O14 0.000000 0.082134 0.617657
O O15 0.786402 0.000000 0.637041
O O16 0.500000 0.709451 0.192545
O O17 0.500000 0.103887 0.149239
O O18 0.677711 0.000000 0.141282
#
# Coordination Sequence:
#
# PCOD8290053 Si02
#       6
#    16  16  16  16  16  16
#     4   7  10  19  38  64  91 118 149 183 218 259
#     4  10  20  33  50  69  90 121 158 193 231 277
#     4   8  14  25  41  63  93 125 151 177 217 270
#     4   9  17  29  47  71  94 116 148 191 233 269
#     4   9  19  35  51  66  89 122 156 190 230 278
#     4   9  17  29  47  72  99 124 152 190 233 273
#
# _framework density 17.042584000000002
#
# number of rings (size 3 to 8) (size 9 to 14) (size 15 to 20)
#    0.000    3.333    0.000    2.500    0.000    2.667 
#    0.000    3.333    0.000    3.500    0.000    4.667 
#    0.000    0.000    0.000    0.000    0.000    0.000 
#
# Total GULP energy -594660.752547 kJ/mol
# GULP energy per Si atom -12388.765678 kJ/mol
# Density = 1.700379 g / cm^3
# Si number density = 17.042584 Si / 1000 Ang^3
#
#
#
# Elastic Constant Matrix: (Units=GPa)
#
#
# Indices 1 2 3 4 5 6 
#
# 1 67.7197 37.1790 57.2571 0.0000 0.0000 0.0000
# 2 37.1790 51.9153 52.0867 0.0000 0.0000 0.0000
# 3 57.2571 52.0867 124.1153 0.0000 0.0000 0.0000
# 4 0.0000 0.0000 0.0000 5.0591 0.0000 0.0000
# 5 0.0000 0.0000 0.0000 0.0000 27.3189 0.0000
# 6 0.0000 0.0000 0.0000 0.0000 0.0000 21.8456
#
#
#
# Elastic Compliance Matrix: (Units=1/GPa)
#
#
# Indices 1 2 3 4 5 6 
#
# 1 0.028128 -0.012306 -0.007811 0.000000 0.000000 0.000000
# 2 -0.012306 0.038655 -0.010545 0.000000 0.000000 0.000000
# 3 -0.007811 -0.010545 0.016086 0.000000 0.000000 0.000000
# 4 0.000000 0.000000 0.000000 0.197664 0.000000 0.000000
# 5 0.000000 0.000000 0.000000 0.000000 0.036605 0.000000
# 6 0.000000 0.000000 0.000000 0.000000 0.000000 0.045776
#
#
# Mechanical properties :
#
#
# Convention : Reuss Voigt Hill
#
# Bulk Modulus (GPa) = 46.41822 59.64398 53.03110
# Shear Modulus (GPa) = 11.58964 17.32654 14.45809
#
# Velocity S-wave (km/s) = 2.61059 3.19197 2.91581
# Velocity P-wave (km/s) = 6.03180 6.97552 6.52076
#
# Compressibility (1/GPa) = 0.02154326
#
# Stress axis : x y z
#
# Youngs Moduli (GPa) = 35.55231 25.86983 62.16630
#
# Poissons Ratio (x) = 0.31836 0.48560
# Poissons Ratio (y) = 0.43752 0.65554
# Poissons Ratio (z) = 0.27771 0.27280
#
# Static dielectric constant tensor:
#      x y z
#    x 3.064950 0.000000 0.000000 
#    y 0.000000 2.814410 0.000000 
#    z 0.000000 0.000000 3.706670 
# 
# 
# High freq. dielectric constant tensor:
#      x y z
#    x 1.638970 0.000000 0.000000 
#    y 0.000000 1.612040 0.000000 
#    z 0.000000 0.000000 1.676570 
# 
# From -- ./inp_files/63203.got.cif
#   From: 2010.06.25/outbox.cif.g09.slc.cpg/sg71_32_cif.got.tgz:63203.got - 2010.06.28 04:59:45.
