data_PCOD8290542
_publ_section_title
;
Structure prediction by ZEFSAII (Michael W. Deem and Ramdas Pophale) SiO2 
 PCOD8290542
Probable space group: I M M M
;
_chemical_formula_sum "Si O2"
_cell_formula_units_Z 112
_cell_length_a 35.507176
_cell_length_b 18.192478
_cell_length_c 9.499613
_cell_angle_alpha 90.000000
_cell_angle_beta 90.000000
_cell_angle_gamma 90.000000
_cell_volume 6136.403435
_symmetry_space_group_name_H-M "I M M M"
_symmetry_group_IT_number 71
_symmetry_cell_setting 'orthorhombic'
loop_
_space_group_symop_operation_xyz
x,y,z
-x,-y,z
x,-y,-z
-x,y,-z
-x,-y,-z
x,y,-z
-x,y,z
x,-y,z
1/2+x,1/2+y,1/2+z
1/2-x,1/2-y,1/2+z
1/2+x,1/2-y,1/2-z
1/2-x,1/2+y,1/2-z
1/2-x,1/2-y,1/2-z
1/2+x,1/2+y,1/2-z
1/2-x,1/2+y,1/2+z
1/2+x,1/2-y,1/2+z
loop_
_atom_site_type_symbol
_atom_site_label
_atom_site_fract_x
_atom_site_fract_y
_atom_site_fract_z
Si Si1 0.109015 0.581961 0.833045
Si Si2 0.457726 0.673116 0.160938
Si Si3 0.386195 0.583170 0.163475
Si Si4 0.542775 0.815582 0.664449
Si Si5 0.675536 0.665679 0.663577
Si Si6 0.316699 0.165207 0.334262
Si Si7 0.252319 0.914352 0.836908
O O1 0.110775 0.500000 0.768032
O O2 0.070436 0.620211 0.781901
O O3 0.144649 0.628670 0.779666
O O4 0.109605 0.577515 0.000000
O O5 0.500000 0.645889 0.197103
O O6 0.429466 0.606112 0.190184
O O7 0.446000 0.741358 0.257007
O O8 0.455025 0.699793 0.000000
O O9 0.381304 0.500000 0.217577
O O10 0.359650 0.637100 0.249310
O O11 0.375562 0.589689 0.000000
O O12 0.548587 0.800213 0.500000
O O13 0.500000 0.839843 0.698510
O O14 0.665135 0.659568 0.500000
O O15 0.683331 0.749474 0.706822
O O16 0.711534 0.616943 0.702318
O O17 0.311201 0.153621 0.500000
O O18 0.282479 0.126677 0.257027
O O19 0.252747 0.000000 0.799598
O O20 0.261656 0.899929 0.000000
#
# Coordination Sequence:
#
# PCOD8290542 Si02
#       7
#    16  16  16  16  16  16  16
#     4   9  17  29  46  71 102 131 162 205 254 298
#     4   9  18  33  52  73 100 134 167 203 251 300
#     4  10  21  35  52  77 105 133 170 212 250 294
#     4   9  17  30  50  74  98 128 168 209 246 292
#     4  10  21  37  56  77 103 136 170 205 253 307
#     4  10  20  34  54  77 100 132 173 212 251 299
#     4  10  21  36  53  75 104 135 167 206 254 306
#
# _framework density 18.251733999999999
#
# number of rings (size 3 to 8) (size 9 to 14) (size 15 to 20)
#    0.000    2.429    0.000    2.143    0.000    5.143 
#    0.000    3.571    0.000    1.286    0.000    5.000 
#    0.000    0.000    0.000    0.000    0.000    0.000 
#
# Total GULP energy -694508.740444 kJ/mol
# GULP energy per Si atom -12401.941794 kJ/mol
# Density = 1.821019 g / cm^3
# Si number density = 18.251734 Si / 1000 Ang^3
#
#
#
# Elastic Constant Matrix: (Units=GPa)
#
#
# Indices 1 2 3 4 5 6 
#
# 1 112.2799 68.4999 45.9260 0.0000 0.0000 0.0000
# 2 68.4999 135.2873 46.2252 0.0000 0.0000 0.0000
# 3 45.9260 46.2252 41.3000 0.0000 0.0000 0.0000
# 4 0.0000 0.0000 0.0000 21.9491 0.0000 0.0000
# 5 0.0000 0.0000 0.0000 0.0000 25.3003 0.0000
# 6 0.0000 0.0000 0.0000 0.0000 0.0000 33.2333
#
#
#
# Elastic Compliance Matrix: (Units=1/GPa)
#
#
# Indices 1 2 3 4 5 6 
#
# 1 0.017328 -0.003546 -0.015300 0.000000 0.000000 0.000000
# 2 -0.003546 0.012695 -0.010265 0.000000 0.000000 0.000000
# 3 -0.015300 -0.010265 0.052716 0.000000 0.000000 0.000000
# 4 0.000000 0.000000 0.000000 0.045560 0.000000 0.000000
# 5 0.000000 0.000000 0.000000 0.000000 0.039525 0.000000
# 6 0.000000 0.000000 0.000000 0.000000 0.000000 0.030090
#
#
# Mechanical properties :
#
#
# Convention : Reuss Voigt Hill
#
# Bulk Modulus (GPa) = 40.78918 67.79661 54.29290
# Shear Modulus (GPa) = 18.91728 24.64429 21.78078
#
# Velocity S-wave (km/s) = 3.22291 3.67855 3.45824
# Velocity P-wave (km/s) = 6.02048 7.43426 6.76441
#
# Compressibility (1/GPa) = 0.02451630
#
# Stress axis : x y z
#
# Youngs Moduli (GPa) = 57.71106 78.77408 18.96941
#
# Poissons Ratio (x) = 0.27932 0.29023
# Poissons Ratio (y) = 0.20463 0.19473
# Poissons Ratio (z) = 0.88298 0.80865
#
# Static dielectric constant tensor:
#      x y z
#    x 3.495570 0.000000 0.000000 
#    y 0.000000 3.531390 0.000000 
#    z 0.000000 0.000000 3.192270 
# 
# 
# High freq. dielectric constant tensor:
#      x y z
#    x 1.720920 0.000000 0.000000 
#    y 0.000000 1.714010 0.000000 
#    z 0.000000 0.000000 1.685650 
# 
# From -- ./inp_files/30038.got.cif
#   From: 2010.06.25/outbox.cif.g09.slc.cpg/sg71_16_cif.got.tgz:30038.got - 2010.06.28 04:59:45.
