data_PCOD8290755
_publ_section_title
;
Structure prediction by ZEFSAII (Michael W. Deem and Ramdas Pophale) SiO2 
 PCOD8290755
Probable space group: I M M M
;
_chemical_formula_sum "Si O2"
_cell_formula_units_Z 120
_cell_length_a 24.806611
_cell_length_b 8.807319
_cell_length_c 29.149096
_cell_angle_alpha 90.000000
_cell_angle_beta 90.000000
_cell_angle_gamma 90.000000
_cell_volume 6368.486810
_symmetry_space_group_name_H-M "I M M M"
_symmetry_group_IT_number 71
_symmetry_cell_setting 'orthorhombic'
loop_
_space_group_symop_operation_xyz
x,y,z
-x,-y,z
x,-y,-z
-x,y,-z
-x,-y,-z
x,y,-z
-x,y,z
x,-y,z
1/2+x,1/2+y,1/2+z
1/2-x,1/2-y,1/2+z
1/2+x,1/2-y,1/2-z
1/2-x,1/2+y,1/2-z
1/2-x,1/2-y,1/2-z
1/2+x,1/2+y,1/2-z
1/2-x,1/2+y,1/2+z
1/2+x,1/2-y,1/2+z
loop_
_atom_site_type_symbol
_atom_site_label
_atom_site_fract_x
_atom_site_fract_y
_atom_site_fract_z
Si Si1 0.940434 0.327827 0.333231
Si Si2 0.592591 0.677370 0.255600
Si Si3 0.172381 0.320855 0.122568
Si Si4 0.129161 0.678651 0.580631
Si Si5 0.558969 0.176792 0.653198
Si Si6 0.298714 0.178804 0.276967
Si Si7 0.259964 0.319366 0.052584
Si Si8 0.937716 0.178763 0.500000
O O1 0.930378 0.500000 0.316299
O O2 0.939966 0.214133 0.290361
O O3 0.894797 0.281076 0.369660
O O4 0.000000 0.314232 0.355915
O O5 0.604175 0.500000 0.259492
O O6 0.558866 0.730325 0.299682
O O7 0.647866 0.769275 0.251174
O O8 0.175485 0.500000 0.120856
O O9 0.108938 0.269693 0.120582
O O10 0.198764 0.262895 0.170233
O O11 0.206659 0.258184 0.079441
O O12 0.131459 0.500000 0.571666
O O13 0.188677 0.746963 0.577164
O O14 0.089803 0.753448 0.544419
O O15 0.500000 0.203051 0.629534
O O16 0.567351 0.000000 0.665504
O O17 0.250000 0.250000 0.250000
O O18 0.293234 0.000000 0.274999
O O19 0.265315 0.500000 0.055260
O O20 0.255707 0.264342 0.000000
O O21 0.000000 0.224772 0.500000
O O22 0.928784 0.000000 0.500000
#
# Coordination Sequence:
#
# PCOD8290755 Si02
#       8
#    16  16  16  16  16  16  16   8
#     4  10  22  39  55  74 104 143 184 227 278 327
#     4  11  22  34  51  78 110 145 183 224 271 322
#     4   8  17  33  53  79 108 141 181 223 270 327
#     4  11  23  38  57  80 105 137 180 230 278 327
#     4   9  17  33  57  80 107 146 187 227 272 325
#     4  10  20  35  53  76 108 145 186 227 271 324
#     4  10  20  36  58  81 109 143 179 223 277 337
#     4  11  23  39  59  81 105 135 174 223 280 339
#
# _framework density 18.842780999999999
#
# number of rings (size 3 to 8) (size 9 to 14) (size 15 to 20)
#    0.000    2.067    0.667    3.800    1.867    4.267 
#    0.000    2.667    0.000    0.400    0.000    2.800 
#    0.000    0.000    0.000    6.000    0.000    6.667 
#
# Total GULP energy -743822.364246 kJ/mol
# GULP energy per Si atom -12397.039404 kJ/mol
# Density = 1.879989 g / cm^3
# Si number density = 18.842781 Si / 1000 Ang^3
#
#
#
# Elastic Constant Matrix: (Units=GPa)
#
#
# Indices 1 2 3 4 5 6 
#
# 1 158.3029 30.1514 68.0432 0.0000 0.0000 0.0000
# 2 30.1514 47.9035 19.8363 0.0000 0.0000 0.0000
# 3 68.0432 19.8363 85.6852 0.0000 0.0000 0.0000
# 4 0.0000 0.0000 0.0000 9.8163 0.0000 0.0000
# 5 0.0000 0.0000 0.0000 0.0000 32.6266 0.0000
# 6 0.0000 0.0000 0.0000 0.0000 0.0000 23.2881
#
#
#
# Elastic Compliance Matrix: (Units=1/GPa)
#
#
# Indices 1 2 3 4 5 6 
#
# 1 0.010052 -0.003342 -0.007209 0.000000 0.000000 0.000000
# 2 -0.003342 0.024200 -0.002948 0.000000 0.000000 0.000000
# 3 -0.007209 -0.002948 0.018078 0.000000 0.000000 0.000000
# 4 0.000000 0.000000 0.000000 0.101871 0.000000 0.000000
# 5 0.000000 0.000000 0.000000 0.000000 0.030650 0.000000
# 6 0.000000 0.000000 0.000000 0.000000 0.000000 0.042940
#
#
# Mechanical properties :
#
#
# Convention : Reuss Voigt Hill
#
# Bulk Modulus (GPa) = 39.47693 58.66151 49.06922
# Shear Modulus (GPa) = 18.99458 24.73692 21.86575
#
# Velocity S-wave (km/s) = 3.17843 3.62720 3.41021
# Velocity P-wave (km/s) = 5.87078 6.98153 6.45011
#
# Compressibility (1/GPa) = 0.02533125
#
# Stress axis : x y z
#
# Youngs Moduli (GPa) = 99.48208 41.32288 55.31672
#
# Poissons Ratio (x) = 0.13810 0.39876
# Poissons Ratio (y) = 0.33246 0.16310
# Poissons Ratio (z) = 0.71714 0.12184
#
# Static dielectric constant tensor:
#      x y z
#    x 3.756520 0.000000 0.000000 
#    y 0.000000 3.339360 0.000000 
#    z 0.000000 0.000000 3.484140 
# 
# 
# High freq. dielectric constant tensor:
#      x y z
#    x 1.747380 0.000000 0.000000 
#    y 0.000000 1.719300 0.000000 
#    z 0.000000 0.000000 1.711110 
# 
# From -- ./inp_files/67145.got.cif
#   From: 2010.06.25/outbox.cif.g09.slc.cpg/sg71_34_cif.got.tgz:67145.got - 2010.06.28 04:59:45.
