data_PCOD8290090
_publ_section_title
;
Structure prediction by ZEFSAII (Michael W. Deem and Ramdas Pophale) SiO2 
 PCOD8290090
Probable space group: I M M M
;
_chemical_formula_sum "Si O2"
_cell_formula_units_Z 64
_cell_length_a 8.827921
_cell_length_b 14.200249
_cell_length_c 28.553857
_cell_angle_alpha 90.000000
_cell_angle_beta 90.000000
_cell_angle_gamma 90.000000
_cell_volume 3579.473718
_symmetry_space_group_name_H-M "I M M M"
_symmetry_group_IT_number 71
_symmetry_cell_setting 'orthorhombic'
loop_
_space_group_symop_operation_xyz
x,y,z
-x,-y,z
x,-y,-z
-x,y,-z
-x,-y,-z
x,y,-z
-x,y,z
x,-y,z
1/2+x,1/2+y,1/2+z
1/2-x,1/2-y,1/2+z
1/2+x,1/2-y,1/2-z
1/2-x,1/2+y,1/2-z
1/2-x,1/2-y,1/2-z
1/2+x,1/2+y,1/2-z
1/2-x,1/2+y,1/2+z
1/2+x,1/2-y,1/2+z
loop_
_atom_site_type_symbol
_atom_site_label
_atom_site_fract_x
_atom_site_fract_y
_atom_site_fract_z
Si Si1 0.678988 0.847297 0.625218
Si Si2 0.678709 0.855063 0.121293
Si Si3 0.179231 0.500000 0.051842
Si Si4 0.678399 0.500000 0.445881
Si Si5 0.678497 0.000000 0.802293
Si Si6 0.179543 0.500000 0.198561
O O1 0.500000 0.827094 0.625313
O O2 0.770532 0.751599 0.624814
O O3 0.729222 0.906277 0.579449
O O4 0.730285 0.906088 0.671008
O O5 0.500000 0.862022 0.114457
O O6 0.730049 0.907560 0.169049
O O7 0.754919 0.905494 0.077018
O O8 0.000000 0.500000 0.048506
O O9 0.252910 0.500000 0.000000
O O10 0.500000 0.500000 0.438686
O O11 0.724606 0.500000 0.500000
O O12 0.753404 0.000000 0.750512
O O13 0.500000 0.000000 0.795902
O O14 0.000000 0.500000 0.200549
#
# Coordination Sequence:
#
# PCOD8290090 Si02
#       6
#    16  16   8   8   8   8
#     4   9  17  30  50  73  95 125 167 209 245 285
#     4  10  20  33  50  73 103 133 158 194 248 304
#     4   8  15  29  48  69  93 122 159 202 243 283
#     4  10  21  37  56  75  95 124 165 207 240 279
#     4   8  16  31  48  67  95 132 167 200 245 294
#     4   8  15  30  50  70  95 129 171 214 246 279
#
# _framework density 17.879722999999998
#
# number of rings (size 3 to 8) (size 9 to 14) (size 15 to 20)
#    0.000    3.000    0.000    3.375    0.000    3.000 
#    0.000    5.000    0.000    8.250    0.000    0.000 
#    0.000    0.000    0.000    0.000    0.000    0.000 
#
# Total GULP energy -396686.273557 kJ/mol
# GULP energy per Si atom -12396.446049 kJ/mol
# Density = 1.783903 g / cm^3
# Si number density = 17.879723 Si / 1000 Ang^3
#
#
#
# Elastic Constant Matrix: (Units=GPa)
#
#
# Indices 1 2 3 4 5 6 
#
# 1 42.4609 33.1302 40.2466 0.0000 0.0000 0.0000
# 2 33.1302 161.1733 87.3211 0.0000 0.0000 0.0000
# 3 40.2466 87.3211 185.7599 0.0000 0.0000 0.0000
# 4 0.0000 0.0000 0.0000 13.5229 0.0000 0.0000
# 5 0.0000 0.0000 0.0000 0.0000 16.8086 0.0000
# 6 0.0000 0.0000 0.0000 0.0000 0.0000 23.7878
#
#
#
# Elastic Compliance Matrix: (Units=1/GPa)
#
#
# Indices 1 2 3 4 5 6 
#
# 1 0.031192 -0.003690 -0.005023 0.000000 0.000000 0.000000
# 2 -0.003690 0.008761 -0.003319 0.000000 0.000000 0.000000
# 3 -0.005023 -0.003319 0.008032 0.000000 0.000000 0.000000
# 4 0.000000 0.000000 0.000000 0.073949 0.000000 0.000000
# 5 0.000000 0.000000 0.000000 0.000000 0.059493 0.000000
# 6 0.000000 0.000000 0.000000 0.000000 0.000000 0.042038
#
#
# Mechanical properties :
#
#
# Convention : Reuss Voigt Hill
#
# Bulk Modulus (GPa) = 41.80618 78.97667 60.39143
# Shear Modulus (GPa) = 19.56925 26.07028 22.81977
#
# Velocity S-wave (km/s) = 3.31190 3.82264 3.57640
# Velocity P-wave (km/s) = 6.16908 7.98439 7.13470
#
# Compressibility (1/GPa) = 0.02391991
#
# Stress axis : x y z
#
# Youngs Moduli (GPa) = 32.05987 114.14029 124.50537
#
# Poissons Ratio (x) = 0.42119 0.62543
# Poissons Ratio (y) = 0.11830 0.41322
# Poissons Ratio (z) = 0.16105 0.37882
#
# Static dielectric constant tensor:
#      x y z
#    x 2.957900 0.000000 0.000000 
#    y 0.000000 3.305630 0.000000 
#    z 0.000000 0.000000 3.921120 
# 
# 
# High freq. dielectric constant tensor:
#      x y z
#    x 1.660460 0.000000 0.000000 
#    y 0.000000 1.696310 0.000000 
#    z 0.000000 0.000000 1.700170 
# 
# From -- ./inp_files/67752.got.cif
#   From: 2010.06.25/outbox.cif.g09.slc.cpg/sg71_34_cif.got.tgz:67752.got - 2010.06.28 04:59:45.
