data_PCOD8290403
_publ_section_title
;
Structure prediction by ZEFSAII (Michael W. Deem and Ramdas Pophale) SiO2 
 PCOD8290403
Probable space group: I M M M
;
_chemical_formula_sum "Si O2"
_cell_formula_units_Z 88
_cell_length_a 17.941983
_cell_length_b 29.221948
_cell_length_c 8.893583
_cell_angle_alpha 90.000000
_cell_angle_beta 90.000000
_cell_angle_gamma 90.000000
_cell_volume 4662.902848
_symmetry_space_group_name_H-M "I M M M"
_symmetry_group_IT_number 71
_symmetry_cell_setting 'orthorhombic'
loop_
_space_group_symop_operation_xyz
x,y,z
-x,-y,z
x,-y,-z
-x,y,-z
-x,-y,-z
x,y,-z
-x,y,z
x,-y,z
1/2+x,1/2+y,1/2+z
1/2-x,1/2-y,1/2+z
1/2+x,1/2-y,1/2-z
1/2-x,1/2+y,1/2-z
1/2-x,1/2-y,1/2-z
1/2+x,1/2+y,1/2-z
1/2-x,1/2+y,1/2+z
1/2+x,1/2-y,1/2+z
loop_
_atom_site_type_symbol
_atom_site_label
_atom_site_fract_x
_atom_site_fract_y
_atom_site_fract_z
Si Si1 0.000000 0.945539 0.829532
Si Si2 0.585733 0.757807 0.168417
Si Si3 0.415065 0.145991 0.322811
Si Si4 0.225754 0.612668 0.677229
Si Si5 0.795718 0.209221 0.823323
Si Si6 0.150489 0.945748 0.671953
O O1 0.074353 0.926987 0.747573
O O2 0.000000 0.000000 0.825466
O O3 0.000000 0.927082 0.000000
O O4 0.500000 0.746028 0.161963
O O5 0.602923 0.804210 0.257236
O O6 0.622009 0.714483 0.252894
O O7 0.618593 0.764132 0.000000
O O8 0.402863 0.147478 0.500000
O O9 0.500000 0.131325 0.282490
O O10 0.357228 0.110057 0.249193
O O11 0.218668 0.606098 0.500000
O O12 0.262726 0.660635 0.723561
O O13 0.276924 0.572717 0.742929
O O14 0.750000 0.250000 0.750000
O O15 0.799108 0.215199 0.000000
O O16 0.151359 0.929143 0.500000
O O17 0.153758 0.000000 0.683858
#
# Coordination Sequence:
#
# PCOD8290403 Si02
#       6
#     8  16  16  16  16  16
#     4   9  17  33  59  87 115 147 183 225 273 327
#     4  10  20  34  52  74 103 142 186 228 272 322
#     4  10  20  34  55  81 108 143 186 230 275 326
#     4  11  23  37  56  83 112 147 186 227 280 334
#     4  11  22  35  53  77 108 146 184 226 274 324
#     4  10  21  38  61  87 114 146 185 229 277 329
#
# _framework density 18.872363
#
# number of rings (size 3 to 8) (size 9 to 14) (size 15 to 20)
#    0.000    1.727    1.818    3.000    0.000    6.545 
#    1.636    0.000    0.000    0.545    0.000    3.818 
#    0.000    0.000    0.000    0.000    0.000    0.000 
#
# Total GULP energy -545634.516627 kJ/mol
# GULP energy per Si atom -12400.784469 kJ/mol
# Density = 1.882941 g / cm^3
# Si number density = 18.872363 Si / 1000 Ang^3
#
#
#
# Elastic Constant Matrix: (Units=GPa)
#
#
# Indices 1 2 3 4 5 6 
#
# 1 132.1102 28.0962 62.2952 -0.0011 0.0000 0.0000
# 2 28.0962 28.8059 29.9284 0.0000 0.0004 0.0001
# 3 62.2952 29.9284 117.8883 0.0070 0.0053 0.0010
# 4 -0.0011 0.0000 0.0070 26.4892 0.0018 0.0001
# 5 0.0000 0.0004 0.0053 0.0018 38.5333 0.0000
# 6 0.0000 0.0001 0.0010 0.0001 0.0000 32.6103
#
#
#
# Elastic Compliance Matrix: (Units=1/GPa)
#
#
# Indices 1 2 3 4 5 6 
#
# 1 0.010860 -0.006289 -0.004142 0.000002 0.000001 0.000000
# 2 -0.006289 0.050794 -0.009572 0.000002 0.000001 0.000000
# 3 -0.004142 -0.009572 0.013101 -0.000004 -0.000002 0.000000
# 4 0.000002 0.000002 -0.000004 0.037751 -0.000002 0.000000
# 5 0.000001 0.000001 -0.000002 -0.000002 0.025952 0.000000
# 6 0.000000 0.000000 0.000000 0.000000 0.000000 0.030665
#
#
# Mechanical properties :
#
#
# Convention : Reuss Voigt Hill
#
# Bulk Modulus (GPa) = 28.77732 57.71599 43.24666
# Shear Modulus (GPa) = 22.65386 30.09220 26.37303
#
# Velocity S-wave (km/s) = 3.46840 3.99747 3.74229
# Velocity P-wave (km/s) = 5.59654 7.20798 6.45276
#
# Compressibility (1/GPa) = 0.03474959
#
# Stress axis : x y z
#
# Youngs Moduli (GPa) = 92.07991 19.68734 76.32741
#
# Poissons Ratio (x) = 0.12381 0.31616
# Poissons Ratio (y) = 0.57909 0.73060
# Poissons Ratio (z) = 0.38141 0.18844
#
# Static dielectric constant tensor:
#      x y z
#    x 3.870930 0.000000 0.000000 
#    y 0.000000 3.106380 -0.000010 
#    z 0.000000 -0.000010 3.802360 
# 
# 
# High freq. dielectric constant tensor:
#      x y z
#    x 1.751430 0.000000 0.000000 
#    y 0.000000 1.687750 0.000000 
#    z 0.000000 0.000000 1.754050 
# 
# From -- ./inp_files/8767.got.cif
#   From: 2010.06.25/outbox.cif.g09.slc.cpg/sg71_5_cif.got.tgz:8767.got - 2010.06.28 04:59:45.
