data_PCOD8290435
_publ_section_title
;
Structure prediction by ZEFSAII (Michael W. Deem and Ramdas Pophale) SiO2 
 PCOD8290435
Probable space group: I M M M
;
_chemical_formula_sum "Si O2"
_cell_formula_units_Z 96
_cell_length_a 22.866415
_cell_length_b 11.167333
_cell_length_c 18.686662
_cell_angle_alpha 90.000000
_cell_angle_beta 90.000000
_cell_angle_gamma 90.000000
_cell_volume 4771.767534
_symmetry_space_group_name_H-M "I M M M"
_symmetry_group_IT_number 71
_symmetry_cell_setting 'orthorhombic'
loop_
_space_group_symop_operation_xyz
x,y,z
-x,-y,z
x,-y,-z
-x,y,-z
-x,-y,-z
x,y,-z
-x,y,z
x,-y,z
1/2+x,1/2+y,1/2+z
1/2-x,1/2-y,1/2+z
1/2+x,1/2-y,1/2-z
1/2-x,1/2+y,1/2-z
1/2-x,1/2-y,1/2-z
1/2+x,1/2+y,1/2-z
1/2-x,1/2+y,1/2+z
1/2+x,1/2-y,1/2+z
loop_
_atom_site_type_symbol
_atom_site_label
_atom_site_fract_x
_atom_site_fract_y
_atom_site_fract_z
Si Si1 0.565485 0.715828 0.579783
Si Si2 0.672610 0.243078 0.916119
Si Si3 0.139660 0.000000 0.085470
Si Si4 0.431375 0.857685 0.844015
Si Si5 0.247033 0.638671 0.804827
Si Si6 0.730994 0.000000 0.084766
Si Si7 0.613870 0.133674 0.694490
O O1 0.585727 0.751839 0.500000
O O2 0.500000 0.665495 0.578325
O O3 0.607167 0.616362 0.614961
O O4 0.570875 0.828475 0.630981
O O5 0.603095 0.224372 0.902650
O O6 0.706057 0.344297 0.869488
O O7 0.699360 0.117988 0.887570
O O8 0.683804 0.269698 0.000000
O O9 0.204196 0.000000 0.117311
O O10 0.136086 0.000000 0.000000
O O11 0.500000 0.826485 0.847983
O O12 0.403051 0.806039 0.770217
O O13 0.421588 0.000000 0.858013
O O14 0.256309 0.500000 0.774678
O O15 0.250000 0.750000 0.750000
O O16 0.180444 0.648272 0.832449
O O17 0.733698 0.000000 0.000000
O O18 0.596002 0.000000 0.710232
#
# Coordination Sequence:
#
# PCOD8290435 Si02
#       7
#    16  16   8  16  16   8  16
#     4  10  20  34  52  77 112 156 205 253 301 362
#     4  11  22  38  61  93 129 164 213 268 325 387
#     4   9  17  32  51  75 108 151 197 247 306 359
#     4  10  20  36  59  88 126 169 214 267 324 383
#     4  11  24  42  67  95 128 168 206 256 320 385
#     4   9  18  31  55  87 119 156 197 255 315 370
#     4  10  21  38  58  85 119 156 199 252 312 373
#
# _framework density 20.118331999999999
#
# number of rings (size 3 to 8) (size 9 to 14) (size 15 to 20)
#    0.000    1.833    2.500    1.750    1.167    5.000 
#    1.500    3.333    0.000    0.500    0.000    1.167 
#    0.000    0.000    0.000    0.000    0.000    0.000 
#
# Total GULP energy -594709.639700 kJ/mol
# GULP energy per Si atom -12389.784160 kJ/mol
# Density = 2.007254 g / cm^3
# Si number density = 20.118332 Si / 1000 Ang^3
#
#
#
# Elastic Constant Matrix: (Units=GPa)
#
#
# Indices 1 2 3 4 5 6 
#
# 1 121.4281 30.7019 26.4509 0.0000 0.0000 0.0000
# 2 30.7019 76.0602 36.2212 0.0000 0.0000 0.0000
# 3 26.4509 36.2212 78.5332 0.0000 0.0000 0.0000
# 4 0.0000 0.0000 0.0000 28.2694 0.0000 0.0000
# 5 0.0000 0.0000 0.0000 0.0000 30.1227 0.0000
# 6 0.0000 0.0000 0.0000 0.0000 0.0000 22.0463
#
#
#
# Elastic Compliance Matrix: (Units=1/GPa)
#
#
# Indices 1 2 3 4 5 6 
#
# 1 0.009368 -0.002920 -0.001808 0.000000 0.000000 0.000000
# 2 -0.002920 0.017758 -0.007207 0.000000 0.000000 0.000000
# 3 -0.001808 -0.007207 0.016667 0.000000 0.000000 0.000000
# 4 0.000000 0.000000 0.000000 0.035374 0.000000 0.000000
# 5 0.000000 0.000000 0.000000 0.000000 0.033198 0.000000
# 6 0.000000 0.000000 0.000000 0.000000 0.000000 0.045359
#
#
# Mechanical properties :
#
#
# Convention : Reuss Voigt Hill
#
# Bulk Modulus (GPa) = 50.19667 51.41882 50.80775
# Shear Modulus (GPa) = 26.56268 28.26421 27.41344
#
# Velocity S-wave (km/s) = 3.63757 3.75226 3.69536
# Velocity P-wave (km/s) = 6.53050 6.66231 6.59673
#
# Compressibility (1/GPa) = 0.01992164
#
# Stress axis : x y z
#
# Youngs Moduli (GPa) = 106.75159 56.31182 60.00048
#
# Poissons Ratio (x) = 0.16444 0.10850
# Poissons Ratio (y) = 0.31172 0.43242
# Poissons Ratio (z) = 0.19304 0.40584
#
# Static dielectric constant tensor:
#      x y z
#    x 3.741200 0.000000 0.000000 
#    y 0.000000 3.617110 0.000000 
#    z 0.000000 0.000000 3.410540 
# 
# 
# High freq. dielectric constant tensor:
#      x y z
#    x 1.795620 0.000000 0.000000 
#    y 0.000000 1.759430 0.000000 
#    z 0.000000 0.000000 1.772280 
# 
# From -- ./inp_files/54924.got.cif
#   From: 2010.06.25/outbox.cif.g09.slc.cpg/sg71_28_cif.got.tgz:54924.got - 2010.06.28 04:59:45.
