data_PCOD8290491
_publ_section_title
;
Structure prediction by ZEFSAII (Michael W. Deem and Ramdas Pophale) SiO2 
 PCOD8290491
Probable space group: I M M M
;
_chemical_formula_sum "Si O2"
_cell_formula_units_Z 88
_cell_length_a 19.809088
_cell_length_b 24.510562
_cell_length_c 9.171863
_cell_angle_alpha 90.000000
_cell_angle_beta 90.000000
_cell_angle_gamma 90.000000
_cell_volume 4453.231882
_symmetry_space_group_name_H-M "I M M M"
_symmetry_group_IT_number 71
_symmetry_cell_setting 'orthorhombic'
loop_
_space_group_symop_operation_xyz
x,y,z
-x,-y,z
x,-y,-z
-x,y,-z
-x,-y,-z
x,y,-z
-x,y,z
x,-y,z
1/2+x,1/2+y,1/2+z
1/2-x,1/2-y,1/2+z
1/2+x,1/2-y,1/2-z
1/2-x,1/2+y,1/2-z
1/2-x,1/2-y,1/2-z
1/2+x,1/2+y,1/2-z
1/2-x,1/2+y,1/2+z
1/2+x,1/2-y,1/2+z
loop_
_atom_site_type_symbol
_atom_site_label
_atom_site_fract_x
_atom_site_fract_y
_atom_site_fract_z
Si Si1 0.803292 0.291182 0.826689
Si Si2 0.427600 0.623366 0.838549
Si Si3 0.074823 0.251711 0.660655
Si Si4 0.821416 0.594600 0.667284
Si Si5 0.921695 0.500000 0.673274
Si Si6 0.174251 0.941035 0.164357
O O1 0.750000 0.250000 0.750000
O O2 0.877882 0.269790 0.792433
O O3 0.804557 0.352616 0.765184
O O4 0.789349 0.291646 0.000000
O O5 0.500000 0.604316 0.769945
O O6 0.426384 0.687523 0.844748
O O7 0.361818 0.605932 0.752834
O O8 0.421994 0.598800 0.000000
O O9 0.098938 0.273141 0.500000
O O10 0.000000 0.274934 0.692839
O O11 0.835649 0.612722 0.500000
O O12 0.882954 0.555709 0.725962
O O13 0.754550 0.558648 0.678242
O O14 0.919204 0.500000 0.500000
O O15 0.000000 0.500000 0.729355
O O16 0.148704 0.000000 0.219341
O O17 0.151841 0.931075 0.000000
#
# Coordination Sequence:
#
# PCOD8290491 Si02
#       6
#    16  16  16  16   8  16
#     4  12  25  39  58  88 123 159 201 252 306 366
#     4   9  19  35  54  78 108 142 182 229 276 328
#     4   9  19  38  61  83 112 150 191 235 287 350
#     4  10  20  38  61  86 118 154 196 249 301 358
#     4   9  18  36  65  95 120 155 204 252 303 369
#     4  10  20  34  53  77 107 144 184 231 280 328
#
# _framework density 19.760929999999998
#
# number of rings (size 3 to 8) (size 9 to 14) (size 15 to 20)
#    0.000    2.091    0.909    3.818    0.000    6.545 
#    0.000    5.909    0.000    0.545    0.000    0.000 
#    0.000    0.000    0.000    0.000    0.000    0.000 
#
# Total GULP energy -545086.347176 kJ/mol
# GULP energy per Si atom -12388.326072 kJ/mol
# Density = 1.971595 g / cm^3
# Si number density = 19.760930 Si / 1000 Ang^3
#
#
#
# Elastic Constant Matrix: (Units=GPa)
#
#
# Indices 1 2 3 4 5 6 
#
# 1 94.1671 43.3789 36.4910 0.0000 0.0000 0.0000
# 2 43.3789 94.0580 46.9436 0.0000 0.0000 0.0000
# 3 36.4910 46.9436 92.0560 0.0000 0.0000 0.0000
# 4 0.0000 0.0000 0.0000 24.3852 0.0000 0.0000
# 5 0.0000 0.0000 0.0000 0.0000 27.6440 0.0000
# 6 0.0000 0.0000 0.0000 0.0000 0.0000 38.3105
#
#
#
# Elastic Compliance Matrix: (Units=1/GPa)
#
#
# Indices 1 2 3 4 5 6 
#
# 1 0.014094 -0.004979 -0.003048 0.000000 0.000000 0.000000
# 2 -0.004979 0.016020 -0.006196 0.000000 0.000000 0.000000
# 3 -0.003048 -0.006196 0.015231 0.000000 0.000000 0.000000
# 4 0.000000 0.000000 0.000000 0.041008 0.000000 0.000000
# 5 0.000000 0.000000 0.000000 0.000000 0.036174 0.000000
# 6 0.000000 0.000000 0.000000 0.000000 0.000000 0.026103
#
#
# Mechanical properties :
#
#
# Convention : Reuss Voigt Hill
#
# Bulk Modulus (GPa) = 59.17253 59.32310 59.24782
# Shear Modulus (GPa) = 27.36595 28.29912 27.83253
#
# Velocity S-wave (km/s) = 3.72540 3.78838 3.75702
# Velocity P-wave (km/s) = 6.96520 7.01579 6.99054
#
# Compressibility (1/GPa) = 0.01689973
#
# Stress axis : x y z
#
# Youngs Moduli (GPa) = 70.95159 62.42091 65.65694
#
# Poissons Ratio (x) = 0.31079 0.20012
# Poissons Ratio (y) = 0.35326 0.40680
# Poissons Ratio (z) = 0.21626 0.38675
#
# Static dielectric constant tensor:
#      x y z
#    x -1.399230 0.000000 0.000000 
#    y 0.000000 3.597300 0.000000 
#    z 0.000000 0.000000 3.466140 
# 
# 
# High freq. dielectric constant tensor:
#      x y z
#    x 1.782340 0.000000 0.000000 
#    y 0.000000 1.771680 0.000000 
#    z 0.000000 0.000000 1.742460 
# 
# From -- ./inp_files/10379.got.cif
#   From: 2010.06.25/outbox.cif.g09.slc.cpg/sg71_6_cif.got.tgz:10379.got - 2010.06.28 04:59:45.
