data_PCOD8290209
_publ_section_title
;
Structure prediction by ZEFSAII (Michael W. Deem and Ramdas Pophale) SiO2 
 PCOD8290209
Probable space group: I M M M
;
_chemical_formula_sum "Si O2"
_cell_formula_units_Z 104
_cell_length_a 28.073303
_cell_length_b 8.909414
_cell_length_c 23.673860
_cell_angle_alpha 90.000000
_cell_angle_beta 90.000000
_cell_angle_gamma 90.000000
_cell_volume 5921.227237
_symmetry_space_group_name_H-M "I M M M"
_symmetry_group_IT_number 71
_symmetry_cell_setting 'orthorhombic'
loop_
_space_group_symop_operation_xyz
x,y,z
-x,-y,z
x,-y,-z
-x,y,-z
-x,-y,-z
x,y,-z
-x,y,z
x,-y,z
1/2+x,1/2+y,1/2+z
1/2-x,1/2-y,1/2+z
1/2+x,1/2-y,1/2-z
1/2-x,1/2+y,1/2-z
1/2-x,1/2-y,1/2-z
1/2+x,1/2+y,1/2-z
1/2-x,1/2+y,1/2+z
1/2+x,1/2-y,1/2+z
loop_
_atom_site_type_symbol
_atom_site_label
_atom_site_fract_x
_atom_site_fract_y
_atom_site_fract_z
Si Si1 0.555196 0.173032 0.140515
Si Si2 0.555289 0.172666 0.269360
Si Si3 0.177948 0.325841 0.066464
Si Si4 0.089428 0.823242 0.124170
Si Si5 0.000000 0.328410 0.066771
Si Si6 0.631301 0.324871 0.064996
Si Si7 0.226351 0.668836 0.432924
O O1 0.500000 0.200548 0.126961
O O2 0.566342 0.218007 0.205043
O O3 0.584972 0.278727 0.099692
O O4 0.568643 0.000000 0.129783
O O5 0.500000 0.199531 0.283578
O O6 0.586711 0.276386 0.310154
O O7 0.568803 0.000000 0.279787
O O8 0.172656 0.500000 0.081810
O O9 0.139149 0.230360 0.099301
O O10 0.229300 0.268501 0.087779
O O11 0.171323 0.298149 0.000000
O O12 0.047072 0.749540 0.089269
O O13 0.085449 0.000000 0.118411
O O14 0.000000 0.500000 0.087687
O O15 0.000000 0.317284 0.000000
O O16 0.640817 0.500000 0.071621
O O17 0.677415 0.240051 0.090131
O O18 0.622304 0.280630 0.000000
O O19 0.224847 0.669568 0.500000
O O20 0.231496 0.500000 0.409291
#
# Coordination Sequence:
#
# PCOD8290209 Si02
#       7
#    16  16  16  16   8  16  16
#     4   9  19  35  55  79 104 136 176 216 256 300
#     4   9  18  35  56  73  96 133 176 217 259 310
#     4  10  20  34  52  74 102 137 174 212 259 313
#     4  12  23  33  50  76 103 133 172 218 263 310
#     4  11  23  37  51  69  99 139 176 213 264 317
#     4  10  20  33  51  78 111 144 173 204 251 309
#     4   9  17  31  52  76 102 133 171 215 256 300
#
# _framework density 17.563927
#
# number of rings (size 3 to 8) (size 9 to 14) (size 15 to 20)
#    0.000    2.077    0.769    4.385    0.000    7.385 
#    0.000    3.077    0.000    0.923    0.000    0.000 
#    0.000    0.000    0.000    0.000    0.000    0.000 
#
# Total GULP energy -644929.032878 kJ/mol
# GULP energy per Si atom -12402.481402 kJ/mol
# Density = 1.752395 g / cm^3
# Si number density = 17.563927 Si / 1000 Ang^3
#
#
#
# Elastic Constant Matrix: (Units=GPa)
#
#
# Indices 1 2 3 4 5 6 
#
# 1 102.1985 50.8610 46.7986 0.0000 0.0000 0.0000
# 2 50.8610 116.4329 46.0201 0.0000 0.0000 0.0000
# 3 46.7986 46.0201 65.6771 0.0000 0.0000 0.0000
# 4 0.0000 0.0000 0.0000 24.2201 0.0000 0.0000
# 5 0.0000 0.0000 0.0000 0.0000 -8.6012 0.0000
# 6 0.0000 0.0000 0.0000 0.0000 0.0000 36.4494
#
#
#
# Elastic Compliance Matrix: (Units=1/GPa)
#
#
# Indices 1 2 3 4 5 6 
#
# 1 0.015391 -0.003303 -0.008652 0.000000 0.000000 0.000000
# 2 -0.003303 0.012587 -0.006466 0.000000 0.000000 0.000000
# 3 -0.008652 -0.006466 0.025922 0.000000 0.000000 0.000000
# 4 0.000000 0.000000 0.000000 0.041288 0.000000 0.000000
# 5 0.000000 0.000000 0.000000 0.000000 -0.116262 0.000000
# 6 0.000000 0.000000 0.000000 0.000000 0.000000 0.027435
#
#
# Mechanical properties :
#
#
# Convention : Reuss Voigt Hill
#
# Bulk Modulus (GPa) = 58.62751 63.51868 61.07310
# Shear Modulus (GPa) = 102.26990 19.78891 61.02940
#
# Velocity S-wave (km/s) = 7.63896 3.36025 5.90105
# Velocity P-wave (km/s) = 10.54784 7.16225 9.01539
#
# Compressibility (1/GPa) = 0.01705684
#
# Stress axis : x y z
#
# Youngs Moduli (GPa) = 64.97364 79.44455 38.57718
#
# Poissons Ratio (x) = 0.26243 0.33378
# Poissons Ratio (y) = 0.21463 0.24945
# Poissons Ratio (z) = 0.56216 0.51370
#
# Static dielectric constant tensor:
#      x y z
#    x 3.341580 0.000000 0.000000 
#    y 0.000000 3.334720 0.000000 
#    z 0.000000 0.000000 3.122170 
# 
# 
# High freq. dielectric constant tensor:
#      x y z
#    x 1.678840 0.000000 0.000000 
#    y 0.000000 1.689010 0.000000 
#    z 0.000000 0.000000 1.656440 
# 
# From -- ./inp_files/61972.got.cif
#   From: 2010.06.25/outbox.cif.g09.slc.cpg/sg71_31_cif.got.tgz:61972.got - 2010.06.28 04:59:45.
