data_PCOD8290487
_publ_section_title
;
Structure prediction by ZEFSAII (Michael W. Deem and Ramdas Pophale) SiO2 
 PCOD8290487
Probable space group: I M M M
;
_chemical_formula_sum "Si O2"
_cell_formula_units_Z 72
_cell_length_a 22.513576
_cell_length_b 17.092836
_cell_length_c 9.501759
_cell_angle_alpha 90.000000
_cell_angle_beta 90.000000
_cell_angle_gamma 90.000000
_cell_volume 3656.475092
_symmetry_space_group_name_H-M "I M M M"
_symmetry_group_IT_number 71
_symmetry_cell_setting 'orthorhombic'
loop_
_space_group_symop_operation_xyz
x,y,z
-x,-y,z
x,-y,-z
-x,y,-z
-x,-y,-z
x,y,-z
-x,y,z
x,-y,z
1/2+x,1/2+y,1/2+z
1/2-x,1/2-y,1/2+z
1/2+x,1/2-y,1/2-z
1/2-x,1/2+y,1/2-z
1/2-x,1/2-y,1/2-z
1/2+x,1/2+y,1/2-z
1/2-x,1/2+y,1/2+z
1/2+x,1/2-y,1/2+z
loop_
_atom_site_type_symbol
_atom_site_label
_atom_site_fract_x
_atom_site_fract_y
_atom_site_fract_z
Si Si1 0.431130 0.409084 0.336347
Si Si2 0.781393 0.654465 0.660681
Si Si3 0.500000 0.906344 0.346740
Si Si4 0.400322 0.088561 0.847978
Si Si5 0.829180 0.173915 0.665138
O O1 0.417839 0.391520 0.500000
O O2 0.500000 0.390339 0.301789
O O3 0.417595 0.500000 0.303037
O O4 0.389731 0.354315 0.239213
O O5 0.757836 0.653731 0.500000
O O6 0.830991 0.589205 0.691803
O O7 0.816756 0.734793 0.693699
O O8 0.727495 0.631963 0.763210
O O9 0.500000 0.867967 0.500000
O O10 0.442044 0.871796 0.268405
O O11 0.500000 0.000000 0.358358
O O12 0.421719 0.000000 0.861857
O O13 0.409232 0.131055 0.000000
O O14 0.832181 0.153434 0.500000
#
# Coordination Sequence:
#
# PCOD8290487 Si02
#       5
#    16  16   8  16  16
#     4   9  19  37  59  80 104 137 176 218 265 322
#     4   9  19  35  52  73 104 141 177 214 256 307
#     4   9  17  29  45  67  97 127 154 197 254 295
#     4   9  17  31  51  71  93 129 175 212 243 290
#     4  10  20  34  53  77 106 138 170 213 266 312
#
# _framework density 19.691096000000002
#
# number of rings (size 3 to 8) (size 9 to 14) (size 15 to 20)
#    0.000    2.778    0.000    1.667    0.000    4.889 
#    2.000    3.333    0.000    0.000    0.000    0.000 
#    0.000    0.000    0.000    0.000    0.000    0.000 
#
# Total GULP energy -446092.493317 kJ/mol
# GULP energy per Si atom -12391.458148 kJ/mol
# Density = 1.964628 g / cm^3
# Si number density = 19.691096 Si / 1000 Ang^3
#
#
#
# Elastic Constant Matrix: (Units=GPa)
#
#
# Indices 1 2 3 4 5 6 
#
# 1 142.8856 25.8042 96.2617 0.0000 0.0000 0.0000
# 2 25.8042 24.7466 24.6467 0.0000 0.0000 0.0000
# 3 96.2617 24.6467 146.4973 0.0000 0.0000 0.0000
# 4 0.0000 0.0000 0.0000 21.8560 0.0000 0.0000
# 5 0.0000 0.0000 0.0000 0.0000 40.9167 0.0000
# 6 0.0000 0.0000 0.0000 0.0000 0.0000 30.4531
#
#
#
# Elastic Compliance Matrix: (Units=1/GPa)
#
#
# Indices 1 2 3 4 5 6 
#
# 1 0.013307 -0.006207 -0.007699 0.000000 0.000000 0.000000
# 2 -0.006207 0.051439 -0.004576 0.000000 0.000000 0.000000
# 3 -0.007699 -0.004576 0.012655 0.000000 0.000000 0.000000
# 4 0.000000 0.000000 0.000000 0.045754 0.000000 0.000000
# 5 0.000000 0.000000 0.000000 0.000000 0.024440 0.000000
# 6 0.000000 0.000000 0.000000 0.000000 0.000000 0.032837
#
#
# Mechanical properties :
#
#
# Convention : Reuss Voigt Hill
#
# Bulk Modulus (GPa) = 24.72996 67.50606 46.11801
# Shear Modulus (GPa) = 21.65678 29.80628 25.73153
#
# Velocity S-wave (km/s) = 3.31996 3.89484 3.61883
# Velocity P-wave (km/s) = 5.22326 7.38805 6.39788
#
# Compressibility (1/GPa) = 0.04043679
#
# Stress axis : x y z
#
# Youngs Moduli (GPa) = 75.15088 19.44052 79.02016
#
# Poissons Ratio (x) = 0.12067 0.60840
# Poissons Ratio (y) = 0.46646 0.36156
# Poissons Ratio (z) = 0.57861 0.08895
#
# Static dielectric constant tensor:
#      x y z
#    x 3.661570 0.000000 0.000000 
#    y 0.000000 3.261360 0.000000 
#    z 0.000000 0.000000 3.794850 
# 
# 
# High freq. dielectric constant tensor:
#      x y z
#    x 1.776660 0.000000 0.000000 
#    y 0.000000 1.730580 0.000000 
#    z 0.000000 0.000000 1.770170 
# 
# From -- ./inp_files/9937.got.cif
#   From: 2010.06.25/outbox.cif.g09.slc.cpg/sg71_5_cif.got.tgz:9937.got - 2010.06.28 04:59:45.
