data_PCOD8290660
_publ_section_title
;
Structure prediction by ZEFSAII (Michael W. Deem and Ramdas Pophale) SiO2 
 PCOD8290660
Probable space group: I M M M
;
_chemical_formula_sum "Si O2"
_cell_formula_units_Z 104
_cell_length_a 27.949329
_cell_length_b 8.933109
_cell_length_c 22.715371
_cell_angle_alpha 90.000000
_cell_angle_beta 90.000000
_cell_angle_gamma 90.000000
_cell_volume 5671.446680
_symmetry_space_group_name_H-M "I M M M"
_symmetry_group_IT_number 71
_symmetry_cell_setting 'orthorhombic'
loop_
_space_group_symop_operation_xyz
x,y,z
-x,-y,z
x,-y,-z
-x,y,-z
-x,-y,-z
x,y,-z
-x,y,z
x,-y,z
1/2+x,1/2+y,1/2+z
1/2-x,1/2-y,1/2+z
1/2+x,1/2-y,1/2-z
1/2-x,1/2+y,1/2-z
1/2-x,1/2-y,1/2-z
1/2+x,1/2+y,1/2-z
1/2-x,1/2+y,1/2+z
1/2+x,1/2-y,1/2+z
loop_
_atom_site_type_symbol
_atom_site_label
_atom_site_fract_x
_atom_site_fract_y
_atom_site_fract_z
Si Si1 0.944737 0.322273 0.000000
Si Si2 0.390529 0.176854 0.617750
Si Si3 0.802505 0.326434 0.697729
Si Si4 0.944613 0.827460 0.778593
Si Si5 0.889617 0.171945 0.660611
Si Si6 0.943928 0.666169 0.565540
Si Si7 0.695855 0.324855 0.678288
O O1 0.914929 0.265524 0.057048
O O2 0.947488 0.500000 0.000000
O O3 0.000000 0.260044 0.000000
O O4 0.426021 0.222169 0.669747
O O5 0.337840 0.247790 0.629105
O O6 0.384014 0.000000 0.616265
O O7 0.805019 0.500000 0.714393
O O8 0.842938 0.276209 0.652073
O O9 0.751745 0.288321 0.666976
O O10 0.814834 0.232781 0.756236
O O11 0.918014 0.782378 0.719114
O O12 0.000000 0.794966 0.768547
O O13 0.934961 0.000000 0.795492
O O14 0.922647 0.203103 0.605082
O O15 0.874125 0.000000 0.661234
O O16 0.922944 0.683847 0.500000
O O17 0.931316 0.500000 0.589988
O O18 0.000000 0.689502 0.564230
O O19 0.684628 0.500000 0.676511
#
# Coordination Sequence:
#
# PCOD8290660 Si02
#       7
#     8  16  16  16  16  16  16
#     4   9  20  38  57  81 113 147 189 239 282 329
#     4  11  21  35  58  82 107 145 189 229 278 334
#     4  10  20  34  55  82 110 143 182 218 267 328
#     4  10  21  35  50  75 113 147 176 219 274 325
#     4  11  21  33  53  81 113 145 177 222 277 325
#     4   9  19  36  56  77 105 144 187 226 263 314
#     4  10  20  35  55  81 112 141 175 222 273 326
#
# _framework density 18.337472000000002
#
# number of rings (size 3 to 8) (size 9 to 14) (size 15 to 20)
#    0.000    1.923    1.538    3.231    0.000    4.615 
#    0.000    2.308    1.692    2.769    0.000    0.000 
#    0.000    0.000    0.000    0.000    0.000    0.000 
#
# Total GULP energy -644727.717778 kJ/mol
# GULP energy per Si atom -12398.609957 kJ/mol
# Density = 1.829574 g / cm^3
# Si number density = 18.337472 Si / 1000 Ang^3
#
#
#
# Elastic Constant Matrix: (Units=GPa)
#
#
# Indices 1 2 3 4 5 6 
#
# 1 122.1702 45.3875 65.1618 0.0000 0.0000 0.0000
# 2 45.3875 64.6086 43.6363 0.0000 0.0000 0.0000
# 3 65.1618 43.6363 98.0285 0.0000 0.0000 0.0000
# 4 0.0000 0.0000 0.0000 21.9651 0.0000 0.0000
# 5 0.0000 0.0000 0.0000 0.0000 27.5005 0.0000
# 6 0.0000 0.0000 0.0000 0.0000 0.0000 32.0195
#
#
#
# Elastic Compliance Matrix: (Units=1/GPa)
#
#
# Indices 1 2 3 4 5 6 
#
# 1 0.013714 -0.004972 -0.006903 0.000000 0.000000 0.000000
# 2 -0.004972 0.023934 -0.007349 0.000000 0.000000 0.000000
# 3 -0.006903 -0.007349 0.018061 0.000000 0.000000 0.000000
# 4 0.000000 0.000000 0.000000 0.045527 0.000000 0.000000
# 5 0.000000 0.000000 0.000000 0.000000 0.036363 0.000000
# 6 0.000000 0.000000 0.000000 0.000000 0.000000 0.031231
#
#
# Mechanical properties :
#
#
# Convention : Reuss Voigt Hill
#
# Bulk Modulus (GPa) = 57.93257 65.90871 61.92064
# Shear Modulus (GPa) = 23.47067 25.00515 24.23791
#
# Velocity S-wave (km/s) = 3.58149 3.69671 3.63956
# Velocity P-wave (km/s) = 6.98311 7.36485 7.17652
#
# Compressibility (1/GPa) = 0.01726145
#
# Stress axis : x y z
#
# Youngs Moduli (GPa) = 72.91663 41.78132 55.36800
#
# Poissons Ratio (x) = 0.20774 0.38220
# Poissons Ratio (y) = 0.36255 0.40690
# Poissons Ratio (z) = 0.50334 0.30705
#
# Static dielectric constant tensor:
#      x y z
#    x 3.611930 0.000000 0.000000 
#    y 0.000000 3.321760 0.000000 
#    z 0.000000 0.000000 3.285610 
# 
# 
# High freq. dielectric constant tensor:
#      x y z
#    x 1.723710 0.000000 0.000000 
#    y 0.000000 1.711150 0.000000 
#    z 0.000000 0.000000 1.687620 
# 
# From -- ./inp_files/56239.got.cif
#   From: 2010.06.25/outbox.cif.g09.slc.cpg/sg71_29_cif.got.tgz:56239.got - 2010.06.28 04:59:45.
