data_PCOD8290858
_publ_section_title
;
Structure prediction by ZEFSAII (Michael W. Deem and Ramdas Pophale) SiO2 
 PCOD8290858
Probable space group: I M M M
;
_chemical_formula_sum "Si O2"
_cell_formula_units_Z 80
_cell_length_a 25.924002
_cell_length_b 8.997532
_cell_length_c 18.124998
_cell_angle_alpha 90.000000
_cell_angle_beta 90.000000
_cell_angle_gamma 90.000000
_cell_volume 4227.692714
_symmetry_space_group_name_H-M "I M M M"
_symmetry_group_IT_number 71
_symmetry_cell_setting 'orthorhombic'
loop_
_space_group_symop_operation_xyz
x,y,z
-x,-y,z
x,-y,-z
-x,y,-z
-x,-y,-z
x,y,-z
-x,y,z
x,-y,z
1/2+x,1/2+y,1/2+z
1/2-x,1/2-y,1/2+z
1/2+x,1/2-y,1/2-z
1/2-x,1/2+y,1/2-z
1/2-x,1/2-y,1/2-z
1/2+x,1/2+y,1/2-z
1/2-x,1/2+y,1/2+z
1/2+x,1/2-y,1/2+z
loop_
_atom_site_type_symbol
_atom_site_label
_atom_site_fract_x
_atom_site_fract_y
_atom_site_fract_z
Si Si1 0.697923 0.332701 0.412199
Si Si2 0.405024 0.170925 0.587287
Si Si3 0.701419 0.667545 0.912082
Si Si4 0.599218 0.827011 0.915609
Si Si5 0.000000 0.823876 0.835003
Si Si6 0.500000 0.173816 0.179104
O O1 0.699807 0.334120 0.500000
O O2 0.693425 0.500000 0.381237
O O3 0.649243 0.236969 0.385006
O O4 0.749857 0.258279 0.380243
O O5 0.411105 0.186339 0.500000
O O6 0.449823 0.263110 0.624815
O O7 0.408285 0.000000 0.612382
O O8 0.704823 0.500000 0.882289
O O9 0.648466 0.739985 0.883307
O O10 0.702555 0.672120 0.000000
O O11 0.549854 0.782663 0.868150
O O12 0.612074 0.000000 0.909821
O O13 0.587710 0.781690 0.000000
O O14 0.000000 0.773475 0.750996
O O15 0.000000 0.000000 0.839959
O O16 0.500000 0.000000 0.199967
#
# Coordination Sequence:
#
# PCOD8290858 Si02
#       6
#    16  16  16  16   8   8
#     4   9  16  27  46  74 106 136 167 206 251 299
#     4  10  20  35  56  80 105 134 170 212 257 305
#     4   9  16  26  43  71 106 139 169 205 251 301
#     4   9  17  31  53  79 104 133 172 216 259 304
#     4  12  25  38  53  74 103 138 175 214 256 306
#     4  10  21  37  55  74 101 137 175 216 262 310
#
# _framework density 18.922851000000001
#
# number of rings (size 3 to 8) (size 9 to 14) (size 15 to 20)
#    0.000    2.400    0.000    3.300    0.000    9.200 
#    0.000    0.000    0.000    4.200    0.000    0.000 
#    0.000    0.000    0.000    0.000    0.000    0.000 
#
# Total GULP energy -496053.791748 kJ/mol
# GULP energy per Si atom -12401.344794 kJ/mol
# Density = 1.887978 g / cm^3
# Si number density = 18.922851 Si / 1000 Ang^3
#
#
#
# Elastic Constant Matrix: (Units=GPa)
#
#
# Indices 1 2 3 4 5 6 
#
# 1 195.0717 100.0198 44.2950 0.0000 0.0000 0.0000
# 2 100.0198 157.3754 40.2682 0.0000 0.0000 0.0000
# 3 44.2950 40.2682 35.3417 0.0000 0.0000 0.0000
# 4 0.0000 0.0000 0.0000 19.4484 0.0000 0.0000
# 5 0.0000 0.0000 0.0000 0.0000 -3.9359 0.0000
# 6 0.0000 0.0000 0.0000 0.0000 0.0000 30.4858
#
#
#
# Elastic Compliance Matrix: (Units=1/GPa)
#
#
# Indices 1 2 3 4 5 6 
#
# 1 0.008508 -0.003781 -0.006355 0.000000 0.000000 0.000000
# 2 -0.003781 0.010650 -0.007395 0.000000 0.000000 0.000000
# 3 -0.006355 -0.007395 0.044686 0.000000 0.000000 0.000000
# 4 0.000000 0.000000 0.000000 0.051418 0.000000 0.000000
# 5 0.000000 0.000000 0.000000 0.000000 -0.254074 0.000000
# 6 0.000000 0.000000 0.000000 0.000000 0.000000 0.032802
#
#
# Mechanical properties :
#
#
# Convention : Reuss Voigt Hill
#
# Bulk Modulus (GPa) = 34.74499 84.10609 59.42554
# Shear Modulus (GPa) = -81.49512 22.74672 -29.37420
#
# Velocity S-wave (km/s) = -6.56967 3.47086 -3.94422
# Velocity P-wave (km/s) = 6.25669 7.78497 3.27564
#
# Compressibility (1/GPa) = 0.02878113
#
# Stress axis : x y z
#
# Youngs Moduli (GPa) = 117.53404 93.90078 22.37821
#
# Poissons Ratio (x) = 0.35506 0.14222
# Poissons Ratio (y) = 0.44442 0.16549
# Poissons Ratio (z) = 0.74697 0.69439
#
# Static dielectric constant tensor:
#      x y z
#    x 3.719570 0.000000 0.000000 
#    y 0.000000 3.608330 0.000000 
#    z 0.000000 0.000000 3.038570 
# 
# 
# High freq. dielectric constant tensor:
#      x y z
#    x 1.756110 0.000000 0.000000 
#    y 0.000000 1.745050 0.000000 
#    z 0.000000 0.000000 1.681710 
# 
# From -- ./inp_files/48600.got.cif
#   From: 2010.06.25/outbox.cif.g09.slc.cpg/sg71_25_cif.got.tgz:48600.got - 2010.06.28 04:59:45.
