data_PCOD8290358
_publ_section_title
;
Structure prediction by ZEFSAII (Michael W. Deem and Ramdas Pophale) SiO2 
 PCOD8290358
Probable space group: I M M M
;
_chemical_formula_sum "Si O2"
_cell_formula_units_Z 88
_cell_length_a 13.509396
_cell_length_b 13.227767
_cell_length_c 26.754052
_cell_angle_alpha 90.000000
_cell_angle_beta 90.000000
_cell_angle_gamma 90.000000
_cell_volume 4780.926153
_symmetry_space_group_name_H-M "I M M M"
_symmetry_group_IT_number 71
_symmetry_cell_setting 'orthorhombic'
loop_
_space_group_symop_operation_xyz
x,y,z
-x,-y,z
x,-y,-z
-x,y,-z
-x,-y,-z
x,y,-z
-x,y,z
x,-y,z
1/2+x,1/2+y,1/2+z
1/2-x,1/2-y,1/2+z
1/2+x,1/2-y,1/2-z
1/2-x,1/2+y,1/2-z
1/2-x,1/2-y,1/2-z
1/2+x,1/2+y,1/2-z
1/2-x,1/2+y,1/2+z
1/2+x,1/2-y,1/2+z
loop_
_atom_site_type_symbol
_atom_site_label
_atom_site_fract_x
_atom_site_fract_y
_atom_site_fract_z
Si Si1 0.111474 0.617928 0.644443
Si Si2 0.383397 0.884748 0.645496
Si Si3 0.609288 0.380335 0.701331
Si Si4 0.612311 0.619481 0.500000
Si Si5 0.694281 0.880185 0.750565
Si Si6 0.198217 0.800331 0.898521
O O1 0.135955 0.500000 0.636779
O O2 0.125167 0.647400 0.702532
O O3 0.184879 0.682173 0.609624
O O4 0.000000 0.643993 0.628170
O O5 0.500000 0.874688 0.638864
O O6 0.352515 0.836313 0.699430
O O7 0.326830 0.819357 0.603700
O O8 0.348501 0.000000 0.639575
O O9 0.500000 0.337497 0.714844
O O10 0.610265 0.500000 0.706743
O O11 0.693920 0.336485 0.739309
O O12 0.634386 0.356639 0.643867
O O13 0.614069 0.500000 0.500000
O O14 0.500000 0.660424 0.500000
O O15 0.669712 0.659041 0.547868
O O16 0.698057 0.000000 0.743904
#
# Coordination Sequence:
#
# PCOD8290358 Si02
#       6
#    16  16  16   8  16  16
#     4   9  17  31  52  78 107 136 165 201 249 305
#     4  10  20  34  51  71  99 136 175 213 250 290
#     4   9  16  27  45  72 105 135 163 202 253 305
#     4  11  22  36  56  80 104 129 158 200 260 321
#     4   8  15  28  46  69  99 136 172 203 242 297
#     4  11  21  34  51  73 100 131 171 211 252 301
#
# _framework density 18.406476000000001
#
# number of rings (size 3 to 8) (size 9 to 14) (size 15 to 20)
#    0.000    2.455    0.000    4.909    0.000    6.545 
#    0.000    3.636    0.000    4.909    0.000    0.000 
#    0.000    1.455    0.000    0.000    0.000    0.000 
#
# Total GULP energy -545552.242031 kJ/mol
# GULP energy per Si atom -12398.914592 kJ/mol
# Density = 1.836458 g / cm^3
# Si number density = 18.406476 Si / 1000 Ang^3
#
#
#
# Elastic Constant Matrix: (Units=GPa)
#
#
# Indices 1 2 3 4 5 6 
#
# 1 140.4319 39.9661 43.0770 0.0000 0.0000 0.0000
# 2 39.9661 50.9107 24.6004 0.0000 0.0000 0.0000
# 3 43.0770 24.6004 87.9179 0.0000 0.0000 0.0000
# 4 0.0000 0.0000 0.0000 24.0177 0.0000 0.0000
# 5 0.0000 0.0000 0.0000 0.0000 23.5018 0.0000
# 6 0.0000 0.0000 0.0000 0.0000 0.0000 24.6078
#
#
#
# Elastic Compliance Matrix: (Units=1/GPa)
#
#
# Indices 1 2 3 4 5 6 
#
# 1 0.009840 -0.006238 -0.003076 0.000000 0.000000 0.000000
# 2 -0.006238 0.026668 -0.004406 0.000000 0.000000 0.000000
# 3 -0.003076 -0.004406 0.014114 0.000000 0.000000 0.000000
# 4 0.000000 0.000000 0.000000 0.041636 0.000000 0.000000
# 5 0.000000 0.000000 0.000000 0.000000 0.042550 0.000000
# 6 0.000000 0.000000 0.000000 0.000000 0.000000 0.040638
#
#
# Mechanical properties :
#
#
# Convention : Reuss Voigt Hill
#
# Bulk Modulus (GPa) = 43.13494 54.94974 49.04234
# Shear Modulus (GPa) = 23.74038 25.86658 24.80348
#
# Velocity S-wave (km/s) = 3.59525 3.75280 3.67487
# Velocity P-wave (km/s) = 6.38122 6.97827 6.68641
#
# Compressibility (1/GPa) = 0.02318306
#
# Stress axis : x y z
#
# Youngs Moduli (GPa) = 101.62916 37.49784 70.85204
#
# Poissons Ratio (x) = 0.23392 0.21791
# Poissons Ratio (y) = 0.63399 0.31214
# Poissons Ratio (z) = 0.31257 0.16520
#
# Static dielectric constant tensor:
#      x y z
#    x 3.735860 0.000000 0.000000 
#    y 0.000000 3.464230 0.000000 
#    z 0.000000 0.000000 3.098300 
# 
# 
# High freq. dielectric constant tensor:
#      x y z
#    x 1.719400 0.000000 0.000000 
#    y 0.000000 1.720890 0.000000 
#    z 0.000000 0.000000 1.672870 
# 
# From -- ./inp_files/34427.got.cif
#   From: 2010.06.25/outbox.cif.g09.slc.cpg/sg71_18_cif.got.tgz:34427.got - 2010.06.28 04:59:45.
