data_PCOD8290855
_publ_section_title
;
Structure prediction by ZEFSAII (Michael W. Deem and Ramdas Pophale) SiO2 
 PCOD8290855
Probable space group: I M M M
;
_chemical_formula_sum "Si O2"
_cell_formula_units_Z 112
_cell_length_a 26.590122
_cell_length_b 15.167090
_cell_length_c 14.237678
_cell_angle_alpha 90.000000
_cell_angle_beta 90.000000
_cell_angle_gamma 90.000000
_cell_volume 5741.981124
_symmetry_space_group_name_H-M "I M M M"
_symmetry_group_IT_number 71
_symmetry_cell_setting 'orthorhombic'
loop_
_space_group_symop_operation_xyz
x,y,z
-x,-y,z
x,-y,-z
-x,y,-z
-x,-y,-z
x,y,-z
-x,y,z
x,-y,z
1/2+x,1/2+y,1/2+z
1/2-x,1/2-y,1/2+z
1/2+x,1/2-y,1/2-z
1/2-x,1/2+y,1/2-z
1/2-x,1/2-y,1/2-z
1/2+x,1/2+y,1/2-z
1/2-x,1/2+y,1/2+z
1/2+x,1/2-y,1/2+z
loop_
_atom_site_type_symbol
_atom_site_label
_atom_site_fract_x
_atom_site_fract_y
_atom_site_fract_z
Si Si1 0.600516 0.739904 0.606775
Si Si2 0.442633 0.726466 0.798600
Si Si3 0.262708 0.348329 0.222606
Si Si4 0.639133 0.396209 0.889186
Si Si5 0.684716 0.596951 0.603124
Si Si6 0.168811 0.598021 0.894665
Si Si7 0.440330 0.903305 0.106129
O O1 0.579165 0.732471 0.500000
O O2 0.557838 0.723776 0.684589
O O3 0.642643 0.667602 0.627362
O O4 0.623878 0.835402 0.627289
O O5 0.500000 0.712625 0.831956
O O6 0.409900 0.648984 0.844258
O O7 0.420602 0.821835 0.831186
O O8 0.250000 0.250000 0.250000
O O9 0.311184 0.353494 0.155575
O O10 0.271477 0.399411 0.320171
O O11 0.215679 0.393035 0.173677
O O12 0.637255 0.500000 0.865836
O O13 0.639781 0.378800 0.000000
O O14 0.707909 0.616637 0.500000
O O15 0.659748 0.500000 0.605185
O O16 0.146279 0.500000 0.884592
O O17 0.189014 0.615690 0.000000
O O18 0.500000 0.904121 0.108927
O O19 0.420766 0.000000 0.142168
O O20 0.421231 0.888117 0.000000
#
# Coordination Sequence:
#
# PCOD8290855 Si02
#       7
#    16  16  16  16  16  16  16
#     4  10  21  38  56  81 113 147 193 243 292 347
#     4  11  22  37  58  85 115 154 203 251 298 348
#     4  12  21  35  58  86 118 150 188 235 281 339
#     4  11  24  40  59  87 123 160 196 239 293 352
#     4  10  20  35  56  78 106 146 188 231 278 330
#     4  10  20  35  57  83 113 150 186 227 285 351
#     4   8  15  30  53  79 105 136 179 232 289 348
#
# _framework density 19.505462000000001
#
# number of rings (size 3 to 8) (size 9 to 14) (size 15 to 20)
#    0.000    1.714    2.857    2.571    0.000    3.714 
#    0.000    0.714    0.000    0.000    0.000   11.000 
#    0.000    0.000    0.000    0.000    0.000    0.000 
#
# Total GULP energy -694183.134590 kJ/mol
# GULP energy per Si atom -12396.127403 kJ/mol
# Density = 1.946107 g / cm^3
# Si number density = 19.505462 Si / 1000 Ang^3
#
#
#
# Elastic Constant Matrix: (Units=GPa)
#
#
# Indices 1 2 3 4 5 6 
#
# 1 47.1425 29.4346 29.0280 0.0000 0.0000 0.0000
# 2 29.4346 134.6076 39.8159 0.0000 0.0000 0.0000
# 3 29.0280 39.8159 123.2172 0.0000 0.0000 0.0000
# 4 0.0000 0.0000 0.0000 -0.9013 0.0000 0.0000
# 5 0.0000 0.0000 0.0000 0.0000 27.3737 0.0000
# 6 0.0000 0.0000 0.0000 0.0000 0.0000 -132.7552
#
#
#
# Elastic Compliance Matrix: (Units=1/GPa)
#
#
# Indices 1 2 3 4 5 6 
#
# 1 0.027027 -0.004452 -0.004928 0.000000 0.000000 0.000000
# 2 -0.004452 0.008948 -0.001842 0.000000 0.000000 0.000000
# 3 -0.004928 -0.001842 0.009872 0.000000 0.000000 0.000000
# 4 0.000000 0.000000 0.000000 -1.109541 0.000000 0.000000
# 5 0.000000 0.000000 0.000000 0.000000 0.036531 0.000000
# 6 0.000000 0.000000 0.000000 0.000000 0.000000 -0.007533
#
#
# Mechanical properties :
#
#
# Convention : Reuss Voigt Hill
#
# Bulk Modulus (GPa) = 42.73413 55.72492 49.22952
# Shear Modulus (GPa) = -4.97785 -7.47731 -6.22758
#
# Velocity S-wave (km/s) = -1.59924 -1.96004 -1.78876
# Velocity P-wave (km/s) = 4.30654 4.84856 4.58557
#
# Compressibility (1/GPa) = 0.02340050
#
# Stress axis : x y z
#
# Youngs Moduli (GPa) = 37.00032 111.76284 101.29501
#
# Poissons Ratio (x) = 0.49758 0.49923
# Poissons Ratio (y) = 0.16473 0.18663
# Poissons Ratio (z) = 0.18235 0.20591
#
# Static dielectric constant tensor:
#      x y z
#    x 3.193980 0.000000 0.000000 
#    y 0.000000 3.925600 0.000000 
#    z 0.000000 0.000000 6.161400 
# 
# 
# High freq. dielectric constant tensor:
#      x y z
#    x 1.714960 0.000000 0.000000 
#    y 0.000000 1.778850 0.000000 
#    z 0.000000 0.000000 1.778270 
# 
# From -- ./inp_files/35131.got.cif
#   From: 2010.06.25/outbox.cif.g09.slc.cpg/sg71_18_cif.got.tgz:35131.got - 2010.06.28 04:59:45.
