data_PCOD8290217
_publ_section_title
;
Structure prediction by ZEFSAII (Michael W. Deem and Ramdas Pophale) SiO2 
 PCOD8290217
Probable space group: I M M M
;
_chemical_formula_sum "Si O2"
_cell_formula_units_Z 120
_cell_length_a 8.789241
_cell_length_b 25.540074
_cell_length_c 27.379098
_cell_angle_alpha 90.000000
_cell_angle_beta 90.000000
_cell_angle_gamma 90.000000
_cell_volume 6146.001480
_symmetry_space_group_name_H-M "I M M M"
_symmetry_group_IT_number 71
_symmetry_cell_setting 'orthorhombic'
loop_
_space_group_symop_operation_xyz
x,y,z
-x,-y,z
x,-y,-z
-x,y,-z
-x,-y,-z
x,y,-z
-x,y,z
x,-y,z
1/2+x,1/2+y,1/2+z
1/2-x,1/2-y,1/2+z
1/2+x,1/2-y,1/2-z
1/2-x,1/2+y,1/2-z
1/2-x,1/2-y,1/2-z
1/2+x,1/2+y,1/2-z
1/2-x,1/2+y,1/2+z
1/2+x,1/2-y,1/2+z
loop_
_atom_site_type_symbol
_atom_site_label
_atom_site_fract_x
_atom_site_fract_y
_atom_site_fract_z
Si Si1 0.324403 0.585171 0.945326
Si Si2 0.820490 0.206163 0.447439
Si Si3 0.317780 0.059137 0.105618
Si Si4 0.834105 0.438106 0.500000
Si Si5 0.681458 0.255236 0.846022
Si Si6 0.678059 0.356437 0.787944
Si Si7 0.172633 0.441861 0.851460
Si Si8 0.819437 0.641928 0.684976
O O1 0.500000 0.576433 0.930990
O O2 0.279704 0.645759 0.941274
O O3 0.216971 0.553940 0.908406
O O4 0.294247 0.564327 0.000000
O O5 0.755022 0.226712 0.500000
O O6 0.751838 0.236762 0.400854
O O7 0.000000 0.213519 0.448247
O O8 0.500000 0.060455 0.103189
O O9 0.255133 0.099192 0.146478
O O10 0.263300 0.000000 0.118662
O O11 0.252396 0.076833 0.051698
O O12 0.855319 0.500000 0.500000
O O13 0.000000 0.410861 0.500000
O O14 0.500000 0.256762 0.847490
O O15 0.738967 0.301160 0.809719
O O16 0.744068 0.199543 0.827937
O O17 0.500000 0.353351 0.777555
O O18 0.711046 0.402455 0.825953
O O19 0.763862 0.372118 0.738684
O O20 0.187991 0.500000 0.828638
O O21 0.000000 0.421536 0.845570
O O22 0.000000 0.641091 0.683866
#
# Coordination Sequence:
#
# PCOD8290217 Si02
#       8
#    16  16  16   8  16  16  16  16
#     4   9  17  32  56  81 107 143 182 219 263 319
#     4   8  13  25  48  76 105 136 169 211 264 314
#     4   8  14  26  45  70 104 140 166 197 245 302
#     4   7  10  20  40  66  99 137 167 189 230 295
#     4   9  17  31  51  76 105 136 172 219 268 317
#     4  11  22  38  57  73  98 138 182 224 269 323
#     4  11  24  39  55  78 107 138 175 224 279 327
#     4  10  20  33  51  79 109 135 173 220 268 314
#
# _framework density 19.524889000000002
#
# number of rings (size 3 to 8) (size 9 to 14) (size 15 to 20)
#    0.000    2.733    1.333    2.800    0.000    2.133 
#    1.200    3.333    0.000    0.000    0.000    0.467 
#    0.000    1.600    0.000    0.000    0.000    0.000 
#
# Total GULP energy -743528.243818 kJ/mol
# GULP energy per Si atom -12392.137397 kJ/mol
# Density = 1.948045 g / cm^3
# Si number density = 19.524889 Si / 1000 Ang^3
#
#
#
# Elastic Constant Matrix: (Units=GPa)
#
#
# Indices 1 2 3 4 5 6 
#
# 1 16.2432 16.2032 11.1085 0.0000 0.0000 0.0000
# 2 16.2032 100.6455 58.6145 0.0000 0.0000 0.0000
# 3 11.1085 58.6145 147.4644 0.0000 0.0000 0.0000
# 4 0.0000 0.0000 0.0000 21.5139 0.0000 0.0000
# 5 0.0000 0.0000 0.0000 0.0000 22.5347 0.0000
# 6 0.0000 0.0000 0.0000 0.0000 0.0000 14.6223
#
#
#
# Elastic Compliance Matrix: (Units=1/GPa)
#
#
# Indices 1 2 3 4 5 6 
#
# 1 0.073476 -0.011198 -0.001084 0.000000 0.000000 0.000000
# 2 -0.011198 0.014635 -0.004974 0.000000 0.000000 0.000000
# 3 -0.001084 -0.004974 0.008840 0.000000 0.000000 0.000000
# 4 0.000000 0.000000 0.000000 0.046482 0.000000 0.000000
# 5 0.000000 0.000000 0.000000 0.000000 0.044376 0.000000
# 6 0.000000 0.000000 0.000000 0.000000 0.000000 0.068389
#
#
# Mechanical properties :
#
#
# Convention : Reuss Voigt Hill
#
# Bulk Modulus (GPa) = 16.01541 48.46727 32.24134
# Shear Modulus (GPa) = 16.05027 23.62931 19.83979
#
# Velocity S-wave (km/s) = 2.87024 3.48259 3.19113
# Velocity P-wave (km/s) = 4.38232 6.40691 5.48877
#
# Compressibility (1/GPa) = 0.06243985
#
# Stress axis : x y z
#
# Youngs Moduli (GPa) = 13.60997 68.32822 113.12306
#
# Poissons Ratio (x) = 0.76512 0.12263
# Poissons Ratio (y) = 0.15240 0.56264
# Poissons Ratio (z) = 0.01475 0.33985
#
# Static dielectric constant tensor:
#      x y z
#    x 2.940680 0.000000 0.000000 
#    y 0.000000 3.556060 0.000000 
#    z 0.000000 0.000000 3.851770 
# 
# 
# High freq. dielectric constant tensor:
#      x y z
#    x 1.698590 0.000000 0.000000 
#    y 0.000000 1.749500 0.000000 
#    z 0.000000 0.000000 1.778480 
# 
# From -- ./inp_files/63755.got.cif
#   From: 2010.06.25/outbox.cif.g09.slc.cpg/sg71_32_cif.got.tgz:63755.got - 2010.06.28 04:59:45.
