data_PCOD8290816
_publ_section_title
;
Structure prediction by ZEFSAII (Michael W. Deem and Ramdas Pophale) SiO2 
 PCOD8290816
Probable space group: I M M M
;
_chemical_formula_sum "Si O2"
_cell_formula_units_Z 72
_cell_length_a 32.752236
_cell_length_b 8.442456
_cell_length_c 13.401236
_cell_angle_alpha 90.000000
_cell_angle_beta 90.000000
_cell_angle_gamma 90.000000
_cell_volume 3705.566537
_symmetry_space_group_name_H-M "I M M M"
_symmetry_group_IT_number 71
_symmetry_cell_setting 'orthorhombic'
loop_
_space_group_symop_operation_xyz
x,y,z
-x,-y,z
x,-y,-z
-x,y,-z
-x,-y,-z
x,y,-z
-x,y,z
x,-y,z
1/2+x,1/2+y,1/2+z
1/2-x,1/2-y,1/2+z
1/2+x,1/2-y,1/2-z
1/2-x,1/2+y,1/2-z
1/2-x,1/2-y,1/2-z
1/2+x,1/2+y,1/2-z
1/2-x,1/2+y,1/2+z
1/2+x,1/2-y,1/2+z
loop_
_atom_site_type_symbol
_atom_site_label
_atom_site_fract_x
_atom_site_fract_y
_atom_site_fract_z
Si Si1 0.293801 0.819804 0.225797
Si Si2 0.500000 0.687960 0.616418
Si Si3 0.082324 0.686892 0.795951
Si Si4 0.867462 0.813733 0.386779
Si Si5 0.156469 0.822739 0.887909
O O1 0.250000 0.750000 0.250000
O O2 0.320518 0.728594 0.142415
O O3 0.318003 0.808069 0.329275
O O4 0.289127 0.000000 0.191227
O O5 0.500000 0.500000 0.618012
O O6 0.500000 0.747538 0.500000
O O7 0.537217 0.753497 0.681816
O O8 0.084668 0.500000 0.808836
O O9 0.099364 0.731177 0.685585
O O10 0.109269 0.774345 0.880075
O O11 0.875337 0.755654 0.500000
O O12 0.873450 0.000000 0.377979
O O13 0.162636 0.000000 0.842914
O O14 0.171792 0.820144 0.000000
#
# Coordination Sequence:
#
# PCOD8290816 Si02
#       5
#    16   8  16  16  16
#     4  11  22  36  55  79 110 144 182 231 279 328
#     4  11  23  39  60  85 116 153 189 228 276 331
#     4  11  22  36  57  85 116 146 181 228 276 329
#     4  10  21  39  62  84 110 148 191 233 279 334
#     4  10  20  35  55  78 107 143 180 219 267 325
#
# _framework density 19.430226999999999
#
# number of rings (size 3 to 8) (size 9 to 14) (size 15 to 20)
#    0.000    1.444    0.000    9.000    0.000    8.000 
#    0.000    0.556    0.000    3.333    0.000    0.000 
#    0.000    0.000    0.000    0.000    0.000    0.000 
#
# Total GULP energy -446220.431478 kJ/mol
# GULP energy per Si atom -12395.011986 kJ/mol
# Density = 1.938600 g / cm^3
# Si number density = 19.430227 Si / 1000 Ang^3
#
#
#
# Elastic Constant Matrix: (Units=GPa)
#
#
# Indices 1 2 3 4 5 6 
#
# 1 112.0675 10.4628 33.8524 0.0000 0.0000 0.0000
# 2 10.4628 91.6100 22.8948 0.0000 0.0000 0.0000
# 3 33.8524 22.8948 116.2477 0.0000 0.0000 0.0000
# 4 0.0000 0.0000 0.0000 21.0353 0.0000 0.0000
# 5 0.0000 0.0000 0.0000 0.0000 16.3208 0.0000
# 6 0.0000 0.0000 0.0000 0.0000 0.0000 35.6769
#
#
#
# Elastic Compliance Matrix: (Units=1/GPa)
#
#
# Indices 1 2 3 4 5 6 
#
# 1 0.009800 -0.000427 -0.002770 0.000000 0.000000 0.000000
# 2 -0.000427 0.011500 -0.002140 0.000000 0.000000 0.000000
# 3 -0.002770 -0.002140 0.009830 0.000000 0.000000 0.000000
# 4 0.000000 0.000000 0.000000 0.047539 0.000000 0.000000
# 5 0.000000 0.000000 0.000000 0.000000 0.061271 0.000000
# 6 0.000000 0.000000 0.000000 0.000000 0.000000 0.028029
#
#
# Mechanical properties :
#
#
# Convention : Reuss Voigt Hill
#
# Bulk Modulus (GPa) = 48.88695 50.48279 49.68487
# Shear Modulus (GPa) = 26.95967 31.45430 29.20698
#
# Velocity S-wave (km/s) = 3.72897 4.02784 3.88128
# Velocity P-wave (km/s) = 6.61477 6.90429 6.76108
#
# Compressibility (1/GPa) = 0.02045536
#
# Stress axis : x y z
#
# Youngs Moduli (GPa) = 102.04395 86.95997 101.72496
#
# Poissons Ratio (x) = 0.03714 0.28174
# Poissons Ratio (y) = 0.04358 0.21774
# Poissons Ratio (z) = 0.28263 0.18613
#
# Static dielectric constant tensor:
#      x y z
#    x 3.858410 0.000000 0.000000 
#    y 0.000000 3.679930 0.000000 
#    z 0.000000 0.000000 3.714230 
# 
# 
# High freq. dielectric constant tensor:
#      x y z
#    x 1.754440 0.000000 0.000000 
#    y 0.000000 1.772190 0.000000 
#    z 0.000000 0.000000 1.753670 
# 
# From -- ./inp_files/40692.got.cif
#   From: 2010.06.25/outbox.cif.g09.slc.cpg/sg71_21_cif.got.tgz:40692.got - 2010.06.28 04:59:45.
