data_PCOD8290706
_publ_section_title
;
Structure prediction by ZEFSAII (Michael W. Deem and Ramdas Pophale) SiO2 
 PCOD8290706
Probable space group: I M M M
;
_chemical_formula_sum "Si O2"
_cell_formula_units_Z 128
_cell_length_a 23.982269
_cell_length_b 22.068262
_cell_length_c 12.796644
_cell_angle_alpha 90.000000
_cell_angle_beta 90.000000
_cell_angle_gamma 90.000000
_cell_volume 6772.585391
_symmetry_space_group_name_H-M "I M M M"
_symmetry_group_IT_number 71
_symmetry_cell_setting 'orthorhombic'
loop_
_space_group_symop_operation_xyz
x,y,z
-x,-y,z
x,-y,-z
-x,y,-z
-x,-y,-z
x,y,-z
-x,y,z
x,-y,z
1/2+x,1/2+y,1/2+z
1/2-x,1/2-y,1/2+z
1/2+x,1/2-y,1/2-z
1/2-x,1/2+y,1/2-z
1/2-x,1/2-y,1/2-z
1/2+x,1/2+y,1/2-z
1/2-x,1/2+y,1/2+z
1/2+x,1/2-y,1/2+z
loop_
_atom_site_type_symbol
_atom_site_label
_atom_site_fract_x
_atom_site_fract_y
_atom_site_fract_z
Si Si1 0.839085 0.141118 0.877843
Si Si2 0.165975 0.746868 0.266941
Si Si3 0.560403 0.433139 0.376359
Si Si4 0.435214 0.184637 0.882240
Si Si5 0.438635 0.071524 0.612622
Si Si6 0.622090 0.930516 0.813697
Si Si7 0.255357 0.176841 0.622981
Si Si8 0.751871 0.570062 0.734319
O O1 0.837922 0.205702 0.825803
O O2 0.893434 0.109884 0.827800
O O3 0.787377 0.097529 0.854909
O O4 0.842930 0.152548 0.000000
O O5 0.105772 0.725920 0.310838
O O6 0.203741 0.776308 0.359521
O O7 0.196067 0.691511 0.207569
O O8 0.568154 0.437390 0.500000
O O9 0.500000 0.406137 0.347374
O O10 0.566917 0.500000 0.327943
O O11 0.500000 0.186196 0.841869
O O12 0.411261 0.115657 0.888059
O O13 0.433398 0.210068 0.000000
O O14 0.420779 0.098766 0.500000
O O15 0.500000 0.096215 0.644048
O O16 0.393514 0.091296 0.696646
O O17 0.441124 0.000000 0.604176
O O18 0.688060 0.924491 0.820877
O O19 0.602979 0.000000 0.837570
O O20 0.271983 0.179050 0.500000
O O21 0.241744 0.107495 0.657464
O O22 0.738127 0.500000 0.759353
#
# Coordination Sequence:
#
# PCOD8290706 Si02
#       8
#    16  16  16  16  16  16  16  16
#     4  10  20  34  56  84 116 150 186 231 287 344
#     4  10  21  39  57  84 109 143 191 241 285 343
#     4   8  14  26  46  74 108 144 177 210 262 338
#     4  11  24  41  60  81 110 149 191 241 296 342
#     4   8  14  26  46  70  95 128 171 219 272 328
#     4  10  20  36  54  77 110 148 193 241 286 336
#     4  10  20  37  61  82 108 146 188 238 293 344
#     4  10  21  35  53  84 119 152 190 234 285 341
#
# _framework density 18.899725
#
# number of rings (size 3 to 8) (size 9 to 14) (size 15 to 20)
#    0.000    2.375    1.250    2.250    0.000    3.500 
#    0.000    3.125    0.000    1.875    0.000    0.000 
#    0.000    0.000    0.000   23.250    0.000    0.750 
#
# Total GULP energy -792940.919608 kJ/mol
# GULP energy per Si atom -12389.701869 kJ/mol
# Density = 1.885671 g / cm^3
# Si number density = 18.899725 Si / 1000 Ang^3
#
#
#
# Elastic Constant Matrix: (Units=GPa)
#
#
# Indices 1 2 3 4 5 6 
#
# 1 120.1628 38.4698 32.4382 0.0000 0.0000 0.0000
# 2 38.4698 91.6092 26.1729 0.0000 0.0000 0.0000
# 3 32.4382 26.1729 78.2037 0.0000 0.0000 0.0000
# 4 0.0000 0.0000 0.0000 7.3568 0.0000 0.0000
# 5 0.0000 0.0000 0.0000 0.0000 24.8390 0.0000
# 6 0.0000 0.0000 0.0000 0.0000 0.0000 21.6224
#
#
#
# Elastic Compliance Matrix: (Units=1/GPa)
#
#
# Indices 1 2 3 4 5 6 
#
# 1 0.010256 -0.003418 -0.003110 0.000000 0.000000 0.000000
# 2 -0.003418 0.013209 -0.003003 0.000000 0.000000 0.000000
# 3 -0.003110 -0.003003 0.015082 0.000000 0.000000 0.000000
# 4 0.000000 0.000000 0.000000 0.135928 0.000000 0.000000
# 5 0.000000 0.000000 0.000000 0.000000 0.040259 0.000000
# 6 0.000000 0.000000 0.000000 0.000000 0.000000 0.046248
#
#
# Mechanical properties :
#
#
# Convention : Reuss Voigt Hill
#
# Bulk Modulus (GPa) = 51.32197 53.79306 52.55752
# Shear Modulus (GPa) = 17.44954 23.62330 20.53642
#
# Velocity S-wave (km/s) = 3.04183 3.53927 3.29994
# Velocity P-wave (km/s) = 6.28894 6.72503 6.51064
#
# Compressibility (1/GPa) = 0.01948483
#
# Stress axis : x y z
#
# Youngs Moduli (GPa) = 97.50425 75.70399 66.30349
#
# Poissons Ratio (x) = 0.25878 0.20621
# Poissons Ratio (y) = 0.33330 0.19911
# Poissons Ratio (z) = 0.30324 0.22734
#
# Static dielectric constant tensor:
#      x y z
#    x 3.654870 0.000000 0.000000 
#    y 0.000000 3.520630 0.000000 
#    z 0.000000 0.000000 3.356790 
# 
# 
# High freq. dielectric constant tensor:
#      x y z
#    x 1.738790 0.000000 0.000000 
#    y 0.000000 1.729050 0.000000 
#    z 0.000000 0.000000 1.710050 
# 
# From -- ./inp_files/27895.got.cif
#   From: 2010.06.25/outbox.cif.g09.slc.cpg/sg71_14_cif.got.tgz:27895.got - 2010.06.28 04:59:45.
