data_PCOD8290063
_publ_section_title
;
Structure prediction by ZEFSAII (Michael W. Deem and Ramdas Pophale) SiO2 
 PCOD8290063
Probable space group: I M M M
;
_chemical_formula_sum "Si O2"
_cell_formula_units_Z 72
_cell_length_a 27.680029
_cell_length_b 18.996473
_cell_length_c 8.488426
_cell_angle_alpha 90.000000
_cell_angle_beta 90.000000
_cell_angle_gamma 90.000000
_cell_volume 4463.408976
_symmetry_space_group_name_H-M "I M M M"
_symmetry_group_IT_number 71
_symmetry_cell_setting 'orthorhombic'
loop_
_space_group_symop_operation_xyz
x,y,z
-x,-y,z
x,-y,-z
-x,y,-z
-x,-y,-z
x,y,-z
-x,y,z
x,-y,z
1/2+x,1/2+y,1/2+z
1/2-x,1/2-y,1/2+z
1/2+x,1/2-y,1/2-z
1/2-x,1/2+y,1/2-z
1/2-x,1/2-y,1/2-z
1/2+x,1/2+y,1/2-z
1/2-x,1/2+y,1/2+z
1/2+x,1/2-y,1/2+z
loop_
_atom_site_type_symbol
_atom_site_label
_atom_site_fract_x
_atom_site_fract_y
_atom_site_fract_z
Si Si1 0.677452 0.771812 0.184752
Si Si2 0.228135 0.142192 0.816634
Si Si3 0.500000 0.919174 0.186223
Si Si4 0.598842 0.866484 0.685224
Si Si5 0.753132 0.000000 0.681564
Si Si6 0.849076 0.500000 0.316449
O O1 0.718899 0.828253 0.231090
O O2 0.687264 0.698544 0.272479
O O3 0.625033 0.798766 0.239417
O O4 0.677816 0.757912 0.000000
O O5 0.216910 0.070764 0.719858
O O6 0.225379 0.125161 0.000000
O O7 0.454364 0.875509 0.245900
O O8 0.500000 0.000000 0.251703
O O9 0.500000 0.921499 0.000000
O O10 0.595731 0.856570 0.500000
O O11 0.630337 0.933224 0.728899
O O12 0.736969 0.000000 0.500000
O O13 0.708151 0.000000 0.800945
O O14 0.864216 0.500000 0.500000
#
# Coordination Sequence:
#
# PCOD8290063 Si02
#       6
#    16  16   8  16   8   8
#     4  10  20  34  51  70  98 131 166 204 249 297
#     4  10  20  33  50  71  99 130 166 206 247 293
#     4  11  23  37  53  71  98 131 168 211 254 292
#     4  12  23  35  52  72  97 129 169 211 252 296
#     4  12  22  32  49  73 100 131 169 208 249 295
#     4  12  22  33  47  68  96 132 170 207 250 293
#
# _framework density 16.131167999999999
#
# number of rings (size 3 to 8) (size 9 to 14) (size 15 to 20)
#    0.000    1.000    3.333    5.667    0.000    2.222 
#    0.000    0.000    0.000    0.000    0.000    0.000 
#    0.000    0.889    0.000    8.889    0.000    5.333 
#
# Total GULP energy -446528.641327 kJ/mol
# GULP energy per Si atom -12403.573370 kJ/mol
# Density = 1.609445 g / cm^3
# Si number density = 16.131168 Si / 1000 Ang^3
#
#
#
# Elastic Constant Matrix: (Units=GPa)
#
#
# Indices 1 2 3 4 5 6 
#
# 1 85.8650 43.4723 15.3786 0.0000 0.0000 0.0000
# 2 43.4723 104.6469 29.1969 0.0000 0.0000 0.0000
# 3 15.3786 29.1969 70.8517 0.0000 0.0000 0.0000
# 4 0.0000 0.0000 0.0000 27.4590 0.0000 0.0000
# 5 0.0000 0.0000 0.0000 0.0000 25.5719 0.0000
# 6 0.0000 0.0000 0.0000 0.0000 0.0000 4.0587
#
#
#
# Elastic Compliance Matrix: (Units=1/GPa)
#
#
# Indices 1 2 3 4 5 6 
#
# 1 0.014785 -0.005928 -0.000766 0.000000 0.000000 0.000000
# 2 -0.005928 0.013174 -0.004142 0.000000 0.000000 0.000000
# 3 -0.000766 -0.004142 0.015987 0.000000 0.000000 0.000000
# 4 0.000000 0.000000 0.000000 0.036418 0.000000 0.000000
# 5 0.000000 0.000000 0.000000 0.000000 0.039105 0.000000
# 6 0.000000 0.000000 0.000000 0.000000 0.000000 0.246386
#
#
# Mechanical properties :
#
#
# Convention : Reuss Voigt Hill
#
# Bulk Modulus (GPa) = 44.89689 48.60656 46.75172
# Shear Modulus (GPa) = 12.65972 22.97228 17.81600
#
# Velocity S-wave (km/s) = 2.80446 3.77781 3.32693
# Velocity P-wave (km/s) = 6.19512 7.01617 6.61839
#
# Compressibility (1/GPa) = 0.02227326
#
# Stress axis : x y z
#
# Youngs Moduli (GPa) = 67.63739 75.90551 62.54988
#
# Poissons Ratio (x) = 0.44997 0.04793
# Poissons Ratio (y) = 0.40096 0.25909
# Poissons Ratio (z) = 0.05182 0.31442
#
# Static dielectric constant tensor:
#      x y z
#    x 2.926170 0.000000 0.000000 
#    y 0.000000 3.078590 0.000000 
#    z 0.000000 0.000000 3.131050 
# 
# 
# High freq. dielectric constant tensor:
#      x y z
#    x 1.585610 0.000000 0.000000 
#    y 0.000000 1.609860 0.000000 
#    z 0.000000 0.000000 1.641560 
# 
# From -- ./inp_files/6132.got.cif
#   From: 2010.06.25/outbox.cif.g09.slc.cpg/sg71_4_cif.got.tgz:6132.got - 2010.06.28 04:59:45.
