data_PCOD8290881
_publ_section_title
;
Structure prediction by ZEFSAII (Michael W. Deem and Ramdas Pophale) SiO2 
 PCOD8290881
Probable space group: I M M M
;
_chemical_formula_sum "Si O2"
_cell_formula_units_Z 72
_cell_length_a 8.882909
_cell_length_b 15.456619
_cell_length_c 26.563155
_cell_angle_alpha 90.000000
_cell_angle_beta 90.000000
_cell_angle_gamma 90.000000
_cell_volume 3647.114276
_symmetry_space_group_name_H-M "I M M M"
_symmetry_group_IT_number 71
_symmetry_cell_setting 'orthorhombic'
loop_
_space_group_symop_operation_xyz
x,y,z
-x,-y,z
x,-y,-z
-x,y,-z
-x,-y,-z
x,y,-z
-x,y,z
x,-y,z
1/2+x,1/2+y,1/2+z
1/2-x,1/2-y,1/2+z
1/2+x,1/2-y,1/2-z
1/2-x,1/2+y,1/2-z
1/2-x,1/2-y,1/2-z
1/2+x,1/2+y,1/2-z
1/2-x,1/2+y,1/2+z
1/2+x,1/2-y,1/2+z
loop_
_atom_site_type_symbol
_atom_site_label
_atom_site_fract_x
_atom_site_fract_y
_atom_site_fract_z
Si Si1 0.321861 0.500000 0.057631
Si Si2 0.326636 0.833896 0.941796
Si Si3 0.822749 0.325065 0.781855
Si Si4 0.820909 0.500000 0.732025
Si Si5 0.322963 0.830628 0.602846
Si Si6 0.820985 0.500000 0.381753
O O1 0.500000 0.500000 0.061723
O O2 0.259250 0.583994 0.084705
O O3 0.267919 0.500000 0.000000
O O4 0.500000 0.814034 0.927814
O O5 0.228013 0.749896 0.930619
O O6 0.261540 0.914126 0.909703
O O7 0.310758 0.858803 0.000000
O O8 0.750000 0.250000 0.750000
O O9 0.759723 0.416299 0.761390
O O10 0.776004 0.313425 0.839650
O O11 0.000000 0.320317 0.774488
O O12 0.758183 0.500000 0.675043
O O13 0.000000 0.500000 0.731137
O O14 0.500000 0.844873 0.597074
O O15 0.000000 0.500000 0.383843
#
# Coordination Sequence:
#
# PCOD8290881 Si02
#       6
#     8  16  16   8  16   8
#     4  11  24  41  61  85 112 147 194 241 283 337
#     4  10  20  35  56  82 111 144 186 233 278 331
#     4  10  21  37  57  82 112 146 184 226 273 328
#     4   9  17  32  54  77 104 139 176 216 267 323
#     4  11  23  38  57  83 116 151 186 230 286 341
#     4   9  17  31  55  83 108 139 180 227 276 323
#
# _framework density 19.741634999999999
#
# number of rings (size 3 to 8) (size 9 to 14) (size 15 to 20)
#    0.000    1.889    0.000    4.000    0.000   10.667 
#    0.000    1.111    0.000    5.333    0.000    0.000 
#    0.000    0.000    0.000    0.000    0.000    0.000 
#
# Total GULP energy -446557.356928 kJ/mol
# GULP energy per Si atom -12404.371026 kJ/mol
# Density = 1.969670 g / cm^3
# Si number density = 19.741635 Si / 1000 Ang^3
#
#
#
# Elastic Constant Matrix: (Units=GPa)
#
#
# Indices 1 2 3 4 5 6 
#
# 1 41.1601 25.3558 31.9138 0.0000 0.0000 0.0000
# 2 25.3558 126.6202 23.5930 0.0000 0.0000 0.0000
# 3 31.9138 23.5930 93.4077 0.0000 0.0000 0.0000
# 4 0.0000 0.0000 0.0000 46.1111 0.0000 0.0000
# 5 0.0000 0.0000 0.0000 0.0000 26.7842 0.0000
# 6 0.0000 0.0000 0.0000 0.0000 0.0000 97.9774
#
#
#
# Elastic Compliance Matrix: (Units=1/GPa)
#
#
# Indices 1 2 3 4 5 6 
#
# 1 0.036000 -0.005160 -0.010997 0.000000 0.000000 0.000000
# 2 -0.005160 0.009027 -0.000517 0.000000 0.000000 0.000000
# 3 -0.010997 -0.000517 0.014593 0.000000 0.000000 0.000000
# 4 0.000000 0.000000 0.000000 0.021687 0.000000 0.000000
# 5 0.000000 0.000000 0.000000 0.000000 0.037335 0.000000
# 6 0.000000 0.000000 0.000000 0.000000 0.000000 0.010206
#
#
# Mechanical properties :
#
#
# Convention : Reuss Voigt Hill
#
# Bulk Modulus (GPa) = 38.06110 46.99036 42.52573
# Shear Modulus (GPa) = 29.24738 46.19623 37.72181
#
# Velocity S-wave (km/s) = 3.85321 4.84264 4.37598
# Velocity P-wave (km/s) = 6.25442 7.42446 6.86442
#
# Compressibility (1/GPa) = 0.02627355
#
# Stress axis : x y z
#
# Youngs Moduli (GPa) = 27.77740 110.77492 68.52374
#
# Poissons Ratio (x) = 0.57162 0.75353
# Poissons Ratio (y) = 0.14334 0.03543
# Poissons Ratio (z) = 0.30546 0.05728
#
# Static dielectric constant tensor:
#      x y z
#    x 3.323620 0.000000 0.000000 
#    y 0.000000 3.927670 0.000000 
#    z 0.000000 0.000000 3.488620 
# 
# 
# High freq. dielectric constant tensor:
#      x y z
#    x 1.740760 0.000000 0.000000 
#    y 0.000000 1.787440 0.000000 
#    z 0.000000 0.000000 1.788590 
# 
# From -- ./inp_files/6121.got.cif
#   From: 2010.06.25/outbox.cif.g09.slc.cpg/sg71_4_cif.got.tgz:6121.got - 2010.06.28 04:59:45.
