data_PCOD8290697
_publ_section_title
;
Structure prediction by ZEFSAII (Michael W. Deem and Ramdas Pophale) SiO2 
 PCOD8290697
Probable space group: I M M M
;
_chemical_formula_sum "Si O2"
_cell_formula_units_Z 64
_cell_length_a 10.928438
_cell_length_b 32.991656
_cell_length_c 9.015030
_cell_angle_alpha 90.000000
_cell_angle_beta 90.000000
_cell_angle_gamma 90.000000
_cell_volume 3250.344429
_symmetry_space_group_name_H-M "I M M M"
_symmetry_group_IT_number 71
_symmetry_cell_setting 'orthorhombic'
loop_
_space_group_symop_operation_xyz
x,y,z
-x,-y,z
x,-y,-z
-x,y,-z
-x,-y,-z
x,y,-z
-x,y,z
x,-y,z
1/2+x,1/2+y,1/2+z
1/2-x,1/2-y,1/2+z
1/2+x,1/2-y,1/2-z
1/2-x,1/2+y,1/2-z
1/2-x,1/2-y,1/2-z
1/2+x,1/2+y,1/2-z
1/2-x,1/2+y,1/2+z
1/2+x,1/2-y,1/2+z
loop_
_atom_site_type_symbol
_atom_site_label
_atom_site_fract_x
_atom_site_fract_y
_atom_site_fract_z
Si Si1 0.869292 0.000000 0.324424
Si Si2 0.223197 0.423088 0.829936
Si Si3 0.000000 0.545643 0.673229
Si Si4 0.748237 0.331658 0.171634
Si Si5 0.000000 0.209710 0.673545
Si Si6 0.500000 0.804032 0.824745
O O1 0.808898 0.958685 0.269258
O O2 0.878290 0.000000 0.500000
O O3 0.000000 0.000000 0.247585
O O4 0.108778 0.425976 0.724004
O O5 0.284140 0.379160 0.812406
O O6 0.184117 0.430907 0.000000
O O7 0.000000 0.500000 0.745138
O O8 0.000000 0.540580 0.500000
O O9 0.627615 0.308981 0.238417
O O10 0.874643 0.322111 0.257117
O O11 0.769327 0.319547 0.000000
O O12 0.000000 0.200294 0.500000
O O13 0.000000 0.256681 0.712618
O O14 0.500000 0.812417 0.000000
#
# Coordination Sequence:
#
# PCOD8290697 Si02
#       6
#     8  16   8  16   8   8
#     4   9  18  31  51  80 108 135 172 219 268 319
#     4  10  20  34  56  82 109 139 176 224 273 318
#     4  11  22  35  52  74 105 145 185 222 263 312
#     4  10  21  37  59  86 114 146 185 232 281 332
#     4   9  20  38  60  86 115 145 183 231 284 338
#     4  11  22  38  59  83 114 152 187 227 279 335
#
# _framework density 19.69022
#
# number of rings (size 3 to 8) (size 9 to 14) (size 15 to 20)
#    0.000    2.000    1.250    2.250    1.750    4.500 
#    0.000    1.875    0.000    1.500    0.000    0.000 
#    0.000    0.000    0.000    0.000    0.000    0.000 
#
# Total GULP energy -396555.415942 kJ/mol
# GULP energy per Si atom -12392.356748 kJ/mol
# Density = 1.964540 g / cm^3
# Si number density = 19.690220 Si / 1000 Ang^3
#
#
#
# Elastic Constant Matrix: (Units=GPa)
#
#
# Indices 1 2 3 4 5 6 
#
# 1 166.4502 61.8543 37.5317 -0.0013 -0.0088 -0.0014
# 2 61.8543 132.0690 30.5680 -0.0110 -0.0157 0.0014
# 3 37.5317 30.5680 52.7373 0.0136 0.0440 0.0061
# 4 -0.0013 -0.0110 0.0136 23.7065 0.0090 0.0052
# 5 -0.0088 -0.0157 0.0440 0.0090 204.6762 0.0017
# 6 -0.0014 0.0014 0.0061 0.0052 0.0017 30.8093
#
#
#
# Elastic Compliance Matrix: (Units=1/GPa)
#
#
# Indices 1 2 3 4 5 6 
#
# 1 0.007957 -0.002790 -0.004045 0.000001 0.000001 0.000001
# 2 -0.002790 0.009723 -0.003650 0.000006 0.000001 0.000000
# 3 -0.004045 -0.003650 0.023957 -0.000016 -0.000006 -0.000005
# 4 0.000001 0.000006 -0.000016 0.042183 -0.000002 -0.000007
# 5 0.000001 0.000001 -0.000006 -0.000002 0.004886 0.000000
# 6 0.000001 0.000000 -0.000005 -0.000007 0.000000 0.032458
#
#
# Mechanical properties :
#
#
# Convention : Reuss Voigt Hill
#
# Bulk Modulus (GPa) = 48.39039 67.90717 58.14878
# Shear Modulus (GPa) = 33.55179 66.59188 50.07184
#
# Velocity S-wave (km/s) = 4.13241 5.82179 5.04827
# Velocity P-wave (km/s) = 6.88464 8.93048 7.97345
#
# Compressibility (1/GPa) = 0.02066526
#
# Stress axis : x y z
#
# Youngs Moduli (GPa) = 125.67790 102.84379 41.74200
#
# Poissons Ratio (x) = 0.28696 0.16886
# Poissons Ratio (y) = 0.35067 0.15237
# Poissons Ratio (z) = 0.50841 0.37541
#
# Static dielectric constant tensor:
#      x y z
#    x 3.266230 0.000000 0.000000 
#    y 0.000000 3.893040 -0.000030 
#    z 0.000000 -0.000030 3.259440 
# 
# 
# High freq. dielectric constant tensor:
#      x y z
#    x 1.775640 0.000000 0.000000 
#    y 0.000000 1.785790 0.000000 
#    z 0.000000 0.000000 1.729700 
# 
# From -- ./inp_files/3829.got.cif
#   From: 2010.06.25/outbox.cif.g09.slc.cpg/sg71_2_cif.got.tgz:3829.got - 2010.06.28 04:59:45.
