data_PCOD8290471
_publ_section_title
;
Structure prediction by ZEFSAII (Michael W. Deem and Ramdas Pophale) SiO2 
 PCOD8290471
Probable space group: I M M M
;
_chemical_formula_sum "Si O2"
_cell_formula_units_Z 72
_cell_length_a 33.631174
_cell_length_b 13.741687
_cell_length_c 7.808587
_cell_angle_alpha 90.000000
_cell_angle_beta 90.000000
_cell_angle_gamma 90.000000
_cell_volume 3608.731193
_symmetry_space_group_name_H-M "I M M M"
_symmetry_group_IT_number 71
_symmetry_cell_setting 'orthorhombic'
loop_
_space_group_symop_operation_xyz
x,y,z
-x,-y,z
x,-y,-z
-x,y,-z
-x,-y,-z
x,y,-z
-x,y,z
x,-y,z
1/2+x,1/2+y,1/2+z
1/2-x,1/2-y,1/2+z
1/2+x,1/2-y,1/2-z
1/2-x,1/2+y,1/2-z
1/2-x,1/2-y,1/2-z
1/2+x,1/2+y,1/2-z
1/2-x,1/2+y,1/2+z
1/2+x,1/2-y,1/2+z
loop_
_atom_site_type_symbol
_atom_site_label
_atom_site_fract_x
_atom_site_fract_y
_atom_site_fract_z
Si Si1 0.766966 0.108000 0.297099
Si Si2 0.547141 0.391902 0.000000
Si Si3 0.545815 0.257322 0.307026
Si Si4 0.311148 0.206450 0.802053
Si Si5 0.109310 0.389084 0.296004
O O1 0.764555 0.117370 0.500000
O O2 0.723091 0.126570 0.224007
O O3 0.797526 0.189118 0.222037
O O4 0.780863 0.000000 0.240319
O O5 0.561978 0.336947 0.171313
O O6 0.565976 0.500000 0.000000
O O7 0.500000 0.399388 0.000000
O O8 0.550839 0.298544 0.500000
O O9 0.500000 0.232187 0.268130
O O10 0.570101 0.158072 0.284931
O O11 0.352130 0.167699 0.720122
O O12 0.319383 0.221786 0.000000
O O13 0.107360 0.383390 0.500000
O O14 0.111440 0.500000 0.233242
#
# Coordination Sequence:
#
# PCOD8290471 Si02
#       5
#    16   8  16  16  16
#     4   9  17  30  49  73 102 137 176 219 272 329
#     4   9  18  36  61  85 111 145 184 226 277 333
#     4  10  21  37  58  85 116 148 187 235 282 334
#     4   9  18  32  50  73 104 138 178 226 272 326
#     4  10  20  34  53  76 108 148 189 234 284 339
#
# _framework density 19.951611
#
# number of rings (size 3 to 8) (size 9 to 14) (size 15 to 20)
#    0.000    2.556    1.111    0.667    0.000    3.556 
#    0.000    5.556    0.000    0.000    0.000    0.000 
#    0.000    0.000    0.000    0.000    0.000    0.000 
#
# Total GULP energy -446279.130056 kJ/mol
# GULP energy per Si atom -12396.642502 kJ/mol
# Density = 1.990620 g / cm^3
# Si number density = 19.951611 Si / 1000 Ang^3
#
#
#
# Elastic Constant Matrix: (Units=GPa)
#
#
# Indices 1 2 3 4 5 6 
#
# 1 101.3562 71.2238 28.4694 0.0000 0.0000 0.0000
# 2 71.2238 166.6361 41.1360 0.0000 0.0000 0.0000
# 3 28.4694 41.1360 65.9768 0.0000 0.0000 0.0000
# 4 0.0000 0.0000 0.0000 15.7894 0.0000 0.0000
# 5 0.0000 0.0000 0.0000 0.0000 20.9997 0.0000
# 6 0.0000 0.0000 0.0000 0.0000 0.0000 28.0736
#
#
#
# Elastic Compliance Matrix: (Units=1/GPa)
#
#
# Indices 1 2 3 4 5 6 
#
# 1 0.014537 -0.005514 -0.002835 0.000000 0.000000 0.000000
# 2 -0.005514 0.009184 -0.003347 0.000000 0.000000 0.000000
# 3 -0.002835 -0.003347 0.018467 0.000000 0.000000 0.000000
# 4 0.000000 0.000000 0.000000 0.063334 0.000000 0.000000
# 5 0.000000 0.000000 0.000000 0.000000 0.047620 0.000000
# 6 0.000000 0.000000 0.000000 0.000000 0.000000 0.035621
#
#
# Mechanical properties :
#
#
# Convention : Reuss Voigt Hill
#
# Bulk Modulus (GPa) = 53.20109 68.40307 60.80208
# Shear Modulus (GPa) = 22.89181 25.84854 24.37017
#
# Velocity S-wave (km/s) = 3.39095 3.60330 3.49874
# Velocity P-wave (km/s) = 6.48493 7.18822 6.84562
#
# Compressibility (1/GPa) = 0.01879661
#
# Stress axis : x y z
#
# Youngs Moduli (GPa) = 68.79032 108.88577 54.15049
#
# Poissons Ratio (x) = 0.60034 0.15352
# Poissons Ratio (y) = 0.37928 0.18124
# Poissons Ratio (z) = 0.19503 0.36444
#
# Static dielectric constant tensor:
#      x y z
#    x 3.590250 0.000000 0.000000 
#    y 0.000000 3.910790 0.000000 
#    z 0.000000 0.000000 3.533480 
# 
# 
# High freq. dielectric constant tensor:
#      x y z
#    x 1.760780 0.000000 0.000000 
#    y 0.000000 1.777840 0.000000 
#    z 0.000000 0.000000 1.769250 
# 
# From -- ./inp_files/6432.got.cif
#   From: 2010.06.25/outbox.cif.g09.slc.cpg/sg71_4_cif.got.tgz:6432.got - 2010.06.28 04:59:45.
