data_PCOD8290829
_publ_section_title
;
Structure prediction by ZEFSAII (Michael W. Deem and Ramdas Pophale) SiO2 
 PCOD8290829
Probable space group: I M M M
;
_chemical_formula_sum "Si O2"
_cell_formula_units_Z 88
_cell_length_a 8.646502
_cell_length_b 22.505723
_cell_length_c 24.217676
_cell_angle_alpha 90.000000
_cell_angle_beta 90.000000
_cell_angle_gamma 90.000000
_cell_volume 4712.657525
_symmetry_space_group_name_H-M "I M M M"
_symmetry_group_IT_number 71
_symmetry_cell_setting 'orthorhombic'
loop_
_space_group_symop_operation_xyz
x,y,z
-x,-y,z
x,-y,-z
-x,y,-z
-x,-y,-z
x,y,-z
-x,y,z
x,-y,z
1/2+x,1/2+y,1/2+z
1/2-x,1/2-y,1/2+z
1/2+x,1/2-y,1/2-z
1/2-x,1/2+y,1/2-z
1/2-x,1/2-y,1/2-z
1/2+x,1/2+y,1/2-z
1/2-x,1/2+y,1/2+z
1/2+x,1/2-y,1/2+z
loop_
_atom_site_type_symbol
_atom_site_label
_atom_site_fract_x
_atom_site_fract_y
_atom_site_fract_z
Si Si1 0.680457 0.568201 0.739395
Si Si2 0.816168 0.500000 0.438333
Si Si3 0.820399 0.216696 0.063808
Si Si4 0.318414 0.887957 0.130737
Si Si5 0.178596 0.159461 0.436933
Si Si6 0.179499 0.430982 0.145425
O O1 0.500000 0.576169 0.750614
O O2 0.723154 0.500000 0.725162
O O3 0.732830 0.609948 0.689333
O O4 0.771131 0.589744 0.793589
O O5 0.746078 0.500000 0.500000
O O6 0.755077 0.558398 0.407161
O O7 0.000000 0.500000 0.440918
O O8 0.718509 0.173654 0.101234
O O9 0.779921 0.283826 0.080826
O O10 0.000000 0.204725 0.074896
O O11 0.776169 0.205602 0.000000
O O12 0.500000 0.893935 0.140980
O O13 0.214005 0.141726 0.500000
O O14 0.222698 0.103714 0.399834
O O15 0.000000 0.175896 0.428531
O O16 0.219012 0.500000 0.137468
O O17 0.000000 0.417394 0.136824
#
# Coordination Sequence:
#
# PCOD8290829 Si02
#       6
#    16   8  16  16  16  16
#     4  10  20  35  55  79 111 148 187 230 278 329
#     4   9  18  30  47  75 109 143 182 231 278 321
#     4  10  21  37  56  79 110 148 188 230 278 331
#     4  11  20  33  54  79 110 147 190 233 278 330
#     4  10  21  38  60  85 113 146 183 223 272 330
#     4  10  21  37  59  86 115 146 182 223 272 329
#
# _framework density 18.673116
#
# number of rings (size 3 to 8) (size 9 to 14) (size 15 to 20)
#    0.000    1.909    0.909    3.273    0.000    5.091 
#    0.000    2.727    0.000    2.182    0.000    0.000 
#    0.000    0.000    0.000    0.000    0.000    0.000 
#
# Total GULP energy -545854.609020 kJ/mol
# GULP energy per Si atom -12405.786569 kJ/mol
# Density = 1.863062 g / cm^3
# Si number density = 18.673116 Si / 1000 Ang^3
#
#
#
# Elastic Constant Matrix: (Units=GPa)
#
#
# Indices 1 2 3 4 5 6 
#
# 1 47.1293 16.6884 20.0188 0.0000 0.0000 0.0000
# 2 16.6884 76.8151 54.8383 0.0000 0.0000 0.0000
# 3 20.0188 54.8383 105.6607 0.0000 0.0000 0.0000
# 4 0.0000 0.0000 0.0000 27.2284 0.0000 0.0000
# 5 0.0000 0.0000 0.0000 0.0000 33.0202 0.0000
# 6 0.0000 0.0000 0.0000 0.0000 0.0000 31.4435
#
#
#
# Elastic Compliance Matrix: (Units=1/GPa)
#
#
# Indices 1 2 3 4 5 6 
#
# 1 0.023521 -0.003064 -0.002866 0.000000 0.000000 0.000000
# 2 -0.003064 0.021080 -0.010360 0.000000 0.000000 0.000000
# 3 -0.002866 -0.010360 0.015384 0.000000 0.000000 0.000000
# 4 0.000000 0.000000 0.000000 0.036726 0.000000 0.000000
# 5 0.000000 0.000000 0.000000 0.000000 0.030284 0.000000
# 6 0.000000 0.000000 0.000000 0.000000 0.000000 0.031803
#
#
# Mechanical properties :
#
#
# Convention : Reuss Voigt Hill
#
# Bulk Modulus (GPa) = 36.49019 45.85513 41.17266
# Shear Modulus (GPa) = 24.93596 27.54240 26.23918
#
# Velocity S-wave (km/s) = 3.65827 3.84471 3.75265
# Velocity P-wave (km/s) = 6.11783 6.65726 6.39324
#
# Compressibility (1/GPa) = 0.02740463
#
# Stress axis : x y z
#
# Youngs Moduli (GPa) = 42.51606 47.43840 65.00163
#
# Poissons Ratio (x) = 0.14534 0.18631
# Poissons Ratio (y) = 0.13026 0.67342
# Poissons Ratio (z) = 0.12186 0.49147
#
# Static dielectric constant tensor:
#      x y z
#    x 3.367760 0.000000 0.000000 
#    y 0.000000 3.271820 0.000000 
#    z 0.000000 0.000000 3.437110 
# 
# 
# High freq. dielectric constant tensor:
#      x y z
#    x 1.730640 0.000000 0.000000 
#    y 0.000000 1.712740 0.000000 
#    z 0.000000 0.000000 1.727680 
# 
# From -- ./inp_files/10375.got.cif
#   From: 2010.06.25/outbox.cif.g09.slc.cpg/sg71_6_cif.got.tgz:10375.got - 2010.06.28 04:59:45.
