data_PCOD8290452
_publ_section_title
;
Structure prediction by ZEFSAII (Michael W. Deem and Ramdas Pophale) SiO2 
 PCOD8290452
Probable space group: I M M M
;
_chemical_formula_sum "Si O2"
_cell_formula_units_Z 88
_cell_length_a 16.140068
_cell_length_b 24.895180
_cell_length_c 11.967249
_cell_angle_alpha 90.000000
_cell_angle_beta 90.000000
_cell_angle_gamma 90.000000
_cell_volume 4808.559101
_symmetry_space_group_name_H-M "I M M M"
_symmetry_group_IT_number 71
_symmetry_cell_setting 'orthorhombic'
loop_
_space_group_symop_operation_xyz
x,y,z
-x,-y,z
x,-y,-z
-x,y,-z
-x,-y,-z
x,y,-z
-x,y,z
x,-y,z
1/2+x,1/2+y,1/2+z
1/2-x,1/2-y,1/2+z
1/2+x,1/2-y,1/2-z
1/2-x,1/2+y,1/2-z
1/2-x,1/2-y,1/2-z
1/2+x,1/2+y,1/2-z
1/2-x,1/2+y,1/2+z
1/2+x,1/2-y,1/2+z
loop_
_atom_site_type_symbol
_atom_site_label
_atom_site_fract_x
_atom_site_fract_y
_atom_site_fract_z
Si Si1 0.321835 0.155388 0.627551
Si Si2 0.901838 0.300779 0.500000
Si Si3 0.094875 0.257314 0.269950
Si Si4 0.127572 0.850373 0.628868
Si Si5 0.903219 0.558208 0.258018
Si Si6 0.000000 0.940041 0.369652
Si Si7 0.098049 0.420719 0.500000
O O1 0.351483 0.155153 0.500000
O O2 0.348455 0.213593 0.677119
O O3 0.225248 0.143910 0.637888
O O4 0.363825 0.106351 0.690581
O O5 0.866042 0.273769 0.610823
O O6 0.869408 0.360598 0.500000
O O7 0.000000 0.296094 0.500000
O O8 0.098984 0.192692 0.276666
O O9 0.000000 0.276390 0.251877
O O10 0.101905 0.834446 0.500000
O O11 0.082480 0.906092 0.663105
O O12 0.885769 0.500000 0.200834
O O13 0.868149 0.553526 0.385204
O O14 0.000000 0.571186 0.262208
O O15 0.000000 0.949842 0.500000
O O16 0.000000 0.000000 0.312509
O O17 0.000000 0.425592 0.500000
#
# Coordination Sequence:
#
# PCOD8290452 Si02
#       7
#    16   8  16  16  16   8   8
#     4  11  24  36  48  76 115 150 180 215 265 328
#     4   9  16  25  52  83  98 128 168 219 267 313
#     4  11  19  33  57  80 107 139 180 220 267 330
#     4  10  20  35  56  80 108 139 175 224 277 329
#     4  10  20  34  53  75 103 142 184 225 266 316
#     4   9  18  34  58  86 109 135 178 231 283 328
#     4   9  15  30  51  80 102 124 178 228 271 299
#
# _framework density 18.300701
#
# number of rings (size 3 to 8) (size 9 to 14) (size 15 to 20)
#    0.000    1.909    3.636    1.364    0.000    3.636 
#    0.000    2.727    0.000    0.000    0.000    0.000 
#    0.000    0.727    0.000    0.000    0.000    0.000 
#
# Total GULP energy -545151.174358 kJ/mol
# GULP energy per Si atom -12389.799417 kJ/mol
# Density = 1.825905 g / cm^3
# Si number density = 18.300701 Si / 1000 Ang^3
#
#
#
# Elastic Constant Matrix: (Units=GPa)
#
#
# Indices 1 2 3 4 5 6 
#
# 1 74.6625 43.6895 35.1548 -0.0002 0.0000 0.0000
# 2 43.6895 145.8532 51.5090 -0.0001 0.0000 0.0000
# 3 35.1548 51.5090 86.4344 -0.0001 -0.0002 -0.0001
# 4 -0.0002 -0.0001 -0.0001 45.3358 -0.0002 0.0000
# 5 0.0000 0.0000 -0.0002 -0.0002 19.2422 0.0000
# 6 0.0000 0.0000 -0.0001 0.0000 0.0000 19.1778
#
#
#
# Elastic Compliance Matrix: (Units=1/GPa)
#
#
# Indices 1 2 3 4 5 6 
#
# 1 0.017897 -0.003534 -0.005173 0.000000 0.000000 0.000000
# 2 -0.003534 0.009382 -0.004153 0.000000 0.000000 0.000000
# 3 -0.005173 -0.004153 0.016149 0.000000 0.000000 0.000000
# 4 0.000000 0.000000 0.000000 0.022058 0.000000 0.000000
# 5 0.000000 0.000000 0.000000 0.000000 0.051969 0.000000
# 6 0.000000 0.000000 0.000000 0.000000 0.000000 0.052144
#
#
# Mechanical properties :
#
#
# Convention : Reuss Voigt Hill
#
# Bulk Modulus (GPa) = 56.47714 63.07298 59.77506
# Shear Modulus (GPa) = 24.84822 28.52429 26.68625
#
# Velocity S-wave (km/s) = 3.68880 3.95225 3.82279
# Velocity P-wave (km/s) = 7.00504 7.44088 7.22625
#
# Compressibility (1/GPa) = 0.01770628
#
# Stress axis : x y z
#
# Youngs Moduli (GPa) = 55.87400 106.59126 61.92466
#
# Poissons Ratio (x) = 0.37671 0.32035
# Poissons Ratio (y) = 0.19747 0.25720
# Poissons Ratio (z) = 0.28905 0.44272
#
# Static dielectric constant tensor:
#      x y z
#    x 3.153940 0.000000 0.000000 
#    y 0.000000 3.828960 0.000000 
#    z 0.000000 0.000000 3.392110 
# 
# 
# High freq. dielectric constant tensor:
#      x y z
#    x 1.682740 0.000000 0.000000 
#    y 0.000000 1.722760 0.000000 
#    z 0.000000 0.000000 1.683660 
# 
# From -- ./inp_files/22381.got.cif
#   From: 2010.06.25/outbox.cif.g09.slc.cpg/sg71_12_cif.got.tgz:22381.got - 2010.06.28 04:59:45.
