data_PCOD8290924
_publ_section_title
;
Structure prediction by ZEFSAII (Michael W. Deem and Ramdas Pophale) SiO2 
 PCOD8290924
Probable space group: I M M M
;
_chemical_formula_sum "Si O2"
_cell_formula_units_Z 104
_cell_length_a 19.860972
_cell_length_b 9.713611
_cell_length_c 27.202823
_cell_angle_alpha 90.000000
_cell_angle_beta 90.000000
_cell_angle_gamma 90.000000
_cell_volume 5248.016384
_symmetry_space_group_name_H-M "I M M M"
_symmetry_group_IT_number 71
_symmetry_cell_setting 'orthorhombic'
loop_
_space_group_symop_operation_xyz
x,y,z
-x,-y,z
x,-y,-z
-x,y,-z
-x,-y,-z
x,y,-z
-x,y,z
x,-y,z
1/2+x,1/2+y,1/2+z
1/2-x,1/2-y,1/2+z
1/2+x,1/2-y,1/2-z
1/2-x,1/2+y,1/2-z
1/2-x,1/2-y,1/2-z
1/2+x,1/2+y,1/2-z
1/2-x,1/2+y,1/2+z
1/2+x,1/2-y,1/2+z
loop_
_atom_site_type_symbol
_atom_site_label
_atom_site_fract_x
_atom_site_fract_y
_atom_site_fract_z
Si Si1 0.077949 0.270266 0.110300
Si Si2 0.925783 0.658788 0.782018
Si Si3 0.800780 0.341072 0.719392
Si Si4 0.578938 0.500000 0.445803
Si Si5 0.921901 0.157670 0.442974
Si Si6 0.700263 0.850238 0.555875
Si Si7 0.690411 0.163490 0.894775
O O1 0.089495 0.255209 0.168651
O O2 0.130848 0.374382 0.086146
O O3 0.000000 0.311445 0.098986
O O4 0.101660 0.128985 0.085763
O O5 0.920749 0.500000 0.798008
O O6 0.875284 0.696114 0.738488
O O7 0.000000 0.694335 0.761781
O O8 0.783250 0.500000 0.729185
O O9 0.750000 0.250000 0.750000
O O10 0.797754 0.305021 0.662372
O O11 0.500000 0.500000 0.452695
O O12 0.613047 0.500000 0.500000
O O13 0.902997 0.177631 0.500000
O O14 0.878874 0.264973 0.411182
O O15 0.000000 0.192444 0.433997
O O16 0.906859 0.000000 0.427174
O O17 0.682196 0.811678 0.500000
O O18 0.747421 0.730459 0.576721
O O19 0.737230 0.000000 0.558382
O O20 0.686706 0.000000 0.905409
#
# Coordination Sequence:
#
# PCOD8290924 Si02
#       7
#    16  16  16   8  16  16  16
#     4  10  20  35  57  82 111 149 193 238 286 341
#     4   9  18  35  59  83 108 142 184 232 285 337
#     4  10  22  40  60  83 112 149 192 239 294 351
#     4   9  18  32  50  74 108 150 185 221 278 336
#     4   9  19  38  64  91 121 158 196 234 283 349
#     4  11  24  39  57  82 115 156 197 241 291 343
#     4  11  24  39  59  88 119 153 193 242 298 353
#
# _framework density 19.817011000000001
#
# number of rings (size 3 to 8) (size 9 to 14) (size 15 to 20)
#    0.000    2.077    0.000    3.231    1.077    7.692 
#    1.385    3.077    0.000    0.000    0.000    0.000 
#    0.000    0.000    0.000    0.000    0.000    0.000 
#
# Total GULP energy -644643.532285 kJ/mol
# GULP energy per Si atom -12396.991005 kJ/mol
# Density = 1.977191 g / cm^3
# Si number density = 19.817011 Si / 1000 Ang^3
#
#
#
# Elastic Constant Matrix: (Units=GPa)
#
#
# Indices 1 2 3 4 5 6 
#
# 1 109.2755 43.6651 45.6895 0.0000 0.0000 0.0000
# 2 43.6651 100.7121 41.7234 0.0000 0.0000 0.0000
# 3 45.6895 41.7234 87.9538 0.0000 0.0000 0.0000
# 4 0.0000 0.0000 0.0000 43.6180 0.0000 0.0000
# 5 0.0000 0.0000 0.0000 0.0000 38.0985 0.0000
# 6 0.0000 0.0000 0.0000 0.0000 0.0000 32.5593
#
#
#
# Elastic Compliance Matrix: (Units=1/GPa)
#
#
# Indices 1 2 3 4 5 6 
#
# 1 0.012568 -0.003416 -0.004909 0.000000 0.000000 0.000000
# 2 -0.003416 0.013286 -0.004528 0.000000 0.000000 0.000000
# 3 -0.004909 -0.004528 0.016068 0.000000 0.000000 0.000000
# 4 0.000000 0.000000 0.000000 0.022926 0.000000 0.000000
# 5 0.000000 0.000000 0.000000 0.000000 0.026248 0.000000
# 6 0.000000 0.000000 0.000000 0.000000 0.000000 0.030713
#
#
# Mechanical properties :
#
#
# Convention : Reuss Voigt Hill
#
# Bulk Modulus (GPa) = 61.66363 62.23305 61.94834
# Shear Modulus (GPa) = 32.69674 33.97939 33.33806
#
# Velocity S-wave (km/s) = 4.06634 4.14533 4.10603
# Velocity P-wave (km/s) = 7.29595 7.37453 7.33535
#
# Compressibility (1/GPa) = 0.01621701
#
# Stress axis : x y z
#
# Youngs Moduli (GPa) = 79.56472 75.26601 62.23680
#
# Poissons Ratio (x) = 0.25708 0.30550
# Poissons Ratio (y) = 0.27176 0.28183
# Poissons Ratio (z) = 0.39055 0.34083
#
# Static dielectric constant tensor:
#      x y z
#    x 3.682990 0.000000 0.000000 
#    y 0.000000 3.654080 0.000000 
#    z 0.000000 0.000000 3.688190 
# 
# 
# High freq. dielectric constant tensor:
#      x y z
#    x 1.778020 0.000000 0.000000 
#    y 0.000000 1.769540 0.000000 
#    z 0.000000 0.000000 1.772030 
# 
# From -- ./inp_files/66422.got.cif
#   From: 2010.06.25/outbox.cif.g09.slc.cpg/sg71_34_cif.got.tgz:66422.got - 2010.06.28 04:59:45.
