data_PCOD8290947
_publ_section_title
;
Structure prediction by ZEFSAII (Michael W. Deem and Ramdas Pophale) SiO2 
 PCOD8290947
Probable space group: I M M M
;
_chemical_formula_sum "Si O2"
_cell_formula_units_Z 88
_cell_length_a 8.699805
_cell_length_b 27.296054
_cell_length_c 18.376655
_cell_angle_alpha 90.000000
_cell_angle_beta 90.000000
_cell_angle_gamma 90.000000
_cell_volume 4363.910641
_symmetry_space_group_name_H-M "I M M M"
_symmetry_group_IT_number 71
_symmetry_cell_setting 'orthorhombic'
loop_
_space_group_symop_operation_xyz
x,y,z
-x,-y,z
x,-y,-z
-x,y,-z
-x,-y,-z
x,y,-z
-x,y,z
x,-y,z
1/2+x,1/2+y,1/2+z
1/2-x,1/2-y,1/2+z
1/2+x,1/2-y,1/2-z
1/2-x,1/2+y,1/2-z
1/2-x,1/2-y,1/2-z
1/2+x,1/2+y,1/2-z
1/2-x,1/2+y,1/2+z
1/2+x,1/2-y,1/2+z
loop_
_atom_site_type_symbol
_atom_site_label
_atom_site_fract_x
_atom_site_fract_y
_atom_site_fract_z
Si Si1 0.682755 0.382636 0.143429
Si Si2 0.669177 0.792224 0.082764
Si Si3 0.682641 0.442593 0.000000
Si Si4 0.818079 0.946728 0.775759
Si Si5 0.323118 0.221750 0.681782
Si Si6 0.176832 0.894062 0.080963
O O1 0.500000 0.379851 0.141232
O O2 0.747275 0.410717 0.214357
O O3 0.743676 0.327857 0.153880
O O4 0.741027 0.411947 0.071119
O O5 0.500000 0.784228 0.118926
O O6 0.802634 0.759439 0.116368
O O7 0.713385 0.848336 0.091973
O O8 0.659774 0.776480 0.000000
O O9 0.742286 0.500000 0.000000
O O10 0.500000 0.444531 0.000000
O O11 0.771140 0.932233 0.857706
O O12 0.000000 0.948345 0.768335
O O13 0.746843 0.000000 0.760929
O O14 0.500000 0.210931 0.697957
O O15 0.250000 0.250000 0.750000
O O16 0.000000 0.877853 0.092346
O O17 0.198867 0.916891 0.000000
#
# Coordination Sequence:
#
# PCOD8290947 Si02
#       6
#    16  16   8  16  16  16
#     4  10  20  35  57  84 114 150 195 245 296 349
#     4  10  21  37  58  82 112 149 188 229 278 338
#     4   9  18  34  59  89 119 155 203 257 304 353
#     4   9  17  30  51  78 107 141 184 235 286 336
#     4  12  25  40  59  84 116 152 193 240 293 354
#     4   9  17  30  50  78 111 147 188 234 283 335
#
# _framework density 20.165400000000002
#
# number of rings (size 3 to 8) (size 9 to 14) (size 15 to 20)
#    0.000    2.091    0.000    3.818    1.273    5.091 
#    0.000    1.818    0.000    4.364    0.000    2.545 
#    0.000    0.000    0.000    0.000    0.000    0.000 
#
# Total GULP energy -545235.548747 kJ/mol
# GULP energy per Si atom -12391.717017 kJ/mol
# Density = 2.011950 g / cm^3
# Si number density = 20.165400 Si / 1000 Ang^3
#
#
#
# Elastic Constant Matrix: (Units=GPa)
#
#
# Indices 1 2 3 4 5 6 
#
# 1 45.4666 14.4747 27.1461 0.0000 0.0000 0.0000
# 2 14.4747 81.2120 62.7392 0.0001 0.0000 0.0000
# 3 27.1461 62.7392 124.6932 0.0005 -0.0001 0.0000
# 4 0.0000 0.0001 0.0005 41.1588 0.0000 0.0000
# 5 0.0000 0.0000 -0.0001 0.0000 16.8619 0.0000
# 6 0.0000 0.0000 0.0000 0.0000 0.0000 0.0747
#
#
#
# Elastic Compliance Matrix: (Units=1/GPa)
#
#
# Indices 1 2 3 4 5 6 
#
# 1 0.025289 -0.000416 -0.005296 0.000000 0.000000 0.000002
# 2 -0.000416 0.020150 -0.010048 0.000000 0.000000 0.000006
# 3 -0.005296 -0.010048 0.014228 0.000000 0.000000 -0.000004
# 4 0.000000 0.000000 0.000000 0.024296 0.000000 -0.000010
# 5 0.000000 0.000000 0.000000 0.000000 0.059305 -0.000023
# 6 0.000002 0.000006 -0.000004 -0.000010 -0.000023 13.380896
#
#
# Mechanical properties :
#
#
# Convention : Reuss Voigt Hill
#
# Bulk Modulus (GPa) = 35.52764 51.12130 43.32447
# Shear Modulus (GPa) = 0.36859 21.41989 10.89424
#
# Velocity S-wave (km/s) = 0.42800 3.26269 2.32684
# Velocity P-wave (km/s) = 4.23091 6.29282 5.36191
#
# Compressibility (1/GPa) = 0.02814710
#
# Stress axis : x y z
#
# Youngs Moduli (GPa) = 39.54342 49.62806 70.28266
#
# Poissons Ratio (x) = 0.02063 0.37223
# Poissons Ratio (y) = 0.01644 0.70619
# Poissons Ratio (z) = 0.20943 0.49866
#
# Static dielectric constant tensor:
#      x y z
#    x 3.112090 0.000000 0.000010 
#    y 0.000000 3.752620 0.000000 
#    z 0.000010 0.000000 4.468250 
# 
# 
# High freq. dielectric constant tensor:
#      x y z
#    x 1.750980 0.000000 0.000000 
#    y 0.000000 1.790780 0.000000 
#    z 0.000000 0.000000 1.804740 
# 
# From -- ./inp_files/50525.got.cif
#   From: 2010.06.25/outbox.cif.g09.slc.cpg/sg71_26_cif.got.tgz:50525.got - 2010.06.28 04:59:45.
