data_PCOD8290589
_publ_section_title
;
Structure prediction by ZEFSAII (Michael W. Deem and Ramdas Pophale) SiO2 
 PCOD8290589
Probable space group: I M M M
;
_chemical_formula_sum "Si O2"
_cell_formula_units_Z 120
_cell_length_a 9.057318
_cell_length_b 26.675273
_cell_length_c 27.517445
_cell_angle_alpha 90.000000
_cell_angle_beta 90.000000
_cell_angle_gamma 90.000000
_cell_volume 6648.391657
_symmetry_space_group_name_H-M "I M M M"
_symmetry_group_IT_number 71
_symmetry_cell_setting 'orthorhombic'
loop_
_space_group_symop_operation_xyz
x,y,z
-x,-y,z
x,-y,-z
-x,y,-z
-x,-y,-z
x,y,-z
-x,y,z
x,-y,z
1/2+x,1/2+y,1/2+z
1/2-x,1/2-y,1/2+z
1/2+x,1/2-y,1/2-z
1/2-x,1/2+y,1/2-z
1/2-x,1/2-y,1/2-z
1/2+x,1/2+y,1/2-z
1/2-x,1/2+y,1/2+z
1/2+x,1/2-y,1/2+z
loop_
_atom_site_type_symbol
_atom_site_label
_atom_site_fract_x
_atom_site_fract_y
_atom_site_fract_z
Si Si1 0.669636 0.819071 0.056498
Si Si2 0.174096 0.346060 0.859444
Si Si3 0.171057 0.900184 0.780880
Si Si4 0.174812 0.907133 0.891588
Si Si5 0.328585 0.055241 0.692964
Si Si6 0.827180 0.201833 0.270978
Si Si7 0.172682 0.500000 0.557125
Si Si8 0.670413 0.296023 0.944058
O O1 0.500000 0.830682 0.070109
O O2 0.777875 0.853345 0.087790
O O3 0.708714 0.761549 0.068392
O O4 0.696024 0.830482 0.000000
O O5 0.221193 0.403224 0.846436
O O6 0.256713 0.308570 0.823270
O O7 0.227536 0.333634 0.913548
O O8 0.000000 0.337886 0.855104
O O9 0.224969 0.909963 0.835570
O O10 0.252179 0.938051 0.744941
O O11 0.206262 0.843117 0.766218
O O12 0.000000 0.911961 0.775704
O O13 0.254941 0.950697 0.920748
O O14 0.000000 0.913125 0.897184
O O15 0.500000 0.060987 0.703503
O O16 0.289203 0.000000 0.672352
O O17 0.750000 0.250000 0.250000
O O18 0.000000 0.211512 0.277865
O O19 0.202641 0.500000 0.500000
O O20 0.000000 0.500000 0.569134
O O21 0.500000 0.306844 0.932255
O O22 0.705149 0.307207 0.000000
#
# Coordination Sequence:
#
# PCOD8290589 Si02
#       8
#    16  16  16  16  16  16   8  16
#     4   9  19  36  55  76 103 137 177 218 263 318
#     4  10  20  34  54  81 111 142 180 223 270 324
#     4   9  21  37  51  75 109 139 171 215 266 316
#     4  11  23  37  55  80 107 135 171 223 279 324
#     4   9  19  36  57  80 106 138 178 222 264 317
#     4  10  20  35  53  76 109 146 181 218 263 317
#     4  11  25  43  59  75  99 137 183 229 276 327
#     4   9  19  36  57  82 113 147 182 221 265 316
#
# _framework density 18.049478000000001
#
# number of rings (size 3 to 8) (size 9 to 14) (size 15 to 20)
#    0.000    2.333    0.000    2.600    2.800    5.600 
#    0.000    1.333    0.000    0.400    0.000    2.800 
#    0.000    0.000    0.000    0.000    0.000    0.000 
#
# Total GULP energy -744106.510357 kJ/mol
# GULP energy per Si atom -12401.775173 kJ/mol
# Density = 1.800840 g / cm^3
# Si number density = 18.049478 Si / 1000 Ang^3
#
#
#
# Elastic Constant Matrix: (Units=GPa)
#
#
# Indices 1 2 3 4 5 6 
#
# 1 76.0998 50.3328 53.4529 0.0000 0.0000 0.0000
# 2 50.3328 110.4999 63.3238 0.0000 0.0000 0.0000
# 3 53.4529 63.3238 107.7763 0.0000 0.0000 0.0000
# 4 0.0000 0.0000 0.0000 24.6415 0.0000 0.0000
# 5 0.0000 0.0000 0.0000 0.0000 32.3740 0.0000
# 6 0.0000 0.0000 0.0000 0.0000 0.0000 25.0128
#
#
#
# Elastic Compliance Matrix: (Units=1/GPa)
#
#
# Indices 1 2 3 4 5 6 
#
# 1 0.022370 -0.005777 -0.007701 0.000000 0.000000 0.000000
# 2 -0.005777 0.015135 -0.006028 0.000000 0.000000 0.000000
# 3 -0.007701 -0.006028 0.016639 0.000000 0.000000 0.000000
# 4 0.000000 0.000000 0.000000 0.040582 0.000000 0.000000
# 5 0.000000 0.000000 0.000000 0.000000 0.030889 0.000000
# 6 0.000000 0.000000 0.000000 0.000000 0.000000 0.039979
#
#
# Mechanical properties :
#
#
# Convention : Reuss Voigt Hill
#
# Bulk Modulus (GPa) = 66.07322 69.84388 67.95855
# Shear Modulus (GPa) = 23.84917 24.89010 24.36964
#
# Velocity S-wave (km/s) = 3.63894 3.71751 3.67844
# Velocity P-wave (km/s) = 7.37171 7.56348 7.46821
#
# Compressibility (1/GPa) = 0.01513473
#
# Stress axis : x y z
#
# Youngs Moduli (GPa) = 44.70187 66.07043 60.09847
#
# Poissons Ratio (x) = 0.38167 0.46280
# Poissons Ratio (y) = 0.25823 0.36226
# Poissons Ratio (z) = 0.34424 0.39826
#
# Static dielectric constant tensor:
#      x y z
#    x 3.340680 0.000000 0.000000 
#    y 0.000000 3.321860 0.000000 
#    z 0.000000 0.000000 3.408630 
# 
# 
# High freq. dielectric constant tensor:
#      x y z
#    x 1.703650 0.000000 0.000000 
#    y 0.000000 1.699970 0.000000 
#    z 0.000000 0.000000 1.694370 
# 
# From -- ./inp_files/63852.got.cif
#   From: 2010.06.25/outbox.cif.g09.slc.cpg/sg71_32_cif.got.tgz:63852.got - 2010.06.28 04:59:45.
