data_PCOD8290340
_publ_section_title
;
Structure prediction by ZEFSAII (Michael W. Deem and Ramdas Pophale) SiO2 
 PCOD8290340
Probable space group: I M M M
;
_chemical_formula_sum "Si O2"
_cell_formula_units_Z 104
_cell_length_a 28.303498
_cell_length_b 24.153360
_cell_length_c 9.047123
_cell_angle_alpha 90.000000
_cell_angle_beta 90.000000
_cell_angle_gamma 90.000000
_cell_volume 6184.835629
_symmetry_space_group_name_H-M "I M M M"
_symmetry_group_IT_number 71
_symmetry_cell_setting 'orthorhombic'
loop_
_space_group_symop_operation_xyz
x,y,z
-x,-y,z
x,-y,-z
-x,y,-z
-x,-y,-z
x,y,-z
-x,y,z
x,-y,z
1/2+x,1/2+y,1/2+z
1/2-x,1/2-y,1/2+z
1/2+x,1/2-y,1/2-z
1/2-x,1/2+y,1/2-z
1/2-x,1/2-y,1/2-z
1/2+x,1/2+y,1/2-z
1/2-x,1/2+y,1/2+z
1/2+x,1/2-y,1/2+z
loop_
_atom_site_type_symbol
_atom_site_label
_atom_site_fract_x
_atom_site_fract_y
_atom_site_fract_z
Si Si1 0.271116 0.065832 0.663756
Si Si2 0.820343 0.937388 0.173458
Si Si3 0.555218 0.732324 0.828852
Si Si4 0.414236 0.374859 0.675553
Si Si5 0.000000 0.934450 0.330307
Si Si6 0.054295 0.654458 0.827880
Si Si7 0.374360 0.061607 0.676174
O O1 0.264638 0.090758 0.500000
O O2 0.227977 0.088573 0.761868
O O3 0.322513 0.082861 0.729860
O O4 0.269868 0.000000 0.658177
O O5 0.864045 0.899915 0.223577
O O6 0.828843 0.000000 0.231693
O O7 0.814661 0.937365 0.000000
O O8 0.500000 0.719686 0.805914
O O9 0.584368 0.687237 0.737164
O O10 0.568796 0.791956 0.765081
O O11 0.569510 0.729952 0.000000
O O12 0.421600 0.374852 0.500000
O O13 0.453945 0.412416 0.749077
O O14 0.000000 0.913462 0.500000
O O15 0.000000 0.000000 0.321163
O O16 0.085692 0.603724 0.767420
O O17 0.000000 0.638218 0.800271
O O18 0.063817 0.666761 0.000000
O O19 0.373791 0.058862 0.500000
O O20 0.385498 0.000000 0.738902
#
# Coordination Sequence:
#
# PCOD8290340 Si02
#       7
#    16  16  16  16   8  16  16
#     4   8  14  26  45  67  92 125 160 191 229 280
#     4   9  18  31  46  68  96 122 152 194 242 286
#     4  10  20  34  50  67  92 124 162 204 243 284
#     4  11  21  33  51  70  92 124 162 203 243 288
#     4  11  23  35  47  69 101 131 158 193 240 291
#     4   9  17  29  48  73  99 128 162 196 233 282
#     4   8  14  26  46  74 104 129 156 193 235 280
#
# _framework density 16.815321999999998
#
# number of rings (size 3 to 8) (size 9 to 14) (size 15 to 20)
#    0.000    2.692    0.769    2.538    0.000    3.385 
#    0.000    3.846    0.000    2.308    0.000    2.154 
#    0.000    0.000    0.000    0.000    0.000    0.000 
#
# Total GULP energy -644674.442498 kJ/mol
# GULP energy per Si atom -12397.585433 kJ/mol
# Density = 1.677705 g / cm^3
# Si number density = 16.815322 Si / 1000 Ang^3
#
#
#
# Elastic Constant Matrix: (Units=GPa)
#
#
# Indices 1 2 3 4 5 6 
#
# 1 133.0975 73.6587 45.8694 0.0000 0.0000 0.0000
# 2 73.6587 99.1404 40.8082 0.0000 0.0000 0.0000
# 3 45.8694 40.8082 58.2700 0.0000 0.0000 0.0000
# 4 0.0000 0.0000 0.0000 19.0946 0.0000 0.0000
# 5 0.0000 0.0000 0.0000 0.0000 20.9288 0.0000
# 6 0.0000 0.0000 0.0000 0.0000 0.0000 9.4550
#
#
#
# Elastic Compliance Matrix: (Units=1/GPa)
#
#
# Indices 1 2 3 4 5 6 
#
# 1 0.013785 -0.008115 -0.005169 0.000000 0.000000 0.000000
# 2 -0.008115 0.018949 -0.006883 0.000000 0.000000 0.000000
# 3 -0.005169 -0.006883 0.026050 0.000000 0.000000 0.000000
# 4 0.000000 0.000000 0.000000 0.052371 0.000000 0.000000
# 5 0.000000 0.000000 0.000000 0.000000 0.047781 0.000000
# 6 0.000000 0.000000 0.000000 0.000000 0.000000 0.105764
#
#
# Mechanical properties :
#
#
# Convention : Reuss Voigt Hill
#
# Bulk Modulus (GPa) = 54.19333 67.90895 61.05114
# Shear Modulus (GPa) = 16.06772 18.57380 17.32076
#
# Velocity S-wave (km/s) = 3.09454 3.32712 3.21293
# Velocity P-wave (km/s) = 6.71317 7.43186 7.08164
#
# Compressibility (1/GPa) = 0.01845245
#
# Stress axis : x y z
#
# Youngs Moduli (GPa) = 72.54062 52.77418 38.38714
#
# Poissons Ratio (x) = 0.42824 0.19842
# Poissons Ratio (y) = 0.58864 0.26420
# Poissons Ratio (z) = 0.37495 0.36322
#
# Static dielectric constant tensor:
#      x y z
#    x 3.369170 0.000000 0.000000 
#    y 0.000000 3.110680 0.000000 
#    z 0.000000 0.000000 3.096610 
# 
# 
# High freq. dielectric constant tensor:
#      x y z
#    x 1.647740 0.000000 0.000000 
#    y 0.000000 1.629090 0.000000 
#    z 0.000000 0.000000 1.636820 
# 
# From -- ./inp_files/15526.got.cif
#   From: 2010.06.25/outbox.cif.g09.slc.cpg/sg71_8_cif.got.tgz:15526.got - 2010.06.28 04:59:45.
