data_PCOD8290521
_publ_section_title
;
Structure prediction by ZEFSAII (Michael W. Deem and Ramdas Pophale) SiO2 
 PCOD8290521
Probable space group: I M M M
;
_chemical_formula_sum "Si O2"
_cell_formula_units_Z 96
_cell_length_a 27.755039
_cell_length_b 13.388207
_cell_length_c 14.651860
_cell_angle_alpha 90.000000
_cell_angle_beta 90.000000
_cell_angle_gamma 90.000000
_cell_volume 5444.487697
_symmetry_space_group_name_H-M "I M M M"
_symmetry_group_IT_number 71
_symmetry_cell_setting 'orthorhombic'
loop_
_space_group_symop_operation_xyz
x,y,z
-x,-y,z
x,-y,-z
-x,y,-z
-x,-y,-z
x,y,-z
-x,y,z
x,-y,z
1/2+x,1/2+y,1/2+z
1/2-x,1/2-y,1/2+z
1/2+x,1/2-y,1/2-z
1/2-x,1/2+y,1/2-z
1/2-x,1/2-y,1/2-z
1/2+x,1/2+y,1/2-z
1/2-x,1/2+y,1/2+z
1/2+x,1/2-y,1/2+z
loop_
_atom_site_type_symbol
_atom_site_label
_atom_site_fract_x
_atom_site_fract_y
_atom_site_fract_z
Si Si1 0.553858 0.382922 0.000000
Si Si2 0.130950 0.387661 0.895013
Si Si3 0.557220 0.389217 0.500000
Si Si4 0.795004 0.882909 0.264523
Si Si5 0.054697 0.754878 0.836194
Si Si6 0.905247 0.884642 0.310871
Si Si7 0.772921 0.736555 0.892419
O O1 0.586488 0.350841 0.085420
O O2 0.546145 0.500000 0.000000
O O3 0.500000 0.333635 0.000000
O O4 0.140733 0.500000 0.861492
O O5 0.087368 0.343888 0.834661
O O6 0.178670 0.325143 0.878723
O O7 0.114813 0.385409 0.000000
O O8 0.580373 0.500000 0.500000
O O9 0.500000 0.397551 0.500000
O O10 0.576003 0.329719 0.412547
O O11 0.851392 0.863160 0.278048
O O12 0.777486 0.837946 0.167241
O O13 0.769806 0.830577 0.351185
O O14 0.782597 0.000000 0.264748
O O15 0.057373 0.815425 0.742868
O O16 0.000000 0.722505 0.856404
O O17 0.919305 0.000000 0.295318
O O18 0.763282 0.760336 0.000000
#
# Coordination Sequence:
#
# PCOD8290521 Si02
#       7
#     8  16   8  16  16  16  16
#     4   9  18  32  50  75 109 149 187 221 263 317
#     4  10  20  35  53  74 104 143 184 223 265 316
#     4   9  18  30  45  68 101 139 172 208 263 329
#     4  10  21  36  57  86 113 141 182 230 278 333
#     4  11  20  32  49  74 106 140 182 224 266 319
#     4  10  20  34  53  79 110 143 179 223 273 326
#     4  10  21  38  58  81 112 147 181 223 281 341
#
# _framework density 17.632514
#
# number of rings (size 3 to 8) (size 9 to 14) (size 15 to 20)
#    0.000    2.000    2.500    1.500    1.167    3.333 
#    0.000    0.833    0.000    0.000    0.000    0.583 
#    0.000    2.000    0.000    0.000    0.000    0.000 
#
# Total GULP energy -595158.190167 kJ/mol
# GULP energy per Si atom -12399.128962 kJ/mol
# Density = 1.759238 g / cm^3
# Si number density = 17.632514 Si / 1000 Ang^3
#
#
#
# Elastic Constant Matrix: (Units=GPa)
#
#
# Indices 1 2 3 4 5 6 
#
# 1 58.1372 19.7301 17.3528 0.0000 0.0000 0.0000
# 2 19.7301 70.3377 31.3460 0.0000 0.0000 0.0000
# 3 17.3528 31.3460 110.6282 0.0000 0.0000 0.0000
# 4 0.0000 0.0000 0.0000 17.9986 0.0000 0.0000
# 5 0.0000 0.0000 0.0000 0.0000 26.5378 0.0000
# 6 0.0000 0.0000 0.0000 0.0000 0.0000 23.9780
#
#
#
# Elastic Compliance Matrix: (Units=1/GPa)
#
#
# Indices 1 2 3 4 5 6 
#
# 1 0.019288 -0.004649 -0.001708 0.000000 0.000000 0.000000
# 2 -0.004649 0.017392 -0.004199 0.000000 0.000000 0.000000
# 3 -0.001708 -0.004199 0.010497 0.000000 0.000000 0.000000
# 4 0.000000 0.000000 0.000000 0.055560 0.000000 0.000000
# 5 0.000000 0.000000 0.000000 0.000000 0.037682 0.000000
# 6 0.000000 0.000000 0.000000 0.000000 0.000000 0.041705
#
#
# Mechanical properties :
#
#
# Convention : Reuss Voigt Hill
#
# Bulk Modulus (GPa) = 38.36514 41.77342 40.06928
# Shear Modulus (GPa) = 23.59318 25.08115 24.33716
#
# Velocity S-wave (km/s) = 3.66190 3.77561 3.71919
# Velocity P-wave (km/s) = 6.29959 6.53832 6.42006
#
# Compressibility (1/GPa) = 0.02606533
#
# Stress axis : x y z
#
# Youngs Moduli (GPa) = 51.84474 57.49620 95.26588
#
# Poissons Ratio (x) = 0.26731 0.16273
# Poissons Ratio (y) = 0.24104 0.40000
# Poissons Ratio (z) = 0.08856 0.24142
#
# Static dielectric constant tensor:
#      x y z
#    x 3.181960 0.000000 0.000000 
#    y 0.000000 3.222430 0.000000 
#    z 0.000000 0.000000 3.388710 
# 
# 
# High freq. dielectric constant tensor:
#      x y z
#    x 1.683160 0.000000 0.000000 
#    y 0.000000 1.665040 0.000000 
#    z 0.000000 0.000000 1.678630 
# 
# From -- ./inp_files/29967.got.cif
#   From: 2010.06.25/outbox.cif.g09.slc.cpg/sg71_15_cif.got.tgz:29967.got - 2010.06.28 04:59:45.
