data_PCOD8290339
_publ_section_title
;
Structure prediction by ZEFSAII (Michael W. Deem and Ramdas Pophale) SiO2 
 PCOD8290339
Probable space group: I M M M
;
_chemical_formula_sum "Si O2"
_cell_formula_units_Z 104
_cell_length_a 28.530057
_cell_length_b 8.836672
_cell_length_c 24.449744
_cell_angle_alpha 90.000000
_cell_angle_beta 90.000000
_cell_angle_gamma 90.000000
_cell_volume 6164.043440
_symmetry_space_group_name_H-M "I M M M"
_symmetry_group_IT_number 71
_symmetry_cell_setting 'orthorhombic'
loop_
_space_group_symop_operation_xyz
x,y,z
-x,-y,z
x,-y,-z
-x,y,-z
-x,-y,-z
x,y,-z
-x,y,z
x,-y,z
1/2+x,1/2+y,1/2+z
1/2-x,1/2-y,1/2+z
1/2+x,1/2-y,1/2-z
1/2-x,1/2+y,1/2-z
1/2-x,1/2-y,1/2-z
1/2+x,1/2+y,1/2-z
1/2-x,1/2+y,1/2+z
1/2+x,1/2-y,1/2+z
loop_
_atom_site_type_symbol
_atom_site_label
_atom_site_fract_x
_atom_site_fract_y
_atom_site_fract_z
Si Si1 0.553723 0.322547 0.152883
Si Si2 0.553996 0.177707 0.266042
Si Si3 0.173385 0.319488 0.062566
Si Si4 0.089678 0.820621 0.127823
Si Si5 0.000000 0.180042 0.061481
Si Si6 0.624559 0.318860 0.061191
Si Si7 0.225169 0.835271 0.435401
O O1 0.500000 0.284760 0.138447
O O2 0.560991 0.500000 0.162884
O O3 0.570338 0.235112 0.206851
O O4 0.584915 0.261117 0.102682
O O5 0.500000 0.223568 0.276018
O O6 0.585909 0.259308 0.310821
O O7 0.561779 0.000000 0.269908
O O8 0.171384 0.500000 0.069423
O O9 0.137280 0.239386 0.102237
O O10 0.225324 0.255475 0.079982
O O11 0.161827 0.274340 0.000000
O O12 0.045974 0.758547 0.092337
O O13 0.090303 0.000000 0.128926
O O14 0.000000 0.000000 0.060589
O O15 0.000000 0.245579 0.000000
O O16 0.627344 0.500000 0.061072
O O17 0.675918 0.252614 0.080283
O O18 0.611872 0.261358 0.000000
O O19 0.224962 0.857774 0.500000
O O20 0.225343 0.000000 0.406981
#
# Coordination Sequence:
#
# PCOD8290339 Si02
#       7
#    16  16  16  16   8  16  16
#     4   9  17  28  45  71 100 125 152 189 230 271
#     4  10  20  34  50  65  86 119 161 198 229 271
#     4   9  17  29  45  67  94 122 154 191 229 271
#     4  11  20  31  48  67  91 120 152 192 234 279
#     4   9  18  30  43  63  91 119 142 171 222 281
#     4   8  13  23  43  72 101 127 154 184 223 271
#     4   7  11  22  41  64  91 123 156 187 220 264
#
# _framework density 16.872043000000001
#
# number of rings (size 3 to 8) (size 9 to 14) (size 15 to 20)
#    0.000    3.000    0.769    3.231    0.000    1.846 
#    0.000    1.538    0.000    4.154    0.000    4.308 
#    0.000    0.000    0.000    0.000    0.000    0.000 
#
# Total GULP energy -644352.471242 kJ/mol
# GULP energy per Si atom -12391.393678 kJ/mol
# Density = 1.683364 g / cm^3
# Si number density = 16.872043 Si / 1000 Ang^3
#
#
#
# Elastic Constant Matrix: (Units=GPa)
#
#
# Indices 1 2 3 4 5 6 
#
# 1 139.0284 28.8853 83.1176 0.0000 0.0000 0.0000
# 2 28.8853 31.4043 28.6408 0.0000 0.0000 0.0000
# 3 83.1176 28.6408 117.5888 0.0000 0.0000 0.0000
# 4 0.0000 0.0000 0.0000 17.7933 0.0000 0.0000
# 5 0.0000 0.0000 0.0000 0.0000 14.1180 0.0000
# 6 0.0000 0.0000 0.0000 0.0000 0.0000 11.5712
#
#
#
# Elastic Compliance Matrix: (Units=1/GPa)
#
#
# Indices 1 2 3 4 5 6 
#
# 1 0.012950 -0.004581 -0.008038 0.000000 0.000000 0.000000
# 2 -0.004581 0.042556 -0.007128 0.000000 0.000000 0.000000
# 3 -0.008038 -0.007128 0.015922 0.000000 0.000000 0.000000
# 4 0.000000 0.000000 0.000000 0.056201 0.000000 0.000000
# 5 0.000000 0.000000 0.000000 0.000000 0.070832 0.000000
# 6 0.000000 0.000000 0.000000 0.000000 0.000000 0.086422
#
#
# Mechanical properties :
#
#
# Convention : Reuss Voigt Hill
#
# Bulk Modulus (GPa) = 31.31270 63.25655 47.28462
# Shear Modulus (GPa) = 14.92449 18.52168 16.72309
#
# Velocity S-wave (km/s) = 2.97740 3.31686 3.15170
# Velocity P-wave (km/s) = 5.51535 7.22787 6.42889
#
# Compressibility (1/GPa) = 0.03193593
#
# Stress axis : x y z
#
# Youngs Moduli (GPa) = 77.22045 23.49829 62.80660
#
# Poissons Ratio (x) = 0.10764 0.50484
# Poissons Ratio (y) = 0.35371 0.44766
# Poissons Ratio (z) = 0.62070 0.16749
#
# Static dielectric constant tensor:
#      x y z
#    x 3.543440 0.000000 0.000000 
#    y 0.000000 2.769540 0.000000 
#    z 0.000000 0.000000 3.075920 
# 
# 
# High freq. dielectric constant tensor:
#      x y z
#    x 1.656030 0.000000 0.000000 
#    y 0.000000 1.613320 0.000000 
#    z 0.000000 0.000000 1.632020 
# 
# From -- ./inp_files/61970.got.cif
#   From: 2010.06.25/outbox.cif.g09.slc.cpg/sg71_31_cif.got.tgz:61970.got - 2010.06.28 04:59:45.
