data_PCOD8290079
_publ_section_title
;
Structure prediction by ZEFSAII (Michael W. Deem and Ramdas Pophale) SiO2 
 PCOD8290079
Probable space group: I M M M
;
_chemical_formula_sum "Si O2"
_cell_formula_units_Z 88
_cell_length_a 16.978389
_cell_length_b 9.349012
_cell_length_c 27.632107
_cell_angle_alpha 90.000000
_cell_angle_beta 90.000000
_cell_angle_gamma 90.000000
_cell_volume 4386.076466
_symmetry_space_group_name_H-M "I M M M"
_symmetry_group_IT_number 71
_symmetry_cell_setting 'orthorhombic'
loop_
_space_group_symop_operation_xyz
x,y,z
-x,-y,z
x,-y,-z
-x,y,-z
-x,-y,-z
x,y,-z
-x,y,z
x,-y,z
1/2+x,1/2+y,1/2+z
1/2-x,1/2-y,1/2+z
1/2+x,1/2-y,1/2-z
1/2-x,1/2+y,1/2-z
1/2-x,1/2-y,1/2-z
1/2+x,1/2+y,1/2-z
1/2-x,1/2+y,1/2+z
1/2+x,1/2-y,1/2+z
loop_
_atom_site_type_symbol
_atom_site_label
_atom_site_fract_x
_atom_site_fract_y
_atom_site_fract_z
Si Si1 0.172324 0.833089 0.641566
Si Si2 0.674925 0.835969 0.768164
Si Si3 0.408245 0.833881 0.944108
Si Si4 0.094439 0.657835 0.000000
Si Si5 0.644233 0.842850 0.663278
Si Si6 0.589496 0.654530 0.585014
O O1 0.133097 0.745875 0.686830
O O2 0.144164 0.765335 0.590957
O O3 0.265160 0.811449 0.649343
O O4 0.148125 0.000000 0.643577
O O5 0.750000 0.750000 0.750000
O O6 0.621298 0.837041 0.720009
O O7 0.696023 0.000000 0.782974
O O8 0.500000 0.802424 0.933991
O O9 0.389429 0.000000 0.933733
O O10 0.387989 0.796618 0.000000
O O11 0.129657 0.739663 0.046489
O O12 0.131032 0.500000 0.000000
O O13 0.000000 0.649950 0.000000
O O14 0.592032 0.722799 0.637987
O O15 0.621864 0.000000 0.643315
O O16 0.500000 0.632024 0.569411
O O17 0.632390 0.500000 0.584487
#
# Coordination Sequence:
#
# PCOD8290079 Si02
#       6
#    16  16  16   8  16  16
#     4  10  20  34  54  81 108 136 174 217 261 314
#     4   9  17  31  52  76 104 138 175 215 260 313
#     4   9  19  37  59  81 107 141 179 218 265 324
#     4   9  17  31  51  69  89 125 166 201 244 299
#     4   9  19  34  51  75 104 137 174 212 259 311
#     4  10  20  33  50  73 100 131 171 216 258 302
#
# _framework density 20.063489000000001
#
# number of rings (size 3 to 8) (size 9 to 14) (size 15 to 20)
#    0.000    2.636    0.000    3.545    0.000    7.273 
#    1.636    1.818    0.000    1.091    0.000    0.000 
#    0.000    0.000    0.000    0.000    0.000    0.000 
#
# Total GULP energy -545180.847547 kJ/mol
# GULP energy per Si atom -12390.473808 kJ/mol
# Density = 2.001782 g / cm^3
# Si number density = 20.063489 Si / 1000 Ang^3
#
#
#
# Elastic Constant Matrix: (Units=GPa)
#
#
# Indices 1 2 3 4 5 6 
#
# 1 17.6825 17.9869 19.7079 0.0000 0.0000 0.0000
# 2 17.9869 186.0764 93.3381 0.0000 0.0000 0.0000
# 3 19.7079 93.3381 147.0481 0.0000 0.0000 0.0000
# 4 0.0000 0.0000 0.0000 40.9555 0.0000 0.0000
# 5 0.0000 0.0000 0.0000 0.0000 23.7926 0.0000
# 6 0.0000 0.0000 0.0000 0.0000 0.0000 22.8170
#
#
#
# Elastic Compliance Matrix: (Units=1/GPa)
#
#
# Indices 1 2 3 4 5 6 
#
# 1 0.067546 -0.002917 -0.007201 0.000000 0.000000 0.000000
# 2 -0.002917 0.008011 -0.004694 0.000000 0.000000 0.000000
# 3 -0.007201 -0.004694 0.010745 0.000000 0.000000 0.000000
# 4 0.000000 0.000000 0.000000 0.024417 0.000000 0.000000
# 5 0.000000 0.000000 0.000000 0.000000 0.042030 0.000000
# 6 0.000000 0.000000 0.000000 0.000000 0.000000 0.043827
#
#
# Mechanical properties :
#
#
# Convention : Reuss Voigt Hill
#
# Bulk Modulus (GPa) = 17.64354 68.09697 42.87026
# Shear Modulus (GPa) = 20.40050 32.16464 26.28257
#
# Velocity S-wave (km/s) = 3.19219 4.00827 3.62328
# Velocity P-wave (km/s) = 4.73283 7.44554 6.23842
#
# Compressibility (1/GPa) = 0.05667796
#
# Stress axis : x y z
#
# Youngs Moduli (GPa) = 14.80462 124.83577 93.06728
#
# Poissons Ratio (x) = 0.36416 0.67019
# Poissons Ratio (y) = 0.04319 0.43683
# Poissons Ratio (z) = 0.10661 0.58594
#
# Static dielectric constant tensor:
#      x y z
#    x 3.062850 0.000000 0.000000 
#    y 0.000000 3.998550 0.000000 
#    z 0.000000 0.000000 4.035390 
# 
# 
# High freq. dielectric constant tensor:
#      x y z
#    x 1.721530 0.000000 0.000000 
#    y 0.000000 1.801530 0.000000 
#    z 0.000000 0.000000 1.797220 
# 
# From -- ./inp_files/50794.got.cif
#   From: 2010.06.25/outbox.cif.g09.slc.cpg/sg71_26_cif.got.tgz:50794.got - 2010.06.28 04:59:45.
