data_PCOD8290594
_publ_section_title
;
Structure prediction by ZEFSAII (Michael W. Deem and Ramdas Pophale) SiO2 
 PCOD8290594
Probable space group: I M M M
;
_chemical_formula_sum "Si O2"
_cell_formula_units_Z 80
_cell_length_a 22.889666
_cell_length_b 20.420327
_cell_length_c 9.108429
_cell_angle_alpha 90.000000
_cell_angle_beta 90.000000
_cell_angle_gamma 90.000000
_cell_volume 4257.411465
_symmetry_space_group_name_H-M "I M M M"
_symmetry_group_IT_number 71
_symmetry_cell_setting 'orthorhombic'
loop_
_space_group_symop_operation_xyz
x,y,z
-x,-y,z
x,-y,-z
-x,y,-z
-x,-y,-z
x,y,-z
-x,y,z
x,-y,z
1/2+x,1/2+y,1/2+z
1/2-x,1/2-y,1/2+z
1/2+x,1/2-y,1/2-z
1/2-x,1/2+y,1/2-z
1/2-x,1/2-y,1/2-z
1/2+x,1/2+y,1/2-z
1/2-x,1/2+y,1/2+z
1/2+x,1/2-y,1/2+z
loop_
_atom_site_type_symbol
_atom_site_label
_atom_site_fract_x
_atom_site_fract_y
_atom_site_fract_z
Si Si1 0.931716 0.000000 0.174472
Si Si2 0.630680 0.620741 0.172220
Si Si3 0.566134 0.000000 0.324931
Si Si4 0.252167 0.180152 0.327864
Si Si5 0.876760 0.631750 0.173283
Si Si6 0.932435 0.748379 0.664826
O O1 0.897893 0.062850 0.235597
O O2 0.000000 0.000000 0.224188
O O3 0.927257 0.000000 0.000000
O O4 0.698909 0.631325 0.211789
O O5 0.600005 0.687450 0.222255
O O6 0.621546 0.605760 0.000000
O O7 0.600144 0.063114 0.262771
O O8 0.500000 0.000000 0.264434
O O9 0.565978 0.000000 0.500000
O O10 0.252330 0.195267 0.500000
O O11 0.250000 0.250000 0.250000
O O12 0.310254 0.142495 0.275662
O O13 0.918554 0.688314 0.230967
O O14 0.881880 0.632189 0.000000
O O15 0.911584 0.731314 0.500000
O O16 0.000000 0.764667 0.670591
#
# Coordination Sequence:
#
# PCOD8290594 Si02
#       6
#     8  16   8  16  16  16
#     4  11  25  42  59  85 119 151 190 245 298 341
#     4  10  21  38  60  83 111 153 193 230 285 350
#     4   9  18  33  51  75 111 147 180 221 270 326
#     4  10  20  35  58  86 114 145 185 235 282 334
#     4  10  20  34  56  83 109 145 188 232 281 330
#     4  10  20  34  54  81 111 146 190 234 277 333
#
# _framework density 18.790761
#
# number of rings (size 3 to 8) (size 9 to 14) (size 15 to 20)
#    0.000    2.000    2.000    1.500    0.000    5.200 
#    0.000    3.500    0.000    1.800    0.000    0.000 
#    0.000    0.000    0.000    0.000    0.000    0.000 
#
# Total GULP energy -496025.784747 kJ/mol
# GULP energy per Si atom -12400.644619 kJ/mol
# Density = 1.874799 g / cm^3
# Si number density = 18.790761 Si / 1000 Ang^3
#
#
#
# Elastic Constant Matrix: (Units=GPa)
#
#
# Indices 1 2 3 4 5 6 
#
# 1 131.2964 70.0965 29.3427 0.0000 0.0000 0.0000
# 2 70.0965 145.8427 34.1002 0.0000 0.0000 0.0000
# 3 29.3427 34.1002 31.0049 0.0000 0.0000 0.0000
# 4 0.0000 0.0000 0.0000 30.1775 0.0000 0.0000
# 5 0.0000 0.0000 0.0000 0.0000 25.1325 0.0000
# 6 0.0000 0.0000 0.0000 0.0000 0.0000 38.0729
#
#
#
# Elastic Compliance Matrix: (Units=1/GPa)
#
#
# Indices 1 2 3 4 5 6 
#
# 1 0.011072 -0.003865 -0.006227 0.000000 0.000000 0.000000
# 2 -0.003865 0.010580 -0.007978 0.000000 0.000000 0.000000
# 3 -0.006227 -0.007978 0.046920 0.000000 0.000000 0.000000
# 4 0.000000 0.000000 0.000000 0.033137 0.000000 0.000000
# 5 0.000000 0.000000 0.000000 0.000000 0.039789 0.000000
# 6 0.000000 0.000000 0.000000 0.000000 0.000000 0.026265
#
#
# Mechanical properties :
#
#
# Convention : Reuss Voigt Hill
#
# Bulk Modulus (GPa) = 30.83411 63.91363 47.37387
# Shear Modulus (GPa) = 23.28679 30.31691 26.80185
#
# Velocity S-wave (km/s) = 3.52414 4.02107 3.78078
# Velocity P-wave (km/s) = 5.74493 7.45961 6.65770
#
# Compressibility (1/GPa) = 0.03243161
#
# Stress axis : x y z
#
# Youngs Moduli (GPa) = 90.32111 94.51865 21.31279
#
# Poissons Ratio (x) = 0.36536 0.13271
# Poissons Ratio (y) = 0.34913 0.17003
# Poissons Ratio (z) = 0.56240 0.75406
#
# Static dielectric constant tensor:
#      x y z
#    x 3.797760 0.000000 0.000000 
#    y 0.000000 3.644390 0.000000 
#    z 0.000000 0.000000 3.279740 
# 
# 
# High freq. dielectric constant tensor:
#      x y z
#    x 1.750260 0.000000 0.000000 
#    y 0.000000 1.733570 0.000000 
#    z 0.000000 0.000000 1.707690 
# 
# From -- ./inp_files/12399.got.cif
#   From: 2010.06.25/outbox.cif.g09.slc.cpg/sg71_7_cif.got.tgz:12399.got - 2010.06.28 04:59:45.
