data_PCOD8290958
_publ_section_title
;
Structure prediction by ZEFSAII (Michael W. Deem and Ramdas Pophale) SiO2 
 PCOD8290958
Probable space group: I M M M
;
_chemical_formula_sum "Si O2"
_cell_formula_units_Z 64
_cell_length_a 8.041428
_cell_length_b 21.916341
_cell_length_c 18.159826
_cell_angle_alpha 90.000000
_cell_angle_beta 90.000000
_cell_angle_gamma 90.000000
_cell_volume 3200.463730
_symmetry_space_group_name_H-M "I M M M"
_symmetry_group_IT_number 71
_symmetry_cell_setting 'orthorhombic'
loop_
_space_group_symop_operation_xyz
x,y,z
-x,-y,z
x,-y,-z
-x,y,-z
-x,-y,-z
x,y,-z
-x,y,z
x,-y,z
1/2+x,1/2+y,1/2+z
1/2-x,1/2-y,1/2+z
1/2+x,1/2-y,1/2-z
1/2-x,1/2+y,1/2-z
1/2-x,1/2-y,1/2-z
1/2+x,1/2+y,1/2-z
1/2-x,1/2+y,1/2+z
1/2+x,1/2-y,1/2+z
loop_
_atom_site_type_symbol
_atom_site_label
_atom_site_fract_x
_atom_site_fract_y
_atom_site_fract_z
Si Si1 0.815318 0.143210 0.413541
Si Si2 0.000000 0.431603 0.087867
Si Si3 0.192387 0.370235 0.584358
Si Si4 0.809575 0.244183 0.167203
Si Si5 0.186559 0.000000 0.087269
O O1 0.793420 0.149175 0.500000
O O2 0.668418 0.100293 0.381604
O O3 0.801274 0.210872 0.381552
O O4 0.000000 0.117031 0.394010
O O5 0.000000 0.500000 0.118901
O O6 0.000000 0.431254 0.000000
O O7 0.256886 0.364016 0.500000
O O8 0.291480 0.324377 0.636985
O O9 0.221353 0.438828 0.614858
O O10 0.000000 0.354065 0.589204
O O11 0.750000 0.250000 0.250000
O O12 0.000000 0.264407 0.161254
O O13 0.000000 0.000000 0.118500
O O14 0.189161 0.000000 0.000000
#
# Coordination Sequence:
#
# PCOD8290958 Si02
#       5
#    16   8  16  16   8
#     4  10  20  36  59  87 118 150 190 237 285 339
#     4   9  18  34  58  88 118 149 188 234 284 338
#     4  10  20  35  57  85 115 149 189 233 284 339
#     4  12  24  38  57  81 114 151 192 239 288 344
#     4   9  17  31  53  83 115 147 186 231 278 333
#
# _framework density 19.997101000000001
#
# number of rings (size 3 to 8) (size 9 to 14) (size 15 to 20)
#    0.000    1.750    1.250    4.125    0.000    6.500 
#    0.000    2.500    2.750    0.000    0.000    0.000 
#    0.000    0.000    0.000    0.000    0.000    0.000 
#
# Total GULP energy -396801.529298 kJ/mol
# GULP energy per Si atom -12400.047791 kJ/mol
# Density = 1.995159 g / cm^3
# Si number density = 19.997101 Si / 1000 Ang^3
#
#
#
# Elastic Constant Matrix: (Units=GPa)
#
#
# Indices 1 2 3 4 5 6 
#
# 1 139.4622 50.4333 36.8848 0.0000 0.0000 0.0000
# 2 50.4333 141.6879 39.6282 0.0000 0.0000 0.0000
# 3 36.8848 39.6282 44.3782 -0.0002 0.0000 0.0000
# 4 0.0000 0.0000 -0.0002 7.2889 0.0000 0.0000
# 5 0.0000 0.0000 0.0000 0.0000 22.6940 0.0000
# 6 0.0000 0.0000 0.0000 0.0000 0.0000 31.2584
#
#
#
# Elastic Compliance Matrix: (Units=1/GPa)
#
#
# Indices 1 2 3 4 5 6 
#
# 1 0.009441 -0.001554 -0.006459 0.000000 0.000000 0.000000
# 2 -0.001554 0.009663 -0.007337 0.000000 0.000000 0.000000
# 3 -0.006459 -0.007337 0.034454 0.000001 0.000000 0.000000
# 4 0.000000 0.000000 0.000001 0.137194 0.000000 0.000000
# 5 0.000000 0.000000 0.000000 0.000000 0.044064 0.000000
# 6 0.000000 0.000000 0.000000 0.000000 0.000000 0.031991
#
#
# Mechanical properties :
#
#
# Convention : Reuss Voigt Hill
#
# Bulk Modulus (GPa) = 43.74974 64.38010 54.06492
# Shear Modulus (GPa) = 16.38663 25.48707 20.93685
#
# Velocity S-wave (km/s) = 2.86571 3.57394 3.23924
# Velocity P-wave (km/s) = 5.73370 7.02106 6.40978
#
# Compressibility (1/GPa) = 0.02285728
#
# Stress axis : x y z
#
# Youngs Moduli (GPa) = 105.92567 103.48775 29.02437
#
# Poissons Ratio (x) = 0.16081 0.18747
# Poissons Ratio (y) = 0.16459 0.21296
# Poissons Ratio (z) = 0.68417 0.75931
#
# Static dielectric constant tensor:
#      x y z
#    x 3.944910 0.000000 0.000000 
#    y 0.000000 3.803490 0.000000 
#    z 0.000000 0.000000 2.891650 
# 
# 
# High freq. dielectric constant tensor:
#      x y z
#    x 1.799170 0.000000 0.000000 
#    y 0.000000 1.783170 0.000000 
#    z 0.000000 0.000000 1.736950 
# 
# From -- ./inp_files/41889.got.cif
#   From: 2010.06.25/outbox.cif.g09.slc.cpg/sg71_21_cif.got.tgz:41889.got - 2010.06.28 04:59:45.
