data_PCOD8290187
_publ_section_title
;
Structure prediction by ZEFSAII (Michael W. Deem and Ramdas Pophale) SiO2 
 PCOD8290187
Probable space group: I M M M
;
_chemical_formula_sum "Si O2"
_cell_formula_units_Z 104
_cell_length_a 8.393619
_cell_length_b 28.718351
_cell_length_c 22.600842
_cell_angle_alpha 90.000000
_cell_angle_beta 90.000000
_cell_angle_gamma 90.000000
_cell_volume 5447.953228
_symmetry_space_group_name_H-M "I M M M"
_symmetry_group_IT_number 71
_symmetry_cell_setting 'orthorhombic'
loop_
_space_group_symop_operation_xyz
x,y,z
-x,-y,z
x,-y,-z
-x,y,-z
-x,-y,-z
x,y,-z
-x,y,z
x,-y,z
1/2+x,1/2+y,1/2+z
1/2-x,1/2-y,1/2+z
1/2+x,1/2-y,1/2-z
1/2-x,1/2+y,1/2-z
1/2-x,1/2-y,1/2-z
1/2+x,1/2+y,1/2-z
1/2-x,1/2+y,1/2+z
1/2+x,1/2-y,1/2+z
loop_
_atom_site_type_symbol
_atom_site_label
_atom_site_fract_x
_atom_site_fract_y
_atom_site_fract_z
Si Si1 0.500000 0.053271 0.569551
Si Si2 0.683703 0.640602 0.363789
Si Si3 0.685685 0.220787 0.933225
Si Si4 0.819129 0.189263 0.635058
Si Si5 0.689572 0.447783 0.566924
Si Si6 0.317836 0.197833 0.245544
Si Si7 0.823891 0.097411 0.430562
O O1 0.500000 0.063850 0.500000
O O2 0.333229 0.072645 0.597263
O O3 0.500000 0.000000 0.585532
O O4 0.500000 0.633977 0.350577
O O5 0.712121 0.675472 0.418259
O O6 0.755871 0.590478 0.385557
O O7 0.756125 0.662802 0.304659
O O8 0.500000 0.210090 0.923128
O O9 0.744630 0.262115 0.890653
O O10 0.720432 0.235953 0.000000
O O11 0.714659 0.173563 0.691304
O O12 0.805063 0.151726 0.583142
O O13 0.000000 0.194765 0.656852
O O14 0.752352 0.437337 0.500000
O O15 0.500000 0.444881 0.566002
O O16 0.744326 0.500000 0.586205
O O17 0.500000 0.203973 0.231662
O O18 0.250000 0.250000 0.250000
O O19 0.823900 0.089329 0.500000
O O20 0.000000 0.079881 0.406308
#
# Coordination Sequence:
#
# PCOD8290187 Si02
#       7
#     8  16  16  16  16  16  16
#     4   9  18  32  52  80 112 142 178 224 272 330
#     4  11  21  34  54  80 110 144 186 232 274 327
#     4  10  20  33  51  76 110 148 179 217 272 326
#     4  10  20  35  55  77 106 143 184 224 269 330
#     4   8  15  30  54  84 115 145 180 227 281 332
#     4  12  24  38  55  76 105 144 188 231 275 325
#     4   9  18  33  54  80 111 145 182 226 280 339
#
# _framework density 19.089737
#
# number of rings (size 3 to 8) (size 9 to 14) (size 15 to 20)
#    0.000    2.077    1.538    3.231    1.077    3.077 
#    0.000    1.538    0.000    2.769    0.000    7.538 
#    0.000    0.000    0.000    0.000    0.000    0.000 
#
# Total GULP energy -644264.907587 kJ/mol
# GULP energy per Si atom -12389.709761 kJ/mol
# Density = 1.904629 g / cm^3
# Si number density = 19.089737 Si / 1000 Ang^3
#
#
#
# Elastic Constant Matrix: (Units=GPa)
#
#
# Indices 1 2 3 4 5 6 
#
# 1 96.2960 53.5687 27.5845 0.0000 0.0000 0.0000
# 2 53.5687 126.6949 43.5820 0.0000 0.0000 0.0000
# 3 27.5845 43.5820 88.1683 -0.0001 0.0000 0.0000
# 4 0.0000 0.0000 -0.0001 28.9594 0.0000 0.0000
# 5 0.0000 0.0000 0.0000 0.0000 22.2217 0.0000
# 6 0.0000 0.0000 0.0000 0.0000 0.0000 22.8542
#
#
#
# Elastic Compliance Matrix: (Units=1/GPa)
#
#
# Indices 1 2 3 4 5 6 
#
# 1 0.013793 -0.005238 -0.001726 0.000000 0.000000 0.000000
# 2 -0.005238 0.011499 -0.004045 0.000000 0.000000 0.000000
# 3 -0.001726 -0.004045 0.013882 0.000000 0.000000 0.000000
# 4 0.000000 0.000000 0.000000 0.034531 0.000000 0.000000
# 5 0.000000 0.000000 0.000000 0.000000 0.045001 0.000000
# 6 0.000000 0.000000 0.000000 0.000000 0.000000 0.043756
#
#
# Mechanical properties :
#
#
# Convention : Reuss Voigt Hill
#
# Bulk Modulus (GPa) = 58.29270 62.29217 60.29244
# Shear Modulus (GPa) = 26.28824 27.23534 26.76179
#
# Velocity S-wave (km/s) = 3.71494 3.78127 3.74825
# Velocity P-wave (km/s) = 7.00025 7.19486 7.09822
#
# Compressibility (1/GPa) = 0.01715481
#
# Stress axis : x y z
#
# Youngs Moduli (GPa) = 72.50025 86.96157 72.03781
#
# Poissons Ratio (x) = 0.45552 0.12434
# Poissons Ratio (y) = 0.37977 0.29142
# Poissons Ratio (z) = 0.12514 0.35179
#
# Static dielectric constant tensor:
#      x y z
#    x 3.738810 0.000000 0.000000 
#    y 0.000000 3.867850 0.000000 
#    z 0.000000 0.000000 3.675420 
# 
# 
# High freq. dielectric constant tensor:
#      x y z
#    x 1.736480 0.000000 0.000000 
#    y 0.000000 1.733080 0.000000 
#    z 0.000000 0.000000 1.724350 
# 
# From -- ./inp_files/58231.got.cif
#   From: 2010.06.25/outbox.cif.g09.slc.cpg/sg71_30_cif.got.tgz:58231.got - 2010.06.28 04:59:45.
