data_PCOD8290266
_publ_section_title
;
Structure prediction by ZEFSAII (Michael W. Deem and Ramdas Pophale) SiO2 
 PCOD8290266
Probable space group: I M M M
;
_chemical_formula_sum "Si O2"
_cell_formula_units_Z 104
_cell_length_a 9.766115
_cell_length_b 20.113199
_cell_length_c 29.686737
_cell_angle_alpha 90.000000
_cell_angle_beta 90.000000
_cell_angle_gamma 90.000000
_cell_volume 5831.300867
_symmetry_space_group_name_H-M "I M M M"
_symmetry_group_IT_number 71
_symmetry_cell_setting 'orthorhombic'
loop_
_space_group_symop_operation_xyz
x,y,z
-x,-y,z
x,-y,-z
-x,y,-z
-x,-y,-z
x,y,-z
-x,y,z
x,-y,z
1/2+x,1/2+y,1/2+z
1/2-x,1/2-y,1/2+z
1/2+x,1/2-y,1/2-z
1/2-x,1/2+y,1/2-z
1/2-x,1/2-y,1/2-z
1/2+x,1/2+y,1/2-z
1/2-x,1/2+y,1/2+z
1/2+x,1/2-y,1/2+z
loop_
_atom_site_type_symbol
_atom_site_label
_atom_site_fract_x
_atom_site_fract_y
_atom_site_fract_z
Si Si1 0.770006 0.823037 0.448380
Si Si2 0.000000 0.073814 0.447388
Si Si3 0.161704 0.926936 0.214027
Si Si4 0.652073 0.173622 0.949851
Si Si5 0.846949 0.140424 0.125851
Si Si6 0.851242 0.294012 0.142230
Si Si7 0.835025 0.193466 0.723735
O O1 0.712174 0.831737 0.500000
O O2 0.866501 0.884237 0.434248
O O3 0.849270 0.753376 0.444511
O O4 0.655807 0.821537 0.409262
O O5 0.000000 0.063444 0.500000
O O6 0.000000 0.000000 0.424233
O O7 0.219286 0.904035 0.165461
O O8 0.202157 0.875981 0.252903
O O9 0.000000 0.928452 0.209218
O O10 0.220323 0.000000 0.226054
O O11 0.500000 0.148553 0.938947
O O12 0.754144 0.133755 0.918000
O O13 0.697055 0.154235 0.000000
O O14 0.848929 0.214953 0.143850
O O15 0.000000 0.117113 0.112898
O O16 0.724044 0.316659 0.173293
O O17 0.000000 0.317898 0.160943
O O18 0.750000 0.250000 0.750000
O O19 0.000000 0.208149 0.722993
#
# Coordination Sequence:
#
# PCOD8290266 Si02
#       7
#    16   8  16  16  16  16  16
#     4   9  17  30  49  73 104 137 172 216 266 310
#     4   9  16  28  48  72 100 136 181 227 263 313
#     4   9  18  35  56  77 103 134 171 218 266 311
#     4   9  16  27  45  71 104 135 163 207 260 307
#     4   9  17  30  49  75 101 130 170 212 254 304
#     4  10  20  33  52  80 109 135 172 217 266 319
#     4  11  21  35  57  81 107 139 179 222 268 318
#
# _framework density 17.834785
#
# number of rings (size 3 to 8) (size 9 to 14) (size 15 to 20)
#    0.000    2.538    2.308    0.462    1.077    1.231 
#    0.000    3.846    0.000    6.000    0.000    5.385 
#    0.000    0.000    0.000    0.000    0.000    0.000 
#
# Total GULP energy -644245.358275 kJ/mol
# GULP energy per Si atom -12389.333813 kJ/mol
# Density = 1.779419 g / cm^3
# Si number density = 17.834785 Si / 1000 Ang^3
#
#
#
# Elastic Constant Matrix: (Units=GPa)
#
#
# Indices 1 2 3 4 5 6 
#
# 1 88.6567 26.7641 57.9738 0.0000 0.0000 0.0000
# 2 26.7641 82.0372 37.8467 0.0000 0.0000 0.0000
# 3 57.9738 37.8467 119.3010 0.0000 0.0000 0.0000
# 4 0.0000 0.0000 0.0000 21.0043 0.0000 0.0000
# 5 0.0000 0.0000 0.0000 0.0000 29.7433 0.0000
# 6 0.0000 0.0000 0.0000 0.0000 0.0000 17.7269
#
#
#
# Elastic Compliance Matrix: (Units=1/GPa)
#
#
# Indices 1 2 3 4 5 6 
#
# 1 0.016811 -0.002010 -0.007532 0.000000 0.000000 0.000000
# 2 -0.002010 0.014520 -0.003629 0.000000 0.000000 0.000000
# 3 -0.007532 -0.003629 0.013194 0.000000 0.000000 0.000000
# 4 0.000000 0.000000 0.000000 0.047609 0.000000 0.000000
# 5 0.000000 0.000000 0.000000 0.000000 0.033621 0.000000
# 6 0.000000 0.000000 0.000000 0.000000 0.000000 0.056411
#
#
# Mechanical properties :
#
#
# Convention : Reuss Voigt Hill
#
# Bulk Modulus (GPa) = 54.99849 59.46269 57.23059
# Shear Modulus (GPa) = 23.30247 24.85559 24.07903
#
# Velocity S-wave (km/s) = 3.61858 3.73722 3.67838
# Velocity P-wave (km/s) = 6.95439 7.21358 7.08517
#
# Compressibility (1/GPa) = 0.01818232
#
# Stress axis : x y z
#
# Youngs Moduli (GPa) = 59.48359 68.87183 75.79426
#
# Poissons Ratio (x) = 0.13843 0.57087
# Poissons Ratio (y) = 0.11956 0.27509
# Poissons Ratio (z) = 0.44802 0.24997
#
# Static dielectric constant tensor:
#      x y z
#    x 3.242670 0.000000 0.000000 
#    y 0.000000 3.404210 0.000000 
#    z 0.000000 0.000000 3.383530 
# 
# 
# High freq. dielectric constant tensor:
#      x y z
#    x 1.672020 0.000000 0.000000 
#    y 0.000000 1.660500 0.000000 
#    z 0.000000 0.000000 1.694390 
# 
# From -- ./inp_files/68273.got.cif
#   From: 2010.06.25/outbox.cif.g09.slc.cpg/sg71_35_cif.got.tgz:68273.got - 2010.06.28 04:59:45.
