data_PCOD8290267
_publ_section_title
;
Structure prediction by ZEFSAII (Michael W. Deem and Ramdas Pophale) SiO2 
 PCOD8290267
Probable space group: I M M M
;
_chemical_formula_sum "Si O2"
_cell_formula_units_Z 96
_cell_length_a 23.805290
_cell_length_b 23.133948
_cell_length_c 9.072549
_cell_angle_alpha 90.000000
_cell_angle_beta 90.000000
_cell_angle_gamma 90.000000
_cell_volume 4996.346553
_symmetry_space_group_name_H-M "I M M M"
_symmetry_group_IT_number 71
_symmetry_cell_setting 'orthorhombic'
loop_
_space_group_symop_operation_xyz
x,y,z
-x,-y,z
x,-y,-z
-x,y,-z
-x,-y,-z
x,y,-z
-x,y,z
x,-y,z
1/2+x,1/2+y,1/2+z
1/2-x,1/2-y,1/2+z
1/2+x,1/2-y,1/2-z
1/2-x,1/2+y,1/2-z
1/2-x,1/2-y,1/2-z
1/2+x,1/2+y,1/2-z
1/2-x,1/2+y,1/2+z
1/2+x,1/2-y,1/2+z
loop_
_atom_site_type_symbol
_atom_site_label
_atom_site_fract_x
_atom_site_fract_y
_atom_site_fract_z
Si Si1 0.433482 0.939084 0.164053
Si Si2 0.064184 0.313988 0.324287
Si Si3 0.061748 0.068593 0.165216
Si Si4 0.171301 0.932056 0.329390
Si Si5 0.833600 0.729461 0.828631
Si Si6 0.740527 0.660346 0.671514
O O1 0.500000 0.937636 0.151860
O O2 0.416362 0.877936 0.237382
O O3 0.414722 0.000000 0.245138
O O4 0.407899 0.940755 0.000000
O O5 0.071359 0.310761 0.500000
O O6 0.104370 0.268408 0.243026
O O7 0.000000 0.300046 0.280002
O O8 0.110347 0.090512 0.274218
O O9 0.000000 0.091341 0.216583
O O10 0.060633 0.000000 0.164747
O O11 0.074929 0.091261 0.000000
O O12 0.176225 0.916308 0.500000
O O13 0.220366 0.899903 0.240972
O O14 0.178736 0.000000 0.299917
O O15 0.797759 0.679655 0.749266
O O16 0.807249 0.792014 0.799979
O O17 0.837013 0.714579 0.000000
O O18 0.752988 0.651310 0.500000
#
# Coordination Sequence:
#
# PCOD8290267 Si02
#       6
#    16  16  16  16  16  16
#     4   7  10  19  38  65  96 129 165 202 237 279
#     4   9  17  30  51  79 108 138 173 213 258 310
#     4   8  14  26  45  69  99 137 177 211 246 298
#     4  10  20  33  52  80 111 138 166 210 267 317
#     4  10  21  37  57  79 102 132 173 220 266 309
#     4  10  21  38  59  78  98 133 179 219 257 310
#
# _framework density 19.214041000000002
#
# number of rings (size 3 to 8) (size 9 to 14) (size 15 to 20)
#    0.000    3.000    0.000    3.500    0.000    3.667 
#    0.000    3.333    0.000    4.500    0.000    2.333 
#    0.000    0.000    0.000    0.000    0.000    0.000 
#
# Total GULP energy -594719.089961 kJ/mol
# GULP energy per Si atom -12389.981041 kJ/mol
# Density = 1.917031 g / cm^3
# Si number density = 19.214041 Si / 1000 Ang^3
#
#
#
# Elastic Constant Matrix: (Units=GPa)
#
#
# Indices 1 2 3 4 5 6 
#
# 1 94.7277 31.6033 52.3043 0.0000 0.0000 0.0000
# 2 31.6033 41.7557 33.5689 0.0000 0.0000 0.0000
# 3 52.3043 33.5689 91.5560 0.0000 0.0000 0.0000
# 4 0.0000 0.0000 0.0000 24.0200 0.0000 0.0000
# 5 0.0000 0.0000 0.0000 0.0000 33.4205 0.0000
# 6 0.0000 0.0000 0.0000 0.0000 0.0000 22.6864
#
#
#
# Elastic Compliance Matrix: (Units=1/GPa)
#
#
# Indices 1 2 3 4 5 6 
#
# 1 0.016777 -0.007080 -0.006989 0.000000 0.000000 0.000000
# 2 -0.007080 0.036946 -0.009502 0.000000 0.000000 0.000000
# 3 -0.006989 -0.009502 0.018399 0.000000 0.000000 0.000000
# 4 0.000000 0.000000 0.000000 0.041632 0.000000 0.000000
# 5 0.000000 0.000000 0.000000 0.000000 0.029922 0.000000
# 6 0.000000 0.000000 0.000000 0.000000 0.000000 0.044079
#
#
# Mechanical properties :
#
#
# Convention : Reuss Voigt Hill
#
# Bulk Modulus (GPa) = 40.02946 51.44358 45.73652
# Shear Modulus (GPa) = 20.55729 23.39625 21.97677
#
# Velocity S-wave (km/s) = 3.27450 3.49329 3.38566
# Velocity P-wave (km/s) = 5.93086 6.56528 6.25611
#
# Compressibility (1/GPa) = 0.02498160
#
# Stress axis : x y z
#
# Youngs Moduli (GPa) = 59.60380 27.06659 54.35158
#
# Poissons Ratio (x) = 0.19162 0.37986
# Poissons Ratio (y) = 0.42197 0.51643
# Poissons Ratio (z) = 0.41657 0.25718
#
# Static dielectric constant tensor:
#      x y z
#    x 3.477440 0.000000 0.000000 
#    y 0.000000 3.590450 0.000000 
#    z 0.000000 0.000000 3.317860 
# 
# 
# High freq. dielectric constant tensor:
#      x y z
#    x 1.736520 0.000000 0.000000 
#    y 0.000000 1.734370 0.000000 
#    z 0.000000 0.000000 1.725240 
# 
# From -- ./inp_files/12854.got.cif
#   From: 2010.06.25/outbox.cif.g09.slc.cpg/sg71_7_cif.got.tgz:12854.got - 2010.06.28 04:59:45.
