data_PCOD8290255
_publ_section_title
;
Structure prediction by ZEFSAII (Michael W. Deem and Ramdas Pophale) SiO2 
 PCOD8290255
Probable space group: I M M M
;
_chemical_formula_sum "Si O2"
_cell_formula_units_Z 88
_cell_length_a 19.919420
_cell_length_b 25.239632
_cell_length_c 8.742360
_cell_angle_alpha 90.000000
_cell_angle_beta 90.000000
_cell_angle_gamma 90.000000
_cell_volume 4395.298689
_symmetry_space_group_name_H-M "I M M M"
_symmetry_group_IT_number 71
_symmetry_cell_setting 'orthorhombic'
loop_
_space_group_symop_operation_xyz
x,y,z
-x,-y,z
x,-y,-z
-x,y,-z
-x,-y,-z
x,y,-z
-x,y,z
x,-y,z
1/2+x,1/2+y,1/2+z
1/2-x,1/2-y,1/2+z
1/2+x,1/2-y,1/2-z
1/2-x,1/2+y,1/2-z
1/2-x,1/2-y,1/2-z
1/2+x,1/2+y,1/2-z
1/2-x,1/2+y,1/2+z
1/2+x,1/2-y,1/2+z
loop_
_atom_site_type_symbol
_atom_site_label
_atom_site_fract_x
_atom_site_fract_y
_atom_site_fract_z
Si Si1 0.680400 0.589320 0.321181
Si Si2 0.925001 0.743862 0.326814
Si Si3 0.577875 0.500000 0.317549
Si Si4 0.697073 0.708395 0.677535
Si Si5 0.926395 0.634468 0.825349
Si Si6 0.189325 0.441673 0.829121
O O1 0.669758 0.595802 0.500000
O O2 0.616967 0.553761 0.258573
O O3 0.693530 0.648596 0.251096
O O4 0.747587 0.557633 0.283546
O O5 0.899416 0.753256 0.500000
O O6 0.877922 0.771541 0.203862
O O7 0.923898 0.682002 0.293261
O O8 0.000000 0.766870 0.305847
O O9 0.500000 0.500000 0.258466
O O10 0.579408 0.500000 0.500000
O O11 0.714970 0.706109 0.500000
O O12 0.750000 0.750000 0.750000
O O13 0.869856 0.594859 0.765919
O O14 0.000000 0.607454 0.817301
O O15 0.912205 0.653343 0.000000
O O16 0.158366 0.500000 0.832821
O O17 0.212075 0.424219 0.000000
#
# Coordination Sequence:
#
# PCOD8290255 Si02
#       6
#    16  16   8  16  16  16
#     4  10  21  37  58  82 108 142 184 230 282 341
#     4  10  21  37  56  79 110 147 185 227 279 336
#     4   9  18  36  61  85 108 137 180 236 289 335
#     4  11  23  37  57  86 116 150 192 237 287 344
#     4   9  18  33  53  77 107 145 187 228 268 316
#     4  10  20  33  52  78 108 143 179 220 273 328
#
# _framework density 20.021393
#
# number of rings (size 3 to 8) (size 9 to 14) (size 15 to 20)
#    0.000    2.091    0.909    2.182    0.000    7.273 
#    0.000    3.636    0.000    1.091    0.000    3.818 
#    0.000    0.000    0.000    0.000    0.000    0.000 
#
# Total GULP energy -545139.057984 kJ/mol
# GULP energy per Si atom -12389.524045 kJ/mol
# Density = 1.997582 g / cm^3
# Si number density = 20.021393 Si / 1000 Ang^3
#
#
#
# Elastic Constant Matrix: (Units=GPa)
#
#
# Indices 1 2 3 4 5 6 
#
# 1 120.0936 57.9968 18.4322 0.0000 0.0000 0.0000
# 2 57.9968 117.1642 16.5040 0.0000 0.0000 0.0000
# 3 18.4322 16.5040 25.1075 0.0000 0.0000 0.0000
# 4 0.0000 0.0000 0.0000 20.5432 0.0000 0.0000
# 5 0.0000 0.0000 0.0000 0.0000 28.4044 0.0000
# 6 0.0000 0.0000 0.0000 0.0000 0.0000 38.5028
#
#
#
# Elastic Compliance Matrix: (Units=1/GPa)
#
#
# Indices 1 2 3 4 5 6 
#
# 1 0.011526 -0.004974 -0.005192 0.000000 0.000000 0.000000
# 2 -0.004974 0.011552 -0.003942 0.000000 0.000000 0.000000
# 3 -0.005192 -0.003942 0.046232 0.000000 0.000000 0.000000
# 4 0.000000 0.000000 0.000000 0.048678 0.000000 0.000000
# 5 0.000000 0.000000 0.000000 0.000000 0.035206 0.000000
# 6 0.000000 0.000000 0.000000 0.000000 0.000000 0.025972
#
#
# Mechanical properties :
#
#
# Convention : Reuss Voigt Hill
#
# Bulk Modulus (GPa) = 24.33469 49.80349 37.06909
# Shear Modulus (GPa) = 22.61626 28.78557 25.70091
#
# Velocity S-wave (km/s) = 3.36461 3.79587 3.58672
# Velocity P-wave (km/s) = 5.22253 6.64384 5.97559
#
# Compressibility (1/GPa) = 0.04109360
#
# Stress axis : x y z
#
# Youngs Moduli (GPa) = 86.76208 86.56152 21.63022
#
# Poissons Ratio (x) = 0.43055 0.11230
# Poissons Ratio (y) = 0.43155 0.08527
# Poissons Ratio (z) = 0.45046 0.34125
#
# Static dielectric constant tensor:
#      x y z
#    x 3.818230 0.000000 0.000000 
#    y 0.000000 3.850130 0.000000 
#    z 0.000000 0.000000 3.392640 
# 
# 
# High freq. dielectric constant tensor:
#      x y z
#    x 1.787750 0.000000 0.000000 
#    y 0.000000 1.781450 0.000000 
#    z 0.000000 0.000000 1.758650 
# 
# From -- ./inp_files/10383.got.cif
#   From: 2010.06.25/outbox.cif.g09.slc.cpg/sg71_6_cif.got.tgz:10383.got - 2010.06.28 04:59:45.
