data_PCOD8290440
_publ_section_title
;
Structure prediction by ZEFSAII (Michael W. Deem and Ramdas Pophale) SiO2 
 PCOD8290440
Probable space group: I M M M
;
_chemical_formula_sum "Si O2"
_cell_formula_units_Z 96
_cell_length_a 14.312710
_cell_length_b 14.310047
_cell_length_c 27.452771
_cell_angle_alpha 90.000000
_cell_angle_beta 90.000000
_cell_angle_gamma 90.000000
_cell_volume 5622.754468
_symmetry_space_group_name_H-M "I M M M"
_symmetry_group_IT_number 71
_symmetry_cell_setting 'orthorhombic'
loop_
_space_group_symop_operation_xyz
x,y,z
-x,-y,z
x,-y,-z
-x,y,-z
-x,-y,-z
x,y,-z
-x,y,z
x,-y,z
1/2+x,1/2+y,1/2+z
1/2-x,1/2-y,1/2+z
1/2+x,1/2-y,1/2-z
1/2-x,1/2+y,1/2-z
1/2-x,1/2-y,1/2-z
1/2+x,1/2+y,1/2-z
1/2-x,1/2+y,1/2+z
1/2+x,1/2-y,1/2+z
loop_
_atom_site_type_symbol
_atom_site_label
_atom_site_fract_x
_atom_site_fract_y
_atom_site_fract_z
Si Si1 0.672549 0.606575 0.121705
Si Si2 0.500000 0.102894 0.443243
Si Si3 0.607119 0.226197 0.282229
Si Si4 0.000000 0.109888 0.555671
Si Si5 0.210353 0.108535 0.267313
Si Si6 0.108799 0.103914 0.054945
Si Si7 0.350836 0.779009 0.392013
O O1 0.699442 0.500000 0.108816
O O2 0.586385 0.641313 0.089118
O O3 0.660439 0.615807 0.179955
O O4 0.750286 0.677768 0.106468
O O5 0.500000 0.089140 0.500000
O O6 0.590749 0.160057 0.429296
O O7 0.500000 0.000000 0.418005
O O8 0.500000 0.209213 0.262349
O O9 0.682111 0.147026 0.265255
O O10 0.645054 0.328846 0.267513
O O11 0.599565 0.221298 0.340092
O O12 0.000000 0.152866 0.500000
O O13 0.000000 0.000000 0.549826
O O14 0.212096 0.000000 0.250075
O O15 0.163623 0.173573 0.089839
O O16 0.000000 0.129564 0.056519
O O17 0.126531 0.000000 0.074832
O O18 0.146133 0.113067 0.000000
#
# Coordination Sequence:
#
# PCOD8290440 Si02
#       7
#    16   8  16   8  16  16  16
#     4   9  19  34  52  74 101 136 169 204 259 317
#     4  11  22  32  46  73 109 145 175 200 239 307
#     4  10  20  34  52  79 106 134 176 218 260 315
#     4   9  18  32  49  72  99 127 170 219 252 290
#     4   9  20  36  53  76 106 138 173 214 264 319
#     4   9  17  29  45  65  93 132 173 207 243 290
#     4  11  19  33  50  74 105 137 168 211 257 304
#
# _framework density 17.073483
#
# number of rings (size 3 to 8) (size 9 to 14) (size 15 to 20)
#    0.000    2.333    1.667    1.500    1.167    3.333 
#    0.000    1.667    0.000    0.000    0.000    0.583 
#    0.000    2.000    0.000    0.000    0.000    0.000 
#
# Total GULP energy -594817.787257 kJ/mol
# GULP energy per Si atom -12392.037235 kJ/mol
# Density = 1.703462 g / cm^3
# Si number density = 17.073483 Si / 1000 Ang^3
#
#
#
# Elastic Constant Matrix: (Units=GPa)
#
#
# Indices 1 2 3 4 5 6 
#
# 1 94.3468 40.7446 39.1767 0.0000 0.0000 0.0000
# 2 40.7446 106.3465 29.3301 0.0000 0.0000 0.0000
# 3 39.1767 29.3301 48.0146 0.0000 0.0000 0.0000
# 4 0.0000 0.0000 0.0000 26.4035 0.0000 0.0000
# 5 0.0000 0.0000 0.0000 0.0000 25.4768 0.0000
# 6 0.0000 0.0000 0.0000 0.0000 0.0000 20.0541
#
#
#
# Elastic Compliance Matrix: (Units=1/GPa)
#
#
# Indices 1 2 3 4 5 6 
#
# 1 0.016896 -0.003212 -0.011824 0.000000 0.000000 0.000000
# 2 -0.003212 0.011919 -0.004660 0.000000 0.000000 0.000000
# 3 -0.011824 -0.004660 0.033321 0.000000 0.000000 0.000000
# 4 0.000000 0.000000 0.000000 0.037874 0.000000 0.000000
# 5 0.000000 0.000000 0.000000 0.000000 0.039251 0.000000
# 6 0.000000 0.000000 0.000000 0.000000 0.000000 0.049865
#
#
# Mechanical properties :
#
#
# Convention : Reuss Voigt Hill
#
# Bulk Modulus (GPa) = 43.96728 51.91228 47.93978
# Shear Modulus (GPa) = 21.17744 23.68398 22.43071
#
# Velocity S-wave (km/s) = 3.52571 3.72853 3.62854
# Velocity P-wave (km/s) = 6.51014 7.00051 6.75977
#
# Compressibility (1/GPa) = 0.02274419
#
# Stress axis : x y z
#
# Youngs Moduli (GPa) = 59.18456 83.89845 30.01119
#
# Poissons Ratio (x) = 0.26952 0.35485
# Poissons Ratio (y) = 0.19013 0.13984
# Poissons Ratio (z) = 0.69979 0.39094
#
# Static dielectric constant tensor:
#      x y z
#    x 3.093600 0.000000 0.000000 
#    y 0.000000 3.291420 0.000000 
#    z 0.000000 0.000000 3.239810 
# 
# 
# High freq. dielectric constant tensor:
#      x y z
#    x 1.644600 0.000000 0.000000 
#    y 0.000000 1.657480 0.000000 
#    z 0.000000 0.000000 1.655450 
# 
# From -- ./inp_files/35027.got.cif
#   From: 2010.06.25/outbox.cif.g09.slc.cpg/sg71_18_cif.got.tgz:35027.got - 2010.06.28 04:59:45.
