data_PCOD8290330
_publ_section_title
;
Structure prediction by ZEFSAII (Michael W. Deem and Ramdas Pophale) SiO2 
 PCOD8290330
Probable space group: I M M M
;
_chemical_formula_sum "Si O2"
_cell_formula_units_Z 72
_cell_length_a 24.962991
_cell_length_b 15.326803
_cell_length_c 10.283725
_cell_angle_alpha 90.000000
_cell_angle_beta 90.000000
_cell_angle_gamma 90.000000
_cell_volume 3934.582446
_symmetry_space_group_name_H-M "I M M M"
_symmetry_group_IT_number 71
_symmetry_cell_setting 'orthorhombic'
loop_
_space_group_symop_operation_xyz
x,y,z
-x,-y,z
x,-y,-z
-x,y,-z
-x,-y,-z
x,y,-z
-x,y,z
x,-y,z
1/2+x,1/2+y,1/2+z
1/2-x,1/2-y,1/2+z
1/2+x,1/2-y,1/2-z
1/2-x,1/2+y,1/2-z
1/2-x,1/2-y,1/2-z
1/2+x,1/2+y,1/2-z
1/2-x,1/2+y,1/2+z
1/2+x,1/2-y,1/2+z
loop_
_atom_site_type_symbol
_atom_site_label
_atom_site_fract_x
_atom_site_fract_y
_atom_site_fract_z
Si Si1 0.000000 0.401910 0.653552
Si Si2 0.318639 0.000000 0.153732
Si Si3 0.121751 0.848426 0.754141
Si Si4 0.062721 0.901833 0.000000
Si Si5 0.058257 0.100460 0.500000
Si Si6 0.615070 0.834348 0.154875
Si Si7 0.696820 0.500000 0.655943
O O1 0.053268 0.349907 0.697438
O O2 0.000000 0.500000 0.713543
O O3 0.000000 0.412014 0.500000
O O4 0.349398 0.914827 0.204675
O O5 0.257958 0.000000 0.204081
O O6 0.320760 0.000000 0.000000
O O7 0.091064 0.876673 0.626376
O O8 0.139850 0.748843 0.730559
O O9 0.171285 0.912295 0.783941
O O10 0.080974 0.850171 0.873602
O O11 0.000000 0.909068 0.000000
O O12 0.087979 0.000000 0.000000
O O13 0.000000 0.149126 0.500000
O O14 0.046285 0.000000 0.500000
O O15 0.619169 0.819835 0.000000
O O16 0.692480 0.500000 0.500000
#
# Coordination Sequence:
#
# PCOD8290330 Si02
#       7
#     8   8  16   8   8  16   8
#     4   9  16  30  54  82 121 148 178 229 293 344
#     4   9  20  39  59  81 113 151 201 244 285 335
#     4  12  21  36  58  85 120 147 194 235 289 341
#     4  11  22  38  56  78 116 166 202 223 268 350
#     4  11  22  34  52  84 122 154 182 233 292 344
#     4  10  20  33  56  91 118 147 185 238 293 347
#     4  11  22  41  59  76 111 163 203 238 275 339
#
# _framework density 18.299274
#
# number of rings (size 3 to 8) (size 9 to 14) (size 15 to 20)
#    0.000    1.444    5.556    0.667    3.111    2.667 
#    0.000    0.000    0.000    2.000    0.000    1.556 
#    0.000    0.000    0.000    0.000    0.000    0.000 
#
# Total GULP energy -446318.249154 kJ/mol
# GULP energy per Si atom -12397.729143 kJ/mol
# Density = 1.825762 g / cm^3
# Si number density = 18.299274 Si / 1000 Ang^3
#
#
#
# Elastic Constant Matrix: (Units=GPa)
#
#
# Indices 1 2 3 4 5 6 
#
# 1 143.7330 70.6696 38.8320 0.0000 0.0000 0.0000
# 2 70.6696 168.2965 40.2605 0.0000 0.0000 0.0000
# 3 38.8320 40.2605 95.1836 0.0000 0.0000 0.0000
# 4 0.0000 0.0000 0.0000 17.3408 0.0000 0.0000
# 5 0.0000 0.0000 0.0000 0.0000 18.5114 0.0000
# 6 0.0000 0.0000 0.0000 0.0000 0.0000 42.9853
#
#
#
# Elastic Compliance Matrix: (Units=1/GPa)
#
#
# Indices 1 2 3 4 5 6 
#
# 1 0.009222 -0.003307 -0.002363 0.000000 0.000000 0.000000
# 2 -0.003307 0.007797 -0.001949 0.000000 0.000000 0.000000
# 3 -0.002363 -0.001949 0.012294 0.000000 0.000000 0.000000
# 4 0.000000 0.000000 0.000000 0.057668 0.000000 0.000000
# 5 0.000000 0.000000 0.000000 0.000000 0.054021 0.000000
# 6 0.000000 0.000000 0.000000 0.000000 0.000000 0.023264
#
#
# Mechanical properties :
#
#
# Convention : Reuss Voigt Hill
#
# Bulk Modulus (GPa) = 71.04896 78.52637 74.78766
# Shear Modulus (GPa) = 27.14518 32.93090 30.03804
#
# Velocity S-wave (km/s) = 3.85567 4.24674 4.05592
# Velocity P-wave (km/s) = 7.66368 8.18852 7.93044
#
# Compressibility (1/GPa) = 0.01407480
#
# Stress axis : x y z
#
# Youngs Moduli (GPa) = 108.43862 128.25944 81.33730
#
# Poissons Ratio (x) = 0.42415 0.19224
# Poissons Ratio (y) = 0.35860 0.15850
# Poissons Ratio (z) = 0.25629 0.24994
#
# Static dielectric constant tensor:
#      x y z
#    x 3.474930 0.000000 0.000000 
#    y 0.000000 3.759930 0.000000 
#    z 0.000000 0.000000 3.090860 
# 
# 
# High freq. dielectric constant tensor:
#      x y z
#    x 1.708840 0.000000 0.000000 
#    y 0.000000 1.721060 0.000000 
#    z 0.000000 0.000000 1.677240 
# 
# From -- ./inp_files/14408.got.cif
#   From: 2010.06.25/outbox.cif.g09.slc.cpg/sg71_8_cif.got.tgz:14408.got - 2010.06.28 04:59:45.
