data_PCOD8290836
_publ_section_title
;
Structure prediction by ZEFSAII (Michael W. Deem and Ramdas Pophale) SiO2 
 PCOD8290836
Probable space group: I M M M
;
_chemical_formula_sum "Si O2"
_cell_formula_units_Z 104
_cell_length_a 27.731617
_cell_length_b 9.198147
_cell_length_c 20.911131
_cell_angle_alpha 90.000000
_cell_angle_beta 90.000000
_cell_angle_gamma 90.000000
_cell_volume 5334.000625
_symmetry_space_group_name_H-M "I M M M"
_symmetry_group_IT_number 71
_symmetry_cell_setting 'orthorhombic'
loop_
_space_group_symop_operation_xyz
x,y,z
-x,-y,z
x,-y,-z
-x,y,-z
-x,-y,-z
x,y,-z
-x,y,z
x,-y,z
1/2+x,1/2+y,1/2+z
1/2-x,1/2-y,1/2+z
1/2+x,1/2-y,1/2-z
1/2-x,1/2+y,1/2-z
1/2-x,1/2-y,1/2-z
1/2+x,1/2+y,1/2-z
1/2-x,1/2+y,1/2+z
1/2+x,1/2-y,1/2+z
loop_
_atom_site_type_symbol
_atom_site_label
_atom_site_fract_x
_atom_site_fract_y
_atom_site_fract_z
Si Si1 0.733780 0.664640 0.570916
Si Si2 0.302283 0.670373 0.158995
Si Si3 0.553653 0.832866 0.171087
Si Si4 0.626890 0.334470 0.608654
Si Si5 0.892635 0.169181 0.571439
Si Si6 0.359947 0.171442 0.738872
Si Si7 0.445117 0.327353 0.500000
O O1 0.751580 0.714078 0.500000
O O2 0.751188 0.500000 0.584853
O O3 0.753566 0.768047 0.627291
O O4 0.676128 0.671811 0.569021
O O5 0.295941 0.500000 0.172758
O O6 0.343593 0.706377 0.108019
O O7 0.314778 0.750058 0.225934
O O8 0.500000 0.799460 0.196483
O O9 0.562565 0.745242 0.105980
O O10 0.590776 0.784650 0.225555
O O11 0.560768 0.000000 0.153646
O O12 0.616586 0.500000 0.631673
O O13 0.632696 0.227813 0.667967
O O14 0.583422 0.275728 0.563627
O O15 0.887893 0.231004 0.500000
O O16 0.903432 0.000000 0.571278
O O17 0.349948 0.000000 0.738439
O O18 0.445584 0.500000 0.500000
O O19 0.500000 0.265030 0.500000
#
# Coordination Sequence:
#
# PCOD8290836 Si02
#       7
#    16  16  16  16  16  16   8
#     4  10  20  35  56  81 112 149 184 222 272 330
#     4  10  20  35  55  80 109 145 187 230 273 321
#     4   9  19  35  52  71  99 136 177 220 266 318
#     4  10  20  37  59  84 113 144 179 223 275 328
#     4   9  18  32  49  72 104 137 172 219 270 315
#     4  10  21  37  56  79 109 145 184 227 276 333
#     4   9  18  36  63  91 117 147 187 233 282 341
#
# _framework density 19.497561000000001
#
# number of rings (size 3 to 8) (size 9 to 14) (size 15 to 20)
#    0.000    2.385    0.769    1.385    0.000    4.923 
#    0.000    1.923    0.000    0.462    0.000    0.000 
#    0.000    0.000    0.000    0.000    0.000    0.000 
#
# Total GULP energy -644791.099863 kJ/mol
# GULP energy per Si atom -12399.828844 kJ/mol
# Density = 1.945318 g / cm^3
# Si number density = 19.497561 Si / 1000 Ang^3
#
#
#
# Elastic Constant Matrix: (Units=GPa)
#
#
# Indices 1 2 3 4 5 6 
#
# 1 89.4322 31.4581 34.8241 0.0000 0.0000 0.0000
# 2 31.4581 71.7427 48.6611 0.0000 0.0000 0.0000
# 3 34.8241 48.6611 127.1629 0.0000 0.0000 0.0000
# 4 0.0000 0.0000 0.0000 30.4639 0.0000 0.0000
# 5 0.0000 0.0000 0.0000 0.0000 25.1568 0.0000
# 6 0.0000 0.0000 0.0000 0.0000 0.0000 23.7255
#
#
#
# Elastic Compliance Matrix: (Units=1/GPa)
#
#
# Indices 1 2 3 4 5 6 
#
# 1 0.013567 -0.004631 -0.001943 0.000000 0.000000 0.000000
# 2 -0.004631 0.020405 -0.006540 0.000000 0.000000 0.000000
# 3 -0.001943 -0.006540 0.010899 0.000000 0.000000 0.000000
# 4 0.000000 0.000000 0.000000 0.032826 0.000000 0.000000
# 5 0.000000 0.000000 0.000000 0.000000 0.039751 0.000000
# 6 0.000000 0.000000 0.000000 0.000000 0.000000 0.042149
#
#
# Mechanical properties :
#
#
# Convention : Reuss Voigt Hill
#
# Bulk Modulus (GPa) = 53.64103 57.58048 55.61076
# Shear Modulus (GPa) = 26.03622 27.42886 26.73254
#
# Velocity S-wave (km/s) = 3.65822 3.75478 3.70681
# Velocity P-wave (km/s) = 6.73905 6.95659 6.84868
#
# Compressibility (1/GPa) = 0.01864245
#
# Stress axis : x y z
#
# Youngs Moduli (GPa) = 73.70646 49.00669 91.75254
#
# Poissons Ratio (x) = 0.22695 0.17831
# Poissons Ratio (y) = 0.34133 0.60009
# Poissons Ratio (z) = 0.14324 0.32052
#
# Static dielectric constant tensor:
#      x y z
#    x 3.645540 0.000000 0.000000 
#    y 0.000000 3.400350 0.000000 
#    z 0.000000 0.000000 3.563300 
# 
# 
# High freq. dielectric constant tensor:
#      x y z
#    x 1.755770 0.000000 0.000000 
#    y 0.000000 1.746180 0.000000 
#    z 0.000000 0.000000 1.762050 
# 
# From -- ./inp_files/11121.got.cif
#   From: 2010.06.25/outbox.cif.g09.slc.cpg/sg71_6_cif.got.tgz:11121.got - 2010.06.28 04:59:45.
