data_PCOD8290754
_publ_section_title
;
Structure prediction by ZEFSAII (Michael W. Deem and Ramdas Pophale) SiO2 
 PCOD8290754
Probable space group: I M M M
;
_chemical_formula_sum "Si O2"
_cell_formula_units_Z 120
_cell_length_a 25.643038
_cell_length_b 9.800859
_cell_length_c 26.655137
_cell_angle_alpha 90.000000
_cell_angle_beta 90.000000
_cell_angle_gamma 90.000000
_cell_volume 6699.070314
_symmetry_space_group_name_H-M "I M M M"
_symmetry_group_IT_number 71
_symmetry_cell_setting 'orthorhombic'
loop_
_space_group_symop_operation_xyz
x,y,z
-x,-y,z
x,-y,-z
-x,y,-z
-x,-y,-z
x,y,-z
-x,y,z
x,-y,z
1/2+x,1/2+y,1/2+z
1/2-x,1/2-y,1/2+z
1/2+x,1/2-y,1/2-z
1/2-x,1/2+y,1/2-z
1/2-x,1/2-y,1/2-z
1/2+x,1/2+y,1/2-z
1/2-x,1/2+y,1/2+z
1/2+x,1/2-y,1/2+z
loop_
_atom_site_type_symbol
_atom_site_label
_atom_site_fract_x
_atom_site_fract_y
_atom_site_fract_z
Si Si1 0.756221 0.154359 0.642807
Si Si2 0.711657 0.843616 0.943277
Si Si3 0.558792 0.837153 0.391693
Si Si4 0.142933 0.656284 0.189206
Si Si5 0.061648 0.648846 0.000000
Si Si6 0.590538 0.154907 0.056789
Si Si7 0.557618 0.346066 0.859278
Si Si8 0.850622 0.839595 0.286533
O O1 0.756560 0.247288 0.593689
O O2 0.698900 0.165349 0.664194
O O3 0.797974 0.203953 0.684387
O O4 0.770119 0.000000 0.626924
O O5 0.651068 0.808111 0.938376
O O6 0.722084 0.000000 0.928341
O O7 0.730746 0.816221 0.000000
O O8 0.500000 0.787706 0.377817
O O9 0.599049 0.787450 0.349235
O O10 0.576372 0.776924 0.446920
O O11 0.559844 0.000000 0.395840
O O12 0.130716 0.500000 0.205166
O O13 0.143751 0.753810 0.236522
O O14 0.088745 0.500000 0.000000
O O15 0.000000 0.629894 0.000000
O O16 0.557478 0.253936 0.091432
O O17 0.580535 0.000000 0.073963
O O18 0.571420 0.175624 0.000000
O O19 0.500000 0.337032 0.834843
O O20 0.570944 0.500000 0.875922
O O21 0.599809 0.295345 0.819443
O O22 0.850503 0.000000 0.273396
#
# Coordination Sequence:
#
# PCOD8290754 Si02
#       8
#    16  16  16  16   8  16  16  16
#     4  10  20  35  53  76 104 134 171 214 257 306
#     4   9  18  33  54  79 106 138 174 208 252 313
#     4   8  14  27  47  72 104 135 160 195 246 300
#     4  10  21  34  51  80 106 126 169 220 256 297
#     4   7  10  20  42  68  95 131 161 179 224 296
#     4   9  18  33  53  77 104 134 170 214 262 311
#     4  10  21  36  53  74 101 135 177 220 258 306
#     4  10  21  37  53  69  97 138 176 210 258 311
#
# _framework density 17.912932999999999
#
# number of rings (size 3 to 8) (size 9 to 14) (size 15 to 20)
#    0.000    2.733    1.333    2.000    0.000    3.200 
#    1.200    2.667    0.000    0.000    0.000    0.000 
#    0.000    1.600    0.000    0.000    0.000    0.000 
#
# Total GULP energy -743728.327033 kJ/mol
# GULP energy per Si atom -12395.472117 kJ/mol
# Density = 1.787216 g / cm^3
# Si number density = 17.912933 Si / 1000 Ang^3
#
#
#
# Elastic Constant Matrix: (Units=GPa)
#
#
# Indices 1 2 3 4 5 6 
#
# 1 90.8919 28.0904 50.4162 0.0000 0.0000 0.0000
# 2 28.0904 58.6913 57.3126 0.0000 0.0000 0.0000
# 3 50.4162 57.3126 122.3465 0.0000 0.0000 0.0000
# 4 0.0000 0.0000 0.0000 32.8129 0.0000 0.0000
# 5 0.0000 0.0000 0.0000 0.0000 6.1582 0.0000
# 6 0.0000 0.0000 0.0000 0.0000 0.0000 11.9115
#
#
#
# Elastic Compliance Matrix: (Units=1/GPa)
#
#
# Indices 1 2 3 4 5 6 
#
# 1 0.014391 -0.002022 -0.004983 0.000000 0.000000 0.000000
# 2 -0.002022 0.031688 -0.014011 0.000000 0.000000 0.000000
# 3 -0.004983 -0.014011 0.016790 0.000000 0.000000 0.000000
# 4 0.000000 0.000000 0.000000 0.030476 0.000000 0.000000
# 5 0.000000 0.000000 0.000000 0.000000 0.162384 0.000000
# 6 0.000000 0.000000 0.000000 0.000000 0.000000 0.083952
#
#
# Mechanical properties :
#
#
# Convention : Reuss Voigt Hill
#
# Bulk Modulus (GPa) = 47.99020 60.39647 54.19333
# Shear Modulus (GPa) = 12.86478 19.25056 16.05767
#
# Velocity S-wave (km/s) = 2.68280 3.28178 2.99729
# Velocity P-wave (km/s) = 6.03701 6.93902 6.50367
#
# Compressibility (1/GPa) = 0.02083759
#
# Stress axis : x y z
#
# Youngs Moduli (GPa) = 69.48817 31.55810 59.55826
#
# Poissons Ratio (x) = 0.06380 0.29679
# Poissons Ratio (y) = 0.14048 0.83446
# Poissons Ratio (z) = 0.34627 0.44216
#
# Static dielectric constant tensor:
#      x y z
#    x 3.357770 0.000000 0.000000 
#    y 0.000000 3.111330 0.000000 
#    z 0.000000 0.000000 3.434330 
# 
# 
# High freq. dielectric constant tensor:
#      x y z
#    x 1.690700 0.000000 0.000000 
#    y 0.000000 1.666900 0.000000 
#    z 0.000000 0.000000 1.694470 
# 
# From -- ./inp_files/67179.got.cif
#   From: 2010.06.25/outbox.cif.g09.slc.cpg/sg71_34_cif.got.tgz:67179.got - 2010.06.28 04:59:45.
