data_PCOD8290894
_publ_section_title
;
Structure prediction by ZEFSAII (Michael W. Deem and Ramdas Pophale) SiO2 
 PCOD8290894
Probable space group: I M M M
;
_chemical_formula_sum "Si O2"
_cell_formula_units_Z 88
_cell_length_a 22.494456
_cell_length_b 22.848473
_cell_length_c 8.825217
_cell_angle_alpha 90.000000
_cell_angle_beta 90.000000
_cell_angle_gamma 90.000000
_cell_volume 4535.843570
_symmetry_space_group_name_H-M "I M M M"
_symmetry_group_IT_number 71
_symmetry_cell_setting 'orthorhombic'
loop_
_space_group_symop_operation_xyz
x,y,z
-x,-y,z
x,-y,-z
-x,y,-z
-x,-y,-z
x,y,-z
-x,y,z
x,-y,z
1/2+x,1/2+y,1/2+z
1/2-x,1/2-y,1/2+z
1/2+x,1/2-y,1/2-z
1/2-x,1/2+y,1/2-z
1/2-x,1/2-y,1/2-z
1/2+x,1/2+y,1/2-z
1/2-x,1/2+y,1/2+z
1/2+x,1/2-y,1/2+z
loop_
_atom_site_type_symbol
_atom_site_label
_atom_site_fract_x
_atom_site_fract_y
_atom_site_fract_z
Si Si1 0.812134 0.232593 0.172068
Si Si2 0.882291 0.126468 0.680172
Si Si3 0.658798 0.138138 0.669335
Si Si4 0.065378 0.563463 0.321921
Si Si5 0.500000 0.569223 0.680450
Si Si6 0.233627 0.936126 0.679136
O O1 0.750000 0.250000 0.250000
O O2 0.855070 0.188036 0.261439
O O3 0.848066 0.292761 0.169598
O O4 0.800574 0.210257 0.000000
O O5 0.892153 0.131455 0.500000
O O6 0.833400 0.078500 0.727727
O O7 0.943103 0.104862 0.757164
O O8 0.652767 0.112840 0.500000
O O9 0.605451 0.115980 0.769139
O O10 0.721174 0.113810 0.740013
O O11 0.061131 0.565603 0.500000
O O12 0.090871 0.500000 0.269739
O O13 0.000000 0.572155 0.251632
O O14 0.500000 0.500000 0.731409
O O15 0.500000 0.573110 0.500000
O O16 0.236196 0.936945 0.500000
O O17 0.250397 0.000000 0.746208
#
# Coordination Sequence:
#
# PCOD8290894 Si02
#       6
#    16  16  16  16   8  16
#     4  11  22  39  61  87 120 158 199 249 305 363
#     4  11  22  40  64  91 122 163 210 252 308 375
#     4  10  20  35  56  83 114 150 193 239 291 352
#     4   9  19  36  55  78 112 150 187 232 286 342
#     4  11  25  45  67  95 131 167 208 263 322 377
#     4   9  17  31  54  85 118 148 186 240 296 354
#
# _framework density 19.401022999999999
#
# number of rings (size 3 to 8) (size 9 to 14) (size 15 to 20)
#    0.000    1.909    1.818    3.000    0.000    4.364 
#    1.636    0.909    0.000    3.273    0.000    0.000 
#    0.000    0.000    0.000    0.000    0.000    0.000 
#
# Total GULP energy -545212.161954 kJ/mol
# GULP energy per Si atom -12391.185499 kJ/mol
# Density = 1.935687 g / cm^3
# Si number density = 19.401023 Si / 1000 Ang^3
#
#
#
# Elastic Constant Matrix: (Units=GPa)
#
#
# Indices 1 2 3 4 5 6 
#
# 1 127.1879 58.2033 45.1154 0.0000 0.0000 0.0000
# 2 58.2033 113.4522 31.6292 0.0000 0.0000 0.0000
# 3 45.1154 31.6292 72.5898 0.0000 0.0000 0.0000
# 4 0.0000 0.0000 0.0000 29.4982 0.0000 0.0000
# 5 0.0000 0.0000 0.0000 0.0000 34.1377 0.0000
# 6 0.0000 0.0000 0.0000 0.0000 0.0000 32.7066
#
#
#
# Elastic Compliance Matrix: (Units=1/GPa)
#
#
# Indices 1 2 3 4 5 6 
#
# 1 0.011871 -0.004591 -0.005377 0.000000 0.000000 0.000000
# 2 -0.004591 0.011808 -0.002292 0.000000 0.000000 0.000000
# 3 -0.005377 -0.002292 0.018117 0.000000 0.000000 0.000000
# 4 0.000000 0.000000 0.000000 0.033900 0.000000 0.000000
# 5 0.000000 0.000000 0.000000 0.000000 0.029293 0.000000
# 6 0.000000 0.000000 0.000000 0.000000 0.000000 0.030575
#
#
# Mechanical properties :
#
#
# Convention : Reuss Voigt Hill
#
# Bulk Modulus (GPa) = 57.88536 64.79173 61.33854
# Shear Modulus (GPa) = 30.14897 31.15397 30.65147
#
# Velocity S-wave (km/s) = 3.94634 4.01158 3.97909
# Velocity P-wave (km/s) = 7.11799 7.41118 7.26606
#
# Compressibility (1/GPa) = 0.01727553
#
# Stress axis : x y z
#
# Youngs Moduli (GPa) = 84.24162 84.68546 55.19718
#
# Poissons Ratio (x) = 0.38877 0.29682
# Poissons Ratio (y) = 0.38673 0.12651
# Poissons Ratio (z) = 0.45300 0.19410
#
# Static dielectric constant tensor:
#      x y z
#    x 3.597100 0.000000 0.000000 
#    y 0.000000 3.812940 0.000000 
#    z 0.000000 0.000000 3.452960 
# 
# 
# High freq. dielectric constant tensor:
#      x y z
#    x 1.756530 0.000000 0.000000 
#    y 0.000000 1.764710 0.000000 
#    z 0.000000 0.000000 1.741060 
# 
# From -- ./inp_files/10509.got.cif
#   From: 2010.06.25/outbox.cif.g09.slc.cpg/sg71_6_cif.got.tgz:10509.got - 2010.06.28 04:59:45.
