data_PCOD8290019
_publ_section_title
;
Structure prediction by ZEFSAII (Michael W. Deem and Ramdas Pophale) SiO2 
 PCOD8290019
Probable space group: I M M M
;
_chemical_formula_sum "Si O2"
_cell_formula_units_Z 104
_cell_length_a 33.375667
_cell_length_b 9.256471
_cell_length_c 17.308543
_cell_angle_alpha 90.000000
_cell_angle_beta 90.000000
_cell_angle_gamma 90.000000
_cell_volume 5347.316743
_symmetry_space_group_name_H-M "I M M M"
_symmetry_group_IT_number 71
_symmetry_cell_setting 'orthorhombic'
loop_
_space_group_symop_operation_xyz
x,y,z
-x,-y,z
x,-y,-z
-x,y,-z
-x,-y,-z
x,y,-z
-x,y,z
x,-y,z
1/2+x,1/2+y,1/2+z
1/2-x,1/2-y,1/2+z
1/2+x,1/2-y,1/2-z
1/2-x,1/2+y,1/2-z
1/2-x,1/2-y,1/2-z
1/2+x,1/2+y,1/2-z
1/2-x,1/2+y,1/2+z
1/2+x,1/2-y,1/2+z
loop_
_atom_site_type_symbol
_atom_site_label
_atom_site_fract_x
_atom_site_fract_y
_atom_site_fract_z
Si Si1 0.121047 0.669017 0.911044
Si Si2 0.201522 0.665778 0.174012
Si Si3 0.220266 0.665937 0.350935
Si Si4 0.455971 0.663494 0.408251
Si Si5 0.000000 0.162990 0.407991
Si Si6 0.150318 0.840512 0.588651
Si Si7 0.576407 0.837322 0.092301
O O1 0.114162 0.500000 0.903983
O O2 0.159109 0.718361 0.860107
O O3 0.080890 0.741757 0.875998
O O4 0.128819 0.714886 0.000000
O O5 0.210426 0.500000 0.149837
O O6 0.201611 0.682326 0.265946
O O7 0.235467 0.769625 0.139836
O O8 0.221379 0.500000 0.377615
O O9 0.192293 0.758156 0.406818
O O10 0.455520 0.672149 0.500000
O O11 0.500000 0.718615 0.379047
O O12 0.449380 0.500000 0.380081
O O13 0.038500 0.248196 0.376683
O O14 0.000000 0.158789 0.500000
O O15 0.000000 0.000000 0.374881
O O16 0.139134 0.862390 0.500000
O O17 0.115522 0.742693 0.626628
O O18 0.152514 0.000000 0.628112
O O19 0.575194 0.000000 0.125652
O O20 0.576767 0.843082 0.000000
#
# Coordination Sequence:
#
# PCOD8290019 Si02
#       7
#    16  16  16  16   8  16  16
#     4   9  17  29  47  72 100 129 162 199 238 282
#     4   9  19  35  51  70  98 129 162 200 242 290
#     4  10  20  34  52  71  93 125 164 205 243 290
#     4   8  14  25  41  64  97 132 161 192 233 279
#     4   9  15  23  37  59  89 123 155 187 228 277
#     4  10  20  33  49  70  96 124 155 196 248 300
#     4   9  16  26  41  63  91 120 152 190 231 279
#
# _framework density 19.449007000000002
#
# number of rings (size 3 to 8) (size 9 to 14) (size 15 to 20)
#    0.000    2.846    0.000    2.077    0.000    5.846 
#    0.000    3.077    0.000    0.000    2.000    0.000 
#    0.000    0.000    0.000    0.000    0.000    0.000 
#
# Total GULP energy -644622.057604 kJ/mol
# GULP energy per Si atom -12396.578031 kJ/mol
# Density = 1.940474 g / cm^3
# Si number density = 19.449007 Si / 1000 Ang^3
#
#
#
# Elastic Constant Matrix: (Units=GPa)
#
#
# Indices 1 2 3 4 5 6 
#
# 1 182.8205 88.7209 24.8952 0.0000 0.0000 0.0000
# 2 88.7209 148.8523 13.1245 0.0000 0.0000 0.0000
# 3 24.8952 13.1245 14.5744 0.0000 0.0000 0.0000
# 4 0.0000 0.0000 0.0000 14.5920 0.0000 0.0000
# 5 0.0000 0.0000 0.0000 0.0000 13.9251 0.0000
# 6 0.0000 0.0000 0.0000 0.0000 0.0000 45.2900
#
#
#
# Elastic Compliance Matrix: (Units=1/GPa)
#
#
# Indices 1 2 3 4 5 6 
#
# 1 0.009241 -0.004471 -0.011758 0.000000 0.000000 0.000000
# 2 -0.004471 0.009461 -0.000882 0.000000 0.000000 0.000000
# 3 -0.011758 -0.000882 0.089493 0.000000 0.000000 0.000000
# 4 0.000000 0.000000 0.000000 0.068531 0.000000 0.000000
# 5 0.000000 0.000000 0.000000 0.000000 0.071813 0.000000
# 6 0.000000 0.000000 0.000000 0.000000 0.000000 0.022080
#
#
# Mechanical properties :
#
#
# Convention : Reuss Voigt Hill
#
# Bulk Modulus (GPa) = 13.51883 66.63649 40.07766
# Shear Modulus (GPa) = 15.17461 29.39522 22.28491
#
# Velocity S-wave (km/s) = 2.79628 3.89189 3.38866
# Velocity P-wave (km/s) = 4.17032 7.38460 5.99683
#
# Compressibility (1/GPa) = 0.07397089
#
# Stress axis : x y z
#
# Youngs Moduli (GPa) = 108.21610 105.69975 11.17409
#
# Poissons Ratio (x) = 0.47259 0.13139
# Poissons Ratio (y) = 0.48384 0.00986
# Poissons Ratio (z) = 1.27244 0.09326
#
# Static dielectric constant tensor:
#      x y z
#    x 3.788500 0.000000 0.000000 
#    y 0.000000 3.740950 0.000000 
#    z 0.000000 0.000000 2.983440 
# 
# 
# High freq. dielectric constant tensor:
#      x y z
#    x 1.771590 0.000000 0.000000 
#    y 0.000000 1.765470 0.000000 
#    z 0.000000 0.000000 1.695050 
# 
# From -- ./inp_files/56689.got.cif
#   From: 2010.06.25/outbox.cif.g09.slc.cpg/sg71_29_cif.got.tgz:56689.got - 2010.06.28 04:59:45.
