data_PCOD8290799
_publ_section_title
;
Structure prediction by ZEFSAII (Michael W. Deem and Ramdas Pophale) SiO2 
 PCOD8290799
Probable space group: I M M M
;
_chemical_formula_sum "Si O2"
_cell_formula_units_Z 80
_cell_length_a 16.112896
_cell_length_b 29.171969
_cell_length_c 9.310993
_cell_angle_alpha 90.000000
_cell_angle_beta 90.000000
_cell_angle_gamma 90.000000
_cell_volume 4376.584798
_symmetry_space_group_name_H-M "I M M M"
_symmetry_group_IT_number 71
_symmetry_cell_setting 'orthorhombic'
loop_
_space_group_symop_operation_xyz
x,y,z
-x,-y,z
x,-y,-z
-x,y,-z
-x,-y,-z
x,y,-z
-x,y,z
x,-y,z
1/2+x,1/2+y,1/2+z
1/2-x,1/2-y,1/2+z
1/2+x,1/2-y,1/2-z
1/2-x,1/2+y,1/2-z
1/2-x,1/2-y,1/2-z
1/2+x,1/2+y,1/2-z
1/2-x,1/2+y,1/2+z
1/2+x,1/2-y,1/2+z
loop_
_atom_site_type_symbol
_atom_site_label
_atom_site_fract_x
_atom_site_fract_y
_atom_site_fract_z
Si Si1 0.648682 0.448145 0.164876
Si Si2 0.816046 0.449027 0.668543
Si Si3 0.500000 0.386794 0.170946
Si Si4 0.408753 0.860739 0.170018
Si Si5 0.500000 0.716480 0.829548
Si Si6 0.332244 0.232865 0.829790
O O1 0.615097 0.500000 0.180133
O O2 0.729242 0.439998 0.257778
O O3 0.580628 0.413413 0.227734
O O4 0.670274 0.437085 0.000000
O O5 0.801894 0.443798 0.500000
O O6 0.850617 0.500000 0.706145
O O7 0.878493 0.410258 0.726924
O O8 0.500000 0.335232 0.231014
O O9 0.500000 0.387777 0.000000
O O10 0.500000 0.851339 0.235948
O O11 0.345474 0.820341 0.214025
O O12 0.416209 0.861590 0.000000
O O13 0.584791 0.740644 0.775812
O O14 0.500000 0.717806 0.000000
O O15 0.250000 0.250000 0.750000
O O16 0.319558 0.239380 0.000000
#
# Coordination Sequence:
#
# PCOD8290799 Si02
#       6
#    16  16   8  16   8  16
#     4   9  17  30  48  69  95 127 161 197 238 284
#     4   9  18  31  48  72  99 124 156 200 244 286
#     4   9  17  28  46  70  94 123 164 203 230 274
#     4   9  17  32  53  73  96 128 164 199 239 291
#     4   9  18  33  51  74 101 130 167 205 244 298
#     4  10  20  35  55  76 100 133 168 205 250 297
#
# _framework density 18.279093
#
# number of rings (size 3 to 8) (size 9 to 14) (size 15 to 20)
#    0.000    2.800    1.000    0.300    2.800    1.600 
#    0.000    3.000    0.000    5.400    0.000    2.800 
#    0.000    0.000    0.000    0.000    0.000    0.000 
#
# Total GULP energy -495783.840143 kJ/mol
# GULP energy per Si atom -12394.596004 kJ/mol
# Density = 1.823749 g / cm^3
# Si number density = 18.279093 Si / 1000 Ang^3
#
#
#
# Elastic Constant Matrix: (Units=GPa)
#
#
# Indices 1 2 3 4 5 6 
#
# 1 139.7233 89.5341 28.7635 0.0000 0.0001 0.0000
# 2 89.5341 162.5469 25.4767 0.0005 0.0003 0.0000
# 3 28.7635 25.4767 18.8215 0.0008 0.0014 0.0004
# 4 0.0000 0.0005 0.0008 15.9696 0.0005 0.0001
# 5 0.0001 0.0003 0.0014 0.0005 24.8360 0.0000
# 6 0.0000 0.0000 0.0004 0.0001 0.0000 36.2193
#
#
#
# Elastic Compliance Matrix: (Units=1/GPa)
#
#
# Indices 1 2 3 4 5 6 
#
# 1 0.013197 -0.005215 -0.013110 0.000001 0.000001 0.000000
# 2 -0.005215 0.009869 -0.005390 0.000000 0.000000 0.000000
# 3 -0.013110 -0.005390 0.080462 -0.000004 -0.000004 -0.000001
# 4 0.000001 0.000000 -0.000004 0.062619 -0.000001 0.000000
# 5 0.000001 0.000000 -0.000004 -0.000001 0.040264 0.000000
# 6 0.000000 0.000000 -0.000001 0.000000 0.000000 0.027610
#
#
# Mechanical properties :
#
#
# Convention : Reuss Voigt Hill
#
# Bulk Modulus (GPa) = 17.82556 67.62671 42.72614
# Shear Modulus (GPa) = 16.65836 27.22614 21.94225
#
# Velocity S-wave (km/s) = 3.02211 3.86355 3.46844
# Velocity P-wave (km/s) = 4.68514 7.54849 6.28213
#
# Compressibility (1/GPa) = 0.05609921
#
# Stress axis : x y z
#
# Youngs Moduli (GPa) = 75.77296 101.32626 12.42826
#
# Poissons Ratio (x) = 0.52837 0.16294
# Poissons Ratio (y) = 0.39512 0.06699
# Poissons Ratio (z) = 0.99340 0.54613
#
# Static dielectric constant tensor:
#      x y z
#    x 3.452570 0.000000 0.000000 
#    y 0.000000 3.817890 0.000000 
#    z 0.000000 0.000000 2.910410 
# 
# 
# High freq. dielectric constant tensor:
#      x y z
#    x 1.710670 0.000000 0.000000 
#    y 0.000000 1.727590 0.000000 
#    z 0.000000 0.000000 1.655320 
# 
# From -- ./inp_files/22208.got.cif
#   From: 2010.06.25/outbox.cif.g09.slc.cpg/sg71_12_cif.got.tgz:22208.got - 2010.06.28 04:59:45.
