data_PCOD8290922
_publ_section_title
;
Structure prediction by ZEFSAII (Michael W. Deem and Ramdas Pophale) SiO2 
 PCOD8290922
Probable space group: I M M M
;
_chemical_formula_sum "Si O2"
_cell_formula_units_Z 96
_cell_length_a 28.263370
_cell_length_b 9.008222
_cell_length_c 20.097986
_cell_angle_alpha 90.000000
_cell_angle_beta 90.000000
_cell_angle_gamma 90.000000
_cell_volume 5117.001730
_symmetry_space_group_name_H-M "I M M M"
_symmetry_group_IT_number 71
_symmetry_cell_setting 'orthorhombic'
loop_
_space_group_symop_operation_xyz
x,y,z
-x,-y,z
x,-y,-z
-x,y,-z
-x,-y,-z
x,y,-z
-x,y,z
x,-y,z
1/2+x,1/2+y,1/2+z
1/2-x,1/2-y,1/2+z
1/2+x,1/2-y,1/2-z
1/2-x,1/2+y,1/2-z
1/2-x,1/2-y,1/2-z
1/2+x,1/2+y,1/2-z
1/2-x,1/2+y,1/2+z
1/2+x,1/2-y,1/2+z
loop_
_atom_site_type_symbol
_atom_site_label
_atom_site_fract_x
_atom_site_fract_y
_atom_site_fract_z
Si Si1 0.555080 0.837401 0.927582
Si Si2 0.367128 0.827307 0.423513
Si Si3 0.689229 0.171491 0.801330
Si Si4 0.445652 0.826343 0.682582
Si Si5 0.403442 0.326978 0.812150
Si Si6 0.792693 0.827498 0.163480
O O1 0.500000 0.853167 0.936061
O O2 0.563288 0.708801 0.874091
O O3 0.575267 0.000000 0.904920
O O4 0.576985 0.794618 0.000000
O O5 0.377267 0.785859 0.500000
O O6 0.414306 0.785732 0.382068
O O7 0.321517 0.734026 0.399479
O O8 0.354762 0.000000 0.415250
O O9 0.646624 0.258848 0.835387
O O10 0.736245 0.194406 0.845984
O O11 0.692717 0.235227 0.727461
O O12 0.676341 0.000000 0.794143
O O13 0.500000 0.776525 0.669672
O O14 0.424097 0.742060 0.745131
O O15 0.443395 0.000000 0.698394
O O16 0.398758 0.500000 0.800359
O O17 0.805033 0.000000 0.174682
#
# Coordination Sequence:
#
# PCOD8290922 Si02
#       6
#    16  16  16  16  16  16
#     4   9  19  37  59  80 106 146 191 229 274 338
#     4  10  21  37  58  83 114 155 197 238 287 342
#     4  10  20  35  57  82 111 144 182 226 274 334
#     4  10  21  37  57  81 112 152 197 242 287 339
#     4  12  23  34  54  86 118 149 186 232 286 336
#     4  10  20  35  57  85 110 140 181 228 282 335
#
# _framework density 18.760985999999999
#
# number of rings (size 3 to 8) (size 9 to 14) (size 15 to 20)
#    0.000    1.833    1.667    3.500    0.000    5.667 
#    0.000    3.333    0.000    1.000    0.000    2.333 
#    0.000    0.000    0.000    0.000    0.000    0.000 
#
# Total GULP energy -595069.990346 kJ/mol
# GULP energy per Si atom -12397.291466 kJ/mol
# Density = 1.871829 g / cm^3
# Si number density = 18.760986 Si / 1000 Ang^3
#
#
#
# Elastic Constant Matrix: (Units=GPa)
#
#
# Indices 1 2 3 4 5 6 
#
# 1 113.6769 54.1055 56.2596 0.0000 0.0000 0.0000
# 2 54.1055 84.6255 50.8563 0.0000 0.0000 0.0000
# 3 56.2596 50.8563 119.2730 0.0000 0.0000 0.0000
# 4 0.0000 0.0000 0.0000 16.1618 0.0000 0.0000
# 5 0.0000 0.0000 0.0000 0.0000 25.3695 0.0000
# 6 0.0000 0.0000 0.0000 0.0000 0.0000 28.5253
#
#
#
# Elastic Compliance Matrix: (Units=1/GPa)
#
#
# Indices 1 2 3 4 5 6 
#
# 1 0.013750 -0.006579 -0.003680 0.000000 0.000000 0.000000
# 2 -0.006579 0.019036 -0.005013 0.000000 0.000000 0.000000
# 3 -0.003680 -0.005013 0.012258 0.000000 0.000000 0.000000
# 4 0.000000 0.000000 0.000000 0.061874 0.000000 0.000000
# 5 0.000000 0.000000 0.000000 0.000000 0.039417 0.000000
# 6 0.000000 0.000000 0.000000 0.000000 0.000000 0.035057
#
#
# Mechanical properties :
#
#
# Convention : Reuss Voigt Hill
#
# Bulk Modulus (GPa) = 68.97636 71.11311 70.04474
# Shear Modulus (GPa) = 23.06592 24.43491 23.75042
#
# Velocity S-wave (km/s) = 3.51017 3.61284 3.56188
# Velocity P-wave (km/s) = 7.29891 7.44248 7.37105
#
# Compressibility (1/GPa) = 0.01449772
#
# Stress axis : x y z
#
# Youngs Moduli (GPa) = 72.72891 52.53196 81.58136
#
# Poissons Ratio (x) = 0.34562 0.30024
# Poissons Ratio (y) = 0.47850 0.40900
# Poissons Ratio (z) = 0.26766 0.26336
#
# Static dielectric constant tensor:
#      x y z
#    x 3.765220 0.000000 0.000000 
#    y 0.000000 3.464100 0.000000 
#    z 0.000000 0.000000 3.358120 
# 
# 
# High freq. dielectric constant tensor:
#      x y z
#    x 1.733910 0.000000 0.000000 
#    y 0.000000 1.728780 0.000000 
#    z 0.000000 0.000000 1.714150 
# 
# From -- ./inp_files/14872.got.cif
#   From: 2010.06.25/outbox.cif.g09.slc.cpg/sg71_8_cif.got.tgz:14872.got - 2010.06.28 04:59:45.
