data_PCOD8290463
_publ_section_title
;
Structure prediction by ZEFSAII (Michael W. Deem and Ramdas Pophale) SiO2 
 PCOD8290463
Probable space group: I M M M
;
_chemical_formula_sum "Si O2"
_cell_formula_units_Z 96
_cell_length_a 24.330008
_cell_length_b 20.054021
_cell_length_c 11.182785
_cell_angle_alpha 90.000000
_cell_angle_beta 90.000000
_cell_angle_gamma 90.000000
_cell_volume 5456.242855
_symmetry_space_group_name_H-M "I M M M"
_symmetry_group_IT_number 71
_symmetry_cell_setting 'orthorhombic'
loop_
_space_group_symop_operation_xyz
x,y,z
-x,-y,z
x,-y,-z
-x,y,-z
-x,-y,-z
x,y,-z
-x,y,z
x,-y,z
1/2+x,1/2+y,1/2+z
1/2-x,1/2-y,1/2+z
1/2+x,1/2-y,1/2-z
1/2-x,1/2+y,1/2-z
1/2-x,1/2-y,1/2-z
1/2+x,1/2+y,1/2-z
1/2-x,1/2+y,1/2+z
1/2+x,1/2-y,1/2+z
loop_
_atom_site_type_symbol
_atom_site_label
_atom_site_fract_x
_atom_site_fract_y
_atom_site_fract_z
Si Si1 0.938381 0.074990 0.140984
Si Si2 0.434970 0.871672 0.000000
Si Si3 0.435503 0.277443 0.000000
Si Si4 0.564095 0.923816 0.251233
Si Si5 0.242907 0.201469 0.637195
Si Si6 0.372407 0.680474 0.220193
Si Si7 0.862539 0.684459 0.133257
O O1 0.891269 0.122858 0.191066
O O2 0.000000 0.098488 0.177903
O O3 0.928176 0.000000 0.188790
O O4 0.932640 0.076239 0.000000
O O5 0.409586 0.797225 0.000000
O O6 0.414829 0.911736 0.116161
O O7 0.500000 0.867301 0.000000
O O8 0.416472 0.317681 0.884877
O O9 0.500000 0.273174 0.000000
O O10 0.500000 0.905594 0.263802
O O11 0.597959 0.876858 0.338549
O O12 0.575084 0.000000 0.287231
O O13 0.237661 0.232713 0.500000
O O14 0.250000 0.250000 0.750000
O O15 0.187363 0.160621 0.665783
O O16 0.299117 0.158303 0.639964
O O17 0.372369 0.752703 0.281690
O O18 0.876580 0.708941 0.000000
#
# Coordination Sequence:
#
# PCOD8290463 Si02
#       7
#    16   8   8  16  16  16  16
#     4   9  19  36  57  81 111 146 180 218 270 334
#     4   9  17  32  51  75 106 140 177 218 262 314
#     4  11  20  29  51  85 115 135 166 219 277 321
#     4  10  20  34  53  76 104 141 181 222 268 318
#     4   9  19  35  55  80 109 147 187 230 276 327
#     4  11  19  34  57  81 107 139 180 225 274 322
#     4  10  21  35  52  77 107 139 183 225 268 318
#
# _framework density 17.594525000000001
#
# number of rings (size 3 to 8) (size 9 to 14) (size 15 to 20)
#    0.000    2.167    2.500    1.750    0.000    3.000 
#    0.000    2.083    0.000    2.500    0.000    0.000 
#    0.000    0.000    0.000    0.000    0.000    0.000 
#
# Total GULP energy -594738.329109 kJ/mol
# GULP energy per Si atom -12390.381856 kJ/mol
# Density = 1.755448 g / cm^3
# Si number density = 17.594525 Si / 1000 Ang^3
#
#
#
# Elastic Constant Matrix: (Units=GPa)
#
#
# Indices 1 2 3 4 5 6 
#
# 1 102.9706 46.9103 42.5161 0.0000 0.0000 0.0000
# 2 46.9103 71.9356 21.4590 0.0000 0.0000 0.0000
# 3 42.5161 21.4590 85.9801 0.0000 0.0000 0.0000
# 4 0.0000 0.0000 0.0000 27.9958 0.0000 0.0000
# 5 0.0000 0.0000 0.0000 0.0000 29.4179 0.0000
# 6 0.0000 0.0000 0.0000 0.0000 0.0000 18.3156
#
#
#
# Elastic Compliance Matrix: (Units=1/GPa)
#
#
# Indices 1 2 3 4 5 6 
#
# 1 0.016088 -0.008771 -0.005766 0.000000 0.000000 0.000000
# 2 -0.008771 0.019802 -0.000605 0.000000 0.000000 0.000000
# 3 -0.005766 -0.000605 0.014633 0.000000 0.000000 0.000000
# 4 0.000000 0.000000 0.000000 0.035720 0.000000 0.000000
# 5 0.000000 0.000000 0.000000 0.000000 0.033993 0.000000
# 6 0.000000 0.000000 0.000000 0.000000 0.000000 0.054598
#
#
# Mechanical properties :
#
#
# Convention : Reuss Voigt Hill
#
# Bulk Modulus (GPa) = 49.41197 53.62855 51.52026
# Shear Modulus (GPa) = 23.59998 25.14593 24.37295
#
# Velocity S-wave (km/s) = 3.66638 3.78456 3.72594
# Velocity P-wave (km/s) = 6.78733 7.04583 6.91779
#
# Compressibility (1/GPa) = 0.02023801
#
# Stress axis : x y z
#
# Youngs Moduli (GPa) = 62.15678 50.50091 68.33905
#
# Poissons Ratio (x) = 0.44296 0.39407
# Poissons Ratio (y) = 0.54520 0.04133
# Poissons Ratio (z) = 0.35842 0.03054
#
# Static dielectric constant tensor:
#      x y z
#    x 3.500990 0.000000 0.000000 
#    y 0.000000 3.004440 0.000000 
#    z 0.000000 0.000000 3.116970 
# 
# 
# High freq. dielectric constant tensor:
#      x y z
#    x 1.682580 0.000000 0.000000 
#    y 0.000000 1.643850 0.000000 
#    z 0.000000 0.000000 1.695560 
# 
# From -- ./inp_files/27598.got.cif
#   From: 2010.06.25/outbox.cif.g09.slc.cpg/sg71_14_cif.got.tgz:27598.got - 2010.06.28 04:59:45.
