data_PCOD8290672
_publ_section_title
;
Structure prediction by ZEFSAII (Michael W. Deem and Ramdas Pophale) SiO2 
 PCOD8290672
Probable space group: I M M M
;
_chemical_formula_sum "Si O2"
_cell_formula_units_Z 80
_cell_length_a 16.735462
_cell_length_b 9.035733
_cell_length_c 27.288018
_cell_angle_alpha 90.000000
_cell_angle_beta 90.000000
_cell_angle_gamma 90.000000
_cell_volume 4126.416755
_symmetry_space_group_name_H-M "I M M M"
_symmetry_group_IT_number 71
_symmetry_cell_setting 'orthorhombic'
loop_
_space_group_symop_operation_xyz
x,y,z
-x,-y,z
x,-y,-z
-x,y,-z
-x,-y,-z
x,y,-z
-x,y,z
x,-y,z
1/2+x,1/2+y,1/2+z
1/2-x,1/2-y,1/2+z
1/2+x,1/2-y,1/2-z
1/2-x,1/2+y,1/2-z
1/2-x,1/2-y,1/2-z
1/2+x,1/2+y,1/2-z
1/2-x,1/2+y,1/2+z
1/2+x,1/2-y,1/2+z
loop_
_atom_site_type_symbol
_atom_site_label
_atom_site_fract_x
_atom_site_fract_y
_atom_site_fract_z
Si Si1 0.407896 0.173193 0.686871
Si Si2 0.145608 0.670201 0.380131
Si Si3 0.407531 0.673124 0.213669
Si Si4 0.174776 0.170648 0.902050
Si Si5 0.000000 0.324200 0.554603
Si Si6 0.590274 0.324218 0.500000
O O1 0.500000 0.212404 0.676337
O O2 0.378194 0.251514 0.736340
O O3 0.355662 0.231934 0.642506
O O4 0.394032 0.000000 0.693083
O O5 0.127977 0.500000 0.366430
O O6 0.145453 0.763978 0.330379
O O7 0.230188 0.687805 0.406962
O O8 0.078609 0.732454 0.417100
O O9 0.500000 0.711604 0.203366
O O10 0.392487 0.500000 0.218572
O O11 0.135762 0.233791 0.951795
O O12 0.150300 0.000000 0.893118
O O13 0.000000 0.500000 0.551208
O O14 0.000000 0.255648 0.500000
O O15 0.590828 0.500000 0.500000
O O16 0.500000 0.261967 0.500000
#
# Coordination Sequence:
#
# PCOD8290672 Si02
#       6
#    16  16  16  16   8   8
#     4  10  21  37  58  82 110 145 186 230 280 334
#     4  10  20  34  55  83 115 148 185 229 276 327
#     4  10  20  35  57  82 110 147 188 229 276 332
#     4  10  21  35  55  84 114 145 185 230 276 327
#     4   9  18  32  55  83 113 151 189 228 275 324
#     4   9  18  34  57  82 112 147 182 227 277 325
#
# _framework density 19.387281000000002
#
# number of rings (size 3 to 8) (size 9 to 14) (size 15 to 20)
#    0.000    2.200    1.000    1.800    1.400    4.400 
#    0.000    0.500    0.000    3.000    0.000    0.000 
#    0.000    0.000    0.000    0.000    0.000    0.000 
#
# Total GULP energy -496175.520371 kJ/mol
# GULP energy per Si atom -12404.388009 kJ/mol
# Density = 1.934315 g / cm^3
# Si number density = 19.387281 Si / 1000 Ang^3
#
#
#
# Elastic Constant Matrix: (Units=GPa)
#
#
# Indices 1 2 3 4 5 6 
#
# 1 107.6739 33.8761 69.9363 0.0000 0.0000 0.0000
# 2 33.8761 63.8906 46.0877 0.0000 0.0000 0.0000
# 3 69.9363 46.0877 165.7120 0.0000 0.0000 0.0000
# 4 0.0000 0.0000 0.0000 25.9075 0.0000 0.0000
# 5 0.0000 0.0000 0.0000 0.0000 30.7348 0.0000
# 6 0.0000 0.0000 0.0000 0.0000 0.0000 22.6001
#
#
#
# Elastic Compliance Matrix: (Units=1/GPa)
#
#
# Indices 1 2 3 4 5 6 
#
# 1 0.013498 -0.003813 -0.004636 0.000000 0.000000 0.000000
# 2 -0.003813 0.020657 -0.004136 0.000000 0.000000 0.000000
# 3 -0.004636 -0.004136 0.009142 0.000000 0.000000 0.000000
# 4 0.000000 0.000000 0.000000 0.038599 0.000000 0.000000
# 5 0.000000 0.000000 0.000000 0.000000 0.032536 0.000000
# 6 0.000000 0.000000 0.000000 0.000000 0.000000 0.044248
#
#
# Mechanical properties :
#
#
# Convention : Reuss Voigt Hill
#
# Bulk Modulus (GPa) = 55.16733 70.78632 62.97682
# Shear Modulus (GPa) = 26.33083 28.34025 27.33554
#
# Velocity S-wave (km/s) = 3.68931 3.82749 3.75903
# Velocity P-wave (km/s) = 6.83119 7.49159 7.16900
#
# Compressibility (1/GPa) = 0.01812667
#
# Stress axis : x y z
#
# Youngs Moduli (GPa) = 74.08388 48.41031 109.39024
#
# Poissons Ratio (x) = 0.18457 0.50717
# Poissons Ratio (y) = 0.28245 0.45244
# Poissons Ratio (z) = 0.34348 0.20023
#
# Static dielectric constant tensor:
#      x y z
#    x 3.544940 0.000000 0.000000 
#    y 0.000000 3.269070 0.000000 
#    z 0.000000 0.000000 3.657380 
# 
# 
# High freq. dielectric constant tensor:
#      x y z
#    x 1.755450 0.000000 0.000000 
#    y 0.000000 1.729200 0.000000 
#    z 0.000000 0.000000 1.763780 
# 
# From -- ./inp_files/63057.got.cif
#   From: 2010.06.25/outbox.cif.g09.slc.cpg/sg71_32_cif.got.tgz:63057.got - 2010.06.28 04:59:45.
