data_PCOD8290108
_publ_section_title
;
Structure prediction by ZEFSAII (Michael W. Deem and Ramdas Pophale) SiO2 
 PCOD8290108
Probable space group: I M M M
;
_chemical_formula_sum "Si O2"
_cell_formula_units_Z 80
_cell_length_a 17.377019
_cell_length_b 9.427251
_cell_length_c 23.196790
_cell_angle_alpha 90.000000
_cell_angle_beta 90.000000
_cell_angle_gamma 90.000000
_cell_volume 3800.040604
_symmetry_space_group_name_H-M "I M M M"
_symmetry_group_IT_number 71
_symmetry_cell_setting 'orthorhombic'
loop_
_space_group_symop_operation_xyz
x,y,z
-x,-y,z
x,-y,-z
-x,y,-z
-x,-y,-z
x,y,-z
-x,y,z
x,-y,z
1/2+x,1/2+y,1/2+z
1/2-x,1/2-y,1/2+z
1/2+x,1/2-y,1/2-z
1/2-x,1/2+y,1/2-z
1/2-x,1/2-y,1/2-z
1/2+x,1/2+y,1/2-z
1/2-x,1/2+y,1/2+z
1/2+x,1/2-y,1/2+z
loop_
_atom_site_type_symbol
_atom_site_label
_atom_site_fract_x
_atom_site_fract_y
_atom_site_fract_z
Si Si1 0.331354 0.837137 0.614300
Si Si2 0.160523 0.348011 0.500000
Si Si3 0.837406 0.157337 0.000000
Si Si4 0.813305 0.158498 0.690628
Si Si5 0.585285 0.342908 0.088341
Si Si6 0.086658 0.662357 0.227876
O O1 0.355805 0.745092 0.558453
O O2 0.254600 0.783274 0.648727
O O3 0.402161 0.826609 0.658986
O O4 0.317294 0.000000 0.594233
O O5 0.117268 0.500000 0.500000
O O6 0.249086 0.376058 0.500000
O O7 0.142135 0.261366 0.443328
O O8 0.878710 0.000000 0.000000
O O9 0.892420 0.152110 0.654905
O O10 0.838663 0.258504 0.743796
O O11 0.791107 0.000000 0.712975
O O12 0.500000 0.281654 0.081725
O O13 0.591073 0.500000 0.061120
O O14 0.091827 0.500000 0.248619
O O15 0.000000 0.721477 0.241934
#
# Coordination Sequence:
#
# PCOD8290108 Si02
#       6
#    16   8   8  16  16  16
#     4  10  21  39  63  86 113 153 195 234 281 342
#     4  11  22  34  49  73 107 143 183 234 285 331
#     4  11  23  38  59  88 116 144 187 244 294 337
#     4  10  20  35  58  85 113 150 194 233 273 331
#     4  10  20  33  50  74 107 148 190 228 270 327
#     4  10  22  39  59  87 120 151 187 235 291 344
#
# _framework density 21.052406000000001
#
# number of rings (size 3 to 8) (size 9 to 14) (size 15 to 20)
#    0.000    1.800    2.000    2.100    0.000    6.000 
#    0.000    0.500    0.000    3.000    0.000    0.000 
#    0.000    0.000    0.000    0.000    0.000    0.000 
#
# Total GULP energy -495562.571333 kJ/mol
# GULP energy per Si atom -12389.064283 kJ/mol
# Density = 2.100449 g / cm^3
# Si number density = 21.052406 Si / 1000 Ang^3
#
#
#
# Elastic Constant Matrix: (Units=GPa)
#
#
# Indices 1 2 3 4 5 6 
#
# 1 37.0502 4.1446 1.8919 0.0000 0.0000 0.0000
# 2 4.1446 84.4505 41.5778 0.0000 0.0000 0.0000
# 3 1.8919 41.5778 96.1621 0.0000 0.0000 0.0000
# 4 0.0000 0.0000 0.0000 25.8616 0.0000 0.0000
# 5 0.0000 0.0000 0.0000 0.0000 38.1313 0.0000
# 6 0.0000 0.0000 0.0000 0.0000 0.0000 20.5251
#
#
#
# Elastic Compliance Matrix: (Units=1/GPa)
#
#
# Indices 1 2 3 4 5 6 
#
# 1 0.027140 -0.001358 0.000053 0.000000 0.000000 0.000000
# 2 -0.001358 0.015112 -0.006507 0.000000 0.000000 0.000000
# 3 0.000053 -0.006507 0.013212 0.000000 0.000000 0.000000
# 4 0.000000 0.000000 0.000000 0.038667 0.000000 0.000000
# 5 0.000000 0.000000 0.000000 0.000000 0.026225 0.000000
# 6 0.000000 0.000000 0.000000 0.000000 0.000000 0.048721
#
#
# Mechanical properties :
#
#
# Convention : Reuss Voigt Hill
#
# Bulk Modulus (GPa) = 25.10115 34.76570 29.93343
# Shear Modulus (GPa) = 25.25510 28.24016 26.74763
#
# Velocity S-wave (km/s) = 3.46733 3.66652 3.56831
# Velocity P-wave (km/s) = 5.28950 5.87147 5.58807
#
# Compressibility (1/GPa) = 0.03983882
#
# Stress axis : x y z
#
# Youngs Moduli (GPa) = 36.84645 66.17437 75.69135
#
# Poissons Ratio (x) = 0.08988 -0.00403
# Poissons Ratio (y) = 0.05004 0.49253
# Poissons Ratio (z) = -0.00196 0.43060
#
# Static dielectric constant tensor:
#      x y z
#    x 3.661910 0.000000 0.000000 
#    y 0.000000 3.860710 0.000000 
#    z 0.000000 0.000000 3.705390 
# 
# 
# High freq. dielectric constant tensor:
#      x y z
#    x 1.816410 0.000000 0.000000 
#    y 0.000000 1.813970 0.000000 
#    z 0.000000 0.000000 1.820650 
# 
# From -- ./inp_files/61037.got.cif
#   From: 2010.06.25/outbox.cif.g09.slc.cpg/sg71_31_cif.got.tgz:61037.got - 2010.06.28 04:59:45.
