data_PCOD8290018
_publ_section_title
;
Structure prediction by ZEFSAII (Michael W. Deem and Ramdas Pophale) SiO2 
 PCOD8290018
Probable space group: I M M M
;
_chemical_formula_sum "Si O2"
_cell_formula_units_Z 104
_cell_length_a 32.652362
_cell_length_b 19.569904
_cell_length_c 9.428582
_cell_angle_alpha 90.000000
_cell_angle_beta 90.000000
_cell_angle_gamma 90.000000
_cell_volume 6024.897744
_symmetry_space_group_name_H-M "I M M M"
_symmetry_group_IT_number 71
_symmetry_cell_setting 'orthorhombic'
loop_
_space_group_symop_operation_xyz
x,y,z
-x,-y,z
x,-y,-z
-x,y,-z
-x,-y,-z
x,y,-z
-x,y,z
x,-y,z
1/2+x,1/2+y,1/2+z
1/2-x,1/2-y,1/2+z
1/2+x,1/2-y,1/2-z
1/2-x,1/2+y,1/2-z
1/2-x,1/2-y,1/2-z
1/2+x,1/2+y,1/2-z
1/2-x,1/2+y,1/2+z
1/2+x,1/2-y,1/2+z
loop_
_atom_site_type_symbol
_atom_site_label
_atom_site_fract_x
_atom_site_fract_y
_atom_site_fract_z
Si Si1 0.546374 0.770544 0.837093
Si Si2 0.546651 0.500000 0.345545
Si Si3 0.186496 0.421982 0.165118
Si Si4 0.153815 0.837889 0.836823
Si Si5 0.733444 0.422205 0.663308
Si Si6 0.421089 0.379171 0.836373
Si Si7 0.622724 0.189417 0.336097
O O1 0.500000 0.787292 0.785868
O O2 0.553948 0.690386 0.817626
O O3 0.579692 0.811868 0.746573
O O4 0.552029 0.792038 0.000000
O O5 0.500000 0.500000 0.384171
O O6 0.569996 0.500000 0.500000
O O7 0.555035 0.434290 0.252454
O O8 0.174367 0.500000 0.198553
O O9 0.227511 0.400482 0.245676
O O10 0.149187 0.374797 0.217695
O O11 0.195077 0.409881 0.000000
O O12 0.198543 0.866969 0.800844
O O13 0.124045 0.875643 0.728638
O O14 0.150342 0.756787 0.808707
O O15 0.142077 0.854845 0.000000
O O16 0.746231 0.417516 0.500000
O O17 0.719122 0.500000 0.700032
O O18 0.417633 0.400981 0.000000
O O19 0.611105 0.182566 0.500000
#
# Coordination Sequence:
#
# PCOD8290018 Si02
#       7
#    16   8  16  16  16  16  16
#     4   9  18  33  52  73  98 126 156 195 244 294
#     4  11  23  35  47  65  91 127 169 209 251 295
#     4   9  18  33  51  71  97 128 160 199 245 292
#     4   9  18  32  48  69  98 129 162 203 246 290
#     4   9  18  31  47  68  95 130 166 199 239 289
#     4  10  20  33  49  70  95 126 163 205 248 291
#     4   9  18  32  50  73  98 125 161 201 243 291
#
# _framework density 17.261703000000001
#
# number of rings (size 3 to 8) (size 9 to 14) (size 15 to 20)
#    0.000    2.692    0.000    1.154    1.077    4.000 
#    0.000    0.000    0.000    0.462    0.000    3.231 
#    0.000    0.000    0.000    0.000    0.000    0.000 
#
# Total GULP energy -644695.786298 kJ/mol
# GULP energy per Si atom -12397.995890 kJ/mol
# Density = 1.722241 g / cm^3
# Si number density = 17.261703 Si / 1000 Ang^3
#
#
#
# Elastic Constant Matrix: (Units=GPa)
#
#
# Indices 1 2 3 4 5 6 
#
# 1 146.6645 68.6811 67.3135 0.0000 0.0000 0.0000
# 2 68.6811 71.2054 42.3195 0.0000 0.0000 0.0000
# 3 67.3135 42.3195 85.9688 0.0000 0.0000 0.0000
# 4 0.0000 0.0000 0.0000 21.8895 0.0000 0.0000
# 5 0.0000 0.0000 0.0000 0.0000 33.0283 0.0000
# 6 0.0000 0.0000 0.0000 0.0000 0.0000 22.3337
#
#
#
# Elastic Compliance Matrix: (Units=1/GPa)
#
#
# Indices 1 2 3 4 5 6 
#
# 1 0.014519 -0.010245 -0.006325 0.000000 0.000000 0.000000
# 2 -0.010245 0.027081 -0.005309 0.000000 0.000000 0.000000
# 3 -0.006325 -0.005309 0.019198 0.000000 0.000000 0.000000
# 4 0.000000 0.000000 0.000000 0.045684 0.000000 0.000000
# 5 0.000000 0.000000 0.000000 0.000000 0.030277 0.000000
# 6 0.000000 0.000000 0.000000 0.000000 0.000000 0.044775
#
#
# Mechanical properties :
#
#
# Convention : Reuss Voigt Hill
#
# Bulk Modulus (GPa) = 58.68682 73.38520 66.03601
# Shear Modulus (GPa) = 21.64758 23.81862 22.73310
#
# Velocity S-wave (km/s) = 3.54514 3.71867 3.63294
# Velocity P-wave (km/s) = 7.12948 7.81304 7.47907
#
# Compressibility (1/GPa) = 0.01703960
#
# Stress axis : x y z
#
# Youngs Moduli (GPa) = 68.87640 36.92610 52.08840
#
# Poissons Ratio (x) = 0.37831 0.32946
# Poissons Ratio (y) = 0.70564 0.27655
# Poissons Ratio (z) = 0.43564 0.19605
#
# Static dielectric constant tensor:
#      x y z
#    x 3.165780 0.000000 0.000000 
#    y 0.000000 3.208820 0.000000 
#    z 0.000000 0.000000 3.307250 
# 
# 
# High freq. dielectric constant tensor:
#      x y z
#    x 1.661390 0.000000 0.000000 
#    y 0.000000 1.651530 0.000000 
#    z 0.000000 0.000000 1.671480 
# 
# From -- ./inp_files/11524.got.cif
#   From: 2010.06.25/outbox.cif.g09.slc.cpg/sg71_6_cif.got.tgz:11524.got - 2010.06.28 04:59:45.
