data_PCOD8290615
_publ_section_title
;
Structure prediction by ZEFSAII (Michael W. Deem and Ramdas Pophale) SiO2 
 PCOD8290615
Probable space group: I M M M
;
_chemical_formula_sum "Si O2"
_cell_formula_units_Z 72
_cell_length_a 20.306381
_cell_length_b 8.737878
_cell_length_c 21.275832
_cell_angle_alpha 90.000000
_cell_angle_beta 90.000000
_cell_angle_gamma 90.000000
_cell_volume 3775.070438
_symmetry_space_group_name_H-M "I M M M"
_symmetry_group_IT_number 71
_symmetry_cell_setting 'orthorhombic'
loop_
_space_group_symop_operation_xyz
x,y,z
-x,-y,z
x,-y,-z
-x,y,-z
-x,-y,-z
x,y,-z
-x,y,z
x,-y,z
1/2+x,1/2+y,1/2+z
1/2-x,1/2-y,1/2+z
1/2+x,1/2-y,1/2-z
1/2-x,1/2+y,1/2-z
1/2-x,1/2-y,1/2-z
1/2+x,1/2+y,1/2-z
1/2-x,1/2+y,1/2+z
1/2+x,1/2-y,1/2+z
loop_
_atom_site_type_symbol
_atom_site_label
_atom_site_fract_x
_atom_site_fract_y
_atom_site_fract_z
Si Si1 0.500000 0.319049 0.648753
Si Si2 0.926394 0.166732 0.500000
Si Si3 0.262767 0.678572 0.072866
Si Si4 0.386143 0.819815 0.874761
Si Si5 0.000000 0.819073 0.293197
Si Si6 0.623668 0.677066 0.427921
O O1 0.500000 0.500000 0.639969
O O2 0.500000 0.269192 0.720823
O O3 0.565383 0.254124 0.614995
O O4 0.914864 0.273133 0.441120
O O5 0.000000 0.112709 0.500000
O O6 0.886867 0.000000 0.500000
O O7 0.266548 0.500000 0.084437
O O8 0.310924 0.758662 0.123821
O O9 0.189511 0.731757 0.088170
O O10 0.282652 0.720895 0.000000
O O11 0.432264 0.745799 0.821702
O O12 0.386802 0.000000 0.864756
O O13 0.000000 0.000000 0.302987
O O14 0.602670 0.700761 0.500000
O O15 0.637370 0.500000 0.413136
#
# Coordination Sequence:
#
# PCOD8290615 Si02
#       6
#     8   8  16  16   8  16
#     4   9  19  37  61  85 110 147 186 228 279 338
#     4  11  21  33  53  79 110 145 182 227 282 330
#     4  10  20  34  54  82 117 149 180 223 283 339
#     4  12  23  35  54  80 111 147 191 234 276 321
#     4  11  23  39  56  76 110 153 195 230 275 329
#     4   9  17  33  60  91 117 139 176 227 282 338
#
# _framework density 19.072493000000001
#
# number of rings (size 3 to 8) (size 9 to 14) (size 15 to 20)
#    0.000    1.667    2.222    3.667    0.000    2.667 
#    0.000    3.889    0.000    2.667    0.000    0.000 
#    0.000    0.000    0.000    0.000    0.000    0.000 
#
# Total GULP energy -446251.689684 kJ/mol
# GULP energy per Si atom -12395.880269 kJ/mol
# Density = 1.902908 g / cm^3
# Si number density = 19.072493 Si / 1000 Ang^3
#
#
#
# Elastic Constant Matrix: (Units=GPa)
#
#
# Indices 1 2 3 4 5 6 
#
# 1 151.5524 60.2136 75.1095 0.0000 0.0000 0.0000
# 2 60.2136 107.2843 45.6840 0.0000 0.0000 0.0000
# 3 75.1095 45.6840 105.9780 0.0000 0.0000 0.0000
# 4 0.0000 0.0000 0.0000 19.2878 0.0000 0.0000
# 5 0.0000 0.0000 0.0000 0.0000 -21.2772 0.0000
# 6 0.0000 0.0000 0.0000 0.0000 0.0000 25.7088
#
#
#
# Elastic Compliance Matrix: (Units=1/GPa)
#
#
# Indices 1 2 3 4 5 6 
#
# 1 0.011176 -0.003552 -0.006390 0.000000 0.000000 0.000000
# 2 -0.003552 0.012545 -0.002891 0.000000 0.000000 0.000000
# 3 -0.006390 -0.002891 0.015211 0.000000 0.000000 0.000000
# 4 0.000000 0.000000 0.000000 0.051846 0.000000 0.000000
# 5 0.000000 0.000000 0.000000 0.000000 -0.046999 0.000000
# 6 0.000000 0.000000 0.000000 0.000000 0.000000 0.038897
#
#
# Mechanical properties :
#
#
# Convention : Reuss Voigt Hill
#
# Bulk Modulus (GPa) = 75.37122 80.75875 78.06498
# Shear Modulus (GPa) = 44.34005 16.99772 30.66889
#
# Velocity S-wave (km/s) = 4.82687 2.98856 4.01436
# Velocity P-wave (km/s) = 8.40648 7.37182 7.90609
#
# Compressibility (1/GPa) = 0.01326766
#
# Stress axis : x y z
#
# Youngs Moduli (GPa) = 89.47410 79.71048 65.74306
#
# Poissons Ratio (x) = 0.28312 0.42009
# Poissons Ratio (y) = 0.31780 0.19004
# Poissons Ratio (z) = 0.57173 0.23042
#
# Static dielectric constant tensor:
#      x y z
#    x 3.838660 0.000000 0.000000 
#    y 0.000000 3.380220 0.000000 
#    z 0.000000 0.000000 3.324900 
# 
# 
# High freq. dielectric constant tensor:
#      x y z
#    x 1.761900 0.000000 0.000000 
#    y 0.000000 1.739820 0.000000 
#    z 0.000000 0.000000 1.711060 
# 
# From -- ./inp_files/54712.got.cif
#   From: 2010.06.25/outbox.cif.g09.slc.cpg/sg71_28_cif.got.tgz:54712.got - 2010.06.28 04:59:45.
