data_PCOD8290758
_publ_section_title
;
Structure prediction by ZEFSAII (Michael W. Deem and Ramdas Pophale) SiO2 
 PCOD8290758
Probable space group: I M M M
;
_chemical_formula_sum "Si O2"
_cell_formula_units_Z 80
_cell_length_a 19.827375
_cell_length_b 16.403541
_cell_length_c 14.183727
_cell_angle_alpha 90.000000
_cell_angle_beta 90.000000
_cell_angle_gamma 90.000000
_cell_volume 4613.103437
_symmetry_space_group_name_H-M "I M M M"
_symmetry_group_IT_number 71
_symmetry_cell_setting 'orthorhombic'
loop_
_space_group_symop_operation_xyz
x,y,z
-x,-y,z
x,-y,-z
-x,y,-z
-x,-y,-z
x,y,-z
-x,y,z
x,-y,z
1/2+x,1/2+y,1/2+z
1/2-x,1/2-y,1/2+z
1/2+x,1/2-y,1/2-z
1/2-x,1/2+y,1/2-z
1/2-x,1/2-y,1/2-z
1/2+x,1/2+y,1/2-z
1/2-x,1/2+y,1/2+z
1/2+x,1/2-y,1/2+z
loop_
_atom_site_type_symbol
_atom_site_label
_atom_site_fract_x
_atom_site_fract_y
_atom_site_fract_z
Si Si1 0.701313 0.596842 0.778045
Si Si2 0.638422 0.329858 0.608147
Si Si3 0.000000 0.908909 0.111615
Si Si4 0.924996 0.500000 0.111575
Si Si5 0.169920 0.644577 0.891490
Si Si6 0.925798 0.096565 0.394395
O O1 0.709212 0.500000 0.782554
O O2 0.697038 0.627743 0.670111
O O3 0.764091 0.638995 0.827951
O O4 0.633815 0.630349 0.829040
O O5 0.651743 0.355338 0.500000
O O6 0.566566 0.362280 0.645845
O O7 0.637508 0.233030 0.619697
O O8 0.000000 0.000000 0.156000
O O9 0.000000 0.913951 0.000000
O O10 0.885218 0.580198 0.145611
O O11 0.000000 0.500000 0.156681
O O12 0.931450 0.500000 0.000000
O O13 0.189899 0.626063 0.000000
O O14 0.916346 0.131631 0.500000
O O15 0.000000 0.122559 0.354997
O O16 0.920793 0.000000 0.398152
#
# Coordination Sequence:
#
# PCOD8290758 Si02
#       6
#    16  16   8   8  16  16
#     4  11  20  31  51  74 103 137 174 215 259 315
#     4  10  22  35  50  72 104 141 176 218 260 308
#     4   9  18  34  52  71  98 136 178 212 246 296
#     4   9  18  32  54  78 102 130 165 210 262 322
#     4  10  20  35  53  77 105 133 171 214 267 318
#     4   8  15  27  43  66  96 130 169 209 251 301
#
# _framework density 17.341904
#
# number of rings (size 3 to 8) (size 9 to 14) (size 15 to 20)
#    0.000    2.400    1.000    2.400    2.800    2.000 
#    0.000    0.000    0.000    0.000    0.000    0.000 
#    0.000    1.600    0.000    0.000    0.000    0.200 
#
# Total GULP energy -495956.438492 kJ/mol
# GULP energy per Si atom -12398.910962 kJ/mol
# Density = 1.730243 g / cm^3
# Si number density = 17.341904 Si / 1000 Ang^3
#
#
#
# Elastic Constant Matrix: (Units=GPa)
#
#
# Indices 1 2 3 4 5 6 
#
# 1 133.4526 47.3375 52.4088 0.0000 0.0000 0.0000
# 2 47.3375 82.0967 28.7960 0.0000 0.0000 0.0000
# 3 52.4088 28.7960 63.3072 0.0000 0.0000 0.0000
# 4 0.0000 0.0000 0.0000 19.9536 0.0000 0.0000
# 5 0.0000 0.0000 0.0000 0.0000 19.3174 0.0000
# 6 0.0000 0.0000 0.0000 0.0000 0.0000 28.0098
#
#
#
# Elastic Compliance Matrix: (Units=1/GPa)
#
#
# Indices 1 2 3 4 5 6 
#
# 1 0.012186 -0.004150 -0.008200 0.000000 0.000000 0.000000
# 2 -0.004150 0.015906 -0.003800 0.000000 0.000000 0.000000
# 3 -0.008200 -0.003800 0.024313 0.000000 0.000000 0.000000
# 4 0.000000 0.000000 0.000000 0.050116 0.000000 0.000000
# 5 0.000000 0.000000 0.000000 0.000000 0.051767 0.000000
# 6 0.000000 0.000000 0.000000 0.000000 0.000000 0.035702
#
#
# Mechanical properties :
#
#
# Convention : Reuss Voigt Hill
#
# Bulk Modulus (GPa) = 49.73833 59.54900 54.64367
# Shear Modulus (GPa) = 21.83489 23.47712 22.65601
#
# Velocity S-wave (km/s) = 3.55220 3.68337 3.61838
# Velocity P-wave (km/s) = 6.75037 7.24585 7.00249
#
# Compressibility (1/GPa) = 0.02010522
#
# Stress axis : x y z
#
# Youngs Moduli (GPa) = 82.06308 62.86757 41.13050
#
# Poissons Ratio (x) = 0.26091 0.33728
# Poissons Ratio (y) = 0.34057 0.15628
# Poissons Ratio (z) = 0.67294 0.23887
#
# Static dielectric constant tensor:
#      x y z
#    x 3.389120 0.000000 0.000000 
#    y 0.000000 3.046430 0.000000 
#    z 0.000000 0.000000 3.225500 
# 
# 
# High freq. dielectric constant tensor:
#      x y z
#    x 1.671200 0.000000 0.000000 
#    y 0.000000 1.648700 0.000000 
#    z 0.000000 0.000000 1.658600 
# 
# From -- ./inp_files/36294.got.cif
#   From: 2010.06.25/outbox.cif.g09.slc.cpg/sg71_19_cif.got.tgz:36294.got - 2010.06.28 04:59:45.
