data_PCOD8290149
_publ_section_title
;
Structure prediction by ZEFSAII (Michael W. Deem and Ramdas Pophale) SiO2 
 PCOD8290149
Probable space group: I M M M
;
_chemical_formula_sum "Si O2"
_cell_formula_units_Z 104
_cell_length_a 25.953858
_cell_length_b 9.363291
_cell_length_c 23.857238
_cell_angle_alpha 90.000000
_cell_angle_beta 90.000000
_cell_angle_gamma 90.000000
_cell_volume 5797.631504
_symmetry_space_group_name_H-M "I M M M"
_symmetry_group_IT_number 71
_symmetry_cell_setting 'orthorhombic'
loop_
_space_group_symop_operation_xyz
x,y,z
-x,-y,z
x,-y,-z
-x,y,-z
-x,-y,-z
x,y,-z
-x,y,z
x,-y,z
1/2+x,1/2+y,1/2+z
1/2-x,1/2-y,1/2+z
1/2+x,1/2-y,1/2-z
1/2-x,1/2+y,1/2-z
1/2-x,1/2-y,1/2-z
1/2+x,1/2+y,1/2-z
1/2-x,1/2+y,1/2+z
1/2+x,1/2-y,1/2+z
loop_
_atom_site_type_symbol
_atom_site_label
_atom_site_fract_x
_atom_site_fract_y
_atom_site_fract_z
Si Si1 0.868504 0.836322 0.730685
Si Si2 0.500000 0.838919 0.433249
Si Si3 0.681405 0.665143 0.346364
Si Si4 0.640120 0.165771 0.064257
Si Si5 0.403272 0.663543 0.564150
Si Si6 0.558503 0.832961 0.843385
Si Si7 0.215084 0.166121 0.362818
O O1 0.853277 0.790664 0.793266
O O2 0.916979 0.743525 0.710575
O O3 0.819425 0.807643 0.691672
O O4 0.886014 0.000000 0.728040
O O5 0.500000 0.832313 0.500000
O O6 0.550891 0.759861 0.410736
O O7 0.500000 0.000000 0.410428
O O8 0.698913 0.500000 0.341197
O O9 0.648619 0.692938 0.402018
O O10 0.730270 0.766038 0.349339
O O11 0.589755 0.207514 0.100300
O O12 0.689207 0.257523 0.083729
O O13 0.654348 0.000000 0.072247
O O14 0.627470 0.202155 0.000000
O O15 0.391074 0.703476 0.500000
O O16 0.421174 0.500000 0.570019
O O17 0.500000 0.780328 0.851725
O O18 0.560883 0.000000 0.831421
O O19 0.222002 0.000000 0.376879
#
# Coordination Sequence:
#
# PCOD8290149 Si02
#       7
#    16   8  16  16  16  16  16
#     4   9  19  35  52  72  99 134 173 210 252 305
#     4   9  17  31  51  71  93 123 155 189 234 287
#     4  10  20  34  52  75 100 130 172 213 250 301
#     4   9  18  33  53  76 103 138 176 210 250 305
#     4   9  18  33  52  72  95 125 161 201 244 291
#     4   9  18  33  53  77 105 135 169 214 263 306
#     4  10  20  33  51  74 102 134 167 209 259 303
#
# _framework density 17.938358999999998
#
# number of rings (size 3 to 8) (size 9 to 14) (size 15 to 20)
#    0.000    2.692    0.000    1.154    0.000    4.308 
#    1.385    3.077    0.000    0.000    0.000    4.308 
#    0.000    0.000    0.000    0.000    0.000    0.000 
#
# Total GULP energy -644918.969794 kJ/mol
# GULP energy per Si atom -12402.287881 kJ/mol
# Density = 1.789753 g / cm^3
# Si number density = 17.938359 Si / 1000 Ang^3
#
#
#
# Elastic Constant Matrix: (Units=GPa)
#
#
# Indices 1 2 3 4 5 6 
#
# 1 85.7174 53.4039 54.3515 0.0000 0.0000 0.0000
# 2 53.4039 77.7103 42.9388 0.0000 0.0000 0.0000
# 3 54.3515 42.9388 100.4769 0.0000 0.0000 0.0000
# 4 0.0000 0.0000 0.0000 23.2417 0.0000 0.0000
# 5 0.0000 0.0000 0.0000 0.0000 15.6530 0.0000
# 6 0.0000 0.0000 0.0000 0.0000 0.0000 30.7546
#
#
#
# Elastic Compliance Matrix: (Units=1/GPa)
#
#
# Indices 1 2 3 4 5 6 
#
# 1 0.024405 -0.012406 -0.007899 0.000000 0.000000 0.000000
# 2 -0.012406 0.023153 -0.003183 0.000000 0.000000 0.000000
# 3 -0.007899 -0.003183 0.015586 0.000000 0.000000 0.000000
# 4 0.000000 0.000000 0.000000 0.043026 0.000000 0.000000
# 5 0.000000 0.000000 0.000000 0.000000 0.063885 0.000000
# 6 0.000000 0.000000 0.000000 0.000000 0.000000 0.032516
#
#
# Mechanical properties :
#
#
# Convention : Reuss Voigt Hill
#
# Bulk Modulus (GPa) = 61.86100 62.81032 62.33566
# Shear Modulus (GPa) = 19.61261 21.47722 20.54491
#
# Velocity S-wave (km/s) = 3.31015 3.46393 3.38791
# Velocity P-wave (km/s) = 7.01210 7.14765 7.08020
#
# Compressibility (1/GPa) = 0.01616527
#
# Stress axis : x y z
#
# Youngs Moduli (GPa) = 40.97586 43.19042 64.15995
#
# Poissons Ratio (x) = 0.53584 0.50683
# Poissons Ratio (y) = 0.50837 0.20425
# Poissons Ratio (z) = 0.32368 0.13749
#
# Static dielectric constant tensor:
#      x y z
#    x 3.282420 0.000000 0.000000 
#    y 0.000000 3.361890 0.000000 
#    z 0.000000 0.000000 3.348080 
# 
# 
# High freq. dielectric constant tensor:
#      x y z
#    x 1.692240 0.000000 0.000000 
#    y 0.000000 1.693150 0.000000 
#    z 0.000000 0.000000 1.687960 
# 
# From -- ./inp_files/13280.got.cif
#   From: 2010.06.25/outbox.cif.g09.slc.cpg/sg71_7_cif.got.tgz:13280.got - 2010.06.28 04:59:45.
