data_PCOD8290377
_publ_section_title
;
Structure prediction by ZEFSAII (Michael W. Deem and Ramdas Pophale) SiO2 
 PCOD8290377
Probable space group: I M M M
;
_chemical_formula_sum "Si O2"
_cell_formula_units_Z 104
_cell_length_a 21.129600
_cell_length_b 28.658742
_cell_length_c 9.488741
_cell_angle_alpha 90.000000
_cell_angle_beta 90.000000
_cell_angle_gamma 90.000000
_cell_volume 5745.885810
_symmetry_space_group_name_H-M "I M M M"
_symmetry_group_IT_number 71
_symmetry_cell_setting 'orthorhombic'
loop_
_space_group_symop_operation_xyz
x,y,z
-x,-y,z
x,-y,-z
-x,y,-z
-x,-y,-z
x,y,-z
-x,y,z
x,-y,z
1/2+x,1/2+y,1/2+z
1/2-x,1/2-y,1/2+z
1/2+x,1/2-y,1/2-z
1/2-x,1/2+y,1/2-z
1/2-x,1/2-y,1/2-z
1/2+x,1/2+y,1/2-z
1/2-x,1/2+y,1/2+z
1/2+x,1/2-y,1/2+z
loop_
_atom_site_type_symbol
_atom_site_label
_atom_site_fract_x
_atom_site_fract_y
_atom_site_fract_z
Si Si1 0.879044 0.054154 0.837597
Si Si2 0.000000 0.732739 0.153381
Si Si3 0.738684 0.381360 0.663293
Si Si4 0.723416 0.709292 0.155009
Si Si5 0.878781 0.373367 0.338322
Si Si6 0.394046 0.232158 0.850042
Si Si7 0.500000 0.444499 0.838029
Si Si8 0.500000 0.121849 0.660059
O O1 0.812114 0.078578 0.801810
O O2 0.936506 0.073876 0.741012
O O3 0.867684 0.000000 0.806111
O O4 0.898234 0.062626 0.000000
O O5 0.061021 0.751920 0.230417
O O6 0.000000 0.677198 0.157121
O O7 0.000000 0.754517 0.000000
O O8 0.734018 0.365182 0.500000
O O9 0.722731 0.339156 0.765368
O O10 0.811249 0.398731 0.693103
O O11 0.750000 0.750000 0.250000
O O12 0.652789 0.725562 0.127581
O O13 0.757155 0.704767 0.000000
O O14 0.899352 0.381505 0.500000
O O15 0.864761 0.318320 0.306056
O O16 0.935627 0.393990 0.241062
O O17 0.429664 0.223896 0.000000
O O18 0.500000 0.500000 0.830686
O O19 0.500000 0.426781 0.000000
O O20 0.500000 0.101676 0.500000
#
# Coordination Sequence:
#
# PCOD8290377 Si02
#       8
#    16   8  16  16  16  16   8   8
#     4   9  18  34  57  82 108 138 173 216 266 319
#     4   9  17  27  42  64  85 112 156 205 244 279
#     4  10  20  34  51  76 105 133 170 212 258 313
#     4  11  21  33  49  69  96 132 171 206 249 301
#     4   9  16  29  46  65  93 128 162 199 246 296
#     4   9  17  30  45  61  86 122 158 194 241 292
#     4   9  17  31  54  81 108 137 172 216 262 316
#     4   9  17  27  41  66  93 120 161 209 246 282
#
# _framework density 18.099907999999999
#
# number of rings (size 3 to 8) (size 9 to 14) (size 15 to 20)
#    0.000    2.538    1.538    1.154    0.000    5.231 
#    0.000    0.769    0.000    0.000    0.000    0.538 
#    0.000    4.308    0.000    0.000    0.000    0.000 
#
# Total GULP energy -644197.284116 kJ/mol
# GULP energy per Si atom -12388.409310 kJ/mol
# Density = 1.805871 g / cm^3
# Si number density = 18.099908 Si / 1000 Ang^3
#
#
#
# Elastic Constant Matrix: (Units=GPa)
#
#
# Indices 1 2 3 4 5 6 
#
# 1 144.7432 33.5311 77.0649 0.0000 0.0000 0.0000
# 2 33.5311 40.7713 36.1403 0.0000 0.0000 0.0000
# 3 77.0649 36.1403 135.7129 0.0000 0.0000 0.0000
# 4 0.0000 0.0000 0.0000 17.4105 0.0000 0.0000
# 5 0.0000 0.0000 0.0000 0.0000 15.5817 0.0000
# 6 0.0000 0.0000 0.0000 0.0000 0.0000 20.8702
#
#
#
# Elastic Compliance Matrix: (Units=1/GPa)
#
#
# Indices 1 2 3 4 5 6 
#
# 1 0.010466 -0.004371 -0.004779 0.000000 0.000000 0.000000
# 2 -0.004371 0.033931 -0.006554 0.000000 0.000000 0.000000
# 3 -0.004779 -0.006554 0.011828 0.000000 0.000000 0.000000
# 4 0.000000 0.000000 0.000000 0.057436 0.000000 0.000000
# 5 0.000000 0.000000 0.000000 0.000000 0.064178 0.000000
# 6 0.000000 0.000000 0.000000 0.000000 0.000000 0.047915
#
#
# Mechanical properties :
#
#
# Convention : Reuss Voigt Hill
#
# Bulk Modulus (GPa) = 40.29510 68.29999 54.29754
# Shear Modulus (GPa) = 18.83706 22.40524 20.62115
#
# Velocity S-wave (km/s) = 3.22953 3.52215 3.37901
# Velocity P-wave (km/s) = 6.01809 7.37276 6.72960
#
# Compressibility (1/GPa) = 0.02481691
#
# Stress axis : x y z
#
# Youngs Moduli (GPa) = 95.54854 29.47128 84.54832
#
# Poissons Ratio (x) = 0.12882 0.40406
# Poissons Ratio (y) = 0.41766 0.55411
# Poissons Ratio (z) = 0.45663 0.19315
#
# Static dielectric constant tensor:
#      x y z
#    x 3.174220 0.000000 0.000000 
#    y 0.000000 3.871680 0.000000 
#    z 0.000000 0.000000 3.877430 
# 
# 
# High freq. dielectric constant tensor:
#      x y z
#    x 1.708710 0.000000 0.000000 
#    y 0.000000 1.636890 0.000000 
#    z 0.000000 0.000000 1.714360 
# 
# From -- ./inp_files/11568.got.cif
#   From: 2010.06.25/outbox.cif.g09.slc.cpg/sg71_6_cif.got.tgz:11568.got - 2010.06.28 04:59:45.
