data_PCOD8290299
_publ_section_title
;
Structure prediction by ZEFSAII (Michael W. Deem and Ramdas Pophale) SiO2 
 PCOD8290299
Probable space group: I M M M
;
_chemical_formula_sum "Si O2"
_cell_formula_units_Z 104
_cell_length_a 20.082853
_cell_length_b 9.084587
_cell_length_c 31.947559
_cell_angle_alpha 90.000000
_cell_angle_beta 90.000000
_cell_angle_gamma 90.000000
_cell_volume 5828.654041
_symmetry_space_group_name_H-M "I M M M"
_symmetry_group_IT_number 71
_symmetry_cell_setting 'orthorhombic'
loop_
_space_group_symop_operation_xyz
x,y,z
-x,-y,z
x,-y,-z
-x,y,-z
-x,-y,-z
x,y,-z
-x,y,z
x,-y,z
1/2+x,1/2+y,1/2+z
1/2-x,1/2-y,1/2+z
1/2+x,1/2-y,1/2-z
1/2-x,1/2+y,1/2-z
1/2-x,1/2-y,1/2-z
1/2+x,1/2+y,1/2-z
1/2-x,1/2+y,1/2+z
1/2+x,1/2-y,1/2+z
loop_
_atom_site_type_symbol
_atom_site_label
_atom_site_fract_x
_atom_site_fract_y
_atom_site_fract_z
Si Si1 0.813976 0.327869 0.630611
Si Si2 0.194415 0.831344 0.546766
Si Si3 0.180146 0.669336 0.156768
Si Si4 0.928098 0.171255 0.000000
Si Si5 0.423570 0.673454 0.717348
Si Si6 0.347737 0.838818 0.436664
Si Si7 0.575427 0.167333 0.802346
O O1 0.797537 0.500000 0.627095
O O2 0.833881 0.268540 0.584347
O O3 0.751388 0.248725 0.652606
O O4 0.877611 0.293955 0.658942
O O5 0.170186 0.781110 0.500000
O O6 0.273162 0.815317 0.548255
O O7 0.172956 0.000000 0.554892
O O8 0.192492 0.500000 0.170279
O O9 0.130816 0.747267 0.188855
O O10 0.143241 0.677905 0.112615
O O11 0.891532 0.215208 0.042258
O O12 0.000000 0.247277 0.000000
O O13 0.934930 0.000000 0.000000
O O14 0.500000 0.716632 0.705027
O O15 0.412916 0.500000 0.713655
O O16 0.408545 0.722831 0.764549
O O17 0.371980 0.000000 0.451184
O O18 0.500000 0.188911 0.818102
O O19 0.587332 0.000000 0.786789
#
# Coordination Sequence:
#
# PCOD8290299 Si02
#       7
#    16  16  16   8  16  16  16
#     4  10  20  33  53  83 110 134 173 221 267 309
#     4   9  17  32  53  75 102 134 168 207 255 312
#     4  10  21  36  54  76 105 140 176 215 263 317
#     4  11  23  33  43  65  95 127 164 209 260 303
#     4  10  21  36  55  79 105 136 177 223 267 311
#     4   9  18  34  51  67  90 126 170 208 246 298
#     4   9  19  37  58  78 105 141 176 211 257 320
#
# _framework density 17.842884000000002
#
# number of rings (size 3 to 8) (size 9 to 14) (size 15 to 20)
#    0.000    2.385    0.769    2.538    0.000    7.385 
#    0.000    3.077    0.000    0.462    0.000    3.231 
#    0.000    0.000    0.000    0.000    0.000    0.000 
#
# Total GULP energy -644595.009291 kJ/mol
# GULP energy per Si atom -12396.057871 kJ/mol
# Density = 1.780227 g / cm^3
# Si number density = 17.842884 Si / 1000 Ang^3
#
#
#
# Elastic Constant Matrix: (Units=GPa)
#
#
# Indices 1 2 3 4 5 6 
#
# 1 79.0667 48.8313 64.5310 0.0000 0.0000 0.0000
# 2 48.8313 98.6181 59.1226 0.0000 0.0000 0.0000
# 3 64.5310 59.1226 122.6041 0.0000 0.0000 0.0000
# 4 0.0000 0.0000 0.0000 35.9225 0.0000 0.0000
# 5 0.0000 0.0000 0.0000 0.0000 42.2644 0.0000
# 6 0.0000 0.0000 0.0000 0.0000 0.0000 15.8498
#
#
#
# Elastic Compliance Matrix: (Units=1/GPa)
#
#
# Indices 1 2 3 4 5 6 
#
# 1 0.024614 -0.006219 -0.009957 0.000000 0.000000 0.000000
# 2 -0.006219 0.015835 -0.004363 0.000000 0.000000 0.000000
# 3 -0.009957 -0.004363 0.015501 0.000000 0.000000 0.000000
# 4 0.000000 0.000000 0.000000 0.027838 0.000000 0.000000
# 5 0.000000 0.000000 0.000000 0.000000 0.023661 0.000000
# 6 0.000000 0.000000 0.000000 0.000000 0.000000 0.063092
#
#
# Mechanical properties :
#
#
# Convention : Reuss Voigt Hill
#
# Bulk Modulus (GPa) = 67.23318 71.69542 69.46430
# Shear Modulus (GPa) = 23.08668 27.32761 25.20715
#
# Velocity S-wave (km/s) = 3.60097 3.91777 3.76271
# Velocity P-wave (km/s) = 7.41969 7.79320 7.60874
#
# Compressibility (1/GPa) = 0.01487361
#
# Stress axis : x y z
#
# Youngs Moduli (GPa) = 40.62650 63.15136 64.51333
#
# Poissons Ratio (x) = 0.39273 0.64233
# Poissons Ratio (y) = 0.25265 0.28146
# Poissons Ratio (z) = 0.40450 0.27551
#
# Static dielectric constant tensor:
#      x y z
#    x 3.160380 0.000000 0.000000 
#    y 0.000000 3.418490 0.000000 
#    z 0.000000 0.000000 3.421790 
# 
# 
# High freq. dielectric constant tensor:
#      x y z
#    x 1.669880 0.000000 0.000000 
#    y 0.000000 1.698330 0.000000 
#    z 0.000000 0.000000 1.695690 
# 
# From -- ./inp_files/56666.got.cif
#   From: 2010.06.25/outbox.cif.g09.slc.cpg/sg71_29_cif.got.tgz:56666.got - 2010.06.28 04:59:45.
