data_PCOD8290851
_publ_section_title
;
Structure prediction by ZEFSAII (Michael W. Deem and Ramdas Pophale) SiO2 
 PCOD8290851
Probable space group: I M M M
;
_chemical_formula_sum "Si O2"
_cell_formula_units_Z 96
_cell_length_a 25.036734
_cell_length_b 22.191000
_cell_length_c 9.055432
_cell_angle_alpha 90.000000
_cell_angle_beta 90.000000
_cell_angle_gamma 90.000000
_cell_volume 5031.108952
_symmetry_space_group_name_H-M "I M M M"
_symmetry_group_IT_number 71
_symmetry_cell_setting 'orthorhombic'
loop_
_space_group_symop_operation_xyz
x,y,z
-x,-y,z
x,-y,-z
-x,y,-z
-x,-y,-z
x,y,-z
-x,y,z
x,-y,z
1/2+x,1/2+y,1/2+z
1/2-x,1/2-y,1/2+z
1/2+x,1/2-y,1/2-z
1/2-x,1/2+y,1/2-z
1/2-x,1/2-y,1/2-z
1/2+x,1/2+y,1/2-z
1/2-x,1/2+y,1/2+z
1/2+x,1/2-y,1/2+z
loop_
_atom_site_type_symbol
_atom_site_label
_atom_site_fract_x
_atom_site_fract_y
_atom_site_fract_z
Si Si1 0.385062 0.431805 0.825307
Si Si2 0.192120 0.303636 0.665183
Si Si3 0.437865 0.065159 0.839880
Si Si4 0.088211 0.323447 0.830257
Si Si5 0.500000 0.252015 0.173929
Si Si6 0.206536 0.161857 0.667077
Si Si7 0.000000 0.889839 0.674766
O O1 0.368096 0.500000 0.777363
O O2 0.341422 0.381695 0.771793
O O3 0.444981 0.418941 0.761068
O O4 0.388563 0.426531 0.000000
O O5 0.179214 0.327023 0.500000
O O6 0.149383 0.319478 0.787919
O O7 0.191657 0.231693 0.662397
O O8 0.244647 0.339965 0.717988
O O9 0.500000 0.056713 0.855486
O O10 0.427067 0.108155 0.702859
O O11 0.411411 0.000000 0.806382
O O12 0.416259 0.089630 0.000000
O O13 0.053327 0.278012 0.734480
O O14 0.078735 0.308193 0.000000
O O15 0.500000 0.320730 0.223301
O O16 0.500000 0.243748 0.000000
O O17 0.222262 0.141167 0.500000
O O18 0.000000 0.897522 0.500000
#
# Coordination Sequence:
#
# PCOD8290851 Si02
#       7
#    16  16  16  16   8  16   8
#     4   9  16  28  50  80 113 145 177 219 270 322
#     4  10  20  35  56  77 103 140 181 226 277 330
#     4   9  18  34  55  75  99 136 176 211 255 315
#     4  12  23  34  51  80 111 140 178 226 275 324
#     4  11  21  34  52  75 110 150 185 225 272 323
#     4   9  18  34  54  79 106 137 180 228 277 328
#     4   9  17  29  48  78 113 148 183 216 258 319
#
# _framework density 19.08128
#
# number of rings (size 3 to 8) (size 9 to 14) (size 15 to 20)
#    0.000    2.167    0.833    4.000    0.000    4.667 
#    0.000    1.667    0.000    3.500    0.000    0.000 
#    0.000    5.333    0.000    0.000    0.000    0.000 
#
# Total GULP energy -594644.728933 kJ/mol
# GULP energy per Si atom -12388.431853 kJ/mol
# Density = 1.903785 g / cm^3
# Si number density = 19.081280 Si / 1000 Ang^3
#
#
#
# Elastic Constant Matrix: (Units=GPa)
#
#
# Indices 1 2 3 4 5 6 
#
# 1 109.7534 51.8654 19.7587 0.0000 0.0000 0.0000
# 2 51.8654 93.1201 27.9418 0.0000 0.0000 0.0000
# 3 19.7587 27.9418 66.2683 0.0000 0.0000 0.0000
# 4 0.0000 0.0000 0.0000 13.2030 0.0000 0.0000
# 5 0.0000 0.0000 0.0000 0.0000 27.4253 0.0000
# 6 0.0000 0.0000 0.0000 0.0000 0.0000 14.2654
#
#
#
# Elastic Compliance Matrix: (Units=1/GPa)
#
#
# Indices 1 2 3 4 5 6 
#
# 1 0.012413 -0.006644 -0.000900 0.000000 0.000000 0.000000
# 2 -0.006644 0.015850 -0.004702 0.000000 0.000000 0.000000
# 3 -0.000900 -0.004702 0.017341 0.000000 0.000000 0.000000
# 4 0.000000 0.000000 0.000000 0.075741 0.000000 0.000000
# 5 0.000000 0.000000 0.000000 0.000000 0.036463 0.000000
# 6 0.000000 0.000000 0.000000 0.000000 0.000000 0.070100
#
#
# Mechanical properties :
#
#
# Convention : Reuss Voigt Hill
#
# Bulk Modulus (GPa) = 47.36475 52.03042 49.69758
# Shear Modulus (GPa) = 19.27257 22.28380 20.77819
#
# Velocity S-wave (km/s) = 3.18154 3.42107 3.30347
# Velocity P-wave (km/s) = 6.19457 6.55225 6.37592
#
# Compressibility (1/GPa) = 0.02111275
#
# Stress axis : x y z
#
# Youngs Moduli (GPa) = 80.56157 63.09097 57.66633
#
# Poissons Ratio (x) = 0.41915 0.05189
# Poissons Ratio (y) = 0.53522 0.27116
# Poissons Ratio (z) = 0.07249 0.29667
#
# Static dielectric constant tensor:
#      x y z
#    x 3.504990 0.000000 0.000000 
#    y 0.000000 2.650170 0.000000 
#    z 0.000000 0.000000 3.282320 
# 
# 
# High freq. dielectric constant tensor:
#      x y z
#    x 1.737500 0.000000 0.000000 
#    y 0.000000 1.741620 0.000000 
#    z 0.000000 0.000000 1.713360 
# 
# From -- ./inp_files/12894.got.cif
#   From: 2010.06.25/outbox.cif.g09.slc.cpg/sg71_7_cif.got.tgz:12894.got - 2010.06.28 04:59:45.
