data_PCOD8290458
_publ_section_title
;
Structure prediction by ZEFSAII (Michael W. Deem and Ramdas Pophale) SiO2 
 PCOD8290458
Probable space group: I M M M
;
_chemical_formula_sum "Si O2"
_cell_formula_units_Z 64
_cell_length_a 41.465093
_cell_length_b 8.980894
_cell_length_c 9.684507
_cell_angle_alpha 90.000000
_cell_angle_beta 90.000000
_cell_angle_gamma 90.000000
_cell_volume 3606.448474
_symmetry_space_group_name_H-M "I M M M"
_symmetry_group_IT_number 71
_symmetry_cell_setting 'orthorhombic'
loop_
_space_group_symop_operation_xyz
x,y,z
-x,-y,z
x,-y,-z
-x,y,-z
-x,-y,-z
x,y,-z
-x,y,z
x,-y,z
1/2+x,1/2+y,1/2+z
1/2-x,1/2-y,1/2+z
1/2+x,1/2-y,1/2-z
1/2-x,1/2+y,1/2-z
1/2-x,1/2-y,1/2-z
1/2+x,1/2+y,1/2-z
1/2-x,1/2+y,1/2+z
1/2+x,1/2-y,1/2+z
loop_
_atom_site_type_symbol
_atom_site_label
_atom_site_fract_x
_atom_site_fract_y
_atom_site_fract_z
Si Si1 0.657652 0.832439 0.163927
Si Si2 0.722448 0.325113 0.839142
Si Si3 0.535643 0.323036 0.654961
Si Si4 0.093490 0.174967 0.659653
O O1 0.688521 0.739800 0.214663
O O2 0.625231 0.755013 0.219955
O O3 0.659904 0.000000 0.222401
O O4 0.656611 0.832018 0.000000
O O5 0.722459 0.500000 0.812442
O O6 0.750000 0.250000 0.750000
O O7 0.728077 0.287186 0.000000
O O8 0.543448 0.267913 0.500000
O O9 0.500000 0.265758 0.699804
O O10 0.535914 0.500000 0.660065
O O11 0.562657 0.260192 0.758515
O O12 0.087820 0.213376 0.500000
O O13 0.098182 0.000000 0.682790
#
# Coordination Sequence:
#
# PCOD8290458 Si02
#       4
#    16  16  16  16
#     4   9  17  30  48  68  92 124 158 191 232 281
#     4  10  20  34  53  76 101 129 162 199 239 285
#     4   8  14  25  41  62  89 119 148 180 224 277
#     4   9  16  26  43  67  90 112 146 192 233 269
#
# _framework density 17.745989000000002
#
# number of rings (size 3 to 8) (size 9 to 14) (size 15 to 20)
#    0.000    3.000    0.000    2.250    0.000    5.000 
#    0.000    3.750    0.000    6.000    0.000    5.250 
#    0.000    0.000    0.000    0.000    0.000    0.000 
#
# Total GULP energy -396704.327807 kJ/mol
# GULP energy per Si atom -12397.010244 kJ/mol
# Density = 1.770560 g / cm^3
# Si number density = 17.745989 Si / 1000 Ang^3
#
#
#
# Elastic Constant Matrix: (Units=GPa)
#
#
# Indices 1 2 3 4 5 6 
#
# 1 203.8491 66.5203 76.5302 0.0000 0.0000 0.0000
# 2 66.5203 75.9678 36.5959 0.0000 0.0000 0.0000
# 3 76.5302 36.5959 59.9937 0.0000 0.0000 0.0000
# 4 0.0000 0.0000 0.0000 14.8725 0.0000 0.0000
# 5 0.0000 0.0000 0.0000 0.0000 32.8795 0.0000
# 6 0.0000 0.0000 0.0000 0.0000 0.0000 24.8062
#
#
#
# Elastic Compliance Matrix: (Units=1/GPa)
#
#
# Indices 1 2 3 4 5 6 
#
# 1 0.010112 -0.003739 -0.010619 0.000000 0.000000 0.000000
# 2 -0.003739 0.020024 -0.007444 0.000000 0.000000 0.000000
# 3 -0.010619 -0.007444 0.034755 0.000000 0.000000 0.000000
# 4 0.000000 0.000000 0.000000 0.067238 0.000000 0.000000
# 5 0.000000 0.000000 0.000000 0.000000 0.030414 0.000000
# 6 0.000000 0.000000 0.000000 0.000000 0.000000 0.040312
#
#
# Mechanical properties :
#
#
# Convention : Reuss Voigt Hill
#
# Bulk Modulus (GPa) = 46.97830 77.67815 62.32823
# Shear Modulus (GPa) = 19.71947 25.18927 22.45437
#
# Velocity S-wave (km/s) = 3.33709 3.77163 3.56099
# Velocity P-wave (km/s) = 6.43260 7.92680 7.21847
#
# Compressibility (1/GPa) = 0.02128642
#
# Stress axis : x y z
#
# Youngs Moduli (GPa) = 98.88866 49.93988 28.77284
#
# Poissons Ratio (x) = 0.18675 0.30553
# Poissons Ratio (y) = 0.36979 0.21420
# Poissons Ratio (z) = 1.05007 0.37177
#
# Static dielectric constant tensor:
#      x y z
#    x 3.686610 0.000000 0.000000 
#    y 0.000000 3.161490 0.000000 
#    z 0.000000 0.000000 3.117900 
# 
# 
# High freq. dielectric constant tensor:
#      x y z
#    x 1.704190 0.000000 0.000000 
#    y 0.000000 1.665640 0.000000 
#    z 0.000000 0.000000 1.653740 
# 
# From -- ./inp_files/3688.got.cif
#   From: 2010.06.25/outbox.cif.g09.slc.cpg/sg71_2_cif.got.tgz:3688.got - 2010.06.28 04:59:45.
