data_PCOD8290926
_publ_section_title
;
Structure prediction by ZEFSAII (Michael W. Deem and Ramdas Pophale) SiO2 
 PCOD8290926
Probable space group: I M M M
;
_chemical_formula_sum "Si O2"
_cell_formula_units_Z 120
_cell_length_a 11.097729
_cell_length_b 26.298263
_cell_length_c 20.968855
_cell_angle_alpha 90.000000
_cell_angle_beta 90.000000
_cell_angle_gamma 90.000000
_cell_volume 6119.781216
_symmetry_space_group_name_H-M "I M M M"
_symmetry_group_IT_number 71
_symmetry_cell_setting 'orthorhombic'
loop_
_space_group_symop_operation_xyz
x,y,z
-x,-y,z
x,-y,-z
-x,y,-z
-x,-y,-z
x,y,-z
-x,y,z
x,-y,z
1/2+x,1/2+y,1/2+z
1/2-x,1/2-y,1/2+z
1/2+x,1/2-y,1/2-z
1/2-x,1/2+y,1/2-z
1/2-x,1/2-y,1/2-z
1/2+x,1/2+y,1/2-z
1/2-x,1/2+y,1/2+z
1/2+x,1/2-y,1/2+z
loop_
_atom_site_type_symbol
_atom_site_label
_atom_site_fract_x
_atom_site_fract_y
_atom_site_fract_z
Si Si1 0.357550 0.058567 0.000000
Si Si2 0.141228 0.221251 0.928655
Si Si3 0.254935 0.880615 0.119729
Si Si4 0.365749 0.942250 0.424669
Si Si5 0.629172 0.812994 0.219955
Si Si6 0.640205 0.444373 0.273702
Si Si7 0.291116 0.287148 0.835520
Si Si8 0.862889 0.893732 0.642205
O O1 0.314050 0.088663 0.937861
O O2 0.500000 0.058448 0.000000
O O3 0.309516 0.000000 0.000000
O O4 0.171108 0.164864 0.904847
O O5 0.194030 0.265833 0.885161
O O6 0.000000 0.228267 0.926814
O O7 0.192485 0.228220 0.000000
O O8 0.353450 0.856793 0.167256
O O9 0.176234 0.919817 0.159620
O O10 0.363086 0.939030 0.500000
O O11 0.500000 0.921997 0.401653
O O12 0.247467 0.912362 0.401345
O O13 0.351846 0.000000 0.401012
O O14 0.500000 0.822765 0.252235
O O15 0.622525 0.758467 0.184866
O O16 0.729567 0.812507 0.273758
O O17 0.500000 0.452103 0.275860
O O18 0.702415 0.500000 0.266648
O O19 0.674651 0.409649 0.213567
O O20 0.368804 0.332678 0.865448
O O21 0.000000 0.913780 0.624381
#
# Coordination Sequence:
#
# PCOD8290926 Si02
#       8
#     8  16  16  16  16  16  16  16
#     4  11  24  40  59  85 119 159 202 252 312 373
#     4  10  21  37  59  85 116 153 195 245 303 365
#     4  11  20  39  60  83 114 153 197 251 298 363
#     4   9  20  40  63  87 119 161 207 252 301 359
#     4  10  20  35  57  83 109 148 198 242 291 353
#     4  10  21  37  58  86 120 156 196 247 306 360
#     4  10  21  36  55  83 117 151 191 243 296 357
#     4  11  22  38  60  90 127 162 201 252 306 362
#
# _framework density 19.608543000000001
#
# number of rings (size 3 to 8) (size 9 to 14) (size 15 to 20)
#    0.000    1.800    2.000    2.800    0.000    2.667 
#    0.000    2.000    0.000    4.000    0.000    0.000 
#    0.000    0.000    0.000    0.000    0.000    0.000 
#
# Total GULP energy -743538.183601 kJ/mol
# GULP energy per Si atom -12392.303060 kJ/mol
# Density = 1.956391 g / cm^3
# Si number density = 19.608543 Si / 1000 Ang^3
#
#
#
# Elastic Constant Matrix: (Units=GPa)
#
#
# Indices 1 2 3 4 5 6 
#
# 1 69.3249 23.2512 31.8243 0.0000 0.0000 0.0000
# 2 23.2512 118.6776 44.6178 0.0000 0.0000 0.0000
# 3 31.8243 44.6178 83.9976 0.0001 -0.0002 0.0000
# 4 0.0000 0.0000 0.0001 46.3283 0.0001 0.0000
# 5 0.0000 0.0000 -0.0002 0.0001 -315.5259 0.0002
# 6 0.0000 0.0000 0.0000 0.0000 0.0002 -4.3489
#
#
#
# Elastic Compliance Matrix: (Units=1/GPa)
#
#
# Indices 1 2 3 4 5 6 
#
# 1 0.017592 -0.001176 -0.006041 0.000000 0.000000 0.000000
# 2 -0.001176 0.010607 -0.005189 0.000000 0.000000 0.000000
# 3 -0.006041 -0.005189 0.016950 0.000000 0.000000 0.000000
# 4 0.000000 0.000000 0.000000 0.021585 0.000000 0.000000
# 5 0.000000 0.000000 0.000000 0.000000 -0.003169 0.000000
# 6 0.000000 0.000000 0.000000 0.000000 0.000000 -0.229945
#
#
# Mechanical properties :
#
#
# Convention : Reuss Voigt Hill
#
# Bulk Modulus (GPa) = 49.16676 52.37629 50.77152
# Shear Modulus (GPa) = -37.09504 -43.22216 -40.15860
#
# Velocity S-wave (km/s) = -4.35418 -4.70004 -4.53041
# Velocity P-wave (km/s) = 0.38717 1.63856 1.19054
#
# Compressibility (1/GPa) = 0.02033895
#
# Stress axis : x y z
#
# Youngs Moduli (GPa) = 56.84349 94.27413 58.99682
#
# Poissons Ratio (x) = 0.11083 0.35638
# Poissons Ratio (y) = 0.06682 0.30614
# Poissons Ratio (z) = 0.34338 0.48919
#
# Static dielectric constant tensor:
#      x y z
#    x 3.577550 0.000000 0.000000 
#    y 0.000000 3.760200 0.000000 
#    z 0.000000 0.000000 3.508890 
# 
# 
# High freq. dielectric constant tensor:
#      x y z
#    x 1.761380 0.000000 0.000000 
#    y 0.000000 1.772810 0.000000 
#    z 0.000000 0.000000 1.759490 
# 
# From -- ./inp_files/52246.got.cif
#   From: 2010.06.25/outbox.cif.g09.slc.cpg/sg71_27_cif.got.tgz:52246.got - 2010.06.28 04:59:45.
