data_PCOD8290408
_publ_section_title
;
Structure prediction by ZEFSAII (Michael W. Deem and Ramdas Pophale) SiO2 
 PCOD8290408
Probable space group: I M M M
;
_chemical_formula_sum "Si O2"
_cell_formula_units_Z 104
_cell_length_a 27.370391
_cell_length_b 9.558409
_cell_length_c 21.938871
_cell_angle_alpha 90.000000
_cell_angle_beta 90.000000
_cell_angle_gamma 90.000000
_cell_volume 5739.590207
_symmetry_space_group_name_H-M "I M M M"
_symmetry_group_IT_number 71
_symmetry_cell_setting 'orthorhombic'
loop_
_space_group_symop_operation_xyz
x,y,z
-x,-y,z
x,-y,-z
-x,y,-z
-x,-y,-z
x,y,-z
-x,y,z
x,-y,z
1/2+x,1/2+y,1/2+z
1/2-x,1/2-y,1/2+z
1/2+x,1/2-y,1/2-z
1/2-x,1/2+y,1/2-z
1/2-x,1/2-y,1/2-z
1/2+x,1/2+y,1/2-z
1/2-x,1/2+y,1/2+z
1/2+x,1/2-y,1/2+z
loop_
_atom_site_type_symbol
_atom_site_label
_atom_site_fract_x
_atom_site_fract_y
_atom_site_fract_z
Si Si1 0.778851 0.834001 0.802193
Si Si2 0.945258 0.834316 0.337947
Si Si3 0.134374 0.157648 0.570109
Si Si4 0.228789 0.663484 0.429843
Si Si5 0.057753 0.844341 0.106437
Si Si6 0.612248 0.335244 0.723636
Si Si7 0.941614 0.654892 0.000000
O O1 0.750000 0.750000 0.750000
O O2 0.765256 0.798287 0.873454
O O3 0.833962 0.779964 0.791953
O O4 0.772309 0.000000 0.790927
O O5 0.915881 0.792925 0.398585
O O6 0.911943 0.769450 0.283924
O O7 0.000000 0.768783 0.339096
O O8 0.950269 0.000000 0.330098
O O9 0.121793 0.163490 0.500000
O O10 0.179117 0.257210 0.586932
O O11 0.148509 0.000000 0.591145
O O12 0.246842 0.704726 0.500000
O O13 0.217421 0.500000 0.429078
O O14 0.075360 0.789488 0.170969
O O15 0.079210 0.736810 0.057812
O O16 0.000000 0.847247 0.105046
O O17 0.078263 0.000000 0.092173
O O18 0.615143 0.500000 0.731021
O O19 0.919450 0.500000 0.000000
O O20 0.000000 0.651272 0.000000
#
# Coordination Sequence:
#
# PCOD8290408 Si02
#       7
#    16  16  16  16  16  16   8
#     4  10  20  34  52  74  99 128 164 204 248 295
#     4   9  16  26  43  69 101 131 157 193 240 286
#     4   9  17  29  48  74 100 127 160 197 238 286
#     4   9  18  33  51  71  97 130 167 205 246 293
#     4   9  16  28  47  69  91 117 155 198 235 275
#     4   9  17  29  45  69  95 122 158 199 242 282
#     4   9  17  29  45  65  91 123 153 183 227 281
#
# _framework density 18.119759999999999
#
# number of rings (size 3 to 8) (size 9 to 14) (size 15 to 20)
#    0.000    2.846    0.000    1.615    0.000    4.923 
#    1.385    2.308    0.000    1.385    0.000    2.154 
#    0.000    0.000    0.000    0.000    0.000    0.000 
#
# Total GULP energy -644238.207981 kJ/mol
# GULP energy per Si atom -12389.196307 kJ/mol
# Density = 1.807852 g / cm^3
# Si number density = 18.119760 Si / 1000 Ang^3
#
#
#
# Elastic Constant Matrix: (Units=GPa)
#
#
# Indices 1 2 3 4 5 6 
#
# 1 82.7296 19.7595 44.1540 0.0000 0.0000 0.0000
# 2 19.7595 43.2643 31.9401 0.0000 0.0000 0.0000
# 3 44.1540 31.9401 106.5896 0.0000 0.0000 0.0000
# 4 0.0000 0.0000 0.0000 15.8271 0.0000 0.0000
# 5 0.0000 0.0000 0.0000 0.0000 28.0044 0.0000
# 6 0.0000 0.0000 0.0000 0.0000 0.0000 18.1148
#
#
#
# Elastic Compliance Matrix: (Units=1/GPa)
#
#
# Indices 1 2 3 4 5 6 
#
# 1 0.015829 -0.003067 -0.005638 0.000000 0.000000 0.000000
# 2 -0.003067 0.030274 -0.007801 0.000000 0.000000 0.000000
# 3 -0.005638 -0.007801 0.014055 0.000000 0.000000 0.000000
# 4 0.000000 0.000000 0.000000 0.063183 0.000000 0.000000
# 5 0.000000 0.000000 0.000000 0.000000 0.035709 0.000000
# 6 0.000000 0.000000 0.000000 0.000000 0.000000 0.055204
#
#
# Mechanical properties :
#
#
# Convention : Reuss Voigt Hill
#
# Bulk Modulus (GPa) = 36.83882 47.14342 41.99112
# Shear Modulus (GPa) = 19.50731 21.50458 20.50595
#
# Velocity S-wave (km/s) = 3.28468 3.44874 3.36771
# Velocity P-wave (km/s) = 5.89579 6.47554 6.19245
#
# Compressibility (1/GPa) = 0.02714528
#
# Stress axis : x y z
#
# Youngs Moduli (GPa) = 63.17412 33.03189 71.14922
#
# Poissons Ratio (x) = 0.10131 0.40115
# Poissons Ratio (y) = 0.19376 0.55505
# Poissons Ratio (z) = 0.35618 0.25769
#
# Static dielectric constant tensor:
#      x y z
#    x 3.349220 0.000000 0.000000 
#    y 0.000000 3.147630 0.000000 
#    z 0.000000 0.000000 3.674520 
# 
# 
# High freq. dielectric constant tensor:
#      x y z
#    x 1.690260 0.000000 0.000000 
#    y 0.000000 1.660870 0.000000 
#    z 0.000000 0.000000 1.720640 
# 
# From -- ./inp_files/17043.got.cif
#   From: 2010.06.25/outbox.cif.g09.slc.cpg/sg71_9_cif.got.tgz:17043.got - 2010.06.28 04:59:45.
