data_PCOD8290670
_publ_section_title
;
Structure prediction by ZEFSAII (Michael W. Deem and Ramdas Pophale) SiO2 
 PCOD8290670
Probable space group: I M M M
;
_chemical_formula_sum "Si O2"
_cell_formula_units_Z 80
_cell_length_a 25.051810
_cell_length_b 9.118854
_cell_length_c 18.346301
_cell_angle_alpha 90.000000
_cell_angle_beta 90.000000
_cell_angle_gamma 90.000000
_cell_volume 4191.098676
_symmetry_space_group_name_H-M "I M M M"
_symmetry_group_IT_number 71
_symmetry_cell_setting 'orthorhombic'
loop_
_space_group_symop_operation_xyz
x,y,z
-x,-y,z
x,-y,-z
-x,y,-z
-x,-y,-z
x,y,-z
-x,y,z
x,-y,z
1/2+x,1/2+y,1/2+z
1/2-x,1/2-y,1/2+z
1/2+x,1/2-y,1/2-z
1/2-x,1/2+y,1/2-z
1/2-x,1/2-y,1/2-z
1/2+x,1/2+y,1/2-z
1/2-x,1/2+y,1/2+z
1/2+x,1/2-y,1/2+z
loop_
_atom_site_type_symbol
_atom_site_label
_atom_site_fract_x
_atom_site_fract_y
_atom_site_fract_z
Si Si1 0.602530 0.329836 0.916423
Si Si2 0.190222 0.168189 0.182128
Si Si3 0.500000 0.173975 0.668897
Si Si4 0.188541 0.328247 0.672530
Si Si5 0.000000 0.827789 0.323174
Si Si6 0.907858 0.169005 0.915843
O O1 0.615291 0.500000 0.905386
O O2 0.654361 0.240021 0.892395
O O3 0.551703 0.282112 0.869179
O O4 0.589595 0.293078 0.000000
O O5 0.169830 0.264090 0.249898
O O6 0.249738 0.213181 0.157795
O O7 0.151732 0.195511 0.113812
O O8 0.188856 0.000000 0.208110
O O9 0.500000 0.236868 0.749650
O O10 0.447852 0.227229 0.626826
O O11 0.500000 0.000000 0.672405
O O12 0.178606 0.500000 0.673815
O O13 0.000000 0.000000 0.304846
O O14 0.925296 0.000000 0.905030
O O15 0.908361 0.213769 0.000000
#
# Coordination Sequence:
#
# PCOD8290670 Si02
#       6
#    16  16   8  16   8  16
#     4  10  21  37  57  81 109 142 181 224 269 318
#     4   9  19  36  57  80 108 144 185 225 263 311
#     4  12  25  38  55  82 113 140 171 218 276 328
#     4  10  20  34  55  83 113 144 179 222 271 320
#     4  10  21  39  61  80 103 141 187 226 260 310
#     4  10  21  38  59  80 104 140 185 225 262 313
#
# _framework density 19.088073999999999
#
# number of rings (size 3 to 8) (size 9 to 14) (size 15 to 20)
#    0.000    2.000    0.000    3.300    0.000   11.200 
#    0.000    2.000    0.000    1.800    0.000    0.000 
#    0.000    0.000    0.000    0.000    0.000    0.000 
#
# Total GULP energy -496190.507526 kJ/mol
# GULP energy per Si atom -12404.762688 kJ/mol
# Density = 1.904463 g / cm^3
# Si number density = 19.088074 Si / 1000 Ang^3
#
#
#
# Elastic Constant Matrix: (Units=GPa)
#
#
# Indices 1 2 3 4 5 6 
#
# 1 113.5513 54.2744 75.3976 0.0000 0.0000 0.0000
# 2 54.2744 82.5396 70.2748 0.0000 0.0000 0.0000
# 3 75.3976 70.2748 157.1448 0.0000 0.0000 0.0000
# 4 0.0000 0.0000 0.0000 22.9509 0.0000 0.0000
# 5 0.0000 0.0000 0.0000 0.0000 31.0320 0.0000
# 6 0.0000 0.0000 0.0000 0.0000 0.0000 30.4068
#
#
#
# Elastic Compliance Matrix: (Units=1/GPa)
#
#
# Indices 1 2 3 4 5 6 
#
# 1 0.014470 -0.005820 -0.004340 0.000000 0.000000 0.000000
# 2 -0.005820 0.021905 -0.007004 0.000000 0.000000 0.000000
# 3 -0.004340 -0.007004 0.011578 0.000000 0.000000 0.000000
# 4 0.000000 0.000000 0.000000 0.043571 0.000000 0.000000
# 5 0.000000 0.000000 0.000000 0.000000 0.032225 0.000000
# 6 0.000000 0.000000 0.000000 0.000000 0.000000 0.032887
#
#
# Mechanical properties :
#
#
# Convention : Reuss Voigt Hill
#
# Bulk Modulus (GPa) = 73.38791 83.68100 78.53445
# Shear Modulus (GPa) = 25.57472 27.09722 26.33597
#
# Velocity S-wave (km/s) = 3.66434 3.77183 3.71847
# Velocity P-wave (km/s) = 7.51223 7.93117 7.72454
#
# Compressibility (1/GPa) = 0.01362622
#
# Stress axis : x y z
#
# Youngs Moduli (GPa) = 69.10821 45.65147 86.37088
#
# Poissons Ratio (x) = 0.26567 0.37486
# Poissons Ratio (y) = 0.40218 0.60491
# Poissons Ratio (z) = 0.29994 0.31973
#
# Static dielectric constant tensor:
#      x y z
#    x 3.644800 0.000000 0.000000 
#    y 0.000000 3.434580 0.000000 
#    z 0.000000 0.000000 3.507690 
# 
# 
# High freq. dielectric constant tensor:
#      x y z
#    x 1.754320 0.000000 0.000000 
#    y 0.000000 1.734940 0.000000 
#    z 0.000000 0.000000 1.745170 
# 
# From -- ./inp_files/48609.got.cif
#   From: 2010.06.25/outbox.cif.g09.slc.cpg/sg71_25_cif.got.tgz:48609.got - 2010.06.28 04:59:45.
