data_PCOD8290767
_publ_section_title
;
Structure prediction by ZEFSAII (Michael W. Deem and Ramdas Pophale) SiO2 
 PCOD8290767
Probable space group: I M M M
;
_chemical_formula_sum "Si O2"
_cell_formula_units_Z 88
_cell_length_a 9.206294
_cell_length_b 17.897128
_cell_length_c 30.636310
_cell_angle_alpha 90.000000
_cell_angle_beta 90.000000
_cell_angle_gamma 90.000000
_cell_volume 5047.829059
_symmetry_space_group_name_H-M "I M M M"
_symmetry_group_IT_number 71
_symmetry_cell_setting 'orthorhombic'
loop_
_space_group_symop_operation_xyz
x,y,z
-x,-y,z
x,-y,-z
-x,y,-z
-x,-y,-z
x,y,-z
-x,y,z
x,-y,z
1/2+x,1/2+y,1/2+z
1/2-x,1/2-y,1/2+z
1/2+x,1/2-y,1/2-z
1/2-x,1/2+y,1/2-z
1/2-x,1/2-y,1/2-z
1/2+x,1/2+y,1/2-z
1/2-x,1/2+y,1/2+z
1/2+x,1/2-y,1/2+z
loop_
_atom_site_type_symbol
_atom_site_label
_atom_site_fract_x
_atom_site_fract_y
_atom_site_fract_z
Si Si1 0.166647 0.081507 0.166698
Si Si2 0.827730 0.914849 0.549033
Si Si3 0.673029 0.916669 0.000000
Si Si4 0.331756 0.697797 0.123698
Si Si5 0.165865 0.361509 0.410510
Si Si6 0.327521 0.738442 0.295436
O O1 0.253271 0.083303 0.121946
O O2 0.213743 0.151820 0.195862
O O3 0.000000 0.090523 0.154316
O O4 0.195786 0.000000 0.189406
O O5 0.772414 0.890691 0.500000
O O6 0.768948 0.863860 0.589300
O O7 0.000000 0.908115 0.548922
O O8 0.778545 0.000000 0.558230
O O9 0.733657 0.873471 0.958097
O O10 0.500000 0.915721 0.000000
O O11 0.734664 0.000000 0.000000
O O12 0.500000 0.681219 0.136105
O O13 0.313854 0.775232 0.099298
O O14 0.237578 0.704054 0.168318
O O15 0.000000 0.386650 0.408461
O O16 0.500000 0.752010 0.292386
O O17 0.250000 0.750000 0.250000
#
# Coordination Sequence:
#
# PCOD8290767 Si02
#       6
#    16  16   8  16  16  16
#     4   9  18  33  51  69  90 118 152 189 230 276
#     4   8  14  25  44  72 103 133 167 208 248 286
#     4   9  16  24  35  57  90 122 150 183 223 261
#     4   9  17  29  48  72  96 125 162 200 240 285
#     4   9  17  27  42  65  92 123 157 192 228 267
#     4  10  20  35  54  73  96 123 155 197 245 294
#
# _framework density 17.433236999999998
#
# number of rings (size 3 to 8) (size 9 to 14) (size 15 to 20)
#    0.000    3.000    0.000    1.636    1.273    1.818 
#    0.000    1.364    0.000    8.182    0.000    1.273 
#    0.000    0.000    0.000    0.000    0.000    0.000 
#
# Total GULP energy -545115.586880 kJ/mol
# GULP energy per Si atom -12388.990611 kJ/mol
# Density = 1.739356 g / cm^3
# Si number density = 17.433237 Si / 1000 Ang^3
#
#
#
# Elastic Constant Matrix: (Units=GPa)
#
#
# Indices 1 2 3 4 5 6 
#
# 1 40.9589 29.1798 49.3175 0.0000 0.0000 0.0000
# 2 29.1798 87.7554 62.9442 0.0000 0.0000 0.0000
# 3 49.3175 62.9442 157.6455 0.0000 0.0000 0.0000
# 4 0.0000 0.0000 0.0000 21.9100 0.0000 0.0000
# 5 0.0000 0.0000 0.0000 0.0000 18.0260 0.0000
# 6 0.0000 0.0000 0.0000 0.0000 0.0000 17.7808
#
#
#
# Elastic Compliance Matrix: (Units=1/GPa)
#
#
# Indices 1 2 3 4 5 6 
#
# 1 0.041506 -0.006289 -0.010474 0.000000 0.000000 0.000000
# 2 -0.006289 0.016921 -0.004789 0.000000 0.000000 0.000000
# 3 -0.010474 -0.004789 0.011532 0.000000 0.000000 0.000000
# 4 0.000000 0.000000 0.000000 0.045641 0.000000 0.000000
# 5 0.000000 0.000000 0.000000 0.000000 0.055476 0.000000
# 6 0.000000 0.000000 0.000000 0.000000 0.000000 0.056241
#
#
# Mechanical properties :
#
#
# Convention : Reuss Voigt Hill
#
# Bulk Modulus (GPa) = 37.23488 63.24922 50.24205
# Shear Modulus (GPa) = 17.89729 21.20456 19.55093
#
# Velocity S-wave (km/s) = 3.20757 3.49138 3.35247
# Velocity P-wave (km/s) = 5.92646 7.25345 6.62327
#
# Compressibility (1/GPa) = 0.02685654
#
# Stress axis : x y z
#
# Youngs Moduli (GPa) = 24.09288 59.09679 86.71506
#
# Poissons Ratio (x) = 0.37165 0.90823
# Poissons Ratio (y) = 0.15152 0.41527
# Poissons Ratio (z) = 0.25234 0.28301
#
# Static dielectric constant tensor:
#      x y z
#    x 3.036110 0.000000 0.000000 
#    y 0.000000 3.550370 0.000000 
#    z 0.000000 0.000000 3.449660 
# 
# 
# High freq. dielectric constant tensor:
#      x y z
#    x 1.641160 0.000000 0.000000 
#    y 0.000000 1.674590 0.000000 
#    z 0.000000 0.000000 1.671960 
# 
# From -- ./inp_files/68042.got.cif
#   From: 2010.06.25/outbox.cif.g09.slc.cpg/sg71_35_cif.got.tgz:68042.got - 2010.06.28 04:59:45.
