data_PCOD8290598
_publ_section_title
;
Structure prediction by ZEFSAII (Michael W. Deem and Ramdas Pophale) SiO2 
 PCOD8290598
Probable space group: I M M M
;
_chemical_formula_sum "Si O2"
_cell_formula_units_Z 72
_cell_length_a 13.629861
_cell_length_b 7.948234
_cell_length_c 33.007602
_cell_angle_alpha 90.000000
_cell_angle_beta 90.000000
_cell_angle_gamma 90.000000
_cell_volume 3575.823262
_symmetry_space_group_name_H-M "I M M M"
_symmetry_group_IT_number 71
_symmetry_cell_setting 'orthorhombic'
loop_
_space_group_symop_operation_xyz
x,y,z
-x,-y,z
x,-y,-z
-x,y,-z
-x,-y,-z
x,y,-z
-x,y,z
x,-y,z
1/2+x,1/2+y,1/2+z
1/2-x,1/2-y,1/2+z
1/2+x,1/2-y,1/2-z
1/2-x,1/2+y,1/2-z
1/2-x,1/2-y,1/2-z
1/2+x,1/2+y,1/2-z
1/2-x,1/2+y,1/2+z
1/2+x,1/2-y,1/2+z
loop_
_atom_site_type_symbol
_atom_site_label
_atom_site_fract_x
_atom_site_fract_y
_atom_site_fract_z
Si Si1 0.202001 0.806816 0.312185
Si Si2 0.109003 0.000000 0.951982
Si Si3 0.761323 0.311799 0.046652
Si Si4 0.389182 0.300875 0.271777
Si Si5 0.889281 0.691715 0.607212
O O1 0.318544 0.783001 0.305123
O O2 0.142989 0.740185 0.272962
O O3 0.167903 0.700314 0.350435
O O4 0.177941 0.000000 0.321190
O O5 0.163162 0.829942 0.937076
O O6 0.000000 0.000000 0.932947
O O7 0.102141 0.000000 0.000000
O O8 0.806789 0.500000 0.051559
O O9 0.662488 0.303002 0.072834
O O10 0.734042 0.276526 0.000000
O O11 0.500000 0.240621 0.280228
O O12 0.378761 0.500000 0.274828
O O13 0.888662 0.500000 0.592294
O O14 0.000000 0.759034 0.612745
#
# Coordination Sequence:
#
# PCOD8290598 Si02
#       5
#    16   8  16  16  16
#     4  10  20  34  54  81 112 144 186 239 288 346
#     4   9  18  36  61  87 117 151 190 238 289 343
#     4  10  21  38  61  89 121 156 196 243 293 349
#     4   9  18  34  55  78 108 147 187 231 288 348
#     4  11  23  38  58  83 114 153 195 241 294 352
#
# _framework density 20.135224000000001
#
# number of rings (size 3 to 8) (size 9 to 14) (size 15 to 20)
#    0.000    2.111    1.111    2.000    0.000    4.889 
#    0.000    5.556    0.000    2.667    0.000    0.000 
#    0.000    0.000    0.000    0.000    0.000    0.000 
#
# Total GULP energy -446457.692774 kJ/mol
# GULP energy per Si atom -12401.602577 kJ/mol
# Density = 2.008940 g / cm^3
# Si number density = 20.135224 Si / 1000 Ang^3
#
#
#
# Elastic Constant Matrix: (Units=GPa)
#
#
# Indices 1 2 3 4 5 6 
#
# 1 153.0054 40.8401 52.0931 0.0000 0.0000 0.0000
# 2 40.8401 95.0939 27.4493 0.0000 0.0000 0.0000
# 3 52.0931 27.4493 77.5883 0.0000 0.0000 0.0000
# 4 0.0000 0.0000 0.0000 26.4691 0.0000 0.0000
# 5 0.0000 0.0000 0.0000 0.0000 26.1128 0.0000
# 6 0.0000 0.0000 0.0000 0.0000 0.0000 23.1393
#
#
#
# Elastic Compliance Matrix: (Units=1/GPa)
#
#
# Indices 1 2 3 4 5 6 
#
# 1 0.008917 -0.002340 -0.005159 0.000000 0.000000 0.000000
# 2 -0.002340 0.012326 -0.002789 0.000000 0.000000 0.000000
# 3 -0.005159 -0.002789 0.017339 0.000000 0.000000 0.000000
# 4 0.000000 0.000000 0.000000 0.037780 0.000000 0.000000
# 5 0.000000 0.000000 0.000000 0.000000 0.038295 0.000000
# 6 0.000000 0.000000 0.000000 0.000000 0.000000 0.043217
#
#
# Mechanical properties :
#
#
# Convention : Reuss Voigt Hill
#
# Bulk Modulus (GPa) = 55.54071 62.93919 59.23995
# Shear Modulus (GPa) = 27.10721 28.83125 27.96923
#
# Velocity S-wave (km/s) = 3.67312 3.78813 3.73107
# Velocity P-wave (km/s) = 6.75521 7.10347 6.93153
#
# Compressibility (1/GPa) = 0.01800481
#
# Stress axis : x y z
#
# Youngs Moduli (GPa) = 112.14775 81.12773 57.67339
#
# Poissons Ratio (x) = 0.18987 0.29753
# Poissons Ratio (y) = 0.26247 0.16088
# Poissons Ratio (z) = 0.57855 0.22630
#
# Static dielectric constant tensor:
#      x y z
#    x 3.790540 0.000000 0.000000 
#    y 0.000000 3.647800 0.000000 
#    z 0.000000 0.000000 3.405550 
# 
# 
# High freq. dielectric constant tensor:
#      x y z
#    x 1.782150 0.000000 0.000000 
#    y 0.000000 1.791310 0.000000 
#    z 0.000000 0.000000 1.766490 
# 
# From -- ./inp_files/69708.got.cif
#   From: 2010.06.25/outbox.cif.g09.slc.cpg/sg71_35_cif.got.tgz:69708.got - 2010.06.28 04:59:45.
