data_PCOD8290242
_publ_section_title
;
Structure prediction by ZEFSAII (Michael W. Deem and Ramdas Pophale) SiO2 
 PCOD8290242
Probable space group: I M M M
;
_chemical_formula_sum "Si O2"
_cell_formula_units_Z 88
_cell_length_a 8.839674
_cell_length_b 18.835843
_cell_length_c 30.529105
_cell_angle_alpha 90.000000
_cell_angle_beta 90.000000
_cell_angle_gamma 90.000000
_cell_volume 5083.178766
_symmetry_space_group_name_H-M "I M M M"
_symmetry_group_IT_number 71
_symmetry_cell_setting 'orthorhombic'
loop_
_space_group_symop_operation_xyz
x,y,z
-x,-y,z
x,-y,-z
-x,y,-z
-x,-y,-z
x,y,-z
-x,y,z
x,-y,z
1/2+x,1/2+y,1/2+z
1/2-x,1/2-y,1/2+z
1/2+x,1/2-y,1/2-z
1/2-x,1/2+y,1/2-z
1/2-x,1/2-y,1/2-z
1/2+x,1/2+y,1/2-z
1/2-x,1/2+y,1/2+z
1/2+x,1/2-y,1/2+z
loop_
_atom_site_type_symbol
_atom_site_label
_atom_site_fract_x
_atom_site_fract_y
_atom_site_fract_z
Si Si1 0.321873 0.289622 0.621966
Si Si2 0.676605 0.080824 0.160851
Si Si3 0.324082 0.580907 0.753817
Si Si4 0.679484 0.918257 0.500000
Si Si5 0.677948 0.209108 0.709671
Si Si6 0.170581 0.198284 0.548425
O O1 0.500000 0.300928 0.619188
O O2 0.242066 0.366684 0.623904
O O3 0.272718 0.244364 0.664237
O O4 0.266457 0.249037 0.579248
O O5 0.500000 0.094358 0.167810
O O6 0.760034 0.098528 0.206029
O O7 0.709012 0.000000 0.145987
O O8 0.500000 0.599650 0.752710
O O9 0.293008 0.500000 0.767112
O O10 0.240849 0.628716 0.790070
O O11 0.500000 0.910732 0.500000
O O12 0.747964 0.879136 0.543394
O O13 0.730953 0.000000 0.500000
O O14 0.500000 0.208719 0.715420
O O15 0.750000 0.250000 0.750000
O O16 0.166682 0.234054 0.500000
O O17 0.000000 0.188145 0.566616
#
# Coordination Sequence:
#
# PCOD8290242 Si02
#       6
#    16  16  16   8  16  16
#     4  11  22  35  55  81 109 142 180 223 271 323
#     4  10  20  33  52  77 105 141 182 224 269 318
#     4  10  20  34  51  72 102 141 184 227 271 319
#     4   9  17  33  59  87 114 143 176 217 265 319
#     4  11  22  34  51  77 107 143 183 224 270 321
#     4   9  20  36  57  84 110 140 177 220 267 318
#
# _framework density 17.312000999999999
#
# number of rings (size 3 to 8) (size 9 to 14) (size 15 to 20)
#    0.545    1.364    1.818    2.727    0.000    5.091 
#    0.000    0.909    0.000    1.636    0.000    3.818 
#    0.000    0.000    0.000    0.000    0.000    0.000 
#
# Total GULP energy -545546.685937 kJ/mol
# GULP energy per Si atom -12398.788317 kJ/mol
# Density = 1.727260 g / cm^3
# Si number density = 17.312001 Si / 1000 Ang^3
#
#
#
# Elastic Constant Matrix: (Units=GPa)
#
#
# Indices 1 2 3 4 5 6 
#
# 1 73.4256 44.2573 30.9380 0.0000 0.0000 0.0000
# 2 44.2573 122.7677 45.6026 0.0000 0.0000 0.0000
# 3 30.9380 45.6026 66.3751 0.0000 0.0000 0.0000
# 4 0.0000 0.0000 0.0000 28.3094 0.0000 0.0000
# 5 0.0000 0.0000 0.0000 0.0000 27.9661 0.0000
# 6 0.0000 0.0000 0.0000 0.0000 0.0000 34.8772
#
#
#
# Elastic Compliance Matrix: (Units=1/GPa)
#
#
# Indices 1 2 3 4 5 6 
#
# 1 0.018790 -0.004727 -0.005511 0.000000 0.000000 0.000000
# 2 -0.004727 0.012126 -0.006128 0.000000 0.000000 0.000000
# 3 -0.005511 -0.006128 0.021844 0.000000 0.000000 0.000000
# 4 0.000000 0.000000 0.000000 0.035324 0.000000 0.000000
# 5 0.000000 0.000000 0.000000 0.000000 0.035758 0.000000
# 6 0.000000 0.000000 0.000000 0.000000 0.000000 0.028672
#
#
# Mechanical properties :
#
#
# Convention : Reuss Voigt Hill
#
# Bulk Modulus (GPa) = 49.92530 56.01824 52.97177
# Shear Modulus (GPa) = 26.05238 27.68189 26.86714
#
# Velocity S-wave (km/s) = 3.88348 4.00309 3.94374
# Velocity P-wave (km/s) = 7.00069 7.33448 7.16953
#
# Compressibility (1/GPa) = 0.02002993
#
# Stress axis : x y z
#
# Youngs Moduli (GPa) = 53.21892 82.47019 45.77820
#
# Poissons Ratio (x) = 0.38982 0.25227
# Poissons Ratio (y) = 0.25156 0.28051
# Poissons Ratio (z) = 0.29328 0.50534
#
# Static dielectric constant tensor:
#      x y z
#    x 3.357970 0.000000 0.000000 
#    y 0.000000 3.357010 0.000000 
#    z 0.000000 0.000000 2.941850 
# 
# 
# High freq. dielectric constant tensor:
#      x y z
#    x 1.690380 0.000000 0.000000 
#    y 0.000000 1.674800 0.000000 
#    z 0.000000 0.000000 1.631260 
# 
# From -- ./inp_files/68172.got.cif
#   From: 2010.06.25/outbox.cif.g09.slc.cpg/sg71_35_cif.got.tgz:68172.got - 2010.06.28 04:59:45.
