data_PCOD8290383
_publ_section_title
;
Structure prediction by ZEFSAII (Michael W. Deem and Ramdas Pophale) SiO2 
 PCOD8290383
Probable space group: I M M M
;
_chemical_formula_sum "Si O2"
_cell_formula_units_Z 80
_cell_length_a 18.295891
_cell_length_b 25.514634
_cell_length_c 9.506718
_cell_angle_alpha 90.000000
_cell_angle_beta 90.000000
_cell_angle_gamma 90.000000
_cell_volume 4437.859194
_symmetry_space_group_name_H-M "I M M M"
_symmetry_group_IT_number 71
_symmetry_cell_setting 'orthorhombic'
loop_
_space_group_symop_operation_xyz
x,y,z
-x,-y,z
x,-y,-z
-x,y,-z
-x,-y,-z
x,y,-z
-x,y,z
x,-y,z
1/2+x,1/2+y,1/2+z
1/2-x,1/2-y,1/2+z
1/2+x,1/2-y,1/2-z
1/2-x,1/2+y,1/2-z
1/2-x,1/2-y,1/2-z
1/2+x,1/2+y,1/2-z
1/2-x,1/2+y,1/2+z
1/2+x,1/2-y,1/2+z
loop_
_atom_site_type_symbol
_atom_site_label
_atom_site_fract_x
_atom_site_fract_y
_atom_site_fract_z
Si Si1 0.916455 0.853487 0.338210
Si Si2 0.822422 0.442164 0.667482
Si Si3 0.081986 0.652923 0.667303
Si Si4 0.842193 0.939594 0.162294
Si Si5 0.824671 0.247642 0.666039
O O1 0.902853 0.867502 0.500000
O O2 0.898235 0.904759 0.249261
O O3 0.866071 0.805263 0.291166
O O4 0.000000 0.836986 0.311543
O O5 0.823017 0.442009 0.500000
O O6 0.846310 0.500000 0.721732
O O7 0.877499 0.398653 0.728526
O O8 0.740161 0.429411 0.717890
O O9 0.079277 0.650443 0.500000
O O10 0.125222 0.704202 0.716658
O O11 0.000000 0.654573 0.729194
O O12 0.863947 0.000000 0.183916
O O13 0.848699 0.923478 0.000000
O O14 0.808818 0.250756 0.500000
O O15 0.750000 0.250000 0.750000
#
# Coordination Sequence:
#
# PCOD8290383 Si02
#       5
#    16  16  16  16  16
#     4  10  21  35  50  71 100 130 161 202 250 297
#     4   8  14  25  42  66  95 124 155 193 235 279
#     4   9  16  26  43  67  94 124 156 191 234 283
#     4   9  18  33  52  73  98 129 165 203 242 288
#     4  10  20  34  52  72  95 126 164 202 241 288
#
# _framework density 18.026709
#
# number of rings (size 3 to 8) (size 9 to 14) (size 15 to 20)
#    0.000    2.800    0.000    3.000    0.000    6.400 
#    0.000    4.000    0.000    1.800    0.000    0.000 
#    0.000    0.000    0.000   17.200    0.000   14.000 
#
# Total GULP energy -495958.400330 kJ/mol
# GULP energy per Si atom -12398.960008 kJ/mol
# Density = 1.798568 g / cm^3
# Si number density = 18.026709 Si / 1000 Ang^3
#
#
#
# Elastic Constant Matrix: (Units=GPa)
#
#
# Indices 1 2 3 4 5 6 
#
# 1 125.8745 71.7005 42.0508 0.0000 0.0000 0.0000
# 2 71.7005 127.9969 41.6141 0.0000 0.0000 0.0000
# 3 42.0508 41.6141 34.7370 0.0000 0.0000 0.0000
# 4 0.0000 0.0000 0.0000 19.5936 0.0000 0.0000
# 5 0.0000 0.0000 0.0000 0.0000 24.8121 0.0000
# 6 0.0000 0.0000 0.0000 0.0000 0.0000 31.4589
#
#
#
# Elastic Compliance Matrix: (Units=1/GPa)
#
#
# Indices 1 2 3 4 5 6 
#
# 1 0.014461 -0.003946 -0.012778 0.000000 0.000000 0.000000
# 2 -0.003946 0.013874 -0.011843 0.000000 0.000000 0.000000
# 3 -0.012778 -0.011843 0.058445 0.000000 0.000000 0.000000
# 4 0.000000 0.000000 0.000000 0.051037 0.000000 0.000000
# 5 0.000000 0.000000 0.000000 0.000000 0.040303 0.000000
# 6 0.000000 0.000000 0.000000 0.000000 0.000000 0.031787
#
#
# Mechanical properties :
#
#
# Convention : Reuss Voigt Hill
#
# Bulk Modulus (GPa) = 33.73408 66.59324 50.16366
# Shear Modulus (GPa) = 18.05548 24.05578 21.05563
#
# Velocity S-wave (km/s) = 3.16823 3.65698 3.42134
# Velocity P-wave (km/s) = 5.66901 7.40628 6.59510
#
# Compressibility (1/GPa) = 0.02964361
#
# Stress axis : x y z
#
# Youngs Moduli (GPa) = 69.15070 72.07859 17.11022
#
# Poissons Ratio (x) = 0.28444 0.21864
# Poissons Ratio (y) = 0.27289 0.20264
# Poissons Ratio (z) = 0.88364 0.85365
#
# Static dielectric constant tensor:
#      x y z
#    x 3.440670 0.000000 0.000000 
#    y 0.000000 3.552750 0.000000 
#    z 0.000000 0.000000 2.836720 
# 
# 
# High freq. dielectric constant tensor:
#      x y z
#    x 1.705080 0.000000 0.000000 
#    y 0.000000 1.713990 0.000000 
#    z 0.000000 0.000000 1.644030 
# 
# From -- ./inp_files/8279.got.cif
#   From: 2010.06.25/outbox.cif.g09.slc.cpg/sg71_5_cif.got.tgz:8279.got - 2010.06.28 04:59:45.
