data_PCOD8290468
_publ_section_title
;
Structure prediction by ZEFSAII (Michael W. Deem and Ramdas Pophale) SiO2 
 PCOD8290468
Probable space group: I M M M
;
_chemical_formula_sum "Si O2"
_cell_formula_units_Z 120
_cell_length_a 27.779137
_cell_length_b 26.323385
_cell_length_c 8.836279
_cell_angle_alpha 90.000000
_cell_angle_beta 90.000000
_cell_angle_gamma 90.000000
_cell_volume 6461.448770
_symmetry_space_group_name_H-M "I M M M"
_symmetry_group_IT_number 71
_symmetry_cell_setting 'orthorhombic'
loop_
_space_group_symop_operation_xyz
x,y,z
-x,-y,z
x,-y,-z
-x,y,-z
-x,-y,-z
x,y,-z
-x,y,z
x,-y,z
1/2+x,1/2+y,1/2+z
1/2-x,1/2-y,1/2+z
1/2+x,1/2-y,1/2-z
1/2-x,1/2+y,1/2-z
1/2-x,1/2-y,1/2-z
1/2+x,1/2+y,1/2-z
1/2-x,1/2+y,1/2+z
1/2+x,1/2-y,1/2+z
loop_
_atom_site_type_symbol
_atom_site_label
_atom_site_fract_x
_atom_site_fract_y
_atom_site_fract_z
Si Si1 0.305303 0.941742 0.824018
Si Si2 0.361101 0.855877 0.676347
Si Si3 0.612567 0.402840 0.321113
Si Si4 0.612552 0.700140 0.823842
Si Si5 0.294254 0.559120 0.175307
Si Si6 0.945776 0.000000 0.819878
Si Si7 0.055184 0.700234 0.324468
Si Si8 0.698072 0.756466 0.322134
O O1 0.348882 0.906565 0.769276
O O2 0.258456 0.925046 0.730391
O O3 0.319349 0.000000 0.789905
O O4 0.294706 0.933349 0.000000
O O5 0.360901 0.868570 0.500000
O O6 0.414438 0.839048 0.724743
O O7 0.322703 0.812058 0.717643
O O8 0.609226 0.398772 0.500000
O O9 0.591821 0.351588 0.247598
O O10 0.667725 0.409168 0.271571
O O11 0.581217 0.449964 0.258564
O O12 0.572446 0.742567 0.791663
O O13 0.663052 0.713979 0.746022
O O14 0.622433 0.692489 0.000000
O O15 0.303326 0.500000 0.206448
O O16 0.299411 0.573310 0.000000
O O17 0.000000 0.000000 0.756470
O O18 0.945261 0.000000 0.000000
O O19 0.062523 0.686649 0.500000
O O20 0.000000 0.695552 0.274455
O O21 0.701518 0.747739 0.500000
O O22 0.750000 0.750000 0.250000
#
# Coordination Sequence:
#
# PCOD8290468 Si02
#       8
#    16  16  16  16  16   8  16  16
#     4  10  21  36  56  83 115 152 192 226 265 323
#     4  10  21  36  56  84 116 148 185 228 277 329
#     4  11  21  35  55  77 105 142 185 233 283 339
#     4  10  21  36  54  79 110 142 181 230 281 331
#     4  10  20  34  53  76 106 143 184 228 275 324
#     4   9  20  38  57  77 103 139 185 237 290 341
#     4   9  19  38  62  84 109 144 185 228 277 334
#     4  10  21  36  53  77 110 148 187 225 273 332
#
# _framework density 18.571686
#
# number of rings (size 3 to 8) (size 9 to 14) (size 15 to 20)
#    0.000    2.067    0.667    2.400    1.867    4.267 
#    0.000    0.000    0.000    3.200    0.000    2.800 
#    0.000    0.000    0.000    0.000    0.000    0.000 
#
# Total GULP energy -744283.077971 kJ/mol
# GULP energy per Si atom -12404.717966 kJ/mol
# Density = 1.852942 g / cm^3
# Si number density = 18.571686 Si / 1000 Ang^3
#
#
#
# Elastic Constant Matrix: (Units=GPa)
#
#
# Indices 1 2 3 4 5 6 
#
# 1 113.9996 48.6711 36.4550 0.0000 0.0000 0.0000
# 2 48.6711 101.1034 38.8189 0.0000 0.0000 0.0000
# 3 36.4550 38.8189 73.8206 0.0000 0.0000 0.0000
# 4 0.0000 0.0000 0.0000 33.5574 0.0000 0.0000
# 5 0.0000 0.0000 0.0000 0.0000 24.5614 0.0000
# 6 0.0000 0.0000 0.0000 0.0000 0.0000 19.8399
#
#
#
# Elastic Compliance Matrix: (Units=1/GPa)
#
#
# Indices 1 2 3 4 5 6 
#
# 1 0.011736 -0.004291 -0.003539 0.000000 0.000000 0.000000
# 2 -0.004291 0.013962 -0.005223 0.000000 0.000000 0.000000
# 3 -0.003539 -0.005223 0.018041 0.000000 0.000000 0.000000
# 4 0.000000 0.000000 0.000000 0.029800 0.000000 0.000000
# 5 0.000000 0.000000 0.000000 0.000000 0.040714 0.000000
# 6 0.000000 0.000000 0.000000 0.000000 0.000000 0.050403
#
#
# Mechanical properties :
#
#
# Convention : Reuss Voigt Hill
#
# Bulk Modulus (GPa) = 56.71380 59.64597 58.17988
# Shear Modulus (GPa) = 25.42738 26.59031 26.00884
#
# Velocity S-wave (km/s) = 3.70421 3.78797 3.74633
# Velocity P-wave (km/s) = 6.99278 7.16366 7.07874
#
# Compressibility (1/GPa) = 0.01763239
#
# Stress axis : x y z
#
# Youngs Moduli (GPa) = 85.21104 71.62427 55.43033
#
# Poissons Ratio (x) = 0.30731 0.19618
# Poissons Ratio (y) = 0.36561 0.28951
# Poissons Ratio (z) = 0.30158 0.37409
#
# Static dielectric constant tensor:
#      x y z
#    x 3.314700 0.000000 0.000000 
#    y 0.000000 3.463690 0.000000 
#    z 0.000000 0.000000 3.403250 
# 
# 
# High freq. dielectric constant tensor:
#      x y z
#    x 1.708220 0.000000 0.000000 
#    y 0.000000 1.719750 0.000000 
#    z 0.000000 0.000000 1.726870 
# 
# From -- ./inp_files/15668.got.cif
#   From: 2010.06.25/outbox.cif.g09.slc.cpg/sg71_8_cif.got.tgz:15668.got - 2010.06.28 04:59:45.
