data_PCOD8290949
_publ_section_title
;
Structure prediction by ZEFSAII (Michael W. Deem and Ramdas Pophale) SiO2 
 PCOD8290949
Probable space group: I M M M
;
_chemical_formula_sum "Si O2"
_cell_formula_units_Z 104
_cell_length_a 8.840395
_cell_length_b 27.948606
_cell_length_c 21.052495
_cell_angle_alpha 90.000000
_cell_angle_beta 90.000000
_cell_angle_gamma 90.000000
_cell_volume 5201.581344
_symmetry_space_group_name_H-M "I M M M"
_symmetry_group_IT_number 71
_symmetry_cell_setting 'orthorhombic'
loop_
_space_group_symop_operation_xyz
x,y,z
-x,-y,z
x,-y,-z
-x,y,-z
-x,-y,-z
x,y,-z
-x,y,z
x,-y,z
1/2+x,1/2+y,1/2+z
1/2-x,1/2-y,1/2+z
1/2+x,1/2-y,1/2-z
1/2-x,1/2+y,1/2-z
1/2-x,1/2-y,1/2-z
1/2+x,1/2+y,1/2-z
1/2-x,1/2+y,1/2+z
1/2+x,1/2-y,1/2+z
loop_
_atom_site_type_symbol
_atom_site_label
_atom_site_fract_x
_atom_site_fract_y
_atom_site_fract_z
Si Si1 0.320878 0.443767 0.000000
Si Si2 0.821924 0.639044 0.759338
Si Si3 0.821269 0.197633 0.155443
Si Si4 0.820065 0.372381 0.904148
Si Si5 0.321674 0.391007 0.570437
Si Si6 0.824973 0.225026 0.430161
Si Si7 0.823967 0.446980 0.672526
O O1 0.251103 0.419415 0.936778
O O2 0.278644 0.500000 0.000000
O O3 0.500000 0.436072 0.000000
O O4 0.742339 0.684815 0.725625
O O5 0.767975 0.632131 0.831119
O O6 0.768219 0.590353 0.725247
O O7 0.000000 0.647608 0.754791
O O8 0.768157 0.156060 0.107728
O O9 0.752187 0.246082 0.127224
O O10 0.000000 0.203844 0.159699
O O11 0.757129 0.325629 0.938400
O O12 0.000000 0.375458 0.911083
O O13 0.252291 0.389211 0.500000
O O14 0.500000 0.393920 0.567915
O O15 0.259682 0.437717 0.605975
O O16 0.807713 0.250075 0.500000
O O17 0.000000 0.217633 0.412889
O O18 0.783344 0.500000 0.696866
O O19 0.000000 0.440980 0.659521
#
# Coordination Sequence:
#
# PCOD8290949 Si02
#       7
#     8  16  16  16  16  16  16
#     4  11  25  45  67  93 127 161 195 243 304 367
#     4   9  20  38  58  83 115 150 191 240 294 352
#     4  10  20  35  57  84 114 153 198 242 287 343
#     4  11  23  40  65  92 118 151 193 242 292 348
#     4   9  18  32  49  72 105 143 184 233 282 328
#     4  11  23  38  59  86 120 159 195 239 294 352
#     4   9  18  33  52  74 103 139 180 229 282 337
#
# _framework density 19.993919000000002
#
# number of rings (size 3 to 8) (size 9 to 14) (size 15 to 20)
#    0.000    2.077    0.769    2.077    0.000    6.154 
#    0.000    3.077    0.000    0.000    0.000    0.000 
#    0.000    0.000    0.000    0.000    0.000    0.000 
#
# Total GULP energy -644774.527482 kJ/mol
# GULP energy per Si atom -12399.510144 kJ/mol
# Density = 1.994841 g / cm^3
# Si number density = 19.993919 Si / 1000 Ang^3
#
#
#
# Elastic Constant Matrix: (Units=GPa)
#
#
# Indices 1 2 3 4 5 6 
#
# 1 71.9636 40.9354 46.6120 0.0000 0.0000 0.0000
# 2 40.9354 110.0870 48.7486 0.0000 0.0000 0.0000
# 3 46.6120 48.7486 148.5193 -0.0005 0.0000 0.0000
# 4 0.0000 0.0000 -0.0005 26.9274 0.0000 0.0000
# 5 0.0000 0.0000 0.0000 0.0000 30.0887 0.0000
# 6 0.0000 0.0000 0.0000 0.0000 0.0000 32.6023
#
#
#
# Elastic Compliance Matrix: (Units=1/GPa)
#
#
# Indices 1 2 3 4 5 6 
#
# 1 0.019861 -0.005412 -0.004457 0.000000 0.000000 0.000000
# 2 -0.005412 0.012103 -0.002274 0.000000 0.000000 0.000000
# 3 -0.004457 -0.002274 0.008878 0.000000 0.000000 0.000000
# 4 0.000000 0.000000 0.000000 0.037137 0.000000 0.000000
# 5 0.000000 0.000000 0.000000 0.000000 0.033235 0.000000
# 6 0.000000 0.000000 0.000000 0.000000 0.000000 0.030673
#
#
# Mechanical properties :
#
#
# Convention : Reuss Voigt Hill
#
# Bulk Modulus (GPa) = 60.39779 67.01797 63.70788
# Shear Modulus (GPa) = 29.12194 30.87529 29.99861
#
# Velocity S-wave (km/s) = 3.82060 3.93394 3.87768
# Velocity P-wave (km/s) = 7.05240 7.36386 7.20981
#
# Compressibility (1/GPa) = 0.01655690
#
# Stress axis : x y z
#
# Youngs Moduli (GPa) = 50.34960 82.62369 112.63273
#
# Poissons Ratio (x) = 0.44713 0.50201
# Poissons Ratio (y) = 0.27247 0.25615
# Poissons Ratio (z) = 0.22441 0.18790
#
# Static dielectric constant tensor:
#      x y z
#    x 3.527660 0.000000 0.000000 
#    y 0.000000 3.650980 0.000000 
#    z 0.000000 0.000000 3.887450 
# 
# 
# High freq. dielectric constant tensor:
#      x y z
#    x 1.778210 0.000000 0.000000 
#    y 0.000000 1.774060 0.000000 
#    z 0.000000 0.000000 1.788960 
# 
# From -- ./inp_files/50885.got.cif
#   From: 2010.06.25/outbox.cif.g09.slc.cpg/sg71_26_cif.got.tgz:50885.got - 2010.06.28 04:59:45.
