data_PCOD8290506
_publ_section_title
;
Structure prediction by ZEFSAII (Michael W. Deem and Ramdas Pophale) SiO2 
 PCOD8290506
Probable space group: I M M M
;
_chemical_formula_sum "Si O2"
_cell_formula_units_Z 56
_cell_length_a 8.960714
_cell_length_b 9.009585
_cell_length_c 36.335082
_cell_angle_alpha 90.000000
_cell_angle_beta 90.000000
_cell_angle_gamma 90.000000
_cell_volume 2933.415265
_symmetry_space_group_name_H-M "I M M M"
_symmetry_group_IT_number 71
_symmetry_cell_setting 'orthorhombic'
loop_
_space_group_symop_operation_xyz
x,y,z
-x,-y,z
x,-y,-z
-x,y,-z
-x,-y,-z
x,y,-z
-x,y,z
x,-y,z
1/2+x,1/2+y,1/2+z
1/2-x,1/2-y,1/2+z
1/2+x,1/2-y,1/2-z
1/2-x,1/2+y,1/2-z
1/2-x,1/2-y,1/2-z
1/2+x,1/2+y,1/2-z
1/2-x,1/2+y,1/2+z
1/2+x,1/2-y,1/2+z
loop_
_atom_site_type_symbol
_atom_site_label
_atom_site_fract_x
_atom_site_fract_y
_atom_site_fract_z
Si Si1 0.671489 0.824701 0.500000
Si Si2 0.671778 0.175405 0.784282
Si Si3 0.674350 0.173690 0.931513
Si Si4 0.668179 0.323615 0.642447
O O1 0.500000 0.773488 0.500000
O O2 0.750745 0.762180 0.535795
O O3 0.687320 0.000000 0.500000
O O4 0.500000 0.223065 0.785267
O O5 0.750000 0.250000 0.750000
O O6 0.748600 0.236702 0.821371
O O7 0.690756 0.000000 0.780908
O O8 0.500000 0.208469 0.930722
O O9 0.744760 0.232745 0.893514
O O10 0.705739 0.000000 0.937322
O O11 0.500000 0.260569 0.641778
O O12 0.667921 0.500000 0.643046
#
# Coordination Sequence:
#
# PCOD8290506 Si02
#       4
#     8  16  16  16
#     4  11  24  39  54  76 108 143 176 213 260 312
#     4  10  20  34  53  78 108 141 177 218 263 311
#     4  10  20  35  57  83 107 134 173 218 261 309
#     4   9  17  31  53  79 106 137 173 215 262 309
#
# _framework density 19.090375000000002
#
# number of rings (size 3 to 8) (size 9 to 14) (size 15 to 20)
#    0.000    2.143    0.000    3.429    0.000    9.714 
#    0.000    1.429    0.000    8.571    0.000    0.000 
#    0.000    0.000    0.000    0.000    0.000    0.000 
#
# Total GULP energy -347278.107070 kJ/mol
# GULP energy per Si atom -12402.789538 kJ/mol
# Density = 1.904692 g / cm^3
# Si number density = 19.090375 Si / 1000 Ang^3
#
#
#
# Elastic Constant Matrix: (Units=GPa)
#
#
# Indices 1 2 3 4 5 6 
#
# 1 184.7869 46.2624 110.2157 0.0000 0.0000 0.0000
# 2 46.2624 30.0264 42.7204 0.0001 0.0000 0.0000
# 3 110.2157 42.7204 212.0825 0.0000 0.0000 0.0000
# 4 0.0000 0.0001 0.0000 28.0613 0.0000 0.0000
# 5 0.0000 0.0000 0.0000 0.0000 48.1091 0.0000
# 6 0.0000 0.0000 0.0000 0.0000 0.0000 25.1504
#
#
#
# Elastic Compliance Matrix: (Units=1/GPa)
#
#
# Indices 1 2 3 4 5 6 
#
# 1 0.009952 -0.011179 -0.002920 0.000000 0.000000 0.000000
# 2 -0.011179 0.059239 -0.006123 0.000000 0.000000 0.000000
# 3 -0.002920 -0.006123 0.007466 0.000000 0.000000 0.000000
# 4 0.000000 0.000000 0.000000 0.035636 0.000000 0.000000
# 5 0.000000 0.000000 0.000000 0.000000 0.020786 0.000000
# 6 0.000000 0.000000 0.000000 0.000000 0.000000 0.039761
#
#
# Mechanical properties :
#
#
# Convention : Reuss Voigt Hill
#
# Bulk Modulus (GPa) = 27.61430 91.69919 59.65675
# Shear Modulus (GPa) = 22.18713 35.44398 28.81555
#
# Velocity S-wave (km/s) = 3.41283 4.31355 3.88935
# Velocity P-wave (km/s) = 5.47962 8.54093 7.17544
#
# Compressibility (1/GPa) = 0.03621313
#
# Stress axis : x y z
#
# Youngs Moduli (GPa) = 100.48259 16.88069 133.93794
#
# Poissons Ratio (x) = 0.18870 0.39112
# Poissons Ratio (y) = 1.12325 0.82016
# Poissons Ratio (z) = 0.29342 0.10337
#
# Static dielectric constant tensor:
#      x y z
#    x 3.799600 0.000000 0.000000 
#    y 0.000000 3.122420 0.000000 
#    z 0.000000 0.000000 3.828120 
# 
# 
# High freq. dielectric constant tensor:
#      x y z
#    x 1.764820 0.000000 0.000000 
#    y 0.000000 1.700830 0.000000 
#    z 0.000000 0.000000 1.763980 
# 
# From -- ./inp_files/67634.got.cif
#   From: 2010.06.25/outbox.cif.g09.slc.cpg/sg71_34_cif.got.tgz:67634.got - 2010.06.28 04:59:45.
