data_PCOD8290036
_publ_section_title
;
Structure prediction by ZEFSAII (Michael W. Deem and Ramdas Pophale) SiO2 
 PCOD8290036
Probable space group: I M M M
;
_chemical_formula_sum "Si O2"
_cell_formula_units_Z 104
_cell_length_a 8.922571
_cell_length_b 24.045765
_cell_length_c 28.134477
_cell_angle_alpha 90.000000
_cell_angle_beta 90.000000
_cell_angle_gamma 90.000000
_cell_volume 6036.253319
_symmetry_space_group_name_H-M "I M M M"
_symmetry_group_IT_number 71
_symmetry_cell_setting 'orthorhombic'
loop_
_space_group_symop_operation_xyz
x,y,z
-x,-y,z
x,-y,-z
-x,y,-z
-x,-y,-z
x,y,-z
-x,y,z
x,-y,z
1/2+x,1/2+y,1/2+z
1/2-x,1/2-y,1/2+z
1/2+x,1/2-y,1/2-z
1/2-x,1/2+y,1/2-z
1/2-x,1/2-y,1/2-z
1/2+x,1/2+y,1/2-z
1/2-x,1/2+y,1/2+z
1/2+x,1/2-y,1/2+z
loop_
_atom_site_type_symbol
_atom_site_label
_atom_site_fract_x
_atom_site_fract_y
_atom_site_fract_z
Si Si1 0.821812 0.562255 0.000000
Si Si2 0.675196 0.563415 0.632126
Si Si3 0.174928 0.065067 0.322310
Si Si4 0.326062 0.348478 0.554190
Si Si5 0.668451 0.066014 0.226811
Si Si6 0.822067 0.371677 0.091654
Si Si7 0.175952 0.765322 0.554760
O O1 0.761618 0.593448 0.953385
O O2 0.755662 0.500000 0.000000
O O3 0.000000 0.560895 0.000000
O O4 0.500000 0.567093 0.643155
O O5 0.723436 0.500000 0.621428
O O6 0.721075 0.599414 0.586437
O O7 0.760004 0.588357 0.677959
O O8 0.232549 0.086326 0.271212
O O9 0.264389 0.099293 0.361207
O O10 0.000000 0.077891 0.326441
O O11 0.209781 0.000000 0.329592
O O12 0.289351 0.365145 0.500000
O O13 0.500000 0.333276 0.560429
O O14 0.229916 0.295546 0.570512
O O15 0.500000 0.089340 0.232002
O O16 0.669258 0.000000 0.225276
O O17 0.758062 0.309607 0.088255
O O18 0.000000 0.369241 0.092810
O O19 0.221641 0.776166 0.500000
O O20 0.000000 0.770110 0.562625
#
# Coordination Sequence:
#
# PCOD8290036 Si02
#       7
#     8  16  16  16  16  16  16
#     4   9  18  30  45  69  99 129 160 199 248 297
#     4   9  17  30  50  77 107 136 164 200 248 296
#     4  10  20  33  49  72 102 133 166 207 254 300
#     4   9  18  32  51  75 103 135 171 206 242 292
#     4   9  17  30  49  72  98 131 170 207 243 293
#     4  11  20  32  51  72  98 131 169 211 252 300
#     4  10  20  34  51  70  96 130 172 215 253 294
#
# _framework density 17.229230000000001
#
# number of rings (size 3 to 8) (size 9 to 14) (size 15 to 20)
#    0.000    2.385    0.769    2.308    0.000    4.923 
#    0.000    1.538    0.000    2.769    0.000    4.308 
#    0.000    0.000    0.000    0.000    0.000    0.000 
#
# Total GULP energy -644906.423557 kJ/mol
# GULP energy per Si atom -12402.046607 kJ/mol
# Density = 1.719002 g / cm^3
# Si number density = 17.229230 Si / 1000 Ang^3
#
#
#
# Elastic Constant Matrix: (Units=GPa)
#
#
# Indices 1 2 3 4 5 6 
#
# 1 75.5924 42.2481 43.7874 0.0000 0.0000 0.0000
# 2 42.2481 89.1338 61.4351 0.0000 0.0000 0.0000
# 3 43.7874 61.4351 118.9307 0.0000 0.0000 0.0000
# 4 0.0000 0.0000 0.0000 8.6006 0.0000 0.0000
# 5 0.0000 0.0000 0.0000 0.0000 29.6730 0.0000
# 6 0.0000 0.0000 0.0000 0.0000 0.0000 22.7706
#
#
#
# Elastic Compliance Matrix: (Units=1/GPa)
#
#
# Indices 1 2 3 4 5 6 
#
# 1 0.018954 -0.006482 -0.003630 0.000000 0.000000 0.000000
# 2 -0.006482 0.019639 -0.007758 0.000000 0.000000 0.000000
# 3 -0.003630 -0.007758 0.013752 0.000000 0.000000 0.000000
# 4 0.000000 0.000000 0.000000 0.116272 0.000000 0.000000
# 5 0.000000 0.000000 0.000000 0.000000 0.033701 0.000000
# 6 0.000000 0.000000 0.000000 0.000000 0.000000 0.043916
#
#
# Mechanical properties :
#
#
# Convention : Reuss Voigt Hill
#
# Bulk Modulus (GPa) = 60.22331 64.28868 62.25600
# Shear Modulus (GPa) = 17.39074 21.28794 19.33934
#
# Velocity S-wave (km/s) = 3.18051 3.51888 3.35397
# Velocity P-wave (km/s) = 6.96546 7.34199 7.15620
#
# Compressibility (1/GPa) = 0.01660487
#
# Stress axis : x y z
#
# Youngs Moduli (GPa) = 52.75820 50.91990 72.71491
#
# Poissons Ratio (x) = 0.33006 0.26397
# Poissons Ratio (y) = 0.34198 0.56413
# Poissons Ratio (z) = 0.19152 0.39504
#
# Static dielectric constant tensor:
#      x y z
#    x 3.208090 0.000000 0.000000 
#    y 0.000000 3.075690 0.000000 
#    z 0.000000 0.000000 3.274380 
# 
# 
# High freq. dielectric constant tensor:
#      x y z
#    x 1.667950 0.000000 0.000000 
#    y 0.000000 1.642300 0.000000 
#    z 0.000000 0.000000 1.663340 
# 
# From -- ./inp_files/15515.got.cif
#   From: 2010.06.25/outbox.cif.g09.slc.cpg/sg71_8_cif.got.tgz:15515.got - 2010.06.28 04:59:45.
