data_PCOD8290316
_publ_section_title
;
Structure prediction by ZEFSAII (Michael W. Deem and Ramdas Pophale) SiO2 
 PCOD8290316
Probable space group: I M M M
;
_chemical_formula_sum "Si O2"
_cell_formula_units_Z 100
_cell_length_a 26.528948
_cell_length_b 9.373481
_cell_length_c 21.792422
_cell_angle_alpha 90.000000
_cell_angle_beta 90.000000
_cell_angle_gamma 90.000000
_cell_volume 5419.090852
_symmetry_space_group_name_H-M "I M M M"
_symmetry_group_IT_number 71
_symmetry_cell_setting 'orthorhombic'
loop_
_space_group_symop_operation_xyz
x,y,z
-x,-y,z
x,-y,-z
-x,y,-z
-x,-y,-z
x,y,-z
-x,y,z
x,-y,z
1/2+x,1/2+y,1/2+z
1/2-x,1/2-y,1/2+z
1/2+x,1/2-y,1/2-z
1/2-x,1/2+y,1/2-z
1/2-x,1/2-y,1/2-z
1/2+x,1/2+y,1/2-z
1/2-x,1/2+y,1/2+z
1/2+x,1/2-y,1/2+z
loop_
_atom_site_type_symbol
_atom_site_label
_atom_site_fract_x
_atom_site_fract_y
_atom_site_fract_z
Si Si1 0.116336 0.337296 0.000000
Si Si2 0.875246 0.667512 0.325385
Si Si3 0.092180 0.160891 0.210248
Si Si4 0.239305 0.667693 0.687200
Si Si5 0.829874 0.839259 0.893135
Si Si6 0.500000 0.239569 0.500000
Si Si7 0.500000 0.663095 0.635007
Si Si8 0.055966 0.330491 0.567547
O O1 0.141099 0.262434 0.059361
O O2 0.054466 0.341749 0.000000
O O3 0.134487 0.500000 0.000000
O O4 0.883198 0.500000 0.317255
O O5 0.901930 0.739177 0.267987
O O6 0.817037 0.707439 0.332752
O O7 0.903055 0.729562 0.385228
O O8 0.143087 0.160101 0.172113
O O9 0.049429 0.230748 0.166046
O O10 0.078924 0.000000 0.231604
O O11 0.246210 0.500000 0.700453
O O12 0.250000 0.750000 0.750000
O O13 0.274064 0.712786 0.628251
O O14 0.828872 0.000000 0.921215
O O15 0.500000 0.330745 0.561569
O O16 0.500000 0.500000 0.652634
O O17 0.068918 0.270194 0.500000
O O18 0.058071 0.500000 0.566138
O O19 0.000000 0.280356 0.587448
#
# Coordination Sequence:
#
# PCOD8290316 Si02
#       8
#     8  16  16  16  16   4   8  16
#     4  12  26  41  58  83 112 145 187 236 288 331
#     4  10  20  33  54  85 111 137 177 226 278 323
#     4  10  20  35  54  80 109 142 183 226 269 324
#     4  10  20  35  55  81 109 141 178 221 272 325
#     4  10  21  39  59  78 106 147 192 229 271 331
#     4  12  22  40  58  80 111 148 185 232 283 332
#     4  10  21  35  55  80 108 147 193 228 265 324
#     4   8  15  30  51  75 106 140 172 209 259 321
#
# _framework density 18.453279999999999
#
# number of rings (size 3 to 8) (size 9 to 14) (size 15 to 20)
#    0.000    2.080    3.200    0.960    1.120    1.920 
#    1.440    0.000    0.000    0.480    0.000    1.120 
#    0.000    0.000    0.000    0.000    0.000    0.000 
#
# Total GULP energy -619546.620997 kJ/mol
# GULP energy per Si atom -12390.932420 kJ/mol
# Density = 1.841128 g / cm^3
# Si number density = 18.453280 Si / 1000 Ang^3
#
#
#
# Elastic Constant Matrix: (Units=GPa)
#
#
# Indices 1 2 3 4 5 6 
#
# 1 142.9799 35.6165 87.7127 0.0000 0.0000 0.0000
# 2 35.6165 53.9092 40.7380 0.0000 0.0000 0.0000
# 3 87.7127 40.7380 128.3553 0.0000 0.0000 0.0000
# 4 0.0000 0.0000 0.0000 17.4397 0.0000 0.0000
# 5 0.0000 0.0000 0.0000 0.0000 34.6955 0.0000
# 6 0.0000 0.0000 0.0000 0.0000 0.0000 16.2177
#
#
#
# Elastic Compliance Matrix: (Units=1/GPa)
#
#
# Indices 1 2 3 4 5 6 
#
# 1 0.012260 -0.002327 -0.007640 0.000000 0.000000 0.000000
# 2 -0.002327 0.024844 -0.006295 0.000000 0.000000 0.000000
# 3 -0.007640 -0.006295 0.015009 0.000000 0.000000 0.000000
# 4 0.000000 0.000000 0.000000 0.057340 0.000000 0.000000
# 5 0.000000 0.000000 0.000000 0.000000 0.028822 0.000000
# 6 0.000000 0.000000 0.000000 0.000000 0.000000 0.061661
#
#
# Mechanical properties :
#
#
# Convention : Reuss Voigt Hill
#
# Bulk Modulus (GPa) = 51.04485 72.59764 61.82125
# Shear Modulus (GPa) = 20.92135 24.41574 22.66855
#
# Velocity S-wave (km/s) = 3.37077 3.64141 3.50870
# Velocity P-wave (km/s) = 6.54761 7.55689 7.07028
#
# Compressibility (1/GPa) = 0.01959061
#
# Stress axis : x y z
#
# Youngs Moduli (GPa) = 81.56437 40.25111 66.62498
#
# Poissons Ratio (x) = 0.09366 0.50899
# Poissons Ratio (y) = 0.18980 0.41940
# Poissons Ratio (z) = 0.62312 0.25338
#
# Static dielectric constant tensor:
#      x y z
#    x 3.831000 0.000000 0.000000 
#    y 0.000000 3.103510 0.000000 
#    z 0.000000 0.000000 3.432770 
# 
# 
# High freq. dielectric constant tensor:
#      x y z
#    x 1.731800 0.000000 0.000000 
#    y 0.000000 1.680210 0.000000 
#    z 0.000000 0.000000 1.715220 
# 
# From -- ./inp_files/56319.got.cif
#   From: 2010.06.25/outbox.cif.g09.slc.cpg/sg71_29_cif.got.tgz:56319.got - 2010.06.28 04:59:45.
