data_PCOD8290614
_publ_section_title
;
Structure prediction by ZEFSAII (Michael W. Deem and Ramdas Pophale) SiO2 
 PCOD8290614
Probable space group: I M M M
;
_chemical_formula_sum "Si O2"
_cell_formula_units_Z 104
_cell_length_a 14.213472
_cell_length_b 23.125092
_cell_length_c 16.328665
_cell_angle_alpha 90.000000
_cell_angle_beta 90.000000
_cell_angle_gamma 90.000000
_cell_volume 5367.033754
_symmetry_space_group_name_H-M "I M M M"
_symmetry_group_IT_number 71
_symmetry_cell_setting 'orthorhombic'
loop_
_space_group_symop_operation_xyz
x,y,z
-x,-y,z
x,-y,-z
-x,y,-z
-x,-y,-z
x,y,-z
-x,y,z
x,-y,z
1/2+x,1/2+y,1/2+z
1/2-x,1/2-y,1/2+z
1/2+x,1/2-y,1/2-z
1/2-x,1/2+y,1/2-z
1/2-x,1/2-y,1/2-z
1/2+x,1/2+y,1/2-z
1/2-x,1/2+y,1/2+z
1/2+x,1/2-y,1/2+z
loop_
_atom_site_type_symbol
_atom_site_label
_atom_site_fract_x
_atom_site_fract_y
_atom_site_fract_z
Si Si1 0.606611 0.662935 0.740707
Si Si2 0.105976 0.721701 0.666715
Si Si3 0.604455 0.109578 0.743033
Si Si4 0.673988 0.064814 0.909541
Si Si5 0.391845 0.568196 0.000000
Si Si6 0.711944 0.431954 0.833821
Si Si7 0.718700 0.675417 0.411927
O O1 0.500000 0.645071 0.726705
O O2 0.618510 0.711753 0.809180
O O3 0.660518 0.604319 0.763429
O O4 0.645557 0.692087 0.657987
O O5 0.125454 0.678137 0.743693
O O6 0.181253 0.708293 0.596490
O O7 0.000000 0.710951 0.633702
O O8 0.500000 0.099743 0.706711
O O9 0.606368 0.080050 0.833347
O O10 0.677121 0.082714 0.676716
O O11 0.764245 0.106555 0.907141
O O12 0.711702 0.000000 0.897336
O O13 0.624123 0.071057 0.000000
O O14 0.331847 0.588286 0.920835
O O15 0.400433 0.500000 0.000000
O O16 0.500000 0.593672 0.000000
O O17 0.695147 0.500000 0.820022
O O18 0.676172 0.692963 0.500000
#
# Coordination Sequence:
#
# PCOD8290614 Si02
#       7
#    16  16  16  16   8  16  16
#     4  11  22  37  59  82 110 149 191 234 280 333
#     4   9  19  37  58  80 110 146 186 232 282 330
#     4  10  20  34  56  83 114 150 186 229 280 336
#     4   9  17  30  49  76 113 153 189 223 261 311
#     4   9  20  40  61  81 109 141 180 236 294 343
#     4  11  22  38  60  85 111 144 185 234 289 342
#     4  10  20  34  54  82 116 150 184 228 275 327
#
# _framework density 19.377556999999999
#
# number of rings (size 3 to 8) (size 9 to 14) (size 15 to 20)
#    0.000    2.077    3.077    1.385    0.000    3.077 
#    1.385    4.231    0.000    1.385    0.000    3.231 
#    0.000    0.000    0.000    0.000    0.000    0.000 
#
# Total GULP energy -644359.794331 kJ/mol
# GULP energy per Si atom -12391.534506 kJ/mol
# Density = 1.933345 g / cm^3
# Si number density = 19.377557 Si / 1000 Ang^3
#
#
#
# Elastic Constant Matrix: (Units=GPa)
#
#
# Indices 1 2 3 4 5 6 
#
# 1 106.2881 24.7021 51.6312 0.0000 0.0000 0.0000
# 2 24.7021 71.0369 9.3135 -0.0002 -0.0001 0.0000
# 3 51.6312 9.3135 101.7016 -0.0002 -0.0001 0.0000
# 4 0.0000 -0.0002 -0.0002 15.0348 -0.0001 0.0000
# 5 0.0000 -0.0001 -0.0001 -0.0001 14.3919 0.0000
# 6 0.0000 0.0000 0.0000 0.0000 0.0000 21.1688
#
#
#
# Elastic Compliance Matrix: (Units=1/GPa)
#
#
# Indices 1 2 3 4 5 6 
#
# 1 0.013442 -0.003826 -0.006474 0.000000 0.000000 0.000000
# 2 -0.003826 0.015337 0.000538 0.000000 0.000000 0.000000
# 3 -0.006474 0.000538 0.013070 0.000000 0.000000 0.000000
# 4 0.000000 0.000000 0.000000 0.066513 0.000001 0.000000
# 5 0.000000 0.000000 0.000000 0.000001 0.069484 0.000000
# 6 0.000000 0.000000 0.000000 0.000000 0.000000 0.047239
#
#
# Mechanical properties :
#
#
# Convention : Reuss Voigt Hill
#
# Bulk Modulus (GPa) = 44.79166 50.03559 47.41362
# Shear Modulus (GPa) = 19.83727 23.01106 21.42416
#
# Velocity S-wave (km/s) = 3.20304 3.44977 3.32869
# Velocity P-wave (km/s) = 6.06998 6.46106 6.26857
#
# Compressibility (1/GPa) = 0.02232558
#
# Stress axis : x y z
#
# Youngs Moduli (GPa) = 74.39187 65.20181 76.51036
#
# Poissons Ratio (x) = 0.24944 0.49533
# Poissons Ratio (y) = 0.28459 -0.04114
# Poissons Ratio (z) = 0.48161 -0.03506
#
# Static dielectric constant tensor:
#      x y z
#    x 3.505620 0.000000 0.000000 
#    y 0.000000 3.551990 0.000000 
#    z 0.000000 0.000000 3.520450 
# 
# 
# High freq. dielectric constant tensor:
#      x y z
#    x 1.740750 0.000000 0.000000 
#    y 0.000000 1.755600 0.000000 
#    z 0.000000 0.000000 1.734280 
# 
# From -- ./inp_files/45146.got.cif
#   From: 2010.06.25/outbox.cif.g09.slc.cpg/sg71_23_cif.got.tgz:45146.got - 2010.06.28 04:59:45.
