data_PCOD8290936
_publ_section_title
;
Structure prediction by ZEFSAII (Michael W. Deem and Ramdas Pophale) SiO2 
 PCOD8290936
Probable space group: I M M M
;
_chemical_formula_sum "Si O2"
_cell_formula_units_Z 104
_cell_length_a 27.926035
_cell_length_b 22.547863
_cell_length_c 8.744472
_cell_angle_alpha 90.000000
_cell_angle_beta 90.000000
_cell_angle_gamma 90.000000
_cell_volume 5506.152770
_symmetry_space_group_name_H-M "I M M M"
_symmetry_group_IT_number 71
_symmetry_cell_setting 'orthorhombic'
loop_
_space_group_symop_operation_xyz
x,y,z
-x,-y,z
x,-y,-z
-x,y,-z
-x,-y,-z
x,y,-z
-x,y,z
x,-y,z
1/2+x,1/2+y,1/2+z
1/2-x,1/2-y,1/2+z
1/2+x,1/2-y,1/2-z
1/2-x,1/2+y,1/2-z
1/2-x,1/2-y,1/2-z
1/2+x,1/2+y,1/2-z
1/2-x,1/2+y,1/2+z
1/2+x,1/2-y,1/2+z
loop_
_atom_site_type_symbol
_atom_site_label
_atom_site_fract_x
_atom_site_fract_y
_atom_site_fract_z
Si Si1 0.200277 0.185708 0.675963
Si Si2 0.106333 0.832339 0.825163
Si Si3 0.943639 0.933940 0.670375
Si Si4 0.944835 0.724382 0.324707
Si Si5 0.945001 0.500000 0.818551
Si Si6 0.701024 0.824906 0.822786
Si Si7 0.107525 0.619580 0.820249
O O1 0.193935 0.168973 0.500000
O O2 0.160656 0.153216 0.778048
O O3 0.251101 0.159943 0.729808
O O4 0.191740 0.255518 0.704594
O O5 0.077189 0.892365 0.801351
O O6 0.085999 0.781314 0.716915
O O7 0.102784 0.811792 0.000000
O O8 0.929093 0.911592 0.500000
O O9 0.000000 0.933874 0.686786
O O10 0.923557 0.000000 0.696710
O O11 0.933565 0.707310 0.500000
O O12 0.931528 0.669475 0.217510
O O13 0.000000 0.740545 0.299346
O O14 0.915149 0.442514 0.761820
O O15 0.000000 0.500000 0.753293
O O16 0.948287 0.500000 0.000000
O O17 0.657431 0.865255 0.763049
O O18 0.709206 0.839045 0.000000
O O19 0.117461 0.617933 0.000000
#
# Coordination Sequence:
#
# PCOD8290936 Si02
#       7
#    16  16  16  16   8  16  16
#     4  10  20  35  57  83 115 149 184 226 277 337
#     4  12  23  34  54  84 116 148 184 230 282 334
#     4   9  19  37  59  80 107 148 192 229 271 328
#     4  11  23  37  53  78 114 151 188 233 284 337
#     4   9  20  38  59  85 117 155 199 245 290 345
#     4  10  20  35  57  84 115 146 182 229 280 337
#     4  11  21  36  60  85 113 150 193 238 289 347
#
# _framework density 18.887961000000001
#
# number of rings (size 3 to 8) (size 9 to 14) (size 15 to 20)
#    0.000    1.615    1.538    4.615    0.000    5.538 
#    0.000    2.308    1.692    2.769    0.000    0.000 
#    0.000    0.000    0.000    0.000    0.000    0.000 
#
# Total GULP energy -644875.117889 kJ/mol
# GULP energy per Si atom -12401.444575 kJ/mol
# Density = 1.884497 g / cm^3
# Si number density = 18.887961 Si / 1000 Ang^3
#
#
#
# Elastic Constant Matrix: (Units=GPa)
#
#
# Indices 1 2 3 4 5 6 
#
# 1 107.3766 46.9566 32.9925 0.0000 0.0000 0.0000
# 2 46.9566 85.5894 26.3281 0.0000 0.0000 0.0000
# 3 32.9925 26.3281 73.4820 0.0000 0.0000 0.0000
# 4 0.0000 0.0000 0.0000 25.9051 0.0000 0.0000
# 5 0.0000 0.0000 0.0000 0.0000 34.1847 0.0000
# 6 0.0000 0.0000 0.0000 0.0000 0.0000 23.0009
#
#
#
# Elastic Compliance Matrix: (Units=1/GPa)
#
#
# Indices 1 2 3 4 5 6 
#
# 1 0.013097 -0.006042 -0.003715 0.000000 0.000000 0.000000
# 2 -0.006042 0.015919 -0.002991 0.000000 0.000000 0.000000
# 3 -0.003715 -0.002991 0.016348 0.000000 0.000000 0.000000
# 4 0.000000 0.000000 0.000000 0.038602 0.000000 0.000000
# 5 0.000000 0.000000 0.000000 0.000000 0.029253 0.000000
# 6 0.000000 0.000000 0.000000 0.000000 0.000000 0.043477
#
#
# Mechanical properties :
#
#
# Convention : Reuss Voigt Hill
#
# Bulk Modulus (GPa) = 50.33411 53.22247 51.77829
# Shear Modulus (GPa) = 26.48090 27.29620 26.88855
#
# Velocity S-wave (km/s) = 3.74839 3.80566 3.77713
# Velocity P-wave (km/s) = 6.74096 6.89564 6.81874
#
# Compressibility (1/GPa) = 0.01986724
#
# Stress axis : x y z
#
# Youngs Moduli (GPa) = 76.35314 62.81930 61.16793
#
# Poissons Ratio (x) = 0.37958 0.22726
# Poissons Ratio (y) = 0.46136 0.18293
# Poissons Ratio (z) = 0.28368 0.18786
#
# Static dielectric constant tensor:
#      x y z
#    x 3.567020 0.000000 0.000000 
#    y 0.000000 3.448190 0.000000 
#    z 0.000000 0.000000 3.471180 
# 
# 
# High freq. dielectric constant tensor:
#      x y z
#    x 1.743730 0.000000 0.000000 
#    y 0.000000 1.710700 0.000000 
#    z 0.000000 0.000000 1.735600 
# 
# From -- ./inp_files/16956.got.cif
#   From: 2010.06.25/outbox.cif.g09.slc.cpg/sg71_9_cif.got.tgz:16956.got - 2010.06.28 04:59:45.
