data_PCOD8290732
_publ_section_title
;
Structure prediction by ZEFSAII (Michael W. Deem and Ramdas Pophale) SiO2 
 PCOD8290732
Probable space group: I M M M
;
_chemical_formula_sum "Si O2"
_cell_formula_units_Z 96
_cell_length_a 28.488741
_cell_length_b 20.047692
_cell_length_c 8.858821
_cell_angle_alpha 90.000000
_cell_angle_beta 90.000000
_cell_angle_gamma 90.000000
_cell_volume 5059.569488
_symmetry_space_group_name_H-M "I M M M"
_symmetry_group_IT_number 71
_symmetry_cell_setting 'orthorhombic'
loop_
_space_group_symop_operation_xyz
x,y,z
-x,-y,z
x,-y,-z
-x,y,-z
-x,-y,-z
x,y,-z
-x,y,z
x,-y,z
1/2+x,1/2+y,1/2+z
1/2-x,1/2-y,1/2+z
1/2+x,1/2-y,1/2-z
1/2-x,1/2+y,1/2-z
1/2-x,1/2-y,1/2-z
1/2+x,1/2+y,1/2-z
1/2-x,1/2+y,1/2+z
1/2+x,1/2-y,1/2+z
loop_
_atom_site_type_symbol
_atom_site_label
_atom_site_fract_x
_atom_site_fract_y
_atom_site_fract_z
Si Si1 0.792646 0.658620 0.674362
Si Si2 0.692863 0.297819 0.325726
Si Si3 0.872335 0.422881 0.822492
Si Si4 0.899325 0.813329 0.674509
Si Si5 0.945084 0.927130 0.833658
Si Si6 0.553820 0.174715 0.178748
O O1 0.805766 0.648434 0.500000
O O2 0.736624 0.651988 0.704128
O O3 0.806216 0.733094 0.720335
O O4 0.821953 0.604772 0.768177
O O5 0.692447 0.275491 0.500000
O O6 0.645356 0.333785 0.276620
O O7 0.875677 0.500000 0.775543
O O8 0.916215 0.385164 0.748681
O O9 0.875463 0.412902 0.000000
O O10 0.885490 0.808905 0.500000
O O11 0.934265 0.874097 0.703111
O O12 0.923308 0.744644 0.729938
O O13 0.000000 0.934396 0.840822
O O14 0.923468 0.000000 0.793053
O O15 0.926584 0.904348 0.000000
O O16 0.500000 0.170955 0.237196
O O17 0.555173 0.167826 0.000000
#
# Coordination Sequence:
#
# PCOD8290732 Si02
#       6
#    16  16  16  16  16  16
#     4  10  20  36  58  85 112 144 185 228 278 337
#     4  10  20  34  57  86 115 145 182 227 276 333
#     4  11  24  40  59  84 115 153 197 244 294 349
#     4  11  21  34  56  87 118 150 189 234 285 338
#     4   9  19  36  56  78 108 149 193 233 279 338
#     4  10  22  39  58  83 115 151 195 244 292 345
#
# _framework density 18.973946000000002
#
# number of rings (size 3 to 8) (size 9 to 14) (size 15 to 20)
#    0.000    1.833    1.667    3.000    0.000    6.000 
#    0.000    3.333    0.000    1.000    0.000    0.000 
#    0.000    0.000    0.000    0.000    0.000    0.000 
#
# Total GULP energy -595101.665421 kJ/mol
# GULP energy per Si atom -12397.951363 kJ/mol
# Density = 1.893076 g / cm^3
# Si number density = 18.973946 Si / 1000 Ang^3
#
#
#
# Elastic Constant Matrix: (Units=GPa)
#
#
# Indices 1 2 3 4 5 6 
#
# 1 128.1783 58.3508 44.4910 0.0000 0.0000 0.0000
# 2 58.3508 110.7971 36.3957 0.0000 0.0000 0.0000
# 3 44.4910 36.3957 47.6976 0.0000 0.0000 0.0000
# 4 0.0000 0.0000 0.0000 27.6313 0.0000 0.0000
# 5 0.0000 0.0000 0.0000 0.0000 31.3579 0.0000
# 6 0.0000 0.0000 0.0000 0.0000 0.0000 26.7476
#
#
#
# Elastic Compliance Matrix: (Units=1/GPa)
#
#
# Indices 1 2 3 4 5 6 
#
# 1 0.012578 -0.003697 -0.008911 0.000000 0.000000 0.000000
# 2 -0.003697 0.013131 -0.006571 0.000000 0.000000 0.000000
# 3 -0.008911 -0.006571 0.034292 0.000000 0.000000 0.000000
# 4 0.000000 0.000000 0.000000 0.036191 0.000000 0.000000
# 5 0.000000 0.000000 0.000000 0.000000 0.031890 0.000000
# 6 0.000000 0.000000 0.000000 0.000000 0.000000 0.037387
#
#
# Mechanical properties :
#
#
# Convention : Reuss Voigt Hill
#
# Bulk Modulus (GPa) = 46.20706 62.79422 54.50064
# Shear Modulus (GPa) = 23.69214 26.97641 25.33427
#
# Velocity S-wave (km/s) = 3.53748 3.77471 3.65802
# Velocity P-wave (km/s) = 6.41021 7.22252 6.82845
#
# Compressibility (1/GPa) = 0.02164172
#
# Stress axis : x y z
#
# Youngs Moduli (GPa) = 79.50642 76.15563 29.16138
#
# Poissons Ratio (x) = 0.28152 0.25986
# Poissons Ratio (y) = 0.29391 0.19163
# Poissons Ratio (z) = 0.70850 0.50045
#
# Static dielectric constant tensor:
#      x y z
#    x 3.700080 0.000000 0.000000 
#    y 0.000000 3.383700 0.000000 
#    z 0.000000 0.000000 3.463290 
# 
# 
# High freq. dielectric constant tensor:
#      x y z
#    x 1.745650 0.000000 0.000000 
#    y 0.000000 1.720550 0.000000 
#    z 0.000000 0.000000 1.742030 
# 
# From -- ./inp_files/14860.got.cif
#   From: 2010.06.25/outbox.cif.g09.slc.cpg/sg71_8_cif.got.tgz:14860.got - 2010.06.28 04:59:45.
