data_PCOD8290011
_publ_section_title
;
Structure prediction by ZEFSAII (Michael W. Deem and Ramdas Pophale) SiO2 
 PCOD8290011
Probable space group: I M M M
;
_chemical_formula_sum "Si O2"
_cell_formula_units_Z 88
_cell_length_a 9.451508
_cell_length_b 27.861677
_cell_length_c 17.749052
_cell_angle_alpha 90.000000
_cell_angle_beta 90.000000
_cell_angle_gamma 90.000000
_cell_volume 4673.944178
_symmetry_space_group_name_H-M "I M M M"
_symmetry_group_IT_number 71
_symmetry_cell_setting 'orthorhombic'
loop_
_space_group_symop_operation_xyz
x,y,z
-x,-y,z
x,-y,-z
-x,y,-z
-x,-y,-z
x,y,-z
-x,y,z
x,-y,z
1/2+x,1/2+y,1/2+z
1/2-x,1/2-y,1/2+z
1/2+x,1/2-y,1/2-z
1/2-x,1/2+y,1/2-z
1/2-x,1/2-y,1/2-z
1/2+x,1/2+y,1/2-z
1/2-x,1/2+y,1/2+z
1/2+x,1/2-y,1/2+z
loop_
_atom_site_type_symbol
_atom_site_label
_atom_site_fract_x
_atom_site_fract_y
_atom_site_fract_z
Si Si1 0.832274 0.446680 0.914943
Si Si2 0.843394 0.338396 0.351364
Si Si3 0.657989 0.000000 0.909824
Si Si4 0.655328 0.585481 0.412874
Si Si5 0.337981 0.266047 0.178238
Si Si6 0.664566 0.145836 0.675470
O O1 0.776828 0.500000 0.890196
O O2 0.779239 0.404901 0.858099
O O3 0.000000 0.447446 0.913704
O O4 0.779360 0.435330 0.000000
O O5 0.724996 0.362678 0.402583
O O6 0.837984 0.281948 0.372495
O O7 0.809977 0.351901 0.264730
O O8 0.000000 0.358028 0.371499
O O9 0.740751 0.045935 0.876917
O O10 0.500000 0.000000 0.875839
O O11 0.651244 0.000000 0.000000
O O12 0.637236 0.574085 0.500000
O O13 0.500000 0.583614 0.374502
O O14 0.500000 0.280076 0.199183
O O15 0.250000 0.250000 0.250000
O O16 0.258835 0.311123 0.138795
O O17 0.500000 0.154494 0.655238
#
# Coordination Sequence:
#
# PCOD8290011 Si02
#       6
#    16  16   8  16  16  16
#     4   8  14  27  49  75 102 133 167 202 243 292
#     4   9  18  31  46  69  97 127 163 201 245 295
#     4   9  17  31  51  69  87 119 158 191 230 283
#     4  10  20  33  49  69  94 125 162 203 244 285
#     4   9  17  30  49  71  96 128 165 200 243 296
#     4   9  17  30  49  75 102 127 163 205 245 290
#
# _framework density 18.827781999999999
#
# number of rings (size 3 to 8) (size 9 to 14) (size 15 to 20)
#    0.000    3.000    0.000    3.000    0.000    5.818 
#    1.636    0.909    0.000    4.364    0.000    1.273 
#    0.000    0.000    0.000    0.000    0.000    0.000 
#
# Total GULP energy -545139.277215 kJ/mol
# GULP energy per Si atom -12389.529028 kJ/mol
# Density = 1.878493 g / cm^3
# Si number density = 18.827782 Si / 1000 Ang^3
#
#
#
# Elastic Constant Matrix: (Units=GPa)
#
#
# Indices 1 2 3 4 5 6 
#
# 1 130.8418 67.6015 11.4106 0.0002 0.0000 0.0000
# 2 67.6015 155.8694 28.3664 0.0003 0.0000 0.0000
# 3 11.4106 28.3664 20.2826 -0.0004 -0.0002 0.0000
# 4 0.0002 0.0003 -0.0004 25.5234 -0.0001 0.0000
# 5 0.0000 0.0000 -0.0002 -0.0001 14.9846 0.0000
# 6 0.0000 0.0000 0.0000 0.0000 0.0000 34.3031
#
#
#
# Elastic Compliance Matrix: (Units=1/GPa)
#
#
# Indices 1 2 3 4 5 6 
#
# 1 0.009855 -0.004380 0.000581 0.000000 0.000000 0.000000
# 2 -0.004380 0.010553 -0.012295 0.000000 0.000000 0.000000
# 3 0.000581 -0.012295 0.066171 0.000001 0.000001 0.000000
# 4 0.000000 0.000000 0.000001 0.039180 0.000000 0.000000
# 5 0.000000 0.000000 0.000001 0.000000 0.066735 0.000000
# 6 0.000000 0.000000 0.000000 0.000000 0.000000 0.029152
#
#
# Mechanical properties :
#
#
# Convention : Reuss Voigt Hill
#
# Bulk Modulus (GPa) = 18.38487 57.97232 38.17859
# Shear Modulus (GPa) = 18.38488 28.26990 23.32739
#
# Velocity S-wave (km/s) = 3.12825 3.87912 3.52374
# Velocity P-wave (km/s) = 4.77848 7.13590 6.07269
#
# Compressibility (1/GPa) = 0.05439254
#
# Stress axis : x y z
#
# Youngs Moduli (GPa) = 101.47004 94.76213 15.11239
#
# Poissons Ratio (x) = 0.41506 -0.00879
# Poissons Ratio (y) = 0.44444 0.18580
# Poissons Ratio (z) = -0.05900 1.16505
#
# Static dielectric constant tensor:
#      x y z
#    x 3.588160 0.000000 0.000000 
#    y 0.000000 4.053700 0.000000 
#    z 0.000000 0.000000 2.997300 
# 
# 
# High freq. dielectric constant tensor:
#      x y z
#    x 1.722550 0.000000 0.000000 
#    y 0.000000 1.746870 0.000000 
#    z 0.000000 0.000000 1.673660 
# 
# From -- ./inp_files/42494.got.cif
#   From: 2010.06.25/outbox.cif.g09.slc.cpg/sg71_22_cif.got.tgz:42494.got - 2010.06.28 04:59:45.
