data_PCOD8290532
_publ_section_title
;
Structure prediction by ZEFSAII (Michael W. Deem and Ramdas Pophale) SiO2 
 PCOD8290532
Probable space group: I M M M
;
_chemical_formula_sum "Si O2"
_cell_formula_units_Z 88
_cell_length_a 7.698520
_cell_length_b 27.695590
_cell_length_c 22.384257
_cell_angle_alpha 90.000000
_cell_angle_beta 90.000000
_cell_angle_gamma 90.000000
_cell_volume 4772.660554
_symmetry_space_group_name_H-M "I M M M"
_symmetry_group_IT_number 71
_symmetry_cell_setting 'orthorhombic'
loop_
_space_group_symop_operation_xyz
x,y,z
-x,-y,z
x,-y,-z
-x,y,-z
-x,-y,-z
x,y,-z
-x,y,z
x,-y,z
1/2+x,1/2+y,1/2+z
1/2-x,1/2-y,1/2+z
1/2+x,1/2-y,1/2-z
1/2-x,1/2+y,1/2-z
1/2-x,1/2-y,1/2-z
1/2+x,1/2+y,1/2-z
1/2-x,1/2+y,1/2+z
1/2+x,1/2-y,1/2+z
loop_
_atom_site_type_symbol
_atom_site_label
_atom_site_fract_x
_atom_site_fract_y
_atom_site_fract_z
Si Si1 0.000000 0.795810 0.429338
Si Si2 0.294796 0.552852 0.500000
Si Si3 0.500000 0.813791 0.928012
Si Si4 0.806334 0.636986 0.931559
Si Si5 0.801886 0.118736 0.107035
Si Si6 0.203817 0.054805 0.653600
Si Si7 0.702520 0.054817 0.786499
O O1 0.000000 0.741357 0.405704
O O2 0.828547 0.823590 0.405812
O O3 0.000000 0.794173 0.500000
O O4 0.207714 0.500000 0.500000
O O5 0.500000 0.548053 0.500000
O O6 0.231690 0.580600 0.558610
O O7 0.673338 0.835927 0.898214
O O8 0.500000 0.819325 0.000000
O O9 0.799183 0.587732 0.894512
O O10 0.000000 0.658910 0.926415
O O11 0.760317 0.624196 0.000000
O O12 0.799336 0.092545 0.170880
O O13 0.000000 0.135785 0.093891
O O14 0.257669 0.071900 0.719538
O O15 0.000000 0.059842 0.644719
O O16 0.266938 0.000000 0.643309
O O17 0.500000 0.057192 0.800158
O O18 0.772823 0.000000 0.796520
#
# Coordination Sequence:
#
# PCOD8290532 Si02
#       7
#     8   8   8  16  16  16  16
#     4   9  20  38  59  82 111 142 184 238 284 338
#     4   9  18  31  49  75 110 147 181 224 277 333
#     4  11  22  38  58  83 110 141 189 242 294 335
#     4  10  20  36  59  87 115 147 185 223 277 333
#     4  11  21  35  54  79 110 146 188 233 284 333
#     4  10  20  34  55  85 119 153 186 221 267 327
#     4  10  20  34  53  80 113 151 192 227 267 330
#
# _framework density 18.438351999999998
#
# number of rings (size 3 to 8) (size 9 to 14) (size 15 to 20)
#    0.000    1.909    2.727    1.636    0.000    4.000 
#    0.000    4.091    0.000    1.091    0.000    0.000 
#    0.000    0.000    0.000    0.000    0.000    0.000 
#
# Total GULP energy -545649.634273 kJ/mol
# GULP energy per Si atom -12401.128052 kJ/mol
# Density = 1.839639 g / cm^3
# Si number density = 18.438352 Si / 1000 Ang^3
#
#
#
# Elastic Constant Matrix: (Units=GPa)
#
#
# Indices 1 2 3 4 5 6 
#
# 1 106.4908 51.3590 29.3030 0.0000 0.0000 0.0000
# 2 51.3590 124.7063 56.0857 -0.0001 0.0000 0.0000
# 3 29.3030 56.0857 86.3303 -0.0002 0.0000 0.0000
# 4 0.0000 -0.0001 -0.0002 14.0490 0.0000 0.0000
# 5 0.0000 0.0000 0.0000 0.0000 24.2752 0.0000
# 6 0.0000 0.0000 0.0000 0.0000 0.0000 19.8920
#
#
#
# Elastic Compliance Matrix: (Units=1/GPa)
#
#
# Indices 1 2 3 4 5 6 
#
# 1 0.011805 -0.004323 -0.001199 0.000000 0.000000 0.000000
# 2 -0.004323 0.012912 -0.006921 0.000000 0.000000 0.000000
# 3 -0.001199 -0.006921 0.016487 0.000000 0.000000 0.000000
# 4 0.000000 0.000000 0.000000 0.071180 0.000000 0.000000
# 5 0.000000 0.000000 0.000000 0.000000 0.041194 0.000000
# 6 0.000000 0.000000 0.000000 0.000000 0.000000 0.050271
#
#
# Mechanical properties :
#
#
# Convention : Reuss Voigt Hill
#
# Bulk Modulus (GPa) = 61.27969 65.66920 63.47445
# Shear Modulus (GPa) = 21.35169 23.69522 22.52345
#
# Velocity S-wave (km/s) = 3.40664 3.58873 3.49887
# Velocity P-wave (km/s) = 6.98431 7.27082 7.12901
#
# Compressibility (1/GPa) = 0.01631862
#
# Stress axis : x y z
#
# Youngs Moduli (GPa) = 84.70908 77.44846 60.65509
#
# Poissons Ratio (x) = 0.33479 0.07271
# Poissons Ratio (y) = 0.36617 0.41980
# Poissons Ratio (z) = 0.10154 0.53603
#
# Static dielectric constant tensor:
#      x y z
#    x 3.458860 0.000000 0.000000 
#    y 0.000000 3.383530 0.000000 
#    z 0.000000 0.000000 3.278320 
# 
# 
# High freq. dielectric constant tensor:
#      x y z
#    x 1.729200 0.000000 0.000000 
#    y 0.000000 1.692880 0.000000 
#    z 0.000000 0.000000 1.702230 
# 
# From -- ./inp_files/50554.got.cif
#   From: 2010.06.25/outbox.cif.g09.slc.cpg/sg71_26_cif.got.tgz:50554.got - 2010.06.28 04:59:45.
