data_PCOD8290119
_publ_section_title
;
Structure prediction by ZEFSAII (Michael W. Deem and Ramdas Pophale) SiO2 
 PCOD8290119
Probable space group: I M M M
;
_chemical_formula_sum "Si O2"
_cell_formula_units_Z 96
_cell_length_a 24.086577
_cell_length_b 9.618947
_cell_length_c 21.453590
_cell_angle_alpha 90.000000
_cell_angle_beta 90.000000
_cell_angle_gamma 90.000000
_cell_volume 4970.528796
_symmetry_space_group_name_H-M "I M M M"
_symmetry_group_IT_number 71
_symmetry_cell_setting 'orthorhombic'
loop_
_space_group_symop_operation_xyz
x,y,z
-x,-y,z
x,-y,-z
-x,y,-z
-x,-y,-z
x,y,-z
-x,y,z
x,-y,z
1/2+x,1/2+y,1/2+z
1/2-x,1/2-y,1/2+z
1/2+x,1/2-y,1/2-z
1/2-x,1/2+y,1/2-z
1/2-x,1/2-y,1/2-z
1/2+x,1/2+y,1/2-z
1/2-x,1/2+y,1/2+z
1/2+x,1/2-y,1/2+z
loop_
_atom_site_type_symbol
_atom_site_label
_atom_site_fract_x
_atom_site_fract_y
_atom_site_fract_z
Si Si1 0.694626 0.341508 0.740798
Si Si2 0.902951 0.346329 0.572114
Si Si3 0.000000 0.835536 0.072567
Si Si4 0.684275 0.654968 0.121560
Si Si5 0.117182 0.163741 0.873194
Si Si6 0.000000 0.156192 0.425459
Si Si7 0.201533 0.346341 0.068958
O O1 0.712563 0.500000 0.723886
O O2 0.750000 0.250000 0.750000
O O3 0.663655 0.337992 0.807360
O O4 0.647216 0.287822 0.691836
O O5 0.915882 0.365257 0.500000
O O6 0.905390 0.500000 0.603542
O O7 0.843610 0.275720 0.581298
O O8 0.947490 0.240286 0.601445
O O9 0.053615 0.786764 0.113868
O O10 0.000000 0.000000 0.067486
O O11 0.000000 0.777869 0.000000
O O12 0.672098 0.500000 0.093860
O O13 0.750077 0.686207 0.118633
O O14 0.152841 0.234382 0.927410
O O15 0.120868 0.000000 0.880255
O O16 0.000000 0.148763 0.500000
O O17 0.000000 0.000000 0.397745
O O18 0.176847 0.500000 0.081964
O O19 0.227768 0.338401 0.000000
#
# Coordination Sequence:
#
# PCOD8290119 Si02
#       7
#    16  16   8  16  16   8  16
#     4  10  20  35  56  80 106 140 185 230 277 336
#     4  10  20  33  50  75 106 138 177 228 279 326
#     4   9  18  34  56  83 116 150 182 227 286 338
#     4  10  20  34  51  74 106 143 180 218 271 338
#     4  10  20  35  57  82 108 143 188 233 280 337
#     4   9  17  31  52  73  96 134 177 213 260 323
#     4  10  20  33  51  77 110 145 179 223 278 335
#
# _framework density 19.313839000000002
#
# number of rings (size 3 to 8) (size 9 to 14) (size 15 to 20)
#    0.000    2.167    1.667    1.750    0.000    5.000 
#    0.000    1.250    0.000    4.500    0.000    0.000 
#    0.000    0.000    0.000    0.000    0.000    0.000 
#
# Total GULP energy -594683.120417 kJ/mol
# GULP energy per Si atom -12389.231675 kJ/mol
# Density = 1.926988 g / cm^3
# Si number density = 19.313839 Si / 1000 Ang^3
#
#
#
# Elastic Constant Matrix: (Units=GPa)
#
#
# Indices 1 2 3 4 5 6 
#
# 1 128.4948 63.8561 44.3416 0.0000 0.0000 0.0000
# 2 63.8561 103.6779 18.1877 0.0000 0.0000 0.0000
# 3 44.3416 18.1877 71.5840 0.0000 0.0000 0.0000
# 4 0.0000 0.0000 0.0000 19.5117 0.0000 0.0000
# 5 0.0000 0.0000 0.0000 0.0000 28.6714 0.0000
# 6 0.0000 0.0000 0.0000 0.0000 0.0000 30.3129
#
#
#
# Elastic Compliance Matrix: (Units=1/GPa)
#
#
# Indices 1 2 3 4 5 6 
#
# 1 0.013678 -0.007262 -0.006628 0.000000 0.000000 0.000000
# 2 -0.007262 0.013951 0.000954 0.000000 0.000000 0.000000
# 3 -0.006628 0.000954 0.017833 0.000000 0.000000 0.000000
# 4 0.000000 0.000000 0.000000 0.051251 0.000000 0.000000
# 5 0.000000 0.000000 0.000000 0.000000 0.034878 0.000000
# 6 0.000000 0.000000 0.000000 0.000000 0.000000 0.032989
#
#
# Mechanical properties :
#
#
# Convention : Reuss Voigt Hill
#
# Bulk Modulus (GPa) = 51.04679 61.83640 56.44159
# Shear Modulus (GPa) = 25.38300 27.52396 26.45348
#
# Velocity S-wave (km/s) = 3.62918 3.77913 3.70491
# Velocity P-wave (km/s) = 6.63692 7.15043 6.89845
#
# Compressibility (1/GPa) = 0.01958987
#
# Stress axis : x y z
#
# Youngs Moduli (GPa) = 73.10767 71.68118 56.07665
#
# Poissons Ratio (x) = 0.52055 0.37166
# Poissons Ratio (y) = 0.53091 -0.05349
# Poissons Ratio (z) = 0.48454 -0.06837
#
# Static dielectric constant tensor:
#      x y z
#    x 3.538360 0.000000 0.000000 
#    y 0.000000 3.616710 0.000000 
#    z 0.000000 0.000000 3.447200 
# 
# 
# High freq. dielectric constant tensor:
#      x y z
#    x 1.741260 0.000000 0.000000 
#    y 0.000000 1.748700 0.000000 
#    z 0.000000 0.000000 1.731290 
# 
# From -- ./inp_files/61573.got.cif
#   From: 2010.06.25/outbox.cif.g09.slc.cpg/sg71_31_cif.got.tgz:61573.got - 2010.06.28 04:59:45.
