data_PCOD8290760
_publ_section_title
;
Structure prediction by ZEFSAII (Michael W. Deem and Ramdas Pophale) SiO2 
 PCOD8290760
Probable space group: I M M M
;
_chemical_formula_sum "Si O2"
_cell_formula_units_Z 80
_cell_length_a 8.766978
_cell_length_b 26.868375
_cell_length_c 17.329306
_cell_angle_alpha 90.000000
_cell_angle_beta 90.000000
_cell_angle_gamma 90.000000
_cell_volume 4081.995187
_symmetry_space_group_name_H-M "I M M M"
_symmetry_group_IT_number 71
_symmetry_cell_setting 'orthorhombic'
loop_
_space_group_symop_operation_xyz
x,y,z
-x,-y,z
x,-y,-z
-x,y,-z
-x,-y,-z
x,y,-z
-x,y,z
x,-y,z
1/2+x,1/2+y,1/2+z
1/2-x,1/2-y,1/2+z
1/2+x,1/2-y,1/2-z
1/2-x,1/2+y,1/2-z
1/2-x,1/2-y,1/2-z
1/2+x,1/2+y,1/2-z
1/2-x,1/2+y,1/2+z
1/2+x,1/2-y,1/2+z
loop_
_atom_site_type_symbol
_atom_site_label
_atom_site_fract_x
_atom_site_fract_y
_atom_site_fract_z
Si Si1 0.678193 0.818192 0.416037
Si Si2 0.317894 0.000000 0.587601
Si Si3 0.681668 0.943173 0.000000
Si Si4 0.677356 0.276243 0.323654
Si Si5 0.318688 0.907161 0.316217
Si Si6 0.319113 0.117395 0.148826
O O1 0.752824 0.827852 0.500000
O O2 0.500000 0.829748 0.420626
O O3 0.706481 0.761162 0.394251
O O4 0.748126 0.856073 0.352805
O O5 0.252996 0.047524 0.633501
O O6 0.500000 0.000000 0.586548
O O7 0.255102 0.000000 0.500000
O O8 0.742803 0.914133 0.924138
O O9 0.500000 0.944178 0.000000
O O10 0.744118 0.000000 0.000000
O O11 0.500000 0.285146 0.306998
O O12 0.750000 0.250000 0.250000
O O13 0.753747 0.327241 0.349868
O O14 0.500000 0.907909 0.318741
O O15 0.265973 0.910790 0.227063
O O16 0.500000 0.122114 0.144771
#
# Coordination Sequence:
#
# PCOD8290760 Si02
#       6
#    16   8   8  16  16  16
#     4   9  17  29  46  70 101 135 169 208 258 317
#     4   9  16  24  40  71 104 130 161 213 269 311
#     4   9  20  36  57  83 113 149 191 244 293 340
#     4  11  21  35  55  79 108 144 183 224 273 329
#     4   9  16  27  45  69 100 135 169 210 261 317
#     4  10  20  35  53  78 109 143 184 226 276 329
#
# _framework density 19.598258999999999
#
# number of rings (size 3 to 8) (size 9 to 14) (size 15 to 20)
#    0.000    2.400    2.000    1.200    2.800    2.400 
#    0.000    0.000    0.000    1.200    0.000    0.000 
#    0.000    0.800    0.000    0.000    0.000    0.000 
#
# Total GULP energy -495785.102186 kJ/mol
# GULP energy per Si atom -12394.627555 kJ/mol
# Density = 1.955365 g / cm^3
# Si number density = 19.598259 Si / 1000 Ang^3
#
#
#
# Elastic Constant Matrix: (Units=GPa)
#
#
# Indices 1 2 3 4 5 6 
#
# 1 19.5854 16.5289 19.3983 0.0000 0.0000 0.0000
# 2 16.5289 163.5388 94.6438 -0.0001 0.0000 0.0000
# 3 19.3983 94.6438 199.9438 -0.0007 -0.0001 0.0000
# 4 0.0000 -0.0001 -0.0007 35.9724 0.0000 0.0000
# 5 0.0000 0.0000 -0.0001 0.0000 10.5111 0.0000
# 6 0.0000 0.0000 0.0000 0.0000 0.0000 22.9034
#
#
#
# Elastic Compliance Matrix: (Units=1/GPa)
#
#
# Indices 1 2 3 4 5 6 
#
# 1 0.057975 -0.003587 -0.003927 0.000000 0.000000 0.000000
# 2 -0.003587 0.008644 -0.003744 0.000000 0.000000 0.000000
# 3 -0.003927 -0.003744 0.007154 0.000000 0.000000 0.000000
# 4 0.000000 0.000000 0.000000 0.027799 0.000000 0.000000
# 5 0.000000 0.000000 0.000000 0.000000 0.095137 0.000000
# 6 0.000000 0.000000 0.000000 0.000000 0.000000 0.043662
#
#
# Mechanical properties :
#
#
# Convention : Reuss Voigt Hill
#
# Bulk Modulus (GPa) = 19.50896 71.57890 45.54393
# Shear Modulus (GPa) = 17.85893 30.71051 24.28472
#
# Velocity S-wave (km/s) = 3.02197 3.96283 3.52394
# Velocity P-wave (km/s) = 4.70664 7.58558 6.31243
#
# Compressibility (1/GPa) = 0.05125849
#
# Stress axis : x y z
#
# Youngs Moduli (GPa) = 17.24883 115.69014 139.77440
#
# Poissons Ratio (x) = 0.41499 0.54886
# Poissons Ratio (y) = 0.06187 0.52325
# Poissons Ratio (z) = 0.06773 0.43309
#
# Static dielectric constant tensor:
#      x y z
#    x 2.956900 0.000000 0.000000 
#    y 0.000000 4.258490 0.000000 
#    z 0.000000 0.000000 3.999450 
# 
# 
# High freq. dielectric constant tensor:
#      x y z
#    x 1.691850 0.000000 0.000000 
#    y 0.000000 1.774830 0.000000 
#    z 0.000000 0.000000 1.782330 
# 
# From -- ./inp_files/14593.got.cif
#   From: 2010.06.25/outbox.cif.g09.slc.cpg/sg71_8_cif.got.tgz:14593.got - 2010.06.28 04:59:45.
