data_PCOD8290482
_publ_section_title
;
Structure prediction by ZEFSAII (Michael W. Deem and Ramdas Pophale) SiO2 
 PCOD8290482
Probable space group: I M M M
;
_chemical_formula_sum "Si O2"
_cell_formula_units_Z 64
_cell_length_a 17.919934
_cell_length_b 20.708282
_cell_length_c 9.094667
_cell_angle_alpha 90.000000
_cell_angle_beta 90.000000
_cell_angle_gamma 90.000000
_cell_volume 3374.949496
_symmetry_space_group_name_H-M "I M M M"
_symmetry_group_IT_number 71
_symmetry_cell_setting 'orthorhombic'
loop_
_space_group_symop_operation_xyz
x,y,z
-x,-y,z
x,-y,-z
-x,y,-z
-x,-y,-z
x,y,-z
-x,y,z
x,-y,z
1/2+x,1/2+y,1/2+z
1/2-x,1/2-y,1/2+z
1/2+x,1/2-y,1/2-z
1/2-x,1/2+y,1/2-z
1/2-x,1/2-y,1/2-z
1/2+x,1/2+y,1/2-z
1/2-x,1/2+y,1/2+z
1/2+x,1/2-y,1/2+z
loop_
_atom_site_type_symbol
_atom_site_label
_atom_site_fract_x
_atom_site_fract_y
_atom_site_fract_z
Si Si1 0.416011 0.624665 0.324875
Si Si2 0.671075 0.750168 0.673056
Si Si3 0.171427 0.000000 0.175052
Si Si4 0.840778 0.500000 0.674352
Si Si5 0.913056 0.380229 0.169618
O O1 0.418035 0.623554 0.500000
O O2 0.500000 0.622153 0.261956
O O3 0.376452 0.689556 0.267977
O O4 0.370456 0.563260 0.263574
O O5 0.683642 0.744796 0.500000
O O6 0.750000 0.750000 0.750000
O O7 0.627338 0.814607 0.716685
O O8 0.256033 0.000000 0.233862
O O9 0.170367 0.000000 0.000000
O O10 0.842808 0.500000 0.500000
O O11 0.882667 0.562936 0.730287
O O12 0.000000 0.370588 0.199731
O O13 0.897705 0.397505 0.000000
#
# Coordination Sequence:
#
# PCOD8290482 Si02
#       5
#    16  16   8   8  16
#     4   9  16  28  48  73 100 131 168 208 249 296
#     4  10  20  34  53  77 105 137 173 214 258 305
#     4   9  17  28  45  73 106 133 160 204 260 309
#     4  11  22  35  53  79 108 135 168 216 272 323
#     4  10  21  37  55  75 102 139 181 220 260 311
#
# _framework density 18.963246999999999
#
# number of rings (size 3 to 8) (size 9 to 14) (size 15 to 20)
#    0.000    2.250    0.000    3.375    0.000    9.500 
#    0.000    0.000    0.000    2.250    0.000    0.000 
#    0.000   10.000    0.000    0.000    0.000    0.000 
#
# Total GULP energy -396880.557007 kJ/mol
# GULP energy per Si atom -12402.517406 kJ/mol
# Density = 1.892009 g / cm^3
# Si number density = 18.963247 Si / 1000 Ang^3
#
#
#
# Elastic Constant Matrix: (Units=GPa)
#
#
# Indices 1 2 3 4 5 6 
#
# 1 171.3492 90.2286 41.0979 0.0000 0.0000 0.0000
# 2 90.2286 186.6134 43.9396 0.0000 0.0000 0.0000
# 3 41.0979 43.9396 32.1917 0.0000 0.0000 0.0000
# 4 0.0000 0.0000 0.0000 -25.3546 0.0000 0.0000
# 5 0.0000 0.0000 0.0000 0.0000 28.8844 0.0000
# 6 0.0000 0.0000 0.0000 0.0000 0.0000 41.9355
#
#
#
# Elastic Compliance Matrix: (Units=1/GPa)
#
#
# Indices 1 2 3 4 5 6 
#
# 1 0.009117 -0.002457 -0.008286 0.000000 0.000000 0.000000
# 2 -0.002457 0.008559 -0.008545 0.000000 0.000000 0.000000
# 3 -0.008286 -0.008545 0.053305 0.000000 0.000000 0.000000
# 4 0.000000 0.000000 0.000000 -0.039441 0.000000 0.000000
# 5 0.000000 0.000000 0.000000 0.000000 0.034621 0.000000
# 6 0.000000 0.000000 0.000000 0.000000 0.000000 0.023846
#
#
# Mechanical properties :
#
#
# Convention : Reuss Voigt Hill
#
# Bulk Modulus (GPa) = 30.85906 82.29848 56.57877
# Shear Modulus (GPa) = 35.87182 23.41894 29.64538
#
# Velocity S-wave (km/s) = 4.35403 3.51802 3.95816
# Velocity P-wave (km/s) = 6.44866 7.74565 7.12672
#
# Compressibility (1/GPa) = 0.03240539
#
# Stress axis : x y z
#
# Youngs Moduli (GPa) = 109.68145 116.83864 18.75993
#
# Poissons Ratio (x) = 0.28712 0.15544
# Poissons Ratio (y) = 0.26953 0.16030
# Poissons Ratio (z) = 0.90877 0.99839
#
# Static dielectric constant tensor:
#      x y z
#    x 3.694190 0.000000 0.000000 
#    y 0.000000 3.733320 0.000000 
#    z 0.000000 0.000000 3.041610 
# 
# 
# High freq. dielectric constant tensor:
#      x y z
#    x 1.757660 0.000000 0.000000 
#    y 0.000000 1.758400 0.000000 
#    z 0.000000 0.000000 1.687590 
# 
# From -- ./inp_files/7511.got.cif
#   From: 2010.06.25/outbox.cif.g09.slc.cpg/sg71_4_cif.got.tgz:7511.got - 2010.06.28 04:59:45.
