data_PCOD8290919
_publ_section_title
;
Structure prediction by ZEFSAII (Michael W. Deem and Ramdas Pophale) SiO2 
 PCOD8290919
Probable space group: I M M M
;
_chemical_formula_sum "Si O2"
_cell_formula_units_Z 104
_cell_length_a 29.135660
_cell_length_b 21.081157
_cell_length_c 8.689489
_cell_angle_alpha 90.000000
_cell_angle_beta 90.000000
_cell_angle_gamma 90.000000
_cell_volume 5337.200781
_symmetry_space_group_name_H-M "I M M M"
_symmetry_group_IT_number 71
_symmetry_cell_setting 'orthorhombic'
loop_
_space_group_symop_operation_xyz
x,y,z
-x,-y,z
x,-y,-z
-x,y,-z
-x,-y,-z
x,y,-z
-x,y,z
x,-y,z
1/2+x,1/2+y,1/2+z
1/2-x,1/2-y,1/2+z
1/2+x,1/2-y,1/2-z
1/2-x,1/2+y,1/2-z
1/2-x,1/2-y,1/2-z
1/2+x,1/2+y,1/2-z
1/2-x,1/2+y,1/2+z
1/2+x,1/2-y,1/2+z
loop_
_atom_site_type_symbol
_atom_site_label
_atom_site_fract_x
_atom_site_fract_y
_atom_site_fract_z
Si Si1 0.392625 0.880893 0.181680
Si Si2 0.446519 0.000000 0.317665
Si Si3 0.552779 0.758624 0.174722
Si Si4 0.859347 0.930609 0.816812
Si Si5 0.550046 0.628272 0.319168
Si Si6 0.207797 0.822237 0.818151
Si Si7 0.305946 0.179490 0.319877
O O1 0.418106 0.939440 0.260399
O O2 0.419030 0.818196 0.235517
O O3 0.340198 0.869356 0.234697
O O4 0.394071 0.892118 0.000000
O O5 0.500000 0.000000 0.257780
O O6 0.446734 0.000000 0.500000
O O7 0.500000 0.777773 0.189201
O O8 0.565391 0.699696 0.282028
O O9 0.565854 0.741183 0.000000
O O10 0.911158 0.918995 0.754628
O O11 0.826226 0.876084 0.753834
O O12 0.843162 0.000000 0.759285
O O13 0.859561 0.927195 0.000000
O O14 0.546110 0.621168 0.500000
O O15 0.500000 0.613041 0.243907
O O16 0.254661 0.837012 0.730672
O O17 0.185964 0.753680 0.775533
O O18 0.216828 0.826535 0.000000
O O19 0.311799 0.168282 0.500000
#
# Coordination Sequence:
#
# PCOD8290919 Si02
#       7
#    16   8  16  16  16  16  16
#     4  11  22  37  58  83 110 145 186 227 275 336
#     4  11  25  43  61  83 115 153 191 233 282 337
#     4   9  18  32  51  76 105 137 174 217 263 310
#     4   9  17  30  49  74 104 139 177 218 263 314
#     4   9  17  29  48  76 107 138 175 219 265 314
#     4   9  18  34  55  79 107 142 185 230 280 339
#     4  10  20  35  57  82 109 139 176 231 289 336
#
# _framework density 19.485869999999998
#
# number of rings (size 3 to 8) (size 9 to 14) (size 15 to 20)
#    0.000    2.385    0.000    2.538    0.000    4.615 
#    1.385    3.846    0.000    1.385    0.000    2.154 
#    0.000    0.000    0.000    0.000    0.000    0.000 
#
# Total GULP energy -644592.130220 kJ/mol
# GULP energy per Si atom -12396.002504 kJ/mol
# Density = 1.944152 g / cm^3
# Si number density = 19.485870 Si / 1000 Ang^3
#
#
#
# Elastic Constant Matrix: (Units=GPa)
#
#
# Indices 1 2 3 4 5 6 
#
# 1 120.1020 82.0261 26.7998 0.0000 0.0000 0.0000
# 2 82.0261 116.2064 19.2969 0.0000 0.0000 0.0000
# 3 26.7998 19.2969 34.9898 0.0000 0.0000 0.0000
# 4 0.0000 0.0000 0.0000 18.8211 0.0000 0.0000
# 5 0.0000 0.0000 0.0000 0.0000 24.7569 0.0000
# 6 0.0000 0.0000 0.0000 0.0000 0.0000 28.7935
#
#
#
# Elastic Compliance Matrix: (Units=1/GPa)
#
#
# Indices 1 2 3 4 5 6 
#
# 1 0.017625 -0.011227 -0.007308 0.000000 0.000000 0.000000
# 2 -0.011227 0.016625 -0.000569 0.000000 0.000000 0.000000
# 3 -0.007308 -0.000569 0.034491 0.000000 0.000000 0.000000
# 4 0.000000 0.000000 0.000000 0.053132 0.000000 0.000000
# 5 0.000000 0.000000 0.000000 0.000000 0.040393 0.000000
# 6 0.000000 0.000000 0.000000 0.000000 0.000000 0.034730
#
#
# Mechanical properties :
#
#
# Convention : Reuss Voigt Hill
#
# Bulk Modulus (GPa) = 32.75230 58.61599 45.68415
# Shear Modulus (GPa) = 20.37649 24.01931 22.19790
#
# Velocity S-wave (km/s) = 3.23725 3.51472 3.37883
# Velocity P-wave (km/s) = 5.55137 6.82771 6.22235
#
# Compressibility (1/GPa) = 0.03053220
#
# Stress axis : x y z
#
# Youngs Moduli (GPa) = 56.73834 60.15089 28.99328
#
# Poissons Ratio (x) = 0.67533 0.21187
# Poissons Ratio (y) = 0.63702 0.01651
# Poissons Ratio (z) = 0.41462 0.03424
#
# Static dielectric constant tensor:
#      x y z
#    x 3.774160 0.000000 0.000000 
#    y 0.000000 3.646240 0.000000 
#    z 0.000000 0.000000 3.314390 
# 
# 
# High freq. dielectric constant tensor:
#      x y z
#    x 1.770170 0.000000 0.000000 
#    y 0.000000 1.752870 0.000000 
#    z 0.000000 0.000000 1.736640 
# 
# From -- ./inp_files/16984.got.cif
#   From: 2010.06.25/outbox.cif.g09.slc.cpg/sg71_9_cif.got.tgz:16984.got - 2010.06.28 04:59:45.
