data_PCOD8290077
_publ_section_title
;
Structure prediction by ZEFSAII (Michael W. Deem and Ramdas Pophale) SiO2 
 PCOD8290077
Probable space group: I M M M
;
_chemical_formula_sum "Si O2"
_cell_formula_units_Z 88
_cell_length_a 31.855017
_cell_length_b 9.361145
_cell_length_c 17.207391
_cell_angle_alpha 90.000000
_cell_angle_beta 90.000000
_cell_angle_gamma 90.000000
_cell_volume 5131.234242
_symmetry_space_group_name_H-M "I M M M"
_symmetry_group_IT_number 71
_symmetry_cell_setting 'orthorhombic'
loop_
_space_group_symop_operation_xyz
x,y,z
-x,-y,z
x,-y,-z
-x,y,-z
-x,-y,-z
x,y,-z
-x,y,z
x,-y,z
1/2+x,1/2+y,1/2+z
1/2-x,1/2-y,1/2+z
1/2+x,1/2-y,1/2-z
1/2-x,1/2+y,1/2-z
1/2-x,1/2-y,1/2-z
1/2+x,1/2+y,1/2-z
1/2-x,1/2+y,1/2+z
1/2+x,1/2-y,1/2+z
loop_
_atom_site_type_symbol
_atom_site_label
_atom_site_fract_x
_atom_site_fract_y
_atom_site_fract_z
Si Si1 0.696554 0.655912 0.189788
Si Si2 0.891119 0.169636 0.243131
Si Si3 0.450386 0.834603 0.150707
Si Si4 0.234041 0.156803 0.140740
Si Si5 0.647434 0.330631 0.585194
Si Si6 0.450165 0.337433 0.000000
O O1 0.693475 0.500000 0.151023
O O2 0.649633 0.713318 0.206067
O O3 0.722777 0.754988 0.130655
O O4 0.721668 0.644107 0.269676
O O5 0.930214 0.260734 0.273771
O O6 0.883904 0.219771 0.153439
O O7 0.900206 0.000000 0.248396
O O8 0.500000 0.821553 0.160143
O O9 0.436778 0.000000 0.143475
O O10 0.434104 0.748129 0.075395
O O11 0.194777 0.231101 0.095930
O O12 0.243367 0.000000 0.106321
O O13 0.629996 0.285349 0.500000
O O14 0.652034 0.500000 0.593536
O O15 0.432313 0.500000 0.000000
O O16 0.500000 0.341294 0.000000
#
# Coordination Sequence:
#
# PCOD8290077 Si02
#       6
#    16  16  16  16  16   8
#     4   8  14  24  38  59  86 112 143 186 231 275
#     4   9  17  29  47  70  93 123 163 201 240 287
#     4  10  20  33  50  73 100 126 153 190 235 282
#     4   8  13  22  39  61  82 110 148 186 230 282
#     4   8  14  26  45  68  93 121 159 209 252 281
#     4   9  17  31  53  77  97 119 147 179 221 277
#
# _framework density 17.14987
#
# number of rings (size 3 to 8) (size 9 to 14) (size 15 to 20)
#    0.000    3.364    0.000    3.000    0.000    2.909 
#    0.000    2.727    2.000    2.727    0.000    3.818 
#    0.000    0.000    0.000    0.000    0.000    0.000 
#
# Total GULP energy -545171.344487 kJ/mol
# GULP energy per Si atom -12390.257829 kJ/mol
# Density = 1.711084 g / cm^3
# Si number density = 17.149870 Si / 1000 Ang^3
#
#
#
# Elastic Constant Matrix: (Units=GPa)
#
#
# Indices 1 2 3 4 5 6 
#
# 1 49.4870 36.4101 38.6791 0.0000 0.0000 0.0000
# 2 36.4101 83.1534 44.5178 0.0000 0.0000 0.0000
# 3 38.6791 44.5178 101.8728 0.0000 0.0000 0.0000
# 4 0.0000 0.0000 0.0000 15.2323 0.0000 0.0000
# 5 0.0000 0.0000 0.0000 0.0000 19.8739 0.0000
# 6 0.0000 0.0000 0.0000 0.0000 0.0000 27.8669
#
#
#
# Elastic Compliance Matrix: (Units=1/GPa)
#
#
# Indices 1 2 3 4 5 6 
#
# 1 0.034689 -0.010623 -0.008528 0.000000 0.000000 0.000000
# 2 -0.010623 0.018952 -0.004248 0.000000 0.000000 0.000000
# 3 -0.008528 -0.004248 0.014911 0.000000 0.000000 0.000000
# 4 0.000000 0.000000 0.000000 0.065650 0.000000 0.000000
# 5 0.000000 0.000000 0.000000 0.000000 0.050317 0.000000
# 6 0.000000 0.000000 0.000000 0.000000 0.000000 0.035885
#
#
# Mechanical properties :
#
#
# Convention : Reuss Voigt Hill
#
# Bulk Modulus (GPa) = 45.97372 52.63634 49.30503
# Shear Modulus (GPa) = 18.21788 20.25503 19.23646
#
# Velocity S-wave (km/s) = 3.26279 3.44038 3.35276
# Velocity P-wave (km/s) = 6.40778 6.82204 6.61815
#
# Compressibility (1/GPa) = 0.02175156
#
# Stress axis : x y z
#
# Youngs Moduli (GPa) = 28.82729 52.76468 67.06544
#
# Poissons Ratio (x) = 0.56054 0.57197
# Poissons Ratio (y) = 0.30624 0.28492
# Poissons Ratio (z) = 0.24585 0.22417
#
# Static dielectric constant tensor:
#      x y z
#    x 3.013810 0.000000 0.000000 
#    y 0.000000 3.313170 0.000000 
#    z 0.000000 0.000000 3.098230 
# 
# 
# High freq. dielectric constant tensor:
#      x y z
#    x 1.638160 0.000000 0.000000 
#    y 0.000000 1.644490 0.000000 
#    z 0.000000 0.000000 1.639530 
# 
# From -- ./inp_files/49244.got.cif
#   From: 2010.06.25/outbox.cif.g09.slc.cpg/sg71_25_cif.got.tgz:49244.got - 2010.06.28 04:59:45.
