data_PCOD8290405
_publ_section_title
;
Structure prediction by ZEFSAII (Michael W. Deem and Ramdas Pophale) SiO2 
 PCOD8290405
Probable space group: I M M M
;
_chemical_formula_sum "Si O2"
_cell_formula_units_Z 88
_cell_length_a 8.564253
_cell_length_b 19.358696
_cell_length_c 27.823376
_cell_angle_alpha 90.000000
_cell_angle_beta 90.000000
_cell_angle_gamma 90.000000
_cell_volume 4612.914586
_symmetry_space_group_name_H-M "I M M M"
_symmetry_group_IT_number 71
_symmetry_cell_setting 'orthorhombic'
loop_
_space_group_symop_operation_xyz
x,y,z
-x,-y,z
x,-y,-z
-x,y,-z
-x,-y,-z
x,y,-z
-x,y,z
x,-y,z
1/2+x,1/2+y,1/2+z
1/2-x,1/2-y,1/2+z
1/2+x,1/2-y,1/2-z
1/2-x,1/2+y,1/2-z
1/2-x,1/2-y,1/2-z
1/2+x,1/2+y,1/2-z
1/2-x,1/2+y,1/2+z
1/2+x,1/2-y,1/2+z
loop_
_atom_site_type_symbol
_atom_site_label
_atom_site_fract_x
_atom_site_fract_y
_atom_site_fract_z
Si Si1 0.315292 0.422594 0.739495
Si Si2 0.170729 0.421090 0.000000
Si Si3 0.817748 0.204526 0.947274
Si Si4 0.818315 0.323302 0.819526
Si Si5 0.819191 0.155133 0.581961
Si Si6 0.684411 0.328968 0.656087
O O1 0.500000 0.428217 0.738336
O O2 0.244478 0.500000 0.747038
O O3 0.270363 0.368852 0.780534
O O4 0.251481 0.391922 0.688576
O O5 0.274283 0.405864 0.953470
O O6 0.132756 0.500000 0.000000
O O7 0.000000 0.382295 0.000000
O O8 0.718770 0.274085 0.945686
O O9 0.767191 0.159129 0.900291
O O10 0.000000 0.223037 0.942251
O O11 0.785989 0.168875 0.000000
O O12 0.785947 0.356617 0.871129
O O13 0.752547 0.244286 0.822518
O O14 0.000000 0.325425 0.807112
O O15 0.000000 0.152232 0.596270
O O16 0.500000 0.325654 0.660121
#
# Coordination Sequence:
#
# PCOD8290405 Si02
#       6
#    16   8  16  16  16  16
#     4  10  20  34  52  74 104 138 172 216 268 317
#     4  11  23  37  51  67  95 137 176 207 246 299
#     4   9  16  29  52  76 102 133 167 208 252 301
#     4  10  20  35  55  75  99 133 175 219 258 307
#     4  11  21  33  51  75 102 128 163 212 259 302
#     4   8  16  31  51  77 103 134 174 213 260 310
#
# _framework density 19.076875000000001
#
# number of rings (size 3 to 8) (size 9 to 14) (size 15 to 20)
#    0.000    2.273    0.909    4.091    0.000    1.818 
#    0.000    3.636    0.000    0.545    0.000    3.818 
#    0.000    0.000    0.000    8.182    0.000    9.091 
#
# Total GULP energy -545170.159085 kJ/mol
# GULP energy per Si atom -12390.230888 kJ/mol
# Density = 1.903346 g / cm^3
# Si number density = 19.076875 Si / 1000 Ang^3
#
#
#
# Elastic Constant Matrix: (Units=GPa)
#
#
# Indices 1 2 3 4 5 6 
#
# 1 33.2888 14.1298 2.0219 0.0000 0.0000 0.0000
# 2 14.1298 73.0944 59.0361 0.0000 0.0000 0.0000
# 3 2.0219 59.0361 150.0158 0.0000 0.0000 0.0000
# 4 0.0000 0.0000 0.0000 17.5700 0.0000 0.0000
# 5 0.0000 0.0000 0.0000 0.0000 23.2355 0.0000
# 6 0.0000 0.0000 0.0000 0.0000 0.0000 12.9989
#
#
#
# Elastic Compliance Matrix: (Units=1/GPa)
#
#
# Indices 1 2 3 4 5 6 
#
# 1 0.033675 -0.009005 0.003090 0.000000 0.000000 0.000000
# 2 -0.009005 0.022464 -0.008719 0.000000 0.000000 0.000000
# 3 0.003090 -0.008719 0.010055 0.000000 0.000000 0.000000
# 4 0.000000 0.000000 0.000000 0.056915 0.000000 0.000000
# 5 0.000000 0.000000 0.000000 0.000000 0.043038 0.000000
# 6 0.000000 0.000000 0.000000 0.000000 0.000000 0.076930
#
#
# Mechanical properties :
#
#
# Convention : Reuss Voigt Hill
#
# Bulk Modulus (GPa) = 27.08139 45.19717 36.13928
# Shear Modulus (GPa) = 17.56523 22.84163 20.20343
#
# Velocity S-wave (km/s) = 3.03769 3.46402 3.25784
# Velocity P-wave (km/s) = 5.15075 6.30419 5.75643
#
# Compressibility (1/GPa) = 0.03692572
#
# Stress axis : x y z
#
# Youngs Moduli (GPa) = 29.69572 44.51633 99.44845
#
# Poissons Ratio (x) = 0.40089 -0.30730
# Poissons Ratio (y) = 0.26742 0.86707
# Poissons Ratio (z) = -0.09176 0.38813
#
# Static dielectric constant tensor:
#      x y z
#    x 3.303090 0.000000 0.000000 
#    y 0.000000 3.464920 0.000000 
#    z 0.000000 0.000000 3.956320 
# 
# 
# High freq. dielectric constant tensor:
#      x y z
#    x 1.721720 0.000000 0.000000 
#    y 0.000000 1.701060 0.000000 
#    z 0.000000 0.000000 1.760910 
# 
# From -- ./inp_files/68010.got.cif
#   From: 2010.06.25/outbox.cif.g09.slc.cpg/sg71_35_cif.got.tgz:68010.got - 2010.06.28 04:59:45.
