data_PCOD8290183
_publ_section_title
;
Structure prediction by ZEFSAII (Michael W. Deem and Ramdas Pophale) SiO2 
 PCOD8290183
Probable space group: I M M M
;
_chemical_formula_sum "Si O2"
_cell_formula_units_Z 104
_cell_length_a 27.288965
_cell_length_b 22.570822
_cell_length_c 9.277175
_cell_angle_alpha 90.000000
_cell_angle_beta 90.000000
_cell_angle_gamma 90.000000
_cell_volume 5714.130954
_symmetry_space_group_name_H-M "I M M M"
_symmetry_group_IT_number 71
_symmetry_cell_setting 'orthorhombic'
loop_
_space_group_symop_operation_xyz
x,y,z
-x,-y,z
x,-y,-z
-x,y,-z
-x,-y,-z
x,y,-z
-x,y,z
x,-y,z
1/2+x,1/2+y,1/2+z
1/2-x,1/2-y,1/2+z
1/2+x,1/2-y,1/2-z
1/2-x,1/2+y,1/2-z
1/2-x,1/2-y,1/2-z
1/2+x,1/2+y,1/2-z
1/2-x,1/2+y,1/2+z
1/2+x,1/2-y,1/2+z
loop_
_atom_site_type_symbol
_atom_site_label
_atom_site_fract_x
_atom_site_fract_y
_atom_site_fract_z
Si Si1 0.000000 0.570627 0.338082
Si Si2 0.907452 0.429864 0.163313
Si Si3 0.299902 0.258348 0.835885
Si Si4 0.857245 0.125780 0.670855
Si Si5 0.775447 0.933268 0.836716
Si Si6 0.056505 0.068165 0.831876
Si Si7 0.323675 0.871954 0.837306
O O1 0.952367 0.595328 0.256811
O O2 0.000000 0.500000 0.337017
O O3 0.000000 0.595721 0.500000
O O4 0.904939 0.500000 0.173021
O O5 0.857481 0.404177 0.223345
O O6 0.914840 0.408562 0.000000
O O7 0.250000 0.250000 0.750000
O O8 0.335139 0.310766 0.777980
O O9 0.331287 0.198259 0.824127
O O10 0.284759 0.271866 0.000000
O O11 0.862722 0.121918 0.500000
O O12 0.820158 0.075740 0.727538
O O13 0.910254 0.113648 0.740813
O O14 0.732070 0.888154 0.797152
O O15 0.755628 0.000000 0.819141
O O16 0.793955 0.921950 0.000000
O O17 0.000000 0.082596 0.796080
O O18 0.068299 0.000000 0.789974
O O19 0.067162 0.078067 0.000000
O O20 0.335624 0.893972 0.000000
#
# Coordination Sequence:
#
# PCOD8290183 Si02
#       7
#     8  16  16  16  16  16  16
#     4   9  17  31  53  77 101 135 175 209 248 309
#     4  10  20  33  51  78 110 138 167 214 272 319
#     4  10  21  37  56  77 103 139 184 224 260 307
#     4  11  22  34  53  82 112 141 176 221 274 326
#     4  10  20  33  51  76 106 142 181 217 256 311
#     4   9  19  37  60  84 110 143 184 226 269 325
#     4  10  20  35  54  74 100 139 184 222 259 311
#
# _framework density 18.200493000000002
#
# number of rings (size 3 to 8) (size 9 to 14) (size 15 to 20)
#    0.000    2.077    1.538    2.538    0.000    7.077 
#    0.000    0.769    1.692    0.000    0.000    0.000 
#    0.000    0.000    0.000    0.000    0.000    0.000 
#
# Total GULP energy -644861.893520 kJ/mol
# GULP energy per Si atom -12401.190260 kJ/mol
# Density = 1.815907 g / cm^3
# Si number density = 18.200493 Si / 1000 Ang^3
#
#
#
# Elastic Constant Matrix: (Units=GPa)
#
#
# Indices 1 2 3 4 5 6 
#
# 1 115.8392 39.0082 68.2066 0.0000 0.0000 0.0000
# 2 39.0082 60.7850 36.5859 0.0000 0.0000 0.0000
# 3 68.2066 36.5859 109.1631 0.0000 0.0000 0.0000
# 4 0.0000 0.0000 0.0000 24.5436 0.0000 0.0000
# 5 0.0000 0.0000 0.0000 0.0000 36.4145 0.0000
# 6 0.0000 0.0000 0.0000 0.0000 0.0000 23.7439
#
#
#
# Elastic Compliance Matrix: (Units=1/GPa)
#
#
# Indices 1 2 3 4 5 6 
#
# 1 0.014739 -0.004905 -0.007565 0.000000 0.000000 0.000000
# 2 -0.004905 0.022241 -0.004389 0.000000 0.000000 0.000000
# 3 -0.007565 -0.004389 0.015358 0.000000 0.000000 0.000000
# 4 0.000000 0.000000 0.000000 0.040744 0.000000 0.000000
# 5 0.000000 0.000000 0.000000 0.000000 0.027462 0.000000
# 6 0.000000 0.000000 0.000000 0.000000 0.000000 0.042116
#
#
# Mechanical properties :
#
#
# Convention : Reuss Voigt Hill
#
# Bulk Modulus (GPa) = 53.70748 63.70985 58.70867
# Shear Modulus (GPa) = 24.68097 26.40617 25.54357
#
# Velocity S-wave (km/s) = 3.68647 3.81313 3.75034
# Velocity P-wave (km/s) = 6.90601 7.38018 7.14703
#
# Compressibility (1/GPa) = 0.01861938
#
# Stress axis : x y z
#
# Youngs Moduli (GPa) = 67.84830 44.96173 65.11089
#
# Poissons Ratio (x) = 0.22054 0.49257
# Poissons Ratio (y) = 0.33281 0.28579
# Poissons Ratio (z) = 0.51327 0.19735
#
# Static dielectric constant tensor:
#      x y z
#    x 3.285890 0.000000 0.000000 
#    y 0.000000 3.299340 0.000000 
#    z 0.000000 0.000000 3.403180 
# 
# 
# High freq. dielectric constant tensor:
#      x y z
#    x 1.701690 0.000000 0.000000 
#    y 0.000000 1.688520 0.000000 
#    z 0.000000 0.000000 1.708670 
# 
# From -- ./inp_files/15294.got.cif
#   From: 2010.06.25/outbox.cif.g09.slc.cpg/sg71_8_cif.got.tgz:15294.got - 2010.06.28 04:59:45.
