data_PCOD8290246
_publ_section_title
;
Structure prediction by ZEFSAII (Michael W. Deem and Ramdas Pophale) SiO2 
 PCOD8290246
Probable space group: I M M M
;
_chemical_formula_sum "Si O2"
_cell_formula_units_Z 80
_cell_length_a 13.258972
_cell_length_b 10.447811
_cell_length_c 31.620076
_cell_angle_alpha 90.000000
_cell_angle_beta 90.000000
_cell_angle_gamma 90.000000
_cell_volume 4380.241652
_symmetry_space_group_name_H-M "I M M M"
_symmetry_group_IT_number 71
_symmetry_cell_setting 'orthorhombic'
loop_
_space_group_symop_operation_xyz
x,y,z
-x,-y,z
x,-y,-z
-x,y,-z
-x,-y,-z
x,y,-z
-x,y,z
x,-y,z
1/2+x,1/2+y,1/2+z
1/2-x,1/2-y,1/2+z
1/2+x,1/2-y,1/2-z
1/2-x,1/2+y,1/2-z
1/2-x,1/2-y,1/2-z
1/2+x,1/2+y,1/2-z
1/2-x,1/2+y,1/2+z
1/2+x,1/2-y,1/2+z
loop_
_atom_site_type_symbol
_atom_site_label
_atom_site_fract_x
_atom_site_fract_y
_atom_site_fract_z
Si Si1 0.812181 0.144914 0.887447
Si Si2 0.380881 0.857242 0.452191
Si Si3 0.888945 0.357415 0.343868
Si Si4 0.883945 0.763483 0.798606
Si Si5 0.816674 0.862644 0.713922
O O1 0.837189 0.246465 0.923218
O O2 0.692635 0.162161 0.880504
O O3 0.873457 0.172004 0.844537
O O4 0.837816 0.000000 0.902412
O O5 0.343082 0.833897 0.500000
O O6 0.500000 0.849129 0.450155
O O7 0.346523 0.000000 0.437080
O O8 0.876525 0.500000 0.324019
O O9 0.875517 0.254366 0.307032
O O10 0.000000 0.340617 0.363942
O O11 0.848886 0.865293 0.763142
O O12 0.804533 0.646981 0.793192
O O13 0.000000 0.718002 0.792649
O O14 0.849174 0.000000 0.694632
#
# Coordination Sequence:
#
# PCOD8290246 Si02
#       5
#    16  16  16  16  16
#     4  10  20  33  52  78 102 127 166 211 250 293
#     4   9  19  36  55  75 103 136 163 193 244 306
#     4   9  19  36  54  72 101 139 172 206 252 299
#     4  10  21  34  48  70 104 139 166 204 259 304
#     4  10  21  35  51  73  99 132 178 220 249 287
#
# _framework density 18.263831
#
# number of rings (size 3 to 8) (size 9 to 14) (size 15 to 20)
#    0.000    2.400    0.000    2.400    0.000   12.800 
#    0.000    1.000    0.000    0.600    0.000    4.200 
#    0.000    0.000    0.000    0.000    0.000    0.000 
#
# Total GULP energy -495632.417354 kJ/mol
# GULP energy per Si atom -12390.810434 kJ/mol
# Density = 1.822226 g / cm^3
# Si number density = 18.263831 Si / 1000 Ang^3
#
#
#
# Elastic Constant Matrix: (Units=GPa)
#
#
# Indices 1 2 3 4 5 6 
#
# 1 109.1060 37.7206 37.9183 0.0000 0.0000 0.0000
# 2 37.7206 162.1387 79.6140 0.0000 0.0000 0.0000
# 3 37.9183 79.6140 99.2522 0.0000 0.0000 0.0000
# 4 0.0000 0.0000 0.0000 11.4209 0.0000 0.0000
# 5 0.0000 0.0000 0.0000 0.0000 17.9757 0.0000
# 6 0.0000 0.0000 0.0000 0.0000 0.0000 13.9835
#
#
#
# Elastic Compliance Matrix: (Units=1/GPa)
#
#
# Indices 1 2 3 4 5 6 
#
# 1 0.010630 -0.000790 -0.003427 0.000000 0.000000 0.000000
# 2 -0.000790 0.010234 -0.007907 0.000000 0.000000 0.000000
# 3 -0.003427 -0.007907 0.017727 0.000000 0.000000 0.000000
# 4 0.000000 0.000000 0.000000 0.087559 0.000000 0.000000
# 5 0.000000 0.000000 0.000000 0.000000 0.055631 0.000000
# 6 0.000000 0.000000 0.000000 0.000000 0.000000 0.071513
#
#
# Mechanical properties :
#
#
# Convention : Reuss Voigt Hill
#
# Bulk Modulus (GPa) = 69.72545 75.66699 72.69622
# Shear Modulus (GPa) = 17.71020 23.02561 20.36790
#
# Velocity S-wave (km/s) = 3.11736 3.55452 3.34309
# Velocity P-wave (km/s) = 7.15660 7.63977 7.40213
#
# Compressibility (1/GPa) = 0.01434197
#
# Stress axis : x y z
#
# Youngs Moduli (GPa) = 94.07673 97.71324 56.40987
#
# Poissons Ratio (x) = 0.07720 0.19333
# Poissons Ratio (y) = 0.07433 0.44605
# Poissons Ratio (z) = 0.32242 0.77264
#
# Static dielectric constant tensor:
#      x y z
#    x 3.523450 0.000000 0.000000 
#    y 0.000000 3.486860 0.000000 
#    z 0.000000 0.000000 3.168450 
# 
# 
# High freq. dielectric constant tensor:
#      x y z
#    x 1.708300 0.000000 0.000000 
#    y 0.000000 1.715780 0.000000 
#    z 0.000000 0.000000 1.673600 
# 
# From -- ./inp_files/65265.got.cif
#   From: 2010.06.25/outbox.cif.g09.slc.cpg/sg71_33_cif.got.tgz:65265.got - 2010.06.28 04:59:45.
