data_PCOD8290526
_publ_section_title
;
Structure prediction by ZEFSAII (Michael W. Deem and Ramdas Pophale) SiO2 
 PCOD8290526
Probable space group: I M M M
;
_chemical_formula_sum "Si O2"
_cell_formula_units_Z 104
_cell_length_a 21.847096
_cell_length_b 26.023769
_cell_length_c 9.075880
_cell_angle_alpha 90.000000
_cell_angle_beta 90.000000
_cell_angle_gamma 90.000000
_cell_volume 5160.035119
_symmetry_space_group_name_H-M "I M M M"
_symmetry_group_IT_number 71
_symmetry_cell_setting 'orthorhombic'
loop_
_space_group_symop_operation_xyz
x,y,z
-x,-y,z
x,-y,-z
-x,y,-z
-x,-y,-z
x,y,-z
-x,y,z
x,-y,z
1/2+x,1/2+y,1/2+z
1/2-x,1/2-y,1/2+z
1/2+x,1/2-y,1/2-z
1/2-x,1/2+y,1/2-z
1/2-x,1/2-y,1/2-z
1/2+x,1/2+y,1/2-z
1/2-x,1/2+y,1/2+z
1/2+x,1/2-y,1/2+z
loop_
_atom_site_type_symbol
_atom_site_label
_atom_site_fract_x
_atom_site_fract_y
_atom_site_fract_z
Si Si1 0.827638 0.057583 0.833319
Si Si2 0.568045 0.206876 0.670477
Si Si3 0.431138 0.367745 0.334078
Si Si4 0.380303 0.898325 0.329168
Si Si5 0.249383 0.139153 0.326626
Si Si6 0.146591 0.786880 0.326582
Si Si7 0.071248 0.500000 0.325089
O O1 0.896616 0.078192 0.825099
O O2 0.784546 0.088599 0.725861
O O3 0.827838 0.000000 0.774822
O O4 0.802239 0.061636 0.000000
O O5 0.578385 0.219602 0.500000
O O6 0.500000 0.226071 0.721068
O O7 0.568307 0.145199 0.695193
O O8 0.625132 0.233346 0.754333
O O9 0.425714 0.344455 0.500000
O O10 0.500000 0.379491 0.289486
O O11 0.404673 0.327937 0.217035
O O12 0.374876 0.914993 0.500000
O O13 0.318943 0.868521 0.273750
O O14 0.395508 0.949112 0.236229
O O15 0.245705 0.141536 0.500000
O O16 0.213198 0.190923 0.268831
O O17 0.147578 0.778555 0.500000
O O18 0.078026 0.500000 0.500000
O O19 0.000000 0.500000 0.276649
#
# Coordination Sequence:
#
# PCOD8290526 Si02
#       7
#    16  16  16  16  16  16   8
#     4   9  18  31  48  72 102 137 178 228 282 335
#     4  10  21  37  58  84 112 144 187 235 279 330
#     4   9  17  30  48  70  99 138 184 229 274 328
#     4  10  22  41  64  87 112 150 195 234 275 332
#     4   9  20  37  55  79 110 144 186 230 275 329
#     4  10  20  34  53  79 112 147 181 225 280 334
#     4  11  25  43  63  91 125 153 182 231 290 339
#
# _framework density 20.154903000000001
#
# number of rings (size 3 to 8) (size 9 to 14) (size 15 to 20)
#    0.000    2.385    0.000    1.615    1.077    6.769 
#    0.000    1.538    0.000    0.000    0.000    4.308 
#    0.000    0.000    0.000    0.000    0.000    0.000 
#
# Total GULP energy -644368.065163 kJ/mol
# GULP energy per Si atom -12391.693561 kJ/mol
# Density = 2.010903 g / cm^3
# Si number density = 20.154903 Si / 1000 Ang^3
#
#
#
# Elastic Constant Matrix: (Units=GPa)
#
#
# Indices 1 2 3 4 5 6 
#
# 1 109.2747 43.2320 48.2321 0.0000 0.0000 0.0000
# 2 43.2320 115.2957 27.2862 0.0000 0.0000 0.0000
# 3 48.2321 27.2862 23.2430 0.0000 0.0000 0.0000
# 4 0.0000 0.0000 0.0000 26.7355 0.0000 0.0000
# 5 0.0000 0.0000 0.0000 0.0000 26.1015 0.0000
# 6 0.0000 0.0000 0.0000 0.0000 0.0000 19.8068
#
#
#
# Elastic Compliance Matrix: (Units=1/GPa)
#
#
# Indices 1 2 3 4 5 6 
#
# 1 0.142168 0.022863 -0.321855 0.000000 0.000000 0.000000
# 2 0.022863 0.015687 -0.065859 0.000000 0.000000 0.000000
# 3 -0.321855 -0.065859 0.788226 0.000000 0.000000 0.000000
# 4 0.000000 0.000000 0.000000 0.037403 0.000000 0.000000
# 5 0.000000 0.000000 0.000000 0.000000 0.038312 0.000000
# 6 0.000000 0.000000 0.000000 0.000000 0.000000 0.050488
#
#
# Mechanical properties :
#
#
# Convention : Reuss Voigt Hill
#
# Bulk Modulus (GPa) = 4.62152 53.92377 29.27265
# Shear Modulus (GPa) = 2.66793 23.13296 12.90045
#
# Velocity S-wave (km/s) = 1.15178 3.39153 2.53270
# Velocity P-wave (km/s) = 2.01662 6.49226 4.80709
#
# Compressibility (1/GPa) = 0.21637882
#
# Stress axis : x y z
#
# Youngs Moduli (GPa) = 7.03395 63.74758 1.26867
#
# Poissons Ratio (x) = -1.45746 0.40833
# Poissons Ratio (y) = -0.16082 0.08355
# Poissons Ratio (z) = 2.26391 4.19835
#
# Static dielectric constant tensor:
#      x y z
#    x 3.937100 0.000000 0.000000 
#    y 0.000000 3.643000 0.000000 
#    z 0.000000 0.000000 3.509970 
# 
# 
# High freq. dielectric constant tensor:
#      x y z
#    x 1.794190 0.000000 0.000000 
#    y 0.000000 1.789010 0.000000 
#    z 0.000000 0.000000 1.769070 
# 
# From -- ./inp_files/11047.got.cif
#   From: 2010.06.25/outbox.cif.g09.slc.cpg/sg71_6_cif.got.tgz:11047.got - 2010.06.28 04:59:45.
