data_PCOD8290764
_publ_section_title
;
Structure prediction by ZEFSAII (Michael W. Deem and Ramdas Pophale) SiO2 
 PCOD8290764
Probable space group: I M M M
;
_chemical_formula_sum "Si O2"
_cell_formula_units_Z 64
_cell_length_a 31.295450
_cell_length_b 12.519745
_cell_length_c 9.065087
_cell_angle_alpha 90.000000
_cell_angle_beta 90.000000
_cell_angle_gamma 90.000000
_cell_volume 3551.801289
_symmetry_space_group_name_H-M "I M M M"
_symmetry_group_IT_number 71
_symmetry_cell_setting 'orthorhombic'
loop_
_space_group_symop_operation_xyz
x,y,z
-x,-y,z
x,-y,-z
-x,y,-z
-x,-y,-z
x,y,-z
-x,y,z
x,-y,z
1/2+x,1/2+y,1/2+z
1/2-x,1/2-y,1/2+z
1/2+x,1/2-y,1/2-z
1/2-x,1/2+y,1/2-z
1/2-x,1/2-y,1/2-z
1/2+x,1/2+y,1/2-z
1/2-x,1/2+y,1/2+z
1/2+x,1/2-y,1/2+z
loop_
_atom_site_type_symbol
_atom_site_label
_atom_site_fract_x
_atom_site_fract_y
_atom_site_fract_z
Si Si1 0.449526 0.000000 0.669543
Si Si2 0.179202 0.249276 0.826977
Si Si3 0.761120 0.878481 0.337199
Si Si4 0.449317 0.624366 0.000000
Si Si5 0.907078 0.695760 0.336404
O O1 0.433878 0.892113 0.748133
O O2 0.500000 0.000000 0.678674
O O3 0.433521 0.000000 0.500000
O O4 0.197082 0.136197 0.766845
O O5 0.217511 0.327069 0.775449
O O6 0.136185 0.284059 0.749774
O O7 0.170753 0.246563 0.000000
O O8 0.771561 0.831928 0.500000
O O9 0.749590 0.000000 0.347101
O O10 0.432407 0.690218 0.144796
O O11 0.433156 0.500000 0.000000
O O12 0.500000 0.626271 0.000000
O O13 0.897106 0.649790 0.500000
#
# Coordination Sequence:
#
# PCOD8290764 Si02
#       5
#     8  16  16   8  16
#     4  11  23  39  61  91 125 159 193 245 313 367
#     4  10  20  35  53  82 114 147 196 243 297 351
#     4   9  19  35  55  74 107 155 194 240 291 352
#     4   9  20  39  63  87 113 152 199 251 301 355
#     4  10  22  36  60  88 119 155 195 250 291 369
#
# _framework density 18.019026
#
# number of rings (size 3 to 8) (size 9 to 14) (size 15 to 20)
#    0.750    1.500    0.000    2.625    1.750    3.000 
#    0.000    0.000    0.000    2.250    0.000    8.750 
#    0.000    0.000    0.000    0.000    0.000    0.000 
#
# Total GULP energy -396447.297999 kJ/mol
# GULP energy per Si atom -12388.978062 kJ/mol
# Density = 1.797801 g / cm^3
# Si number density = 18.019026 Si / 1000 Ang^3
#
#
#
# Elastic Constant Matrix: (Units=GPa)
#
#
# Indices 1 2 3 4 5 6 
#
# 1 109.9625 44.7663 63.6053 0.0000 0.0000 0.0000
# 2 44.7663 113.4851 48.5391 0.0000 0.0000 0.0000
# 3 63.6053 48.5391 120.2497 0.0000 0.0000 0.0000
# 4 0.0000 0.0000 0.0000 15.2794 0.0000 0.0000
# 5 0.0000 0.0000 0.0000 0.0000 24.9075 0.0000
# 6 0.0000 0.0000 0.0000 0.0000 0.0000 18.7059
#
#
#
# Elastic Compliance Matrix: (Units=1/GPa)
#
#
# Indices 1 2 3 4 5 6 
#
# 1 0.013805 -0.002807 -0.006169 0.000000 0.000000 0.000000
# 2 -0.002807 0.011221 -0.003045 0.000000 0.000000 0.000000
# 3 -0.006169 -0.003045 0.012808 0.000000 0.000000 0.000000
# 4 0.000000 0.000000 0.000000 0.065447 0.000000 0.000000
# 5 0.000000 0.000000 0.000000 0.000000 0.040149 0.000000
# 6 0.000000 0.000000 0.000000 0.000000 0.000000 0.053459
#
#
# Mechanical properties :
#
#
# Convention : Reuss Voigt Hill
#
# Bulk Modulus (GPa) = 72.50140 73.05763 72.77951
# Shear Modulus (GPa) = 22.17010 24.23100 23.20055
#
# Velocity S-wave (km/s) = 3.51147 3.67106 3.59215
# Velocity P-wave (km/s) = 7.53418 7.65517 7.59492
#
# Compressibility (1/GPa) = 0.01379284
#
# Stress axis : x y z
#
# Youngs Moduli (GPa) = 72.43679 89.11618 78.07557
#
# Poissons Ratio (x) = 0.25016 0.48165
# Poissons Ratio (y) = 0.20334 0.23772
# Poissons Ratio (z) = 0.44687 0.27133
#
# Static dielectric constant tensor:
#      x y z
#    x 3.278800 0.000000 0.000000 
#    y 0.000000 3.582430 0.000000 
#    z 0.000000 0.000000 3.659360 
# 
# 
# High freq. dielectric constant tensor:
#      x y z
#    x 1.701110 0.000000 0.000000 
#    y 0.000000 1.694670 0.000000 
#    z 0.000000 0.000000 1.698810 
# 
# From -- ./inp_files/16300.got.cif
#   From: 2010.06.25/outbox.cif.g09.slc.cpg/sg71_9_cif.got.tgz:16300.got - 2010.06.28 04:59:45.
