data_PCOD8290322
_publ_section_title
;
Structure prediction by ZEFSAII (Michael W. Deem and Ramdas Pophale) SiO2 
 PCOD8290322
Probable space group: I M M M
;
_chemical_formula_sum "Si O2"
_cell_formula_units_Z 56
_cell_length_a 12.477763
_cell_length_b 19.226379
_cell_length_c 12.640696
_cell_angle_alpha 90.000000
_cell_angle_beta 90.000000
_cell_angle_gamma 90.000000
_cell_volume 3032.530786
_symmetry_space_group_name_H-M "I M M M"
_symmetry_group_IT_number 71
_symmetry_cell_setting 'orthorhombic'
loop_
_space_group_symop_operation_xyz
x,y,z
-x,-y,z
x,-y,-z
-x,y,-z
-x,-y,-z
x,y,-z
-x,y,z
x,-y,z
1/2+x,1/2+y,1/2+z
1/2-x,1/2-y,1/2+z
1/2+x,1/2-y,1/2-z
1/2-x,1/2+y,1/2-z
1/2-x,1/2-y,1/2-z
1/2+x,1/2+y,1/2-z
1/2-x,1/2+y,1/2+z
1/2+x,1/2-y,1/2+z
loop_
_atom_site_type_symbol
_atom_site_label
_atom_site_fract_x
_atom_site_fract_y
_atom_site_fract_z
Si Si1 0.500000 0.676715 0.625238
Si Si2 0.313217 0.422198 0.619287
Si Si3 0.704321 0.078792 0.330346
Si Si4 0.500000 0.829920 0.621497
Si Si5 0.378300 0.581677 0.000000
O O1 0.500000 0.677869 0.500000
O O2 0.603082 0.633958 0.662320
O O3 0.500000 0.753752 0.677634
O O4 0.271666 0.405294 0.500000
O O5 0.364035 0.500000 0.621216
O O6 0.217858 0.418227 0.703705
O O7 0.605507 0.128044 0.352008
O O8 0.809911 0.104218 0.395620
O O9 0.676458 0.000000 0.366265
O O10 0.500000 0.812031 0.500000
O O11 0.394300 0.500000 0.000000
O O12 0.500000 0.614972 0.000000
#
# Coordination Sequence:
#
# PCOD8290322 Si02
#       5
#     8  16  16   8   8
#     4   9  19  33  53  79 105 141 177 218 267 315
#     4   9  18  34  55  79 104 132 176 229 273 311
#     4  10  20  33  55  80 107 143 179 220 264 315
#     4  11  21  35  52  77 111 148 183 210 256 321
#     4   9  18  31  49  79 111 136 171 220 268 310
#
# _framework density 18.466424
#
# number of rings (size 3 to 8) (size 9 to 14) (size 15 to 20)
#    0.000    2.429    1.429    0.857    2.000    3.429 
#    0.000    0.714    0.000    3.429    0.000    0.000 
#    0.000    0.000    0.000    0.000    0.000    0.286 
#
# Total GULP energy -346915.846881 kJ/mol
# GULP energy per Si atom -12389.851674 kJ/mol
# Density = 1.842439 g / cm^3
# Si number density = 18.466424 Si / 1000 Ang^3
#
#
#
# Elastic Constant Matrix: (Units=GPa)
#
#
# Indices 1 2 3 4 5 6 
#
# 1 118.0520 58.1103 35.6852 0.0000 0.0000 0.0000
# 2 58.1103 109.5567 23.0243 0.0001 0.0000 0.0001
# 3 35.6852 23.0243 91.6536 0.0002 0.0000 0.0002
# 4 0.0000 0.0001 0.0002 14.9641 0.0000 0.0002
# 5 0.0000 0.0000 0.0000 0.0000 20.3870 0.0000
# 6 0.0000 0.0001 0.0002 0.0002 0.0000 65.3459
#
#
#
# Elastic Compliance Matrix: (Units=1/GPa)
#
#
# Indices 1 2 3 4 5 6 
#
# 1 0.012364 -0.005855 -0.003343 0.000000 0.000000 0.000000
# 2 -0.005855 0.012409 -0.000838 0.000000 0.000000 0.000000
# 3 -0.003343 -0.000838 0.012423 0.000000 0.000000 0.000000
# 4 0.000000 0.000000 0.000000 0.066827 0.000000 0.000000
# 5 0.000000 0.000000 0.000000 0.000000 0.049051 0.000000
# 6 0.000000 0.000000 0.000000 0.000000 0.000000 0.015303
#
#
# Mechanical properties :
#
#
# Convention : Reuss Voigt Hill
#
# Bulk Modulus (GPa) = 58.39714 61.43353 59.91534
# Shear Modulus (GPa) = 25.75252 33.63556 29.69404
#
# Velocity S-wave (km/s) = 3.73843 4.27247 4.01434
# Velocity P-wave (km/s) = 7.09412 7.59464 7.34864
#
# Compressibility (1/GPa) = 0.01712413
#
# Stress axis : x y z
#
# Youngs Moduli (GPa) = 80.88300 80.58384 80.49848
#
# Poissons Ratio (x) = 0.47184 0.26909
# Poissons Ratio (y) = 0.47359 0.06743
# Poissons Ratio (z) = 0.27038 0.06750
#
# Static dielectric constant tensor:
#      x y z
#    x 3.236070 0.000000 0.000000 
#    y 0.000000 3.547450 0.000000 
#    z 0.000000 0.000000 3.534430 
# 
# 
# High freq. dielectric constant tensor:
#      x y z
#    x 1.694810 0.000000 0.000000 
#    y 0.000000 1.703180 0.000000 
#    z 0.000000 0.000000 1.715520 
# 
# From -- ./inp_files/19304.got.cif
#   From: 2010.06.25/outbox.cif.g09.slc.cpg/sg71_10_cif.got.tgz:19304.got - 2010.06.28 04:59:45.
