data_PCOD8290325
_publ_section_title
;
Structure prediction by ZEFSAII (Michael W. Deem and Ramdas Pophale) SiO2 
 PCOD8290325
Probable space group: I M M M
;
_chemical_formula_sum "Si O2"
_cell_formula_units_Z 88
_cell_length_a 16.678793
_cell_length_b 26.514520
_cell_length_c 10.678891
_cell_angle_alpha 90.000000
_cell_angle_beta 90.000000
_cell_angle_gamma 90.000000
_cell_volume 4722.528002
_symmetry_space_group_name_H-M "I M M M"
_symmetry_group_IT_number 71
_symmetry_cell_setting 'orthorhombic'
loop_
_space_group_symop_operation_xyz
x,y,z
-x,-y,z
x,-y,-z
-x,y,-z
-x,-y,-z
x,y,-z
-x,y,z
x,-y,z
1/2+x,1/2+y,1/2+z
1/2-x,1/2-y,1/2+z
1/2+x,1/2-y,1/2-z
1/2-x,1/2+y,1/2-z
1/2-x,1/2-y,1/2-z
1/2+x,1/2+y,1/2-z
1/2-x,1/2+y,1/2+z
1/2+x,1/2-y,1/2+z
loop_
_atom_site_type_symbol
_atom_site_label
_atom_site_fract_x
_atom_site_fract_y
_atom_site_fract_z
Si Si1 0.339074 0.886739 0.853217
Si Si2 0.410717 0.442732 0.000000
Si Si3 0.692717 0.771488 0.858185
Si Si4 0.908923 0.177846 0.642535
Si Si5 0.585167 0.500000 0.360493
Si Si6 0.500000 0.057541 0.851626
Si Si7 0.174081 0.911371 0.745673
O O1 0.339352 0.827049 0.826357
O O2 0.421533 0.912017 0.805339
O O3 0.268775 0.911885 0.771496
O O4 0.324489 0.897677 0.000000
O O5 0.351905 0.432622 0.113824
O O6 0.433611 0.500000 0.000000
O O7 0.500000 0.414897 0.000000
O O8 0.750000 0.750000 0.750000
O O9 0.614907 0.736108 0.856835
O O10 0.731465 0.770094 0.000000
O O11 0.895868 0.155509 0.500000
O O12 0.857878 0.146619 0.746230
O O13 0.000000 0.174031 0.684866
O O14 0.500000 0.500000 0.281509
O O15 0.557315 0.500000 0.500000
O O16 0.634180 0.448468 0.344805
O O17 0.500000 0.000000 0.798851
O O18 0.500000 0.056034 0.000000
#
# Coordination Sequence:
#
# PCOD8290325 Si02
#       7
#    16   8  16  16   8   8  16
#     4  10  22  38  59  86 117 151 192 243 301 352
#     4  11  22  36  56  83 115 151 193 236 276 332
#     4  10  20  37  57  84 118 154 192 242 293 353
#     4  10  20  33  55  85 114 147 192 240 281 332
#     4  11  24  37  51  76 114 156 190 227 284 344
#     4   9  20  38  62  89 115 147 197 259 308 351
#     4  12  21  35  57  81 115 150 187 235 283 341
#
# _framework density 18.634087999999998
#
# number of rings (size 3 to 8) (size 9 to 14) (size 15 to 20)
#    0.000    1.545    3.636    2.182    2.545    0.000 
#    0.000    0.000    0.000    2.182    0.000    1.273 
#    0.000    0.000    0.000    0.000    0.000    0.000 
#
# Total GULP energy -545101.756787 kJ/mol
# GULP energy per Si atom -12388.676291 kJ/mol
# Density = 1.859168 g / cm^3
# Si number density = 18.634088 Si / 1000 Ang^3
#
#
#
# Elastic Constant Matrix: (Units=GPa)
#
#
# Indices 1 2 3 4 5 6 
#
# 1 171.8385 70.8341 47.9651 0.0000 0.0000 0.0000
# 2 70.8341 132.9150 33.2525 0.0000 0.0000 0.0000
# 3 47.9651 33.2525 66.5066 0.0004 -0.0002 -0.0002
# 4 0.0000 0.0000 0.0004 33.2419 -0.0001 -0.0001
# 5 0.0000 0.0000 -0.0002 -0.0001 27.9975 0.0000
# 6 0.0000 0.0000 -0.0002 -0.0001 0.0000 33.7988
#
#
#
# Elastic Compliance Matrix: (Units=1/GPa)
#
#
# Indices 1 2 3 4 5 6 
#
# 1 0.008448 -0.003404 -0.004391 0.000000 0.000000 0.000000
# 2 -0.003404 0.009971 -0.002530 0.000000 0.000000 0.000000
# 3 -0.004391 -0.002530 0.019468 0.000000 0.000000 0.000000
# 4 0.000000 0.000000 0.000000 0.030083 0.000000 0.000000
# 5 0.000000 0.000000 0.000000 0.000000 0.035717 0.000000
# 6 0.000000 0.000000 0.000000 0.000000 0.000000 0.029587
#
#
# Mechanical properties :
#
#
# Convention : Reuss Voigt Hill
#
# Bulk Modulus (GPa) = 58.01627 75.04038 66.52833
# Shear Modulus (GPa) = 31.31468 33.62153 32.46810
#
# Velocity S-wave (km/s) = 4.10384 4.25232 4.17874
# Velocity P-wave (km/s) = 7.32512 8.02917 7.68521
#
# Compressibility (1/GPa) = 0.01723654
#
# Stress axis : x y z
#
# Youngs Moduli (GPa) = 118.36926 100.29502 51.36603
#
# Poissons Ratio (x) = 0.34137 0.22555
# Poissons Ratio (y) = 0.40289 0.12998
# Poissons Ratio (z) = 0.51977 0.25379
#
# Static dielectric constant tensor:
#      x y z
#    x 3.388100 0.000000 0.000000 
#    y 0.000000 3.864690 0.000000 
#    z 0.000000 0.000000 3.264430 
# 
# 
# High freq. dielectric constant tensor:
#      x y z
#    x 1.718710 0.000000 0.000000 
#    y 0.000000 1.748050 0.000000 
#    z 0.000000 0.000000 1.696330 
# 
# From -- ./inp_files/22384.got.cif
#   From: 2010.06.25/outbox.cif.g09.slc.cpg/sg71_12_cif.got.tgz:22384.got - 2010.06.28 04:59:45.
