data_PCOD8290902
_publ_section_title
;
Structure prediction by ZEFSAII (Michael W. Deem and Ramdas Pophale) SiO2 
 PCOD8290902
Probable space group: I M M M
;
_chemical_formula_sum "Si O2"
_cell_formula_units_Z 88
_cell_length_a 8.801870
_cell_length_b 17.661459
_cell_length_c 28.874373
_cell_angle_alpha 90.000000
_cell_angle_beta 90.000000
_cell_angle_gamma 90.000000
_cell_volume 4488.632915
_symmetry_space_group_name_H-M "I M M M"
_symmetry_group_IT_number 71
_symmetry_cell_setting 'orthorhombic'
loop_
_space_group_symop_operation_xyz
x,y,z
-x,-y,z
x,-y,-z
-x,y,-z
-x,-y,-z
x,y,-z
-x,y,z
x,-y,z
1/2+x,1/2+y,1/2+z
1/2-x,1/2-y,1/2+z
1/2+x,1/2-y,1/2-z
1/2-x,1/2+y,1/2-z
1/2-x,1/2-y,1/2-z
1/2+x,1/2+y,1/2-z
1/2-x,1/2+y,1/2+z
1/2+x,1/2-y,1/2+z
loop_
_atom_site_type_symbol
_atom_site_label
_atom_site_fract_x
_atom_site_fract_y
_atom_site_fract_z
Si Si1 0.171226 0.149352 0.946990
Si Si2 0.321990 0.500000 0.600845
Si Si3 0.671928 0.641041 0.271439
Si Si4 0.322510 0.694431 0.075605
Si Si5 0.320163 0.912031 0.500000
Si Si6 0.326383 0.000000 0.802648
Si Si7 0.172577 0.770618 0.677928
O O1 0.275743 0.222311 0.940652
O O2 0.000000 0.167414 0.929161
O O3 0.245763 0.077512 0.920578
O O4 0.166792 0.125650 0.000000
O O5 0.500000 0.500000 0.590708
O O6 0.286891 0.500000 0.654529
O O7 0.500000 0.615025 0.281629
O O8 0.789708 0.572601 0.271802
O O9 0.716777 0.700411 0.311671
O O10 0.688498 0.671561 0.219814
O O11 0.500000 0.683537 0.066569
O O12 0.238494 0.629362 0.046427
O O13 0.280915 0.687387 0.130222
O O14 0.500000 0.905943 0.500000
O O15 0.267095 0.000000 0.500000
O O16 0.500000 0.000000 0.818855
O O17 0.000000 0.740003 0.673994
#
# Coordination Sequence:
#
# PCOD8290902 Si02
#       7
#    16   8  16  16   8   8  16
#     4  10  20  35  56  83 119 157 196 240 281 332
#     4  10  21  36  56  84 116 160 206 240 284 337
#     4  10  20  37  60  84 115 154 194 235 283 343
#     4  11  22  38  62  90 118 151 190 235 292 353
#     4  11  25  45  65  86 115 148 189 243 294 347
#     4  12  24  37  53  79 116 153 191 242 289 334
#     4   9  20  38  60  88 118 148 187 236 286 342
#
# _framework density 19.605077999999999
#
# number of rings (size 3 to 8) (size 9 to 14) (size 15 to 20)
#    0.000    1.727    0.909    3.545    0.000    7.636 
#    1.636    0.000    0.000    1.636    0.000    0.000 
#    0.000    0.000    0.000    0.000    0.000    0.000 
#
# Total GULP energy -545617.273680 kJ/mol
# GULP energy per Si atom -12400.392584 kJ/mol
# Density = 1.956046 g / cm^3
# Si number density = 19.605078 Si / 1000 Ang^3
#
#
#
# Elastic Constant Matrix: (Units=GPa)
#
#
# Indices 1 2 3 4 5 6 
#
# 1 67.8936 46.4540 39.7657 0.0000 0.0000 0.0000
# 2 46.4540 135.5778 50.7524 0.0000 0.0000 0.0000
# 3 39.7657 50.7524 114.0539 0.0000 0.0000 0.0000
# 4 0.0000 0.0000 0.0000 20.1272 0.0000 0.0000
# 5 0.0000 0.0000 0.0000 0.0000 23.5000 0.0000
# 6 0.0000 0.0000 0.0000 0.0000 0.0000 24.6516
#
#
#
# Elastic Compliance Matrix: (Units=1/GPa)
#
#
# Indices 1 2 3 4 5 6 
#
# 1 0.021409 -0.005449 -0.005040 0.000000 0.000000 0.000000
# 2 -0.005449 0.010237 -0.002655 0.000000 0.000000 0.000000
# 3 -0.005040 -0.002655 0.011707 0.000000 0.000000 0.000000
# 4 0.000000 0.000000 0.000000 0.049684 0.000000 0.000000
# 5 0.000000 0.000000 0.000000 0.000000 0.042553 0.000000
# 6 0.000000 0.000000 0.000000 0.000000 0.000000 0.040565
#
#
# Mechanical properties :
#
#
# Convention : Reuss Voigt Hill
#
# Bulk Modulus (GPa) = 58.60208 65.71881 62.16045
# Shear Modulus (GPa) = 24.02331 25.69264 24.85798
#
# Velocity S-wave (km/s) = 3.50431 3.62402 3.56467
# Velocity P-wave (km/s) = 6.80660 7.14881 6.97980
#
# Compressibility (1/GPa) = 0.01706424
#
# Stress axis : x y z
#
# Youngs Moduli (GPa) = 46.70940 97.68586 85.42230
#
# Poissons Ratio (x) = 0.53228 0.43050
# Poissons Ratio (y) = 0.25452 0.22684
# Poissons Ratio (z) = 0.23540 0.25940
#
# Static dielectric constant tensor:
#      x y z
#    x 3.597500 0.000000 0.000000 
#    y 0.000000 3.594650 0.000000 
#    z 0.000000 0.000000 3.678440 
# 
# 
# High freq. dielectric constant tensor:
#      x y z
#    x 1.762240 0.000000 0.000000 
#    y 0.000000 1.758620 0.000000 
#    z 0.000000 0.000000 1.773410 
# 
# From -- ./inp_files/68072.got.cif
#   From: 2010.06.25/outbox.cif.g09.slc.cpg/sg71_35_cif.got.tgz:68072.got - 2010.06.28 04:59:45.
