data_PCOD8290010
_publ_section_title
;
Structure prediction by ZEFSAII (Michael W. Deem and Ramdas Pophale) SiO2 
 PCOD8290010
Probable space group: I M M M
;
_chemical_formula_sum "Si O2"
_cell_formula_units_Z 104
_cell_length_a 20.227750
_cell_length_b 9.115714
_cell_length_c 32.151356
_cell_angle_alpha 90.000000
_cell_angle_beta 90.000000
_cell_angle_gamma 90.000000
_cell_volume 5928.400875
_symmetry_space_group_name_H-M "I M M M"
_symmetry_group_IT_number 71
_symmetry_cell_setting 'orthorhombic'
loop_
_space_group_symop_operation_xyz
x,y,z
-x,-y,z
x,-y,-z
-x,y,-z
-x,-y,-z
x,y,-z
-x,y,z
x,-y,z
1/2+x,1/2+y,1/2+z
1/2-x,1/2-y,1/2+z
1/2+x,1/2-y,1/2-z
1/2-x,1/2+y,1/2-z
1/2-x,1/2-y,1/2-z
1/2+x,1/2+y,1/2-z
1/2-x,1/2+y,1/2+z
1/2+x,1/2-y,1/2+z
loop_
_atom_site_type_symbol
_atom_site_label
_atom_site_fract_x
_atom_site_fract_y
_atom_site_fract_z
Si Si1 0.811356 0.329327 0.635946
Si Si2 0.216807 0.668387 0.545124
Si Si3 0.177840 0.669675 0.156658
Si Si4 0.923965 0.158849 0.000000
Si Si5 0.424170 0.672954 0.717241
Si Si6 0.347780 0.832577 0.437308
Si Si7 0.574851 0.168660 0.802264
O O1 0.794632 0.500000 0.641690
O O2 0.824676 0.291219 0.586876
O O3 0.750606 0.240647 0.656058
O O4 0.877885 0.284826 0.659844
O O5 0.179724 0.693272 0.500000
O O6 0.239332 0.500000 0.548690
O O7 0.280519 0.769279 0.544427
O O8 0.185211 0.500000 0.169699
O O9 0.128306 0.749990 0.187590
O O10 0.145140 0.687224 0.111746
O O11 0.907580 0.247080 0.041738
O O12 0.000000 0.130119 0.000000
O O13 0.887596 0.000000 0.000000
O O14 0.500000 0.713619 0.704811
O O15 0.412824 0.500000 0.715315
O O16 0.409008 0.727790 0.763561
O O17 0.351243 0.000000 0.450867
O O18 0.500000 0.192356 0.817868
O O19 0.586606 0.000000 0.788847
#
# Coordination Sequence:
#
# PCOD8290010 Si02
#       7
#    16  16  16   8  16  16  16
#     4   9  18  32  51  77 105 134 171 212 255 303
#     4   9  16  28  49  73  98 129 163 200 244 296
#     4  10  21  35  52  76 104 133 167 211 259 304
#     4  11  23  35  47  65  91 127 168 205 246 297
#     4  10  21  36  54  75  99 132 173 213 256 308
#     4  10  20  33  49  69  94 124 161 206 250 291
#     4   9  18  34  55  76 101 135 172 210 254 305
#
# _framework density 17.542674000000002
#
# number of rings (size 3 to 8) (size 9 to 14) (size 15 to 20)
#    0.000    2.385    0.769    1.615    0.000    5.231 
#    0.000    3.077    0.000    0.462    0.000    3.231 
#    0.000    0.000    0.000   11.538    0.000   12.000 
#
# Total GULP energy -644503.900229 kJ/mol
# GULP energy per Si atom -12394.305774 kJ/mol
# Density = 1.750275 g / cm^3
# Si number density = 17.542674 Si / 1000 Ang^3
#
#
#
# Elastic Constant Matrix: (Units=GPa)
#
#
# Indices 1 2 3 4 5 6 
#
# 1 95.3745 52.3006 78.4243 0.0000 0.0000 0.0000
# 2 52.3006 98.9583 58.1264 0.0000 0.0000 0.0000
# 3 78.4243 58.1264 134.1035 0.0000 0.0000 0.0000
# 4 0.0000 0.0000 0.0000 28.0844 0.0000 0.0000
# 5 0.0000 0.0000 0.0000 0.0000 28.7193 0.0000
# 6 0.0000 0.0000 0.0000 0.0000 0.0000 15.5213
#
#
#
# Elastic Compliance Matrix: (Units=1/GPa)
#
#
# Indices 1 2 3 4 5 6 
#
# 1 0.022238 -0.005519 -0.010613 0.000000 0.000000 0.000000
# 2 -0.005519 0.014927 -0.003242 0.000000 0.000000 0.000000
# 3 -0.010613 -0.003242 0.015068 0.000000 0.000000 0.000000
# 4 0.000000 0.000000 0.000000 0.035607 0.000000 0.000000
# 5 0.000000 0.000000 0.000000 0.000000 0.034820 0.000000
# 6 0.000000 0.000000 0.000000 0.000000 0.000000 0.064428
#
#
# Mechanical properties :
#
#
# Convention : Reuss Voigt Hill
#
# Bulk Modulus (GPa) = 74.15611 78.45987 76.30799
# Shear Modulus (GPa) = 21.70786 23.77065 22.73926
#
# Velocity S-wave (km/s) = 3.52153 3.68505 3.60422
# Velocity P-wave (km/s) = 7.67454 7.93274 7.80471
#
# Compressibility (1/GPa) = 0.01348507
#
# Stress axis : x y z
#
# Youngs Moduli (GPa) = 44.96766 66.99391 66.36362
#
# Poissons Ratio (x) = 0.36977 0.70429
# Poissons Ratio (y) = 0.24820 0.21516
# Poissons Ratio (z) = 0.47722 0.21720
#
# Static dielectric constant tensor:
#      x y z
#    x 3.070780 0.000000 0.000000 
#    y 0.000000 3.456890 0.000000 
#    z 0.000000 0.000000 3.652490 
# 
# 
# High freq. dielectric constant tensor:
#      x y z
#    x 1.649560 0.000000 0.000000 
#    y 0.000000 1.688470 0.000000 
#    z 0.000000 0.000000 1.687570 
# 
# From -- ./inp_files/70777.got.cif
#   From: 2010.06.25/outbox.cif.g09.slc.cpg/sg71_36_cif.got.tgz:70777.got - 2010.06.28 04:59:45.
