data_PCOD8290921
_publ_section_title
;
Structure prediction by ZEFSAII (Michael W. Deem and Ramdas Pophale) SiO2 
 PCOD8290921
Probable space group: I M M M
;
_chemical_formula_sum "Si O2"
_cell_formula_units_Z 96
_cell_length_a 12.829401
_cell_length_b 27.359676
_cell_length_c 14.644661
_cell_angle_alpha 90.000000
_cell_angle_beta 90.000000
_cell_angle_gamma 90.000000
_cell_volume 5140.396897
_symmetry_space_group_name_H-M "I M M M"
_symmetry_group_IT_number 71
_symmetry_cell_setting 'orthorhombic'
loop_
_space_group_symop_operation_xyz
x,y,z
-x,-y,z
x,-y,-z
-x,y,-z
-x,-y,-z
x,y,-z
-x,y,z
x,-y,z
1/2+x,1/2+y,1/2+z
1/2-x,1/2-y,1/2+z
1/2+x,1/2-y,1/2-z
1/2-x,1/2+y,1/2-z
1/2-x,1/2-y,1/2-z
1/2+x,1/2+y,1/2-z
1/2-x,1/2+y,1/2+z
1/2+x,1/2-y,1/2+z
loop_
_atom_site_type_symbol
_atom_site_label
_atom_site_fract_x
_atom_site_fract_y
_atom_site_fract_z
Si Si1 0.383562 0.445273 0.792070
Si Si2 0.123851 0.184846 0.000000
Si Si3 0.612715 0.052826 0.893988
Si Si4 0.122443 0.702718 0.000000
Si Si5 0.725629 0.630087 0.331051
Si Si6 0.180789 0.445154 0.895987
Si Si7 0.880968 0.348805 0.816362
O O1 0.500000 0.437099 0.829996
O O2 0.373953 0.500000 0.747893
O O3 0.361436 0.402248 0.719635
O O4 0.304263 0.440970 0.876664
O O5 0.170534 0.162580 0.907479
O O6 0.156857 0.241216 0.000000
O O7 0.000000 0.177323 0.000000
O O8 0.500000 0.069900 0.854271
O O9 0.697978 0.092796 0.878283
O O10 0.644043 0.000000 0.850032
O O11 0.601151 0.045028 0.000000
O O12 0.163892 0.677046 0.907688
O O13 0.000000 0.696408 0.000000
O O14 0.797375 0.663731 0.263560
O O15 0.140172 0.500000 0.876301
O O16 0.119123 0.407735 0.830711
O O17 0.159283 0.430410 0.000000
O O18 0.000000 0.332085 0.792596
#
# Coordination Sequence:
#
# PCOD8290921 Si02
#       7
#    16   8  16   8  16  16  16
#     4   9  18  31  46  69 105 143 177 217 259 301
#     4  11  24  40  58  77 101 135 178 231 277 311
#     4   9  17  30  49  75 110 146 173 204 254 316
#     4   9  20  40  59  78 105 136 173 216 270 329
#     4  11  20  34  54  81 104 136 182 221 260 312
#     4   9  17  29  49  79 110 141 178 214 250 304
#     4  10  20  35  57  82 110 142 171 209 263 322
#
# _framework density 18.675601
#
# number of rings (size 3 to 8) (size 9 to 14) (size 15 to 20)
#    0.000    2.333    1.667    2.000    0.000    2.000 
#    0.000    2.500    0.000    2.000    0.000   11.667 
#    0.000    0.000    0.000    0.000    0.000    0.000 
#
# Total GULP energy -594784.984641 kJ/mol
# GULP energy per Si atom -12391.353847 kJ/mol
# Density = 1.863309 g / cm^3
# Si number density = 18.675601 Si / 1000 Ang^3
#
#
#
# Elastic Constant Matrix: (Units=GPa)
#
#
# Indices 1 2 3 4 5 6 
#
# 1 83.6164 26.9265 24.0507 -0.0001 -0.0001 0.0000
# 2 26.9265 80.5898 28.6925 -0.0001 0.0000 0.0000
# 3 24.0507 28.6925 82.1457 -0.0007 -0.0004 0.0001
# 4 -0.0001 -0.0001 -0.0007 32.1178 -0.0002 0.0001
# 5 -0.0001 0.0000 -0.0004 -0.0002 19.1689 0.0000
# 6 0.0000 0.0000 0.0001 0.0001 0.0000 22.1702
#
#
#
# Elastic Compliance Matrix: (Units=1/GPa)
#
#
# Indices 1 2 3 4 5 6 
#
# 1 0.013945 -0.003661 -0.002804 0.000000 0.000000 0.000000
# 2 -0.003661 0.015132 -0.004214 0.000000 0.000000 0.000000
# 3 -0.002804 -0.004214 0.014466 0.000000 0.000000 0.000000
# 4 0.000000 0.000000 0.000000 0.031135 0.000000 0.000000
# 5 0.000000 0.000000 0.000000 0.000000 0.052168 0.000000
# 6 0.000000 0.000000 0.000000 0.000000 0.000000 0.045106
#
#
# Mechanical properties :
#
#
# Convention : Reuss Voigt Hill
#
# Bulk Modulus (GPa) = 45.07371 45.07682 45.07527
# Shear Modulus (GPa) = 24.91231 25.80352 25.35791
#
# Velocity S-wave (km/s) = 3.65629 3.72111 3.68884
# Velocity P-wave (km/s) = 6.48167 6.53080 6.50628
#
# Compressibility (1/GPa) = 0.02218588
#
# Stress axis : x y z
#
# Youngs Moduli (GPa) = 71.71127 66.08579 69.12658
#
# Poissons Ratio (x) = 0.24193 0.19384
# Poissons Ratio (y) = 0.26253 0.29127
# Poissons Ratio (z) = 0.20108 0.27845
#
# Static dielectric constant tensor:
#      x y z
#    x 3.403840 0.000000 0.000000 
#    y 0.000000 3.351400 0.000000 
#    z 0.000000 0.000000 3.518950 
# 
# 
# High freq. dielectric constant tensor:
#      x y z
#    x 1.720300 0.000000 0.000000 
#    y 0.000000 1.707250 0.000000 
#    z 0.000000 0.000000 1.723610 
# 
# From -- ./inp_files/33217.got.cif
#   From: 2010.06.25/outbox.cif.g09.slc.cpg/sg71_17_cif.got.tgz:33217.got - 2010.06.28 04:59:45.
