data_PCOD8290107
_publ_section_title
;
Structure prediction by ZEFSAII (Michael W. Deem and Ramdas Pophale) SiO2 
 PCOD8290107
Probable space group: I M M M
;
_chemical_formula_sum "Si O2"
_cell_formula_units_Z 120
_cell_length_a 27.542521
_cell_length_b 26.595696
_cell_length_c 9.009518
_cell_angle_alpha 90.000000
_cell_angle_beta 90.000000
_cell_angle_gamma 90.000000
_cell_volume 6599.584694
_symmetry_space_group_name_H-M "I M M M"
_symmetry_group_IT_number 71
_symmetry_cell_setting 'orthorhombic'
loop_
_space_group_symop_operation_xyz
x,y,z
-x,-y,z
x,-y,-z
-x,y,-z
-x,-y,-z
x,y,-z
-x,y,z
x,-y,z
1/2+x,1/2+y,1/2+z
1/2-x,1/2-y,1/2+z
1/2+x,1/2-y,1/2-z
1/2-x,1/2+y,1/2-z
1/2-x,1/2-y,1/2-z
1/2+x,1/2+y,1/2-z
1/2-x,1/2+y,1/2+z
1/2+x,1/2-y,1/2+z
loop_
_atom_site_type_symbol
_atom_site_label
_atom_site_fract_x
_atom_site_fract_y
_atom_site_fract_z
Si Si1 0.633161 0.150567 0.172227
Si Si2 0.054676 0.000000 0.176348
Si Si3 0.194157 0.556838 0.670653
Si Si4 0.699489 0.758527 0.171410
Si Si5 0.292411 0.441429 0.828744
Si Si6 0.885136 0.903921 0.176235
Si Si7 0.105560 0.198557 0.674802
Si Si8 0.943977 0.289301 0.170866
O O1 0.649189 0.093471 0.205446
O O2 0.677101 0.187707 0.217647
O O3 0.586028 0.162648 0.270138
O O4 0.619798 0.159087 0.000000
O O5 0.082298 0.049607 0.234105
O O6 0.000000 0.000000 0.240335
O O7 0.053932 0.000000 0.000000
O O8 0.210882 0.562422 0.500000
O O9 0.177050 0.500000 0.705232
O O10 0.238894 0.572668 0.773714
O O11 0.750000 0.750000 0.250000
O O12 0.660730 0.715110 0.212762
O O13 0.711618 0.757378 0.000000
O O14 0.302691 0.500000 0.802534
O O15 0.330444 0.409892 0.733574
O O16 0.297335 0.426063 0.000000
O O17 0.907398 0.853302 0.243909
O O18 0.885036 0.900412 0.000000
O O19 0.097834 0.192365 0.500000
O O20 0.068334 0.240146 0.733734
O O21 0.000000 0.302859 0.191195
O O22 0.930689 0.278923 0.000000
#
# Coordination Sequence:
#
# PCOD8290107 Si02
#       8
#    16   8  16  16  16  16  16  16
#     4   9  19  35  54  80 111 144 181 223 272 323
#     4   9  20  38  57  77 101 133 179 233 282 325
#     4   9  18  33  54  81 113 148 187 225 263 318
#     4   9  19  33  48  71 105 141 176 216 262 320
#     4  10  20  33  50  74 107 145 185 227 269 317
#     4  11  21  35  56  78 104 141 183 229 280 331
#     4  10  22  38  54  79 110 140 179 224 277 329
#     4  10  21  38  60  84 107 137 181 226 270 327
#
# _framework density 18.182960999999999
#
# number of rings (size 3 to 8) (size 9 to 14) (size 15 to 20)
#    0.000    2.333    0.667    2.400    1.867    5.333 
#    0.000    1.333    0.000    3.200    0.000    2.800 
#    0.000    0.000    0.000    0.000    0.000    0.000 
#
# Total GULP energy -744122.608537 kJ/mol
# GULP energy per Si atom -12402.043476 kJ/mol
# Density = 1.814158 g / cm^3
# Si number density = 18.182961 Si / 1000 Ang^3
#
#
#
# Elastic Constant Matrix: (Units=GPa)
#
#
# Indices 1 2 3 4 5 6 
#
# 1 105.1644 53.2881 48.0582 0.0000 0.0000 0.0000
# 2 53.2881 112.0536 40.3771 0.0000 0.0000 0.0000
# 3 48.0582 40.3771 80.0362 0.0000 0.0000 0.0000
# 4 0.0000 0.0000 0.0000 28.3628 0.0000 0.0000
# 5 0.0000 0.0000 0.0000 0.0000 28.1051 0.0000
# 6 0.0000 0.0000 0.0000 0.0000 0.0000 17.6712
#
#
#
# Elastic Compliance Matrix: (Units=1/GPa)
#
#
# Indices 1 2 3 4 5 6 
#
# 1 0.014902 -0.004720 -0.006566 0.000000 0.000000 0.000000
# 2 -0.004720 0.012402 -0.003422 0.000000 0.000000 0.000000
# 3 -0.006566 -0.003422 0.018164 0.000000 0.000000 0.000000
# 4 0.000000 0.000000 0.000000 0.035257 0.000000 0.000000
# 5 0.000000 0.000000 0.000000 0.000000 0.035581 0.000000
# 6 0.000000 0.000000 0.000000 0.000000 0.000000 0.056589
#
#
# Mechanical properties :
#
#
# Convention : Reuss Voigt Hill
#
# Bulk Modulus (GPa) = 62.30821 64.52236 63.41528
# Shear Modulus (GPa) = 24.07747 25.19653 24.63700
#
# Velocity S-wave (km/s) = 3.64287 3.72657 3.68496
# Velocity P-wave (km/s) = 7.21358 7.35381 7.28403
#
# Compressibility (1/GPa) = 0.01604925
#
# Stress axis : x y z
#
# Youngs Moduli (GPa) = 67.10723 80.62962 55.05494
#
# Poissons Ratio (x) = 0.38061 0.36151
# Poissons Ratio (y) = 0.31678 0.18842
# Poissons Ratio (z) = 0.44065 0.27595
#
# Static dielectric constant tensor:
#      x y z
#    x 3.229070 0.000000 0.000000 
#    y 0.000000 3.480830 0.000000 
#    z 0.000000 0.000000 3.359060 
# 
# 
# High freq. dielectric constant tensor:
#      x y z
#    x 1.689840 0.000000 0.000000 
#    y 0.000000 1.703660 0.000000 
#    z 0.000000 0.000000 1.704950 
# 
# From -- ./inp_files/15600.got.cif
#   From: 2010.06.25/outbox.cif.g09.slc.cpg/sg71_8_cif.got.tgz:15600.got - 2010.06.28 04:59:45.
