data_PCOD8290287
_publ_section_title
;
Structure prediction by ZEFSAII (Michael W. Deem and Ramdas Pophale) SiO2 
 PCOD8290287
Probable space group: I M M M
;
_chemical_formula_sum "Si O2"
_cell_formula_units_Z 112
_cell_length_a 27.108652
_cell_length_b 14.451887
_cell_length_c 13.898549
_cell_angle_alpha 90.000000
_cell_angle_beta 90.000000
_cell_angle_gamma 90.000000
_cell_volume 5445.050878
_symmetry_space_group_name_H-M "I M M M"
_symmetry_group_IT_number 71
_symmetry_cell_setting 'orthorhombic'
loop_
_space_group_symop_operation_xyz
x,y,z
-x,-y,z
x,-y,-z
-x,y,-z
-x,-y,-z
x,y,-z
-x,y,z
x,-y,z
1/2+x,1/2+y,1/2+z
1/2-x,1/2-y,1/2+z
1/2+x,1/2-y,1/2-z
1/2-x,1/2+y,1/2-z
1/2-x,1/2-y,1/2-z
1/2+x,1/2+y,1/2-z
1/2-x,1/2+y,1/2+z
1/2+x,1/2-y,1/2+z
loop_
_atom_site_type_symbol
_atom_site_label
_atom_site_fract_x
_atom_site_fract_y
_atom_site_fract_z
Si Si1 0.255236 0.397035 0.885930
Si Si2 0.555675 0.749576 0.888495
Si Si3 0.135577 0.104186 0.385841
Si Si4 0.108330 0.390367 0.726832
Si Si5 0.700268 0.892595 0.105457
Si Si6 0.308326 0.600839 0.614033
Si Si7 0.157692 0.706557 0.112619
O O1 0.241944 0.500000 0.847407
O O2 0.309651 0.366910 0.845596
O O3 0.211881 0.328365 0.854155
O O4 0.259542 0.399942 0.000000
O O5 0.500000 0.713247 0.874141
O O6 0.593272 0.672572 0.846534
O O7 0.562147 0.844131 0.827438
O O8 0.566087 0.772179 0.000000
O O9 0.135297 0.107516 0.500000
O O10 0.123537 0.000000 0.350914
O O11 0.100901 0.500000 0.729798
O O12 0.157063 0.353107 0.671721
O O13 0.114392 0.350273 0.834685
O O14 0.753561 0.877736 0.156483
O O15 0.690063 0.000000 0.090638
O O16 0.697701 0.843059 0.000000
O O17 0.300000 0.596481 0.500000
O O18 0.328118 0.500000 0.650450
O O19 0.345706 0.683858 0.639962
O O20 0.149367 0.689910 0.000000
#
# Coordination Sequence:
#
# PCOD8290287 Si02
#       7
#    16  16  16  16  16  16  16
#     4   8  14  26  45  71 105 143 179 212 248 298
#     4  10  22  39  59  82 106 136 178 227 279 333
#     4   8  15  30  53  80 110 144 179 216 262 316
#     4  11  23  36  52  77 107 140 181 229 276 324
#     4   8  15  29  47  68  98 136 176 216 258 307
#     4   8  15  29  48  71 103 144 185 222 262 308
#     4  10  20  33  53  78 107 148 187 221 263 314
#
# _framework density 20.569136
#
# number of rings (size 3 to 8) (size 9 to 14) (size 15 to 20)
#    0.000    3.000    0.000    2.571    2.000    2.857 
#    0.000    2.857    0.000    0.429    0.000    1.000 
#    0.000    0.000    0.000    4.857    0.000    0.143 
#
# Total GULP energy -694035.216928 kJ/mol
# GULP energy per Si atom -12393.486017 kJ/mol
# Density = 2.052232 g / cm^3
# Si number density = 20.569136 Si / 1000 Ang^3
#
#
#
# Elastic Constant Matrix: (Units=GPa)
#
#
# Indices 1 2 3 4 5 6 
#
# 1 69.1304 38.6931 24.3735 0.0000 0.0000 0.0000
# 2 38.6931 111.0202 26.4620 0.0000 0.0000 0.0000
# 3 24.3735 26.4620 37.9638 0.0000 0.0000 0.0000
# 4 0.0000 0.0000 0.0000 19.2997 0.0000 0.0000
# 5 0.0000 0.0000 0.0000 0.0000 22.8116 0.0000
# 6 0.0000 0.0000 0.0000 0.0000 0.0000 22.6884
#
#
#
# Elastic Compliance Matrix: (Units=1/GPa)
#
#
# Indices 1 2 3 4 5 6 
#
# 1 0.020664 -0.004845 -0.009890 0.000000 0.000000 0.000000
# 2 -0.004845 0.011938 -0.005211 0.000000 0.000000 0.000000
# 3 -0.009890 -0.005211 0.036322 0.000000 0.000000 0.000000
# 4 0.000000 0.000000 0.000000 0.051814 0.000000 0.000000
# 5 0.000000 0.000000 0.000000 0.000000 0.043837 0.000000
# 6 0.000000 0.000000 0.000000 0.000000 0.000000 0.044075
#
#
# Mechanical properties :
#
#
# Convention : Reuss Voigt Hill
#
# Bulk Modulus (GPa) = 34.44254 44.13018 39.28636
# Shear Modulus (GPa) = 19.36340 21.53234 20.44787
#
# Velocity S-wave (km/s) = 3.07152 3.23898 3.15636
# Velocity P-wave (km/s) = 5.41850 5.95728 5.69426
#
# Compressibility (1/GPa) = 0.02903387
#
# Stress axis : x y z
#
# Youngs Moduli (GPa) = 48.39368 83.76755 27.53124
#
# Poissons Ratio (x) = 0.40582 0.27228
# Poissons Ratio (y) = 0.23445 0.14346
# Poissons Ratio (z) = 0.47860 0.43649
#
# Static dielectric constant tensor:
#      x y z
#    x 3.378320 0.000000 0.000000 
#    y 0.000000 3.850370 0.000000 
#    z 0.000000 0.000000 3.642000 
# 
# 
# High freq. dielectric constant tensor:
#      x y z
#    x 1.744820 0.000000 0.000000 
#    y 0.000000 1.810940 0.000000 
#    z 0.000000 0.000000 1.794200 
# 
# From -- ./inp_files/40340.got.cif
#   From: 2010.06.25/outbox.cif.g09.slc.cpg/sg71_21_cif.got.tgz:40340.got - 2010.06.28 04:59:45.
