data_PCOD8290057
_publ_section_title
;
Structure prediction by ZEFSAII (Michael W. Deem and Ramdas Pophale) SiO2 
 PCOD8290057
Probable space group: I M M M
;
_chemical_formula_sum "Si O2"
_cell_formula_units_Z 128
_cell_length_a 18.055261
_cell_length_b 18.784243
_cell_length_c 21.901215
_cell_angle_alpha 90.000000
_cell_angle_beta 90.000000
_cell_angle_gamma 90.000000
_cell_volume 7427.893653
_symmetry_space_group_name_H-M "I M M M"
_symmetry_group_IT_number 71
_symmetry_cell_setting 'orthorhombic'
loop_
_space_group_symop_operation_xyz
x,y,z
-x,-y,z
x,-y,-z
-x,y,-z
-x,-y,-z
x,y,-z
-x,y,z
x,-y,z
1/2+x,1/2+y,1/2+z
1/2-x,1/2-y,1/2+z
1/2+x,1/2-y,1/2-z
1/2-x,1/2+y,1/2-z
1/2-x,1/2-y,1/2-z
1/2+x,1/2+y,1/2-z
1/2-x,1/2+y,1/2+z
1/2+x,1/2-y,1/2+z
loop_
_atom_site_type_symbol
_atom_site_label
_atom_site_fract_x
_atom_site_fract_y
_atom_site_fract_z
Si Si1 0.799490 0.918938 0.569071
Si Si2 0.143665 0.580307 0.880377
Si Si3 0.158080 0.289928 0.301250
Si Si4 0.584680 0.781277 0.570057
Si Si5 0.414303 0.417614 0.732181
Si Si6 0.328186 0.292428 0.677077
Si Si7 0.915029 0.841069 0.641979
Si Si8 0.915211 0.579810 0.746509
O O1 0.775005 0.903626 0.500000
O O2 0.729930 0.899881 0.611736
O O3 0.868548 0.869454 0.585100
O O4 0.824671 0.000000 0.578144
O O5 0.127220 0.500000 0.903941
O O6 0.093317 0.634133 0.919029
O O7 0.129125 0.587370 0.809084
O O8 0.240035 0.298432 0.328059
O O9 0.153097 0.260894 0.232133
O O10 0.110629 0.238743 0.344095
O O11 0.120017 0.367255 0.302954
O O12 0.604785 0.763171 0.500000
O O13 0.500000 0.759844 0.584274
O O14 0.639417 0.738053 0.614177
O O15 0.500000 0.405704 0.714370
O O16 0.391228 0.500000 0.725075
O O17 0.363394 0.370354 0.687769
O O18 0.400252 0.393760 0.801476
O O19 0.000000 0.840027 0.622421
O O20 0.908369 0.500000 0.720259
O O21 0.000000 0.600437 0.759345
#
# Coordination Sequence:
#
# PCOD8290057 Si02
#       8
#    16  16  16  16  16  16  16  16
#     4  10  21  35  50  70 102 141 177 216 255 294
#     4  10  20  33  50  71 100 138 175 212 250 292
#     4  10  20  33  52  75 100 133 167 210 266 307
#     4  11  22  34  51  73 102 142 181 218 255 296
#     4   9  18  31  49  73  99 128 162 209 262 309
#     4  10  20  33  50  73 101 131 171 214 257 309
#     4  10  20  33  51  73  99 132 169 212 257 308
#     4  10  20  33  52  78 107 137 166 204 255 309
#
# _framework density 17.232341999999999
#
# number of rings (size 3 to 8) (size 9 to 14) (size 15 to 20)
#    0.000    2.000    1.250    2.625    3.500    4.000 
#    0.000    1.250    0.000    0.375    0.000    1.750 
#    0.000    1.500    0.000    6.875    0.000    0.000 
#
# Total GULP energy -793748.419812 kJ/mol
# GULP energy per Si atom -12402.319060 kJ/mol
# Density = 1.719312 g / cm^3
# Si number density = 17.232342 Si / 1000 Ang^3
#
#
#
# Elastic Constant Matrix: (Units=GPa)
#
#
# Indices 1 2 3 4 5 6 
#
# 1 108.8245 56.9436 41.6971 0.0000 0.0000 0.0000
# 2 56.9436 108.9313 38.5492 0.0000 0.0000 0.0000
# 3 41.6971 38.5492 55.7978 0.0000 0.0000 0.0000
# 4 0.0000 0.0000 0.0000 24.3273 0.0000 0.0000
# 5 0.0000 0.0000 0.0000 0.0000 27.1048 0.0000
# 6 0.0000 0.0000 0.0000 0.0000 0.0000 32.8477
#
#
#
# Elastic Compliance Matrix: (Units=1/GPa)
#
#
# Indices 1 2 3 4 5 6 
#
# 1 0.014696 -0.005024 -0.007511 0.000000 0.000000 0.000000
# 2 -0.005024 0.013869 -0.005827 0.000000 0.000000 0.000000
# 3 -0.007511 -0.005827 0.027560 0.000000 0.000000 0.000000
# 4 0.000000 0.000000 0.000000 0.041106 0.000000 0.000000
# 5 0.000000 0.000000 0.000000 0.000000 0.036894 0.000000
# 6 0.000000 0.000000 0.000000 0.000000 0.000000 0.030444
#
#
# Mechanical properties :
#
#
# Convention : Reuss Voigt Hill
#
# Bulk Modulus (GPa) = 51.54460 60.88147 56.21303
# Shear Modulus (GPa) = 24.06626 25.94686 25.00656
#
# Velocity S-wave (km/s) = 3.74113 3.88455 3.81352
# Velocity P-wave (km/s) = 6.97409 7.45159 7.21679
#
# Compressibility (1/GPa) = 0.01940067
#
# Stress axis : x y z
#
# Youngs Moduli (GPa) = 68.04551 72.10560 36.28391
#
# Poissons Ratio (x) = 0.36228 0.27253
# Poissons Ratio (y) = 0.34188 0.21142
# Poissons Ratio (z) = 0.51110 0.42015
#
# Static dielectric constant tensor:
#      x y z
#    x 3.266290 0.000000 0.000000 
#    y 0.000000 3.293010 0.000000 
#    z 0.000000 0.000000 2.862530 
# 
# 
# High freq. dielectric constant tensor:
#      x y z
#    x 1.677330 0.000000 0.000000 
#    y 0.000000 1.664840 0.000000 
#    z 0.000000 0.000000 1.626000 
# 
# From -- ./inp_files/46680.got.cif
#   From: 2010.06.25/outbox.cif.g09.slc.cpg/sg71_24_cif.got.tgz:46680.got - 2010.06.28 04:59:45.
