data_PCOD8290104
_publ_section_title
;
Structure prediction by ZEFSAII (Michael W. Deem and Ramdas Pophale) SiO2 
 PCOD8290104
Probable space group: I M M M
;
_chemical_formula_sum "Si O2"
_cell_formula_units_Z 104
_cell_length_a 8.999905
_cell_length_b 21.922583
_cell_length_c 27.676023
_cell_angle_alpha 90.000000
_cell_angle_beta 90.000000
_cell_angle_gamma 90.000000
_cell_volume 5460.511563
_symmetry_space_group_name_H-M "I M M M"
_symmetry_group_IT_number 71
_symmetry_cell_setting 'orthorhombic'
loop_
_space_group_symop_operation_xyz
x,y,z
-x,-y,z
x,-y,-z
-x,y,-z
-x,-y,-z
x,y,-z
-x,y,z
x,-y,z
1/2+x,1/2+y,1/2+z
1/2-x,1/2-y,1/2+z
1/2+x,1/2-y,1/2-z
1/2-x,1/2+y,1/2-z
1/2-x,1/2-y,1/2-z
1/2+x,1/2+y,1/2-z
1/2-x,1/2+y,1/2+z
1/2+x,1/2-y,1/2+z
loop_
_atom_site_type_symbol
_atom_site_label
_atom_site_fract_x
_atom_site_fract_y
_atom_site_fract_z
Si Si1 0.176002 0.353118 0.054222
Si Si2 0.672055 0.205319 0.187987
Si Si3 0.323822 0.278135 0.410783
Si Si4 0.674964 0.929108 0.645272
Si Si5 0.672387 0.342146 0.777821
Si Si6 0.834354 0.000000 0.942026
Si Si7 0.338011 0.886198 0.054076
O O1 0.236012 0.288742 0.074744
O O2 0.226067 0.405233 0.092155
O O3 0.000000 0.350399 0.050534
O O4 0.240463 0.365919 0.000000
O O5 0.500000 0.188789 0.183648
O O6 0.756074 0.195143 0.138251
O O7 0.697172 0.275952 0.199753
O O8 0.743592 0.158829 0.226607
O O9 0.500000 0.278310 0.407869
O O10 0.262376 0.325466 0.449737
O O11 0.500000 0.918053 0.652046
O O12 0.758633 0.893081 0.687357
O O13 0.717451 0.000000 0.648661
O O14 0.500000 0.357252 0.769781
O O15 0.750660 0.940935 0.920029
O O16 0.000000 0.000000 0.920644
O O17 0.841325 0.000000 0.000000
O O18 0.500000 0.875041 0.079051
O O19 0.366829 0.908081 0.000000
#
# Coordination Sequence:
#
# PCOD8290104 Si02
#       7
#    16  16  16  16  16   8  16
#     4   9  18  32  51  79 115 152 193 243 289 330
#     4  10  20  34  56  83 110 138 174 220 276 338
#     4  11  20  32  53  80 113 148 186 231 283 339
#     4  10  20  35  57  83 113 152 197 242 289 342
#     4  10  20  35  57  83 110 139 176 223 277 335
#     4   9  17  31  51  73  97 131 179 225 263 313
#     4  10  20  33  50  74 106 143 182 224 273 329
#
# _framework density 19.045836000000001
#
# number of rings (size 3 to 8) (size 9 to 14) (size 15 to 20)
#    0.000    2.077    1.538    2.538    0.000    4.308 
#    0.000    1.538    1.692    1.385    0.000    1.077 
#    0.000    0.000    0.000    0.000    0.000    0.000 
#
# Total GULP energy -644566.909467 kJ/mol
# GULP energy per Si atom -12395.517490 kJ/mol
# Density = 1.900249 g / cm^3
# Si number density = 19.045836 Si / 1000 Ang^3
#
#
#
# Elastic Constant Matrix: (Units=GPa)
#
#
# Indices 1 2 3 4 5 6 
#
# 1 91.1943 61.3464 47.1344 0.0000 0.0000 0.0000
# 2 61.3464 119.0372 45.2412 0.0000 0.0000 0.0000
# 3 47.1344 45.2412 104.7161 0.0000 0.0000 0.0000
# 4 0.0000 0.0000 0.0000 15.0547 0.0000 0.0000
# 5 0.0000 0.0000 0.0000 0.0000 26.4602 0.0000
# 6 0.0000 0.0000 0.0000 0.0000 0.0000 27.3619
#
#
#
# Elastic Compliance Matrix: (Units=1/GPa)
#
#
# Indices 1 2 3 4 5 6 
#
# 1 0.018834 -0.007758 -0.005126 0.000000 0.000000 0.000000
# 2 -0.007758 0.013247 -0.002231 0.000000 0.000000 0.000000
# 3 -0.005126 -0.002231 0.012821 0.000000 0.000000 0.000000
# 4 0.000000 0.000000 0.000000 0.066425 0.000000 0.000000
# 5 0.000000 0.000000 0.000000 0.000000 0.037793 0.000000
# 6 0.000000 0.000000 0.000000 0.000000 0.000000 0.036547
#
#
# Mechanical properties :
#
#
# Convention : Reuss Voigt Hill
#
# Bulk Modulus (GPa) = 68.15831 69.15464 68.65647
# Shear Modulus (GPa) = 22.64645 24.52373 23.58509
#
# Velocity S-wave (km/s) = 3.45200 3.59223 3.52281
# Velocity P-wave (km/s) = 7.19393 7.32079 7.25763
#
# Compressibility (1/GPa) = 0.01467173
#
# Stress axis : x y z
#
# Youngs Moduli (GPa) = 53.09668 75.48996 77.99914
#
# Poissons Ratio (x) = 0.58565 0.39979
# Poissons Ratio (y) = 0.41192 0.17403
# Poissons Ratio (z) = 0.27215 0.16843
#
# Static dielectric constant tensor:
#      x y z
#    x 3.520680 0.000000 0.000000 
#    y 0.000000 3.472800 0.000000 
#    z 0.000000 0.000000 3.490190 
# 
# 
# High freq. dielectric constant tensor:
#      x y z
#    x 1.736190 0.000000 0.000000 
#    y 0.000000 1.731000 0.000000 
#    z 0.000000 0.000000 1.728860 
# 
# From -- ./inp_files/11085.got.cif
#   From: 2010.06.25/outbox.cif.g09.slc.cpg/sg71_6_cif.got.tgz:11085.got - 2010.06.28 04:59:45.
