data_PCOD8290988
_publ_section_title
;
Structure prediction by ZEFSAII (Michael W. Deem and Ramdas Pophale) SiO2 
 PCOD8290988
Probable space group: I M M M
;
_chemical_formula_sum "Si O2"
_cell_formula_units_Z 104
_cell_length_a 28.085935
_cell_length_b 9.076180
_cell_length_c 21.088621
_cell_angle_alpha 90.000000
_cell_angle_beta 90.000000
_cell_angle_gamma 90.000000
_cell_volume 5375.763677
_symmetry_space_group_name_H-M "I M M M"
_symmetry_group_IT_number 71
_symmetry_cell_setting 'orthorhombic'
loop_
_space_group_symop_operation_xyz
x,y,z
-x,-y,z
x,-y,-z
-x,y,-z
-x,-y,-z
x,y,-z
-x,y,z
x,-y,z
1/2+x,1/2+y,1/2+z
1/2-x,1/2-y,1/2+z
1/2+x,1/2-y,1/2-z
1/2-x,1/2+y,1/2-z
1/2-x,1/2-y,1/2-z
1/2+x,1/2+y,1/2-z
1/2-x,1/2+y,1/2+z
1/2+x,1/2-y,1/2+z
loop_
_atom_site_type_symbol
_atom_site_label
_atom_site_fract_x
_atom_site_fract_y
_atom_site_fract_z
Si Si1 0.862717 0.173717 0.738896
Si Si2 0.445888 0.825630 0.000000
Si Si3 0.894224 0.326729 0.929507
Si Si4 0.870855 0.674526 0.395617
Si Si5 0.447114 0.331071 0.329403
Si Si6 0.307385 0.172968 0.342066
Si Si7 0.721477 0.668368 0.069999
O O1 0.870216 0.243821 0.670926
O O2 0.910524 0.219306 0.775583
O O3 0.816765 0.239988 0.776195
O O4 0.855059 0.000000 0.732196
O O5 0.416885 0.775297 0.937042
O O6 0.500000 0.759322 0.000000
O O7 0.448919 0.000000 0.000000
O O8 0.899823 0.500000 0.931616
O O9 0.939774 0.260870 0.893566
O O10 0.846826 0.278179 0.892829
O O11 0.891915 0.260515 0.000000
O O12 0.870632 0.500000 0.385617
O O13 0.823330 0.723290 0.431893
O O14 0.500000 0.301710 0.303138
O O15 0.438732 0.500000 0.347064
O O16 0.257239 0.217594 0.373875
O O17 0.309747 0.000000 0.327469
O O18 0.705137 0.500000 0.082911
O O19 0.745930 0.677829 0.000000
#
# Coordination Sequence:
#
# PCOD8290988 Si02
#       7
#    16   8  16  16  16  16  16
#     4  10  21  37  56  79 109 144 183 230 277 326
#     4   9  20  40  63  87 115 145 181 227 280 339
#     4   9  17  30  49  74 105 138 178 226 269 313
#     4  11  22  38  60  85 112 143 178 221 274 330
#     4   9  19  35  52  71 100 138 178 222 273 326
#     4   9  18  34  55  80 109 147 188 224 268 322
#     4  10  20  35  58  85 115 148 183 225 273 325
#
# _framework density 19.346088000000002
#
# number of rings (size 3 to 8) (size 9 to 14) (size 15 to 20)
#    0.000    2.385    0.769    1.385    0.000    5.231 
#    0.000    1.538    0.000    6.000    0.000    0.000 
#    0.000    0.000    0.000    0.000    0.000    0.000 
#
# Total GULP energy -644656.894041 kJ/mol
# GULP energy per Si atom -12397.247962 kJ/mol
# Density = 1.930206 g / cm^3
# Si number density = 19.346088 Si / 1000 Ang^3
#
#
#
# Elastic Constant Matrix: (Units=GPa)
#
#
# Indices 1 2 3 4 5 6 
#
# 1 113.2178 34.2253 54.2832 0.0000 0.0000 0.0000
# 2 34.2253 52.6496 45.7355 0.0000 0.0000 0.0000
# 3 54.2832 45.7355 151.6709 0.0000 0.0000 0.0000
# 4 0.0000 0.0000 0.0000 26.3230 0.0000 0.0000
# 5 0.0000 0.0000 0.0000 0.0000 26.0261 0.0000
# 6 0.0000 0.0000 0.0000 0.0000 0.0000 27.9892
#
#
#
# Elastic Compliance Matrix: (Units=1/GPa)
#
#
# Indices 1 2 3 4 5 6 
#
# 1 0.011684 -0.005369 -0.002563 0.000000 0.000000 0.000000
# 2 -0.005369 0.028202 -0.006582 0.000000 0.000000 0.000000
# 3 -0.002563 -0.006582 0.009495 0.000000 0.000000 0.000000
# 4 0.000000 0.000000 0.000000 0.037990 0.000000 0.000000
# 5 0.000000 0.000000 0.000000 0.000000 0.038423 0.000000
# 6 0.000000 0.000000 0.000000 0.000000 0.000000 0.035728
#
#
# Mechanical properties :
#
#
# Convention : Reuss Voigt Hill
#
# Bulk Modulus (GPa) = 49.13386 65.11402 57.12394
# Shear Modulus (GPa) = 25.33756 28.28727 26.81242
#
# Velocity S-wave (km/s) = 3.62290 3.82798 3.72685
# Velocity P-wave (km/s) = 6.55386 7.29852 6.93619
#
# Compressibility (1/GPa) = 0.02035256
#
# Stress axis : x y z
#
# Youngs Moduli (GPa) = 85.58414 35.45864 105.31487
#
# Poissons Ratio (x) = 0.19039 0.26990
# Poissons Ratio (y) = 0.45953 0.69323
# Poissons Ratio (z) = 0.21933 0.23340
#
# Static dielectric constant tensor:
#      x y z
#    x 3.693690 0.000000 0.000000 
#    y 0.000000 3.413270 0.000000 
#    z 0.000000 0.000000 3.704860 
# 
# 
# High freq. dielectric constant tensor:
#      x y z
#    x 1.747890 0.000000 0.000000 
#    y 0.000000 1.739870 0.000000 
#    z 0.000000 0.000000 1.762360 
# 
# From -- ./inp_files/11158.got.cif
#   From: 2010.06.25/outbox.cif.g09.slc.cpg/sg71_6_cif.got.tgz:11158.got - 2010.06.28 04:59:45.
