data_PCOD8290868
_publ_section_title
;
Structure prediction by ZEFSAII (Michael W. Deem and Ramdas Pophale) SiO2 
 PCOD8290868
Probable space group: I M M M
;
_chemical_formula_sum "Si O2"
_cell_formula_units_Z 64
_cell_length_a 9.445855
_cell_length_b 12.559768
_cell_length_c 29.506134
_cell_angle_alpha 90.000000
_cell_angle_beta 90.000000
_cell_angle_gamma 90.000000
_cell_volume 3500.541271
_symmetry_space_group_name_H-M "I M M M"
_symmetry_group_IT_number 71
_symmetry_cell_setting 'orthorhombic'
loop_
_space_group_symop_operation_xyz
x,y,z
-x,-y,z
x,-y,-z
-x,y,-z
-x,-y,-z
x,y,-z
-x,y,z
x,-y,z
1/2+x,1/2+y,1/2+z
1/2-x,1/2-y,1/2+z
1/2+x,1/2-y,1/2-z
1/2-x,1/2+y,1/2-z
1/2-x,1/2-y,1/2-z
1/2+x,1/2+y,1/2-z
1/2-x,1/2+y,1/2+z
1/2+x,1/2-y,1/2+z
loop_
_atom_site_type_symbol
_atom_site_label
_atom_site_fract_x
_atom_site_fract_y
_atom_site_fract_z
Si Si1 0.333253 0.212316 0.076304
Si Si2 0.335887 0.776860 0.820991
Si Si3 0.843811 0.118485 0.755045
Si Si4 0.838785 0.000000 0.946738
Si Si5 0.667164 0.378021 0.000000
O O1 0.500000 0.187553 0.068849
O O2 0.298828 0.249979 0.127247
O O3 0.245547 0.105056 0.068224
O O4 0.283603 0.309651 0.043921
O O5 0.500000 0.802774 0.816512
O O6 0.250806 0.877186 0.800709
O O7 0.283378 0.681468 0.788439
O O8 0.000000 0.160813 0.767640
O O9 0.849171 0.000000 0.737095
O O10 0.000000 0.000000 0.926775
O O11 0.847651 0.000000 0.000000
O O12 0.730782 0.500000 0.000000
O O13 0.500000 0.389093 0.000000
#
# Coordination Sequence:
#
# PCOD8290868 Si02
#       5
#    16  16  16   8   8
#     4  10  20  35  56  81 109 140 177 220 269 318
#     4   9  19  33  50  75 103 134 172 214 257 307
#     4   9  18  33  51  72 102 138 173 212 258 305
#     4  11  23  37  55  79 109 143 179 221 269 322
#     4   9  18  33  55  82 108 135 172 219 264 311
#
# _framework density 18.282886999999999
#
# number of rings (size 3 to 8) (size 9 to 14) (size 15 to 20)
#    0.000    2.500    1.250    0.375    1.750    3.000 
#    0.000    5.000    0.000    1.500    0.000    3.500 
#    0.000    0.000    0.000    0.000    0.000    0.000 
#
# Total GULP energy -396499.568075 kJ/mol
# GULP energy per Si atom -12390.611502 kJ/mol
# Density = 1.824127 g / cm^3
# Si number density = 18.282887 Si / 1000 Ang^3
#
#
#
# Elastic Constant Matrix: (Units=GPa)
#
#
# Indices 1 2 3 4 5 6 
#
# 1 56.4738 44.7179 48.8628 0.0000 0.0000 0.0000
# 2 44.7179 120.0546 60.8981 0.0000 0.0000 0.0000
# 3 48.8628 60.8981 152.8397 0.0000 0.0000 0.0000
# 4 0.0000 0.0000 0.0000 17.0568 0.0000 0.0000
# 5 0.0000 0.0000 0.0000 0.0000 23.8377 0.0000
# 6 0.0000 0.0000 0.0000 0.0000 0.0000 18.8447
#
#
#
# Elastic Compliance Matrix: (Units=1/GPa)
#
#
# Indices 1 2 3 4 5 6 
#
# 1 0.029242 -0.007708 -0.006278 0.000000 0.000000 0.000000
# 2 -0.007708 0.012471 -0.002505 0.000000 0.000000 0.000000
# 3 -0.006278 -0.002505 0.009548 0.000000 0.000000 0.000000
# 4 0.000000 0.000000 0.000000 0.058628 0.000000 0.000000
# 5 0.000000 0.000000 0.000000 0.000000 0.041950 0.000000
# 6 0.000000 0.000000 0.000000 0.000000 0.000000 0.053065
#
#
# Mechanical properties :
#
#
# Convention : Reuss Voigt Hill
#
# Bulk Modulus (GPa) = 54.70280 70.92510 62.81395
# Shear Modulus (GPa) = 20.49360 23.60712 22.05036
#
# Velocity S-wave (km/s) = 3.35164 3.59725 3.47661
# Velocity P-wave (km/s) = 6.70546 7.49206 7.10965
#
# Compressibility (1/GPa) = 0.01828060
#
# Stress axis : x y z
#
# Youngs Moduli (GPa) = 34.19722 80.18507 104.73623
#
# Poissons Ratio (x) = 0.61805 0.65749
# Poissons Ratio (y) = 0.26359 0.26235
# Poissons Ratio (z) = 0.21468 0.20085
#
# Static dielectric constant tensor:
#      x y z
#    x 3.445370 0.000000 0.000000 
#    y 0.000000 3.463350 0.000000 
#    z 0.000000 0.000000 3.603660 
# 
# 
# High freq. dielectric constant tensor:
#      x y z
#    x 1.691690 0.000000 0.000000 
#    y 0.000000 1.704500 0.000000 
#    z 0.000000 0.000000 1.715510 
# 
# From -- ./inp_files/67720.got.cif
#   From: 2010.06.25/outbox.cif.g09.slc.cpg/sg71_34_cif.got.tgz:67720.got - 2010.06.28 04:59:45.
