data_PCOD8290288
_publ_section_title
;
Structure prediction by ZEFSAII (Michael W. Deem and Ramdas Pophale) SiO2 
 PCOD8290288
Probable space group: I M M M
;
_chemical_formula_sum "Si O2"
_cell_formula_units_Z 72
_cell_length_a 30.327540
_cell_length_b 12.617487
_cell_length_c 10.897383
_cell_angle_alpha 90.000000
_cell_angle_beta 90.000000
_cell_angle_gamma 90.000000
_cell_volume 4169.963610
_symmetry_space_group_name_H-M "I M M M"
_symmetry_group_IT_number 71
_symmetry_cell_setting 'orthorhombic'
loop_
_space_group_symop_operation_xyz
x,y,z
-x,-y,z
x,-y,-z
-x,y,-z
-x,-y,-z
x,y,-z
-x,y,z
x,-y,z
1/2+x,1/2+y,1/2+z
1/2-x,1/2-y,1/2+z
1/2+x,1/2-y,1/2-z
1/2-x,1/2+y,1/2-z
1/2-x,1/2-y,1/2-z
1/2+x,1/2+y,1/2-z
1/2-x,1/2+y,1/2+z
1/2+x,1/2-y,1/2+z
loop_
_atom_site_type_symbol
_atom_site_label
_atom_site_fract_x
_atom_site_fract_y
_atom_site_fract_z
Si Si1 0.321885 0.754463 0.700608
Si Si2 0.947974 0.722673 0.000000
Si Si3 0.870504 0.125190 0.000000
Si Si4 0.049287 0.625929 0.500000
Si Si5 0.760999 0.883603 0.363201
Si Si6 0.091350 0.374503 0.246452
O O1 0.343695 0.665763 0.616318
O O2 0.286678 0.828530 0.633062
O O3 0.297771 0.691826 0.807407
O O4 0.359100 0.832399 0.750504
O O5 0.935247 0.659646 0.124137
O O6 0.920721 0.832248 0.000000
O O7 0.000000 0.746412 0.000000
O O8 0.872594 0.000000 0.000000
O O9 0.051343 0.500000 0.500000
O O10 0.070478 0.669353 0.626554
O O11 0.000000 0.669331 0.500000
O O12 0.776987 0.901379 0.500000
O O13 0.758231 0.000000 0.297828
O O14 0.092186 0.500000 0.245939
#
# Coordination Sequence:
#
# PCOD8290288 Si02
#       6
#    16   8   8   8  16  16
#     4  10  20  34  52  76 103 135 173 213 256 311
#     4  10  21  35  54  82 105 135 176 217 262 315
#     4  10  20  36  54  75 104 135 169 215 265 313
#     4   9  18  32  49  72 103 138 168 201 251 307
#     4  10  20  34  53  74 102 136 172 215 258 303
#     4  10  20  33  53  78 108 140 172 213 259 311
#
# _framework density 17.266338000000001
#
# number of rings (size 3 to 8) (size 9 to 14) (size 15 to 20)
#    0.000    2.111    1.111    2.333    1.556    2.000 
#    0.000    0.000    0.000    0.000    0.000    0.000 
#    0.000    9.333    0.000    0.000    0.000    0.000 
#
# Total GULP energy -446175.242286 kJ/mol
# GULP energy per Si atom -12393.756730 kJ/mol
# Density = 1.722704 g / cm^3
# Si number density = 17.266338 Si / 1000 Ang^3
#
#
#
# Elastic Constant Matrix: (Units=GPa)
#
#
# Indices 1 2 3 4 5 6 
#
# 1 130.8094 24.7120 49.1745 0.0000 0.0000 0.0000
# 2 24.7120 67.3696 23.5251 0.0000 0.0000 0.0000
# 3 49.1745 23.5251 119.4862 0.0000 0.0000 0.0000
# 4 0.0000 0.0000 0.0000 13.1184 0.0000 0.0000
# 5 0.0000 0.0000 0.0000 0.0000 3.7959 0.0000
# 6 0.0000 0.0000 0.0000 0.0000 0.0000 20.7266
#
#
#
# Elastic Compliance Matrix: (Units=1/GPa)
#
#
# Indices 1 2 3 4 5 6 
#
# 1 0.009348 -0.002240 -0.003406 0.000000 0.000000 0.000000
# 2 -0.002240 0.016476 -0.002322 0.000000 0.000000 0.000000
# 3 -0.003406 -0.002322 0.010228 0.000000 0.000000 0.000000
# 4 0.000000 0.000000 0.000000 0.076229 0.000000 0.000000
# 5 0.000000 0.000000 0.000000 0.000000 0.263440 0.000000
# 6 0.000000 0.000000 0.000000 0.000000 0.000000 0.048247
#
#
# Mechanical properties :
#
#
# Convention : Reuss Voigt Hill
#
# Bulk Modulus (GPa) = 49.71107 56.94315 53.32711
# Shear Modulus (GPa) = 11.19545 22.21175 16.70360
#
# Velocity S-wave (km/s) = 2.54913 3.59056 3.11369
# Velocity P-wave (km/s) = 6.12514 7.08804 6.62411
#
# Compressibility (1/GPa) = 0.02011625
#
# Stress axis : x y z
#
# Youngs Moduli (GPa) = 106.97079 60.69472 97.76848
#
# Poissons Ratio (x) = 0.13593 0.33303
# Poissons Ratio (y) = 0.23957 0.22703
# Poissons Ratio (z) = 0.36438 0.14094
#
# Static dielectric constant tensor:
#      x y z
#    x 3.286960 0.000000 0.000000 
#    y 0.000000 3.154090 0.000000 
#    z 0.000000 0.000000 3.325310 
# 
# 
# High freq. dielectric constant tensor:
#      x y z
#    x 1.674200 0.000000 0.000000 
#    y 0.000000 1.657240 0.000000 
#    z 0.000000 0.000000 1.673800 
# 
# From -- ./inp_files/16410.got.cif
#   From: 2010.06.25/outbox.cif.g09.slc.cpg/sg71_9_cif.got.tgz:16410.got - 2010.06.28 04:59:45.
