data_PCOD8290414
_publ_section_title
;
Structure prediction by ZEFSAII (Michael W. Deem and Ramdas Pophale) SiO2 
 PCOD8290414
Probable space group: I M M M
;
_chemical_formula_sum "Si O2"
_cell_formula_units_Z 104
_cell_length_a 26.092649
_cell_length_b 9.314412
_cell_length_c 23.724387
_cell_angle_alpha 90.000000
_cell_angle_beta 90.000000
_cell_angle_gamma 90.000000
_cell_volume 5765.920046
_symmetry_space_group_name_H-M "I M M M"
_symmetry_group_IT_number 71
_symmetry_cell_setting 'orthorhombic'
loop_
_space_group_symop_operation_xyz
x,y,z
-x,-y,z
x,-y,-z
-x,y,-z
-x,-y,-z
x,y,-z
-x,y,z
x,-y,z
1/2+x,1/2+y,1/2+z
1/2-x,1/2-y,1/2+z
1/2+x,1/2-y,1/2-z
1/2-x,1/2+y,1/2-z
1/2-x,1/2-y,1/2-z
1/2+x,1/2+y,1/2-z
1/2-x,1/2+y,1/2+z
1/2+x,1/2-y,1/2+z
loop_
_atom_site_type_symbol
_atom_site_label
_atom_site_fract_x
_atom_site_fract_y
_atom_site_fract_z
Si Si1 0.500000 0.838375 0.932872
Si Si2 0.172865 0.834271 0.339132
Si Si3 0.558957 0.666916 0.656770
Si Si4 0.359680 0.332646 0.564074
Si Si5 0.096322 0.836241 0.563831
Si Si6 0.712366 0.166214 0.641214
Si Si7 0.629989 0.167483 0.735837
O O1 0.550722 0.759624 0.910218
O O2 0.500000 0.000000 0.909722
O O3 0.500000 0.831491 0.000000
O O4 0.147315 0.813914 0.400033
O O5 0.230859 0.777768 0.344649
O O6 0.141543 0.738585 0.295489
O O7 0.171600 0.000000 0.319197
O O8 0.500000 0.706849 0.646070
O O9 0.565858 0.500000 0.672015
O O10 0.589704 0.706914 0.599881
O O11 0.579781 0.759454 0.709018
O O12 0.369788 0.283739 0.500000
O O13 0.347358 0.500000 0.567871
O O14 0.310104 0.251186 0.587991
O O15 0.109833 0.790174 0.500000
O O16 0.077224 0.000000 0.566077
O O17 0.678603 0.196118 0.696185
O O18 0.713225 0.000000 0.624303
O O19 0.618791 0.000000 0.744187
#
# Coordination Sequence:
#
# PCOD8290414 Si02
#       7
#     8  16  16  16  16  16  16
#     4   9  17  31  51  71  93 123 155 189 234 287
#     4  10  20  34  53  77 101 130 171 212 250 301
#     4   9  18  34  55  76 102 139 178 217 260 306
#     4   9  18  32  51  78 109 139 174 215 260 309
#     4   9  18  33  52  73  97 126 161 201 244 291
#     4   9  19  34  52  74 102 137 173 210 253 302
#     4  10  20  34  52  75 103 134 169 212 261 308
#
# _framework density 18.037016999999999
#
# number of rings (size 3 to 8) (size 9 to 14) (size 15 to 20)
#    0.000    2.692    0.000    1.154    0.000    4.308 
#    1.385    3.077    0.000    1.846    0.000    4.308 
#    0.000    0.000    0.000    0.000    0.000    0.000 
#
# Total GULP energy -644925.057115 kJ/mol
# GULP energy per Si atom -12402.404945 kJ/mol
# Density = 1.799596 g / cm^3
# Si number density = 18.037017 Si / 1000 Ang^3
#
#
#
# Elastic Constant Matrix: (Units=GPa)
#
#
# Indices 1 2 3 4 5 6 
#
# 1 87.1996 39.8492 48.6675 0.0000 0.0000 0.0000
# 2 39.8492 70.6960 46.5489 0.0000 0.0000 0.0000
# 3 48.6675 46.5489 103.1041 0.0000 0.0000 0.0000
# 4 0.0000 0.0000 0.0000 26.7880 0.0000 0.0000
# 5 0.0000 0.0000 0.0000 0.0000 18.3128 0.0000
# 6 0.0000 0.0000 0.0000 0.0000 0.0000 27.1525
#
#
#
# Elastic Compliance Matrix: (Units=1/GPa)
#
#
# Indices 1 2 3 4 5 6 
#
# 1 0.017303 -0.006226 -0.005356 0.000000 0.000000 0.000000
# 2 -0.006226 0.022369 -0.007160 0.000000 0.000000 0.000000
# 3 -0.005356 -0.007160 0.015460 0.000000 0.000000 0.000000
# 4 0.000000 0.000000 0.000000 0.037330 0.000000 0.000000
# 5 0.000000 0.000000 0.000000 0.000000 0.054607 0.000000
# 6 0.000000 0.000000 0.000000 0.000000 0.000000 0.036829
#
#
# Mechanical properties :
#
#
# Convention : Reuss Voigt Hill
#
# Bulk Modulus (GPa) = 56.66905 59.01454 57.84179
# Shear Modulus (GPa) = 22.00076 22.84627 22.42351
#
# Velocity S-wave (km/s) = 3.49629 3.56284 3.52972
# Velocity P-wave (km/s) = 6.91268 7.05086 6.98211
#
# Compressibility (1/GPa) = 0.01764632
#
# Stress axis : x y z
#
# Youngs Moduli (GPa) = 57.79451 44.70442 64.68366
#
# Poissons Ratio (x) = 0.27834 0.34646
# Poissons Ratio (y) = 0.35984 0.46315
# Poissons Ratio (z) = 0.30956 0.32009
#
# Static dielectric constant tensor:
#      x y z
#    x 3.347710 0.000000 0.000000 
#    y 0.000000 3.338340 0.000000 
#    z 0.000000 0.000000 3.248730 
# 
# 
# High freq. dielectric constant tensor:
#      x y z
#    x 1.698830 0.000000 0.000000 
#    y 0.000000 1.695920 0.000000 
#    z 0.000000 0.000000 1.689120 
# 
# From -- ./inp_files/13282.got.cif
#   From: 2010.06.25/outbox.cif.g09.slc.cpg/sg71_7_cif.got.tgz:13282.got - 2010.06.28 04:59:45.
