data_PCOD8290179
_publ_section_title
;
Structure prediction by ZEFSAII (Michael W. Deem and Ramdas Pophale) SiO2 
 PCOD8290179
Probable space group: I M M M
;
_chemical_formula_sum "Si O2"
_cell_formula_units_Z 104
_cell_length_a 9.188874
_cell_length_b 22.141217
_cell_length_c 26.475232
_cell_angle_alpha 90.000000
_cell_angle_beta 90.000000
_cell_angle_gamma 90.000000
_cell_volume 5386.461490
_symmetry_space_group_name_H-M "I M M M"
_symmetry_group_IT_number 71
_symmetry_cell_setting 'orthorhombic'
loop_
_space_group_symop_operation_xyz
x,y,z
-x,-y,z
x,-y,-z
-x,y,-z
-x,-y,-z
x,y,-z
-x,y,z
x,-y,z
1/2+x,1/2+y,1/2+z
1/2-x,1/2-y,1/2+z
1/2+x,1/2-y,1/2-z
1/2-x,1/2+y,1/2-z
1/2-x,1/2-y,1/2-z
1/2+x,1/2+y,1/2-z
1/2-x,1/2+y,1/2+z
1/2+x,1/2-y,1/2+z
loop_
_atom_site_type_symbol
_atom_site_label
_atom_site_fract_x
_atom_site_fract_y
_atom_site_fract_z
Si Si1 0.171702 0.934967 0.612521
Si Si2 0.827259 0.931813 0.725579
Si Si3 0.669355 0.284326 0.391184
Si Si4 0.661452 0.887439 0.940715
Si Si5 0.170372 0.807200 0.224896
Si Si6 0.170992 0.181864 0.557694
Si Si7 0.837177 0.000000 0.060402
O O1 0.230816 0.920122 0.668700
O O2 0.216064 0.886657 0.570343
O O3 0.000000 0.937792 0.617480
O O4 0.232756 0.000000 0.594572
O O5 0.769437 0.873528 0.757561
O O6 0.000000 0.931466 0.728628
O O7 0.774487 0.000000 0.743633
O O8 0.500000 0.285363 0.404302
O O9 0.753341 0.326720 0.430018
O O10 0.700895 0.304375 0.334480
O O11 0.735114 0.218935 0.402127
O O12 0.500000 0.886063 0.916525
O O13 0.753339 0.942387 0.917383
O O14 0.647207 0.896290 0.000000
O O15 0.250000 0.750000 0.250000
O O16 0.000000 0.800698 0.237615
O O17 0.214020 0.196163 0.500000
O O18 0.000000 0.194011 0.566611
O O19 0.000000 0.000000 0.082673
O O20 0.841770 0.000000 0.000000
#
# Coordination Sequence:
#
# PCOD8290179 Si02
#       7
#    16  16  16  16  16  16   8
#     4   8  14  26  48  78 106 131 163 208 261 316
#     4   8  14  28  51  76 102 133 170 211 259 318
#     4  11  23  36  50  75 106 138 180 224 270 321
#     4  10  20  35  55  77 103 138 180 222 265 316
#     4  10  21  36  55  80 106 137 178 220 270 326
#     4  10  20  33  51  76 105 139 178 218 265 320
#     4   9  17  31  53  79 105 135 171 213 263 313
#
# _framework density 19.307666999999999
#
# number of rings (size 3 to 8) (size 9 to 14) (size 15 to 20)
#    0.000    2.538    0.000    3.462    0.000    6.769 
#    1.385    1.538    0.000    0.923    0.000    5.385 
#    0.000    0.000    0.000    0.000    0.000    0.000 
#
# Total GULP energy -644393.233880 kJ/mol
# GULP energy per Si atom -12392.177575 kJ/mol
# Density = 1.926372 g / cm^3
# Si number density = 19.307667 Si / 1000 Ang^3
#
#
#
# Elastic Constant Matrix: (Units=GPa)
#
#
# Indices 1 2 3 4 5 6 
#
# 1 81.4563 49.5140 30.4779 0.0000 0.0000 0.0000
# 2 49.5140 144.3888 40.4805 0.0000 0.0000 0.0000
# 3 30.4779 40.4805 56.1497 0.0000 0.0000 0.0000
# 4 0.0000 0.0000 0.0000 31.9947 0.0000 0.0000
# 5 0.0000 0.0000 0.0000 0.0000 19.9398 0.0000
# 6 0.0000 0.0000 0.0000 0.0000 0.0000 23.3854
#
#
#
# Elastic Compliance Matrix: (Units=1/GPa)
#
#
# Indices 1 2 3 4 5 6 
#
# 1 0.017144 -0.004099 -0.006351 0.000000 0.000000 0.000000
# 2 -0.004099 0.009660 -0.004740 0.000000 0.000000 0.000000
# 3 -0.006351 -0.004740 0.024674 0.000000 0.000000 0.000000
# 4 0.000000 0.000000 0.000000 0.031255 0.000000 0.000000
# 5 0.000000 0.000000 0.000000 0.000000 0.050151 0.000000
# 6 0.000000 0.000000 0.000000 0.000000 0.000000 0.042762
#
#
# Mechanical properties :
#
#
# Convention : Reuss Voigt Hill
#
# Bulk Modulus (GPa) = 47.39407 58.10441 52.74924
# Shear Modulus (GPa) = 23.46784 25.83213 24.64999
#
# Velocity S-wave (km/s) = 3.49014 3.66173 3.57696
# Velocity P-wave (km/s) = 6.39073 6.93087 6.66627
#
# Compressibility (1/GPa) = 0.02109968
#
# Stress axis : x y z
#
# Youngs Moduli (GPa) = 58.32883 103.51957 40.52879
#
# Poissons Ratio (x) = 0.42428 0.25740
# Poissons Ratio (y) = 0.23906 0.19209
# Poissons Ratio (z) = 0.37045 0.49064
#
# Static dielectric constant tensor:
#      x y z
#    x 3.338920 0.000000 0.000000 
#    y 0.000000 4.184650 0.000000 
#    z 0.000000 0.000000 3.376270 
# 
# 
# High freq. dielectric constant tensor:
#      x y z
#    x 1.716490 0.000000 0.000000 
#    y 0.000000 1.772650 0.000000 
#    z 0.000000 0.000000 1.732450 
# 
# From -- ./inp_files/63550.got.cif
#   From: 2010.06.25/outbox.cif.g09.slc.cpg/sg71_32_cif.got.tgz:63550.got - 2010.06.28 04:59:45.
