data_PCOD8290075
_publ_section_title
;
Structure prediction by ZEFSAII (Michael W. Deem and Ramdas Pophale) SiO2 
 PCOD8290075
Probable space group: I M M M
;
_chemical_formula_sum "Si O2"
_cell_formula_units_Z 80
_cell_length_a 27.695768
_cell_length_b 17.552747
_cell_length_c 9.336278
_cell_angle_alpha 90.000000
_cell_angle_beta 90.000000
_cell_angle_gamma 90.000000
_cell_volume 4538.708392
_symmetry_space_group_name_H-M "I M M M"
_symmetry_group_IT_number 71
_symmetry_cell_setting 'orthorhombic'
loop_
_space_group_symop_operation_xyz
x,y,z
-x,-y,z
x,-y,-z
-x,y,-z
-x,-y,-z
x,y,-z
-x,y,z
x,-y,z
1/2+x,1/2+y,1/2+z
1/2-x,1/2-y,1/2+z
1/2+x,1/2-y,1/2-z
1/2-x,1/2+y,1/2-z
1/2-x,1/2-y,1/2-z
1/2+x,1/2+y,1/2-z
1/2-x,1/2+y,1/2+z
1/2+x,1/2-y,1/2+z
loop_
_atom_site_type_symbol
_atom_site_label
_atom_site_fract_x
_atom_site_fract_y
_atom_site_fract_z
Si Si1 0.055093 0.236431 0.332763
Si Si2 0.104990 0.083924 0.664464
Si Si3 0.859603 0.693946 0.832166
Si Si4 0.310416 0.648468 0.665899
Si Si5 0.292499 0.910941 0.165893
O O1 0.064944 0.251771 0.500000
O O2 0.066089 0.148226 0.292589
O O3 0.088350 0.291964 0.239261
O O4 0.000000 0.253656 0.291923
O O5 0.119663 0.093386 0.500000
O O6 0.154164 0.091842 0.752137
O O7 0.082635 0.000000 0.694342
O O8 0.823964 0.764406 0.799552
O O9 0.836599 0.619192 0.761435
O O10 0.867158 0.680367 0.000000
O O11 0.316469 0.629174 0.500000
O O12 0.255951 0.632438 0.715909
O O13 0.286055 0.000000 0.194622
O O14 0.303869 0.893937 0.000000
#
# Coordination Sequence:
#
# PCOD8290075 Si02
#       5
#    16  16  16  16  16
#     4   9  18  33  52  71  93 126 165 202 242 289
#     4   9  17  28  44  70 102 132 163 200 238 276
#     4  10  20  33  51  74  99 127 160 201 243 283
#     4   9  18  32  49  70  98 134 169 195 228 278
#     4  10  20  33  50  72  99 131 164 197 235 283
#
# _framework density 17.626159000000001
#
# number of rings (size 3 to 8) (size 9 to 14) (size 15 to 20)
#    0.000    2.600    0.000    1.800    0.000    4.000 
#    0.000    2.000    0.000    0.600    0.000    9.800 
#    0.000    0.000    0.000    0.000    0.000    0.000 
#
# Total GULP energy -496040.716398 kJ/mol
# GULP energy per Si atom -12401.017910 kJ/mol
# Density = 1.758604 g / cm^3
# Si number density = 17.626159 Si / 1000 Ang^3
#
#
#
# Elastic Constant Matrix: (Units=GPa)
#
#
# Indices 1 2 3 4 5 6 
#
# 1 124.3341 43.2537 57.3203 0.0000 0.0000 0.0000
# 2 43.2537 50.5113 32.4793 0.0000 0.0000 0.0000
# 3 57.3203 32.4793 65.7193 0.0000 0.0000 0.0000
# 4 0.0000 0.0000 0.0000 24.7135 0.0000 0.0000
# 5 0.0000 0.0000 0.0000 0.0000 29.4152 0.0000
# 6 0.0000 0.0000 0.0000 0.0000 0.0000 17.0839
#
#
#
# Elastic Compliance Matrix: (Units=1/GPa)
#
#
# Indices 1 2 3 4 5 6 
#
# 1 0.014733 -0.006381 -0.009696 0.000000 0.000000 0.000000
# 2 -0.006381 0.031783 -0.010142 0.000000 0.000000 0.000000
# 3 -0.009696 -0.010142 0.028686 0.000000 0.000000 0.000000
# 4 0.000000 0.000000 0.000000 0.040464 0.000000 0.000000
# 5 0.000000 0.000000 0.000000 0.000000 0.033996 0.000000
# 6 0.000000 0.000000 0.000000 0.000000 0.000000 0.058535
#
#
# Mechanical properties :
#
#
# Convention : Reuss Voigt Hill
#
# Bulk Modulus (GPa) = 43.93145 56.29681 50.11413
# Shear Modulus (GPa) = 18.64119 21.40995 20.02557
#
# Velocity S-wave (km/s) = 3.25558 3.48899 3.37431
# Velocity P-wave (km/s) = 6.25379 6.94546 6.60868
#
# Compressibility (1/GPa) = 0.02276274
#
# Stress axis : x y z
#
# Youngs Moduli (GPa) = 67.87494 31.46309 34.86053
#
# Poissons Ratio (x) = 0.20077 0.33802
# Poissons Ratio (y) = 0.43312 0.35356
# Poissons Ratio (z) = 0.65814 0.31910
#
# Static dielectric constant tensor:
#      x y z
#    x 3.161490 0.000000 0.000000 
#    y 0.000000 3.159400 0.000000 
#    z 0.000000 0.000000 3.234360 
# 
# 
# High freq. dielectric constant tensor:
#      x y z
#    x 1.668820 0.000000 0.000000 
#    y 0.000000 1.669560 0.000000 
#    z 0.000000 0.000000 1.680480 
# 
# From -- ./inp_files/8270.got.cif
#   From: 2010.06.25/outbox.cif.g09.slc.cpg/sg71_5_cif.got.tgz:8270.got - 2010.06.28 04:59:45.
