data_PCOD8290530
_publ_section_title
;
Structure prediction by ZEFSAII (Michael W. Deem and Ramdas Pophale) SiO2 
 PCOD8290530
Probable space group: I M M M
;
_chemical_formula_sum "Si O2"
_cell_formula_units_Z 88
_cell_length_a 22.191788
_cell_length_b 22.791688
_cell_length_c 9.221550
_cell_angle_alpha 90.000000
_cell_angle_beta 90.000000
_cell_angle_gamma 90.000000
_cell_volume 4664.152174
_symmetry_space_group_name_H-M "I M M M"
_symmetry_group_IT_number 71
_symmetry_cell_setting 'orthorhombic'
loop_
_space_group_symop_operation_xyz
x,y,z
-x,-y,z
x,-y,-z
-x,y,-z
-x,-y,-z
x,y,-z
-x,y,z
x,-y,z
1/2+x,1/2+y,1/2+z
1/2-x,1/2-y,1/2+z
1/2+x,1/2-y,1/2-z
1/2-x,1/2+y,1/2-z
1/2-x,1/2-y,1/2-z
1/2+x,1/2+y,1/2-z
1/2-x,1/2+y,1/2+z
1/2+x,1/2-y,1/2+z
loop_
_atom_site_type_symbol
_atom_site_label
_atom_site_fract_x
_atom_site_fract_y
_atom_site_fract_z
Si Si1 0.143158 0.500000 0.163746
Si Si2 0.353636 0.116779 0.828410
Si Si3 0.783260 0.110080 0.834574
Si Si4 0.094035 0.838711 0.167542
Si Si5 0.431714 0.210601 0.332877
Si Si6 0.000000 0.932926 0.827363
Si Si7 0.714080 0.500000 0.159641
O O1 0.122181 0.442235 0.250753
O O2 0.214335 0.500000 0.156121
O O3 0.115858 0.500000 0.000000
O O4 0.283614 0.130190 0.788326
O O5 0.390804 0.170989 0.769009
O O6 0.363038 0.109925 0.000000
O O7 0.833480 0.159877 0.808715
O O8 0.808980 0.056741 0.741867
O O9 0.781603 0.088730 0.000000
O O10 0.072035 0.776659 0.231786
O O11 0.058335 0.895602 0.230396
O O12 0.076895 0.837521 0.000000
O O13 0.408915 0.207372 0.500000
O O14 0.500000 0.188026 0.322062
O O15 0.000000 0.000000 0.763063
O O16 0.000000 0.938490 0.000000
O O17 0.686109 0.500000 0.000000
#
# Coordination Sequence:
#
# PCOD8290530 Si02
#       7
#     8  16  16  16  16   8   8
#     4   9  17  33  56  80 106 138 173 212 259 308
#     4  10  20  34  53  80 112 141 172 213 265 324
#     4   9  18  31  50  77 106 138 174 218 268 315
#     4   9  17  31  50  76 108 139 178 227 268 304
#     4  10  20  36  56  76 102 139 182 224 266 313
#     4   9  16  26  46  80 112 137 176 229 270 298
#     4   9  17  29  47  73 107 141 174 209 255 316
#
# _framework density 18.867308999999999
#
# number of rings (size 3 to 8) (size 9 to 14) (size 15 to 20)
#    0.000    2.636    0.909    1.091    1.273    4.000 
#    0.000    1.364    0.000    2.727    0.000    0.636 
#    0.000    0.000    0.000    0.000    0.000    0.000 
#
# Total GULP energy -545287.003879 kJ/mol
# GULP energy per Si atom -12392.886452 kJ/mol
# Density = 1.882437 g / cm^3
# Si number density = 18.867309 Si / 1000 Ang^3
#
#
#
# Elastic Constant Matrix: (Units=GPa)
#
#
# Indices 1 2 3 4 5 6 
#
# 1 90.6776 58.2456 34.4138 0.0000 0.0000 0.0000
# 2 58.2456 136.0649 39.3118 0.0000 0.0000 0.0000
# 3 34.4138 39.3118 68.5932 0.0000 0.0000 0.0000
# 4 0.0000 0.0000 0.0000 24.1809 0.0000 0.0000
# 5 0.0000 0.0000 0.0000 0.0000 17.3518 0.0000
# 6 0.0000 0.0000 0.0000 0.0000 0.0000 28.0174
#
#
#
# Elastic Compliance Matrix: (Units=1/GPa)
#
#
# Indices 1 2 3 4 5 6 
#
# 1 0.016572 -0.005623 -0.005092 0.000000 0.000000 0.000000
# 2 -0.005623 0.010716 -0.003320 0.000000 0.000000 0.000000
# 3 -0.005092 -0.003320 0.019036 0.000000 0.000000 0.000000
# 4 0.000000 0.000000 0.000000 0.041355 0.000000 0.000000
# 5 0.000000 0.000000 0.000000 0.000000 0.057631 0.000000
# 6 0.000000 0.000000 0.000000 0.000000 0.000000 0.035692
#
#
# Mechanical properties :
#
#
# Convention : Reuss Voigt Hill
#
# Bulk Modulus (GPa) = 54.78223 62.14201 58.46212
# Shear Modulus (GPa) = 23.23878 24.80098 24.01988
#
# Velocity S-wave (km/s) = 3.51336 3.62953 3.57192
# Velocity P-wave (km/s) = 6.74958 7.11143 6.93287
#
# Compressibility (1/GPa) = 0.01825410
#
# Stress axis : x y z
#
# Youngs Moduli (GPa) = 60.34117 93.32017 52.53144
#
# Poissons Ratio (x) = 0.52474 0.26748
# Poissons Ratio (y) = 0.33930 0.17442
# Poissons Ratio (z) = 0.30725 0.30985
#
# Static dielectric constant tensor:
#      x y z
#    x 3.359470 0.000000 0.000000 
#    y 0.000000 3.572590 0.000000 
#    z 0.000000 0.000000 3.291080 
# 
# 
# High freq. dielectric constant tensor:
#      x y z
#    x 1.725030 0.000000 0.000000 
#    y 0.000000 1.731530 0.000000 
#    z 0.000000 0.000000 1.701410 
# 
# From -- ./inp_files/10522.got.cif
#   From: 2010.06.25/outbox.cif.g09.slc.cpg/sg71_6_cif.got.tgz:10522.got - 2010.06.28 04:59:45.
