data_PCOD8290040
_publ_section_title
;
Structure prediction by ZEFSAII (Michael W. Deem and Ramdas Pophale) SiO2 
 PCOD8290040
Probable space group: I M M M
;
_chemical_formula_sum "Si O2"
_cell_formula_units_Z 96
_cell_length_a 9.028429
_cell_length_b 24.224049
_cell_length_c 24.187546
_cell_angle_alpha 90.000000
_cell_angle_beta 90.000000
_cell_angle_gamma 90.000000
_cell_volume 5289.939824
_symmetry_space_group_name_H-M "I M M M"
_symmetry_group_IT_number 71
_symmetry_cell_setting 'orthorhombic'
loop_
_space_group_symop_operation_xyz
x,y,z
-x,-y,z
x,-y,-z
-x,y,-z
-x,-y,-z
x,y,-z
-x,y,z
x,-y,z
1/2+x,1/2+y,1/2+z
1/2-x,1/2-y,1/2+z
1/2+x,1/2-y,1/2-z
1/2-x,1/2+y,1/2-z
1/2-x,1/2-y,1/2-z
1/2+x,1/2+y,1/2-z
1/2-x,1/2+y,1/2+z
1/2+x,1/2-y,1/2+z
loop_
_atom_site_type_symbol
_atom_site_label
_atom_site_fract_x
_atom_site_fract_y
_atom_site_fract_z
Si Si1 0.827224 0.651051 0.560077
Si Si2 0.672003 0.062546 0.855153
Si Si3 0.323634 0.770088 0.155058
Si Si4 0.671911 0.644853 0.148630
Si Si5 0.325123 0.062785 0.437013
Si Si6 0.827581 0.857327 0.774431
O O1 0.749045 0.654924 0.500000
O O2 0.796955 0.590812 0.585744
O O3 0.764438 0.697468 0.601147
O O4 0.000000 0.661470 0.552940
O O5 0.500000 0.068570 0.838713
O O6 0.768289 0.090802 0.808101
O O7 0.723421 0.000000 0.860550
O O8 0.500000 0.773320 0.162757
O O9 0.269325 0.707769 0.146107
O O10 0.252896 0.799916 0.208766
O O11 0.500000 0.642412 0.133022
O O12 0.754640 0.605776 0.105515
O O13 0.702334 0.625806 0.211106
O O14 0.276841 0.077300 0.500000
O O15 0.500000 0.067451 0.431312
O O16 0.274424 0.000000 0.422907
O O17 0.000000 0.848046 0.785503
#
# Coordination Sequence:
#
# PCOD8290040 Si02
#       6
#    16  16  16  16  16  16
#     4   8  14  26  46  71  96 122 155 198 243 284
#     4   9  18  32  49  69  95 130 169 206 248 298
#     4   9  18  33  51  73 102 133 166 204 246 297
#     4  10  21  34  52  79 104 130 167 207 249 299
#     4   9  20  39  58  76 102 135 169 206 250 302
#     4  10  20  33  49  72 103 135 166 206 255 299
#
# _framework density 18.147655
#
# number of rings (size 3 to 8) (size 9 to 14) (size 15 to 20)
#    0.000    2.833    0.000    2.500    0.000    4.667 
#    0.000    7.500    0.000    8.000    0.000    4.667 
#    0.000    0.000    0.000    0.000    0.000    0.000 
#
# Total GULP energy -594954.142039 kJ/mol
# GULP energy per Si atom -12394.877959 kJ/mol
# Density = 1.810635 g / cm^3
# Si number density = 18.147655 Si / 1000 Ang^3
#
#
#
# Elastic Constant Matrix: (Units=GPa)
#
#
# Indices 1 2 3 4 5 6 
#
# 1 46.1805 26.8962 37.2411 0.0000 0.0000 0.0000
# 2 26.8962 76.3623 31.2498 0.0000 0.0000 0.0000
# 3 37.2411 31.2498 97.8813 0.0000 0.0000 0.0000
# 4 0.0000 0.0000 0.0000 26.7333 0.0000 0.0000
# 5 0.0000 0.0000 0.0000 0.0000 24.5838 0.0000
# 6 0.0000 0.0000 0.0000 0.0000 0.0000 28.1913
#
#
#
# Elastic Compliance Matrix: (Units=1/GPa)
#
#
# Indices 1 2 3 4 5 6 
#
# 1 0.034942 -0.007899 -0.010773 0.000000 0.000000 0.000000
# 2 -0.007899 0.016849 -0.002374 0.000000 0.000000 0.000000
# 3 -0.010773 -0.002374 0.015073 0.000000 0.000000 0.000000
# 4 0.000000 0.000000 0.000000 0.037407 0.000000 0.000000
# 5 0.000000 0.000000 0.000000 0.000000 0.040677 0.000000
# 6 0.000000 0.000000 0.000000 0.000000 0.000000 0.035472
#
#
# Mechanical properties :
#
#
# Convention : Reuss Voigt Hill
#
# Bulk Modulus (GPa) = 40.36611 45.68870 43.02740
# Shear Modulus (GPa) = 21.66681 24.23749 22.95215
#
# Velocity S-wave (km/s) = 3.45906 3.65851 3.56018
# Velocity P-wave (km/s) = 6.18425 6.56331 6.37659
#
# Compressibility (1/GPa) = 0.02477326
#
# Stress axis : x y z
#
# Youngs Moduli (GPa) = 28.61913 59.35060 66.34345
#
# Poissons Ratio (x) = 0.46879 0.71469
# Poissons Ratio (y) = 0.22605 0.15750
# Poissons Ratio (z) = 0.30830 0.14090
#
# Static dielectric constant tensor:
#      x y z
#    x 3.094820 0.000000 0.000000 
#    y 0.000000 3.486920 0.000000 
#    z 0.000000 0.000000 3.602700 
# 
# 
# High freq. dielectric constant tensor:
#      x y z
#    x 1.677710 0.000000 0.000000 
#    y 0.000000 1.708130 0.000000 
#    z 0.000000 0.000000 1.708870 
# 
# From -- ./inp_files/12824.got.cif
#   From: 2010.06.25/outbox.cif.g09.slc.cpg/sg71_7_cif.got.tgz:12824.got - 2010.06.28 04:59:45.
