data_PCOD8290043
_publ_section_title
;
Structure prediction by ZEFSAII (Michael W. Deem and Ramdas Pophale) SiO2 
 PCOD8290043
Probable space group: I M M M
;
_chemical_formula_sum "Si O2"
_cell_formula_units_Z 56
_cell_length_a 12.250154
_cell_length_b 12.418318
_cell_length_c 21.774664
_cell_angle_alpha 90.000000
_cell_angle_beta 90.000000
_cell_angle_gamma 90.000000
_cell_volume 3312.499241
_symmetry_space_group_name_H-M "I M M M"
_symmetry_group_IT_number 71
_symmetry_cell_setting 'orthorhombic'
loop_
_space_group_symop_operation_xyz
x,y,z
-x,-y,z
x,-y,-z
-x,y,-z
-x,-y,-z
x,y,-z
-x,y,z
x,-y,z
1/2+x,1/2+y,1/2+z
1/2-x,1/2-y,1/2+z
1/2+x,1/2-y,1/2-z
1/2-x,1/2+y,1/2-z
1/2-x,1/2-y,1/2-z
1/2+x,1/2+y,1/2-z
1/2-x,1/2+y,1/2+z
1/2+x,1/2-y,1/2+z
loop_
_atom_site_type_symbol
_atom_site_label
_atom_site_fract_x
_atom_site_fract_y
_atom_site_fract_z
Si Si1 0.787538 0.380445 0.132568
Si Si2 0.368568 0.000000 0.260139
Si Si3 0.129158 0.500000 0.379137
Si Si4 0.000000 0.627647 0.930202
Si Si5 0.128683 0.274194 0.429752
O O1 0.765026 0.500000 0.104291
O O2 0.817845 0.394381 0.205161
O O3 0.682801 0.307239 0.118941
O O4 0.891123 0.323831 0.100037
O O5 0.500000 0.000000 0.266158
O O6 0.326556 0.000000 0.190591
O O7 0.170671 0.394650 0.414983
O O8 0.000000 0.500000 0.377227
O O9 0.000000 0.500000 0.918688
O O10 0.000000 0.662442 0.000000
O O11 0.160204 0.245687 0.500000
O O12 0.000000 0.264952 0.419413
#
# Coordination Sequence:
#
# PCOD8290043 Si02
#       5
#    16   8   8   8  16
#     4   9  17  30  47  75 102 124 153 196 248 292
#     4   9  16  33  51  75 100 121 162 203 241 288
#     4   9  19  34  53  68  90 132 174 207 232 268
#     4   9  14  24  44  69  97 125 151 186 232 288
#     4  10  20  33  49  72  99 129 165 201 238 283
#
# _framework density 16.905664999999999
#
# number of rings (size 3 to 8) (size 9 to 14) (size 15 to 20)
#    0.857    1.857    1.429    1.286    0.000    5.143 
#    0.000    1.429    0.000    0.857    3.714    3.000 
#    0.000    0.000    0.000    0.000    0.000    0.000 
#
# Total GULP energy -346919.915688 kJ/mol
# GULP energy per Si atom -12389.996989 kJ/mol
# Density = 1.686719 g / cm^3
# Si number density = 16.905665 Si / 1000 Ang^3
#
#
#
# Elastic Constant Matrix: (Units=GPa)
#
#
# Indices 1 2 3 4 5 6 
#
# 1 55.9808 33.0476 24.4286 0.0000 0.0000 0.0000
# 2 33.0476 67.8039 11.4961 0.0000 0.0000 0.0000
# 3 24.4286 11.4961 71.5469 0.0000 0.0000 0.0000
# 4 0.0000 0.0000 0.0000 19.5058 0.0000 0.0000
# 5 0.0000 0.0000 0.0000 0.0000 18.2416 0.0000
# 6 0.0000 0.0000 0.0000 0.0000 0.0000 12.0378
#
#
#
# Elastic Compliance Matrix: (Units=1/GPa)
#
#
# Indices 1 2 3 4 5 6 
#
# 1 0.028751 -0.012695 -0.007777 0.000000 0.000000 0.000000
# 2 -0.012695 0.020767 0.000998 0.000000 0.000000 0.000000
# 3 -0.007777 0.000998 0.016472 0.000000 0.000000 0.000000
# 4 0.000000 0.000000 0.000000 0.051267 0.000000 0.000000
# 5 0.000000 0.000000 0.000000 0.000000 0.054820 0.000000
# 6 0.000000 0.000000 0.000000 0.000000 0.000000 0.083072
#
#
# Mechanical properties :
#
#
# Convention : Reuss Voigt Hill
#
# Bulk Modulus (GPa) = 36.97984 37.03068 37.00526
# Shear Modulus (GPa) = 16.49568 18.38099 17.43833
#
# Velocity S-wave (km/s) = 3.12709 3.30095 3.21519
# Velocity P-wave (km/s) = 5.91269 6.03989 5.97663
#
# Compressibility (1/GPa) = 0.02704176
#
# Stress axis : x y z
#
# Youngs Moduli (GPa) = 34.78131 48.15406 60.70973
#
# Poissons Ratio (x) = 0.61130 0.47213
# Poissons Ratio (y) = 0.44154 -0.06057
# Poissons Ratio (z) = 0.27049 -0.04804
#
# Static dielectric constant tensor:
#      x y z
#    x 2.964920 0.000000 0.000000 
#    y 0.000000 2.925720 0.000000 
#    z 0.000000 0.000000 3.185520 
# 
# 
# High freq. dielectric constant tensor:
#      x y z
#    x 1.633290 0.000000 0.000000 
#    y 0.000000 1.618360 0.000000 
#    z 0.000000 0.000000 1.654560 
# 
# From -- ./inp_files/64181.got.cif
#   From: 2010.06.25/outbox.cif.g09.slc.cpg/sg71_33_cif.got.tgz:64181.got - 2010.06.28 04:59:45.
