data_PCOD8290968
_publ_section_title
;
Structure prediction by ZEFSAII (Michael W. Deem and Ramdas Pophale) SiO2 
 PCOD8290968
Probable space group: I M M M
;
_chemical_formula_sum "Si O2"
_cell_formula_units_Z 104
_cell_length_a 22.781325
_cell_length_b 8.650703
_cell_length_c 26.877121
_cell_angle_alpha 90.000000
_cell_angle_beta 90.000000
_cell_angle_gamma 90.000000
_cell_volume 5296.794551
_symmetry_space_group_name_H-M "I M M M"
_symmetry_group_IT_number 71
_symmetry_cell_setting 'orthorhombic'
loop_
_space_group_symop_operation_xyz
x,y,z
-x,-y,z
x,-y,-z
-x,y,-z
-x,-y,-z
x,y,-z
-x,y,z
x,-y,z
1/2+x,1/2+y,1/2+z
1/2-x,1/2-y,1/2+z
1/2+x,1/2-y,1/2-z
1/2-x,1/2+y,1/2-z
1/2-x,1/2-y,1/2-z
1/2+x,1/2+y,1/2-z
1/2-x,1/2+y,1/2+z
1/2+x,1/2-y,1/2+z
loop_
_atom_site_type_symbol
_atom_site_label
_atom_site_fract_x
_atom_site_fract_y
_atom_site_fract_z
Si Si1 0.730241 0.826720 0.200625
Si Si2 0.162757 0.827265 0.873002
Si Si3 0.064637 0.818105 0.500000
Si Si4 0.567021 0.683762 0.703393
Si Si5 0.870062 0.318143 0.408021
Si Si6 0.750658 0.181656 0.441971
Si Si7 0.611975 0.679664 0.810221
O O1 0.750000 0.750000 0.250000
O O2 0.785513 0.835718 0.165907
O O3 0.680837 0.710101 0.181961
O O4 0.704100 0.000000 0.207928
O O5 0.106853 0.753789 0.842744
O O6 0.185995 0.725704 0.919544
O O7 0.146753 0.000000 0.892086
O O8 0.099603 0.764674 0.452897
O O9 0.000000 0.743898 0.500000
O O10 0.061271 0.000000 0.500000
O O11 0.500000 0.735622 0.694032
O O12 0.574017 0.500000 0.705140
O O13 0.587657 0.747935 0.757773
O O14 0.872700 0.500000 0.412898
O O15 0.800954 0.269957 0.410266
O O16 0.909671 0.267707 0.359860
O O17 0.752277 0.231034 0.500000
O O18 0.760713 0.000000 0.436238
O O19 0.596196 0.500000 0.814066
#
# Coordination Sequence:
#
# PCOD8290968 Si02
#       7
#    16  16   8  16  16  16  16
#     4  11  20  31  50  81 115 147 184 230 284 340
#     4  10  20  35  57  86 115 148 192 239 296 356
#     4  11  25  45  65  83 109 155 210 251 290 347
#     4   9  19  37  59  83 114 153 196 241 287 344
#     4  12  24  38  59  88 121 155 195 247 301 349
#     4  11  23  38  59  87 119 152 191 240 298 362
#     4  11  21  35  56  84 117 154 195 237 286 345
#
# _framework density 19.634516000000001
#
# number of rings (size 3 to 8) (size 9 to 14) (size 15 to 20)
#    0.000    1.308    3.846    3.000    0.000    2.769 
#    0.000    1.538    0.000    4.154    0.000    3.231 
#    0.000    0.000    0.000    0.000    0.000    0.000 
#
# Total GULP energy -644248.475294 kJ/mol
# GULP energy per Si atom -12389.393756 kJ/mol
# Density = 1.958983 g / cm^3
# Si number density = 19.634516 Si / 1000 Ang^3
#
#
#
# Elastic Constant Matrix: (Units=GPa)
#
#
# Indices 1 2 3 4 5 6 
#
# 1 95.6501 -10.1691 20.1057 0.0000 0.0000 0.0000
# 2 -10.1691 -4.8361 -16.5905 0.0000 0.0000 0.0000
# 3 20.1057 -16.5905 67.1567 0.0000 0.0000 0.0000
# 4 0.0000 0.0000 0.0000 21.0048 0.0000 0.0000
# 5 0.0000 0.0000 0.0000 0.0000 10.4495 0.0000
# 6 0.0000 0.0000 0.0000 0.0000 0.0000 18.8592
#
#
#
# Elastic Compliance Matrix: (Units=1/GPa)
#
#
# Indices 1 2 3 4 5 6 
#
# 1 0.010792 -0.006284 -0.004783 0.000000 0.000000 0.000000
# 2 -0.006284 -0.108265 -0.024865 0.000000 0.000000 0.000000
# 3 -0.004783 -0.024865 0.010180 0.000000 0.000000 0.000000
# 4 0.000000 0.000000 0.000000 0.047608 0.000000 0.000000
# 5 0.000000 0.000000 0.000000 0.000000 0.095698 0.000000
# 6 0.000000 0.000000 0.000000 0.000000 0.000000 0.053024
#
#
# Mechanical properties :
#
#
# Convention : Reuss Voigt Hill
#
# Bulk Modulus (GPa) = -6.28311 16.07366 4.89527
# Shear Modulus (GPa) = 39.10863 21.03769 30.07316
#
# Velocity S-wave (km/s) = 4.46783 3.27687 3.91787
# Velocity P-wave (km/s) = 4.83822 4.74567 4.79217
#
# Compressibility (1/GPa) = -0.15915687
#
# Stress axis : x y z
#
# Youngs Moduli (GPa) = 92.65975 -9.23657 98.23210
#
# Poissons Ratio (x) = -0.05804 0.46988
# Poissons Ratio (y) = 0.58225 2.44252
# Poissons Ratio (z) = 0.44322 -0.22967
#
# Static dielectric constant tensor:
#      x y z
#    x 3.679490 0.000000 0.000000 
#    y 0.000000 3.624120 0.000000 
#    z 0.000000 0.000000 3.762900 
# 
# 
# High freq. dielectric constant tensor:
#      x y z
#    x 1.745110 0.000000 0.000000 
#    y 0.000000 1.750490 0.000000 
#    z 0.000000 0.000000 1.775230 
# 
# From -- ./inp_files/56262.got.cif
#   From: 2010.06.25/outbox.cif.g09.slc.cpg/sg71_29_cif.got.tgz:56262.got - 2010.06.28 04:59:45.
