data_PCOD8290162
_publ_section_title
;
Structure prediction by ZEFSAII (Michael W. Deem and Ramdas Pophale) SiO2 
 PCOD8290162
Probable space group: I M M M
;
_chemical_formula_sum "Si O2"
_cell_formula_units_Z 104
_cell_length_a 24.023414
_cell_length_b 28.143048
_cell_length_c 9.208940
_cell_angle_alpha 90.000000
_cell_angle_beta 90.000000
_cell_angle_gamma 90.000000
_cell_volume 6226.091522
_symmetry_space_group_name_H-M "I M M M"
_symmetry_group_IT_number 71
_symmetry_cell_setting 'orthorhombic'
loop_
_space_group_symop_operation_xyz
x,y,z
-x,-y,z
x,-y,-z
-x,y,-z
-x,-y,-z
x,y,-z
-x,y,z
x,-y,z
1/2+x,1/2+y,1/2+z
1/2-x,1/2-y,1/2+z
1/2+x,1/2-y,1/2-z
1/2-x,1/2+y,1/2-z
1/2-x,1/2-y,1/2-z
1/2+x,1/2+y,1/2-z
1/2-x,1/2+y,1/2+z
1/2+x,1/2-y,1/2+z
loop_
_atom_site_type_symbol
_atom_site_label
_atom_site_fract_x
_atom_site_fract_y
_atom_site_fract_z
Si Si1 0.562352 0.179446 0.826929
Si Si2 0.433832 0.283683 0.161664
Si Si3 0.562843 0.000000 0.173336
Si Si4 0.434108 0.625594 0.666364
Si Si5 0.629662 0.090276 0.172709
Si Si6 0.252516 0.944588 0.167323
Si Si7 0.357725 0.555503 0.831264
O O1 0.500000 0.169767 0.766345
O O2 0.584496 0.231660 0.778764
O O3 0.604286 0.139459 0.765318
O O4 0.560226 0.177934 0.000000
O O5 0.500000 0.284259 0.153985
O O6 0.411724 0.324537 0.268883
O O7 0.409590 0.293003 0.000000
O O8 0.593647 0.953404 0.235082
O O9 0.500000 0.000000 0.232104
O O10 0.563993 0.000000 0.000000
O O11 0.415208 0.622953 0.500000
O O12 0.500000 0.621377 0.683317
O O13 0.408161 0.582060 0.753740
O O14 0.693842 0.085098 0.221117
O O15 0.626294 0.089236 0.000000
O O16 0.200847 0.927800 0.264224
O O17 0.266193 0.000000 0.189041
O O18 0.238140 0.933835 0.000000
O O19 0.367121 0.500000 0.802980
O O20 0.357787 0.568311 0.000000
#
# Coordination Sequence:
#
# PCOD8290162 Si02
#       7
#    16  16   8  16  16  16  16
#     4   8  13  21  36  61  92 125 160 196 234 276
#     4   8  14  26  44  65  91 124 158 189 223 268
#     4   9  14  18  28  54  95 133 158 189 238 287
#     4  10  20  33  51  75  99 121 144 175 222 275
#     4   9  14  21  35  59  91 127 162 196 236 279
#     4   9  16  28  45  64  90 124 162 199 234 272
#     4  10  21  35  51  71  94 121 153 186 220 264
#
# _framework density 16.703899
#
# number of rings (size 3 to 8) (size 9 to 14) (size 15 to 20)
#    0.000    3.000    0.769    2.308    0.000    4.000 
#    0.000    1.538    0.000    1.846    0.000    0.000 
#    0.000    2.462    0.000    0.000    0.000    0.308 
#
# Total GULP energy -644605.238632 kJ/mol
# GULP energy per Si atom -12396.254589 kJ/mol
# Density = 1.666588 g / cm^3
# Si number density = 16.703899 Si / 1000 Ang^3
#
#
#
# Elastic Constant Matrix: (Units=GPa)
#
#
# Indices 1 2 3 4 5 6 
#
# 1 66.1723 52.6497 37.1709 0.0000 0.0000 0.0000
# 2 52.6497 107.1179 47.0643 0.0000 0.0000 0.0000
# 3 37.1709 47.0643 66.7627 0.0000 0.0000 0.0000
# 4 0.0000 0.0000 0.0000 12.4555 0.0000 0.0000
# 5 0.0000 0.0000 0.0000 0.0000 11.5341 0.0000
# 6 0.0000 0.0000 0.0000 0.0000 0.0000 15.6077
#
#
#
# Elastic Compliance Matrix: (Units=1/GPa)
#
#
# Indices 1 2 3 4 5 6 
#
# 1 0.027764 -0.009930 -0.008457 0.000000 0.000000 0.000000
# 2 -0.009930 0.017076 -0.006509 0.000000 0.000000 0.000000
# 3 -0.008457 -0.006509 0.024276 0.000000 0.000000 0.000000
# 4 0.000000 0.000000 0.000000 0.080286 0.000000 0.000000
# 5 0.000000 0.000000 0.000000 0.000000 0.086699 0.000000
# 6 0.000000 0.000000 0.000000 0.000000 0.000000 0.064071
#
#
# Mechanical properties :
#
#
# Convention : Reuss Voigt Hill
#
# Bulk Modulus (GPa) = 51.75401 57.09141 54.42271
# Shear Modulus (GPa) = 14.02893 14.79734 14.41313
#
# Velocity S-wave (km/s) = 2.90118 2.97957 2.94064
# Velocity P-wave (km/s) = 6.50176 6.78895 6.64691
#
# Compressibility (1/GPa) = 0.01932218
#
# Stress axis : x y z
#
# Youngs Moduli (GPa) = 36.01802 58.56086 41.19331
#
# Poissons Ratio (x) = 0.58153 0.34839
# Poissons Ratio (y) = 0.35767 0.26813
# Poissons Ratio (z) = 0.30462 0.38118
#
# Static dielectric constant tensor:
#      x y z
#    x 3.038190 0.000000 0.000000 
#    y 0.000000 3.393300 0.000000 
#    z 0.000000 0.000000 2.859180 
# 
# 
# High freq. dielectric constant tensor:
#      x y z
#    x 1.624860 0.000000 0.000000 
#    y 0.000000 1.645470 0.000000 
#    z 0.000000 0.000000 1.605270 
# 
# From -- ./inp_files/13622.got.cif
#   From: 2010.06.25/outbox.cif.g09.slc.cpg/sg71_7_cif.got.tgz:13622.got - 2010.06.28 04:59:45.
