data_PCOD8290323
_publ_section_title
;
Structure prediction by ZEFSAII (Michael W. Deem and Ramdas Pophale) SiO2 
 PCOD8290323
Probable space group: I M M M
;
_chemical_formula_sum "Si O2"
_cell_formula_units_Z 96
_cell_length_a 25.592452
_cell_length_b 21.952558
_cell_length_c 8.819473
_cell_angle_alpha 90.000000
_cell_angle_beta 90.000000
_cell_angle_gamma 90.000000
_cell_volume 4954.954441
_symmetry_space_group_name_H-M "I M M M"
_symmetry_group_IT_number 71
_symmetry_cell_setting 'orthorhombic'
loop_
_space_group_symop_operation_xyz
x,y,z
-x,-y,z
x,-y,-z
-x,y,-z
-x,-y,-z
x,y,-z
-x,y,z
x,-y,z
1/2+x,1/2+y,1/2+z
1/2-x,1/2-y,1/2+z
1/2+x,1/2-y,1/2-z
1/2-x,1/2+y,1/2-z
1/2-x,1/2-y,1/2-z
1/2+x,1/2+y,1/2-z
1/2-x,1/2+y,1/2+z
1/2+x,1/2-y,1/2+z
loop_
_atom_site_type_symbol
_atom_site_label
_atom_site_fract_x
_atom_site_fract_y
_atom_site_fract_z
Si Si1 0.809257 0.500000 0.826540
Si Si2 0.058138 0.376091 0.827658
Si Si3 0.853494 0.297324 0.679147
Si Si4 0.558563 0.568571 0.180369
Si Si5 0.146456 0.840480 0.319749
Si Si6 0.581999 0.000000 0.821831
Si Si7 0.238853 0.371051 0.823832
O O1 0.856500 0.500000 0.709629
O O2 0.774863 0.559007 0.792938
O O3 0.829960 0.500000 0.000000
O O4 0.096696 0.333961 0.734999
O O5 0.055250 0.441924 0.752488
O O6 0.000000 0.347677 0.822993
O O7 0.078715 0.381906 0.000000
O O8 0.851365 0.300516 0.500000
O O9 0.861240 0.228474 0.737374
O O10 0.799794 0.325220 0.739507
O O11 0.500000 0.586379 0.235824
O O12 0.572407 0.500000 0.235656
O O13 0.600721 0.616302 0.248631
O O14 0.560320 0.570530 0.000000
O O15 0.144615 0.844030 0.500000
O O16 0.202742 0.862717 0.260154
O O17 0.571556 0.000000 0.000000
O O18 0.235665 0.354275 0.000000
#
# Coordination Sequence:
#
# PCOD8290323 Si02
#       7
#     8  16  16  16  16   8  16
#     4  10  20  33  55  82 111 149 190 233 279 330
#     4  11  24  41  60  81 109 148 194 237 277 332
#     4  11  22  36  54  79 113 150 185 230 284 332
#     4   8  14  26  46  73 106 140 173 217 274 332
#     4   9  19  32  50  78 110 146 187 227 275 335
#     4  12  23  37  60  87 116 145 181 234 289 338
#     4  10  20  35  55  79 110 148 187 229 279 335
#
# _framework density 19.374545999999999
#
# number of rings (size 3 to 8) (size 9 to 14) (size 15 to 20)
#    0.000    2.000    1.667    3.000    1.167    3.000 
#    0.000    2.500    0.000    0.000    0.000    0.000 
#    0.000    0.000    0.000   11.333    0.000   11.000 
#
# Total GULP energy -595189.893952 kJ/mol
# GULP energy per Si atom -12399.789457 kJ/mol
# Density = 1.933045 g / cm^3
# Si number density = 19.374546 Si / 1000 Ang^3
#
#
#
# Elastic Constant Matrix: (Units=GPa)
#
#
# Indices 1 2 3 4 5 6 
#
# 1 158.8045 87.9022 23.1356 0.0000 0.0000 0.0000
# 2 87.9022 153.1619 27.8098 0.0000 0.0000 0.0000
# 3 23.1356 27.8098 44.4999 0.0000 0.0000 0.0000
# 4 0.0000 0.0000 0.0000 6.9489 0.0000 0.0000
# 5 0.0000 0.0000 0.0000 0.0000 12.9089 0.0000
# 6 0.0000 0.0000 0.0000 0.0000 0.0000 18.3273
#
#
#
# Elastic Compliance Matrix: (Units=1/GPa)
#
#
# Indices 1 2 3 4 5 6 
#
# 1 0.009341 -0.005053 -0.001699 0.000000 0.000000 0.000000
# 2 -0.005053 0.010098 -0.003684 0.000000 0.000000 0.000000
# 3 -0.001699 -0.003684 0.025657 0.000000 0.000000 0.000000
# 4 0.000000 0.000000 0.000000 0.143908 0.000000 0.000000
# 5 0.000000 0.000000 0.000000 0.000000 0.077466 0.000000
# 6 0.000000 0.000000 0.000000 0.000000 0.000000 0.054564
#
#
# Mechanical properties :
#
#
# Convention : Reuss Voigt Hill
#
# Bulk Modulus (GPa) = 41.27813 70.46240 55.87027
# Shear Modulus (GPa) = 14.28656 22.14492 18.21574
#
# Velocity S-wave (km/s) = 2.71843 3.38448 3.06958
# Velocity P-wave (km/s) = 5.58612 7.19169 6.43915
#
# Compressibility (1/GPa) = 0.02422590
#
# Stress axis : x y z
#
# Youngs Moduli (GPa) = 107.05098 99.03263 38.97531
#
# Poissons Ratio (x) = 0.50038 0.06622
# Poissons Ratio (y) = 0.54089 0.14357
# Poissons Ratio (z) = 0.18188 0.36479
#
# Static dielectric constant tensor:
#      x y z
#    x 3.770660 0.000000 0.000000 
#    y 0.000000 3.764370 0.000000 
#    z 0.000000 0.000000 3.221170 
# 
# 
# High freq. dielectric constant tensor:
#      x y z
#    x 1.768300 0.000000 0.000000 
#    y 0.000000 1.761710 0.000000 
#    z 0.000000 0.000000 1.718260 
# 
# From -- ./inp_files/12941.got.cif
#   From: 2010.06.25/outbox.cif.g09.slc.cpg/sg71_7_cif.got.tgz:12941.got - 2010.06.28 04:59:45.
