data_PCOD8290114
_publ_section_title
;
Structure prediction by ZEFSAII (Michael W. Deem and Ramdas Pophale) SiO2 
 PCOD8290114
Probable space group: I M M M
;
_chemical_formula_sum "Si O2"
_cell_formula_units_Z 96
_cell_length_a 9.150258
_cell_length_b 27.430930
_cell_length_c 21.685289
_cell_angle_alpha 90.000000
_cell_angle_beta 90.000000
_cell_angle_gamma 90.000000
_cell_volume 5443.009419
_symmetry_space_group_name_H-M "I M M M"
_symmetry_group_IT_number 71
_symmetry_cell_setting 'orthorhombic'
loop_
_space_group_symop_operation_xyz
x,y,z
-x,-y,z
x,-y,-z
-x,y,-z
-x,-y,-z
x,y,-z
-x,y,z
x,-y,z
1/2+x,1/2+y,1/2+z
1/2-x,1/2-y,1/2+z
1/2+x,1/2-y,1/2-z
1/2-x,1/2+y,1/2-z
1/2-x,1/2-y,1/2-z
1/2+x,1/2+y,1/2-z
1/2-x,1/2+y,1/2+z
1/2+x,1/2-y,1/2+z
loop_
_atom_site_type_symbol
_atom_site_label
_atom_site_fract_x
_atom_site_fract_y
_atom_site_fract_z
Si Si1 0.667698 0.731327 0.190573
Si Si2 0.836047 0.335352 0.345965
Si Si3 0.335686 0.000000 0.926591
Si Si4 0.830408 0.094381 0.928687
Si Si5 0.829302 0.360884 0.204454
Si Si6 0.829932 0.943632 0.500000
Si Si7 0.172829 0.942772 0.365921
O O1 0.500000 0.718438 0.206367
O O2 0.750000 0.750000 0.250000
O O3 0.675095 0.776878 0.143518
O O4 0.749227 0.682695 0.166048
O O5 0.719832 0.358147 0.392202
O O6 0.798733 0.352118 0.276553
O O7 0.000000 0.352829 0.362549
O O8 0.254293 0.047734 0.901390
O O9 0.500000 0.000000 0.900923
O O10 0.330721 0.000000 0.000000
O O11 0.000000 0.084951 0.918106
O O12 0.792941 0.102824 0.000000
O O13 0.760789 0.412612 0.185269
O O14 0.000000 0.359929 0.188808
O O15 0.770790 0.923633 0.565957
O O16 0.000000 0.933959 0.500000
O O17 0.794320 0.000000 0.500000
O O18 0.000000 0.933779 0.358458
O O19 0.208021 0.000000 0.356950
#
# Coordination Sequence:
#
# PCOD8290114 Si02
#       7
#    16  16   8  16  16   8  16
#     4   9  17  31  52  75  98 126 165 206 245 294
#     4   9  19  34  51  73  98 130 169 205 248 301
#     4   9  17  31  51  71  93 127 167 202 241 294
#     4  10  20  33  51  75 101 129 165 211 256 297
#     4  10  20  33  50  75 105 135 167 206 251 297
#     4   7  12  26  49  73  95 125 167 207 239 284
#     4   9  17  31  52  76 102 134 171 208 248 297
#
# _framework density 17.637301000000001
#
# number of rings (size 3 to 8) (size 9 to 14) (size 15 to 20)
#    0.000    2.833    0.000    3.750    0.000    6.333 
#    1.500    0.417    1.833    1.500    0.000    0.000 
#    0.000    0.000    0.000    0.000    0.000    0.000 
#
# Total GULP energy -594796.175683 kJ/mol
# GULP energy per Si atom -12391.586993 kJ/mol
# Density = 1.759716 g / cm^3
# Si number density = 17.637301 Si / 1000 Ang^3
#
#
#
# Elastic Constant Matrix: (Units=GPa)
#
#
# Indices 1 2 3 4 5 6 
#
# 1 109.3255 64.1731 39.4996 0.0000 0.0000 0.0000
# 2 64.1731 111.3948 39.2899 0.0000 0.0000 0.0000
# 3 39.4996 39.2899 48.0113 0.0000 0.0000 0.0000
# 4 0.0000 0.0000 0.0000 20.6844 0.0000 0.0000
# 5 0.0000 0.0000 0.0000 0.0000 23.6257 0.0000
# 6 0.0000 0.0000 0.0000 0.0000 0.0000 35.1063
#
#
#
# Elastic Compliance Matrix: (Units=1/GPa)
#
#
# Indices 1 2 3 4 5 6 
#
# 1 0.015618 -0.006277 -0.007712 0.000000 0.000000 0.000000
# 2 -0.006277 0.015142 -0.007227 0.000000 0.000000 0.000000
# 3 -0.007712 -0.007227 0.033088 0.000000 0.000000 0.000000
# 4 0.000000 0.000000 0.000000 0.048346 0.000000 0.000000
# 5 0.000000 0.000000 0.000000 0.000000 0.042327 0.000000
# 6 0.000000 0.000000 0.000000 0.000000 0.000000 0.028485
#
#
# Mechanical properties :
#
#
# Convention : Reuss Voigt Hill
#
# Bulk Modulus (GPa) = 46.69694 61.62852 54.16273
# Shear Modulus (GPa) = 21.49815 24.26788 22.88301
#
# Velocity S-wave (km/s) = 3.49507 3.71339 3.60588
# Velocity P-wave (km/s) = 6.54378 7.30778 6.93631
#
# Compressibility (1/GPa) = 0.02141468
#
# Stress axis : x y z
#
# Youngs Moduli (GPa) = 64.02811 66.03937 30.22238
#
# Poissons Ratio (x) = 0.41454 0.23309
# Poissons Ratio (y) = 0.40192 0.21843
# Poissons Ratio (z) = 0.49381 0.47730
#
# Static dielectric constant tensor:
#      x y z
#    x 3.295830 0.000000 0.000000 
#    y 0.000000 3.624970 0.000000 
#    z 0.000000 0.000000 3.085780 
# 
# 
# High freq. dielectric constant tensor:
#      x y z
#    x 1.684880 0.000000 0.000000 
#    y 0.000000 1.682710 0.000000 
#    z 0.000000 0.000000 1.647710 
# 
# From -- ./inp_files/12926.got.cif
#   From: 2010.06.25/outbox.cif.g09.slc.cpg/sg71_7_cif.got.tgz:12926.got - 2010.06.28 04:59:45.
