data_PCOD8290625
_publ_section_title
;
Structure prediction by ZEFSAII (Michael W. Deem and Ramdas Pophale) SiO2 
 PCOD8290625
Probable space group: I M M M
;
_chemical_formula_sum "Si O2"
_cell_formula_units_Z 88
_cell_length_a 10.118347
_cell_length_b 17.966713
_cell_length_c 25.559283
_cell_angle_alpha 90.000000
_cell_angle_beta 90.000000
_cell_angle_gamma 90.000000
_cell_volume 4646.509893
_symmetry_space_group_name_H-M "I M M M"
_symmetry_group_IT_number 71
_symmetry_cell_setting 'orthorhombic'
loop_
_space_group_symop_operation_xyz
x,y,z
-x,-y,z
x,-y,-z
-x,y,-z
-x,-y,-z
x,y,-z
-x,y,z
x,-y,z
1/2+x,1/2+y,1/2+z
1/2-x,1/2-y,1/2+z
1/2+x,1/2-y,1/2-z
1/2-x,1/2+y,1/2-z
1/2-x,1/2-y,1/2-z
1/2+x,1/2+y,1/2-z
1/2-x,1/2+y,1/2+z
1/2+x,1/2-y,1/2+z
loop_
_atom_site_type_symbol
_atom_site_label
_atom_site_fract_x
_atom_site_fract_y
_atom_site_fract_z
Si Si1 0.842002 0.316238 0.652420
Si Si2 0.714125 0.086466 0.561590
Si Si3 0.844903 0.417486 0.748525
Si Si4 0.853492 0.320448 0.153732
Si Si5 0.656575 0.917367 0.057906
Si Si6 0.000000 0.913203 0.443800
O O1 0.795003 0.365564 0.701413
O O2 0.759283 0.241086 0.653451
O O3 0.793644 0.358628 0.600330
O O4 0.000000 0.299592 0.652772
O O5 0.697944 0.105810 0.500000
O O6 0.625294 0.138847 0.597623
O O7 0.862085 0.106402 0.583984
O O8 0.677915 0.000000 0.570320
O O9 0.779726 0.500000 0.745168
O O10 0.806809 0.380855 0.803656
O O11 0.000000 0.426520 0.742713
O O12 0.000000 0.288163 0.168092
O O13 0.500000 0.921152 0.059974
O O14 0.712380 0.000000 0.070618
O O15 0.704026 0.892125 0.000000
O O16 0.000000 0.871938 0.500000
O O17 0.000000 0.000000 0.455406
#
# Coordination Sequence:
#
# PCOD8290625 Si02
#       6
#    16  16  16  16  16   8
#     4  10  20  34  55  79 103 135 172 211 260 314
#     4   9  18  33  53  75 101 137 180 220 256 298
#     4   9  18  35  58  79  98 128 176 224 261 304
#     4  11  23  35  50  75 109 143 171 210 262 311
#     4   8  14  27  50  80 107 128 162 215 263 302
#     4   7  12  26  48  72  96 124 161 211 262 294
#
# _framework density 18.938945
#
# number of rings (size 3 to 8) (size 9 to 14) (size 15 to 20)
#    0.000    2.818    0.000    3.273    1.273    4.364 
#    0.000    0.909    0.000    3.273    0.000    1.273 
#    0.000    0.000    0.000    0.000    0.000    0.000 
#
# Total GULP energy -545083.420589 kJ/mol
# GULP energy per Si atom -12388.259559 kJ/mol
# Density = 1.889584 g / cm^3
# Si number density = 18.938945 Si / 1000 Ang^3
#
#
#
# Elastic Constant Matrix: (Units=GPa)
#
#
# Indices 1 2 3 4 5 6 
#
# 1 54.3022 36.0878 23.1020 0.0000 0.0000 0.0000
# 2 36.0878 124.8157 73.1540 0.0000 0.0000 0.0000
# 3 23.1020 73.1540 130.5968 0.0000 0.0000 0.0000
# 4 0.0000 0.0000 0.0000 17.7673 0.0000 0.0000
# 5 0.0000 0.0000 0.0000 0.0000 24.6252 0.0000
# 6 0.0000 0.0000 0.0000 0.0000 0.0000 21.8178
#
#
#
# Elastic Compliance Matrix: (Units=1/GPa)
#
#
# Indices 1 2 3 4 5 6 
#
# 1 0.022818 -0.006300 -0.000508 0.000000 0.000000 0.000000
# 2 -0.006300 0.013667 -0.006541 0.000000 0.000000 0.000000
# 3 -0.000508 -0.006541 0.011411 0.000000 0.000000 0.000000
# 4 0.000000 0.000000 0.000000 0.056283 0.000000 0.000000
# 5 0.000000 0.000000 0.000000 0.000000 0.040609 0.000000
# 6 0.000000 0.000000 0.000000 0.000000 0.000000 0.045834
#
#
# Mechanical properties :
#
#
# Convention : Reuss Voigt Hill
#
# Bulk Modulus (GPa) = 47.17223 63.82249 55.49736
# Shear Modulus (GPa) = 22.28305 24.66679 23.47492
#
# Velocity S-wave (km/s) = 3.43384 3.61285 3.52448
# Velocity P-wave (km/s) = 6.37835 7.15372 6.77713
#
# Compressibility (1/GPa) = 0.02119891
#
# Stress axis : x y z
#
# Youngs Moduli (GPa) = 43.82477 73.16848 87.63478
#
# Poissons Ratio (x) = 0.46096 0.04448
# Poissons Ratio (y) = 0.27609 0.57324
# Poissons Ratio (z) = 0.02224 0.47861
#
# Static dielectric constant tensor:
#      x y z
#    x 3.259720 0.000000 0.000000 
#    y 0.000000 3.428070 0.000000 
#    z 0.000000 0.000000 3.699890 
# 
# 
# High freq. dielectric constant tensor:
#      x y z
#    x 1.695970 0.000000 0.000000 
#    y 0.000000 1.726040 0.000000 
#    z 0.000000 0.000000 1.743430 
# 
# From -- ./inp_files/40166.got.cif
#   From: 2010.06.25/outbox.cif.g09.slc.cpg/sg71_21_cif.got.tgz:40166.got - 2010.06.28 04:59:45.
