data_PCOD8290284
_publ_section_title
;
Structure prediction by ZEFSAII (Michael W. Deem and Ramdas Pophale) SiO2 
 PCOD8290284
Probable space group: I M M M
;
_chemical_formula_sum "Si O2"
_cell_formula_units_Z 72
_cell_length_a 20.238940
_cell_length_b 21.234811
_cell_length_c 8.992585
_cell_angle_alpha 90.000000
_cell_angle_beta 90.000000
_cell_angle_gamma 90.000000
_cell_volume 3864.743847
_symmetry_space_group_name_H-M "I M M M"
_symmetry_group_IT_number 71
_symmetry_cell_setting 'orthorhombic'
loop_
_space_group_symop_operation_xyz
x,y,z
-x,-y,z
x,-y,-z
-x,y,-z
-x,-y,-z
x,y,-z
-x,y,z
x,-y,z
1/2+x,1/2+y,1/2+z
1/2-x,1/2-y,1/2+z
1/2+x,1/2-y,1/2-z
1/2-x,1/2+y,1/2-z
1/2-x,1/2-y,1/2-z
1/2+x,1/2+y,1/2-z
1/2-x,1/2+y,1/2+z
1/2+x,1/2-y,1/2+z
loop_
_atom_site_type_symbol
_atom_site_label
_atom_site_fract_x
_atom_site_fract_y
_atom_site_fract_z
Si Si1 0.239220 0.926857 0.173602
Si Si2 0.573630 0.500000 0.661318
Si Si3 0.376094 0.927899 0.328237
Si Si4 0.000000 0.785667 0.325376
Si Si5 0.000000 0.651602 0.823566
Si Si6 0.383058 0.378507 0.824507
O O1 0.311202 0.911828 0.235548
O O2 0.189189 0.876165 0.247512
O O3 0.218115 0.000000 0.210319
O O4 0.241031 0.914184 0.000000
O O5 0.500000 0.500000 0.607535
O O6 0.614015 0.500000 0.500000
O O7 0.584408 0.559086 0.764384
O O8 0.360654 0.913850 0.500000
O O9 0.435068 0.884704 0.265993
O O10 0.397801 0.000000 0.305499
O O11 0.932531 0.821991 0.279788
O O12 0.000000 0.772641 0.500000
O O13 0.000000 0.721436 0.237127
O O14 0.000000 0.652581 0.000000
O O15 0.373517 0.381823 0.000000
#
# Coordination Sequence:
#
# PCOD8290284 Si02
#       6
#    16   8  16   8   8  16
#     4  10  20  33  52  84 118 144 177 225 281 332
#     4  11  21  31  49  79 111 142 181 232 281 321
#     4   9  18  35  60  88 114 140 174 221 278 339
#     4  10  24  40  54  77 109 149 194 233 270 323
#     4  10  21  38  61  85 108 141 185 229 276 332
#     4  11  21  35  54  77 109 150 191 228 272 325
#
# _framework density 18.629954999999999
#
# number of rings (size 3 to 8) (size 9 to 14) (size 15 to 20)
#    0.000    1.889    2.222    2.000    0.000    5.333 
#    0.000    1.111    0.000    3.333    0.000    0.000 
#    0.000    0.000    0.000    0.000    0.000    0.000 
#
# Total GULP energy -446222.004465 kJ/mol
# GULP energy per Si atom -12395.055680 kJ/mol
# Density = 1.858755 g / cm^3
# Si number density = 18.629955 Si / 1000 Ang^3
#
#
#
# Elastic Constant Matrix: (Units=GPa)
#
#
# Indices 1 2 3 4 5 6 
#
# 1 154.5620 67.7244 69.2683 0.0000 0.0000 0.0000
# 2 67.7244 89.8573 43.7112 0.0000 0.0000 0.0000
# 3 69.2683 43.7112 81.3291 0.0000 0.0000 0.0000
# 4 0.0000 0.0000 0.0000 31.0701 0.0000 0.0000
# 5 0.0000 0.0000 0.0000 0.0000 24.9775 0.0000
# 6 0.0000 0.0000 0.0000 0.0000 0.0000 9.7868
#
#
#
# Elastic Compliance Matrix: (Units=1/GPa)
#
#
# Indices 1 2 3 4 5 6 
#
# 1 0.012262 -0.005635 -0.007415 0.000000 0.000000 0.000000
# 2 -0.005635 0.017658 -0.004691 0.000000 0.000000 0.000000
# 3 -0.007415 -0.004691 0.021133 0.000000 0.000000 0.000000
# 4 0.000000 0.000000 0.000000 0.032185 0.000000 0.000000
# 5 0.000000 0.000000 0.000000 0.000000 0.040036 0.000000
# 6 0.000000 0.000000 0.000000 0.000000 0.000000 0.102178
#
#
# Mechanical properties :
#
#
# Convention : Reuss Voigt Hill
#
# Bulk Modulus (GPa) = 64.22566 76.35069 70.28817
# Shear Modulus (GPa) = 18.78822 22.83650 20.81236
#
# Velocity S-wave (km/s) = 3.17913 3.50493 3.34600
# Velocity P-wave (km/s) = 6.93001 7.57965 7.26210
#
# Compressibility (1/GPa) = 0.01557010
#
# Stress axis : x y z
#
# Youngs Moduli (GPa) = 81.55276 56.63310 47.32012
#
# Poissons Ratio (x) = 0.31910 0.35089
# Poissons Ratio (y) = 0.45952 0.22199
# Poissons Ratio (z) = 0.60473 0.26568
#
# Static dielectric constant tensor:
#      x y z
#    x 3.743740 0.000000 0.000000 
#    y 0.000000 3.199060 0.000000 
#    z 0.000000 0.000000 3.384910 
# 
# 
# High freq. dielectric constant tensor:
#      x y z
#    x 1.742800 0.000000 0.000000 
#    y 0.000000 1.691170 0.000000 
#    z 0.000000 0.000000 1.729960 
# 
# From -- ./inp_files/10010.got.cif
#   From: 2010.06.25/outbox.cif.g09.slc.cpg/sg71_6_cif.got.tgz:10010.got - 2010.06.28 04:59:45.
