data_PCOD8290609
_publ_section_title
;
Structure prediction by ZEFSAII (Michael W. Deem and Ramdas Pophale) SiO2 
 PCOD8290609
Probable space group: I M M M
;
_chemical_formula_sum "Si O2"
_cell_formula_units_Z 120
_cell_length_a 21.479399
_cell_length_b 21.421737
_cell_length_c 13.599512
_cell_angle_alpha 90.000000
_cell_angle_beta 90.000000
_cell_angle_gamma 90.000000
_cell_volume 6257.489552
_symmetry_space_group_name_H-M "I M M M"
_symmetry_group_IT_number 71
_symmetry_cell_setting 'orthorhombic'
loop_
_space_group_symop_operation_xyz
x,y,z
-x,-y,z
x,-y,-z
-x,y,-z
-x,-y,-z
x,y,-z
-x,y,z
x,-y,z
1/2+x,1/2+y,1/2+z
1/2-x,1/2-y,1/2+z
1/2+x,1/2-y,1/2-z
1/2-x,1/2+y,1/2-z
1/2-x,1/2-y,1/2-z
1/2+x,1/2+y,1/2-z
1/2-x,1/2+y,1/2+z
1/2+x,1/2-y,1/2+z
loop_
_atom_site_type_symbol
_atom_site_label
_atom_site_fract_x
_atom_site_fract_y
_atom_site_fract_z
Si Si1 0.169783 0.929656 0.798235
Si Si2 0.665477 0.728132 0.111416
Si Si3 0.571771 0.000000 0.391135
Si Si4 0.788860 0.365518 0.386512
Si Si5 0.640354 0.107633 0.297519
Si Si6 0.570426 0.214172 0.610716
Si Si7 0.428679 0.329008 0.264012
Si Si8 0.268251 0.397559 0.109066
O O1 0.218894 0.888075 0.860845
O O2 0.103781 0.894095 0.794605
O O3 0.192408 0.937767 0.686126
O O4 0.162171 0.000000 0.842367
O O5 0.701324 0.792358 0.137902
O O6 0.606451 0.709514 0.178161
O O7 0.718106 0.675742 0.123814
O O8 0.639953 0.731597 0.000000
O O9 0.587093 0.059541 0.324868
O O10 0.500000 0.000000 0.410362
O O11 0.603929 0.000000 0.500000
O O12 0.803459 0.381352 0.500000
O O13 0.837396 0.401584 0.315528
O O14 0.614070 0.176887 0.313988
O O15 0.695830 0.092741 0.372389
O O16 0.595723 0.206061 0.500000
O O17 0.500000 0.188776 0.618434
O O18 0.572628 0.286805 0.638564
O O19 0.500000 0.342361 0.230710
O O20 0.285844 0.420791 0.000000
#
# Coordination Sequence:
#
# PCOD8290609 Si02
#       8
#    16  16   8  16  16  16  16  16
#     4  10  23  38  55  82 114 155 203 246 293 349
#     4   9  18  36  58  86 117 148 183 231 293 352
#     4  11  24  40  57  81 117 159 197 234 280 342
#     4  10  22  38  60  86 117 151 190 241 293 343
#     4  11  21  35  58  83 113 148 191 232 284 347
#     4  10  20  34  54  82 113 145 183 230 285 341
#     4  10  21  37  58  84 117 153 193 242 291 352
#     4   9  19  32  55  86 115 142 178 232 295 354
#
# _framework density 19.177021
#
# number of rings (size 3 to 8) (size 9 to 14) (size 15 to 20)
#    0.000    2.067    1.333    1.600    5.600    4.267 
#    0.000    0.000    0.000    2.000    0.000    6.533 
#    0.000    0.000    0.000    0.000    0.000    0.000 
#
# Total GULP energy -743729.291799 kJ/mol
# GULP energy per Si atom -12395.488197 kJ/mol
# Density = 1.913337 g / cm^3
# Si number density = 19.177021 Si / 1000 Ang^3
#
#
#
# Elastic Constant Matrix: (Units=GPa)
#
#
# Indices 1 2 3 4 5 6 
#
# 1 99.8911 47.8235 37.3342 0.0000 0.0000 0.0000
# 2 47.8235 105.7257 26.0499 0.0000 0.0000 0.0000
# 3 37.3342 26.0499 107.8253 0.0000 0.0000 0.0000
# 4 0.0000 0.0000 0.0000 16.2260 0.0000 0.0000
# 5 0.0000 0.0000 0.0000 0.0000 21.1726 0.0000
# 6 0.0000 0.0000 0.0000 0.0000 0.0000 25.4501
#
#
#
# Elastic Compliance Matrix: (Units=1/GPa)
#
#
# Indices 1 2 3 4 5 6 
#
# 1 0.013924 -0.005434 -0.003508 0.000000 0.000000 0.000000
# 2 -0.005434 0.012178 -0.001061 0.000000 0.000000 0.000000
# 3 -0.003508 -0.001061 0.010745 0.000000 0.000000 0.000000
# 4 0.000000 0.000000 0.000000 0.061629 0.000000 0.000000
# 5 0.000000 0.000000 0.000000 0.000000 0.047231 0.000000
# 6 0.000000 0.000000 0.000000 0.000000 0.000000 0.039293
#
#
# Mechanical properties :
#
#
# Convention : Reuss Voigt Hill
#
# Bulk Modulus (GPa) = 59.37808 59.53969 59.45889
# Shear Modulus (GPa) = 23.73966 26.05205 24.89585
#
# Velocity S-wave (km/s) = 3.52223 3.68979 3.60698
# Velocity P-wave (km/s) = 6.89723 7.01908 6.95842
#
# Compressibility (1/GPa) = 0.01684123
#
# Stress axis : x y z
#
# Youngs Moduli (GPa) = 71.82096 82.11783 93.06465
#
# Poissons Ratio (x) = 0.44620 0.32649
# Poissons Ratio (y) = 0.39025 0.09871
# Poissons Ratio (z) = 0.25196 0.08710
#
# Static dielectric constant tensor:
#      x y z
#    x 3.382490 0.000000 0.000000 
#    y 0.000000 3.434940 0.000000 
#    z 0.000000 0.000000 3.548460 
# 
# 
# High freq. dielectric constant tensor:
#      x y z
#    x 1.733010 0.000000 0.000000 
#    y 0.000000 1.742710 0.000000 
#    z 0.000000 0.000000 1.745580 
# 
# From -- ./inp_files/38413.got.cif
#   From: 2010.06.25/outbox.cif.g09.slc.cpg/sg71_20_cif.got.tgz:38413.got - 2010.06.28 04:59:45.
