data_PCOD8290276
_publ_section_title
;
Structure prediction by ZEFSAII (Michael W. Deem and Ramdas Pophale) SiO2 
 PCOD8290276
Probable space group: I M M M
;
_chemical_formula_sum "Si O2"
_cell_formula_units_Z 96
_cell_length_a 9.186453
_cell_length_b 22.821422
_cell_length_c 23.598062
_cell_angle_alpha 90.000000
_cell_angle_beta 90.000000
_cell_angle_gamma 90.000000
_cell_volume 4947.284628
_symmetry_space_group_name_H-M "I M M M"
_symmetry_group_IT_number 71
_symmetry_cell_setting 'orthorhombic'
loop_
_space_group_symop_operation_xyz
x,y,z
-x,-y,z
x,-y,-z
-x,y,-z
-x,-y,-z
x,y,-z
-x,y,z
x,-y,z
1/2+x,1/2+y,1/2+z
1/2-x,1/2-y,1/2+z
1/2+x,1/2-y,1/2-z
1/2-x,1/2+y,1/2-z
1/2-x,1/2-y,1/2-z
1/2+x,1/2+y,1/2-z
1/2-x,1/2+y,1/2+z
1/2+x,1/2-y,1/2+z
loop_
_atom_site_type_symbol
_atom_site_label
_atom_site_fract_x
_atom_site_fract_y
_atom_site_fract_z
Si Si1 0.331438 0.000000 0.109205
Si Si2 0.840167 0.809846 0.500000
Si Si3 0.166688 0.625752 0.223124
Si Si4 0.836515 0.113101 0.910325
Si Si5 0.163878 0.803999 0.811948
Si Si6 0.841246 0.324910 0.500000
Si Si7 0.331379 0.000000 0.241936
Si Si8 0.832991 0.694570 0.114168
O O1 0.255862 0.055083 0.080786
O O2 0.500000 0.000000 0.093497
O O3 0.302863 0.000000 0.175577
O O4 0.872674 0.742415 0.500000
O O5 0.753288 0.824617 0.557766
O O6 0.000000 0.841636 0.500000
O O7 0.241724 0.680380 0.256514
O O8 0.237066 0.560789 0.233212
O O9 0.178761 0.639236 0.156500
O O10 0.000000 0.624997 0.244407
O O11 0.838250 0.134787 0.845922
O O12 0.000000 0.102762 0.932791
O O13 0.755611 0.162583 0.945543
O O14 0.228242 0.751897 0.851811
O O15 0.000000 0.786223 0.793170
O O16 0.000000 0.357138 0.500000
O O17 0.500000 0.000000 0.258117
O O18 0.000000 0.707400 0.096663
#
# Coordination Sequence:
#
# PCOD8290276 Si02
#       8
#     8   8  16  16  16   8   8  16
#     4  11  21  36  56  77 108 148 190 236 272 314
#     4  11  23  37  58  83 110 143 180 226 275 330
#     4  10  20  35  57  83 112 146 183 222 269 326
#     4  11  22  36  55  78 108 145 186 231 276 326
#     4  10  20  33  52  81 114 144 177 222 274 326
#     4  11  23  38  56  79 104 142 190 230 275 324
#     4   9  18  33  54  81 110 141 178 222 266 313
#     4  10  21  37  57  82 112 146 182 222 272 329
#
# _framework density 19.404582999999999
#
# number of rings (size 3 to 8) (size 9 to 14) (size 15 to 20)
#    0.000    1.667    3.333    1.750    0.000    3.000 
#    0.000    2.083    0.000    0.500    0.000    3.500 
#    0.000    0.000    0.000    0.000    0.000    0.000 
#
# Total GULP energy -594918.137292 kJ/mol
# GULP energy per Si atom -12394.127860 kJ/mol
# Density = 1.936042 g / cm^3
# Si number density = 19.404583 Si / 1000 Ang^3
#
#
#
# Elastic Constant Matrix: (Units=GPa)
#
#
# Indices 1 2 3 4 5 6 
#
# 1 100.3256 11.2154 43.9702 0.0000 0.0000 0.0000
# 2 11.2154 48.2692 11.1525 0.0000 0.0000 0.0000
# 3 43.9702 11.1525 93.1673 0.0000 0.0000 0.0000
# 4 0.0000 0.0000 0.0000 -85.5353 0.0000 0.0000
# 5 0.0000 0.0000 0.0000 0.0000 23.4431 0.0000
# 6 0.0000 0.0000 0.0000 0.0000 0.0000 20.8539
#
#
#
# Elastic Compliance Matrix: (Units=1/GPa)
#
#
# Indices 1 2 3 4 5 6 
#
# 1 0.012687 -0.001609 -0.005795 0.000000 0.000000 0.000000
# 2 -0.001609 0.021510 -0.001816 0.000000 0.000000 0.000000
# 3 -0.005795 -0.001816 0.013686 0.000000 0.000000 0.000000
# 4 0.000000 0.000000 0.000000 -0.011691 0.000000 0.000000
# 5 0.000000 0.000000 0.000000 0.000000 0.042656 0.000000
# 6 0.000000 0.000000 0.000000 0.000000 0.000000 0.047953
#
#
# Mechanical properties :
#
#
# Convention : Reuss Voigt Hill
#
# Bulk Modulus (GPa) = 33.96257 41.60426 37.78342
# Shear Modulus (GPa) = 32.24651 3.44727 17.84689
#
# Velocity S-wave (km/s) = 4.08094 1.33431 3.03599
# Velocity P-wave (km/s) = 6.30442 4.88475 5.63944
#
# Compressibility (1/GPa) = 0.02944418
#
# Stress axis : x y z
#
# Youngs Moduli (GPa) = 78.81907 46.48899 73.06877
#
# Poissons Ratio (x) = 0.07480 0.42345
# Poissons Ratio (y) = 0.12682 0.13266
# Poissons Ratio (z) = 0.45677 0.08440
#
# Static dielectric constant tensor:
#      x y z
#    x 3.556410 0.000000 0.000000 
#    y 0.000000 3.485030 0.000000 
#    z 0.000000 0.000000 3.402910 
# 
# 
# High freq. dielectric constant tensor:
#      x y z
#    x 1.747420 0.000000 0.000000 
#    y 0.000000 1.739660 0.000000 
#    z 0.000000 0.000000 1.747810 
# 
# From -- ./inp_files/57811.got.cif
#   From: 2010.06.25/outbox.cif.g09.slc.cpg/sg71_29_cif.got.tgz:57811.got - 2010.06.28 04:59:45.
