data_PCOD8290923
_publ_section_title
;
Structure prediction by ZEFSAII (Michael W. Deem and Ramdas Pophale) SiO2 
 PCOD8290923
Probable space group: I M M M
;
_chemical_formula_sum "Si O2"
_cell_formula_units_Z 96
_cell_length_a 23.030240
_cell_length_b 18.185156
_cell_length_c 12.642637
_cell_angle_alpha 90.000000
_cell_angle_beta 90.000000
_cell_angle_gamma 90.000000
_cell_volume 5294.843928
_symmetry_space_group_name_H-M "I M M M"
_symmetry_group_IT_number 71
_symmetry_cell_setting 'orthorhombic'
loop_
_space_group_symop_operation_xyz
x,y,z
-x,-y,z
x,-y,-z
-x,y,-z
-x,-y,-z
x,y,-z
-x,y,z
x,-y,z
1/2+x,1/2+y,1/2+z
1/2-x,1/2-y,1/2+z
1/2+x,1/2-y,1/2-z
1/2-x,1/2+y,1/2-z
1/2-x,1/2-y,1/2-z
1/2+x,1/2+y,1/2-z
1/2-x,1/2+y,1/2+z
1/2+x,1/2-y,1/2+z
loop_
_atom_site_type_symbol
_atom_site_label
_atom_site_fract_x
_atom_site_fract_y
_atom_site_fract_z
Si Si1 0.250240 0.912537 0.500000
Si Si2 0.112237 0.917487 0.500000
Si Si3 0.331095 0.915631 0.121927
Si Si4 0.933647 0.686472 0.622717
Si Si5 0.432204 0.579600 0.614941
Si Si6 0.114205 0.166658 0.702168
Si Si7 0.747693 0.335596 0.218052
O O1 0.181300 0.912992 0.500000
O O2 0.271955 0.864885 0.603219
O O3 0.271501 0.000000 0.500000
O O4 0.087101 0.877251 0.396751
O O5 0.088633 0.000000 0.500000
O O6 0.396676 0.887127 0.143214
O O7 0.282116 0.877232 0.191040
O O8 0.331946 0.000000 0.153257
O O9 0.313993 0.902122 0.000000
O O10 0.934059 0.708207 0.500000
O O11 0.897585 0.747515 0.686405
O O12 0.000000 0.676710 0.663771
O O13 0.404412 0.596899 0.500000
O O14 0.500000 0.574021 0.601894
O O15 0.408332 0.500000 0.655799
O O16 0.418523 0.645507 0.692255
O O17 0.180454 0.143734 0.719106
O O18 0.750000 0.250000 0.250000
#
# Coordination Sequence:
#
# PCOD8290923 Si02
#       7
#     8   8  16  16  16  16  16
#     4   9  20  36  54  77 111 154 190 218 265 347
#     4   9  18  30  49  78 107 139 176 217 270 323
#     4  10  22  39  59  85 118 148 186 239 288 337
#     4  10  20  35  57  82 111 148 188 231 287 340
#     4   9  19  35  51  69 101 144 184 221 261 312
#     4  11  19  33  54  79 110 143 178 227 276 334
#     4  11  22  35  58  83 115 151 183 227 285 344
#
# _framework density 18.130845999999998
#
# number of rings (size 3 to 8) (size 9 to 14) (size 15 to 20)
#    0.000    2.000    2.500    2.000    1.167    3.000 
#    0.000    3.333    0.000    2.000    0.000    0.000 
#    0.000    2.000    0.000    0.000    0.000    0.000 
#
# Total GULP energy -594775.184106 kJ/mol
# GULP energy per Si atom -12391.149669 kJ/mol
# Density = 1.808958 g / cm^3
# Si number density = 18.130846 Si / 1000 Ang^3
#
#
#
# Elastic Constant Matrix: (Units=GPa)
#
#
# Indices 1 2 3 4 5 6 
#
# 1 81.0457 33.9330 35.5204 0.0000 0.0000 0.0000
# 2 33.9330 135.0076 66.1969 0.0000 0.0000 0.0000
# 3 35.5204 66.1969 101.7070 0.0000 0.0000 0.0000
# 4 0.0000 0.0000 0.0000 33.0484 0.0000 0.0000
# 5 0.0000 0.0000 0.0000 0.0000 25.1490 0.0000
# 6 0.0000 0.0000 0.0000 0.0000 0.0000 23.7320
#
#
#
# Elastic Compliance Matrix: (Units=1/GPa)
#
#
# Indices 1 2 3 4 5 6 
#
# 1 0.014844 -0.001746 -0.004047 0.000000 0.000000 0.000000
# 2 -0.001746 0.011084 -0.006604 0.000000 0.000000 0.000000
# 3 -0.004047 -0.006604 0.015544 0.000000 0.000000 0.000000
# 4 0.000000 0.000000 0.000000 0.030259 0.000000 0.000000
# 5 0.000000 0.000000 0.000000 0.000000 0.039763 0.000000
# 6 0.000000 0.000000 0.000000 0.000000 0.000000 0.042137
#
#
# Mechanical properties :
#
#
# Convention : Reuss Voigt Hill
#
# Bulk Modulus (GPa) = 59.96674 65.45120 62.70897
# Shear Modulus (GPa) = 27.17598 28.52653 27.85126
#
# Velocity S-wave (km/s) = 3.87574 3.97088 3.92360
# Velocity P-wave (km/s) = 7.29210 7.56317 7.42887
#
# Compressibility (1/GPa) = 0.01667591
#
# Stress axis : x y z
#
# Youngs Moduli (GPa) = 67.36819 90.21908 64.33267
#
# Poissons Ratio (x) = 0.15755 0.26039
# Poissons Ratio (y) = 0.11764 0.42487
# Poissons Ratio (z) = 0.27267 0.59584
#
# Static dielectric constant tensor:
#      x y z
#    x 3.222600 0.000000 0.000000 
#    y 0.000000 3.488400 0.000000 
#    z 0.000000 0.000000 3.623470 
# 
# 
# High freq. dielectric constant tensor:
#      x y z
#    x 1.681510 0.000000 0.000000 
#    y 0.000000 1.706680 0.000000 
#    z 0.000000 0.000000 1.702270 
# 
# From -- ./inp_files/26001.got.cif
#   From: 2010.06.25/outbox.cif.g09.slc.cpg/sg71_14_cif.got.tgz:26001.got - 2010.06.28 04:59:45.
