data_PCOD8290619
_publ_section_title
;
Structure prediction by ZEFSAII (Michael W. Deem and Ramdas Pophale) SiO2 
 PCOD8290619
Probable space group: I M M M
;
_chemical_formula_sum "Si O2"
_cell_formula_units_Z 112
_cell_length_a 10.987929
_cell_length_b 23.246551
_cell_length_c 22.724805
_cell_angle_alpha 90.000000
_cell_angle_beta 90.000000
_cell_angle_gamma 90.000000
_cell_volume 5804.629935
_symmetry_space_group_name_H-M "I M M M"
_symmetry_group_IT_number 71
_symmetry_cell_setting 'orthorhombic'
loop_
_space_group_symop_operation_xyz
x,y,z
-x,-y,z
x,-y,-z
-x,y,-z
-x,-y,-z
x,y,-z
-x,y,z
x,-y,z
1/2+x,1/2+y,1/2+z
1/2-x,1/2-y,1/2+z
1/2+x,1/2-y,1/2-z
1/2-x,1/2+y,1/2-z
1/2-x,1/2-y,1/2-z
1/2+x,1/2+y,1/2-z
1/2-x,1/2+y,1/2+z
1/2+x,1/2-y,1/2+z
loop_
_atom_site_type_symbol
_atom_site_label
_atom_site_fract_x
_atom_site_fract_y
_atom_site_fract_z
Si Si1 0.786600 0.245809 0.066867
Si Si2 0.364954 0.633533 0.375208
Si Si3 0.862086 0.432489 0.431814
Si Si4 0.361718 0.872745 0.436325
Si Si5 0.144432 0.565151 0.177532
Si Si6 0.633746 0.742993 0.174586
Si Si7 0.242169 0.657766 0.740034
O O1 0.869420 0.193963 0.090538
O O2 0.861800 0.304412 0.073901
O O3 0.665233 0.250273 0.105913
O O4 0.746906 0.233849 0.000000
O O5 0.500000 0.604992 0.385513
O O6 0.248285 0.596550 0.396053
O O7 0.351813 0.644175 0.305136
O O8 0.843812 0.416944 0.500000
O O9 0.850441 0.500000 0.421185
O O10 0.000000 0.412783 0.412194
O O11 0.298959 0.887314 0.500000
O O12 0.500000 0.893471 0.439406
O O13 0.298925 0.906769 0.382232
O O14 0.191614 0.500000 0.182212
O O15 0.188833 0.598363 0.235476
O O16 0.000000 0.568561 0.175784
O O17 0.500000 0.718124 0.179832
O O18 0.719962 0.696562 0.204858
O O19 0.641109 0.805784 0.204727
#
# Coordination Sequence:
#
# PCOD8290619 Si02
#       7
#    16  16  16  16  16  16  16
#     4  10  20  34  54  83 115 146 180 227 289 346
#     4  11  23  36  56  87 120 153 194 241 289 347
#     4   9  20  40  62  82 110 151 195 239 292 353
#     4   9  17  31  52  78 110 145 180 224 283 344
#     4  10  20  34  55  82 111 146 191 240 288 344
#     4  10  20  35  56  77 104 145 190 235 283 335
#     4  10  21  37  52  77 110 149 187 234 283 340
#
# _framework density 19.294943
#
# number of rings (size 3 to 8) (size 9 to 14) (size 15 to 20)
#    0.000    2.143    1.429    2.143    0.000    6.000 
#    0.000    3.571    0.000    1.286    0.000    0.000 
#    0.000    2.286    0.000    0.000    0.000    0.000 
#
# Total GULP energy -693961.159104 kJ/mol
# GULP energy per Si atom -12392.163555 kJ/mol
# Density = 1.925103 g / cm^3
# Si number density = 19.294943 Si / 1000 Ang^3
#
#
#
# Elastic Constant Matrix: (Units=GPa)
#
#
# Indices 1 2 3 4 5 6 
#
# 1 93.4141 25.5954 36.7272 0.0000 0.0000 0.0000
# 2 25.5954 103.6781 52.9080 0.0000 0.0000 0.0000
# 3 36.7272 52.9080 139.7354 0.0000 0.0000 0.0000
# 4 0.0000 0.0000 0.0000 29.6635 0.0000 0.0000
# 5 0.0000 0.0000 0.0000 0.0000 14.1783 0.0000
# 6 0.0000 0.0000 0.0000 0.0000 0.0000 20.2733
#
#
#
# Elastic Compliance Matrix: (Units=1/GPa)
#
#
# Indices 1 2 3 4 5 6 
#
# 1 0.012176 -0.001702 -0.002556 0.000000 0.000000 0.000000
# 2 -0.001702 0.012193 -0.004169 0.000000 0.000000 0.000000
# 3 -0.002556 -0.004169 0.009407 0.000000 0.000000 0.000000
# 4 0.000000 0.000000 0.000000 0.033712 0.000000 0.000000
# 5 0.000000 0.000000 0.000000 0.000000 0.070530 0.000000
# 6 0.000000 0.000000 0.000000 0.000000 0.000000 0.049326
#
#
# Mechanical properties :
#
#
# Convention : Reuss Voigt Hill
#
# Bulk Modulus (GPa) = 59.09475 63.03209 61.06342
# Shear Modulus (GPa) = 23.82783 27.59614 25.71198
#
# Velocity S-wave (km/s) = 3.51796 3.78594 3.65441
# Velocity P-wave (km/s) = 6.86986 7.20067 7.03721
#
# Compressibility (1/GPa) = 0.01692198
#
# Stress axis : x y z
#
# Youngs Moduli (GPa) = 82.12735 82.01423 106.30539
#
# Poissons Ratio (x) = 0.13956 0.27172
# Poissons Ratio (y) = 0.13975 0.44323
# Poissons Ratio (z) = 0.20992 0.34195
#
# Static dielectric constant tensor:
#      x y z
#    x 3.179040 0.000000 0.000000 
#    y 0.000000 3.472220 0.000000 
#    z 0.000000 0.000000 3.786270 
# 
# 
# High freq. dielectric constant tensor:
#      x y z
#    x 1.717600 0.000000 0.000000 
#    y 0.000000 1.741400 0.000000 
#    z 0.000000 0.000000 1.766890 
# 
# From -- ./inp_files/26269.got.cif
#   From: 2010.06.25/outbox.cif.g09.slc.cpg/sg71_14_cif.got.tgz:26269.got - 2010.06.28 04:59:45.
