data_PCOD8290667
_publ_section_title
;
Structure prediction by ZEFSAII (Michael W. Deem and Ramdas Pophale) SiO2 
 PCOD8290667
Probable space group: I M M M
;
_chemical_formula_sum "Si O2"
_cell_formula_units_Z 88
_cell_length_a 8.656002
_cell_length_b 25.077405
_cell_length_c 19.849456
_cell_angle_alpha 90.000000
_cell_angle_beta 90.000000
_cell_angle_gamma 90.000000
_cell_volume 4308.722760
_symmetry_space_group_name_H-M "I M M M"
_symmetry_group_IT_number 71
_symmetry_cell_setting 'orthorhombic'
loop_
_space_group_symop_operation_xyz
x,y,z
-x,-y,z
x,-y,-z
-x,y,-z
-x,-y,-z
x,y,-z
-x,y,z
x,-y,z
1/2+x,1/2+y,1/2+z
1/2-x,1/2-y,1/2+z
1/2+x,1/2-y,1/2-z
1/2-x,1/2+y,1/2-z
1/2-x,1/2-y,1/2-z
1/2+x,1/2+y,1/2-z
1/2-x,1/2+y,1/2+z
1/2+x,1/2-y,1/2+z
loop_
_atom_site_type_symbol
_atom_site_label
_atom_site_fract_x
_atom_site_fract_y
_atom_site_fract_z
Si Si1 0.325621 0.245290 0.075060
Si Si2 0.819339 0.412924 0.822217
Si Si3 0.322222 0.207215 0.697890
Si Si4 0.672565 0.558376 0.690153
Si Si5 0.817112 0.000000 0.579318
Si Si6 0.676820 0.365540 0.426265
O O1 0.500000 0.255550 0.100975
O O2 0.200639 0.272582 0.122377
O O3 0.294635 0.182868 0.075544
O O4 0.304131 0.268749 0.000000
O O5 0.752544 0.353078 0.805721
O O6 0.785793 0.444278 0.753787
O O7 0.743362 0.445485 0.884633
O O8 0.000000 0.410295 0.838283
O O9 0.500000 0.204000 0.717539
O O10 0.250000 0.250000 0.750000
O O11 0.500000 0.576150 0.713082
O O12 0.666607 0.500000 0.657930
O O13 0.737941 0.595598 0.631461
O O14 0.767501 0.000000 0.500000
O O15 0.000000 0.000000 0.586160
O O16 0.686103 0.393096 0.500000
O O17 0.500000 0.347105 0.412311
#
# Coordination Sequence:
#
# PCOD8290667 Si02
#       6
#    16  16  16  16   8  16
#     4  10  21  37  57  82 114 152 194 240 292 351
#     4  11  24  41  62  89 121 157 199 249 305 365
#     4  11  24  40  61  91 124 160 203 252 306 367
#     4  10  20  34  55  82 113 152 195 239 288 342
#     4  11  25  45  69  95 122 157 204 257 315 380
#     4   9  18  33  54  81 115 156 199 243 290 341
#
# _framework density 20.423687000000001
#
# number of rings (size 3 to 8) (size 9 to 14) (size 15 to 20)
#    0.000    1.727    0.909    3.000    0.000    9.455 
#    0.000    5.455    0.000    0.000    0.000    3.818 
#    0.000    0.000    0.000    0.000    0.000    0.000 
#
# Total GULP energy -545218.281612 kJ/mol
# GULP energy per Si atom -12391.324582 kJ/mol
# Density = 2.037720 g / cm^3
# Si number density = 20.423687 Si / 1000 Ang^3
#
#
#
# Elastic Constant Matrix: (Units=GPa)
#
#
# Indices 1 2 3 4 5 6 
#
# 1 52.8199 26.3384 29.2709 0.0000 0.0000 0.0000
# 2 26.3384 115.6337 53.5793 0.0000 0.0000 0.0000
# 3 29.2709 53.5793 118.0486 0.0002 0.0000 0.0000
# 4 0.0000 0.0000 0.0002 38.2559 0.0000 0.0000
# 5 0.0000 0.0000 0.0000 0.0000 25.9232 0.0000
# 6 0.0000 0.0000 0.0000 0.0000 0.0000 26.6564
#
#
#
# Elastic Compliance Matrix: (Units=1/GPa)
#
#
# Indices 1 2 3 4 5 6 
#
# 1 0.022885 -0.003271 -0.004190 0.000000 0.000000 0.000000
# 2 -0.003271 0.011419 -0.004372 0.000000 0.000000 0.000000
# 3 -0.004190 -0.004372 0.011494 0.000000 0.000000 0.000000
# 4 0.000000 0.000000 0.000000 0.026140 0.000000 0.000000
# 5 0.000000 0.000000 0.000000 0.000000 0.038576 0.000000
# 6 0.000000 0.000000 0.000000 0.000000 0.000000 0.037514
#
#
# Mechanical properties :
#
#
# Convention : Reuss Voigt Hill
#
# Bulk Modulus (GPa) = 45.18172 56.09770 50.63971
# Shear Modulus (GPa) = 27.92194 29.98801 28.95497
#
# Velocity S-wave (km/s) = 3.70149 3.83599 3.76934
# Velocity P-wave (km/s) = 6.35911 6.86632 6.61758
#
# Compressibility (1/GPa) = 0.02213285
#
# Stress axis : x y z
#
# Youngs Moduli (GPa) = 43.69610 87.57577 87.00127
#
# Poissons Ratio (x) = 0.28649 0.36452
# Poissons Ratio (y) = 0.14295 0.38033
# Poissons Ratio (z) = 0.18308 0.38284
#
# Static dielectric constant tensor:
#      x y z
#    x 3.595040 0.000000 0.000000 
#    y 0.000000 3.850050 0.000000 
#    z 0.000000 0.000000 3.862790 
# 
# 
# High freq. dielectric constant tensor:
#      x y z
#    x 1.791730 0.000000 0.000000 
#    y 0.000000 1.797150 0.000000 
#    z 0.000000 0.000000 1.805060 
# 
# From -- ./inp_files/10384.got.cif
#   From: 2010.06.25/outbox.cif.g09.slc.cpg/sg71_6_cif.got.tgz:10384.got - 2010.06.28 04:59:45.
