data_PCOD8290404
_publ_section_title
;
Structure prediction by ZEFSAII (Michael W. Deem and Ramdas Pophale) SiO2 
 PCOD8290404
Probable space group: I M M M
;
_chemical_formula_sum "Si O2"
_cell_formula_units_Z 96
_cell_length_a 28.832922
_cell_length_b 8.701340
_cell_length_c 18.552963
_cell_angle_alpha 90.000000
_cell_angle_beta 90.000000
_cell_angle_gamma 90.000000
_cell_volume 4654.661189
_symmetry_space_group_name_H-M "I M M M"
_symmetry_group_IT_number 71
_symmetry_cell_setting 'orthorhombic'
loop_
_space_group_symop_operation_xyz
x,y,z
-x,-y,z
x,-y,-z
-x,y,-z
-x,-y,-z
x,y,-z
-x,y,z
x,-y,z
1/2+x,1/2+y,1/2+z
1/2-x,1/2-y,1/2+z
1/2+x,1/2-y,1/2-z
1/2-x,1/2+y,1/2-z
1/2-x,1/2-y,1/2-z
1/2+x,1/2+y,1/2-z
1/2-x,1/2+y,1/2+z
1/2+x,1/2-y,1/2+z
loop_
_atom_site_type_symbol
_atom_site_label
_atom_site_fract_x
_atom_site_fract_y
_atom_site_fract_z
Si Si1 0.947862 0.180412 0.283877
Si Si2 0.448102 0.826654 0.371582
Si Si3 0.353535 0.183142 0.172519
Si Si4 0.722360 0.682852 0.082760
Si Si5 0.633851 0.329784 0.420745
Si Si6 0.196110 0.324394 0.815878
O O1 0.943651 0.269624 0.209715
O O2 0.905304 0.244427 0.332120
O O3 0.000000 0.210595 0.317083
O O4 0.940651 0.000000 0.271305
O O5 0.500000 0.820140 0.400058
O O6 0.420333 0.712211 0.424017
O O7 0.428774 0.000000 0.375199
O O8 0.326910 0.238507 0.100761
O O9 0.321696 0.247069 0.239985
O O10 0.358304 0.000000 0.175842
O O11 0.718624 0.500000 0.089601
O O12 0.759409 0.750003 0.142384
O O13 0.735971 0.727176 0.000000
O O14 0.655707 0.322198 0.500000
O O15 0.641789 0.500000 0.388068
O O16 0.654323 0.197171 0.371068
O O17 0.207461 0.500000 0.802342
#
# Coordination Sequence:
#
# PCOD8290404 Si02
#       6
#    16  16  16  16  16  16
#     4  10  20  35  58  87 118 152 190 236 289 343
#     4  10  20  34  52  74 103 142 189 239 291 345
#     4  11  22  36  60  92 121 153 194 240 291 345
#     4  10  22  40  61  85 117 158 199 240 290 347
#     4  11  23  35  50  75 108 149 194 241 292 342
#     4  10  21  38  59  84 113 152 198 240 286 340
#
# _framework density 20.624486000000001
#
# number of rings (size 3 to 8) (size 9 to 14) (size 15 to 20)
#    0.000    1.667    1.667    3.000    0.000    6.000 
#    0.000    1.667    0.000    0.500    0.000    3.500 
#    0.000    0.000    0.000    0.000    0.000    0.000 
#
# Total GULP energy -594688.793484 kJ/mol
# GULP energy per Si atom -12389.349864 kJ/mol
# Density = 2.057754 g / cm^3
# Si number density = 20.624486 Si / 1000 Ang^3
#
#
#
# Elastic Constant Matrix: (Units=GPa)
#
#
# Indices 1 2 3 4 5 6 
#
# 1 116.2008 24.3775 38.6184 0.0000 0.0000 0.0000
# 2 24.3775 36.7969 16.5746 0.0000 0.0000 0.0000
# 3 38.6184 16.5746 46.2302 0.0000 0.0000 0.0000
# 4 0.0000 0.0000 0.0000 18.1729 0.0000 0.0000
# 5 0.0000 0.0000 0.0000 0.0000 3.5084 0.0000
# 6 0.0000 0.0000 0.0000 0.0000 0.0000 31.7886
#
#
#
# Elastic Compliance Matrix: (Units=1/GPa)
#
#
# Indices 1 2 3 4 5 6 
#
# 1 0.012446 -0.004248 -0.008874 0.000000 0.000000 0.000000
# 2 -0.004248 0.033860 -0.008591 0.000000 0.000000 0.000000
# 3 -0.008874 -0.008591 0.032124 0.000000 0.000000 0.000000
# 4 0.000000 0.000000 0.000000 0.055027 0.000000 0.000000
# 5 0.000000 0.000000 0.000000 0.000000 0.285028 0.000000
# 6 0.000000 0.000000 0.000000 0.000000 0.000000 0.031458
#
#
# Mechanical properties :
#
#
# Convention : Reuss Voigt Hill
#
# Bulk Modulus (GPa) = 28.56805 39.81876 34.19340
# Shear Modulus (GPa) = 9.90026 18.67116 14.28571
#
# Velocity S-wave (km/s) = 2.19332 3.01207 2.63469
# Velocity P-wave (km/s) = 4.50509 5.60760 5.08631
#
# Compressibility (1/GPa) = 0.03500414
#
# Stress axis : x y z
#
# Youngs Moduli (GPa) = 80.34592 29.53315 31.12977
#
# Poissons Ratio (x) = 0.12547 0.27624
# Poissons Ratio (y) = 0.34134 0.26743
# Poissons Ratio (z) = 0.71297 0.25371
#
# Static dielectric constant tensor:
#      x y z
#    x 4.114280 0.000000 0.000000 
#    y 0.000000 3.606620 0.000000 
#    z 0.000000 0.000000 3.488970 
# 
# 
# High freq. dielectric constant tensor:
#      x y z
#    x 1.818300 0.000000 0.000000 
#    y 0.000000 1.803050 0.000000 
#    z 0.000000 0.000000 1.771680 
# 
# From -- ./inp_files/10846.got.cif
#   From: 2010.06.25/outbox.cif.g09.slc.cpg/sg71_6_cif.got.tgz:10846.got - 2010.06.28 04:59:45.
