data_PCOD8290704
_publ_section_title
;
Structure prediction by ZEFSAII (Michael W. Deem and Ramdas Pophale) SiO2 
 PCOD8290704
Probable space group: I M M M
;
_chemical_formula_sum "Si O2"
_cell_formula_units_Z 64
_cell_length_a 8.223848
_cell_length_b 22.186671
_cell_length_c 18.098204
_cell_angle_alpha 90.000000
_cell_angle_beta 90.000000
_cell_angle_gamma 90.000000
_cell_volume 3302.194862
_symmetry_space_group_name_H-M "I M M M"
_symmetry_group_IT_number 71
_symmetry_cell_setting 'orthorhombic'
loop_
_space_group_symop_operation_xyz
x,y,z
-x,-y,z
x,-y,-z
-x,y,-z
-x,-y,-z
x,y,-z
-x,y,z
x,-y,z
1/2+x,1/2+y,1/2+z
1/2-x,1/2-y,1/2+z
1/2+x,1/2-y,1/2-z
1/2-x,1/2+y,1/2-z
1/2-x,1/2-y,1/2-z
1/2+x,1/2+y,1/2-z
1/2-x,1/2+y,1/2+z
1/2+x,1/2-y,1/2+z
loop_
_atom_site_type_symbol
_atom_site_label
_atom_site_fract_x
_atom_site_fract_y
_atom_site_fract_z
Si Si1 0.816083 0.140757 0.412495
Si Si2 0.000000 0.431949 0.087921
Si Si3 0.312023 0.375170 0.581457
Si Si4 0.686747 0.236382 0.169238
Si Si5 0.315578 0.000000 0.087163
O O1 0.810008 0.143362 0.500000
O O2 0.668489 0.098543 0.382756
O O3 0.779168 0.207099 0.383109
O O4 0.000000 0.119248 0.387545
O O5 0.000000 0.500000 0.117890
O O6 0.000000 0.430088 0.000000
O O7 0.227487 0.366182 0.500000
O O8 0.500000 0.377570 0.567895
O O9 0.275306 0.321396 0.636755
O O10 0.260537 0.438469 0.619381
O O11 0.500000 0.219728 0.173440
O O12 0.750000 0.250000 0.250000
O O13 0.500000 0.000000 0.111365
O O14 0.286087 0.000000 0.000000
#
# Coordination Sequence:
#
# PCOD8290704 Si02
#       5
#    16   8  16  16   8
#     4   9  19  35  56  82 112 144 182 228 276 329
#     4   9  18  32  56  86 112 141 178 224 276 330
#     4  10  20  34  56  84 112 145 184 227 277 331
#     4  11  23  37  55  79 110 146 186 230 278 331
#     4   9  17  31  53  81 113 145 180 225 272 325
#
# _framework density 19.381049000000001
#
# number of rings (size 3 to 8) (size 9 to 14) (size 15 to 20)
#    0.000    2.250    0.000    2.625    3.500    4.500 
#    0.000    2.500    2.750    0.000    0.000    0.000 
#    0.000    0.000    0.000    0.000    0.000    0.000 
#
# Total GULP energy -396601.917490 kJ/mol
# GULP energy per Si atom -12393.809922 kJ/mol
# Density = 1.933694 g / cm^3
# Si number density = 19.381049 Si / 1000 Ang^3
#
#
#
# Elastic Constant Matrix: (Units=GPa)
#
#
# Indices 1 2 3 4 5 6 
#
# 1 133.0777 80.4427 21.8707 0.0000 0.0000 0.0000
# 2 80.4427 163.6287 39.6264 0.0000 0.0000 0.0000
# 3 21.8707 39.6264 39.5145 0.0001 0.0000 0.0000
# 4 0.0000 0.0000 0.0001 6.2443 0.0000 0.0000
# 5 0.0000 0.0000 0.0000 0.0000 21.3838 0.0000
# 6 0.0000 0.0000 0.0000 0.0000 0.0000 41.3400
#
#
#
# Elastic Compliance Matrix: (Units=1/GPa)
#
#
# Indices 1 2 3 4 5 6 
#
# 1 0.010714 -0.005060 -0.000856 0.000000 0.000000 0.000000
# 2 -0.005060 0.010461 -0.007690 0.000000 0.000000 0.000000
# 3 -0.000856 -0.007690 0.033493 0.000000 0.000000 0.000000
# 4 0.000000 0.000000 0.000000 0.160147 0.000000 0.000000
# 5 0.000000 0.000000 0.000000 0.000000 0.046764 0.000000
# 6 0.000000 0.000000 0.000000 0.000000 0.000000 0.024190
#
#
# Mechanical properties :
#
#
# Convention : Reuss Voigt Hill
#
# Bulk Modulus (GPa) = 36.42186 68.90005 52.66096
# Shear Modulus (GPa) = 15.52158 26.74569 21.13364
#
# Velocity S-wave (km/s) = 2.83302 3.71885 3.30575
# Velocity P-wave (km/s) = 5.43458 7.35304 6.46537
#
# Compressibility (1/GPa) = 0.02745604
#
# Stress axis : x y z
#
# Youngs Moduli (GPa) = 93.33975 95.59099 29.85706
#
# Poissons Ratio (x) = 0.48366 0.02555
# Poissons Ratio (y) = 0.47227 0.22961
# Poissons Ratio (z) = 0.07988 0.73513
#
# Static dielectric constant tensor:
#      x y z
#    x 3.896590 0.000000 0.000000 
#    y 0.000000 3.789220 0.000000 
#    z 0.000000 0.000000 3.195130 
# 
# 
# High freq. dielectric constant tensor:
#      x y z
#    x 1.772760 0.000000 0.000000 
#    y 0.000000 1.760500 0.000000 
#    z 0.000000 0.000000 1.715710 
# 
# From -- ./inp_files/9543.got.cif
#   From: 2010.06.25/outbox.cif.g09.slc.cpg/sg71_5_cif.got.tgz:9543.got - 2010.06.28 04:59:45.
