data_PCOD8290566
_publ_section_title
;
Structure prediction by ZEFSAII (Michael W. Deem and Ramdas Pophale) SiO2 
 PCOD8290566
Probable space group: I M M M
;
_chemical_formula_sum "Si O2"
_cell_formula_units_Z 104
_cell_length_a 11.700804
_cell_length_b 29.750583
_cell_length_c 16.587105
_cell_angle_alpha 90.000000
_cell_angle_beta 90.000000
_cell_angle_gamma 90.000000
_cell_volume 5774.066470
_symmetry_space_group_name_H-M "I M M M"
_symmetry_group_IT_number 71
_symmetry_cell_setting 'orthorhombic'
loop_
_space_group_symop_operation_xyz
x,y,z
-x,-y,z
x,-y,-z
-x,y,-z
-x,-y,-z
x,y,-z
-x,y,z
x,-y,z
1/2+x,1/2+y,1/2+z
1/2-x,1/2-y,1/2+z
1/2+x,1/2-y,1/2-z
1/2-x,1/2+y,1/2-z
1/2-x,1/2-y,1/2-z
1/2+x,1/2+y,1/2-z
1/2-x,1/2+y,1/2+z
1/2+x,1/2-y,1/2+z
loop_
_atom_site_type_symbol
_atom_site_label
_atom_site_fract_x
_atom_site_fract_y
_atom_site_fract_z
Si Si1 0.636094 0.000000 0.404971
Si Si2 0.212802 0.724883 0.828500
Si Si3 0.709468 0.686404 0.407407
Si Si4 0.628881 0.850140 0.226369
Si Si5 0.500000 0.448868 0.268010
Si Si6 0.000000 0.877683 0.092879
Si Si7 0.268770 0.579532 0.818696
Si Si8 0.373633 0.658422 0.906333
O O1 0.689155 0.042965 0.360917
O O2 0.500000 0.000000 0.392832
O O3 0.667574 0.000000 0.500000
O O4 0.250000 0.750000 0.750000
O O5 0.163493 0.762677 0.889495
O O6 0.126622 0.684843 0.802392
O O7 0.325641 0.703280 0.866497
O O8 0.747572 0.683046 0.500000
O O9 0.817189 0.673557 0.352098
O O10 0.609332 0.652133 0.386885
O O11 0.500000 0.864126 0.205783
O O12 0.698746 0.895327 0.247905
O O13 0.500000 0.500000 0.296770
O O14 0.500000 0.420383 0.349597
O O15 0.386007 0.440672 0.215913
O O16 0.000000 0.893818 0.000000
O O17 0.297764 0.615068 0.888126
O O18 0.500000 0.650615 0.870529
O O19 0.376583 0.666917 0.000000
#
# Coordination Sequence:
#
# PCOD8290566 Si02
#       8
#     8  16  16  16   8   8  16  16
#     4  11  24  41  61  85 117 155 192 236 291 353
#     4   9  20  33  49  77 109 148 194 237 279 339
#     4  10  20  36  57  82 113 149 192 244 293 342
#     4  10  21  36  55  80 112 153 195 235 284 346
#     4  12  22  39  66  92 118 150 190 246 301 351
#     4  10  22  39  62  88 118 154 192 243 306 352
#     4  11  21  38  58  87 114 148 192 239 288 349
#     4  10  20  34  54  79 113 151 186 235 293 342
#
# _framework density 18.011569999999999
#
# number of rings (size 3 to 8) (size 9 to 14) (size 15 to 20)
#    0.000    1.769    3.077    1.385    1.077    2.923 
#    0.000    0.385    0.000    2.769    0.000    0.000 
#    0.000    4.923    0.000    0.000    0.000    0.000 
#
# Total GULP energy -644599.084770 kJ/mol
# GULP energy per Si atom -12396.136246 kJ/mol
# Density = 1.797058 g / cm^3
# Si number density = 18.011570 Si / 1000 Ang^3
#
#
#
# Elastic Constant Matrix: (Units=GPa)
#
#
# Indices 1 2 3 4 5 6 
#
# 1 115.6242 47.6503 50.7930 0.0000 0.0000 0.0000
# 2 47.6503 129.0310 55.3905 0.0000 0.0000 0.0000
# 3 50.7930 55.3905 91.9527 -0.0003 0.0000 -0.0003
# 4 0.0000 0.0000 -0.0003 28.9724 0.0000 -0.0001
# 5 0.0000 0.0000 0.0000 0.0000 27.7457 0.0001
# 6 0.0000 0.0000 -0.0003 -0.0001 0.0001 14.9093
#
#
#
# Elastic Compliance Matrix: (Units=1/GPa)
#
#
# Indices 1 2 3 4 5 6 
#
# 1 0.011831 -0.002109 -0.005265 0.000000 0.000000 0.000000
# 2 -0.002109 0.010829 -0.005358 0.000000 0.000000 0.000000
# 3 -0.005265 -0.005358 0.017011 0.000000 0.000000 0.000000
# 4 0.000000 0.000000 0.000000 0.034516 0.000000 0.000000
# 5 0.000000 0.000000 0.000000 0.000000 0.036042 0.000000
# 6 0.000000 0.000000 0.000000 0.000000 0.000000 0.067072
#
#
# Mechanical properties :
#
#
# Convention : Reuss Voigt Hill
#
# Bulk Modulus (GPa) = 70.38817 71.58615 70.98716
# Shear Modulus (GPa) = 24.09644 26.51041 25.30343
#
# Velocity S-wave (km/s) = 3.66161 3.84064 3.75219
# Velocity P-wave (km/s) = 7.55253 7.71350 7.63344
#
# Compressibility (1/GPa) = 0.01420693
#
# Stress axis : x y z
#
# Youngs Moduli (GPa) = 84.52711 92.34367 58.78573
#
# Poissons Ratio (x) = 0.19475 0.30948
# Poissons Ratio (y) = 0.17826 0.31499
# Poissons Ratio (z) = 0.44500 0.49480
#
# Static dielectric constant tensor:
#      x y z
#    x 3.191880 0.000000 0.000000 
#    y 0.000000 3.550820 0.000000 
#    z 0.000000 0.000000 3.318860 
# 
# 
# High freq. dielectric constant tensor:
#      x y z
#    x 1.694110 0.000000 0.000000 
#    y 0.000000 1.703700 0.000000 
#    z 0.000000 0.000000 1.697250 
# 
# From -- ./inp_files/43824.got.cif
#   From: 2010.06.25/outbox.cif.g09.slc.cpg/sg71_22_cif.got.tgz:43824.got - 2010.06.28 04:59:45.
