data_PCOD8290256
_publ_section_title
;
Structure prediction by ZEFSAII (Michael W. Deem and Ramdas Pophale) SiO2 
 PCOD8290256
Probable space group: I M M M
;
_chemical_formula_sum "Si O2"
_cell_formula_units_Z 104
_cell_length_a 23.577900
_cell_length_b 26.400662
_cell_length_c 9.296903
_cell_angle_alpha 90.000000
_cell_angle_beta 90.000000
_cell_angle_gamma 90.000000
_cell_volume 5787.063371
_symmetry_space_group_name_H-M "I M M M"
_symmetry_group_IT_number 71
_symmetry_cell_setting 'orthorhombic'
loop_
_space_group_symop_operation_xyz
x,y,z
-x,-y,z
x,-y,-z
-x,y,-z
-x,-y,-z
x,y,-z
-x,y,z
x,-y,z
1/2+x,1/2+y,1/2+z
1/2-x,1/2-y,1/2+z
1/2+x,1/2-y,1/2-z
1/2-x,1/2+y,1/2-z
1/2-x,1/2-y,1/2-z
1/2+x,1/2+y,1/2-z
1/2-x,1/2+y,1/2+z
1/2+x,1/2-y,1/2+z
loop_
_atom_site_type_symbol
_atom_site_label
_atom_site_fract_x
_atom_site_fract_y
_atom_site_fract_z
Si Si1 0.261713 0.636278 0.162613
Si Si2 0.355352 0.441247 0.831477
Si Si3 0.067594 0.500000 0.161751
Si Si4 0.862084 0.212474 0.666098
Si Si5 0.842598 0.324925 0.666299
Si Si6 0.433228 0.633636 0.332102
Si Si7 0.064435 0.404813 0.335079
O O1 0.295484 0.585285 0.207596
O O2 0.302847 0.683893 0.181966
O O3 0.207504 0.643742 0.261092
O O4 0.239927 0.631896 0.000000
O O5 0.351244 0.500000 0.790223
O O6 0.405755 0.415834 0.741150
O O7 0.368709 0.432810 0.000000
O O8 0.090786 0.450062 0.240532
O O9 0.000000 0.500000 0.169168
O O10 0.090851 0.500000 0.000000
O O11 0.882392 0.213759 0.500000
O O12 0.851766 0.268666 0.729069
O O13 0.910286 0.185030 0.759486
O O14 0.826523 0.321181 0.500000
O O15 0.901040 0.353986 0.694154
O O16 0.417391 0.634182 0.500000
O O17 0.500000 0.630627 0.307148
O O18 0.068451 0.422243 0.500000
O O19 0.000000 0.392827 0.290291
#
# Coordination Sequence:
#
# PCOD8290256 Si02
#       7
#    16  16   8  16  16  16  16
#     4   9  18  33  52  75 104 137 171 210 260 309
#     4   9  19  37  58  78 104 140 181 220 259 311
#     4   9  17  31  51  71  91 121 161 199 238 289
#     4   9  19  35  54  75 102 139 178 213 252 305
#     4  10  20  33  52  79 104 130 172 217 256 306
#     4  10  21  35  52  79 112 142 175 217 266 315
#     4   9  18  33  51  71  99 132 163 202 252 301
#
# _framework density 17.971118000000001
#
# number of rings (size 3 to 8) (size 9 to 14) (size 15 to 20)
#    0.000    2.692    0.000    2.077    0.000    7.077 
#    1.385    3.077    0.000    1.846    0.000    0.000 
#    0.000    0.000    0.000    0.000    0.000    0.000 
#
# Total GULP energy -644846.700646 kJ/mol
# GULP energy per Si atom -12400.898089 kJ/mol
# Density = 1.793021 g / cm^3
# Si number density = 17.971118 Si / 1000 Ang^3
#
#
#
# Elastic Constant Matrix: (Units=GPa)
#
#
# Indices 1 2 3 4 5 6 
#
# 1 94.9836 61.8811 53.8772 0.0000 0.0000 0.0000
# 2 61.8811 115.7644 52.3529 0.0000 0.0000 0.0000
# 3 53.8772 52.3529 80.1328 0.0000 0.0000 0.0000
# 4 0.0000 0.0000 0.0000 19.2284 0.0000 0.0000
# 5 0.0000 0.0000 0.0000 0.0000 30.5610 0.0000
# 6 0.0000 0.0000 0.0000 0.0000 0.0000 15.2726
#
#
#
# Elastic Compliance Matrix: (Units=1/GPa)
#
#
# Indices 1 2 3 4 5 6 
#
# 1 0.019988 -0.006539 -0.009167 0.000000 0.000000 0.000000
# 2 -0.006539 0.014400 -0.005011 0.000000 0.000000 0.000000
# 3 -0.009167 -0.005011 0.021917 0.000000 0.000000 0.000000
# 4 0.000000 0.000000 0.000000 0.052007 0.000000 0.000000
# 5 0.000000 0.000000 0.000000 0.000000 0.032721 0.000000
# 6 0.000000 0.000000 0.000000 0.000000 0.000000 0.065477
#
#
# Mechanical properties :
#
#
# Convention : Reuss Voigt Hill
#
# Bulk Modulus (GPa) = 67.24844 69.67813 68.46328
# Shear Modulus (GPa) = 19.77068 21.19703 20.48385
#
# Velocity S-wave (km/s) = 3.32043 3.43812 3.37979
# Velocity P-wave (km/s) = 7.22508 7.39035 7.30819
#
# Compressibility (1/GPa) = 0.01487023
#
# Stress axis : x y z
#
# Youngs Moduli (GPa) = 50.03077 69.44513 45.62732
#
# Poissons Ratio (x) = 0.45408 0.41826
# Poissons Ratio (y) = 0.32714 0.22866
# Poissons Ratio (z) = 0.45862 0.34802
#
# Static dielectric constant tensor:
#      x y z
#    x 3.155210 0.000000 0.000000 
#    y 0.000000 3.453180 0.000000 
#    z 0.000000 0.000000 3.335560 
# 
# 
# High freq. dielectric constant tensor:
#      x y z
#    x 1.682990 0.000000 0.000000 
#    y 0.000000 1.702650 0.000000 
#    z 0.000000 0.000000 1.692430 
# 
# From -- ./inp_files/13284.got.cif
#   From: 2010.06.25/outbox.cif.g09.slc.cpg/sg71_7_cif.got.tgz:13284.got - 2010.06.28 04:59:45.
