data_PCOD8290718
_publ_section_title
;
Structure prediction by ZEFSAII (Michael W. Deem and Ramdas Pophale) SiO2 
 PCOD8290718
Probable space group: I M M M
;
_chemical_formula_sum "Si O2"
_cell_formula_units_Z 80
_cell_length_a 28.771490
_cell_length_b 8.885786
_cell_length_c 15.591829
_cell_angle_alpha 90.000000
_cell_angle_beta 90.000000
_cell_angle_gamma 90.000000
_cell_volume 3986.164952
_symmetry_space_group_name_H-M "I M M M"
_symmetry_group_IT_number 71
_symmetry_cell_setting 'orthorhombic'
loop_
_space_group_symop_operation_xyz
x,y,z
-x,-y,z
x,-y,-z
-x,y,-z
-x,-y,-z
x,y,-z
-x,y,z
x,-y,z
1/2+x,1/2+y,1/2+z
1/2-x,1/2-y,1/2+z
1/2+x,1/2-y,1/2-z
1/2-x,1/2+y,1/2-z
1/2-x,1/2-y,1/2-z
1/2+x,1/2+y,1/2-z
1/2-x,1/2+y,1/2+z
1/2+x,1/2-y,1/2+z
loop_
_atom_site_type_symbol
_atom_site_label
_atom_site_fract_x
_atom_site_fract_y
_atom_site_fract_z
Si Si1 0.890864 0.672955 0.403672
Si Si2 0.303065 0.325952 0.155529
Si Si3 0.113706 0.173639 0.094908
Si Si4 0.447726 0.321694 0.753294
Si Si5 0.698793 0.174626 0.336304
O O1 0.910565 0.693539 0.500000
O O2 0.891255 0.500000 0.375650
O O3 0.837895 0.731899 0.403553
O O4 0.922589 0.763959 0.338201
O O5 0.316778 0.500000 0.148635
O O6 0.309461 0.275807 0.253172
O O7 0.250165 0.297353 0.124801
O O8 0.078057 0.234146 0.166897
O O9 0.160696 0.272408 0.095398
O O10 0.126386 0.000000 0.112355
O O11 0.091373 0.192894 0.000000
O O12 0.500000 0.257121 0.751010
O O13 0.448208 0.500000 0.756857
O O14 0.692490 0.000000 0.312056
#
# Coordination Sequence:
#
# PCOD8290718 Si02
#       5
#    16  16  16  16  16
#     4  11  24  40  60  88 120 155 196 242 294 350
#     4  10  20  35  57  85 118 157 199 240 286 342
#     4  10  21  37  59  88 121 157 196 238 287 345
#     4  10  22  41  64  88 115 151 196 245 297 352
#     4  10  20  34  56  86 120 158 197 238 287 343
#
# _framework density 20.069416
#
# number of rings (size 3 to 8) (size 9 to 14) (size 15 to 20)
#    0.000    1.800    2.000    1.800    0.000    6.400 
#    0.000    8.000    0.000    0.000    0.000    2.800 
#    0.000    0.000    0.000    0.000    0.000    0.000 
#
# Total GULP energy -496041.064033 kJ/mol
# GULP energy per Si atom -12401.026601 kJ/mol
# Density = 2.002374 g / cm^3
# Si number density = 20.069416 Si / 1000 Ang^3
#
#
#
# Elastic Constant Matrix: (Units=GPa)
#
#
# Indices 1 2 3 4 5 6 
#
# 1 131.5003 27.4834 56.0699 0.0000 0.0000 0.0000
# 2 27.4834 26.8993 16.1182 0.0000 0.0000 0.0000
# 3 56.0699 16.1182 108.1942 0.0000 0.0000 0.0000
# 4 0.0000 0.0000 0.0000 24.9468 0.0000 0.0000
# 5 0.0000 0.0000 0.0000 0.0000 12.4157 0.0000
# 6 0.0000 0.0000 0.0000 0.0000 0.0000 26.5609
#
#
#
# Elastic Compliance Matrix: (Units=1/GPa)
#
#
# Indices 1 2 3 4 5 6 
#
# 1 0.011428 -0.008924 -0.004593 0.000000 0.000000 0.000000
# 2 -0.008924 0.047788 -0.002494 0.000000 0.000000 0.000000
# 3 -0.004593 -0.002494 0.011994 0.000000 0.000000 0.000000
# 4 0.000000 0.000000 0.000000 0.040085 0.000000 0.000000
# 5 0.000000 0.000000 0.000000 0.000000 0.080543 0.000000
# 6 0.000000 0.000000 0.000000 0.000000 0.000000 0.037649
#
#
# Mechanical properties :
#
#
# Convention : Reuss Voigt Hill
#
# Bulk Modulus (GPa) = 25.51813 51.77074 38.64444
# Shear Modulus (GPa) = 18.21000 23.91282 21.06141
#
# Velocity S-wave (km/s) = 3.01549 3.45556 3.24300
# Velocity P-wave (km/s) = 4.98666 6.46321 5.77234
#
# Compressibility (1/GPa) = 0.03918782
#
# Stress axis : x y z
#
# Youngs Moduli (GPa) = 87.50420 20.92564 83.37175
#
# Poissons Ratio (x) = 0.18674 0.38292
# Poissons Ratio (y) = 0.78089 0.20797
# Poissons Ratio (z) = 0.40190 0.05220
#
# Static dielectric constant tensor:
#      x y z
#    x 3.840650 0.000000 0.000000 
#    y 0.000000 3.587870 0.000000 
#    z 0.000000 0.000000 3.503750 
# 
# 
# High freq. dielectric constant tensor:
#      x y z
#    x 1.780540 0.000000 0.000000 
#    y 0.000000 1.781930 0.000000 
#    z 0.000000 0.000000 1.778660 
# 
# From -- ./inp_files/8606.got.cif
#   From: 2010.06.25/outbox.cif.g09.slc.cpg/sg71_5_cif.got.tgz:8606.got - 2010.06.28 04:59:45.
