data_PCOD8290351
_publ_section_title
;
Structure prediction by ZEFSAII (Michael W. Deem and Ramdas Pophale) SiO2 
 PCOD8290351
Probable space group: I M M M
;
_chemical_formula_sum "Si O2"
_cell_formula_units_Z 104
_cell_length_a 8.705778
_cell_length_b 24.020030
_cell_length_c 27.772200
_cell_angle_alpha 90.000000
_cell_angle_beta 90.000000
_cell_angle_gamma 90.000000
_cell_volume 5807.529412
_symmetry_space_group_name_H-M "I M M M"
_symmetry_group_IT_number 71
_symmetry_cell_setting 'orthorhombic'
loop_
_space_group_symop_operation_xyz
x,y,z
-x,-y,z
x,-y,-z
-x,y,-z
-x,-y,-z
x,y,-z
-x,y,z
x,-y,z
1/2+x,1/2+y,1/2+z
1/2-x,1/2-y,1/2+z
1/2+x,1/2-y,1/2-z
1/2-x,1/2+y,1/2-z
1/2-x,1/2-y,1/2-z
1/2+x,1/2+y,1/2-z
1/2-x,1/2+y,1/2+z
1/2+x,1/2-y,1/2+z
loop_
_atom_site_type_symbol
_atom_site_label
_atom_site_fract_x
_atom_site_fract_y
_atom_site_fract_z
Si Si1 0.819575 0.757242 0.302135
Si Si2 0.171772 0.934329 0.000000
Si Si3 0.824355 0.271376 0.444890
Si Si4 0.817051 0.937282 0.445488
Si Si5 0.819526 0.563468 0.401092
Si Si6 0.822773 0.165217 0.864264
Si Si7 0.323801 0.663974 0.884426
O O1 0.750000 0.750000 0.250000
O O2 0.782955 0.699779 0.328380
O O3 0.752845 0.809663 0.334396
O O4 0.000000 0.764499 0.297478
O O5 0.267399 0.915248 0.046401
O O6 0.000000 0.908245 0.000000
O O7 0.157854 0.000000 0.000000
O O8 0.776549 0.273080 0.500000
O O9 0.707810 0.312372 0.417970
O O10 0.804396 0.208556 0.426725
O O11 0.000000 0.291073 0.436294
O O12 0.757720 0.924238 0.500000
O O13 0.748466 0.893308 0.405727
O O14 0.000000 0.932281 0.445760
O O15 0.766525 0.000000 0.430644
O O16 0.770333 0.500000 0.391690
O O17 0.730881 0.600857 0.361670
O O18 0.000000 0.571669 0.396212
O O19 0.000000 0.170690 0.849745
O O20 0.500000 0.651522 0.872997
#
# Coordination Sequence:
#
# PCOD8290351 Si02
#       7
#    16   8  16  16  16  16  16
#     4  10  20  36  56  75  95 122 161 208 261 315
#     4   9  17  29  45  67  95 129 169 207 240 275
#     4   9  17  29  45  65  94 132 168 202 242 291
#     4   8  12  18  33  62 100 137 166 190 221 269
#     4  10  20  34  51  70  96 132 170 205 243 293
#     4  11  22  34  50  73 100 127 162 207 255 304
#     4   8  14  25  42  65  93 126 162 197 238 292
#
# _framework density 17.907786999999999
#
# number of rings (size 3 to 8) (size 9 to 14) (size 15 to 20)
#    0.000    2.692    0.000    4.385    1.077    4.000 
#    0.000    0.000    0.000    0.923    0.000    2.154 
#    0.000   14.769    0.000   49.385    0.000   44.615 
#
# Total GULP energy -644286.370136 kJ/mol
# GULP energy per Si atom -12390.122503 kJ/mol
# Density = 1.786703 g / cm^3
# Si number density = 17.907787 Si / 1000 Ang^3
#
#
#
# Elastic Constant Matrix: (Units=GPa)
#
#
# Indices 1 2 3 4 5 6 
#
# 1 43.8919 16.7394 14.5870 0.0000 0.0000 0.0000
# 2 16.7394 115.6411 56.5327 0.0000 0.0000 0.0000
# 3 14.5870 56.5327 115.6058 0.0000 0.0000 0.0000
# 4 0.0000 0.0000 0.0000 17.8194 0.0000 0.0000
# 5 0.0000 0.0000 0.0000 0.0000 24.7680 0.0000
# 6 0.0000 0.0000 0.0000 0.0000 0.0000 14.6060
#
#
#
# Elastic Compliance Matrix: (Units=1/GPa)
#
#
# Indices 1 2 3 4 5 6 
#
# 1 0.024389 -0.002662 -0.001775 0.000000 0.000000 0.000000
# 2 -0.002662 0.011655 -0.005363 0.000000 0.000000 0.000000
# 3 -0.001775 -0.005363 0.011497 0.000000 0.000000 0.000000
# 4 0.000000 0.000000 0.000000 0.056119 0.000000 0.000000
# 5 0.000000 0.000000 0.000000 0.000000 0.040375 0.000000
# 6 0.000000 0.000000 0.000000 0.000000 0.000000 0.068465
#
#
# Mechanical properties :
#
#
# Convention : Reuss Voigt Hill
#
# Bulk Modulus (GPa) = 35.79364 50.09522 42.94443
# Shear Modulus (GPa) = 20.71135 23.92400 22.31768
#
# Velocity S-wave (km/s) = 3.40451 3.65904 3.53406
# Velocity P-wave (km/s) = 5.95696 6.77393 6.37854
#
# Compressibility (1/GPa) = 0.02793792
#
# Stress axis : x y z
#
# Youngs Moduli (GPa) = 41.00271 85.80148 86.98016
#
# Poissons Ratio (x) = 0.22844 0.15442
# Poissons Ratio (y) = 0.10917 0.46651
# Poissons Ratio (z) = 0.07280 0.46019
#
# Static dielectric constant tensor:
#      x y z
#    x 3.066510 0.000000 0.000000 
#    y 0.000000 3.114570 0.000000 
#    z 0.000000 0.000000 3.279850 
# 
# 
# High freq. dielectric constant tensor:
#      x y z
#    x 1.663540 0.000000 0.000000 
#    y 0.000000 1.698070 0.000000 
#    z 0.000000 0.000000 1.666270 
# 
# From -- ./inp_files/63569.got.cif
#   From: 2010.06.25/outbox.cif.g09.slc.cpg/sg71_32_cif.got.tgz:63569.got - 2010.06.28 04:59:45.
