data_PCOD8290861
_publ_section_title
;
Structure prediction by ZEFSAII (Michael W. Deem and Ramdas Pophale) SiO2 
 PCOD8290861
Probable space group: I M M M
;
_chemical_formula_sum "Si O2"
_cell_formula_units_Z 96
_cell_length_a 23.675260
_cell_length_b 8.734975
_cell_length_c 25.155948
_cell_angle_alpha 90.000000
_cell_angle_beta 90.000000
_cell_angle_gamma 90.000000
_cell_volume 5202.320589
_symmetry_space_group_name_H-M "I M M M"
_symmetry_group_IT_number 71
_symmetry_cell_setting 'orthorhombic'
loop_
_space_group_symop_operation_xyz
x,y,z
-x,-y,z
x,-y,-z
-x,y,-z
-x,-y,-z
x,y,-z
-x,y,z
x,-y,z
1/2+x,1/2+y,1/2+z
1/2-x,1/2-y,1/2+z
1/2+x,1/2-y,1/2-z
1/2-x,1/2+y,1/2-z
1/2-x,1/2-y,1/2-z
1/2+x,1/2+y,1/2-z
1/2-x,1/2+y,1/2+z
1/2+x,1/2-y,1/2+z
loop_
_atom_site_type_symbol
_atom_site_label
_atom_site_fract_x
_atom_site_fract_y
_atom_site_fract_z
Si Si1 0.618473 0.819288 0.848093
Si Si2 0.384096 0.680187 0.347589
Si Si3 0.311471 0.319542 0.059583
Si Si4 0.500000 0.817975 0.807640
Si Si5 0.000000 0.317621 0.813608
Si Si6 0.683766 0.177159 0.562004
Si Si7 0.188481 0.318308 0.246246
O O1 0.642297 0.753799 0.902485
O O2 0.555008 0.756917 0.838739
O O3 0.655826 0.763961 0.798699
O O4 0.618696 0.000000 0.852206
O O5 0.388345 0.500000 0.339077
O O6 0.445573 0.754264 0.343750
O O7 0.359266 0.717142 0.405629
O O8 0.342498 0.752343 0.304693
O O9 0.317492 0.500000 0.062096
O O10 0.247900 0.272867 0.076340
O O11 0.323877 0.260565 0.000000
O O12 0.500000 0.757280 0.747118
O O13 0.500000 0.000000 0.805259
O O14 0.000000 0.500000 0.816060
O O15 0.671994 0.203852 0.500000
O O16 0.674359 0.000000 0.577174
O O17 0.190851 0.500000 0.241181
O O18 0.250000 0.250000 0.250000
#
# Coordination Sequence:
#
# PCOD8290861 Si02
#       7
#    16  16  16   8   8  16  16
#     4  10  20  35  56  80 106 142 189 233 278 331
#     4  12  24  37  56  87 120 149 188 236 287 348
#     4   9  19  36  57  82 113 147 184 229 281 337
#     4   9  18  37  58  77 104 144 190 234 276 323
#     4  11  21  41  64  79 108 157 198 237 283 336
#     4   9  19  38  62  84 110 151 196 233 280 343
#     4  11  22  36  55  82 115 150 187 234 291 346
#
# _framework density 18.453302999999998
#
# number of rings (size 3 to 8) (size 9 to 14) (size 15 to 20)
#    0.000    1.833    1.667    4.250    0.000    5.333 
#    0.000    2.917    0.000    5.000    0.000    0.000 
#    0.000    0.000    0.000    0.000    0.000    0.000 
#
# Total GULP energy -595309.499510 kJ/mol
# GULP energy per Si atom -12402.281240 kJ/mol
# Density = 1.841130 g / cm^3
# Si number density = 18.453303 Si / 1000 Ang^3
#
#
#
# Elastic Constant Matrix: (Units=GPa)
#
#
# Indices 1 2 3 4 5 6 
#
# 1 173.9746 44.7640 77.2320 0.0000 0.0000 0.0000
# 2 44.7640 58.1265 31.1056 0.0000 0.0000 0.0000
# 3 77.2320 31.1056 108.5021 0.0000 0.0000 0.0000
# 4 0.0000 0.0000 0.0000 30.8693 0.0000 0.0000
# 5 0.0000 0.0000 0.0000 0.0000 23.9124 0.0000
# 6 0.0000 0.0000 0.0000 0.0000 0.0000 31.9032
#
#
#
# Elastic Compliance Matrix: (Units=1/GPa)
#
#
# Indices 1 2 3 4 5 6 
#
# 1 0.009208 -0.004233 -0.005341 0.000000 0.000000 0.000000
# 2 -0.004233 0.022268 -0.003370 0.000000 0.000000 0.000000
# 3 -0.005341 -0.003370 0.013984 0.000000 0.000000 0.000000
# 4 0.000000 0.000000 0.000000 0.032395 0.000000 0.000000
# 5 0.000000 0.000000 0.000000 0.000000 0.041819 0.000000
# 6 0.000000 0.000000 0.000000 0.000000 0.000000 0.031345
#
#
# Mechanical properties :
#
#
# Convention : Reuss Voigt Hill
#
# Bulk Modulus (GPa) = 51.09610 71.86738 61.48174
# Shear Modulus (GPa) = 27.25816 29.83708 28.54762
#
# Velocity S-wave (km/s) = 3.84753 4.02543 3.93748
# Velocity P-wave (km/s) = 6.89112 7.78688 7.35265
#
# Compressibility (1/GPa) = 0.01957096
#
# Stress axis : x y z
#
# Youngs Moduli (GPa) = 108.60026 44.90828 71.50928
#
# Poissons Ratio (x) = 0.19011 0.38191
# Poissons Ratio (y) = 0.45973 0.24102
# Poissons Ratio (z) = 0.58000 0.15136
#
# Static dielectric constant tensor:
#      x y z
#    x 3.471720 0.000000 0.000000 
#    y 0.000000 3.273650 0.000000 
#    z 0.000000 0.000000 3.870500 
# 
# 
# High freq. dielectric constant tensor:
#      x y z
#    x 1.723180 0.000000 0.000000 
#    y 0.000000 1.706940 0.000000 
#    z 0.000000 0.000000 1.718470 
# 
# From -- ./inp_files/61582.got.cif
#   From: 2010.06.25/outbox.cif.g09.slc.cpg/sg71_31_cif.got.tgz:61582.got - 2010.06.28 04:59:45.
