data_PCOD8290286
_publ_section_title
;
Structure prediction by ZEFSAII (Michael W. Deem and Ramdas Pophale) SiO2 
 PCOD8290286
Probable space group: I M M M
;
_chemical_formula_sum "Si O2"
_cell_formula_units_Z 104
_cell_length_a 31.640312
_cell_length_b 18.540916
_cell_length_c 9.314565
_cell_angle_alpha 90.000000
_cell_angle_beta 90.000000
_cell_angle_gamma 90.000000
_cell_volume 5464.299830
_symmetry_space_group_name_H-M "I M M M"
_symmetry_group_IT_number 71
_symmetry_cell_setting 'orthorhombic'
loop_
_space_group_symop_operation_xyz
x,y,z
-x,-y,z
x,-y,-z
-x,y,-z
-x,-y,-z
x,y,-z
-x,y,z
x,-y,z
1/2+x,1/2+y,1/2+z
1/2-x,1/2-y,1/2+z
1/2+x,1/2-y,1/2-z
1/2-x,1/2+y,1/2-z
1/2-x,1/2-y,1/2-z
1/2+x,1/2+y,1/2-z
1/2-x,1/2+y,1/2+z
1/2+x,1/2-y,1/2+z
loop_
_atom_site_type_symbol
_atom_site_label
_atom_site_fract_x
_atom_site_fract_y
_atom_site_fract_z
Si Si1 0.831339 0.849779 0.664508
Si Si2 0.816994 0.313384 0.330670
Si Si3 0.413702 0.346530 0.665740
Si Si4 0.899397 0.319146 0.164202
Si Si5 0.000000 0.082374 0.170442
Si Si6 0.244302 0.417754 0.834162
Si Si7 0.049608 0.579535 0.657266
O O1 0.845895 0.845953 0.500000
O O2 0.813298 0.771133 0.711589
O O3 0.872133 0.876049 0.753667
O O4 0.794411 0.907536 0.689692
O O5 0.816297 0.325742 0.500000
O O6 0.860524 0.341784 0.264555
O O7 0.779338 0.359748 0.263457
O O8 0.408691 0.368308 0.500000
O O9 0.415807 0.261325 0.688760
O O10 0.457191 0.379840 0.729882
O O11 0.937296 0.370038 0.211595
O O12 0.886661 0.332845 0.000000
O O13 0.000000 0.000000 0.222631
O O14 0.000000 0.089128 0.000000
O O15 0.232685 0.500000 0.791051
O O16 0.232648 0.402804 0.000000
O O17 0.063907 0.609525 0.500000
O O18 0.069287 0.500000 0.679924
O O19 0.000000 0.573868 0.662074
#
# Coordination Sequence:
#
# PCOD8290286 Si02
#       7
#    16  16  16  16   8  16  16
#     4   9  19  36  56  78 106 139 175 216 264 315
#     4  10  20  35  55  77 104 137 176 219 259 309
#     4   9  19  34  54  80 107 137 177 221 261 308
#     4  10  20  33  53  78 105 137 175 220 265 311
#     4   9  18  34  55  79 110 145 176 212 263 313
#     4  10  21  36  54  78 108 140 173 214 267 319
#     4   9  19  35  52  72 101 136 173 214 262 315
#
# _framework density 19.032630999999999
#
# number of rings (size 3 to 8) (size 9 to 14) (size 15 to 20)
#    0.000    2.538    0.000    1.846    1.077    4.000 
#    0.000    1.154    0.000    0.462    0.000    0.000 
#    0.000    0.000    0.000    0.000    0.000    0.000 
#
# Total GULP energy -644701.145425 kJ/mol
# GULP energy per Si atom -12398.098950 kJ/mol
# Density = 1.898931 g / cm^3
# Si number density = 19.032631 Si / 1000 Ang^3
#
#
#
# Elastic Constant Matrix: (Units=GPa)
#
#
# Indices 1 2 3 4 5 6 
#
# 1 108.7748 47.8958 50.3010 0.0000 0.0000 0.0000
# 2 47.8958 64.2217 39.5842 0.0000 0.0000 0.0000
# 3 50.3010 39.5842 74.1622 0.0000 0.0000 0.0000
# 4 0.0000 0.0000 0.0000 22.3444 0.0000 0.0000
# 5 0.0000 0.0000 0.0000 0.0000 35.7230 0.0000
# 6 0.0000 0.0000 0.0000 0.0000 0.0000 22.5977
#
#
#
# Elastic Compliance Matrix: (Units=1/GPa)
#
#
# Indices 1 2 3 4 5 6 
#
# 1 0.015533 -0.007587 -0.006486 0.000000 0.000000 0.000000
# 2 -0.007587 0.026911 -0.009218 0.000000 0.000000 0.000000
# 3 -0.006486 -0.009218 0.022803 0.000000 0.000000 0.000000
# 4 0.000000 0.000000 0.000000 0.044754 0.000000 0.000000
# 5 0.000000 0.000000 0.000000 0.000000 0.027993 0.000000
# 6 0.000000 0.000000 0.000000 0.000000 0.000000 0.044252
#
#
# Mechanical properties :
#
#
# Convention : Reuss Voigt Hill
#
# Bulk Modulus (GPa) = 53.57386 58.08006 55.82696
# Shear Modulus (GPa) = 21.27205 23.42487 22.34846
#
# Velocity S-wave (km/s) = 3.34677 3.51205 3.43040
# Velocity P-wave (km/s) = 6.56841 6.85771 6.71462
#
# Compressibility (1/GPa) = 0.01866582
#
# Stress axis : x y z
#
# Youngs Moduli (GPa) = 64.37791 37.15986 43.85324
#
# Poissons Ratio (x) = 0.28192 0.28444
# Poissons Ratio (y) = 0.48841 0.40424
# Poissons Ratio (z) = 0.41756 0.34254
#
# Static dielectric constant tensor:
#      x y z
#    x 3.457250 0.000000 0.000000 
#    y 0.000000 3.475260 0.000000 
#    z 0.000000 0.000000 3.436830 
# 
# 
# High freq. dielectric constant tensor:
#      x y z
#    x 1.740350 0.000000 0.000000 
#    y 0.000000 1.734380 0.000000 
#    z 0.000000 0.000000 1.729880 
# 
# From -- ./inp_files/17019.got.cif
#   From: 2010.06.25/outbox.cif.g09.slc.cpg/sg71_9_cif.got.tgz:17019.got - 2010.06.28 04:59:45.
