data_PCOD8290055
_publ_section_title
;
Structure prediction by ZEFSAII (Michael W. Deem and Ramdas Pophale) SiO2 
 PCOD8290055
Probable space group: I M M M
;
_chemical_formula_sum "Si O2"
_cell_formula_units_Z 104
_cell_length_a 26.380168
_cell_length_b 9.185037
_cell_length_c 24.198533
_cell_angle_alpha 90.000000
_cell_angle_beta 90.000000
_cell_angle_gamma 90.000000
_cell_volume 5863.372765
_symmetry_space_group_name_H-M "I M M M"
_symmetry_group_IT_number 71
_symmetry_cell_setting 'orthorhombic'
loop_
_space_group_symop_operation_xyz
x,y,z
-x,-y,z
x,-y,-z
-x,y,-z
-x,-y,-z
x,y,-z
-x,y,z
x,-y,z
1/2+x,1/2+y,1/2+z
1/2-x,1/2-y,1/2+z
1/2+x,1/2-y,1/2-z
1/2-x,1/2+y,1/2-z
1/2-x,1/2-y,1/2-z
1/2+x,1/2+y,1/2-z
1/2-x,1/2+y,1/2+z
1/2+x,1/2-y,1/2+z
loop_
_atom_site_type_symbol
_atom_site_label
_atom_site_fract_x
_atom_site_fract_y
_atom_site_fract_z
Si Si1 0.500000 0.158999 0.434531
Si Si2 0.391535 0.826560 0.437734
Si Si3 0.208635 0.670028 0.355443
Si Si4 0.173312 0.167082 0.851200
Si Si5 0.641610 0.330497 0.230173
Si Si6 0.943963 0.170451 0.649202
Si Si7 0.639320 0.672247 0.063570
O O1 0.500000 0.138775 0.500000
O O2 0.553065 0.237987 0.418292
O O3 0.500000 0.000000 0.406367
O O4 0.379262 0.776011 0.500000
O O5 0.347897 0.766458 0.399376
O O6 0.393073 0.000000 0.434216
O O7 0.196498 0.500000 0.360355
O O8 0.267603 0.701041 0.347139
O O9 0.182590 0.734038 0.301195
O O10 0.188482 0.749039 0.410822
O O11 0.144584 0.208513 0.794556
O O12 0.163353 0.000000 0.866418
O O13 0.654761 0.500000 0.219742
O O14 0.585582 0.293338 0.206345
O O15 0.910663 0.225610 0.596998
O O16 0.000000 0.244864 0.649532
O O17 0.951412 0.000000 0.643037
O O18 0.647165 0.500000 0.070069
O O19 0.632985 0.718544 0.000000
#
# Coordination Sequence:
#
# PCOD8290055 Si02
#       7
#     8  16  16  16  16  16  16
#     4   7  12  28  51  69  89 121 159 195 230 273
#     4   9  18  33  53  74  96 127 166 203 240 288
#     4  10  20  33  50  70  97 132 166 203 250 295
#     4  10  21  34  48  73 103 129 161 204 251 297
#     4   9  18  34  52  71  97 127 164 204 242 291
#     4   8  14  27  49  74  98 125 157 197 244 289
#     4   9  18  32  50  73 100 131 168 205 241 291
#
# _framework density 17.737231000000001
#
# number of rings (size 3 to 8) (size 9 to 14) (size 15 to 20)
#    0.000    3.000    0.000    2.769    0.000    3.385 
#    1.385    5.000    0.000    8.769    0.000    4.308 
#    0.000    0.000    0.000    0.000    0.000    0.000 
#
# Total GULP energy -644456.697226 kJ/mol
# GULP energy per Si atom -12393.398024 kJ/mol
# Density = 1.769686 g / cm^3
# Si number density = 17.737231 Si / 1000 Ang^3
#
#
#
# Elastic Constant Matrix: (Units=GPa)
#
#
# Indices 1 2 3 4 5 6 
#
# 1 86.9151 30.5794 56.9161 0.0000 0.0000 0.0000
# 2 30.5794 37.8664 31.8322 0.0000 0.0000 0.0000
# 3 56.9161 31.8322 119.7067 0.0000 0.0000 0.0000
# 4 0.0000 0.0000 0.0000 23.7028 0.0000 0.0000
# 5 0.0000 0.0000 0.0000 0.0000 18.5237 0.0000
# 6 0.0000 0.0000 0.0000 0.0000 0.0000 14.1096
#
#
#
# Elastic Compliance Matrix: (Units=1/GPa)
#
#
# Indices 1 2 3 4 5 6 
#
# 1 0.019327 -0.010152 -0.006490 0.000000 0.000000 0.000000
# 2 -0.010152 0.039345 -0.005635 0.000000 0.000000 0.000000
# 3 -0.006490 -0.005635 0.012938 0.000000 0.000000 0.000000
# 4 0.000000 0.000000 0.000000 0.042189 0.000000 0.000000
# 5 0.000000 0.000000 0.000000 0.000000 0.053985 0.000000
# 6 0.000000 0.000000 0.000000 0.000000 0.000000 0.070874
#
#
# Mechanical properties :
#
#
# Convention : Reuss Voigt Hill
#
# Bulk Modulus (GPa) = 36.96185 53.68262 45.32223
# Shear Modulus (GPa) = 17.10979 19.61125 18.36052
#
# Velocity S-wave (km/s) = 3.10921 3.32875 3.22085
# Velocity P-wave (km/s) = 5.81149 6.71605 6.28007
#
# Compressibility (1/GPa) = 0.02705492
#
# Stress axis : x y z
#
# Youngs Moduli (GPa) = 51.74084 25.41640 77.29230
#
# Poissons Ratio (x) = 0.25804 0.50160
# Poissons Ratio (y) = 0.52529 0.43558
# Poissons Ratio (z) = 0.33578 0.14323
#
# Static dielectric constant tensor:
#      x y z
#    x 3.605050 0.000000 0.000000 
#    y 0.000000 3.021200 0.000000 
#    z 0.000000 0.000000 3.268750 
# 
# 
# High freq. dielectric constant tensor:
#      x y z
#    x 1.693980 0.000000 0.000000 
#    y 0.000000 1.656690 0.000000 
#    z 0.000000 0.000000 1.680390 
# 
# From -- ./inp_files/61937.got.cif
#   From: 2010.06.25/outbox.cif.g09.slc.cpg/sg71_31_cif.got.tgz:61937.got - 2010.06.28 04:59:45.
