data_PCOD8290726
_publ_section_title
;
Structure prediction by ZEFSAII (Michael W. Deem and Ramdas Pophale) SiO2 
 PCOD8290726
Probable space group: I M M M
;
_chemical_formula_sum "Si O2"
_cell_formula_units_Z 96
_cell_length_a 16.098098
_cell_length_b 13.262879
_cell_length_c 25.796185
_cell_angle_alpha 90.000000
_cell_angle_beta 90.000000
_cell_angle_gamma 90.000000
_cell_volume 5507.669319
_symmetry_space_group_name_H-M "I M M M"
_symmetry_group_IT_number 71
_symmetry_cell_setting 'orthorhombic'
loop_
_space_group_symop_operation_xyz
x,y,z
-x,-y,z
x,-y,-z
-x,y,-z
-x,-y,-z
x,y,-z
-x,y,z
x,-y,z
1/2+x,1/2+y,1/2+z
1/2-x,1/2-y,1/2+z
1/2+x,1/2-y,1/2-z
1/2-x,1/2+y,1/2-z
1/2-x,1/2-y,1/2-z
1/2+x,1/2+y,1/2-z
1/2-x,1/2+y,1/2+z
1/2+x,1/2-y,1/2+z
loop_
_atom_site_type_symbol
_atom_site_label
_atom_site_fract_x
_atom_site_fract_y
_atom_site_fract_z
Si Si1 0.000000 0.619549 0.227843
Si Si2 0.903001 0.882816 0.147239
Si Si3 0.407730 0.382403 0.844653
Si Si4 0.500000 0.115938 0.394611
Si Si5 0.695754 0.386347 0.942524
Si Si6 0.151541 0.234134 0.248393
Si Si7 0.643687 0.755220 0.559018
O O1 0.000000 0.635050 0.166469
O O2 0.086559 0.670415 0.249148
O O3 0.000000 0.500000 0.242563
O O4 0.867794 0.831563 0.198259
O O5 0.858155 0.843236 0.095317
O O6 0.000000 0.857821 0.142330
O O7 0.884733 0.000000 0.151821
O O8 0.500000 0.339619 0.842931
O O9 0.404426 0.500000 0.832708
O O10 0.373955 0.356875 0.901476
O O11 0.356911 0.328108 0.800574
O O12 0.580672 0.162436 0.420144
O O13 0.500000 0.000000 0.409039
O O14 0.729733 0.500000 0.932099
O O15 0.767253 0.305219 0.936804
O O16 0.656332 0.380165 0.000000
O O17 0.250000 0.250000 0.250000
O O18 0.622500 0.723605 0.500000
#
# Coordination Sequence:
#
# PCOD8290726 Si02
#       7
#     8  16  16   8  16  16  16
#     4  11  24  41  58  84 120 152 189 236 289 345
#     4  11  22  38  56  77 108 145 184 231 281 327
#     4  10  20  34  57  84 108 140 182 227 274 331
#     4  11  21  34  53  76 106 145 185 221 271 332
#     4   9  19  34  52  79 114 145 176 221 277 334
#     4  12  22  39  61  82 113 148 188 233 287 343
#     4  11  20  34  52  77 109 144 187 226 267 322
#
# _framework density 17.430240000000001
#
# number of rings (size 3 to 8) (size 9 to 14) (size 15 to 20)
#    0.000    1.333    4.167    2.250    0.000    4.667 
#    0.000    2.500    0.000    0.000    0.000    0.000 
#    0.000    0.667    0.000    0.000    0.000    0.000 
#
# Total GULP energy -594978.258621 kJ/mol
# GULP energy per Si atom -12395.380388 kJ/mol
# Density = 1.739057 g / cm^3
# Si number density = 17.430240 Si / 1000 Ang^3
#
#
#
# Elastic Constant Matrix: (Units=GPa)
#
#
# Indices 1 2 3 4 5 6 
#
# 1 100.6699 34.9783 42.4376 0.0000 0.0000 0.0000
# 2 34.9783 65.1806 46.9409 0.0000 0.0000 0.0000
# 3 42.4376 46.9409 126.0541 0.0000 0.0000 0.0000
# 4 0.0000 0.0000 0.0000 27.9496 0.0000 0.0000
# 5 0.0000 0.0000 0.0000 0.0000 33.3358 0.0000
# 6 0.0000 0.0000 0.0000 0.0000 0.0000 22.5430
#
#
#
# Elastic Compliance Matrix: (Units=1/GPa)
#
#
# Indices 1 2 3 4 5 6 
#
# 1 0.012711 -0.005110 -0.002376 0.000000 0.000000 0.000000
# 2 -0.005110 0.023018 -0.006851 0.000000 0.000000 0.000000
# 3 -0.002376 -0.006851 0.011285 0.000000 0.000000 0.000000
# 4 0.000000 0.000000 0.000000 0.035779 0.000000 0.000000
# 5 0.000000 0.000000 0.000000 0.000000 0.029998 0.000000
# 6 0.000000 0.000000 0.000000 0.000000 0.000000 0.044360
#
#
# Mechanical properties :
#
#
# Convention : Reuss Voigt Hill
#
# Bulk Modulus (GPa) = 54.53040 60.06870 57.29955
# Shear Modulus (GPa) = 26.05020 27.93553 26.99287
#
# Velocity S-wave (km/s) = 3.87012 4.00772 3.93952
# Velocity P-wave (km/s) = 7.16403 7.48017 7.32381
#
# Compressibility (1/GPa) = 0.01833840
#
# Stress axis : x y z
#
# Youngs Moduli (GPa) = 78.67458 43.44395 88.61660
#
# Poissons Ratio (x) = 0.22198 0.21059
# Poissons Ratio (y) = 0.40199 0.60716
# Poissons Ratio (z) = 0.18697 0.29766
#
# Static dielectric constant tensor:
#      x y z
#    x 3.233140 0.000000 0.000000 
#    y 0.000000 3.278210 0.000000 
#    z 0.000000 0.000000 3.719850 
# 
# 
# High freq. dielectric constant tensor:
#      x y z
#    x 1.671450 0.000000 0.000000 
#    y 0.000000 1.665610 0.000000 
#    z 0.000000 0.000000 1.689480 
# 
# From -- ./inp_files/59855.got.cif
#   From: 2010.06.25/outbox.cif.g09.slc.cpg/sg71_30_cif.got.tgz:59855.got - 2010.06.28 04:59:45.
