data_PCOD8290591
_publ_section_title
;
Structure prediction by ZEFSAII (Michael W. Deem and Ramdas Pophale) SiO2 
 PCOD8290591
Probable space group: I M M M
;
_chemical_formula_sum "Si O2"
_cell_formula_units_Z 96
_cell_length_a 8.996812
_cell_length_b 24.330673
_cell_length_c 24.732818
_cell_angle_alpha 90.000000
_cell_angle_beta 90.000000
_cell_angle_gamma 90.000000
_cell_volume 5413.976534
_symmetry_space_group_name_H-M "I M M M"
_symmetry_group_IT_number 71
_symmetry_cell_setting 'orthorhombic'
loop_
_space_group_symop_operation_xyz
x,y,z
-x,-y,z
x,-y,-z
-x,y,-z
-x,-y,-z
x,y,-z
-x,y,z
x,-y,z
1/2+x,1/2+y,1/2+z
1/2-x,1/2-y,1/2+z
1/2+x,1/2-y,1/2-z
1/2-x,1/2+y,1/2-z
1/2-x,1/2-y,1/2-z
1/2+x,1/2+y,1/2-z
1/2-x,1/2+y,1/2+z
1/2+x,1/2-y,1/2+z
loop_
_atom_site_type_symbol
_atom_site_label
_atom_site_fract_x
_atom_site_fract_y
_atom_site_fract_z
Si Si1 0.823272 0.435845 0.500000
Si Si2 0.172780 0.694697 0.807824
Si Si3 0.674393 0.915529 0.636681
Si Si4 0.326946 0.191926 0.815416
Si Si5 0.326925 0.500000 0.062911
Si Si6 0.673162 0.000000 0.721521
Si Si7 0.670814 0.608442 0.395577
Si Si8 0.837942 0.000000 0.171891
O O1 0.767197 0.500000 0.500000
O O2 0.764204 0.400605 0.550323
O O3 0.000000 0.435031 0.500000
O O4 0.211503 0.648259 0.852538
O O5 0.277237 0.745243 0.822796
O O6 0.205643 0.673406 0.746588
O O7 0.000000 0.712123 0.811507
O O8 0.500000 0.924121 0.626609
O O9 0.758119 0.943295 0.586291
O O10 0.731321 0.946138 0.690707
O O11 0.500000 0.186521 0.829239
O O12 0.236291 0.156140 0.858111
O O13 0.500000 0.500000 0.076033
O O14 0.292140 0.500000 0.000000
O O15 0.500000 0.000000 0.720118
O O16 0.715219 0.000000 0.783054
O O17 0.500000 0.622690 0.409729
O O18 0.685340 0.552209 0.364397
O O19 0.000000 0.000000 0.199465
#
# Coordination Sequence:
#
# PCOD8290591 Si02
#       8
#     8  16  16  16   8   8  16   8
#     4  11  23  39  59  81 103 135 181 228 275 322
#     4   9  18  34  55  80 111 144 178 217 264 318
#     4   9  18  33  53  76 104 139 176 213 256 314
#     4  10  20  34  54  81 111 143 179 219 264 315
#     4  10  21  35  52  77 106 135 170 216 269 315
#     4   9  17  29  47  75 109 139 167 208 261 312
#     4  11  22  37  55  76 106 142 180 222 269 319
#     4  10  21  32  47  74 106 138 173 213 259 315
#
# _framework density 17.731884999999998
#
# number of rings (size 3 to 8) (size 9 to 14) (size 15 to 20)
#    0.000    2.167    0.833    3.000    0.000    6.333 
#    0.000    0.000    1.833    0.000    0.000    0.000 
#    0.000    0.000    0.000    0.000    0.000    0.000 
#
# Total GULP energy -595004.276364 kJ/mol
# GULP energy per Si atom -12395.922424 kJ/mol
# Density = 1.769153 g / cm^3
# Si number density = 17.731885 Si / 1000 Ang^3
#
#
#
# Elastic Constant Matrix: (Units=GPa)
#
#
# Indices 1 2 3 4 5 6 
#
# 1 74.7578 47.0885 49.7596 0.0000 0.0000 0.0000
# 2 47.0885 91.2348 51.9055 0.0000 0.0000 0.0000
# 3 49.7596 51.9055 99.4815 0.0000 0.0000 0.0000
# 4 0.0000 0.0000 0.0000 33.3477 0.0000 0.0000
# 5 0.0000 0.0000 0.0000 0.0000 31.4678 0.0000
# 6 0.0000 0.0000 0.0000 0.0000 0.0000 29.5492
#
#
#
# Elastic Compliance Matrix: (Units=1/GPa)
#
#
# Indices 1 2 3 4 5 6 
#
# 1 0.023304 -0.007674 -0.007652 0.000000 0.000000 0.000000
# 2 -0.007674 0.018115 -0.005613 0.000000 0.000000 0.000000
# 3 -0.007652 -0.005613 0.016808 0.000000 0.000000 0.000000
# 4 0.000000 0.000000 0.000000 0.029987 0.000000 0.000000
# 5 0.000000 0.000000 0.000000 0.000000 0.031779 0.000000
# 6 0.000000 0.000000 0.000000 0.000000 0.000000 0.033842
#
#
# Mechanical properties :
#
#
# Convention : Reuss Voigt Hill
#
# Bulk Modulus (GPa) = 61.16919 62.55349 61.86134
# Shear Modulus (GPa) = 24.85549 26.65431 25.75490
#
# Velocity S-wave (km/s) = 3.74804 3.88130 3.81525
# Velocity P-wave (km/s) = 7.30082 7.44580 7.37367
#
# Compressibility (1/GPa) = 0.01634810
#
# Stress axis : x y z
#
# Youngs Moduli (GPa) = 42.91170 55.20291 59.49403
#
# Poissons Ratio (x) = 0.42363 0.45526
# Poissons Ratio (y) = 0.32931 0.33395
# Poissons Ratio (z) = 0.32837 0.30986
#
# Static dielectric constant tensor:
#      x y z
#    x 3.353900 0.000000 0.000000 
#    y 0.000000 3.287170 0.000000 
#    z 0.000000 0.000000 3.235440 
# 
# 
# High freq. dielectric constant tensor:
#      x y z
#    x 1.691280 0.000000 0.000000 
#    y 0.000000 1.684840 0.000000 
#    z 0.000000 0.000000 1.674190 
# 
# From -- ./inp_files/57819.got.cif
#   From: 2010.06.25/outbox.cif.g09.slc.cpg/sg71_29_cif.got.tgz:57819.got - 2010.06.28 04:59:45.
