data_PCOD8290852
_publ_section_title
;
Structure prediction by ZEFSAII (Michael W. Deem and Ramdas Pophale) SiO2 
 PCOD8290852
Probable space group: I M M M
;
_chemical_formula_sum "Si O2"
_cell_formula_units_Z 88
_cell_length_a 9.415309
_cell_length_b 20.423163
_cell_length_c 25.066979
_cell_angle_alpha 90.000000
_cell_angle_beta 90.000000
_cell_angle_gamma 90.000000
_cell_volume 4820.139178
_symmetry_space_group_name_H-M "I M M M"
_symmetry_group_IT_number 71
_symmetry_cell_setting 'orthorhombic'
loop_
_space_group_symop_operation_xyz
x,y,z
-x,-y,z
x,-y,-z
-x,y,-z
-x,-y,-z
x,y,-z
-x,y,z
x,-y,z
1/2+x,1/2+y,1/2+z
1/2-x,1/2-y,1/2+z
1/2+x,1/2-y,1/2-z
1/2-x,1/2+y,1/2-z
1/2-x,1/2-y,1/2-z
1/2+x,1/2+y,1/2-z
1/2-x,1/2+y,1/2+z
1/2+x,1/2-y,1/2+z
loop_
_atom_site_type_symbol
_atom_site_label
_atom_site_fract_x
_atom_site_fract_y
_atom_site_fract_z
Si Si1 0.331956 0.790269 0.795041
Si Si2 0.155505 0.384511 0.937698
Si Si3 0.163882 0.427491 0.338697
Si Si4 0.837792 0.891666 0.940499
Si Si5 0.338237 0.746171 0.604538
Si Si6 0.156831 0.000000 0.563878
O O1 0.500000 0.779945 0.787548
O O2 0.250000 0.750000 0.750000
O O3 0.292264 0.868750 0.797568
O O4 0.278932 0.759740 0.849905
O O5 0.205310 0.311074 0.926981
O O6 0.265211 0.435985 0.912646
O O7 0.000000 0.397170 0.912319
O O8 0.147381 0.396892 0.000000
O O9 0.190312 0.500000 0.312916
O O10 0.246687 0.425706 0.394604
O O11 0.000000 0.417524 0.353470
O O12 0.825449 0.813298 0.936601
O O13 0.000000 0.914211 0.932302
O O14 0.785502 0.912104 0.000000
O O15 0.500000 0.749703 0.627650
O O16 0.152895 0.000000 0.500000
O O17 0.000000 0.000000 0.588050
#
# Coordination Sequence:
#
# PCOD8290852 Si02
#       6
#    16  16  16  16  16   8
#     4  10  20  35  56  77  97 123 160 206 255 302
#     4   9  16  27  45  67  92 125 164 200 235 285
#     4   9  19  35  53  74 101 134 170 205 244 294
#     4   9  17  29  46  72 106 139 170 204 241 282
#     4   9  17  30  49  72  97 126 162 202 246 292
#     4   9  17  27  39  59  89 125 161 197 239 283
#
# _framework density 18.256734999999999
#
# number of rings (size 3 to 8) (size 9 to 14) (size 15 to 20)
#    0.000    2.818    0.000    1.364    0.000    5.818 
#    0.000    1.818    2.000    3.273    0.000    0.000 
#    0.000    0.000    0.000    0.000    0.000    0.000 
#
# Total GULP energy -545197.524687 kJ/mol
# GULP energy per Si atom -12390.852834 kJ/mol
# Density = 1.821518 g / cm^3
# Si number density = 18.256735 Si / 1000 Ang^3
#
#
#
# Elastic Constant Matrix: (Units=GPa)
#
#
# Indices 1 2 3 4 5 6 
#
# 1 83.6558 51.9029 28.9851 0.0000 0.0000 0.0000
# 2 51.9029 129.9927 22.8181 0.0000 0.0000 0.0000
# 3 28.9851 22.8181 56.8118 0.0000 0.0000 0.0000
# 4 0.0000 0.0000 0.0000 19.7868 0.0000 0.0000
# 5 0.0000 0.0000 0.0000 0.0000 26.2159 0.0000
# 6 0.0000 0.0000 0.0000 0.0000 0.0000 24.4373
#
#
#
# Elastic Compliance Matrix: (Units=1/GPa)
#
#
# Indices 1 2 3 4 5 6 
#
# 1 0.018034 -0.006009 -0.006787 0.000000 0.000000 0.000000
# 2 -0.006009 0.010278 -0.001063 0.000000 0.000000 0.000000
# 3 -0.006787 -0.001063 0.021492 0.000000 0.000000 0.000000
# 4 0.000000 0.000000 0.000000 0.050539 0.000000 0.000000
# 5 0.000000 0.000000 0.000000 0.000000 0.038145 0.000000
# 6 0.000000 0.000000 0.000000 0.000000 0.000000 0.040921
#
#
# Mechanical properties :
#
#
# Convention : Reuss Voigt Hill
#
# Bulk Modulus (GPa) = 45.27713 53.09692 49.18702
# Shear Modulus (GPa) = 23.31139 25.20495 24.25817
#
# Velocity S-wave (km/s) = 3.57720 3.71965 3.64912
# Velocity P-wave (km/s) = 6.47425 6.89887 6.68993
#
# Compressibility (1/GPa) = 0.02208621
#
# Stress axis : x y z
#
# Youngs Moduli (GPa) = 55.45223 97.29056 46.53002
#
# Poissons Ratio (x) = 0.58462 0.31581
# Poissons Ratio (y) = 0.33321 0.04944
# Poissons Ratio (z) = 0.37636 0.10337
#
# Static dielectric constant tensor:
#      x y z
#    x 3.521500 0.000000 0.000000 
#    y 0.000000 3.654940 0.000000 
#    z 0.000000 0.000000 3.030860 
# 
# 
# High freq. dielectric constant tensor:
#      x y z
#    x 1.708230 0.000000 0.000000 
#    y 0.000000 1.723280 0.000000 
#    z 0.000000 0.000000 1.660580 
# 
# From -- ./inp_files/10440.got.cif
#   From: 2010.06.25/outbox.cif.g09.slc.cpg/sg71_6_cif.got.tgz:10440.got - 2010.06.28 04:59:45.
