data_PCOD8290368
_publ_section_title
;
Structure prediction by ZEFSAII (Michael W. Deem and Ramdas Pophale) SiO2 
 PCOD8290368
Probable space group: I M M M
;
_chemical_formula_sum "Si O2"
_cell_formula_units_Z 104
_cell_length_a 9.190593
_cell_length_b 23.992166
_cell_length_c 26.439048
_cell_angle_alpha 90.000000
_cell_angle_beta 90.000000
_cell_angle_gamma 90.000000
_cell_volume 5829.869120
_symmetry_space_group_name_H-M "I M M M"
_symmetry_group_IT_number 71
_symmetry_cell_setting 'orthorhombic'
loop_
_space_group_symop_operation_xyz
x,y,z
-x,-y,z
x,-y,-z
-x,y,-z
-x,-y,-z
x,y,-z
-x,y,z
x,-y,z
1/2+x,1/2+y,1/2+z
1/2-x,1/2-y,1/2+z
1/2+x,1/2-y,1/2-z
1/2-x,1/2+y,1/2-z
1/2-x,1/2-y,1/2-z
1/2+x,1/2+y,1/2-z
1/2-x,1/2+y,1/2+z
1/2+x,1/2-y,1/2+z
loop_
_atom_site_type_symbol
_atom_site_label
_atom_site_fract_x
_atom_site_fract_y
_atom_site_fract_z
Si Si1 0.169919 0.845586 0.711399
Si Si2 0.341121 0.933991 0.000000
Si Si3 0.169521 0.271199 0.866394
Si Si4 0.826738 0.562923 0.608239
Si Si5 0.172156 0.154487 0.558229
Si Si6 0.332701 0.349557 0.327291
Si Si7 0.329702 0.561675 0.864684
O O1 0.263813 0.799510 0.683057
O O2 0.216219 0.841986 0.769463
O O3 0.206465 0.906535 0.687833
O O4 0.000000 0.831715 0.703368
O O5 0.262158 0.917625 0.947089
O O6 0.500000 0.905492 0.000000
O O7 0.361907 0.000000 0.000000
O O8 0.249246 0.291849 0.917370
O O9 0.194841 0.205429 0.860352
O O10 0.000000 0.286116 0.869790
O O11 0.777674 0.500000 0.620296
O O12 0.764272 0.601168 0.651630
O O13 0.000000 0.567403 0.606953
O O14 0.218822 0.148797 0.500000
O O15 0.225531 0.098978 0.587922
O O16 0.000000 0.163032 0.564270
O O17 0.500000 0.367858 0.329428
O O18 0.500000 0.553552 0.870610
O O19 0.255499 0.500000 0.865002
#
# Coordination Sequence:
#
# PCOD8290368 Si02
#       7
#    16   8  16  16  16  16  16
#     4   9  18  33  52  72  98 132 169 206 245 296
#     4   7  12  28  51  69  89 121 159 195 232 279
#     4  10  20  34  51  72  99 132 169 209 258 303
#     4   9  18  33  53  75  99 129 165 205 248 296
#     4   9  18  33  52  73  99 133 171 209 250 300
#     4  10  21  34  49  74 103 132 166 206 254 305
#     4   8  14  26  47  75 101 125 158 200 244 289
#
# _framework density 17.839165000000001
#
# number of rings (size 3 to 8) (size 9 to 14) (size 15 to 20)
#    0.000    3.000    0.000    2.769    0.000    3.385 
#    1.385    3.462    0.000    8.769    0.000    4.308 
#    0.000    0.000    0.000    0.000    0.000    0.000 
#
# Total GULP energy -644467.349377 kJ/mol
# GULP energy per Si atom -12393.602873 kJ/mol
# Density = 1.779856 g / cm^3
# Si number density = 17.839165 Si / 1000 Ang^3
#
#
#
# Elastic Constant Matrix: (Units=GPa)
#
#
# Indices 1 2 3 4 5 6 
#
# 1 41.3731 33.2309 28.0610 0.0000 0.0000 0.0000
# 2 33.2309 89.0233 39.6556 0.0000 0.0000 0.0000
# 3 28.0610 39.6556 87.8304 0.0000 0.0000 0.0000
# 4 0.0000 0.0000 0.0000 17.6978 0.0000 0.0000
# 5 0.0000 0.0000 0.0000 0.0000 25.2777 0.0000
# 6 0.0000 0.0000 0.0000 0.0000 0.0000 23.0169
#
#
#
# Elastic Compliance Matrix: (Units=1/GPa)
#
#
# Indices 1 2 3 4 5 6 
#
# 1 0.037788 -0.010925 -0.007140 0.000000 0.000000 0.000000
# 2 -0.010925 0.017220 -0.004284 0.000000 0.000000 0.000000
# 3 -0.007140 -0.004284 0.015601 0.000000 0.000000 0.000000
# 4 0.000000 0.000000 0.000000 0.056504 0.000000 0.000000
# 5 0.000000 0.000000 0.000000 0.000000 0.039561 0.000000
# 6 0.000000 0.000000 0.000000 0.000000 0.000000 0.043446
#
#
# Mechanical properties :
#
#
# Convention : Reuss Voigt Hill
#
# Bulk Modulus (GPa) = 38.59544 46.68017 42.63781
# Shear Modulus (GPa) = 18.97853 21.01709 19.99781
#
# Velocity S-wave (km/s) = 3.26524 3.43613 3.35177
# Velocity P-wave (km/s) = 5.99149 6.47817 6.23958
#
# Compressibility (1/GPa) = 0.02590980
#
# Stress axis : x y z
#
# Youngs Moduli (GPa) = 26.46336 58.07352 64.09775
#
# Poissons Ratio (x) = 0.63445 0.45768
# Poissons Ratio (y) = 0.28911 0.27461
# Poissons Ratio (z) = 0.18896 0.24880
#
# Static dielectric constant tensor:
#      x y z
#    x 3.022460 0.000000 0.000000 
#    y 0.000000 3.334840 0.000000 
#    z 0.000000 0.000000 3.512160 
# 
# 
# High freq. dielectric constant tensor:
#      x y z
#    x 1.660020 0.000000 0.000000 
#    y 0.000000 1.683190 0.000000 
#    z 0.000000 0.000000 1.699050 
# 
# From -- ./inp_files/61940.got.cif
#   From: 2010.06.25/outbox.cif.g09.slc.cpg/sg71_31_cif.got.tgz:61940.got - 2010.06.28 04:59:45.
