data_PCOD8290983
_publ_section_title
;
Structure prediction by ZEFSAII (Michael W. Deem and Ramdas Pophale) SiO2 
 PCOD8290983
Probable space group: I M M M
;
_chemical_formula_sum "Si O2"
_cell_formula_units_Z 88
_cell_length_a 16.601762
_cell_length_b 9.126158
_cell_length_c 29.887558
_cell_angle_alpha 90.000000
_cell_angle_beta 90.000000
_cell_angle_gamma 90.000000
_cell_volume 4528.272971
_symmetry_space_group_name_H-M "I M M M"
_symmetry_group_IT_number 71
_symmetry_cell_setting 'orthorhombic'
loop_
_space_group_symop_operation_xyz
x,y,z
-x,-y,z
x,-y,-z
-x,y,-z
-x,-y,-z
x,y,-z
-x,y,z
x,-y,z
1/2+x,1/2+y,1/2+z
1/2-x,1/2-y,1/2+z
1/2+x,1/2-y,1/2-z
1/2-x,1/2+y,1/2-z
1/2-x,1/2-y,1/2-z
1/2+x,1/2+y,1/2-z
1/2-x,1/2+y,1/2+z
1/2+x,1/2-y,1/2+z
loop_
_atom_site_type_symbol
_atom_site_label
_atom_site_fract_x
_atom_site_fract_y
_atom_site_fract_z
Si Si1 0.182171 0.168663 0.623470
Si Si2 0.094394 0.336769 0.449376
Si Si3 0.093346 0.838568 0.789561
Si Si4 0.000000 0.326924 0.949575
Si Si5 0.593825 0.172212 0.797320
Si Si6 0.631544 0.830216 0.620854
O O1 0.136073 0.210138 0.578584
O O2 0.150244 0.267575 0.663656
O O3 0.275003 0.198982 0.612356
O O4 0.166021 0.000000 0.635609
O O5 0.124545 0.320893 0.500000
O O6 0.116028 0.500000 0.431279
O O7 0.000000 0.311934 0.446181
O O8 0.127524 0.742873 0.748517
O O9 0.105903 0.759496 0.836141
O O10 0.000000 0.857768 0.780748
O O11 0.134502 0.000000 0.790087
O O12 0.079786 0.276247 0.922152
O O13 0.000000 0.500000 0.954504
O O14 0.000000 0.257813 0.000000
O O15 0.500000 0.210288 0.807107
O O16 0.606162 0.000000 0.793391
O O17 0.612841 0.000000 0.630489
#
# Coordination Sequence:
#
# PCOD8290983 Si02
#       6
#    16  16  16   8  16  16
#     4  11  23  35  52  84 119 148 184 235 287 334
#     4   9  19  37  59  80 106 147 193 229 271 335
#     4  10  20  35  58  85 112 144 186 236 285 333
#     4   9  18  36  63  87 107 141 191 239 280 333
#     4  10  21  37  58  82 111 153 195 229 274 336
#     4  10  21  37  58  82 111 149 188 228 281 344
#
# _framework density 19.433457000000001
#
# number of rings (size 3 to 8) (size 9 to 14) (size 15 to 20)
#    0.000    2.091    0.909    2.727    0.000    7.636 
#    0.000    2.727    0.000    1.091    0.000    0.000 
#    0.000    0.000    0.000    0.000    0.000    0.000 
#
# Total GULP energy -545553.577093 kJ/mol
# GULP energy per Si atom -12398.944934 kJ/mol
# Density = 1.938923 g / cm^3
# Si number density = 19.433457 Si / 1000 Ang^3
#
#
#
# Elastic Constant Matrix: (Units=GPa)
#
#
# Indices 1 2 3 4 5 6 
#
# 1 63.1346 42.0807 63.2755 0.0000 0.0000 0.0000
# 2 42.0807 91.2402 63.9016 0.0000 0.0000 0.0000
# 3 63.2755 63.9016 152.2486 0.0000 0.0000 0.0000
# 4 0.0000 0.0000 0.0000 30.9700 0.0000 0.0000
# 5 0.0000 0.0000 0.0000 0.0000 -19.6366 0.0000
# 6 0.0000 0.0000 0.0000 0.0000 0.0000 23.5036
#
#
#
# Elastic Compliance Matrix: (Units=1/GPa)
#
#
# Indices 1 2 3 4 5 6 
#
# 1 0.030215 -0.007281 -0.009502 0.000000 0.000000 0.000000
# 2 -0.007281 0.017278 -0.004226 0.000000 0.000000 0.000000
# 3 -0.009502 -0.004226 0.012291 0.000000 0.000000 0.000000
# 4 0.000000 0.000000 0.000000 0.032289 0.000000 0.000000
# 5 0.000000 0.000000 0.000000 0.000000 -0.050925 0.000000
# 6 0.000000 0.000000 0.000000 0.000000 0.000000 0.042547
#
#
# Mechanical properties :
#
#
# Convention : Reuss Voigt Hill
#
# Bulk Modulus (GPa) = 56.28442 71.68211 63.98327
# Shear Modulus (GPa) = 37.98453 16.12509 27.05481
#
# Velocity S-wave (km/s) = 4.42588 2.88368 3.73524
# Velocity P-wave (km/s) = 7.42586 6.93206 7.18320
#
# Compressibility (1/GPa) = 0.01776691
#
# Stress axis : x y z
#
# Youngs Moduli (GPa) = 33.09645 57.87822 81.36168
#
# Poissons Ratio (x) = 0.42139 0.77307
# Poissons Ratio (y) = 0.24096 0.34382
# Poissons Ratio (z) = 0.31447 0.24459
#
# Static dielectric constant tensor:
#      x y z
#    x 3.578330 0.000000 0.000000 
#    y 0.000000 3.670750 0.000000 
#    z 0.000000 0.000000 3.723670 
# 
# 
# High freq. dielectric constant tensor:
#      x y z
#    x 1.747370 0.000000 0.000000 
#    y 0.000000 1.753820 0.000000 
#    z 0.000000 0.000000 1.764470 
# 
# From -- ./inp_files/49240.got.cif
#   From: 2010.06.25/outbox.cif.g09.slc.cpg/sg71_25_cif.got.tgz:49240.got - 2010.06.28 04:59:45.
