data_PCOD8290098
_publ_section_title
;
Structure prediction by ZEFSAII (Michael W. Deem and Ramdas Pophale) SiO2 
 PCOD8290098
Probable space group: I M M M
;
_chemical_formula_sum "Si O2"
_cell_formula_units_Z 112
_cell_length_a 31.113827
_cell_length_b 13.762250
_cell_length_c 13.165051
_cell_angle_alpha 90.000000
_cell_angle_beta 90.000000
_cell_angle_gamma 90.000000
_cell_volume 5637.225675
_symmetry_space_group_name_H-M "I M M M"
_symmetry_group_IT_number 71
_symmetry_cell_setting 'orthorhombic'
loop_
_space_group_symop_operation_xyz
x,y,z
-x,-y,z
x,-y,-z
-x,y,-z
-x,-y,-z
x,y,-z
-x,y,z
x,-y,z
1/2+x,1/2+y,1/2+z
1/2-x,1/2-y,1/2+z
1/2+x,1/2-y,1/2-z
1/2-x,1/2+y,1/2-z
1/2-x,1/2-y,1/2-z
1/2+x,1/2+y,1/2-z
1/2-x,1/2+y,1/2+z
1/2+x,1/2-y,1/2+z
loop_
_atom_site_type_symbol
_atom_site_label
_atom_site_fract_x
_atom_site_fract_y
_atom_site_fract_z
Si Si1 0.546493 0.692592 0.175157
Si Si2 0.134306 0.105962 0.383888
Si Si3 0.121891 0.391376 0.816843
Si Si4 0.216569 0.384806 0.789657
Si Si5 0.289263 0.265385 0.118082
Si Si6 0.048096 0.256349 0.888700
Si Si7 0.922165 0.391742 0.614526
O O1 0.500000 0.648494 0.143489
O O2 0.584727 0.638061 0.119738
O O3 0.553218 0.679519 0.296905
O O4 0.544460 0.807112 0.144573
O O5 0.147765 0.094833 0.500000
O O6 0.166467 0.186242 0.337345
O O7 0.139348 0.000000 0.330508
O O8 0.115049 0.500000 0.854693
O O9 0.170479 0.358133 0.840077
O O10 0.086027 0.333874 0.878735
O O11 0.117065 0.383192 0.693889
O O12 0.221453 0.500000 0.771995
O O13 0.252231 0.346170 0.867427
O O14 0.221591 0.331490 0.680908
O O15 0.292827 0.236850 0.000000
O O16 0.000000 0.303711 0.880020
O O17 0.052928 0.206235 0.000000
O O18 0.904483 0.374757 0.500000
O O19 0.943523 0.500000 0.622745
#
# Coordination Sequence:
#
# PCOD8290098 Si02
#       7
#    16  16  16  16  16  16  16
#     4  10  20  33  50  74 103 133 171 221 268 309
#     4  10  21  37  57  79 104 137 174 211 259 323
#     4   9  18  31  47  71 102 134 171 216 261 303
#     4  10  21  36  56  84 113 140 176 224 273 318
#     4  10  21  38  59  81 108 145 184 219 262 321
#     4   9  18  32  49  69  97 137 179 215 256 307
#     4   9  17  29  46  70 103 142 176 205 249 314
#
# _framework density 19.867929
#
# number of rings (size 3 to 8) (size 9 to 14) (size 15 to 20)
#    0.000    2.429    0.000    2.571    0.000    5.714 
#    0.000    7.857    0.000    0.429    0.000    2.000 
#    0.000    0.000    0.000    0.000    0.000    0.000 
#
# Total GULP energy -693813.411535 kJ/mol
# GULP energy per Si atom -12389.525206 kJ/mol
# Density = 1.982271 g / cm^3
# Si number density = 19.867929 Si / 1000 Ang^3
#
#
#
# Elastic Constant Matrix: (Units=GPa)
#
#
# Indices 1 2 3 4 5 6 
#
# 1 108.4767 15.0237 0.0447 0.0000 0.0000 0.0000
# 2 15.0237 68.3368 6.7772 0.0000 0.0000 0.0000
# 3 0.0447 6.7772 67.2571 0.0000 0.0000 0.0000
# 4 0.0000 0.0000 0.0000 16.4115 0.0000 0.0000
# 5 0.0000 0.0000 0.0000 0.0000 21.9319 0.0000
# 6 0.0000 0.0000 0.0000 0.0000 0.0000 20.0576
#
#
#
# Elastic Compliance Matrix: (Units=1/GPa)
#
#
# Indices 1 2 3 4 5 6 
#
# 1 0.009511 -0.002111 0.000206 0.000000 0.000000 0.000000
# 2 -0.002111 0.015250 -0.001535 0.000000 0.000000 0.000000
# 3 0.000206 -0.001535 0.015023 0.000000 0.000000 0.000000
# 4 0.000000 0.000000 0.000000 0.060933 0.000000 0.000000
# 5 0.000000 0.000000 0.000000 0.000000 0.045596 0.000000
# 6 0.000000 0.000000 0.000000 0.000000 0.000000 0.049856
#
#
# Mechanical properties :
#
#
# Convention : Reuss Voigt Hill
#
# Bulk Modulus (GPa) = 30.39220 31.97351 31.18285
# Shear Modulus (GPa) = 23.36264 26.49520 24.92892
#
# Velocity S-wave (km/s) = 3.43286 3.65576 3.54606
# Velocity P-wave (km/s) = 5.57162 5.82644 5.70046
#
# Compressibility (1/GPa) = 0.03290318
#
# Stress axis : x y z
#
# Youngs Moduli (GPa) = 105.14238 65.57447 66.56512
#
# Poissons Ratio (x) = 0.13846 -0.01374
# Poissons Ratio (y) = 0.22200 0.10219
# Poissons Ratio (z) = -0.02171 0.10067
#
# Static dielectric constant tensor:
#      x y z
#    x 3.658560 0.000000 0.000000 
#    y 0.000000 3.514160 0.000000 
#    z 0.000000 0.000000 3.579070 
# 
# 
# High freq. dielectric constant tensor:
#      x y z
#    x 1.780050 0.000000 0.000000 
#    y 0.000000 1.749790 0.000000 
#    z 0.000000 0.000000 1.762580 
# 
# From -- ./inp_files/40347.got.cif
#   From: 2010.06.25/outbox.cif.g09.slc.cpg/sg71_21_cif.got.tgz:40347.got - 2010.06.28 04:59:45.
