data_PCOD8290873
_publ_section_title
;
Structure prediction by ZEFSAII (Michael W. Deem and Ramdas Pophale) SiO2 
 PCOD8290873
Probable space group: I M M M
;
_chemical_formula_sum "Si O2"
_cell_formula_units_Z 104
_cell_length_a 19.520880
_cell_length_b 8.767056
_cell_length_c 32.076296
_cell_angle_alpha 90.000000
_cell_angle_beta 90.000000
_cell_angle_gamma 90.000000
_cell_volume 5489.558087
_symmetry_space_group_name_H-M "I M M M"
_symmetry_group_IT_number 71
_symmetry_cell_setting 'orthorhombic'
loop_
_space_group_symop_operation_xyz
x,y,z
-x,-y,z
x,-y,-z
-x,y,-z
-x,-y,-z
x,y,-z
-x,y,z
x,-y,z
1/2+x,1/2+y,1/2+z
1/2-x,1/2-y,1/2+z
1/2+x,1/2-y,1/2-z
1/2-x,1/2+y,1/2-z
1/2-x,1/2-y,1/2-z
1/2+x,1/2+y,1/2-z
1/2-x,1/2+y,1/2+z
1/2+x,1/2-y,1/2+z
loop_
_atom_site_type_symbol
_atom_site_label
_atom_site_fract_x
_atom_site_fract_y
_atom_site_fract_z
Si Si1 0.579409 0.674468 0.844834
Si Si2 0.077385 0.681376 0.500000
Si Si3 0.199172 0.319198 0.102280
Si Si4 0.201347 0.175485 0.191764
Si Si5 0.840374 0.319655 0.419411
Si Si6 0.575739 0.181238 0.453362
Si Si7 0.851253 0.324416 0.271137
O O1 0.500000 0.688199 0.855767
O O2 0.604768 0.500000 0.847290
O O3 0.621083 0.775262 0.877335
O O4 0.591895 0.738702 0.798547
O O5 0.074902 0.500000 0.500000
O O6 0.116810 0.741263 0.459061
O O7 0.000000 0.747557 0.500000
O O8 0.203625 0.500000 0.101012
O O9 0.192078 0.266472 0.149460
O O10 0.265654 0.253513 0.079307
O O11 0.133079 0.254335 0.077831
O O12 0.150345 0.246831 0.225842
O O13 0.279039 0.195135 0.206099
O O14 0.182076 0.000000 0.184897
O O15 0.832104 0.500000 0.420335
O O16 0.591133 0.241606 0.500000
O O17 0.500000 0.236974 0.439036
O O18 0.577878 0.000000 0.453290
O O19 0.871881 0.500000 0.265819
#
# Coordination Sequence:
#
# PCOD8290873 Si02
#       7
#    16   8  16  16  16  16  16
#     4  11  23  38  57  83 116 152 191 239 289 334
#     4   9  20  38  57  77 106 149 196 238 283 337
#     4  11  21  33  56  87 117 147 186 237 287 338
#     4  10  20  35  56  81 112 147 184 228 280 336
#     4  11  22  37  57  82 112 151 195 238 284 340
#     4   8  16  33  56  82 112 147 186 227 276 334
#     4  10  20  35  57  82 109 146 189 230 277 333
#
# _framework density 18.945059000000001
#
# number of rings (size 3 to 8) (size 9 to 14) (size 15 to 20)
#    0.000    1.923    1.538    3.231    1.077    3.077 
#    0.000    1.923    0.000    7.385    0.000    4.308 
#    0.000    0.000    0.000    0.000    0.000    0.000 
#
# Total GULP energy -644923.860623 kJ/mol
# GULP energy per Si atom -12402.381935 kJ/mol
# Density = 1.890194 g / cm^3
# Si number density = 18.945059 Si / 1000 Ang^3
#
#
#
# Elastic Constant Matrix: (Units=GPa)
#
#
# Indices 1 2 3 4 5 6 
#
# 1 116.8601 39.0799 69.6703 0.0000 0.0000 0.0000
# 2 39.0799 80.2696 33.5618 0.0000 0.0000 0.0000
# 3 69.6703 33.5618 115.3601 0.0000 0.0000 0.0000
# 4 0.0000 0.0000 0.0000 22.5001 0.0000 0.0000
# 5 0.0000 0.0000 0.0000 0.0000 23.9579 0.0000
# 6 0.0000 0.0000 0.0000 0.0000 0.0000 19.4292
#
#
#
# Elastic Compliance Matrix: (Units=1/GPa)
#
#
# Indices 1 2 3 4 5 6 
#
# 1 0.014334 -0.003824 -0.007544 0.000000 0.000000 0.000000
# 2 -0.003824 0.015204 -0.002114 0.000000 0.000000 0.000000
# 3 -0.007544 -0.002114 0.013840 0.000000 0.000000 0.000000
# 4 0.000000 0.000000 0.000000 0.044444 0.000000 0.000000
# 5 0.000000 0.000000 0.000000 0.000000 0.041740 0.000000
# 6 0.000000 0.000000 0.000000 0.000000 0.000000 0.051469
#
#
# Mechanical properties :
#
#
# Convention : Reuss Voigt Hill
#
# Bulk Modulus (GPa) = 60.92699 66.34597 63.63648
# Shear Modulus (GPa) = 23.42303 24.52263 23.97283
#
# Velocity S-wave (km/s) = 3.52001 3.60169 3.56109
# Velocity P-wave (km/s) = 6.98214 7.23826 7.11136
#
# Compressibility (1/GPa) = 0.01641309
#
# Stress axis : x y z
#
# Youngs Moduli (GPa) = 69.76496 65.77393 72.25633
#
# Poissons Ratio (x) = 0.25153 0.54511
# Poissons Ratio (y) = 0.26680 0.15272
# Poissons Ratio (z) = 0.52632 0.13902
#
# Static dielectric constant tensor:
#      x y z
#    x 3.578890 0.000000 0.000000 
#    y 0.000000 3.368970 0.000000 
#    z 0.000000 0.000000 3.623570 
# 
# 
# High freq. dielectric constant tensor:
#      x y z
#    x 1.729510 0.000000 0.000000 
#    y 0.000000 1.727770 0.000000 
#    z 0.000000 0.000000 1.744010 
# 
# From -- ./inp_files/70759.got.cif
#   From: 2010.06.25/outbox.cif.g09.slc.cpg/sg71_36_cif.got.tgz:70759.got - 2010.06.28 04:59:45.
