data_PCOD8290128
_publ_section_title
;
Structure prediction by ZEFSAII (Michael W. Deem and Ramdas Pophale) SiO2 
 PCOD8290128
Probable space group: I M M M
;
_chemical_formula_sum "Si O2"
_cell_formula_units_Z 104
_cell_length_a 19.039236
_cell_length_b 8.996590
_cell_length_c 32.684118
_cell_angle_alpha 90.000000
_cell_angle_beta 90.000000
_cell_angle_gamma 90.000000
_cell_volume 5598.403748
_symmetry_space_group_name_H-M "I M M M"
_symmetry_group_IT_number 71
_symmetry_cell_setting 'orthorhombic'
loop_
_space_group_symop_operation_xyz
x,y,z
-x,-y,z
x,-y,-z
-x,y,-z
-x,-y,-z
x,y,-z
-x,y,z
x,-y,z
1/2+x,1/2+y,1/2+z
1/2-x,1/2-y,1/2+z
1/2+x,1/2-y,1/2-z
1/2-x,1/2+y,1/2-z
1/2-x,1/2-y,1/2-z
1/2+x,1/2+y,1/2-z
1/2-x,1/2+y,1/2+z
1/2+x,1/2-y,1/2+z
loop_
_atom_site_type_symbol
_atom_site_label
_atom_site_fract_x
_atom_site_fract_y
_atom_site_fract_z
Si Si1 0.162165 0.323440 0.578821
Si Si2 0.420691 0.828174 0.604662
Si Si3 0.918517 0.174801 0.652331
Si Si4 0.204120 0.327035 0.953094
Si Si5 0.916329 0.832843 0.814280
Si Si6 0.083362 0.333230 0.265139
Si Si7 0.078322 0.323476 0.500000
O O1 0.160638 0.500000 0.582593
O O2 0.128849 0.253909 0.618914
O O3 0.241447 0.268276 0.573369
O O4 0.118020 0.264755 0.540010
O O5 0.500000 0.777923 0.593591
O O6 0.372971 0.796014 0.565190
O O7 0.390206 0.739218 0.643450
O O8 0.419009 0.000000 0.617175
O O9 0.893309 0.235971 0.696075
O O10 0.000000 0.214157 0.644154
O O11 0.905412 0.000000 0.651254
O O12 0.224192 0.500000 0.949843
O O13 0.203866 0.272873 0.000000
O O14 0.885353 0.741661 0.775833
O O15 0.000000 0.830112 0.812799
O O16 0.887244 0.000000 0.811767
O O17 0.113605 0.500000 0.269297
O O18 0.000000 0.337389 0.262187
O O19 0.076214 0.500000 0.500000
O O20 0.000000 0.256592 0.500000
#
# Coordination Sequence:
#
# PCOD8290128 Si02
#       7
#    16  16  16  16  16  16   8
#     4  11  21  35  54  75 103 140 180 221 264 318
#     4   9  18  33  54  80 107 137 175 217 262 315
#     4  10  20  33  50  76 109 142 178 222 268 311
#     4  10  21  37  56  77 105 139 175 219 269 321
#     4   9  16  27  46  74 107 139 171 213 263 311
#     4   9  16  27  46  73 105 141 178 215 257 309
#     4   9  18  32  51  75 100 129 170 220 265 303
#
# _framework density 18.576725
#
# number of rings (size 3 to 8) (size 9 to 14) (size 15 to 20)
#    0.000    2.385    0.769    2.308    0.000    6.154 
#    0.000    1.538    0.000    2.769    0.000    3.231 
#    0.000    0.000    0.000    0.000    0.000    0.000 
#
# Total GULP energy -644865.696192 kJ/mol
# GULP energy per Si atom -12401.263388 kJ/mol
# Density = 1.853444 g / cm^3
# Si number density = 18.576725 Si / 1000 Ang^3
#
#
#
# Elastic Constant Matrix: (Units=GPa)
#
#
# Indices 1 2 3 4 5 6 
#
# 1 71.6085 35.5439 46.6792 0.0000 0.0000 0.0000
# 2 35.5439 98.2458 55.7014 0.0000 0.0000 0.0000
# 3 46.6792 55.7014 125.0136 0.0000 0.0000 0.0000
# 4 0.0000 0.0000 0.0000 27.7774 0.0000 0.0000
# 5 0.0000 0.0000 0.0000 0.0000 3.9044 0.0000
# 6 0.0000 0.0000 0.0000 0.0000 0.0000 20.0984
#
#
#
# Elastic Compliance Matrix: (Units=1/GPa)
#
#
# Indices 1 2 3 4 5 6 
#
# 1 0.019525 -0.003921 -0.005543 0.000000 0.000000 0.000000
# 2 -0.003921 0.014406 -0.004955 0.000000 0.000000 0.000000
# 3 -0.005543 -0.004955 0.012277 0.000000 0.000000 0.000000
# 4 0.000000 0.000000 0.000000 0.036001 0.000000 0.000000
# 5 0.000000 0.000000 0.000000 0.000000 0.256118 0.000000
# 6 0.000000 0.000000 0.000000 0.000000 0.000000 0.049755
#
#
# Mechanical properties :
#
#
# Convention : Reuss Voigt Hill
#
# Bulk Modulus (GPa) = 57.57270 63.41300 60.49285
# Shear Modulus (GPa) = 11.82846 20.81895 16.32370
#
# Velocity S-wave (km/s) = 2.52610 3.35132 2.96753
# Velocity P-wave (km/s) = 6.29026 7.01320 6.66154
#
# Compressibility (1/GPa) = 0.01736934
#
# Stress axis : x y z
#
# Youngs Moduli (GPa) = 51.21767 69.41427 81.45531
#
# Poissons Ratio (x) = 0.27216 0.45153
# Poissons Ratio (y) = 0.20082 0.40360
# Poissons Ratio (z) = 0.28392 0.34394
#
# Static dielectric constant tensor:
#      x y z
#    x 3.141300 0.000000 0.000000 
#    y 0.000000 3.448420 0.000000 
#    z 0.000000 0.000000 3.542260 
# 
# 
# High freq. dielectric constant tensor:
#      x y z
#    x 1.682640 0.000000 0.000000 
#    y 0.000000 1.722680 0.000000 
#    z 0.000000 0.000000 1.731900 
# 
# From -- ./inp_files/56717.got.cif
#   From: 2010.06.25/outbox.cif.g09.slc.cpg/sg71_29_cif.got.tgz:56717.got - 2010.06.28 04:59:45.
