data_PCOD8290152
_publ_section_title
;
Structure prediction by ZEFSAII (Michael W. Deem and Ramdas Pophale) SiO2 
 PCOD8290152
Probable space group: I M M M
;
_chemical_formula_sum "Si O2"
_cell_formula_units_Z 72
_cell_length_a 18.002870
_cell_length_b 9.666733
_cell_length_c 24.196311
_cell_angle_alpha 90.000000
_cell_angle_beta 90.000000
_cell_angle_gamma 90.000000
_cell_volume 4210.858295
_symmetry_space_group_name_H-M "I M M M"
_symmetry_group_IT_number 71
_symmetry_cell_setting 'orthorhombic'
loop_
_space_group_symop_operation_xyz
x,y,z
-x,-y,z
x,-y,-z
-x,y,-z
-x,-y,-z
x,y,-z
-x,y,z
x,-y,z
1/2+x,1/2+y,1/2+z
1/2-x,1/2-y,1/2+z
1/2+x,1/2-y,1/2-z
1/2-x,1/2+y,1/2-z
1/2-x,1/2-y,1/2-z
1/2+x,1/2+y,1/2-z
1/2-x,1/2+y,1/2+z
1/2+x,1/2-y,1/2+z
loop_
_atom_site_type_symbol
_atom_site_label
_atom_site_fract_x
_atom_site_fract_y
_atom_site_fract_z
Si Si1 0.914720 0.159511 0.755406
Si Si2 0.914983 0.657801 0.564355
Si Si3 0.324902 0.336876 0.852220
Si Si4 0.343348 0.847256 0.655569
Si Si5 0.411899 0.000000 0.562960
O O1 0.865129 0.208782 0.704091
O O2 0.894108 0.245602 0.809385
O O3 0.000000 0.186749 0.739735
O O4 0.899984 0.000000 0.769362
O O5 0.898567 0.677888 0.500000
O O6 0.898889 0.500000 0.582076
O O7 0.861518 0.760174 0.596593
O O8 0.000000 0.696213 0.577820
O O9 0.332093 0.500000 0.862857
O O10 0.239744 0.287999 0.848661
O O11 0.379547 0.863571 0.594209
O O12 0.341406 0.000000 0.684192
O O13 0.500000 0.000000 0.566503
O O14 0.383739 0.000000 0.500000
#
# Coordination Sequence:
#
# PCOD8290152 Si02
#       5
#    16  16  16  16   8
#     4  10  20  33  51  74 106 140 171 213 265 323
#     4   9  19  35  52  72 102 141 183 223 264 313
#     4  10  20  34  50  78 106 137 174 219 270 314
#     4   9  20  34  53  78 102 134 175 217 264 320
#     4   9  18  34  56  78 101 131 172 222 265 308
#
# _framework density 17.098652000000001
#
# number of rings (size 3 to 8) (size 9 to 14) (size 15 to 20)
#    0.667    1.889    0.000    2.667    0.000    4.444 
#    0.000    1.111    0.000    0.667    0.000    3.111 
#    0.000    0.000    0.000    0.000    0.000    0.000 
#
# Total GULP energy -446346.998782 kJ/mol
# GULP energy per Si atom -12398.527744 kJ/mol
# Density = 1.705974 g / cm^3
# Si number density = 17.098652 Si / 1000 Ang^3
#
#
#
# Elastic Constant Matrix: (Units=GPa)
#
#
# Indices 1 2 3 4 5 6 
#
# 1 103.1683 29.4368 52.9869 0.0000 0.0000 0.0000
# 2 29.4368 45.9872 36.6469 0.0000 0.0000 0.0000
# 3 52.9869 36.6469 103.3969 0.0000 0.0000 0.0000
# 4 0.0000 0.0000 0.0000 36.7091 0.0000 0.0000
# 5 0.0000 0.0000 0.0000 0.0000 24.5605 0.0000
# 6 0.0000 0.0000 0.0000 0.0000 0.0000 22.9839
#
#
#
# Elastic Compliance Matrix: (Units=1/GPa)
#
#
# Indices 1 2 3 4 5 6 
#
# 1 0.013779 -0.004450 -0.005484 0.000000 0.000000 0.000000
# 2 -0.004450 0.031742 -0.008970 0.000000 0.000000 0.000000
# 3 -0.005484 -0.008970 0.015661 0.000000 0.000000 0.000000
# 4 0.000000 0.000000 0.000000 0.027241 0.000000 0.000000
# 5 0.000000 0.000000 0.000000 0.000000 0.040716 0.000000
# 6 0.000000 0.000000 0.000000 0.000000 0.000000 0.043509
#
#
# Mechanical properties :
#
#
# Convention : Reuss Voigt Hill
#
# Bulk Modulus (GPa) = 42.78220 54.52151 48.65185
# Shear Modulus (GPa) = 22.90988 25.74948 24.32968
#
# Velocity S-wave (km/s) = 3.66439 3.88485 3.77623
# Velocity P-wave (km/s) = 6.55582 7.21654 6.89410
#
# Compressibility (1/GPa) = 0.02337421
#
# Stress axis : x y z
#
# Youngs Moduli (GPa) = 72.57307 31.50448 63.85291
#
# Poissons Ratio (x) = 0.14019 0.35018
# Poissons Ratio (y) = 0.32295 0.57274
# Poissons Ratio (z) = 0.39800 0.28259
#
# Static dielectric constant tensor:
#      x y z
#    x 3.249160 0.000000 0.000000 
#    y 0.000000 3.021570 0.000000 
#    z 0.000000 0.000000 3.067090 
# 
# 
# High freq. dielectric constant tensor:
#      x y z
#    x 1.672110 0.000000 0.000000 
#    y 0.000000 1.644200 0.000000 
#    z 0.000000 0.000000 1.653290 
# 
# From -- ./inp_files/60432.got.cif
#   From: 2010.06.25/outbox.cif.g09.slc.cpg/sg71_31_cif.got.tgz:60432.got - 2010.06.28 04:59:45.
