data_PCOD8290444
_publ_section_title
;
Structure prediction by ZEFSAII (Michael W. Deem and Ramdas Pophale) SiO2 
 PCOD8290444
Probable space group: I M M M
;
_chemical_formula_sum "Si O2"
_cell_formula_units_Z 80
_cell_length_a 9.067459
_cell_length_b 23.840120
_cell_length_c 19.822363
_cell_angle_alpha 90.000000
_cell_angle_beta 90.000000
_cell_angle_gamma 90.000000
_cell_volume 4284.986545
_symmetry_space_group_name_H-M "I M M M"
_symmetry_group_IT_number 71
_symmetry_cell_setting 'orthorhombic'
loop_
_space_group_symop_operation_xyz
x,y,z
-x,-y,z
x,-y,-z
-x,y,-z
-x,-y,-z
x,y,-z
-x,y,z
x,-y,z
1/2+x,1/2+y,1/2+z
1/2-x,1/2-y,1/2+z
1/2+x,1/2-y,1/2-z
1/2-x,1/2+y,1/2-z
1/2-x,1/2-y,1/2-z
1/2+x,1/2+y,1/2-z
1/2-x,1/2+y,1/2+z
1/2+x,1/2-y,1/2+z
loop_
_atom_site_type_symbol
_atom_site_label
_atom_site_fract_x
_atom_site_fract_y
_atom_site_fract_z
Si Si1 0.339885 0.622008 0.100549
Si Si2 0.337772 0.000000 0.725213
Si Si3 0.824264 0.285944 0.691722
Si Si4 0.832200 0.110523 0.755342
Si Si5 0.665796 0.225841 0.574859
Si Si6 0.733714 0.000000 0.575228
O O1 0.500000 0.641766 0.074297
O O2 0.331693 0.634182 0.179945
O O3 0.213351 0.660412 0.068334
O O4 0.328718 0.556720 0.080315
O O5 0.247710 0.051423 0.754491
O O6 0.364293 0.000000 0.643351
O O7 0.500000 0.000000 0.757300
O O8 0.750000 0.250000 0.750000
O O9 0.760647 0.348773 0.696097
O O10 0.779769 0.260704 0.619647
O O11 0.000000 0.285888 0.699796
O O12 0.000000 0.104567 0.782187
O O13 0.667616 0.251918 0.500000
O O14 0.500000 0.228245 0.605198
O O15 0.655263 0.000000 0.500000
#
# Coordination Sequence:
#
# PCOD8290444 Si02
#       6
#    16   8  16  16  16   8
#     4  10  20  34  53  74 101 142 190 238 282 327
#     4  10  21  36  54  78 109 143 185 234 278 330
#     4  12  23  37  60  85 111 146 188 234 283 339
#     4  10  20  36  57  82 110 143 184 232 281 331
#     4  11  24  39  55  79 113 149 186 232 284 337
#     4  10  21  33  47  69 103 144 191 237 280 325
#
# _framework density 18.669837000000001
#
# number of rings (size 3 to 8) (size 9 to 14) (size 15 to 20)
#    0.000    1.400    2.000    4.200    0.000    9.000 
#    0.000    0.000    0.000    0.000    0.000    0.700 
#    0.000    5.600    0.000    0.000    0.000    0.000 
#
# Total GULP energy -495737.195328 kJ/mol
# GULP energy per Si atom -12393.429883 kJ/mol
# Density = 1.862734 g / cm^3
# Si number density = 18.669837 Si / 1000 Ang^3
#
#
#
# Elastic Constant Matrix: (Units=GPa)
#
#
# Indices 1 2 3 4 5 6 
#
# 1 175.2920 62.2154 37.1470 0.0000 0.0000 0.0000
# 2 62.2154 113.9673 45.2514 0.0000 0.0000 0.0000
# 3 37.1470 45.2514 65.5975 0.0000 0.0000 0.0000
# 4 0.0000 0.0000 0.0000 13.2913 0.0000 0.0000
# 5 0.0000 0.0000 0.0000 0.0000 17.0940 0.0000
# 6 0.0000 0.0000 0.0000 0.0000 0.0000 23.1284
#
#
#
# Elastic Compliance Matrix: (Units=1/GPa)
#
#
# Indices 1 2 3 4 5 6 
#
# 1 0.007242 -0.003202 -0.001892 0.000000 0.000000 0.000000
# 2 -0.003202 0.013500 -0.007500 0.000000 0.000000 0.000000
# 3 -0.001892 -0.007500 0.021489 0.000000 0.000000 0.000000
# 4 0.000000 0.000000 0.000000 0.075237 0.000000 0.000000
# 5 0.000000 0.000000 0.000000 0.000000 0.058500 0.000000
# 6 0.000000 0.000000 0.000000 0.000000 0.000000 0.043237
#
#
# Mechanical properties :
#
#
# Convention : Reuss Voigt Hill
#
# Bulk Modulus (GPa) = 58.67165 71.56496 65.11830
# Shear Modulus (GPa) = 19.99395 24.71895 22.35645
#
# Velocity S-wave (km/s) = 3.27605 3.64263 3.46419
# Velocity P-wave (km/s) = 6.76787 7.49045 7.13831
#
# Compressibility (1/GPa) = 0.01704401
#
# Stress axis : x y z
#
# Youngs Moduli (GPa) = 138.07707 74.07199 46.53448
#
# Poissons Ratio (x) = 0.23720 0.08805
# Poissons Ratio (y) = 0.44217 0.34899
# Poissons Ratio (z) = 0.26126 0.55551
#
# Static dielectric constant tensor:
#      x y z
#    x 3.525030 0.000000 0.000000 
#    y 0.000000 15.681650 0.000000 
#    z 0.000000 0.000000 3.317790 
# 
# 
# High freq. dielectric constant tensor:
#      x y z
#    x 1.737210 0.000000 0.000000 
#    y 0.000000 1.719480 0.000000 
#    z 0.000000 0.000000 1.694320 
# 
# From -- ./inp_files/10213.got.cif
#   From: 2010.06.25/outbox.cif.g09.slc.cpg/sg71_6_cif.got.tgz:10213.got - 2010.06.28 04:59:45.
