data_PCOD8290400
_publ_section_title
;
Structure prediction by ZEFSAII (Michael W. Deem and Ramdas Pophale) SiO2 
 PCOD8290400
Probable space group: I M M M
;
_chemical_formula_sum "Si O2"
_cell_formula_units_Z 88
_cell_length_a 8.955740
_cell_length_b 29.457884
_cell_length_c 18.033216
_cell_angle_alpha 90.000000
_cell_angle_beta 90.000000
_cell_angle_gamma 90.000000
_cell_volume 4757.471651
_symmetry_space_group_name_H-M "I M M M"
_symmetry_group_IT_number 71
_symmetry_cell_setting 'orthorhombic'
loop_
_space_group_symop_operation_xyz
x,y,z
-x,-y,z
x,-y,-z
-x,y,-z
-x,-y,-z
x,y,-z
-x,y,z
x,-y,z
1/2+x,1/2+y,1/2+z
1/2-x,1/2-y,1/2+z
1/2+x,1/2-y,1/2-z
1/2-x,1/2+y,1/2-z
1/2-x,1/2-y,1/2-z
1/2+x,1/2+y,1/2-z
1/2-x,1/2+y,1/2+z
1/2+x,1/2-y,1/2+z
loop_
_atom_site_type_symbol
_atom_site_label
_atom_site_fract_x
_atom_site_fract_y
_atom_site_fract_z
Si Si1 0.175081 0.114861 0.722313
Si Si2 0.332024 0.743876 0.914689
Si Si3 0.829417 0.554088 0.660865
Si Si4 0.822914 0.450172 0.500000
Si Si5 0.675482 0.148648 0.584430
Si Si6 0.675631 0.290340 0.704848
O O1 0.226106 0.073903 0.774671
O O2 0.256486 0.112138 0.642072
O O3 0.221851 0.161496 0.761959
O O4 0.000000 0.110915 0.708461
O O5 0.500000 0.738924 0.882741
O O6 0.249233 0.696908 0.897873
O O7 0.245049 0.785814 0.877251
O O8 0.335045 0.756114 0.000000
O O9 0.813603 0.500000 0.661681
O O10 0.777158 0.573269 0.578825
O O11 0.000000 0.568600 0.676486
O O12 0.749473 0.500000 0.500000
O O13 0.000000 0.455329 0.500000
O O14 0.712198 0.133288 0.500000
O O15 0.500000 0.153131 0.596809
O O16 0.500000 0.283992 0.701904
O O17 0.750000 0.250000 0.750000
#
# Coordination Sequence:
#
# PCOD8290400 Si02
#       6
#    16  16  16   8  16  16
#     4  11  23  36  53  80 111 144 179 220 272 324
#     4  10  20  34  52  74 102 138 180 224 269 317
#     4   9  18  35  60  85 109 140 179 222 266 318
#     4   7  12  28  55  83 107 135 175 219 261 309
#     4  10  20  34  55  80 104 137 181 225 268 319
#     4  11  22  35  52  74 105 145 183 222 267 315
#
# _framework density 18.497221
#
# number of rings (size 3 to 8) (size 9 to 14) (size 15 to 20)
#    0.000    2.091    1.818    3.273    0.000    4.727 
#    1.636    0.455    0.000    2.182    0.000    3.818 
#    0.000    0.000    0.000    0.000    0.000    0.000 
#
# Total GULP energy -545386.018669 kJ/mol
# GULP energy per Si atom -12395.136788 kJ/mol
# Density = 1.845512 g / cm^3
# Si number density = 18.497221 Si / 1000 Ang^3
#
#
#
# Elastic Constant Matrix: (Units=GPa)
#
#
# Indices 1 2 3 4 5 6 
#
# 1 85.7670 28.5452 53.8712 0.0000 0.0000 0.0000
# 2 28.5452 41.1371 35.4642 -0.0001 0.0000 0.0000
# 3 53.8712 35.4642 132.3585 -0.0003 0.0000 0.0000
# 4 0.0000 -0.0001 -0.0003 29.1993 0.0000 0.0000
# 5 0.0000 0.0000 0.0000 0.0000 29.5891 0.0000
# 6 0.0000 0.0000 0.0000 0.0000 0.0000 24.8120
#
#
#
# Elastic Compliance Matrix: (Units=1/GPa)
#
#
# Indices 1 2 3 4 5 6 
#
# 1 0.017377 -0.007751 -0.004996 0.000000 0.000000 0.000000
# 2 -0.007751 0.035068 -0.006241 0.000000 0.000000 0.000000
# 3 -0.004996 -0.006241 0.011261 0.000000 0.000000 0.000000
# 4 0.000000 0.000000 0.000000 0.034247 0.000000 0.000000
# 5 0.000000 0.000000 0.000000 0.000000 0.033796 0.000000
# 6 0.000000 0.000000 0.000000 0.000000 0.000000 0.040303
#
#
# Mechanical properties :
#
#
# Convention : Reuss Voigt Hill
#
# Bulk Modulus (GPa) = 38.86591 55.00265 46.93428
# Shear Modulus (GPa) = 22.87215 26.14554 24.50884
#
# Velocity S-wave (km/s) = 3.52023 3.76371 3.64401
# Velocity P-wave (km/s) = 6.13026 6.97765 6.56763
#
# Compressibility (1/GPa) = 0.02572949
#
# Stress axis : x y z
#
# Youngs Moduli (GPa) = 57.54657 28.51581 88.80273
#
# Poissons Ratio (x) = 0.22103 0.44364
# Poissons Ratio (y) = 0.44606 0.55425
# Poissons Ratio (z) = 0.28749 0.17798
#
# Static dielectric constant tensor:
#      x y z
#    x 3.511590 0.000000 0.000000 
#    y 0.000000 2.973110 0.000000 
#    z 0.000000 0.000000 3.732760 
# 
# 
# High freq. dielectric constant tensor:
#      x y z
#    x 1.719690 0.000000 0.000000 
#    y 0.000000 1.671230 0.000000 
#    z 0.000000 0.000000 1.739750 
# 
# From -- ./inp_files/42453.got.cif
#   From: 2010.06.25/outbox.cif.g09.slc.cpg/sg71_22_cif.got.tgz:42453.got - 2010.06.28 04:59:45.
