data_PCOD8290982
_publ_section_title
;
Structure prediction by ZEFSAII (Michael W. Deem and Ramdas Pophale) SiO2 
 PCOD8290982
Probable space group: I M M M
;
_chemical_formula_sum "Si O2"
_cell_formula_units_Z 80
_cell_length_a 8.788200
_cell_length_b 21.501423
_cell_length_c 21.776594
_cell_angle_alpha 90.000000
_cell_angle_beta 90.000000
_cell_angle_gamma 90.000000
_cell_volume 4114.879192
_symmetry_space_group_name_H-M "I M M M"
_symmetry_group_IT_number 71
_symmetry_cell_setting 'orthorhombic'
loop_
_space_group_symop_operation_xyz
x,y,z
-x,-y,z
x,-y,-z
-x,y,-z
-x,-y,-z
x,y,-z
-x,y,z
x,-y,z
1/2+x,1/2+y,1/2+z
1/2-x,1/2-y,1/2+z
1/2+x,1/2-y,1/2-z
1/2-x,1/2+y,1/2-z
1/2-x,1/2-y,1/2-z
1/2+x,1/2+y,1/2-z
1/2-x,1/2+y,1/2+z
1/2+x,1/2-y,1/2+z
loop_
_atom_site_type_symbol
_atom_site_label
_atom_site_fract_x
_atom_site_fract_y
_atom_site_fract_z
Si Si1 0.329805 0.569598 0.285934
Si Si2 0.678912 0.000000 0.566925
Si Si3 0.823305 0.599003 0.836292
Si Si4 0.681338 0.928224 0.000000
Si Si5 0.322968 0.149316 0.117348
Si Si6 0.676721 0.759524 0.682940
O O1 0.500000 0.597857 0.293516
O O2 0.327652 0.500000 0.311768
O O3 0.282327 0.569785 0.215579
O O4 0.205466 0.608923 0.322217
O O5 0.726833 0.063141 0.602119
O O6 0.500000 0.000000 0.558584
O O7 0.758468 0.000000 0.500000
O O8 0.790461 0.671979 0.842844
O O9 0.000000 0.586209 0.820478
O O10 0.741510 0.889389 0.941014
O O11 0.500000 0.931081 0.000000
O O12 0.743793 0.000000 0.000000
O O13 0.500000 0.162504 0.108884
O O14 0.240790 0.214929 0.129180
O O15 0.500000 0.746226 0.691580
O O16 0.750000 0.750000 0.750000
#
# Coordination Sequence:
#
# PCOD8290982 Si02
#       6
#    16   8  16   8  16  16
#     4  11  22  34  54  86 118 148 188 244 304 354
#     4   9  18  36  61  87 113 144 195 250 291 341
#     4  10  20  35  58  84 112 151 193 238 291 348
#     4   9  20  40  63  87 115 154 207 254 296 356
#     4  11  22  38  61  85 115 158 202 247 298 354
#     4  11  22  36  56  88 122 155 195 241 297 354
#
# _framework density 19.44164
#
# number of rings (size 3 to 8) (size 9 to 14) (size 15 to 20)
#    0.000    1.600    3.000    2.400    0.000    2.800 
#    1.800    2.000    0.000    4.800    0.000    0.000 
#    0.000    0.000    0.000    0.000    0.000    0.000 
#
# Total GULP energy -495910.154225 kJ/mol
# GULP energy per Si atom -12397.753856 kJ/mol
# Density = 1.939739 g / cm^3
# Si number density = 19.441640 Si / 1000 Ang^3
#
#
#
# Elastic Constant Matrix: (Units=GPa)
#
#
# Indices 1 2 3 4 5 6 
#
# 1 62.8190 38.2197 23.6245 0.0000 0.0000 0.0000
# 2 38.2197 158.6318 66.6802 0.0000 0.0000 0.0000
# 3 23.6245 66.6802 126.6608 0.0000 0.0000 0.0000
# 4 0.0000 0.0000 0.0000 36.3095 0.0000 0.0000
# 5 0.0000 0.0000 0.0000 0.0000 18.0370 0.0000
# 6 0.0000 0.0000 0.0000 0.0000 0.0000 27.8518
#
#
#
# Elastic Compliance Matrix: (Units=1/GPa)
#
#
# Indices 1 2 3 4 5 6 
#
# 1 0.018857 -0.003936 -0.001445 0.000000 0.000000 0.000000
# 2 -0.003936 0.008917 -0.003960 0.000000 0.000000 0.000000
# 3 -0.001445 -0.003960 0.010249 0.000000 0.000000 0.000000
# 4 0.000000 0.000000 0.000000 0.027541 0.000000 0.000000
# 5 0.000000 0.000000 0.000000 0.000000 0.055442 0.000000
# 6 0.000000 0.000000 0.000000 0.000000 0.000000 0.035904
#
#
# Mechanical properties :
#
#
# Convention : Reuss Voigt Hill
#
# Bulk Modulus (GPa) = 51.70384 67.24005 59.47195
# Shear Modulus (GPa) = 27.46664 31.07882 29.27273
#
# Velocity S-wave (km/s) = 3.76277 4.00255 3.88451
# Velocity P-wave (km/s) = 6.74759 7.48473 7.12570
#
# Compressibility (1/GPa) = 0.01934092
#
# Stress axis : x y z
#
# Youngs Moduli (GPa) = 53.03131 112.14802 97.56626
#
# Poissons Ratio (x) = 0.44139 0.14100
# Poissons Ratio (y) = 0.20872 0.38637
# Poissons Ratio (z) = 0.07664 0.44412
#
# Static dielectric constant tensor:
#      x y z
#    x 3.386130 0.000000 0.000000 
#    y 0.000000 3.821660 0.000000 
#    z 0.000000 0.000000 3.638730 
# 
# 
# High freq. dielectric constant tensor:
#      x y z
#    x 1.741030 0.000000 0.000000 
#    y 0.000000 1.774410 0.000000 
#    z 0.000000 0.000000 1.742980 
# 
# From -- ./inp_files/10269.got.cif
#   From: 2010.06.25/outbox.cif.g09.slc.cpg/sg71_6_cif.got.tgz:10269.got - 2010.06.28 04:59:45.
