data_PCOD8290294
_publ_section_title
;
Structure prediction by ZEFSAII (Michael W. Deem and Ramdas Pophale) SiO2 
 PCOD8290294
Probable space group: I M M M
;
_chemical_formula_sum "Si O2"
_cell_formula_units_Z 72
_cell_length_a 9.185396
_cell_length_b 29.525867
_cell_length_c 14.365441
_cell_angle_alpha 90.000000
_cell_angle_beta 90.000000
_cell_angle_gamma 90.000000
_cell_volume 3896.005006
_symmetry_space_group_name_H-M "I M M M"
_symmetry_group_IT_number 71
_symmetry_cell_setting 'orthorhombic'
loop_
_space_group_symop_operation_xyz
x,y,z
-x,-y,z
x,-y,-z
-x,y,-z
-x,-y,-z
x,y,-z
-x,y,z
x,-y,z
1/2+x,1/2+y,1/2+z
1/2-x,1/2-y,1/2+z
1/2+x,1/2-y,1/2-z
1/2-x,1/2+y,1/2-z
1/2-x,1/2-y,1/2-z
1/2+x,1/2+y,1/2-z
1/2-x,1/2+y,1/2+z
1/2+x,1/2-y,1/2+z
loop_
_atom_site_type_symbol
_atom_site_label
_atom_site_fract_x
_atom_site_fract_y
_atom_site_fract_z
Si Si1 0.835497 0.053788 0.000000
Si Si2 0.329051 0.621223 0.196224
Si Si3 0.832289 0.756003 0.000000
Si Si4 0.669048 0.053176 0.816497
Si Si5 0.829931 0.838625 0.500000
Si Si6 0.168927 0.789566 0.197926
O O1 0.751568 0.071105 0.091389
O O2 0.000000 0.073540 0.000000
O O3 0.838465 0.000000 0.000000
O O4 0.500000 0.610715 0.205073
O O5 0.238212 0.577314 0.226626
O O6 0.284462 0.632769 0.090526
O O7 0.279738 0.662201 0.263183
O O8 0.743615 0.709956 0.000000
O O9 0.794172 0.786986 0.911313
O O10 0.000000 0.741436 0.000000
O O11 0.500000 0.065483 0.826464
O O12 0.692271 0.000000 0.802313
O O13 0.000000 0.828425 0.500000
O O14 0.250000 0.750000 0.250000
O O15 0.000000 0.782711 0.219201
#
# Coordination Sequence:
#
# PCOD8290294 Si02
#       6
#     8  16   8  16   8  16
#     4   9  17  32  57  84 110 144 180 217 272 335
#     4  10  21  36  56  81 110 146 190 235 281 335
#     4  10  20  33  53  81 111 144 181 224 278 332
#     4  10  21  37  57  83 115 148 186 233 281 333
#     4  10  20  36  56  80 108 144 189 232 277 331
#     4  10  20  34  53  79 110 143 182 227 274 328
#
# _framework density 18.480467999999998
#
# number of rings (size 3 to 8) (size 9 to 14) (size 15 to 20)
#    0.000    2.111    2.222    1.000    0.000    5.333 
#    0.000    2.778    0.000    3.333    0.000    0.000 
#    0.000    0.000    0.000    0.000    0.000    0.000 
#
# Total GULP energy -446491.800309 kJ/mol
# GULP energy per Si atom -12402.550009 kJ/mol
# Density = 1.843841 g / cm^3
# Si number density = 18.480468 Si / 1000 Ang^3
#
#
#
# Elastic Constant Matrix: (Units=GPa)
#
#
# Indices 1 2 3 4 5 6 
#
# 1 82.9277 47.0843 59.3006 0.0003 0.0000 0.0000
# 2 47.0843 71.3907 59.4672 0.0016 0.0000 0.0000
# 3 59.3006 59.4672 164.6396 0.0166 0.0001 0.0000
# 4 0.0003 0.0016 0.0166 374.4357 -0.0059 -0.0017
# 5 0.0000 0.0000 0.0001 -0.0059 29.0033 0.0000
# 6 0.0000 0.0000 0.0000 -0.0017 0.0000 31.7530
#
#
#
# Elastic Compliance Matrix: (Units=1/GPa)
#
#
# Indices 1 2 3 4 5 6 
#
# 1 0.020673 -0.010631 -0.003607 0.000000 0.000000 0.000000
# 2 -0.010631 0.025502 -0.005382 0.000000 0.000000 0.000000
# 3 -0.003607 -0.005382 0.009317 0.000000 0.000000 0.000000
# 4 0.000000 0.000000 0.000000 0.002671 0.000001 0.000000
# 5 0.000000 0.000000 0.000000 0.000001 0.034479 0.000000
# 6 0.000000 0.000000 0.000000 0.000000 0.000000 0.031493
#
#
# Mechanical properties :
#
#
# Convention : Reuss Voigt Hill
#
# Bulk Modulus (GPa) = 61.52475 72.29580 66.91027
# Shear Modulus (GPa) = 29.62233 97.24546 63.43389
#
# Velocity S-wave (km/s) = 4.00797 7.26188 5.86510
# Velocity P-wave (km/s) = 7.40152 10.46510 9.06368
#
# Compressibility (1/GPa) = 0.01625362
#
# Stress axis : x y z
#
# Youngs Moduli (GPa) = 48.37114 39.21269 107.33153
#
# Poissons Ratio (x) = 0.41686 0.38709
# Poissons Ratio (y) = 0.51421 0.57768
# Poissons Ratio (z) = 0.17445 0.21105
#
# Static dielectric constant tensor:
#      x y z
#    x 3.432010 0.000000 0.000000 
#    y 0.000000 3.232050 0.000000 
#    z 0.000000 0.000000 3.755850 
# 
# 
# High freq. dielectric constant tensor:
#      x y z
#    x 1.716890 0.000000 0.000000 
#    y 0.000000 1.701400 0.000000 
#    z 0.000000 0.000000 1.727150 
# 
# From -- ./inp_files/6208.got.cif
#   From: 2010.06.25/outbox.cif.g09.slc.cpg/sg71_4_cif.got.tgz:6208.got - 2010.06.28 04:59:45.
