data_PCOD8290602
_publ_section_title
;
Structure prediction by ZEFSAII (Michael W. Deem and Ramdas Pophale) SiO2 
 PCOD8290602
Probable space group: I M M M
;
_chemical_formula_sum "Si O2"
_cell_formula_units_Z 104
_cell_length_a 27.504696
_cell_length_b 22.367336
_cell_length_c 8.854704
_cell_angle_alpha 90.000000
_cell_angle_beta 90.000000
_cell_angle_gamma 90.000000
_cell_volume 5447.473909
_symmetry_space_group_name_H-M "I M M M"
_symmetry_group_IT_number 71
_symmetry_cell_setting 'orthorhombic'
loop_
_space_group_symop_operation_xyz
x,y,z
-x,-y,z
x,-y,-z
-x,y,-z
-x,-y,-z
x,y,-z
-x,y,z
x,-y,z
1/2+x,1/2+y,1/2+z
1/2-x,1/2-y,1/2+z
1/2+x,1/2-y,1/2-z
1/2-x,1/2+y,1/2-z
1/2-x,1/2-y,1/2-z
1/2+x,1/2+y,1/2-z
1/2-x,1/2+y,1/2+z
1/2+x,1/2-y,1/2+z
loop_
_atom_site_type_symbol
_atom_site_label
_atom_site_fract_x
_atom_site_fract_y
_atom_site_fract_z
Si Si1 0.095410 0.570574 0.831935
Si Si2 0.227234 0.067344 0.674660
Si Si3 0.356485 0.631641 0.321652
Si Si4 0.815235 0.374177 0.328578
Si Si5 0.301974 0.258778 0.172951
Si Si6 0.944058 0.068441 0.323361
Si Si7 0.500000 0.071376 0.830198
O O1 0.091323 0.500000 0.842070
O O2 0.140659 0.586489 0.729057
O O3 0.046924 0.596965 0.756142
O O4 0.101426 0.597757 0.000000
O O5 0.215725 0.078922 0.500000
O O6 0.178283 0.077810 0.768756
O O7 0.267959 0.113696 0.727533
O O8 0.245690 0.000000 0.702728
O O9 0.356228 0.637789 0.500000
O O10 0.336631 0.693603 0.253702
O O11 0.410694 0.615529 0.266623
O O12 0.803179 0.392920 0.500000
O O13 0.829538 0.304689 0.317790
O O14 0.250000 0.250000 0.250000
O O15 0.293851 0.278712 0.000000
O O16 0.933514 0.075932 0.500000
O O17 0.000000 0.084075 0.286361
O O18 0.932943 0.000000 0.274162
O O19 0.500000 0.000000 0.831936
O O20 0.500000 0.096635 0.000000
#
# Coordination Sequence:
#
# PCOD8290602 Si02
#       7
#    16  16  16  16  16  16   8
#     4  10  20  34  54  81 113 148 183 222 277 340
#     4  11  23  37  55  81 115 153 189 230 283 341
#     4  12  24  37  58  87 118 155 195 239 289 343
#     4  11  23  37  56  82 110 144 187 236 286 336
#     4  11  23  40  61  83 110 149 195 239 284 336
#     4   9  19  38  64  92 122 157 196 241 298 359
#     4   9  17  31  53  79 107 141 181 225 270 319
#
# _framework density 19.091418999999998
#
# number of rings (size 3 to 8) (size 9 to 14) (size 15 to 20)
#    0.000    1.462    1.538    4.846    0.000    9.231 
#    0.000    0.769    1.692    0.000    0.000    0.000 
#    0.000    0.000    0.000    0.000    0.000    0.000 
#
# Total GULP energy -644913.389472 kJ/mol
# GULP energy per Si atom -12402.180567 kJ/mol
# Density = 1.904797 g / cm^3
# Si number density = 19.091419 Si / 1000 Ang^3
#
#
#
# Elastic Constant Matrix: (Units=GPa)
#
#
# Indices 1 2 3 4 5 6 
#
# 1 120.0186 34.6904 56.9818 0.0000 0.0000 0.0000
# 2 34.6904 74.2522 52.2064 0.0000 0.0000 0.0000
# 3 56.9818 52.2064 138.0870 0.0000 0.0000 0.0000
# 4 0.0000 0.0000 0.0000 26.4573 0.0000 0.0000
# 5 0.0000 0.0000 0.0000 0.0000 32.8542 0.0000
# 6 0.0000 0.0000 0.0000 0.0000 0.0000 24.6211
#
#
#
# Elastic Compliance Matrix: (Units=1/GPa)
#
#
# Indices 1 2 3 4 5 6 
#
# 1 0.010714 -0.002584 -0.003444 0.000000 0.000000 0.000000
# 2 -0.002584 0.018967 -0.006105 0.000000 0.000000 0.000000
# 3 -0.003444 -0.006105 0.010971 0.000000 0.000000 0.000000
# 4 0.000000 0.000000 0.000000 0.037797 0.000000 0.000000
# 5 0.000000 0.000000 0.000000 0.000000 0.030438 0.000000
# 6 0.000000 0.000000 0.000000 0.000000 0.000000 0.040616
#
#
# Mechanical properties :
#
#
# Convention : Reuss Voigt Hill
#
# Bulk Modulus (GPa) = 61.02569 68.90166 64.96368
# Shear Modulus (GPa) = 27.89716 29.35179 28.62448
#
# Velocity S-wave (km/s) = 3.82677 3.92527 3.87633
# Velocity P-wave (km/s) = 7.18052 7.53076 7.35773
#
# Compressibility (1/GPa) = 0.01638654
#
# Stress axis : x y z
#
# Youngs Moduli (GPa) = 93.33419 52.72351 91.14915
#
# Poissons Ratio (x) = 0.13624 0.31395
# Poissons Ratio (y) = 0.24117 0.55642
# Poissons Ratio (z) = 0.32147 0.32185
#
# Static dielectric constant tensor:
#      x y z
#    x 3.578880 0.000000 0.000000 
#    y 0.000000 3.432170 0.000000 
#    z 0.000000 0.000000 3.687930 
# 
# 
# High freq. dielectric constant tensor:
#      x y z
#    x 1.740770 0.000000 0.000000 
#    y 0.000000 1.725270 0.000000 
#    z 0.000000 0.000000 1.757170 
# 
# From -- ./inp_files/15320.got.cif
#   From: 2010.06.25/outbox.cif.g09.slc.cpg/sg71_8_cif.got.tgz:15320.got - 2010.06.28 04:59:45.
