data_PCOD8290176
_publ_section_title
;
Structure prediction by ZEFSAII (Michael W. Deem and Ramdas Pophale) SiO2 
 PCOD8290176
Probable space group: I M M M
;
_chemical_formula_sum "Si O2"
_cell_formula_units_Z 96
_cell_length_a 9.132053
_cell_length_b 19.503752
_cell_length_c 30.065367
_cell_angle_alpha 90.000000
_cell_angle_beta 90.000000
_cell_angle_gamma 90.000000
_cell_volume 5354.921379
_symmetry_space_group_name_H-M "I M M M"
_symmetry_group_IT_number 71
_symmetry_cell_setting 'orthorhombic'
loop_
_space_group_symop_operation_xyz
x,y,z
-x,-y,z
x,-y,-z
-x,y,-z
-x,-y,-z
x,y,-z
-x,y,z
x,-y,z
1/2+x,1/2+y,1/2+z
1/2-x,1/2-y,1/2+z
1/2+x,1/2-y,1/2-z
1/2-x,1/2+y,1/2-z
1/2-x,1/2-y,1/2-z
1/2+x,1/2+y,1/2-z
1/2-x,1/2+y,1/2+z
1/2+x,1/2-y,1/2+z
loop_
_atom_site_type_symbol
_atom_site_label
_atom_site_fract_x
_atom_site_fract_y
_atom_site_fract_z
Si Si1 0.837570 0.418490 0.288516
Si Si2 0.670470 0.079835 0.112129
Si Si3 0.336105 0.581658 0.204744
Si Si4 0.829919 0.185250 0.948295
Si Si5 0.331249 0.919053 0.617611
Si Si6 0.829853 0.823058 0.447991
O O1 0.842968 0.500000 0.286189
O O2 0.785994 0.396611 0.337841
O O3 0.729137 0.388816 0.250941
O O4 0.000000 0.389513 0.278976
O O5 0.500000 0.095412 0.103130
O O6 0.771315 0.119881 0.077882
O O7 0.703813 0.000000 0.105279
O O8 0.500000 0.610541 0.199093
O O9 0.336571 0.500000 0.206137
O O10 0.238208 0.607654 0.163739
O O11 0.743126 0.252309 0.932162
O O12 0.000000 0.196579 0.937974
O O13 0.801210 0.171029 0.000000
O O14 0.500000 0.896782 0.616805
O O15 0.246442 0.886037 0.576561
O O16 0.312778 0.000000 0.612755
O O17 0.804200 0.835104 0.500000
O O18 0.000000 0.820684 0.435518
#
# Coordination Sequence:
#
# PCOD8290176 Si02
#       6
#    16  16  16  16  16  16
#     4   8  14  26  44  67  97 131 165 201 243 291
#     4   9  18  32  51  76 104 134 169 209 251 295
#     4   9  16  26  43  69 100 132 166 203 242 287
#     4  10  21  36  53  73  99 132 169 208 251 302
#     4  10  20  33  51  76 105 135 166 203 247 293
#     4  10  21  37  56  75  97 129 168 208 250 299
#
# _framework density 17.927434999999999
#
# number of rings (size 3 to 8) (size 9 to 14) (size 15 to 20)
#    0.000    2.667    0.000    3.000    0.000    6.667 
#    0.000    5.000    0.000    1.000    0.000    0.000 
#    0.000    0.000    0.000    0.000    0.000    0.000 
#
# Total GULP energy -595193.470439 kJ/mol
# GULP energy per Si atom -12399.863967 kJ/mol
# Density = 1.788663 g / cm^3
# Si number density = 17.927435 Si / 1000 Ang^3
#
#
#
# Elastic Constant Matrix: (Units=GPa)
#
#
# Indices 1 2 3 4 5 6 
#
# 1 140.7580 45.3168 72.8448 0.0000 0.0000 0.0000
# 2 45.3168 43.2496 41.9534 0.0000 0.0000 0.0000
# 3 72.8448 41.9534 96.9345 0.0000 0.0000 0.0000
# 4 0.0000 0.0000 0.0000 3.2059 0.0000 0.0000
# 5 0.0000 0.0000 0.0000 0.0000 37.6893 0.0000
# 6 0.0000 0.0000 0.0000 0.0000 0.0000 27.9376
#
#
#
# Elastic Compliance Matrix: (Units=1/GPa)
#
#
# Indices 1 2 3 4 5 6 
#
# 1 0.012749 -0.007006 -0.006548 0.000000 0.000000 0.000000
# 2 -0.007006 0.043703 -0.013650 0.000000 0.000000 0.000000
# 3 -0.006548 -0.013650 0.021145 0.000000 0.000000 0.000000
# 4 0.000000 0.000000 0.000000 0.311921 0.000000 0.000000
# 5 0.000000 0.000000 0.000000 0.000000 0.026533 0.000000
# 6 0.000000 0.000000 0.000000 0.000000 0.000000 0.035794
#
#
# Mechanical properties :
#
#
# Convention : Reuss Voigt Hill
#
# Bulk Modulus (GPa) = 43.12491 66.79692 54.96091
# Shear Modulus (GPa) = 9.72794 21.82171 15.77482
#
# Velocity S-wave (km/s) = 2.33197 3.49266 2.96957
# Velocity P-wave (km/s) = 5.59984 7.32157 6.51781
#
# Compressibility (1/GPa) = 0.02318846
#
# Stress axis : x y z
#
# Youngs Moduli (GPa) = 78.43821 22.88150 47.29284
#
# Poissons Ratio (x) = 0.16031 0.30969
# Poissons Ratio (y) = 0.54956 0.64554
# Poissons Ratio (z) = 0.51364 0.31233
#
# Static dielectric constant tensor:
#      x y z
#    x 3.500230 0.000000 0.000000 
#    y 0.000000 2.918880 0.000000 
#    z 0.000000 0.000000 3.440310 
# 
# 
# High freq. dielectric constant tensor:
#      x y z
#    x 1.705750 0.000000 0.000000 
#    y 0.000000 1.651360 0.000000 
#    z 0.000000 0.000000 1.702140 
# 
# From -- ./inp_files/10847.got.cif
#   From: 2010.06.25/outbox.cif.g09.slc.cpg/sg71_6_cif.got.tgz:10847.got - 2010.06.28 04:59:45.
