data_PCOD8290712
_publ_section_title
;
Structure prediction by ZEFSAII (Michael W. Deem and Ramdas Pophale) SiO2 
 PCOD8290712
Probable space group: I M M M
;
_chemical_formula_sum "Si O2"
_cell_formula_units_Z 104
_cell_length_a 31.106970
_cell_length_b 8.980391
_cell_length_c 19.105401
_cell_angle_alpha 90.000000
_cell_angle_beta 90.000000
_cell_angle_gamma 90.000000
_cell_volume 5337.146375
_symmetry_space_group_name_H-M "I M M M"
_symmetry_group_IT_number 71
_symmetry_cell_setting 'orthorhombic'
loop_
_space_group_symop_operation_xyz
x,y,z
-x,-y,z
x,-y,-z
-x,y,-z
-x,-y,-z
x,y,-z
-x,y,z
x,-y,z
1/2+x,1/2+y,1/2+z
1/2-x,1/2-y,1/2+z
1/2+x,1/2-y,1/2-z
1/2-x,1/2+y,1/2-z
1/2-x,1/2-y,1/2-z
1/2+x,1/2+y,1/2-z
1/2-x,1/2+y,1/2+z
1/2+x,1/2-y,1/2+z
loop_
_atom_site_type_symbol
_atom_site_label
_atom_site_fract_x
_atom_site_fract_y
_atom_site_fract_z
Si Si1 0.668583 0.329584 0.421972
Si Si2 0.500000 0.665112 0.916764
Si Si3 0.916014 0.670620 0.422184
Si Si4 0.291744 0.327480 0.279688
Si Si5 0.126400 0.327843 0.284151
Si Si6 0.548508 0.327624 0.708812
Si Si7 0.920048 0.673437 0.920193
O O1 0.687580 0.299815 0.500000
O O2 0.652166 0.500000 0.415655
O O3 0.705023 0.298917 0.363509
O O4 0.629156 0.220527 0.406227
O O5 0.500000 0.500000 0.885059
O O6 0.543148 0.743337 0.890189
O O7 0.500000 0.666631 0.000000
O O8 0.902667 0.728408 0.500000
O O9 0.930131 0.500000 0.426499
O O10 0.876532 0.692231 0.368543
O O11 0.287913 0.500000 0.262219
O O12 0.250000 0.250000 0.250000
O O13 0.333837 0.267002 0.241782
O O14 0.132995 0.500000 0.263628
O O15 0.081855 0.271616 0.251708
O O16 0.500000 0.306979 0.738419
O O17 0.562411 0.500000 0.711635
O O18 0.548882 0.270417 0.628624
O O19 0.924597 0.500000 0.901960
O O20 0.933254 0.706283 0.000000
#
# Coordination Sequence:
#
# PCOD8290712 Si02
#       7
#    16   8  16  16  16  16  16
#     4   9  18  35  60  87 115 151 194 237 284 342
#     4   9  17  29  49  79 111 145 188 237 284 335
#     4   9  19  36  56  79 110 150 194 238 288 347
#     4  11  23  40  64  91 120 153 190 237 293 351
#     4  11  23  39  61  86 115 151 193 244 298 350
#     4  11  24  39  55  80 117 161 202 241 289 349
#     4  10  20  34  56  85 116 152 195 245 293 338
#
# _framework density 19.486068
#
# number of rings (size 3 to 8) (size 9 to 14) (size 15 to 20)
#    0.000    1.923    1.538    2.077    1.077    5.231 
#    0.000    2.308    0.000    4.615    0.000    0.000 
#    0.000    0.000    0.000    0.000    0.000    0.000 
#
# Total GULP energy -644745.411949 kJ/mol
# GULP energy per Si atom -12398.950230 kJ/mol
# Density = 1.944172 g / cm^3
# Si number density = 19.486068 Si / 1000 Ang^3
#
#
#
# Elastic Constant Matrix: (Units=GPa)
#
#
# Indices 1 2 3 4 5 6 
#
# 1 98.3952 40.7786 51.1490 0.0000 0.0000 0.0000
# 2 40.7786 95.1655 37.9401 0.0000 0.0000 0.0000
# 3 51.1490 37.9401 92.0405 0.0000 0.0000 0.0000
# 4 0.0000 0.0000 0.0000 26.1807 0.0000 0.0000
# 5 0.0000 0.0000 0.0000 0.0000 28.1346 0.0000
# 6 0.0000 0.0000 0.0000 0.0000 0.0000 33.5501
#
#
#
# Elastic Compliance Matrix: (Units=1/GPa)
#
#
# Indices 1 2 3 4 5 6 
#
# 1 0.015363 -0.003805 -0.006969 0.000000 0.000000 0.000000
# 2 -0.003805 0.013517 -0.003457 0.000000 0.000000 0.000000
# 3 -0.006969 -0.003457 0.016163 0.000000 0.000000 0.000000
# 4 0.000000 0.000000 0.000000 0.038196 0.000000 0.000000
# 5 0.000000 0.000000 0.000000 0.000000 0.035543 0.000000
# 6 0.000000 0.000000 0.000000 0.000000 0.000000 0.029806
#
#
# Mechanical properties :
#
#
# Convention : Reuss Voigt Hill
#
# Bulk Modulus (GPa) = 60.31360 60.59295 60.45328
# Shear Modulus (GPa) = 27.38579 27.95532 27.67055
#
# Velocity S-wave (km/s) = 3.75294 3.79176 3.77240
# Velocity P-wave (km/s) = 7.05682 7.09457 7.07572
#
# Compressibility (1/GPa) = 0.01658001
#
# Stress axis : x y z
#
# Youngs Moduli (GPa) = 65.09319 73.98283 61.87022
#
# Poissons Ratio (x) = 0.28147 0.43118
# Poissons Ratio (y) = 0.24765 0.21391
# Poissons Ratio (z) = 0.45364 0.25579
#
# Static dielectric constant tensor:
#      x y z
#    x 3.328910 0.000000 0.000000 
#    y 0.000000 3.667160 0.000000 
#    z 0.000000 0.000000 3.974430 
# 
# 
# High freq. dielectric constant tensor:
#      x y z
#    x 1.723530 0.000000 0.000000 
#    y 0.000000 1.768070 0.000000 
#    z 0.000000 0.000000 1.776670 
# 
# From -- ./inp_files/56644.got.cif
#   From: 2010.06.25/outbox.cif.g09.slc.cpg/sg71_29_cif.got.tgz:56644.got - 2010.06.28 04:59:45.
