data_PCOD8290044
_publ_section_title
;
Structure prediction by ZEFSAII (Michael W. Deem and Ramdas Pophale) SiO2 
 PCOD8290044
Probable space group: I M M M
;
_chemical_formula_sum "Si O2"
_cell_formula_units_Z 56
_cell_length_a 17.713300
_cell_length_b 17.943845
_cell_length_c 9.632788
_cell_angle_alpha 90.000000
_cell_angle_beta 90.000000
_cell_angle_gamma 90.000000
_cell_volume 3061.730705
_symmetry_space_group_name_H-M "I M M M"
_symmetry_group_IT_number 71
_symmetry_cell_setting 'orthorhombic'
loop_
_space_group_symop_operation_xyz
x,y,z
-x,-y,z
x,-y,-z
-x,y,-z
-x,-y,-z
x,y,-z
-x,y,z
x,-y,z
1/2+x,1/2+y,1/2+z
1/2-x,1/2-y,1/2+z
1/2+x,1/2-y,1/2-z
1/2-x,1/2+y,1/2-z
1/2-x,1/2-y,1/2-z
1/2+x,1/2+y,1/2-z
1/2-x,1/2+y,1/2+z
1/2+x,1/2-y,1/2+z
loop_
_atom_site_type_symbol
_atom_site_label
_atom_site_fract_x
_atom_site_fract_y
_atom_site_fract_z
Si Si1 0.722514 0.818888 0.839877
Si Si2 0.132481 0.913154 0.845196
Si Si3 0.500000 0.589187 0.843757
Si Si4 0.415281 0.916349 0.164768
O O1 0.750000 0.750000 0.750000
O O2 0.784818 0.881988 0.822363
O O3 0.644815 0.855084 0.780008
O O4 0.713337 0.793761 0.000000
O O5 0.073648 0.878896 0.734642
O O6 0.139538 0.000000 0.820187
O O7 0.102319 0.895349 0.000000
O O8 0.500000 0.500000 0.840451
O O9 0.500000 0.620406 0.000000
O O10 0.500000 0.892298 0.210654
O O11 0.397792 0.000000 0.221889
O O12 0.409004 0.918935 0.000000
#
# Coordination Sequence:
#
# PCOD8290044 Si02
#       4
#    16  16   8  16
#     4  10  20  33  49  73 105 135 166 203 252 306
#     4   9  17  31  51  71  94 130 173 210 243 288
#     4   9  17  29  47  73  99 121 154 203 252 293
#     4   8  14  28  53  80 100 123 166 220 259 290
#
# _framework density 18.290309000000001
#
# number of rings (size 3 to 8) (size 9 to 14) (size 15 to 20)
#    0.000    3.000    0.000    2.143    0.000    6.286 
#    2.571    0.000    0.000    2.571    0.000    2.000 
#    0.000    0.000    0.000    0.000    0.000    0.000 
#
# Total GULP energy -347015.625242 kJ/mol
# GULP energy per Si atom -12393.415187 kJ/mol
# Density = 1.824868 g / cm^3
# Si number density = 18.290309 Si / 1000 Ang^3
#
#
#
# Elastic Constant Matrix: (Units=GPa)
#
#
# Indices 1 2 3 4 5 6 
#
# 1 145.7764 70.6733 56.6550 0.0000 0.0000 0.0000
# 2 70.6733 62.0998 40.3864 0.0000 0.0000 0.0000
# 3 56.6550 40.3864 79.6658 0.0000 0.0000 0.0000
# 4 0.0000 0.0000 0.0000 25.1666 0.0000 0.0000
# 5 0.0000 0.0000 0.0000 0.0000 17.6634 0.0000
# 6 0.0000 0.0000 0.0000 0.0000 0.0000 24.2941
#
#
#
# Elastic Compliance Matrix: (Units=1/GPa)
#
#
# Indices 1 2 3 4 5 6 
#
# 1 0.015822 -0.015946 -0.003168 0.000000 0.000000 0.000000
# 2 -0.015946 0.040094 -0.008986 0.000000 0.000000 0.000000
# 3 -0.003168 -0.008986 0.019361 0.000000 0.000000 0.000000
# 4 0.000000 0.000000 0.000000 0.039735 0.000000 0.000000
# 5 0.000000 0.000000 0.000000 0.000000 0.056614 0.000000
# 6 0.000000 0.000000 0.000000 0.000000 0.000000 0.041162
#
#
# Mechanical properties :
#
#
# Convention : Reuss Voigt Hill
#
# Bulk Modulus (GPa) = 52.41761 69.21902 60.81832
# Shear Modulus (GPa) = 18.15899 21.41331 19.78615
#
# Velocity S-wave (km/s) = 3.15432 3.42533 3.29262
# Velocity P-wave (km/s) = 6.47976 7.31920 6.91223
#
# Compressibility (1/GPa) = 0.01907756
#
# Stress axis : x y z
#
# Youngs Moduli (GPa) = 63.20484 24.94142 51.65090
#
# Poissons Ratio (x) = 0.39770 0.16363
# Poissons Ratio (y) = 1.00784 0.46412
# Poissons Ratio (z) = 0.20024 0.22412
#
# Static dielectric constant tensor:
#      x y z
#    x 3.835330 0.000000 0.000000 
#    y 0.000000 3.344570 0.000000 
#    z 0.000000 0.000000 3.209470 
# 
# 
# High freq. dielectric constant tensor:
#      x y z
#    x 1.725610 0.000000 0.000000 
#    y 0.000000 1.685690 0.000000 
#    z 0.000000 0.000000 1.672130 
# 
# From -- ./inp_files/5021.got.cif
#   From: 2010.06.25/outbox.cif.g09.slc.cpg/sg71_3_cif.got.tgz:5021.got - 2010.06.28 04:59:45.
