data_PCOD8290333
_publ_section_title
;
Structure prediction by ZEFSAII (Michael W. Deem and Ramdas Pophale) SiO2 
 PCOD8290333
Probable space group: I M M M
;
_chemical_formula_sum "Si O2"
_cell_formula_units_Z 64
_cell_length_a 8.724884
_cell_length_b 24.064938
_cell_length_c 15.716582
_cell_angle_alpha 90.000000
_cell_angle_beta 90.000000
_cell_angle_gamma 90.000000
_cell_volume 3299.913162
_symmetry_space_group_name_H-M "I M M M"
_symmetry_group_IT_number 71
_symmetry_cell_setting 'orthorhombic'
loop_
_space_group_symop_operation_xyz
x,y,z
-x,-y,z
x,-y,-z
-x,y,-z
-x,-y,-z
x,y,-z
-x,y,z
x,-y,z
1/2+x,1/2+y,1/2+z
1/2-x,1/2-y,1/2+z
1/2+x,1/2-y,1/2-z
1/2-x,1/2+y,1/2-z
1/2-x,1/2-y,1/2-z
1/2+x,1/2+y,1/2-z
1/2-x,1/2+y,1/2+z
1/2+x,1/2-y,1/2+z
loop_
_atom_site_type_symbol
_atom_site_label
_atom_site_fract_x
_atom_site_fract_y
_atom_site_fract_z
Si Si1 0.319739 0.773915 0.335565
Si Si2 0.679839 0.297080 0.500000
Si Si3 0.819481 0.000000 0.874171
Si Si4 0.181832 0.389395 0.095053
Si Si5 0.818690 0.500000 0.191490
Si Si6 0.180628 0.583556 0.500000
O O1 0.500000 0.774405 0.324009
O O2 0.250000 0.750000 0.250000
O O3 0.272558 0.737130 0.416543
O O4 0.257553 0.836512 0.351281
O O5 0.500000 0.311327 0.500000
O O6 0.779365 0.352225 0.500000
O O7 0.778269 0.000000 0.776377
O O8 0.749824 0.944754 0.916074
O O9 0.000000 0.000000 0.888068
O O10 0.233829 0.446079 0.139365
O O11 0.000000 0.386386 0.088751
O O12 0.251523 0.387683 0.000000
O O13 0.000000 0.500000 0.210712
O O14 0.000000 0.574988 0.500000
#
# Coordination Sequence:
#
# PCOD8290333 Si02
#       6
#    16   8   8  16   8   8
#     4  10  21  37  58  84 117 156 201 243 292 351
#     4  10  21  39  60  85 121 162 197 240 299 361
#     4  11  23  41  60  84 120 155 187 228 293 358
#     4   9  17  34  58  84 114 150 193 245 292 338
#     4  10  20  33  58  91 117 145 194 245 288 337
#     4  11  23  40  63  86 113 147 196 246 289 341
#
# _framework density 19.394449000000002
#
# number of rings (size 3 to 8) (size 9 to 14) (size 15 to 20)
#    0.000    2.000    1.250    3.375    3.500    2.500 
#    0.000    0.000    0.000    3.000    0.000    0.000 
#    0.000    0.000    0.000    0.000    0.000    0.000 
#
# Total GULP energy -396842.928603 kJ/mol
# GULP energy per Si atom -12401.341519 kJ/mol
# Density = 1.935031 g / cm^3
# Si number density = 19.394449 Si / 1000 Ang^3
#
#
#
# Elastic Constant Matrix: (Units=GPa)
#
#
# Indices 1 2 3 4 5 6 
#
# 1 70.8054 50.5925 44.8575 0.0000 0.0000 0.0000
# 2 50.5925 196.1410 99.1683 -0.0001 0.0000 0.0000
# 3 44.8575 99.1683 185.0422 -0.0006 0.0001 0.0000
# 4 0.0000 -0.0001 -0.0006 -35.3330 0.0001 0.0000
# 5 0.0000 0.0000 0.0001 0.0001 29.0938 0.0000
# 6 0.0000 0.0000 0.0000 0.0000 0.0000 21.3757
#
#
#
# Elastic Compliance Matrix: (Units=1/GPa)
#
#
# Indices 1 2 3 4 5 6 
#
# 1 0.018182 -0.003376 -0.002598 0.000000 0.000000 0.000000
# 2 -0.003376 0.007620 -0.003265 0.000000 0.000000 0.000000
# 3 -0.002598 -0.003265 0.007784 0.000000 0.000000 0.000000
# 4 0.000000 0.000000 0.000000 -0.028302 0.000000 0.000000
# 5 0.000000 0.000000 0.000000 0.000000 0.034372 0.000000
# 6 0.000000 0.000000 0.000000 0.000000 0.000000 0.046782
#
#
# Mechanical properties :
#
#
# Convention : Reuss Voigt Hill
#
# Bulk Modulus (GPa) = 66.19723 93.46947 79.83335
# Shear Modulus (GPa) = 45.47425 20.18530 32.82978
#
# Velocity S-wave (km/s) = 4.84747 3.22961 4.11876
# Velocity P-wave (km/s) = 8.09548 7.88706 7.99195
#
# Compressibility (1/GPa) = 0.01510637
#
# Stress axis : x y z
#
# Youngs Moduli (GPa) = 55.00069 131.23041 128.46819
#
# Poissons Ratio (x) = 0.44305 0.33379
# Poissons Ratio (y) = 0.18569 0.41950
# Poissons Ratio (z) = 0.14290 0.42852
#
# Static dielectric constant tensor:
#      x y z
#    x 3.220340 0.000000 0.000000 
#    y 0.000000 3.817440 0.000000 
#    z 0.000000 0.000000 3.573090 
# 
# 
# High freq. dielectric constant tensor:
#      x y z
#    x 1.723120 0.000000 0.000000 
#    y 0.000000 1.772540 0.000000 
#    z 0.000000 0.000000 1.767230 
# 
# From -- ./inp_files/31215.got.cif
#   From: 2010.06.25/outbox.cif.g09.slc.cpg/sg71_16_cif.got.tgz:31215.got - 2010.06.28 04:59:45.
