data_PCOD8290525
_publ_section_title
;
Structure prediction by ZEFSAII (Michael W. Deem and Ramdas Pophale) SiO2 
 PCOD8290525
Probable space group: I M M M
;
_chemical_formula_sum "Si O2"
_cell_formula_units_Z 120
_cell_length_a 29.188984
_cell_length_b 8.684061
_cell_length_c 24.602863
_cell_angle_alpha 90.000000
_cell_angle_beta 90.000000
_cell_angle_gamma 90.000000
_cell_volume 6236.307083
_symmetry_space_group_name_H-M "I M M M"
_symmetry_group_IT_number 71
_symmetry_cell_setting 'orthorhombic'
loop_
_space_group_symop_operation_xyz
x,y,z
-x,-y,z
x,-y,-z
-x,y,-z
-x,-y,-z
x,y,-z
-x,y,z
x,-y,z
1/2+x,1/2+y,1/2+z
1/2-x,1/2-y,1/2+z
1/2+x,1/2-y,1/2-z
1/2-x,1/2+y,1/2-z
1/2-x,1/2-y,1/2-z
1/2+x,1/2+y,1/2-z
1/2-x,1/2+y,1/2+z
1/2+x,1/2-y,1/2+z
loop_
_atom_site_type_symbol
_atom_site_label
_atom_site_fract_x
_atom_site_fract_y
_atom_site_fract_z
Si Si1 0.168082 0.824311 0.560457
Si Si2 0.121871 0.183415 0.824206
Si Si3 0.916405 0.181738 0.367027
Si Si4 0.947368 0.681549 0.743470
Si Si5 0.716670 0.820344 0.705726
Si Si6 0.644690 0.678021 0.558242
Si Si7 0.000000 0.182964 0.439355
Si Si8 0.756734 0.175692 0.097657
O O1 0.146552 0.808190 0.500000
O O2 0.131364 0.772423 0.605337
O O3 0.211779 0.714313 0.563449
O O4 0.183044 0.000000 0.571034
O O5 0.075666 0.242019 0.796163
O O6 0.166420 0.243150 0.791901
O O7 0.122123 0.248386 0.886781
O O8 0.123855 0.000000 0.823872
O O9 0.919855 0.266414 0.309687
O O10 0.955854 0.242713 0.407023
O O11 0.920763 0.000000 0.357212
O O12 0.944249 0.500000 0.749481
O O13 0.000000 0.737863 0.740151
O O14 0.750000 0.750000 0.750000
O O15 0.740764 0.790351 0.648356
O O16 0.710553 0.000000 0.716332
O O17 0.627952 0.751951 0.500000
O O18 0.631617 0.500000 0.557114
O O19 0.699350 0.700642 0.559720
O O20 0.000000 0.253842 0.500000
O O21 0.000000 0.000000 0.443105
O O22 0.755002 0.000000 0.118802
#
# Coordination Sequence:
#
# PCOD8290525 Si02
#       8
#    16  16  16  16  16  16   8  16
#     4  10  21  35  51  77 112 147 187 238 291 341
#     4  10  21  37  60  89 117 148 188 232 284 345
#     4  10  20  35  56  79 104 139 186 237 289 348
#     4  11  24  41  60  82 112 148 190 241 294 348
#     4  11  22  37  56  80 114 153 192 235 283 336
#     4   8  15  31  56  85 114 143 180 225 270 324
#     4   9  16  30  55  81 101 129 176 235 294 349
#     4  10  20  34  53  79 111 152 195 231 274 330
#
# _framework density 19.242156000000001
#
# number of rings (size 3 to 8) (size 9 to 14) (size 15 to 20)
#    0.000    2.067    0.667    4.000    1.867    3.733 
#    0.000    0.000    0.000   10.000    0.000    2.800 
#    0.000    0.000    0.000    0.000    0.000    0.000 
#
# Total GULP energy -743874.436006 kJ/mol
# GULP energy per Si atom -12397.907267 kJ/mol
# Density = 1.919836 g / cm^3
# Si number density = 19.242156 Si / 1000 Ang^3
#
#
#
# Elastic Constant Matrix: (Units=GPa)
#
#
# Indices 1 2 3 4 5 6 
#
# 1 81.9644 27.7162 50.9975 0.0000 0.0000 0.0000
# 2 27.7162 66.0966 30.7990 0.0000 0.0000 0.0000
# 3 50.9975 30.7990 134.2413 0.0000 0.0000 0.0000
# 4 0.0000 0.0000 0.0000 19.1881 0.0000 0.0000
# 5 0.0000 0.0000 0.0000 0.0000 29.3186 0.0000
# 6 0.0000 0.0000 0.0000 0.0000 0.0000 27.0223
#
#
#
# Elastic Compliance Matrix: (Units=1/GPa)
#
#
# Indices 1 2 3 4 5 6 
#
# 1 0.017169 -0.004658 -0.005454 0.000000 0.000000 0.000000
# 2 -0.004658 0.018204 -0.002407 0.000000 0.000000 0.000000
# 3 -0.005454 -0.002407 0.010073 0.000000 0.000000 0.000000
# 4 0.000000 0.000000 0.000000 0.052116 0.000000 0.000000
# 5 0.000000 0.000000 0.000000 0.000000 0.034108 0.000000
# 6 0.000000 0.000000 0.000000 0.000000 0.000000 0.037006
#
#
# Mechanical properties :
#
#
# Convention : Reuss Voigt Hill
#
# Bulk Modulus (GPa) = 48.99841 55.70308 52.35075
# Shear Modulus (GPa) = 24.93556 26.62510 25.78033
#
# Velocity S-wave (km/s) = 3.60374 3.72383 3.66428
# Velocity P-wave (km/s) = 6.54487 6.89206 6.72071
#
# Compressibility (1/GPa) = 0.02040882
#
# Stress axis : x y z
#
# Youngs Moduli (GPa) = 58.24540 54.93217 99.27241
#
# Poissons Ratio (x) = 0.25588 0.54139
# Poissons Ratio (y) = 0.27132 0.23895
# Poissons Ratio (z) = 0.31765 0.13222
#
# Static dielectric constant tensor:
#      x y z
#    x 3.457550 0.000000 0.000000 
#    y 0.000000 3.303730 0.000000 
#    z 0.000000 0.000000 3.687310 
# 
# 
# High freq. dielectric constant tensor:
#      x y z
#    x 1.732850 0.000000 0.000000 
#    y 0.000000 1.729550 0.000000 
#    z 0.000000 0.000000 1.760850 
# 
# From -- ./inp_files/67201.got.cif
#   From: 2010.06.25/outbox.cif.g09.slc.cpg/sg71_34_cif.got.tgz:67201.got - 2010.06.28 04:59:45.
