data_PCOD8290331
_publ_section_title
;
Structure prediction by ZEFSAII (Michael W. Deem and Ramdas Pophale) SiO2 
 PCOD8290331
Probable space group: I M M M
;
_chemical_formula_sum "Si O2"
_cell_formula_units_Z 80
_cell_length_a 16.153294
_cell_length_b 28.418871
_cell_length_c 9.805509
_cell_angle_alpha 90.000000
_cell_angle_beta 90.000000
_cell_angle_gamma 90.000000
_cell_volume 4501.301061
_symmetry_space_group_name_H-M "I M M M"
_symmetry_group_IT_number 71
_symmetry_cell_setting 'orthorhombic'
loop_
_space_group_symop_operation_xyz
x,y,z
-x,-y,z
x,-y,-z
-x,y,-z
-x,-y,-z
x,y,-z
-x,y,z
x,-y,z
1/2+x,1/2+y,1/2+z
1/2-x,1/2-y,1/2+z
1/2+x,1/2-y,1/2-z
1/2-x,1/2+y,1/2-z
1/2-x,1/2-y,1/2-z
1/2+x,1/2+y,1/2-z
1/2-x,1/2+y,1/2+z
1/2+x,1/2-y,1/2+z
loop_
_atom_site_type_symbol
_atom_site_label
_atom_site_fract_x
_atom_site_fract_y
_atom_site_fract_z
Si Si1 0.500000 0.657507 0.350051
Si Si2 0.851028 0.226503 0.153647
Si Si3 0.193900 0.500000 0.337225
Si Si4 0.671388 0.190642 0.840864
Si Si5 0.500000 0.571786 0.156619
Si Si6 0.358458 0.500000 0.158640
Si Si7 0.593652 0.092312 0.838606
O O1 0.500000 0.634201 0.500000
O O2 0.579633 0.688465 0.328856
O O3 0.500000 0.618911 0.237583
O O4 0.767904 0.198121 0.191504
O O5 0.874682 0.269233 0.254058
O O6 0.845920 0.246729 0.000000
O O7 0.210156 0.500000 0.500000
O O8 0.280624 0.500000 0.258787
O O9 0.142714 0.545978 0.289499
O O10 0.642057 0.139206 0.789524
O O11 0.649994 0.197344 0.000000
O O12 0.415816 0.544528 0.192380
O O13 0.500000 0.585073 0.000000
O O14 0.330167 0.500000 0.000000
O O15 0.500000 0.091921 0.778541
O O16 0.588944 0.091687 0.000000
#
# Coordination Sequence:
#
# PCOD8290331 Si02
#       7
#     8  16   8  16   8   8  16
#     4  10  21  33  53  80 112 139 163 216 272 310
#     4   9  19  34  49  73 108 138 167 211 263 307
#     4  10  20  33  57  83 104 134 174 217 266 320
#     4   9  18  33  53  73  99 136 178 216 250 303
#     4   9  20  38  56  76 106 144 179 211 251 312
#     4   9  20  39  57  76 108 142 173 214 261 306
#     4   9  18  32  52  79 107 134 170 220 267 307
#
# _framework density 17.772639000000002
#
# number of rings (size 3 to 8) (size 9 to 14) (size 15 to 20)
#    0.000    2.800    0.000    0.900    4.200    2.800 
#    0.000    2.000    0.000    2.400    0.000    0.000 
#    0.000    0.000    0.000    0.000    0.000    0.000 
#
# Total GULP energy -495844.417303 kJ/mol
# GULP energy per Si atom -12396.110433 kJ/mol
# Density = 1.773219 g / cm^3
# Si number density = 17.772639 Si / 1000 Ang^3
#
#
#
# Elastic Constant Matrix: (Units=GPa)
#
#
# Indices 1 2 3 4 5 6 
#
# 1 107.2586 61.6073 43.7622 -0.0004 0.0000 0.0002
# 2 61.6073 130.7080 47.8056 -0.0024 -0.0002 0.0004
# 3 43.7622 47.8056 47.0247 -0.0095 -0.0004 -0.0006
# 4 -0.0004 -0.0024 -0.0095 28.3512 -0.0002 0.0004
# 5 0.0000 -0.0002 -0.0004 -0.0002 23.2175 -0.0005
# 6 0.0002 0.0004 -0.0006 0.0004 -0.0005 22.5240
#
#
#
# Elastic Compliance Matrix: (Units=1/GPa)
#
#
# Indices 1 2 3 4 5 6 
#
# 1 0.015882 -0.003311 -0.011414 -0.000004 0.000000 0.000000
# 2 -0.003311 0.012869 -0.010002 -0.000002 0.000000 0.000000
# 3 -0.011414 -0.010002 0.042055 0.000013 0.000001 0.000001
# 4 -0.000004 -0.000002 0.000013 0.035272 0.000000 -0.000001
# 5 0.000000 0.000000 0.000001 0.000000 0.043071 0.000001
# 6 0.000000 0.000000 0.000001 -0.000001 0.000001 0.044397
#
#
# Mechanical properties :
#
#
# Convention : Reuss Voigt Hill
#
# Bulk Modulus (GPa) = 46.83169 65.70462 56.26815
# Shear Modulus (GPa) = 19.99052 23.60628 21.79840
#
# Velocity S-wave (km/s) = 3.35743 3.64845 3.50596
# Velocity P-wave (km/s) = 6.43719 7.40257 6.93670
#
# Compressibility (1/GPa) = 0.02135306
#
# Stress axis : x y z
#
# Youngs Moduli (GPa) = 62.96353 77.70404 23.77812
#
# Poissons Ratio (x) = 0.25729 0.27141
# Poissons Ratio (y) = 0.20848 0.23782
# Poissons Ratio (z) = 0.71868 0.77717
#
# Static dielectric constant tensor:
#      x y z
#    x 3.400240 0.000000 0.000000 
#    y 0.000000 3.373820 0.000000 
#    z 0.000000 0.000000 3.164700 
# 
# 
# High freq. dielectric constant tensor:
#      x y z
#    x 1.697460 0.000000 0.000000 
#    y 0.000000 1.691750 0.000000 
#    z 0.000000 0.000000 1.664540 
# 
# From -- ./inp_files/8477.got.cif
#   From: 2010.06.25/outbox.cif.g09.slc.cpg/sg71_5_cif.got.tgz:8477.got - 2010.06.28 04:59:45.
