data_PCOD8290213
_publ_section_title
;
Structure prediction by ZEFSAII (Michael W. Deem and Ramdas Pophale) SiO2 
 PCOD8290213
Probable space group: I M M M
;
_chemical_formula_sum "Si O2"
_cell_formula_units_Z 80
_cell_length_a 9.173240
_cell_length_b 15.080239
_cell_length_c 28.621661
_cell_angle_alpha 90.000000
_cell_angle_beta 90.000000
_cell_angle_gamma 90.000000
_cell_volume 3959.367503
_symmetry_space_group_name_H-M "I M M M"
_symmetry_group_IT_number 71
_symmetry_cell_setting 'orthorhombic'
loop_
_space_group_symop_operation_xyz
x,y,z
-x,-y,z
x,-y,-z
-x,y,-z
-x,-y,-z
x,y,-z
-x,y,z
x,-y,z
1/2+x,1/2+y,1/2+z
1/2-x,1/2-y,1/2+z
1/2+x,1/2-y,1/2-z
1/2-x,1/2+y,1/2-z
1/2-x,1/2-y,1/2-z
1/2+x,1/2+y,1/2-z
1/2-x,1/2+y,1/2+z
1/2+x,1/2-y,1/2+z
loop_
_atom_site_type_symbol
_atom_site_label
_atom_site_fract_x
_atom_site_fract_y
_atom_site_fract_z
Si Si1 0.831565 0.101060 0.102021
Si Si2 0.169624 0.276787 0.947264
Si Si3 0.327452 0.662346 0.769165
Si Si4 0.671651 0.398001 0.872467
Si Si5 0.842081 0.401890 0.689445
O O1 0.798743 0.171823 0.061192
O O2 0.745634 0.141598 0.146642
O O3 0.000000 0.101224 0.116199
O O4 0.785915 0.000000 0.087269
O O5 0.255816 0.341564 0.913212
O O6 0.000000 0.296764 0.939904
O O7 0.219095 0.297813 0.000000
O O8 0.500000 0.663754 0.761942
O O9 0.250000 0.750000 0.750000
O O10 0.284250 0.643342 0.822463
O O11 0.255001 0.588939 0.736058
O O12 0.500000 0.393393 0.879511
O O13 0.725469 0.500000 0.874748
O O14 0.876684 0.500000 0.672792
O O15 0.000000 0.352122 0.696935
#
# Coordination Sequence:
#
# PCOD8290213 Si02
#       5
#    16  16  16  16  16
#     4   9  18  34  57  84 116 155 193 229 278 345
#     4  10  22  39  59  85 114 144 185 241 300 350
#     4  11  22  36  56  82 113 147 185 230 280 336
#     4  10  23  42  61  82 111 151 197 240 283 336
#     4  10  20  33  51  78 112 147 182 220 264 320
#
# _framework density 20.205247
#
# number of rings (size 3 to 8) (size 9 to 14) (size 15 to 20)
#    0.000    2.000    0.000    3.000    0.000    9.200 
#    0.000    4.000    0.000    0.000    0.000    4.200 
#    0.000    0.000    0.000    0.000    0.000    0.000 
#
# Total GULP energy -495647.683680 kJ/mol
# GULP energy per Si atom -12391.192092 kJ/mol
# Density = 2.015926 g / cm^3
# Si number density = 20.205247 Si / 1000 Ang^3
#
#
#
# Elastic Constant Matrix: (Units=GPa)
#
#
# Indices 1 2 3 4 5 6 
#
# 1 77.6362 42.5344 56.6482 0.0000 0.0000 0.0000
# 2 42.5344 122.2297 66.6315 0.0000 0.0000 0.0000
# 3 56.6482 66.6315 152.1317 0.0000 0.0000 0.0000
# 4 0.0000 0.0000 0.0000 29.7326 0.0000 0.0000
# 5 0.0000 0.0000 0.0000 0.0000 33.6216 0.0000
# 6 0.0000 0.0000 0.0000 0.0000 0.0000 26.1491
#
#
#
# Elastic Compliance Matrix: (Units=1/GPa)
#
#
# Indices 1 2 3 4 5 6 
#
# 1 0.018809 -0.003583 -0.005435 0.000000 0.000000 0.000000
# 2 -0.003583 0.011430 -0.003672 0.000000 0.000000 0.000000
# 3 -0.005435 -0.003672 0.010205 0.000000 0.000000 0.000000
# 4 0.000000 0.000000 0.000000 0.033633 0.000000 0.000000
# 5 0.000000 0.000000 0.000000 0.000000 0.029743 0.000000
# 6 0.000000 0.000000 0.000000 0.000000 0.000000 0.038242
#
#
# Mechanical properties :
#
#
# Convention : Reuss Voigt Hill
#
# Bulk Modulus (GPa) = 66.37781 75.95842 71.16812
# Shear Modulus (GPa) = 28.99186 30.31288 29.65237
#
# Velocity S-wave (km/s) = 3.79207 3.87751 3.83503
# Velocity P-wave (km/s) = 7.21777 7.59748 7.41006
#
# Compressibility (1/GPa) = 0.01506527
#
# Stress axis : x y z
#
# Youngs Moduli (GPa) = 53.16656 87.49066 97.98960
#
# Poissons Ratio (x) = 0.31345 0.53253
# Poissons Ratio (y) = 0.19048 0.35982
# Poissons Ratio (z) = 0.28894 0.32127
#
# Static dielectric constant tensor:
#      x y z
#    x 4.273280 0.000000 0.000000 
#    y 0.000000 2.887790 0.000000 
#    z 0.000000 0.000000 3.948450 
# 
# 
# High freq. dielectric constant tensor:
#      x y z
#    x 1.789520 0.000000 0.000000 
#    y 0.000000 1.797690 0.000000 
#    z 0.000000 0.000000 1.782190 
# 
# From -- ./inp_files/63036.got.cif
#   From: 2010.06.25/outbox.cif.g09.slc.cpg/sg71_32_cif.got.tgz:63036.got - 2010.06.28 04:59:45.
