data_PCOD8290031
_publ_section_title
;
Structure prediction by ZEFSAII (Michael W. Deem and Ramdas Pophale) SiO2 
 PCOD8290031
Probable space group: I M M M
;
_chemical_formula_sum "Si O2"
_cell_formula_units_Z 120
_cell_length_a 27.014402
_cell_length_b 27.306411
_cell_length_c 9.214118
_cell_angle_alpha 90.000000
_cell_angle_beta 90.000000
_cell_angle_gamma 90.000000
_cell_volume 6796.944922
_symmetry_space_group_name_H-M "I M M M"
_symmetry_group_IT_number 71
_symmetry_cell_setting 'orthorhombic'
loop_
_space_group_symop_operation_xyz
x,y,z
-x,-y,z
x,-y,-z
-x,y,-z
-x,-y,-z
x,y,-z
-x,y,z
x,-y,z
1/2+x,1/2+y,1/2+z
1/2-x,1/2-y,1/2+z
1/2+x,1/2-y,1/2-z
1/2-x,1/2+y,1/2-z
1/2-x,1/2-y,1/2-z
1/2+x,1/2+y,1/2-z
1/2-x,1/2+y,1/2+z
1/2+x,1/2-y,1/2+z
loop_
_atom_site_type_symbol
_atom_site_label
_atom_site_fract_x
_atom_site_fract_y
_atom_site_fract_z
Si Si1 0.285282 0.555910 0.332067
Si Si2 0.402340 0.892375 0.832290
Si Si3 0.055654 0.814573 0.669765
Si Si4 0.356592 0.641344 0.331918
Si Si5 0.814637 0.443567 0.829909
Si Si6 0.500000 0.055075 0.827395
Si Si7 0.800516 0.239661 0.830352
Si Si8 0.612558 0.781692 0.834698
O O1 0.271103 0.564375 0.500000
O O2 0.301427 0.500000 0.302564
O O3 0.331111 0.590270 0.286781
O O4 0.238151 0.570717 0.236933
O O5 0.355467 0.909156 0.740745
O O6 0.451020 0.918405 0.768122
O O7 0.411691 0.834678 0.814050
O O8 0.393162 0.906641 0.000000
O O9 0.057869 0.824861 0.500000
O O10 0.092271 0.853220 0.745118
O O11 0.071683 0.758921 0.706178
O O12 0.000000 0.822155 0.729170
O O13 0.370671 0.642463 0.500000
O O14 0.318420 0.684785 0.293931
O O15 0.827471 0.500000 0.795102
O O16 0.812449 0.433320 0.000000
O O17 0.500000 0.000000 0.767691
O O18 0.500000 0.057048 0.000000
O O19 0.750000 0.250000 0.750000
O O20 0.840731 0.277977 0.771483
O O21 0.792972 0.248275 0.000000
O O22 0.630986 0.774153 0.000000
#
# Coordination Sequence:
#
# PCOD8290031 Si02
#       8
#    16  16  16  16  16   8  16  16
#     4   9  18  34  56  79 103 133 169 209 253 300
#     4  10  20  33  53  75  98 129 169 217 262 305
#     4   9  18  33  54  77 103 134 168 207 251 304
#     4   9  19  34  52  76 103 132 168 208 251 301
#     4  10  21  35  50  72 102 134 169 209 255 307
#     4   9  18  32  51  75  97 123 167 219 266 307
#     4  10  20  33  49  71 103 136 167 204 247 299
#     4   9  19  33  49  73 101 131 168 208 253 299
#
# _framework density 17.654990999999999
#
# number of rings (size 3 to 8) (size 9 to 14) (size 15 to 20)
#    0.000    2.600    0.000    1.200    2.800    3.200 
#    0.000    0.333    0.000    1.600    0.000    2.800 
#    0.000    0.000    0.000    0.000    0.000    0.000 
#
# Total GULP energy -744121.959802 kJ/mol
# GULP energy per Si atom -12402.032663 kJ/mol
# Density = 1.761481 g / cm^3
# Si number density = 17.654991 Si / 1000 Ang^3
#
#
#
# Elastic Constant Matrix: (Units=GPa)
#
#
# Indices 1 2 3 4 5 6 
#
# 1 154.7906 69.5120 60.0162 0.0000 0.0000 0.0000
# 2 69.5120 97.2928 35.9575 0.0000 0.0000 0.0000
# 3 60.0162 35.9575 65.0569 0.0000 0.0000 0.0000
# 4 0.0000 0.0000 0.0000 23.7762 0.0000 0.0000
# 5 0.0000 0.0000 0.0000 0.0000 25.4027 0.0000
# 6 0.0000 0.0000 0.0000 0.0000 0.0000 26.0809
#
#
#
# Elastic Compliance Matrix: (Units=1/GPa)
#
#
# Indices 1 2 3 4 5 6 
#
# 1 0.012141 -0.005699 -0.008050 0.000000 0.000000 0.000000
# 2 -0.005699 0.015592 -0.003360 0.000000 0.000000 0.000000
# 3 -0.008050 -0.003360 0.024655 0.000000 0.000000 0.000000
# 4 0.000000 0.000000 0.000000 0.042059 0.000000 0.000000
# 5 0.000000 0.000000 0.000000 0.000000 0.039366 0.000000
# 6 0.000000 0.000000 0.000000 0.000000 0.000000 0.038342
#
#
# Mechanical properties :
#
#
# Convention : Reuss Voigt Hill
#
# Bulk Modulus (GPa) = 55.04034 72.01242 63.52638
# Shear Modulus (GPa) = 23.53713 25.16227 24.34970
#
# Velocity S-wave (km/s) = 3.65522 3.77931 3.71778
# Velocity P-wave (km/s) = 7.00410 7.74090 7.38170
#
# Compressibility (1/GPa) = 0.01816849
#
# Stress axis : x y z
#
# Youngs Moduli (GPa) = 82.36613 64.13594 40.55962
#
# Poissons Ratio (x) = 0.36551 0.32652
# Poissons Ratio (y) = 0.46940 0.13629
# Poissons Ratio (z) = 0.66308 0.21552
#
# Static dielectric constant tensor:
#      x y z
#    x 3.311470 0.000000 0.000000 
#    y 0.000000 3.315820 0.000000 
#    z 0.000000 0.000000 3.230040 
# 
# 
# High freq. dielectric constant tensor:
#      x y z
#    x 1.678690 0.000000 0.000000 
#    y 0.000000 1.678400 0.000000 
#    z 0.000000 0.000000 1.674400 
# 
# From -- ./inp_files/15609.got.cif
#   From: 2010.06.25/outbox.cif.g09.slc.cpg/sg71_8_cif.got.tgz:15609.got - 2010.06.28 04:59:45.
