data_PCOD8290578
_publ_section_title
;
Structure prediction by ZEFSAII (Michael W. Deem and Ramdas Pophale) SiO2 
 PCOD8290578
Probable space group: I M M M
;
_chemical_formula_sum "Si O2"
_cell_formula_units_Z 104
_cell_length_a 29.323094
_cell_length_b 19.485453
_cell_length_c 8.980332
_cell_angle_alpha 90.000000
_cell_angle_beta 90.000000
_cell_angle_gamma 90.000000
_cell_volume 5131.126150
_symmetry_space_group_name_H-M "I M M M"
_symmetry_group_IT_number 71
_symmetry_cell_setting 'orthorhombic'
loop_
_space_group_symop_operation_xyz
x,y,z
-x,-y,z
x,-y,-z
-x,y,-z
-x,-y,-z
x,y,-z
-x,y,z
x,-y,z
1/2+x,1/2+y,1/2+z
1/2-x,1/2-y,1/2+z
1/2+x,1/2-y,1/2-z
1/2-x,1/2+y,1/2-z
1/2-x,1/2-y,1/2-z
1/2+x,1/2+y,1/2-z
1/2-x,1/2+y,1/2+z
1/2+x,1/2-y,1/2+z
loop_
_atom_site_type_symbol
_atom_site_label
_atom_site_fract_x
_atom_site_fract_y
_atom_site_fract_z
Si Si1 0.886478 0.299200 0.829072
Si Si2 0.420534 0.346354 0.331364
Si Si3 0.000000 0.923075 0.324945
Si Si4 0.245944 0.075386 0.833663
Si Si5 0.344853 0.421359 0.830450
Si Si6 0.551447 0.922675 0.676885
Si Si7 0.792095 0.711785 0.328831
O O1 0.921936 0.236022 0.816900
O O2 0.912241 0.366379 0.760942
O O3 0.841249 0.275139 0.742583
O O4 0.872440 0.312399 0.000000
O O5 0.431191 0.368642 0.500000
O O6 0.456172 0.381060 0.222858
O O7 0.371253 0.373438 0.283842
O O8 0.000000 0.928742 0.500000
O O9 0.000000 0.000000 0.256094
O O10 0.207853 0.088106 0.709565
O O11 0.285730 0.130162 0.812542
O O12 0.267750 0.000000 0.811257
O O13 0.224417 0.081916 0.000000
O O14 0.360621 0.500000 0.810183
O O15 0.352406 0.397228 0.000000
O O16 0.550880 0.917169 0.500000
O O17 0.500000 0.907297 0.736152
O O18 0.566082 0.000000 0.726059
O O19 0.793166 0.736000 0.500000
O O20 0.750000 0.750000 0.250000
#
# Coordination Sequence:
#
# PCOD8290578 Si02
#       7
#    16  16   8  16  16  16  16
#     4  10  22  37  57  86 118 150 190 237 286 339
#     4  11  23  37  56  82 112 147 185 226 274 332
#     4  11  25  43  61  83 112 145 182 228 277 321
#     4   9  19  36  56  78 106 144 189 234 281 334
#     4  10  20  34  54  80 109 143 186 235 283 331
#     4   8  15  31  58  88 116 149 190 237 289 345
#     4  11  23  38  57  81 114 153 194 238 289 345
#
# _framework density 20.268456
#
# number of rings (size 3 to 8) (size 9 to 14) (size 15 to 20)
#    0.000    2.077    0.000    3.462    1.077   10.154 
#    0.000    0.000    0.000    0.000    0.000    1.077 
#    0.000    0.000    0.000    0.000    0.000    0.000 
#
# Total GULP energy -644659.470325 kJ/mol
# GULP energy per Si atom -12397.297506 kJ/mol
# Density = 2.022232 g / cm^3
# Si number density = 20.268456 Si / 1000 Ang^3
#
#
#
# Elastic Constant Matrix: (Units=GPa)
#
#
# Indices 1 2 3 4 5 6 
#
# 1 87.9985 48.1612 32.3157 0.0000 0.0000 0.0000
# 2 48.1612 108.5228 36.5519 0.0000 0.0000 0.0000
# 3 32.3157 36.5519 77.4277 0.0000 0.0000 0.0000
# 4 0.0000 0.0000 0.0000 21.0926 0.0000 0.0000
# 5 0.0000 0.0000 0.0000 0.0000 26.3002 0.0000
# 6 0.0000 0.0000 0.0000 0.0000 0.0000 36.2713
#
#
#
# Elastic Compliance Matrix: (Units=1/GPa)
#
#
# Indices 1 2 3 4 5 6 
#
# 1 0.015962 -0.005755 -0.003945 0.000000 0.000000 0.000000
# 2 -0.005755 0.013032 -0.003750 0.000000 0.000000 0.000000
# 3 -0.003945 -0.003750 0.016332 0.000000 0.000000 0.000000
# 4 0.000000 0.000000 0.000000 0.047410 0.000000 0.000000
# 5 0.000000 0.000000 0.000000 0.000000 0.038023 0.000000
# 6 0.000000 0.000000 0.000000 0.000000 0.000000 0.027570
#
#
# Mechanical properties :
#
#
# Convention : Reuss Voigt Hill
#
# Bulk Modulus (GPa) = 54.27259 56.44519 55.35889
# Shear Modulus (GPa) = 26.12717 27.19416 26.66067
#
# Velocity S-wave (km/s) = 3.59424 3.66689 3.63075
# Velocity P-wave (km/s) = 6.63775 6.77033 6.70437
#
# Compressibility (1/GPa) = 0.01842551
#
# Stress axis : x y z
#
# Youngs Moduli (GPa) = 62.64716 76.73560 61.22868
#
# Poissons Ratio (x) = 0.44162 0.24157
# Poissons Ratio (y) = 0.36054 0.22961
# Poissons Ratio (z) = 0.24716 0.28776
#
# Static dielectric constant tensor:
#      x y z
#    x 3.994730 0.000000 0.000000 
#    y 0.000000 4.066460 0.000000 
#    z 0.000000 0.000000 3.549440 
# 
# 
# High freq. dielectric constant tensor:
#      x y z
#    x 1.776280 0.000000 0.000000 
#    y 0.000000 1.809880 0.000000 
#    z 0.000000 0.000000 1.775110 
# 
# From -- ./inp_files/15036.got.cif
#   From: 2010.06.25/outbox.cif.g09.slc.cpg/sg71_8_cif.got.tgz:15036.got - 2010.06.28 04:59:45.
