data_PCOD8290430
_publ_section_title
;
Structure prediction by ZEFSAII (Michael W. Deem and Ramdas Pophale) SiO2 
 PCOD8290430
Probable space group: I M M M
;
_chemical_formula_sum "Si O2"
_cell_formula_units_Z 104
_cell_length_a 23.744100
_cell_length_b 27.215727
_cell_length_c 8.154383
_cell_angle_alpha 90.000000
_cell_angle_beta 90.000000
_cell_angle_gamma 90.000000
_cell_volume 5269.467841
_symmetry_space_group_name_H-M "I M M M"
_symmetry_group_IT_number 71
_symmetry_cell_setting 'orthorhombic'
loop_
_space_group_symop_operation_xyz
x,y,z
-x,-y,z
x,-y,-z
-x,y,-z
-x,-y,-z
x,y,-z
-x,y,z
x,-y,z
1/2+x,1/2+y,1/2+z
1/2-x,1/2-y,1/2+z
1/2+x,1/2-y,1/2-z
1/2-x,1/2+y,1/2-z
1/2-x,1/2-y,1/2-z
1/2+x,1/2+y,1/2-z
1/2-x,1/2+y,1/2+z
1/2+x,1/2-y,1/2+z
loop_
_atom_site_type_symbol
_atom_site_label
_atom_site_fract_x
_atom_site_fract_y
_atom_site_fract_z
Si Si1 0.065275 0.611950 0.817456
Si Si2 0.067018 0.445838 0.500000
Si Si3 0.064001 0.869740 0.305590
Si Si4 0.351658 0.182121 0.189449
Si Si5 0.157881 0.055047 0.307648
Si Si6 0.141573 0.789569 0.809173
Si Si7 0.764230 0.134890 0.193176
O O1 0.089095 0.578097 0.669780
O O2 0.096627 0.663827 0.800898
O O3 0.000000 0.622556 0.791113
O O4 0.075822 0.589102 0.000000
O O5 0.092537 0.500000 0.500000
O O6 0.000000 0.446391 0.500000
O O7 0.068227 0.866152 0.500000
O O8 0.104753 0.913365 0.237902
O O9 0.082925 0.817131 0.231242
O O10 0.000000 0.880630 0.248971
O O11 0.348847 0.240330 0.206960
O O12 0.296382 0.153442 0.255624
O O13 0.362169 0.169121 0.000000
O O14 0.151449 0.050340 0.500000
O O15 0.217079 0.082193 0.266739
O O16 0.157641 0.000000 0.230080
O O17 0.191258 0.824757 0.747419
O O18 0.145390 0.776914 0.000000
O O19 0.764604 0.129899 0.000000
#
# Coordination Sequence:
#
# PCOD8290430 Si02
#       7
#    16   8  16  16  16  16  16
#     4  10  21  37  57  84 115 145 182 227 277 334
#     4   9  18  36  60  82 108 142 178 220 268 320
#     4   9  18  33  52  76 108 145 185 227 272 327
#     4  11  21  35  56  79 107 145 186 226 280 339
#     4   9  18  33  54  79 107 141 181 228 280 329
#     4  10  20  34  52  77 107 140 181 228 280 334
#     4   9  20  36  54  77 105 139 181 229 277 333
#
# _framework density 19.736336999999999
#
# number of rings (size 3 to 8) (size 9 to 14) (size 15 to 20)
#    0.000    2.385    0.769    1.385    0.000    3.692 
#    0.000    3.846    0.000    0.000    0.000    4.308 
#    0.000    0.000    0.000    0.000    0.000    0.000 
#
# Total GULP energy -644614.417242 kJ/mol
# GULP energy per Si atom -12396.431101 kJ/mol
# Density = 1.969142 g / cm^3
# Si number density = 19.736337 Si / 1000 Ang^3
#
#
#
# Elastic Constant Matrix: (Units=GPa)
#
#
# Indices 1 2 3 4 5 6 
#
# 1 84.9379 68.2289 32.1591 0.0000 0.0000 0.0000
# 2 68.2289 136.0433 32.4802 0.0000 0.0000 0.0000
# 3 32.1591 32.4802 71.1826 0.0000 0.0000 0.0000
# 4 0.0000 0.0000 0.0000 24.6993 0.0000 0.0000
# 5 0.0000 0.0000 0.0000 0.0000 25.2065 0.0000
# 6 0.0000 0.0000 0.0000 0.0000 0.0000 21.6469
#
#
#
# Elastic Compliance Matrix: (Units=1/GPa)
#
#
# Indices 1 2 3 4 5 6 
#
# 1 0.021391 -0.009450 -0.005352 0.000000 0.000000 0.000000
# 2 -0.009450 0.012424 -0.001400 0.000000 0.000000 0.000000
# 3 -0.005352 -0.001400 0.017105 0.000000 0.000000 0.000000
# 4 0.000000 0.000000 0.000000 0.040487 0.000000 0.000000
# 5 0.000000 0.000000 0.000000 0.000000 0.039672 0.000000
# 6 0.000000 0.000000 0.000000 0.000000 0.000000 0.046196
#
#
# Mechanical properties :
#
#
# Convention : Reuss Voigt Hill
#
# Bulk Modulus (GPa) = 54.00619 61.98891 57.99755
# Shear Modulus (GPa) = 23.16410 24.93024 24.04717
#
# Velocity S-wave (km/s) = 3.42961 3.55796 3.49438
# Velocity P-wave (km/s) = 6.56553 6.95381 6.76246
#
# Compressibility (1/GPa) = 0.01851640
#
# Stress axis : x y z
#
# Youngs Moduli (GPa) = 46.74897 80.48747 58.46265
#
# Poissons Ratio (x) = 0.76063 0.31289
# Poissons Ratio (y) = 0.44179 0.08183
# Poissons Ratio (z) = 0.25020 0.11266
#
# Static dielectric constant tensor:
#      x y z
#    x 3.634850 0.000000 0.000000 
#    y 0.000000 3.689050 0.000000 
#    z 0.000000 0.000000 3.526310 
# 
# 
# High freq. dielectric constant tensor:
#      x y z
#    x 1.759470 0.000000 0.000000 
#    y 0.000000 1.762650 0.000000 
#    z 0.000000 0.000000 1.766970 
# 
# From -- ./inp_files/13607.got.cif
#   From: 2010.06.25/outbox.cif.g09.slc.cpg/sg71_7_cif.got.tgz:13607.got - 2010.06.28 04:59:45.
