data_PCOD8290512
_publ_section_title
;
Structure prediction by ZEFSAII (Michael W. Deem and Ramdas Pophale) SiO2 
 PCOD8290512
Probable space group: I M M M
;
_chemical_formula_sum "Si O2"
_cell_formula_units_Z 80
_cell_length_a 15.140476
_cell_length_b 28.932940
_cell_length_c 8.895054
_cell_angle_alpha 90.000000
_cell_angle_beta 90.000000
_cell_angle_gamma 90.000000
_cell_volume 3896.553867
_symmetry_space_group_name_H-M "I M M M"
_symmetry_group_IT_number 71
_symmetry_cell_setting 'orthorhombic'
loop_
_space_group_symop_operation_xyz
x,y,z
-x,-y,z
x,-y,-z
-x,y,-z
-x,-y,-z
x,y,-z
-x,y,z
x,-y,z
1/2+x,1/2+y,1/2+z
1/2-x,1/2-y,1/2+z
1/2+x,1/2-y,1/2-z
1/2-x,1/2+y,1/2-z
1/2-x,1/2-y,1/2-z
1/2+x,1/2+y,1/2-z
1/2-x,1/2+y,1/2+z
1/2+x,1/2-y,1/2+z
loop_
_atom_site_type_symbol
_atom_site_label
_atom_site_fract_x
_atom_site_fract_y
_atom_site_fract_z
Si Si1 0.773316 0.449185 0.322047
Si Si2 0.097819 0.190054 0.337289
Si Si3 0.662446 0.771837 0.321708
Si Si4 0.399581 0.600475 0.676479
Si Si5 0.603011 0.866428 0.177341
O O1 0.780247 0.450348 0.500000
O O2 0.796512 0.500000 0.255827
O O3 0.671573 0.438216 0.275241
O O4 0.844120 0.411563 0.263317
O O5 0.146567 0.197743 0.500000
O O6 0.089046 0.236604 0.239213
O O7 0.140837 0.147650 0.246926
O O8 0.000000 0.173385 0.371227
O O9 0.665166 0.772044 0.500000
O O10 0.750000 0.750000 0.250000
O O11 0.643466 0.822924 0.263686
O O12 0.399187 0.608668 0.500000
O O13 0.500000 0.587214 0.728418
O O14 0.500000 0.872752 0.217794
O O15 0.616175 0.858615 0.000000
#
# Coordination Sequence:
#
# PCOD8290512 Si02
#       5
#    16  16  16  16  16
#     4   9  18  33  54  80 108 140 184 240 296 343
#     4  10  20  34  53  78 110 146 182 220 265 323
#     4  12  24  37  56  81 111 146 184 227 277 334
#     4   9  17  30  51  80 113 149 189 233 282 338
#     4  10  21  37  57  82 113 149 191 238 285 335
#
# _framework density 20.530961999999999
#
# number of rings (size 3 to 8) (size 9 to 14) (size 15 to 20)
#    0.000    2.000    0.000    4.200    0.000    6.400 
#    0.000    4.000    0.000    2.400    0.000    4.200 
#    0.000    0.000    0.000    0.000    0.000    0.000 
#
# Total GULP energy -495572.835594 kJ/mol
# GULP energy per Si atom -12389.320890 kJ/mol
# Density = 2.048423 g / cm^3
# Si number density = 20.530962 Si / 1000 Ang^3
#
#
#
# Elastic Constant Matrix: (Units=GPa)
#
#
# Indices 1 2 3 4 5 6 
#
# 1 119.3674 68.6056 38.9585 -0.0017 0.0003 0.0000
# 2 68.6056 184.9487 51.9232 -0.0066 0.0008 0.0003
# 3 38.9585 51.9232 82.5543 -0.0170 0.0006 0.0005
# 4 -0.0017 -0.0066 -0.0170 25.2964 0.0008 0.0003
# 5 0.0003 0.0008 0.0006 0.0008 13.7451 -0.0002
# 6 0.0000 0.0003 0.0005 0.0003 -0.0002 30.6102
#
#
#
# Elastic Compliance Matrix: (Units=1/GPa)
#
#
# Indices 1 2 3 4 5 6 
#
# 1 0.011337 -0.003283 -0.003285 -0.000002 0.000000 0.000000
# 2 -0.003283 0.007517 -0.003179 0.000000 0.000000 0.000000
# 3 -0.003285 -0.003179 0.015663 0.000010 0.000000 0.000000
# 4 -0.000002 0.000000 0.000010 0.039531 -0.000002 0.000000
# 5 0.000000 0.000000 0.000000 -0.000002 0.072753 0.000000
# 6 0.000000 0.000000 0.000000 0.000000 0.000000 0.032669
#
#
# Mechanical properties :
#
#
# Convention : Reuss Voigt Hill
#
# Bulk Modulus (GPa) = 66.56433 78.42722 72.49578
# Shear Modulus (GPa) = 24.51337 29.08922 26.80129
#
# Velocity S-wave (km/s) = 3.45914 3.76819 3.61696
# Velocity P-wave (km/s) = 6.96032 7.56404 7.26845
#
# Compressibility (1/GPa) = 0.01502306
#
# Stress axis : x y z
#
# Youngs Moduli (GPa) = 88.21064 133.03021 63.84589
#
# Poissons Ratio (x) = 0.43673 0.20973
# Poissons Ratio (y) = 0.28959 0.20294
# Poissons Ratio (z) = 0.28977 0.42286
#
# Static dielectric constant tensor:
#      x y z
#    x 3.730850 -0.000010 -0.000010 
#    y -0.000010 4.331740 0.000000 
#    z -0.000010 0.000000 4.335230 
# 
# 
# High freq. dielectric constant tensor:
#      x y z
#    x 1.811530 0.000000 0.000000 
#    y 0.000000 1.801830 0.000000 
#    z 0.000000 0.000000 1.777420 
# 
# From -- ./inp_files/8331.got.cif
#   From: 2010.06.25/outbox.cif.g09.slc.cpg/sg71_5_cif.got.tgz:8331.got - 2010.06.28 04:59:45.
