data_PCOD8290632
_publ_section_title
;
Structure prediction by ZEFSAII (Michael W. Deem and Ramdas Pophale) SiO2 
 PCOD8290632
Probable space group: I M M M
;
_chemical_formula_sum "Si O2"
_cell_formula_units_Z 88
_cell_length_a 18.025310
_cell_length_b 8.801306
_cell_length_c 30.193013
_cell_angle_alpha 90.000000
_cell_angle_beta 90.000000
_cell_angle_gamma 90.000000
_cell_volume 4790.008864
_symmetry_space_group_name_H-M "I M M M"
_symmetry_group_IT_number 71
_symmetry_cell_setting 'orthorhombic'
loop_
_space_group_symop_operation_xyz
x,y,z
-x,-y,z
x,-y,-z
-x,y,-z
-x,-y,-z
x,y,-z
-x,y,z
x,-y,z
1/2+x,1/2+y,1/2+z
1/2-x,1/2-y,1/2+z
1/2+x,1/2-y,1/2-z
1/2-x,1/2+y,1/2-z
1/2-x,1/2-y,1/2-z
1/2+x,1/2+y,1/2-z
1/2-x,1/2+y,1/2+z
1/2+x,1/2-y,1/2+z
loop_
_atom_site_type_symbol
_atom_site_label
_atom_site_fract_x
_atom_site_fract_y
_atom_site_fract_z
Si Si1 0.917634 0.828120 0.260955
Si Si2 0.000000 0.167129 0.052513
Si Si3 0.717074 0.674333 0.293350
Si Si4 0.661200 0.679527 0.448657
Si Si5 0.273907 0.320914 0.881588
Si Si6 0.415543 0.178478 0.850764
O O1 0.871078 0.815196 0.215769
O O2 0.888551 0.721006 0.300969
O O3 0.000000 0.778557 0.247559
O O4 0.914111 0.000000 0.279660
O O5 0.921045 0.244965 0.066050
O O6 0.000000 0.000000 0.073935
O O7 0.000000 0.150230 0.000000
O O8 0.743707 0.500000 0.299209
O O9 0.750000 0.750000 0.250000
O O10 0.734653 0.768727 0.336686
O O11 0.675409 0.714139 0.500000
O O12 0.664466 0.500000 0.439068
O O13 0.725946 0.763235 0.422575
O O14 0.278587 0.500000 0.882956
O O15 0.357840 0.254921 0.884929
O O16 0.500000 0.237758 0.858906
O O17 0.411667 0.000000 0.857236
#
# Coordination Sequence:
#
# PCOD8290632 Si02
#       6
#    16   8  16  16  16  16
#     4   9  18  33  52  73  99 135 179 224 271 321
#     4   7  12  28  57  87 109 135 175 221 269 319
#     4  11  21  34  53  76 107 143 181 226 271 318
#     4   9  18  36  62  87 110 139 179 227 273 320
#     4  12  24  36  53  79 113 150 183 219 268 327
#     4  10  20  34  55  80 104 135 180 231 275 320
#
# _framework density 18.371573000000001
#
# number of rings (size 3 to 8) (size 9 to 14) (size 15 to 20)
#    0.000    2.091    1.818    3.818    0.000    2.182 
#    1.636    0.455    0.000    2.182    0.000    3.818 
#    0.000    0.000    0.000    0.000    0.000    0.000 
#
# Total GULP energy -545275.754975 kJ/mol
# GULP energy per Si atom -12392.630795 kJ/mol
# Density = 1.832976 g / cm^3
# Si number density = 18.371573 Si / 1000 Ang^3
#
#
#
# Elastic Constant Matrix: (Units=GPa)
#
#
# Indices 1 2 3 4 5 6 
#
# 1 130.7461 52.9475 52.5241 0.0000 0.0000 0.0000
# 2 52.9475 93.1310 41.2043 0.0000 0.0000 0.0000
# 3 52.5241 41.2043 65.0927 0.0000 0.0000 0.0000
# 4 0.0000 0.0000 0.0000 26.1154 0.0000 0.0000
# 5 0.0000 0.0000 0.0000 0.0000 30.1232 0.0000
# 6 0.0000 0.0000 0.0000 0.0000 0.0000 23.5469
#
#
#
# Elastic Compliance Matrix: (Units=1/GPa)
#
#
# Indices 1 2 3 4 5 6 
#
# 1 0.012110 -0.003558 -0.007519 0.000000 0.000000 0.000000
# 2 -0.003558 0.015960 -0.007232 0.000000 0.000000 0.000000
# 3 -0.007519 -0.007232 0.026008 0.000000 0.000000 0.000000
# 4 0.000000 0.000000 0.000000 0.038292 0.000000 0.000000
# 5 0.000000 0.000000 0.000000 0.000000 0.033197 0.000000
# 6 0.000000 0.000000 0.000000 0.000000 0.000000 0.042468
#
#
# Mechanical properties :
#
#
# Convention : Reuss Voigt Hill
#
# Bulk Modulus (GPa) = 57.27549 64.70239 60.98894
# Shear Modulus (GPa) = 23.75596 25.44336 24.59966
#
# Velocity S-wave (km/s) = 3.59985 3.72550 3.66321
# Velocity P-wave (km/s) = 6.96580 7.33492 7.15274
#
# Compressibility (1/GPa) = 0.01745947
#
# Stress axis : x y z
#
# Youngs Moduli (GPa) = 82.57594 62.65664 38.44965
#
# Poissons Ratio (x) = 0.22293 0.28912
# Poissons Ratio (y) = 0.29381 0.27806
# Poissons Ratio (z) = 0.62093 0.45312
#
# Static dielectric constant tensor:
#      x y z
#    x 4.026290 0.000000 0.000000 
#    y 0.000000 3.296120 0.000000 
#    z 0.000000 0.000000 3.001620 
# 
# 
# High freq. dielectric constant tensor:
#      x y z
#    x 1.737500 0.000000 0.000000 
#    y 0.000000 1.704080 0.000000 
#    z 0.000000 0.000000 1.669530 
# 
# From -- ./inp_files/8876.got.cif
#   From: 2010.06.25/outbox.cif.g09.slc.cpg/sg71_5_cif.got.tgz:8876.got - 2010.06.28 04:59:45.
