data_PCOD8290410
_publ_section_title
;
Structure prediction by ZEFSAII (Michael W. Deem and Ramdas Pophale) SiO2 
 PCOD8290410
Probable space group: I M M M
;
_chemical_formula_sum "Si O2"
_cell_formula_units_Z 96
_cell_length_a 9.086478
_cell_length_b 27.672593
_cell_length_c 21.136956
_cell_angle_alpha 90.000000
_cell_angle_beta 90.000000
_cell_angle_gamma 90.000000
_cell_volume 5314.811652
_symmetry_space_group_name_H-M "I M M M"
_symmetry_group_IT_number 71
_symmetry_cell_setting 'orthorhombic'
loop_
_space_group_symop_operation_xyz
x,y,z
-x,-y,z
x,-y,-z
-x,y,-z
-x,-y,-z
x,y,-z
-x,y,z
x,-y,z
1/2+x,1/2+y,1/2+z
1/2-x,1/2-y,1/2+z
1/2+x,1/2-y,1/2-z
1/2-x,1/2+y,1/2-z
1/2-x,1/2-y,1/2-z
1/2+x,1/2+y,1/2-z
1/2-x,1/2+y,1/2+z
1/2+x,1/2-y,1/2+z
loop_
_atom_site_type_symbol
_atom_site_label
_atom_site_fract_x
_atom_site_fract_y
_atom_site_fract_z
Si Si1 0.828104 0.739055 0.184832
Si Si2 0.826573 0.327274 0.354423
Si Si3 0.333861 0.000000 0.924477
Si Si4 0.835125 0.093078 0.925406
Si Si5 0.831369 0.364982 0.215447
Si Si6 0.826225 0.945306 0.500000
Si Si7 0.174428 0.944242 0.362858
O O1 0.750000 0.750000 0.250000
O O2 0.748720 0.774541 0.134932
O O3 0.806387 0.681984 0.170004
O O4 0.000000 0.751724 0.189898
O O5 0.760101 0.360217 0.409055
O O6 0.784967 0.350833 0.286774
O O7 0.000000 0.321444 0.362919
O O8 0.248384 0.046440 0.897473
O O9 0.500000 0.000000 0.897619
O O10 0.336793 0.000000 0.000000
O O11 0.000000 0.095926 0.896595
O O12 0.844961 0.088712 0.000000
O O13 0.738380 0.410402 0.191797
O O14 0.000000 0.381093 0.214171
O O15 0.770280 0.923866 0.567631
O O16 0.000000 0.942334 0.500000
O O17 0.773027 0.000000 0.500000
O O18 0.000000 0.941379 0.358845
O O19 0.225087 0.000000 0.352752
#
# Coordination Sequence:
#
# PCOD8290410 Si02
#       7
#    16  16   8  16  16   8  16
#     4   9  17  31  51  73  97 126 165 207 249 300
#     4  10  20  34  52  75 100 131 171 210 255 305
#     4   9  17  31  51  73  97 129 169 208 247 298
#     4  10  20  34  53  76 102 133 170 214 260 304
#     4   9  19  33  49  73 103 132 161 201 252 299
#     4   7  12  26  47  69  93 123 161 201 235 272
#     4   9  17  30  50  74  99 130 167 204 242 288
#
# _framework density 18.062728
#
# number of rings (size 3 to 8) (size 9 to 14) (size 15 to 20)
#    0.000    2.833    0.000    3.750    0.000    6.333 
#    1.500    0.417    1.833    1.500    0.000    0.000 
#    0.000    0.000    0.000    0.000    0.000    0.000 
#
# Total GULP energy -594711.578869 kJ/mol
# GULP energy per Si atom -12389.824560 kJ/mol
# Density = 1.802162 g / cm^3
# Si number density = 18.062728 Si / 1000 Ang^3
#
#
#
# Elastic Constant Matrix: (Units=GPa)
#
#
# Indices 1 2 3 4 5 6 
#
# 1 105.6482 49.9194 18.6194 0.0000 0.0000 0.0000
# 2 49.9194 97.7638 13.8215 0.0000 0.0000 0.0000
# 3 18.6194 13.8215 21.8481 -0.0003 -0.0001 0.0000
# 4 0.0000 0.0000 -0.0003 25.1138 0.0000 0.0000
# 5 0.0000 0.0000 -0.0001 0.0000 22.6209 0.0000
# 6 0.0000 0.0000 0.0000 0.0000 0.0000 34.7974
#
#
#
# Elastic Compliance Matrix: (Units=1/GPa)
#
#
# Indices 1 2 3 4 5 6 
#
# 1 0.013617 -0.005834 -0.007914 0.000000 0.000000 0.000000
# 2 -0.005834 0.013733 -0.003716 0.000000 0.000000 0.000000
# 3 -0.007914 -0.003716 0.054865 0.000001 0.000000 0.000000
# 4 0.000000 0.000000 0.000001 0.039819 0.000000 0.000000
# 5 0.000000 0.000000 0.000000 0.000000 0.044207 0.000000
# 6 0.000000 0.000000 0.000000 0.000000 0.000000 0.028738
#
#
# Mechanical properties :
#
#
# Convention : Reuss Voigt Hill
#
# Bulk Modulus (GPa) = 21.14703 43.33121 32.23912
# Shear Modulus (GPa) = 20.35263 26.03307 23.19285
#
# Velocity S-wave (km/s) = 3.36039 3.80051 3.58721
# Velocity P-wave (km/s) = 5.17583 6.58026 5.91984
#
# Compressibility (1/GPa) = 0.04728797
#
# Stress axis : x y z
#
# Youngs Moduli (GPa) = 73.43918 72.81729 18.22640
#
# Poissons Ratio (x) = 0.42482 0.14424
# Poissons Ratio (y) = 0.42845 0.06773
# Poissons Ratio (z) = 0.58118 0.27058
#
# Static dielectric constant tensor:
#      x y z
#    x 3.415280 0.000000 0.000000 
#    y 0.000000 3.541310 0.000000 
#    z 0.000000 0.000000 3.130770 
# 
# 
# High freq. dielectric constant tensor:
#      x y z
#    x 1.701910 0.000000 0.000000 
#    y 0.000000 1.698930 0.000000 
#    z 0.000000 0.000000 1.663660 
# 
# From -- ./inp_files/57925.got.cif
#   From: 2010.06.25/outbox.cif.g09.slc.cpg/sg71_29_cif.got.tgz:57925.got - 2010.06.28 04:59:45.
