data_PCOD8290811
_publ_section_title
;
Structure prediction by ZEFSAII (Michael W. Deem and Ramdas Pophale) SiO2 
 PCOD8290811
Probable space group: I M M M
;
_chemical_formula_sum "Si O2"
_cell_formula_units_Z 88
_cell_length_a 28.829422
_cell_length_b 17.087415
_cell_length_c 8.935443
_cell_angle_alpha 90.000000
_cell_angle_beta 90.000000
_cell_angle_gamma 90.000000
_cell_volume 4401.780593
_symmetry_space_group_name_H-M "I M M M"
_symmetry_group_IT_number 71
_symmetry_cell_setting 'orthorhombic'
loop_
_space_group_symop_operation_xyz
x,y,z
-x,-y,z
x,-y,-z
-x,y,-z
-x,-y,-z
x,y,-z
-x,y,z
x,-y,z
1/2+x,1/2+y,1/2+z
1/2-x,1/2-y,1/2+z
1/2+x,1/2-y,1/2-z
1/2-x,1/2+y,1/2-z
1/2-x,1/2-y,1/2-z
1/2+x,1/2+y,1/2-z
1/2-x,1/2+y,1/2+z
1/2+x,1/2-y,1/2+z
loop_
_atom_site_type_symbol
_atom_site_label
_atom_site_fract_x
_atom_site_fract_y
_atom_site_fract_z
Si Si1 0.408526 0.093491 0.331716
Si Si2 0.049126 0.087704 0.177402
Si Si3 0.350030 0.592810 0.325400
Si Si4 0.736667 0.668354 0.177076
Si Si5 0.500000 0.906682 0.831560
Si Si6 0.818601 0.408590 0.665940
O O1 0.407476 0.126404 0.500000
O O2 0.454663 0.125735 0.252215
O O3 0.364054 0.127935 0.244612
O O4 0.408091 0.000000 0.332459
O O5 0.098641 0.124690 0.226701
O O6 0.000000 0.129757 0.228989
O O7 0.047693 0.000000 0.241476
O O8 0.050434 0.084111 0.000000
O O9 0.340591 0.610274 0.500000
O O10 0.345457 0.500000 0.295178
O O11 0.314106 0.641119 0.226436
O O12 0.750000 0.750000 0.250000
O O13 0.773675 0.604934 0.233132
O O14 0.738554 0.675160 0.000000
O O15 0.500000 0.000000 0.830651
O O16 0.500000 0.874383 0.000000
O O17 0.812696 0.371153 0.500000
O O18 0.826220 0.500000 0.649420
#
# Coordination Sequence:
#
# PCOD8290811 Si02
#       6
#    16  16  16  16   8  16
#     4   9  16  26  42  67  98 130 164 203 248 298
#     4   7  10  19  40  73 109 140 170 205 245 293
#     4   9  17  31  53  81 112 143 176 216 261 310
#     4  12  25  39  54  73 100 136 178 221 267 316
#     4   9  15  23  37  61  95 131 165 203 250 299
#     4  10  20  35  55  78 104 133 167 209 259 315
#
# _framework density 19.991910000000001
#
# number of rings (size 3 to 8) (size 9 to 14) (size 15 to 20)
#    0.000    2.636    0.000    5.182    0.000    6.909 
#    0.000    0.000    0.000    0.545    2.364    2.545 
#    0.000    0.000    0.000    0.000    0.000    0.000 
#
# Total GULP energy -545165.463621 kJ/mol
# GULP energy per Si atom -12390.124173 kJ/mol
# Density = 1.994641 g / cm^3
# Si number density = 19.991910 Si / 1000 Ang^3
#
#
#
# Elastic Constant Matrix: (Units=GPa)
#
#
# Indices 1 2 3 4 5 6 
#
# 1 216.2719 25.2279 84.5666 0.0000 0.0000 0.0000
# 2 25.2279 22.7439 23.8690 0.0000 0.0000 0.0000
# 3 84.5666 23.8690 153.4647 0.0000 0.0000 0.0000
# 4 0.0000 0.0000 0.0000 17.4659 0.0000 0.0000
# 5 0.0000 0.0000 0.0000 0.0000 31.7951 0.0000
# 6 0.0000 0.0000 0.0000 0.0000 0.0000 6.7574
#
#
#
# Elastic Compliance Matrix: (Units=1/GPa)
#
#
# Indices 1 2 3 4 5 6 
#
# 1 0.006172 -0.003916 -0.002792 0.000000 0.000000 0.000000
# 2 -0.003916 0.055029 -0.006401 0.000000 0.000000 0.000000
# 3 -0.002792 -0.006401 0.009050 0.000000 0.000000 0.000000
# 4 0.000000 0.000000 0.000000 0.057254 0.000000 0.000000
# 5 0.000000 0.000000 0.000000 0.000000 0.031451 0.000000
# 6 0.000000 0.000000 0.000000 0.000000 0.000000 0.147986
#
#
# Mechanical properties :
#
#
# Convention : Reuss Voigt Hill
#
# Bulk Modulus (GPa) = 22.71001 73.31192 48.01096
# Shear Modulus (GPa) = 14.37439 28.45814 21.41627
#
# Velocity S-wave (km/s) = 2.68435 3.77700 3.27654
# Velocity P-wave (km/s) = 4.58169 7.46802 6.19529
#
# Compressibility (1/GPa) = 0.04403344
#
# Stress axis : x y z
#
# Youngs Moduli (GPa) = 162.01035 18.17213 110.49285
#
# Poissons Ratio (x) = 0.07117 0.30852
# Poissons Ratio (y) = 0.63447 0.70725
# Poissons Ratio (z) = 0.45237 0.11632
#
# Static dielectric constant tensor:
#      x y z
#    x 4.324170 0.000000 0.000000 
#    y 0.000000 3.007050 0.000000 
#    z 0.000000 0.000000 3.679090 
# 
# 
# High freq. dielectric constant tensor:
#      x y z
#    x 1.811050 0.000000 0.000000 
#    y 0.000000 1.713520 0.000000 
#    z 0.000000 0.000000 1.766390 
# 
# From -- ./inp_files/16701.got.cif
#   From: 2010.06.25/outbox.cif.g09.slc.cpg/sg71_9_cif.got.tgz:16701.got - 2010.06.28 04:59:45.
