data_PCOD8290236
_publ_section_title
;
Structure prediction by ZEFSAII (Michael W. Deem and Ramdas Pophale) SiO2 
 PCOD8290236
Probable space group: I M M M
;
_chemical_formula_sum "Si O2"
_cell_formula_units_Z 88
_cell_length_a 24.504157
_cell_length_b 21.445351
_cell_length_c 8.993311
_cell_angle_alpha 90.000000
_cell_angle_beta 90.000000
_cell_angle_gamma 90.000000
_cell_volume 4725.987159
_symmetry_space_group_name_H-M "I M M M"
_symmetry_group_IT_number 71
_symmetry_cell_setting 'orthorhombic'
loop_
_space_group_symop_operation_xyz
x,y,z
-x,-y,z
x,-y,-z
-x,y,-z
-x,-y,-z
x,y,-z
-x,y,z
x,-y,z
1/2+x,1/2+y,1/2+z
1/2-x,1/2-y,1/2+z
1/2+x,1/2-y,1/2-z
1/2-x,1/2+y,1/2-z
1/2-x,1/2-y,1/2-z
1/2+x,1/2+y,1/2-z
1/2-x,1/2+y,1/2+z
1/2+x,1/2-y,1/2+z
loop_
_atom_site_type_symbol
_atom_site_label
_atom_site_fract_x
_atom_site_fract_y
_atom_site_fract_z
Si Si1 0.000000 0.751635 0.667274
Si Si2 0.086399 0.646371 0.327933
Si Si3 0.191388 0.826697 0.673652
Si Si4 0.500000 0.927635 0.335945
Si Si5 0.000000 0.879614 0.174908
Si Si6 0.315382 0.802574 0.672903
Si Si7 0.883977 0.071831 0.824731
O O1 0.946310 0.710676 0.694892
O O2 0.000000 0.807433 0.782819
O O3 0.000000 0.778581 0.500000
O O4 0.096438 0.631880 0.500000
O O5 0.143451 0.647722 0.242046
O O6 0.053327 0.590075 0.256518
O O7 0.177290 0.824118 0.500000
O O8 0.255984 0.831530 0.703117
O O9 0.171944 0.762603 0.746737
O O10 0.161008 0.885655 0.744505
O O11 0.500000 0.895381 0.500000
O O12 0.500000 0.000000 0.358433
O O13 0.055088 0.912370 0.236040
O O14 0.000000 0.886183 0.000000
O O15 0.326157 0.792083 0.500000
O O16 0.871070 0.000000 0.786595
O O17 0.880216 0.084577 0.000000
#
# Coordination Sequence:
#
# PCOD8290236 Si02
#       7
#     8  16  16   8   8  16  16
#     4   9  19  32  47  75 110 137 164 207 260 306
#     4  10  20  34  54  80 110 141 176 221 267 314
#     4  10  21  36  55  80 109 139 174 220 269 317
#     4  10  21  37  56  78 107 144 182 219 265 323
#     4  10  20  33  52  77 103 135 174 214 255 302
#     4  10  20  35  56  81 108 139 175 217 268 323
#     4  10  21  37  55  75 103 140 180 219 260 311
#
# _framework density 18.620449000000001
#
# number of rings (size 3 to 8) (size 9 to 14) (size 15 to 20)
#    0.000    2.091    0.000    3.818    0.000   10.182 
#    0.000    0.909    0.000    2.727    0.000    0.000 
#    0.000    0.000    0.000    0.000    0.000    0.000 
#
# Total GULP energy -545646.687150 kJ/mol
# GULP energy per Si atom -12401.061072 kJ/mol
# Density = 1.857807 g / cm^3
# Si number density = 18.620449 Si / 1000 Ang^3
#
#
#
# Elastic Constant Matrix: (Units=GPa)
#
#
# Indices 1 2 3 4 5 6 
#
# 1 117.6832 52.6788 60.3623 0.0000 0.0000 0.0000
# 2 52.6788 96.0321 48.8532 0.0000 0.0000 0.0000
# 3 60.3623 48.8532 75.5090 0.0000 0.0000 0.0000
# 4 0.0000 0.0000 0.0000 26.7676 0.0000 0.0000
# 5 0.0000 0.0000 0.0000 0.0000 34.2784 0.0000
# 6 0.0000 0.0000 0.0000 0.0000 0.0000 32.3305
#
#
#
# Elastic Compliance Matrix: (Units=1/GPa)
#
#
# Indices 1 2 3 4 5 6 
#
# 1 0.015027 -0.003178 -0.009956 0.000000 0.000000 0.000000
# 2 -0.003178 0.016194 -0.007937 0.000000 0.000000 0.000000
# 3 -0.009956 -0.007937 0.026338 0.000000 0.000000 0.000000
# 4 0.000000 0.000000 0.000000 0.037359 0.000000 0.000000
# 5 0.000000 0.000000 0.000000 0.000000 0.029173 0.000000
# 6 0.000000 0.000000 0.000000 0.000000 0.000000 0.030931
#
#
# Mechanical properties :
#
#
# Convention : Reuss Voigt Hill
#
# Bulk Modulus (GPa) = 64.86717 68.11254 66.48985
# Shear Modulus (GPa) = 24.71553 27.16394 25.93974
#
# Velocity S-wave (km/s) = 3.64721 3.82360 3.73645
# Velocity P-wave (km/s) = 7.25592 7.49347 7.37565
#
# Compressibility (1/GPa) = 0.01541612
#
# Stress axis : x y z
#
# Youngs Moduli (GPa) = 66.54753 61.75091 37.96846
#
# Poissons Ratio (x) = 0.19625 0.37803
# Poissons Ratio (y) = 0.21149 0.30135
# Poissons Ratio (z) = 0.66257 0.49010
#
# Static dielectric constant tensor:
#      x y z
#    x 3.568610 0.000000 0.000000 
#    y 0.000000 3.170890 0.000000 
#    z 0.000000 0.000000 3.507990 
# 
# 
# High freq. dielectric constant tensor:
#      x y z
#    x 1.732270 0.000000 0.000000 
#    y 0.000000 1.704220 0.000000 
#    z 0.000000 0.000000 1.731440 
# 
# From -- ./inp_files/12633.got.cif
#   From: 2010.06.25/outbox.cif.g09.slc.cpg/sg71_7_cif.got.tgz:12633.got - 2010.06.28 04:59:45.
