data_PCOD8290459
_publ_section_title
;
Structure prediction by ZEFSAII (Michael W. Deem and Ramdas Pophale) SiO2 
 PCOD8290459
Probable space group: I M M M
;
_chemical_formula_sum "Si O2"
_cell_formula_units_Z 80
_cell_length_a 20.086492
_cell_length_b 14.471502
_cell_length_c 15.503027
_cell_angle_alpha 90.000000
_cell_angle_beta 90.000000
_cell_angle_gamma 90.000000
_cell_volume 4506.446385
_symmetry_space_group_name_H-M "I M M M"
_symmetry_group_IT_number 71
_symmetry_cell_setting 'orthorhombic'
loop_
_space_group_symop_operation_xyz
x,y,z
-x,-y,z
x,-y,-z
-x,y,-z
-x,-y,-z
x,y,-z
-x,y,z
x,-y,z
1/2+x,1/2+y,1/2+z
1/2-x,1/2-y,1/2+z
1/2+x,1/2-y,1/2-z
1/2-x,1/2+y,1/2-z
1/2-x,1/2-y,1/2-z
1/2+x,1/2+y,1/2-z
1/2-x,1/2+y,1/2+z
1/2+x,1/2-y,1/2+z
loop_
_atom_site_type_symbol
_atom_site_label
_atom_site_fract_x
_atom_site_fract_y
_atom_site_fract_z
Si Si1 0.570868 0.892330 0.000000
Si Si2 0.574123 0.889835 0.500000
Si Si3 0.335911 0.895008 0.845873
Si Si4 0.165914 0.604912 0.848648
Si Si5 0.294404 0.710678 0.102437
Si Si6 0.925773 0.104959 0.602322
O O1 0.607129 0.863131 0.912607
O O2 0.500000 0.840154 0.000000
O O3 0.559718 0.000000 0.000000
O O4 0.500000 0.847291 0.500000
O O5 0.612321 0.852352 0.585031
O O6 0.569596 0.000000 0.500000
O O7 0.363050 0.888757 0.748396
O O8 0.281177 0.816123 0.864496
O O9 0.310161 0.000000 0.865717
O O10 0.179135 0.500000 0.875956
O O11 0.236703 0.653515 0.852325
O O12 0.366058 0.671437 0.135894
O O13 0.287490 0.703329 0.000000
O O14 0.925481 0.108440 0.500000
O O15 0.000000 0.135536 0.635584
O O16 0.911244 0.000000 0.633405
#
# Coordination Sequence:
#
# PCOD8290459 Si02
#       6
#     8   8  16  16  16  16
#     4   9  18  33  50  68  95 134 176 208 243 296
#     4   9  18  33  52  74 100 129 162 204 258 313
#     4  10  21  35  49  71 103 137 171 213 255 301
#     4  10  20  34  53  76 103 131 168 212 258 310
#     4  11  19  30  51  75  99 135 170 213 255 307
#     4   8  15  27  43  67  98 129 164 205 250 300
#
# _framework density 17.752347
#
# number of rings (size 3 to 8) (size 9 to 14) (size 15 to 20)
#    0.000    2.400    2.000    1.800    0.000    2.400 
#    0.000    4.000    0.000    0.000    0.000    0.000 
#    0.000    1.600    0.000    0.000    0.000    3.600 
#
# Total GULP energy -495597.322616 kJ/mol
# GULP energy per Si atom -12389.933065 kJ/mol
# Density = 1.771194 g / cm^3
# Si number density = 17.752347 Si / 1000 Ang^3
#
#
#
# Elastic Constant Matrix: (Units=GPa)
#
#
# Indices 1 2 3 4 5 6 
#
# 1 119.0943 42.1804 45.3872 0.0000 0.0000 0.0000
# 2 42.1804 76.8154 25.7286 0.0000 0.0000 0.0000
# 3 45.3872 25.7286 102.5763 0.0000 0.0000 0.0000
# 4 0.0000 0.0000 0.0000 17.6940 0.0000 0.0000
# 5 0.0000 0.0000 0.0000 0.0000 9.4708 0.0000
# 6 0.0000 0.0000 0.0000 0.0000 0.0000 10.2301
#
#
#
# Elastic Compliance Matrix: (Units=1/GPa)
#
#
# Indices 1 2 3 4 5 6 
#
# 1 0.011691 -0.005117 -0.003890 0.000000 0.000000 0.000000
# 2 -0.005117 0.016452 -0.001862 0.000000 0.000000 0.000000
# 3 -0.003890 -0.001862 0.011937 0.000000 0.000000 0.000000
# 4 0.000000 0.000000 0.000000 0.056516 0.000000 0.000000
# 5 0.000000 0.000000 0.000000 0.000000 0.105587 0.000000
# 6 0.000000 0.000000 0.000000 0.000000 0.000000 0.097750
#
#
# Mechanical properties :
#
#
# Convention : Reuss Voigt Hill
#
# Bulk Modulus (GPa) = 54.51932 58.34205 56.43069
# Shear Modulus (GPa) = 15.25381 19.82497 17.53939
#
# Velocity S-wave (km/s) = 2.93449 3.34541 3.14666
# Velocity P-wave (km/s) = 6.50072 6.91796 6.71258
#
# Compressibility (1/GPa) = 0.01834212
#
# Stress axis : x y z
#
# Youngs Moduli (GPa) = 85.53273 60.78335 83.77299
#
# Poissons Ratio (x) = 0.31104 0.32585
# Poissons Ratio (y) = 0.43768 0.15601
# Poissons Ratio (z) = 0.33269 0.11320
#
# Static dielectric constant tensor:
#      x y z
#    x 3.453840 0.000000 0.000000 
#    y 0.000000 3.396910 0.000000 
#    z 0.000000 0.000000 3.104190 
# 
# 
# High freq. dielectric constant tensor:
#      x y z
#    x 1.670420 0.000000 0.000000 
#    y 0.000000 1.682070 0.000000 
#    z 0.000000 0.000000 1.667390 
# 
# From -- ./inp_files/36301.got.cif
#   From: 2010.06.25/outbox.cif.g09.slc.cpg/sg71_19_cif.got.tgz:36301.got - 2010.06.28 04:59:45.
