data_PCOD8290990
_publ_section_title
;
Structure prediction by ZEFSAII (Michael W. Deem and Ramdas Pophale) SiO2 
 PCOD8290990
Probable space group: I M M M
;
_chemical_formula_sum "Si O2"
_cell_formula_units_Z 88
_cell_length_a 17.256707
_cell_length_b 22.995740
_cell_length_c 12.162659
_cell_angle_alpha 90.000000
_cell_angle_beta 90.000000
_cell_angle_gamma 90.000000
_cell_volume 4826.517062
_symmetry_space_group_name_H-M "I M M M"
_symmetry_group_IT_number 71
_symmetry_cell_setting 'orthorhombic'
loop_
_space_group_symop_operation_xyz
x,y,z
-x,-y,z
x,-y,-z
-x,y,-z
-x,-y,-z
x,y,-z
-x,y,z
x,-y,z
1/2+x,1/2+y,1/2+z
1/2-x,1/2-y,1/2+z
1/2+x,1/2-y,1/2-z
1/2-x,1/2+y,1/2-z
1/2-x,1/2-y,1/2-z
1/2+x,1/2+y,1/2-z
1/2-x,1/2+y,1/2+z
1/2+x,1/2-y,1/2+z
loop_
_atom_site_type_symbol
_atom_site_label
_atom_site_fract_x
_atom_site_fract_y
_atom_site_fract_z
Si Si1 0.586025 0.653883 0.126921
Si Si2 0.340773 0.249717 0.272613
Si Si3 0.911338 0.382905 0.000000
Si Si4 0.720980 0.568423 0.873142
Si Si5 0.500000 0.931568 0.875824
Si Si6 0.637607 0.884918 0.269422
Si Si7 0.092332 0.248268 0.000000
O O1 0.500000 0.639924 0.171706
O O2 0.618534 0.711828 0.181717
O O3 0.637762 0.597158 0.148895
O O4 0.583897 0.669837 0.000000
O O5 0.250000 0.250000 0.250000
O O6 0.372486 0.184194 0.261781
O O7 0.365094 0.276772 0.391320
O O8 0.882799 0.412483 0.888450
O O9 0.887968 0.315849 0.000000
O O10 0.000000 0.392282 0.000000
O O11 0.711844 0.500000 0.859926
O O12 0.773008 0.593839 0.770929
O O13 0.748883 0.584372 0.000000
O O14 0.419857 0.910975 0.820634
O O15 0.500000 0.000000 0.873351
O O16 0.500000 0.907583 0.000000
O O17 0.000000 0.234786 0.000000
#
# Coordination Sequence:
#
# PCOD8290990 Si02
#       7
#    16  16   8  16   8  16   8
#     4  10  22  38  57  85 121 155 190 233 286 348
#     4  11  22  35  59  85 117 150 184 235 291 343
#     4   9  16  30  54  82 108 133 176 232 285 326
#     4  10  20  35  58  86 114 146 190 243 294 341
#     4  11  26  43  55  75 115 160 198 236 279 340
#     4  11  20  36  58  82 111 148 188 236 288 341
#     4   9  20  34  54  80 113 151 183 224 286 344
#
# _framework density 18.232609
#
# number of rings (size 3 to 8) (size 9 to 14) (size 15 to 20)
#    0.000    1.727    3.636    1.091    3.818    1.091 
#    0.000    2.273    0.000    0.000    0.000    0.000 
#    0.000    2.182    0.000    0.000    0.000    0.000 
#
# Total GULP energy -545179.531055 kJ/mol
# GULP energy per Si atom -12390.443888 kJ/mol
# Density = 1.819111 g / cm^3
# Si number density = 18.232609 Si / 1000 Ang^3
#
#
#
# Elastic Constant Matrix: (Units=GPa)
#
#
# Indices 1 2 3 4 5 6 
#
# 1 142.9065 29.7709 59.4757 0.0000 0.0000 0.0000
# 2 29.7709 80.9920 29.9099 0.0000 0.0000 0.0000
# 3 59.4757 29.9099 87.5844 0.0000 0.0000 0.0000
# 4 0.0000 0.0000 0.0000 25.7665 0.0000 0.0000
# 5 0.0000 0.0000 0.0000 0.0000 30.2674 0.0000
# 6 0.0000 0.0000 0.0000 0.0000 0.0000 24.2942
#
#
#
# Elastic Compliance Matrix: (Units=1/GPa)
#
#
# Indices 1 2 3 4 5 6 
#
# 1 0.009876 -0.001320 -0.006256 0.000000 0.000000 0.000000
# 2 -0.001320 0.014305 -0.003989 0.000000 0.000000 0.000000
# 3 -0.006256 -0.003989 0.017028 0.000000 0.000000 0.000000
# 4 0.000000 0.000000 0.000000 0.038810 0.000000 0.000000
# 5 0.000000 0.000000 0.000000 0.000000 0.033039 0.000000
# 6 0.000000 0.000000 0.000000 0.000000 0.000000 0.041162
#
#
# Mechanical properties :
#
#
# Convention : Reuss Voigt Hill
#
# Bulk Modulus (GPa) = 55.31001 61.08845 58.19923
# Shear Modulus (GPa) = 27.26638 28.88737 28.07687
#
# Velocity S-wave (km/s) = 3.87133 3.98474 3.92845
# Velocity P-wave (km/s) = 7.09821 7.39924 7.25028
#
# Compressibility (1/GPa) = 0.01807991
#
# Stress axis : x y z
#
# Youngs Moduli (GPa) = 101.25399 69.90484 58.72742
#
# Poissons Ratio (x) = 0.09228 0.36739
# Poissons Ratio (y) = 0.13366 0.23425
# Poissons Ratio (z) = 0.63342 0.27884
#
# Static dielectric constant tensor:
#      x y z
#    x 3.761380 0.000000 0.000000 
#    y 0.000000 3.159980 0.000000 
#    z 0.000000 0.000000 3.534180 
# 
# 
# High freq. dielectric constant tensor:
#      x y z
#    x 1.723500 0.000000 0.000000 
#    y 0.000000 1.688740 0.000000 
#    z 0.000000 0.000000 1.694410 
# 
# From -- ./inp_files/23995.got.cif
#   From: 2010.06.25/outbox.cif.g09.slc.cpg/sg71_12_cif.got.tgz:23995.got - 2010.06.28 04:59:45.
