data_PCOD8290549
_publ_section_title
;
Structure prediction by ZEFSAII (Michael W. Deem and Ramdas Pophale) SiO2 
 PCOD8290549
Probable space group: I M M M
;
_chemical_formula_sum "Si O2"
_cell_formula_units_Z 64
_cell_length_a 17.417244
_cell_length_b 19.260261
_cell_length_c 9.874299
_cell_angle_alpha 90.000000
_cell_angle_beta 90.000000
_cell_angle_gamma 90.000000
_cell_volume 3312.438912
_symmetry_space_group_name_H-M "I M M M"
_symmetry_group_IT_number 71
_symmetry_cell_setting 'orthorhombic'
loop_
_space_group_symop_operation_xyz
x,y,z
-x,-y,z
x,-y,-z
-x,y,-z
-x,-y,-z
x,y,-z
-x,y,z
x,-y,z
1/2+x,1/2+y,1/2+z
1/2-x,1/2-y,1/2+z
1/2+x,1/2-y,1/2-z
1/2-x,1/2+y,1/2-z
1/2-x,1/2-y,1/2-z
1/2+x,1/2+y,1/2-z
1/2-x,1/2+y,1/2+z
1/2+x,1/2-y,1/2+z
loop_
_atom_site_type_symbol
_atom_site_label
_atom_site_fract_x
_atom_site_fract_y
_atom_site_fract_z
Si Si1 0.709769 0.624055 0.654142
Si Si2 0.247116 0.000000 0.346355
Si Si3 0.913873 0.500000 0.755940
Si Si4 0.584555 0.733320 0.347632
Si Si5 0.882178 0.351054 0.352142
O O1 0.691378 0.597315 0.500000
O O2 0.712176 0.564217 0.765182
O O3 0.645562 0.677701 0.706718
O O4 0.791338 0.661724 0.654435
O O5 0.215941 0.000000 0.500000
O O6 0.340696 0.000000 0.357240
O O7 0.905375 0.568554 0.664876
O O8 0.000000 0.500000 0.824220
O O9 0.607110 0.755543 0.500000
O O10 0.500000 0.698863 0.343622
O O11 0.580150 0.803377 0.260978
O O12 0.912441 0.328307 0.500000
#
# Coordination Sequence:
#
# PCOD8290549 Si02
#       5
#    16   8   8  16  16
#     4   9  19  37  57  76 104 142 177 210 257 317
#     4  10  21  36  57  83 105 131 174 221 260 305
#     4  10  21  35  51  76 111 145 174 208 256 313
#     4  10  21  36  54  78 107 138 175 219 264 310
#     4  10  20  34  54  78 105 141 181 217 255 305
#
# _framework density 19.321110000000001
#
# number of rings (size 3 to 8) (size 9 to 14) (size 15 to 20)
#    0.000    2.250    0.000    2.250    0.000   10.750 
#    0.000    0.625    0.000    3.750    0.000    0.000 
#    0.000    0.000    0.000    0.000    0.000    0.000 
#
# Total GULP energy -396577.117380 kJ/mol
# GULP energy per Si atom -12393.034918 kJ/mol
# Density = 1.927713 g / cm^3
# Si number density = 19.321110 Si / 1000 Ang^3
#
#
#
# Elastic Constant Matrix: (Units=GPa)
#
#
# Indices 1 2 3 4 5 6 
#
# 1 108.2531 60.4257 26.5346 0.0000 0.0000 0.0000
# 2 60.4257 104.6526 61.6508 0.0000 0.0000 0.0000
# 3 26.5346 61.6508 120.2269 0.0000 0.0000 0.0000
# 4 0.0000 0.0000 0.0000 18.0496 0.0000 0.0000
# 5 0.0000 0.0000 0.0000 0.0000 15.2774 0.0000
# 6 0.0000 0.0000 0.0000 0.0000 0.0000 8.3739
#
#
#
# Elastic Compliance Matrix: (Units=1/GPa)
#
#
# Indices 1 2 3 4 5 6 
#
# 1 0.013815 -0.008856 0.001492 0.000000 0.000000 0.000000
# 2 -0.008856 0.019368 -0.007977 0.000000 0.000000 0.000000
# 3 0.001492 -0.007977 0.012079 0.000000 0.000000 0.000000
# 4 0.000000 0.000000 0.000000 0.055403 0.000000 0.000000
# 5 0.000000 0.000000 0.000000 0.000000 0.065456 0.000000
# 6 0.000000 0.000000 0.000000 0.000000 0.000000 0.119419
#
#
# Mechanical properties :
#
#
# Convention : Reuss Voigt Hill
#
# Bulk Modulus (GPa) = 68.58564 70.03941 69.31253
# Shear Modulus (GPa) = 15.57235 20.64160 18.10698
#
# Velocity S-wave (km/s) = 2.84205 3.27210 3.06463
# Velocity P-wave (km/s) = 6.80768 7.11368 6.96236
#
# Compressibility (1/GPa) = 0.01458031
#
# Stress axis : x y z
#
# Youngs Moduli (GPa) = 72.38489 51.63159 82.78902
#
# Poissons Ratio (x) = 0.45723 -0.12352
# Poissons Ratio (y) = 0.64102 0.66042
# Poissons Ratio (z) = -0.10800 0.41187
#
# Static dielectric constant tensor:
#      x y z
#    x 3.694810 0.000000 0.000000 
#    y 0.000000 3.272690 0.000000 
#    z 0.000000 0.000000 3.446830 
# 
# 
# High freq. dielectric constant tensor:
#      x y z
#    x 1.756760 0.000000 0.000000 
#    y 0.000000 1.733830 0.000000 
#    z 0.000000 0.000000 1.746380 
# 
# From -- ./inp_files/7503.got.cif
#   From: 2010.06.25/outbox.cif.g09.slc.cpg/sg71_4_cif.got.tgz:7503.got - 2010.06.28 04:59:45.
