data_PCOD8290737
_publ_section_title
;
Structure prediction by ZEFSAII (Michael W. Deem and Ramdas Pophale) SiO2 
 PCOD8290737
Probable space group: I M M M
;
_chemical_formula_sum "Si O2"
_cell_formula_units_Z 104
_cell_length_a 22.299734
_cell_length_b 33.144359
_cell_length_c 7.712195
_cell_angle_alpha 90.000000
_cell_angle_beta 90.000000
_cell_angle_gamma 90.000000
_cell_volume 5700.163449
_symmetry_space_group_name_H-M "I M M M"
_symmetry_group_IT_number 71
_symmetry_cell_setting 'orthorhombic'
loop_
_space_group_symop_operation_xyz
x,y,z
-x,-y,z
x,-y,-z
-x,y,-z
-x,-y,-z
x,y,-z
-x,y,z
x,-y,z
1/2+x,1/2+y,1/2+z
1/2-x,1/2-y,1/2+z
1/2+x,1/2-y,1/2-z
1/2-x,1/2+y,1/2-z
1/2-x,1/2-y,1/2-z
1/2+x,1/2+y,1/2-z
1/2-x,1/2+y,1/2+z
1/2+x,1/2-y,1/2+z
loop_
_atom_site_type_symbol
_atom_site_label
_atom_site_fract_x
_atom_site_fract_y
_atom_site_fract_z
Si Si1 0.157617 0.954548 0.307149
Si Si2 0.682879 0.878561 0.000000
Si Si3 0.633043 0.690240 0.202609
Si Si4 0.932636 0.889711 0.802145
Si Si5 0.268778 0.826063 0.698087
Si Si6 0.114944 0.721483 0.194820
Si Si7 0.566885 0.830444 0.000000
Si Si8 0.746358 0.546374 0.500000
O O1 0.185890 0.952106 0.500000
O O2 0.101908 0.924113 0.303322
O O3 0.134704 0.000000 0.267088
O O4 0.207943 0.942111 0.169346
O O5 0.714021 0.861873 0.826912
O O6 0.612330 0.868276 0.000000
O O7 0.693403 0.926692 0.000000
O O8 0.600135 0.653069 0.291353
O O9 0.703274 0.689698 0.247695
O O10 0.605193 0.731115 0.277955
O O11 0.621103 0.688156 0.000000
O O12 0.000000 0.885929 0.727118
O O13 0.934032 0.903717 0.000000
O O14 0.270563 0.842337 0.500000
O O15 0.315049 0.789198 0.725266
O O16 0.074813 0.696777 0.329372
O O17 0.094767 0.709786 0.000000
O O18 0.500000 0.848371 0.000000
O O19 0.766666 0.500000 0.500000
#
# Coordination Sequence:
#
# PCOD8290737 Si02
#       8
#    16   8  16  16  16  16   8   8
#     4  10  21  38  60  83 108 138 173 218 272 324
#     4  10  20  34  58  82 108 148 175 213 272 311
#     4  11  21  34  52  76 107 141 178 227 282 324
#     4  11  24  38  51  72 103 141 188 231 268 317
#     4   9  20  33  52  82 109 135 176 225 269 331
#     4  10  20  36  55  78 107 139 178 225 278 320
#     4  10  22  40  56  77 107 143 191 226 254 310
#     4  10  20  36  59  89 118 138 166 209 266 333
#
# _framework density 18.245090000000001
#
# number of rings (size 3 to 8) (size 9 to 14) (size 15 to 20)
#    0.000    1.846    1.538    2.308    2.154    4.308 
#    0.000    1.538    0.000    0.231    0.000    0.000 
#    0.000    0.000    0.000   11.538    0.000    0.000 
#
# Total GULP energy -644859.883574 kJ/mol
# GULP energy per Si atom -12401.151607 kJ/mol
# Density = 1.820356 g / cm^3
# Si number density = 18.245090 Si / 1000 Ang^3
#
#
#
# Elastic Constant Matrix: (Units=GPa)
#
#
# Indices 1 2 3 4 5 6 
#
# 1 92.7260 49.0390 36.9695 0.0000 0.0000 0.0000
# 2 49.0390 112.8034 28.3881 0.0000 0.0000 0.0000
# 3 36.9695 28.3881 100.4591 0.0000 0.0000 0.0000
# 4 0.0000 0.0000 0.0000 18.0202 0.0000 0.0000
# 5 0.0000 0.0000 0.0000 0.0000 2.1487 0.0000
# 6 0.0000 0.0000 0.0000 0.0000 0.0000 9.1139
#
#
#
# Elastic Compliance Matrix: (Units=1/GPa)
#
#
# Indices 1 2 3 4 5 6 
#
# 1 0.015407 -0.005674 -0.004066 0.000000 0.000000 0.000000
# 2 -0.005674 0.011634 -0.001199 0.000000 0.000000 0.000000
# 3 -0.004066 -0.001199 0.011790 0.000000 0.000000 0.000000
# 4 0.000000 0.000000 0.000000 0.055493 0.000000 0.000000
# 5 0.000000 0.000000 0.000000 0.000000 0.465407 0.000000
# 6 0.000000 0.000000 0.000000 0.000000 0.000000 0.109723
#
#
# Mechanical properties :
#
#
# Convention : Reuss Voigt Hill
#
# Bulk Modulus (GPa) = 58.99693 59.42020 59.20857
# Shear Modulus (GPa) = 7.17378 18.62934 12.90156
#
# Velocity S-wave (km/s) = 1.98505 3.19887 2.66207
# Velocity P-wave (km/s) = 6.13677 6.80310 6.47851
#
# Compressibility (1/GPa) = 0.01695003
#
# Stress axis : x y z
#
# Youngs Moduli (GPa) = 64.90721 85.95779 84.82062
#
# Poissons Ratio (x) = 0.48776 0.34490
# Poissons Ratio (y) = 0.36831 0.10172
# Poissons Ratio (z) = 0.26393 0.10309
#
# Static dielectric constant tensor:
#      x y z
#    x 3.205820 0.000000 0.000000 
#    y 0.000000 3.234270 0.000000 
#    z 0.000000 0.000000 3.594670 
# 
# 
# High freq. dielectric constant tensor:
#      x y z
#    x 1.680880 0.000000 0.000000 
#    y 0.000000 1.693980 0.000000 
#    z 0.000000 0.000000 1.729220 
# 
# From -- ./inp_files/11565.got.cif
#   From: 2010.06.25/outbox.cif.g09.slc.cpg/sg71_6_cif.got.tgz:11565.got - 2010.06.28 04:59:45.
