data_PCOD8290824
_publ_section_title
;
Structure prediction by ZEFSAII (Michael W. Deem and Ramdas Pophale) SiO2 
 PCOD8290824
Probable space group: I M M M
;
_chemical_formula_sum "Si O2"
_cell_formula_units_Z 64
_cell_length_a 8.662645
_cell_length_b 27.955862
_cell_length_c 14.156805
_cell_angle_alpha 90.000000
_cell_angle_beta 90.000000
_cell_angle_gamma 90.000000
_cell_volume 3428.377649
_symmetry_space_group_name_H-M "I M M M"
_symmetry_group_IT_number 71
_symmetry_cell_setting 'orthorhombic'
loop_
_space_group_symop_operation_xyz
x,y,z
-x,-y,z
x,-y,-z
-x,y,-z
-x,-y,-z
x,y,-z
-x,y,z
x,-y,z
1/2+x,1/2+y,1/2+z
1/2-x,1/2-y,1/2+z
1/2+x,1/2-y,1/2-z
1/2-x,1/2+y,1/2-z
1/2-x,1/2-y,1/2-z
1/2+x,1/2+y,1/2-z
1/2-x,1/2+y,1/2+z
1/2+x,1/2-y,1/2+z
loop_
_atom_site_type_symbol
_atom_site_label
_atom_site_fract_x
_atom_site_fract_y
_atom_site_fract_z
Si Si1 0.321171 0.245852 0.391640
Si Si2 0.821938 0.826432 0.255640
Si Si3 0.182683 0.000000 0.107835
Si Si4 0.682624 0.500000 0.108034
Si Si5 0.680923 0.071493 0.750116
O O1 0.274314 0.253722 0.500000
O O2 0.500000 0.231803 0.380249
O O3 0.219325 0.202979 0.349840
O O4 0.285264 0.294855 0.336680
O O5 0.715792 0.872654 0.249422
O O6 0.000000 0.841851 0.260079
O O7 0.247447 0.952367 0.156669
O O8 0.000000 0.000000 0.117310
O O9 0.237560 0.000000 0.000000
O O10 0.500000 0.500000 0.118389
O O11 0.748139 0.452356 0.156587
O O12 0.736457 0.500000 0.000000
O O13 0.500000 0.062494 0.750158
#
# Coordination Sequence:
#
# PCOD8290824 Si02
#       5
#    16  16   8   8  16
#     4   9  19  36  56  78 105 138 177 221 268 316
#     4  10  20  35  55  79 108 141 178 219 265 317
#     4  10  21  38  59  81 108 142 179 221 268 317
#     4  10  21  38  59  81 106 138 179 225 270 319
#     4  11  22  36  56  81 111 144 178 220 267 317
#
# _framework density 18.667722999999999
#
# number of rings (size 3 to 8) (size 9 to 14) (size 15 to 20)
#    0.000    2.000    0.000    5.250    0.000    5.500 
#    0.000    2.500    0.000    0.000    0.000    0.000 
#    0.000    0.000    0.000    0.000    0.000    0.000 
#
# Total GULP energy -396946.914757 kJ/mol
# GULP energy per Si atom -12404.591086 kJ/mol
# Density = 1.862523 g / cm^3
# Si number density = 18.667723 Si / 1000 Ang^3
#
#
#
# Elastic Constant Matrix: (Units=GPa)
#
#
# Indices 1 2 3 4 5 6 
#
# 1 86.3471 35.5063 50.5547 0.0000 0.0000 -0.0001
# 2 35.5063 115.0891 59.7493 0.0001 -0.0001 -0.0001
# 3 50.5547 59.7493 172.0897 0.0006 -0.0005 -0.0009
# 4 0.0000 0.0001 0.0006 12.7304 -0.0002 -0.0003
# 5 0.0000 -0.0001 -0.0005 -0.0002 6.3345 0.0004
# 6 -0.0001 -0.0001 -0.0009 -0.0003 0.0004 57.6047
#
#
#
# Elastic Compliance Matrix: (Units=1/GPa)
#
#
# Indices 1 2 3 4 5 6 
#
# 1 0.014689 -0.002795 -0.003345 0.000000 0.000000 0.000000
# 2 -0.002795 0.011131 -0.003044 0.000000 0.000000 0.000000
# 3 -0.003345 -0.003044 0.007850 0.000000 0.000001 0.000000
# 4 0.000000 0.000000 0.000000 0.078552 0.000002 0.000000
# 5 0.000000 0.000000 0.000001 0.000002 0.157865 -0.000001
# 6 0.000000 0.000000 0.000000 0.000000 -0.000001 0.017360
#
#
# Mechanical properties :
#
#
# Convention : Reuss Voigt Hill
#
# Bulk Modulus (GPa) = 65.34508 73.90517 69.62513
# Shear Modulus (GPa) = 16.08153 30.51497 23.29825
#
# Velocity S-wave (km/s) = 2.93825 4.04745 3.53661
# Velocity P-wave (km/s) = 6.82579 7.84336 7.35220
#
# Compressibility (1/GPa) = 0.01530337
#
# Stress axis : x y z
#
# Youngs Moduli (GPa) = 68.07903 89.83577 127.38504
#
# Poissons Ratio (x) = 0.25112 0.42605
# Poissons Ratio (y) = 0.19030 0.38771
# Poissons Ratio (z) = 0.22770 0.27343
#
# Static dielectric constant tensor:
#      x y z
#    x 3.488960 0.000000 0.000000 
#    y 0.000000 3.337490 0.000000 
#    z 0.000000 0.000000 3.557390 
# 
# 
# High freq. dielectric constant tensor:
#      x y z
#    x 1.736300 0.000000 0.000000 
#    y 0.000000 1.725010 0.000000 
#    z 0.000000 0.000000 1.727240 
# 
# From -- ./inp_files/31357.got.cif
#   From: 2010.06.25/outbox.cif.g09.slc.cpg/sg71_16_cif.got.tgz:31357.got - 2010.06.28 04:59:45.
