data_PCOD8290604
_publ_section_title
;
Structure prediction by ZEFSAII (Michael W. Deem and Ramdas Pophale) SiO2 
 PCOD8290604
Probable space group: I M M M
;
_chemical_formula_sum "Si O2"
_cell_formula_units_Z 104
_cell_length_a 8.730781
_cell_length_b 20.532076
_cell_length_c 28.919262
_cell_angle_alpha 90.000000
_cell_angle_beta 90.000000
_cell_angle_gamma 90.000000
_cell_volume 5184.097533
_symmetry_space_group_name_H-M "I M M M"
_symmetry_group_IT_number 71
_symmetry_cell_setting 'orthorhombic'
loop_
_space_group_symop_operation_xyz
x,y,z
-x,-y,z
x,-y,-z
-x,y,-z
-x,-y,-z
x,y,-z
-x,y,z
x,-y,z
1/2+x,1/2+y,1/2+z
1/2-x,1/2-y,1/2+z
1/2+x,1/2-y,1/2-z
1/2-x,1/2+y,1/2-z
1/2-x,1/2-y,1/2-z
1/2+x,1/2+y,1/2-z
1/2-x,1/2+y,1/2+z
1/2+x,1/2-y,1/2+z
loop_
_atom_site_type_symbol
_atom_site_label
_atom_site_fract_x
_atom_site_fract_y
_atom_site_fract_z
Si Si1 0.177643 0.676263 0.792419
Si Si2 0.678743 0.676480 0.695733
Si Si3 0.681278 0.500000 0.446825
Si Si4 0.173639 0.134865 0.449031
Si Si5 0.172861 0.231016 0.946621
Si Si6 0.175621 0.926890 0.355829
Si Si7 0.178068 0.620176 0.607581
O O1 0.274557 0.656818 0.747459
O O2 0.223797 0.747531 0.812015
O O3 0.212042 0.623228 0.831192
O O4 0.000000 0.675578 0.778889
O O5 0.500000 0.664722 0.688803
O O6 0.765707 0.628917 0.660269
O O7 0.500000 0.500000 0.447908
O O8 0.743930 0.500000 0.500000
O O9 0.735428 0.563197 0.419228
O O10 0.208018 0.105460 0.500000
O O11 0.287077 0.194085 0.438411
O O12 0.199774 0.079084 0.411063
O O13 0.000000 0.161715 0.446842
O O14 0.290830 0.187590 0.918349
O O15 0.000000 0.219069 0.928433
O O16 0.186631 0.211548 0.000000
O O17 0.000000 0.911311 0.342433
O O18 0.219811 0.000000 0.341226
O O19 0.000000 0.603443 0.607800
#
# Coordination Sequence:
#
# PCOD8290604 Si02
#       7
#    16  16   8  16  16  16  16
#     4  10  21  38  61  89 117 148 190 241 293 347
#     4  10  21  39  64  90 117 148 186 236 295 353
#     4  11  25  45  65  85 117 161 205 247 296 357
#     4   9  18  33  54  81 112 147 191 243 290 334
#     4  10  20  34  54  81 113 149 190 236 287 342
#     4  10  21  36  54  79 113 154 195 232 281 343
#     4  12  24  38  59  88 119 152 193 241 291 348
#
# _framework density 20.061351999999999
#
# number of rings (size 3 to 8) (size 9 to 14) (size 15 to 20)
#    0.000    1.769    0.000    4.385    0.000    8.923 
#    1.385    1.538    0.000    0.000    0.000    3.231 
#    0.000    0.000    0.000    0.000    0.000    0.000 
#
# Total GULP energy -644915.073004 kJ/mol
# GULP energy per Si atom -12402.212942 kJ/mol
# Density = 2.001569 g / cm^3
# Si number density = 20.061352 Si / 1000 Ang^3
#
#
#
# Elastic Constant Matrix: (Units=GPa)
#
#
# Indices 1 2 3 4 5 6 
#
# 1 73.9874 22.1988 33.7814 0.0000 0.0000 0.0000
# 2 22.1988 69.4267 49.1643 0.0000 0.0000 0.0000
# 3 33.7814 49.1643 104.7793 0.0000 0.0000 0.0000
# 4 0.0000 0.0000 0.0000 27.2829 0.0000 0.0000
# 5 0.0000 0.0000 0.0000 0.0000 32.0181 0.0000
# 6 0.0000 0.0000 0.0000 0.0000 0.0000 27.8946
#
#
#
# Elastic Compliance Matrix: (Units=1/GPa)
#
#
# Indices 1 2 3 4 5 6 
#
# 1 0.016070 -0.002201 -0.004149 0.000000 0.000000 0.000000
# 2 -0.002201 0.021873 -0.009554 0.000000 0.000000 0.000000
# 3 -0.004149 -0.009554 0.015364 0.000000 0.000000 0.000000
# 4 0.000000 0.000000 0.000000 0.036653 0.000000 0.000000
# 5 0.000000 0.000000 0.000000 0.000000 0.031232 0.000000
# 6 0.000000 0.000000 0.000000 0.000000 0.000000 0.035849
#
#
# Mechanical properties :
#
#
# Convention : Reuss Voigt Hill
#
# Bulk Modulus (GPa) = 46.50826 50.94249 48.72538
# Shear Modulus (GPa) = 25.50838 26.97572 26.24205
#
# Velocity S-wave (km/s) = 3.56970 3.67094 3.62068
# Velocity P-wave (km/s) = 6.34222 6.58910 6.46684
#
# Compressibility (1/GPa) = 0.02150156
#
# Stress axis : x y z
#
# Youngs Moduli (GPa) = 62.22680 45.71924 65.08686
#
# Poissons Ratio (x) = 0.10061 0.27002
# Poissons Ratio (y) = 0.13693 0.62181
# Poissons Ratio (z) = 0.25815 0.43678
#
# Static dielectric constant tensor:
#      x y z
#    x 3.652520 0.000000 0.000000 
#    y 0.000000 3.488310 0.000000 
#    z 0.000000 0.000000 3.763590 
# 
# 
# High freq. dielectric constant tensor:
#      x y z
#    x 1.784810 0.000000 0.000000 
#    y 0.000000 1.766200 0.000000 
#    z 0.000000 0.000000 1.793650 
# 
# From -- ./inp_files/63303.got.cif
#   From: 2010.06.25/outbox.cif.g09.slc.cpg/sg71_32_cif.got.tgz:63303.got - 2010.06.28 04:59:45.
