data_PCOD8290474
_publ_section_title
;
Structure prediction by ZEFSAII (Michael W. Deem and Ramdas Pophale) SiO2 
 PCOD8290474
Probable space group: I M M M
;
_chemical_formula_sum "Si O2"
_cell_formula_units_Z 88
_cell_length_a 9.094474
_cell_length_b 28.530637
_cell_length_c 17.154621
_cell_angle_alpha 90.000000
_cell_angle_beta 90.000000
_cell_angle_gamma 90.000000
_cell_volume 4451.129005
_symmetry_space_group_name_H-M "I M M M"
_symmetry_group_IT_number 71
_symmetry_cell_setting 'orthorhombic'
loop_
_space_group_symop_operation_xyz
x,y,z
-x,-y,z
x,-y,-z
-x,y,-z
-x,-y,-z
x,y,-z
-x,y,z
x,-y,z
1/2+x,1/2+y,1/2+z
1/2-x,1/2-y,1/2+z
1/2+x,1/2-y,1/2-z
1/2-x,1/2+y,1/2-z
1/2-x,1/2-y,1/2-z
1/2+x,1/2+y,1/2-z
1/2-x,1/2+y,1/2+z
1/2+x,1/2-y,1/2+z
loop_
_atom_site_type_symbol
_atom_site_label
_atom_site_fract_x
_atom_site_fract_y
_atom_site_fract_z
Si Si1 0.674535 0.262146 0.169074
Si Si2 0.333814 0.500000 0.407088
Si Si3 0.663801 0.318799 0.408931
Si Si4 0.333808 0.091399 0.093098
Si Si5 0.172538 0.857826 0.411398
Si Si6 0.833539 0.551204 0.092595
O O1 0.500000 0.256154 0.174562
O O2 0.750000 0.250000 0.250000
O O3 0.738399 0.226886 0.105092
O O4 0.719615 0.314321 0.142629
O O5 0.500000 0.500000 0.374688
O O6 0.335336 0.500000 0.500000
O O7 0.248667 0.545417 0.375251
O O8 0.646625 0.326180 0.500000
O O9 0.500000 0.314386 0.371217
O O10 0.746657 0.363826 0.372920
O O11 0.500000 0.091909 0.125579
O O12 0.335758 0.092050 0.000000
O O13 0.229279 0.849056 0.500000
O O14 0.239478 0.905375 0.374245
O O15 0.000000 0.864228 0.411783
O O16 0.775448 0.500000 0.122148
O O17 0.000000 0.558232 0.120933
O O18 0.824026 0.551848 0.000000
#
# Coordination Sequence:
#
# PCOD8290474 Si02
#       6
#    16   8  16  16  16  16
#     4  11  23  38  54  74 102 137 177 219 265 314
#     4   9  15  23  37  61  95 129 161 201 248 297
#     4  10  20  34  53  77 103 132 169 212 259 312
#     4   9  16  26  42  66  96 129 163 201 248 299
#     4   9  18  32  51  76 105 137 173 214 259 308
#     4   8  14  25  43  71 106 138 167 203 248 299
#
# _framework density 19.770265999999999
#
# number of rings (size 3 to 8) (size 9 to 14) (size 15 to 20)
#    0.000    2.636    0.000    3.000    0.000    6.909 
#    0.000    3.636    0.000    0.000    2.364    0.000 
#    0.000    0.000    0.000    0.000    0.000    0.000 
#
# Total GULP energy -545447.173358 kJ/mol
# GULP energy per Si atom -12396.526667 kJ/mol
# Density = 1.972527 g / cm^3
# Si number density = 19.770266 Si / 1000 Ang^3
#
#
#
# Elastic Constant Matrix: (Units=GPa)
#
#
# Indices 1 2 3 4 5 6 
#
# 1 126.2448 91.3736 21.9482 0.0000 0.0000 0.0000
# 2 91.3736 211.9679 30.4010 0.0000 0.0000 0.0000
# 3 21.9482 30.4010 28.0813 -0.0002 0.0000 0.0000
# 4 0.0000 0.0000 -0.0002 8.5597 0.0000 0.0000
# 5 0.0000 0.0000 0.0000 0.0000 18.5676 0.0000
# 6 0.0000 0.0000 0.0000 0.0000 0.0000 44.1686
#
#
#
# Elastic Compliance Matrix: (Units=1/GPa)
#
#
# Indices 1 2 3 4 5 6 
#
# 1 0.011968 -0.004519 -0.004461 0.000000 0.000000 0.000000
# 2 -0.004519 0.007291 -0.004362 0.000000 0.000000 0.000000
# 3 -0.004461 -0.004362 0.043820 0.000001 0.000000 0.000000
# 4 0.000000 0.000000 0.000001 0.116826 0.000000 0.000000
# 5 0.000000 0.000000 0.000000 0.000000 0.053857 0.000000
# 6 0.000000 0.000000 0.000000 0.000000 0.000000 0.022641
#
#
# Mechanical properties :
#
#
# Convention : Reuss Voigt Hill
#
# Bulk Modulus (GPa) = 27.47663 72.63773 50.05718
# Shear Modulus (GPa) = 16.93663 29.09726 23.01694
#
# Velocity S-wave (km/s) = 2.93007 3.84053 3.41577
# Velocity P-wave (km/s) = 5.03738 7.51577 6.39774
#
# Compressibility (1/GPa) = 0.03639457
#
# Stress axis : x y z
#
# Youngs Moduli (GPa) = 83.55945 137.15051 22.82075
#
# Poissons Ratio (x) = 0.61978 0.10181
# Poissons Ratio (y) = 0.37761 0.09953
# Poissons Ratio (z) = 0.37280 0.59819
#
# Static dielectric constant tensor:
#      x y z
#    x 3.812910 0.000000 0.000000 
#    y 0.000000 4.104410 -0.000010 
#    z 0.000000 -0.000010 2.656560 
# 
# 
# High freq. dielectric constant tensor:
#      x y z
#    x 1.778140 0.000000 0.000000 
#    y 0.000000 1.790350 0.000000 
#    z 0.000000 0.000000 1.708140 
# 
# From -- ./inp_files/42468.got.cif
#   From: 2010.06.25/outbox.cif.g09.slc.cpg/sg71_22_cif.got.tgz:42468.got - 2010.06.28 04:59:45.
