data_PCOD8290504
_publ_section_title
;
Structure prediction by ZEFSAII (Michael W. Deem and Ramdas Pophale) SiO2 
 PCOD8290504
Probable space group: I M M M
;
_chemical_formula_sum "Si O2"
_cell_formula_units_Z 72
_cell_length_a 22.648960
_cell_length_b 9.141891
_cell_length_c 17.001073
_cell_angle_alpha 90.000000
_cell_angle_beta 90.000000
_cell_angle_gamma 90.000000
_cell_volume 3520.145670
_symmetry_space_group_name_H-M "I M M M"
_symmetry_group_IT_number 71
_symmetry_cell_setting 'orthorhombic'
loop_
_space_group_symop_operation_xyz
x,y,z
-x,-y,z
x,-y,-z
-x,y,-z
-x,-y,-z
x,y,-z
-x,y,z
x,-y,z
1/2+x,1/2+y,1/2+z
1/2-x,1/2-y,1/2+z
1/2+x,1/2-y,1/2-z
1/2-x,1/2+y,1/2-z
1/2-x,1/2-y,1/2-z
1/2+x,1/2+y,1/2-z
1/2-x,1/2+y,1/2+z
1/2+x,1/2-y,1/2+z
loop_
_atom_site_type_symbol
_atom_site_label
_atom_site_fract_x
_atom_site_fract_y
_atom_site_fract_z
Si Si1 0.327928 0.169731 0.324132
Si Si2 0.068115 0.170387 0.090939
Si Si3 0.288403 0.831257 0.853166
Si Si4 0.000000 0.662958 0.594308
Si Si5 0.391607 0.659575 0.088910
O O1 0.390454 0.234084 0.352072
O O2 0.318886 0.191023 0.231382
O O3 0.275427 0.259428 0.364863
O O4 0.323902 0.000000 0.348068
O O5 0.000000 0.209608 0.109563
O O6 0.079906 0.000000 0.107433
O O7 0.082317 0.207425 0.000000
O O8 0.330764 0.747816 0.912894
O O9 0.282820 0.000000 0.876293
O O10 0.056957 0.745763 0.629776
O O11 0.000000 0.500000 0.629541
O O12 0.000000 0.655377 0.500000
O O13 0.385059 0.500000 0.130634
O O14 0.411337 0.633404 0.000000
#
# Coordination Sequence:
#
# PCOD8290504 Si02
#       5
#    16  16  16   8  16
#     4  10  21  37  57  81 109 142 180 226 276 326
#     4   9  19  37  60  85 113 146 184 225 272 332
#     4  10  21  37  56  78 107 146 185 225 273 328
#     4   9  17  31  51  73 101 137 172 211 262 313
#     4  10  20  34  53  78 107 139 180 227 270 316
#
# _framework density 20.453697999999999
#
# number of rings (size 3 to 8) (size 9 to 14) (size 15 to 20)
#    0.000    2.333    0.000    3.000    0.000    7.111 
#    2.000    1.111    0.000    0.000    0.000    0.000 
#    0.000    0.000    0.000    0.000    0.000    0.000 
#
# Total GULP energy -446323.476994 kJ/mol
# GULP energy per Si atom -12397.874361 kJ/mol
# Density = 2.040714 g / cm^3
# Si number density = 20.453698 Si / 1000 Ang^3
#
#
#
# Elastic Constant Matrix: (Units=GPa)
#
#
# Indices 1 2 3 4 5 6 
#
# 1 142.9277 85.3196 22.3782 0.0000 0.0000 0.0000
# 2 85.3196 179.3738 24.9237 0.0000 0.0000 0.0000
# 3 22.3782 24.9237 23.4830 0.0000 0.0000 0.0000
# 4 0.0000 0.0000 0.0000 24.5510 0.0000 0.0000
# 5 0.0000 0.0000 0.0000 0.0000 30.9573 0.0000
# 6 0.0000 0.0000 0.0000 0.0000 0.0000 46.8395
#
#
#
# Elastic Compliance Matrix: (Units=1/GPa)
#
#
# Indices 1 2 3 4 5 6 
#
# 1 0.010329 -0.004159 -0.005429 0.000000 0.000000 0.000000
# 2 -0.004159 0.008214 -0.004755 0.000000 0.000000 0.000000
# 3 -0.005429 -0.004755 0.052804 0.000000 0.000000 0.000000
# 4 0.000000 0.000000 0.000000 0.040731 0.000000 0.000000
# 5 0.000000 0.000000 0.000000 0.000000 0.032303 0.000000
# 6 0.000000 0.000000 0.000000 0.000000 0.000000 0.021350
#
#
# Mechanical properties :
#
#
# Convention : Reuss Voigt Hill
#
# Bulk Modulus (GPa) = 23.44018 67.89197 45.66608
# Shear Modulus (GPa) = 23.96515 34.68043 29.32279
#
# Velocity S-wave (km/s) = 3.42669 4.12218 3.79042
# Velocity P-wave (km/s) = 5.20973 7.47807 6.44449
#
# Compressibility (1/GPa) = 0.04266178
#
# Stress axis : x y z
#
# Youngs Moduli (GPa) = 96.81388 121.74823 18.93789
#
# Poissons Ratio (x) = 0.50631 0.10282
# Poissons Ratio (y) = 0.40262 0.09004
# Poissons Ratio (z) = 0.52564 0.57886
#
# Static dielectric constant tensor:
#      x y z
#    x 3.690320 0.000000 0.000000 
#    y 0.000000 3.920550 0.000000 
#    z 0.000000 0.000000 3.286090 
# 
# 
# High freq. dielectric constant tensor:
#      x y z
#    x 1.809490 0.000000 0.000000 
#    y 0.000000 1.814680 0.000000 
#    z 0.000000 0.000000 1.760110 
# 
# From -- ./inp_files/9913.got.cif
#   From: 2010.06.25/outbox.cif.g09.slc.cpg/sg71_5_cif.got.tgz:9913.got - 2010.06.28 04:59:45.
