data_PCOD8290769
_publ_section_title
;
Structure prediction by ZEFSAII (Michael W. Deem and Ramdas Pophale) SiO2 
 PCOD8290769
Probable space group: I M M M
;
_chemical_formula_sum "Si O2"
_cell_formula_units_Z 112
_cell_length_a 24.284709
_cell_length_b 13.630604
_cell_length_c 18.078427
_cell_angle_alpha 90.000000
_cell_angle_beta 90.000000
_cell_angle_gamma 90.000000
_cell_volume 5984.235063
_symmetry_space_group_name_H-M "I M M M"
_symmetry_group_IT_number 71
_symmetry_cell_setting 'orthorhombic'
loop_
_space_group_symop_operation_xyz
x,y,z
-x,-y,z
x,-y,-z
-x,y,-z
-x,-y,-z
x,y,-z
-x,y,z
x,-y,z
1/2+x,1/2+y,1/2+z
1/2-x,1/2-y,1/2+z
1/2+x,1/2-y,1/2-z
1/2-x,1/2+y,1/2-z
1/2-x,1/2-y,1/2-z
1/2+x,1/2+y,1/2-z
1/2-x,1/2+y,1/2+z
1/2+x,1/2-y,1/2+z
loop_
_atom_site_type_symbol
_atom_site_label
_atom_site_fract_x
_atom_site_fract_y
_atom_site_fract_z
Si Si1 0.875035 0.114549 0.581397
Si Si2 0.652868 0.112545 0.411951
Si Si3 0.562892 0.792019 0.316036
Si Si4 0.329151 0.890336 0.087642
Si Si5 0.935398 0.890266 0.275195
Si Si6 0.060418 0.615112 0.660797
Si Si7 0.762450 0.210352 0.585683
O O1 0.889875 0.160535 0.500000
O O2 0.911634 0.156872 0.648705
O O3 0.811057 0.132701 0.599134
O O4 0.886247 0.000000 0.577916
O O5 0.651924 0.116072 0.500000
O O6 0.599824 0.170422 0.383092
O O7 0.706815 0.167377 0.377929
O O8 0.652744 0.000000 0.384401
O O9 0.500000 0.794561 0.343840
O O10 0.580124 0.680908 0.292864
O O11 0.571774 0.862700 0.246355
O O12 0.388515 0.845466 0.111766
O O13 0.281472 0.816942 0.117825
O O14 0.318823 0.000000 0.119763
O O15 0.328775 0.892101 0.000000
O O16 0.000000 0.892796 0.286477
O O17 0.912270 0.000000 0.258982
O O18 0.058117 0.500000 0.648955
O O19 0.000000 0.659724 0.637895
O O20 0.749812 0.223827 0.500000
#
# Coordination Sequence:
#
# PCOD8290769 Si02
#       7
#    16  16  16  16  16  16  16
#     4   9  16  27  47  74 102 135 176 216 247 276
#     4  10  21  37  58  81  99 117 149 198 258 321
#     4  10  20  35  54  74  99 129 158 195 251 312
#     4   9  17  29  46  69 100 140 181 213 237 270
#     4   9  18  32  49  71 103 142 177 206 239 281
#     4   9  17  29  46  70 101 136 172 209 251 295
#     4   9  17  31  49  69  97 130 162 201 252 302
#
# _framework density 18.715843
#
# number of rings (size 3 to 8) (size 9 to 14) (size 15 to 20)
#    0.000    2.714    0.000    1.714    0.000    3.429 
#    0.000    7.143    0.000    9.857    0.000    2.000 
#    0.000    0.000    0.000    0.000    0.000    0.000 
#
# Total GULP energy -693911.420156 kJ/mol
# GULP energy per Si atom -12391.275360 kJ/mol
# Density = 1.867324 g / cm^3
# Si number density = 18.715843 Si / 1000 Ang^3
#
#
#
# Elastic Constant Matrix: (Units=GPa)
#
#
# Indices 1 2 3 4 5 6 
#
# 1 101.2147 53.0196 35.8043 0.0000 0.0000 0.0000
# 2 53.0196 92.7465 27.5683 0.0000 0.0000 0.0000
# 3 35.8043 27.5683 32.5779 0.0000 0.0000 0.0000
# 4 0.0000 0.0000 0.0000 23.0876 0.0000 0.0000
# 5 0.0000 0.0000 0.0000 0.0000 20.2946 0.0000
# 6 0.0000 0.0000 0.0000 0.0000 0.0000 30.1334
#
#
#
# Elastic Compliance Matrix: (Units=1/GPa)
#
#
# Indices 1 2 3 4 5 6 
#
# 1 0.018373 -0.006014 -0.015104 0.000000 0.000000 0.000000
# 2 -0.006014 0.016374 -0.007247 0.000000 0.000000 0.000000
# 3 -0.015104 -0.007247 0.053428 0.000000 0.000000 0.000000
# 4 0.000000 0.000000 0.000000 0.043313 0.000000 0.000000
# 5 0.000000 0.000000 0.000000 0.000000 0.049274 0.000000
# 6 0.000000 0.000000 0.000000 0.000000 0.000000 0.033186
#
#
# Mechanical properties :
#
#
# Convention : Reuss Voigt Hill
#
# Bulk Modulus (GPa) = 31.80037 51.03595 41.41816
# Shear Modulus (GPa) = 17.78359 22.04624 19.91491
#
# Velocity S-wave (km/s) = 3.08586 3.43584 3.26554
# Velocity P-wave (km/s) = 5.45204 6.56263 6.03294
#
# Compressibility (1/GPa) = 0.03144617
#
# Stress axis : x y z
#
# Youngs Moduli (GPa) = 54.42769 61.07268 18.71694
#
# Poissons Ratio (x) = 0.36727 0.28269
# Poissons Ratio (y) = 0.32731 0.13564
# Poissons Ratio (z) = 0.82206 0.44258
#
# Static dielectric constant tensor:
#      x y z
#    x 3.561110 0.000000 0.000000 
#    y 0.000000 3.970360 0.000000 
#    z 0.000000 0.000000 3.083340 
# 
# 
# High freq. dielectric constant tensor:
#      x y z
#    x 1.719220 0.000000 0.000000 
#    y 0.000000 1.743150 0.000000 
#    z 0.000000 0.000000 1.685750 
# 
# From -- ./inp_files/34883.got.cif
#   From: 2010.06.25/outbox.cif.g09.slc.cpg/sg71_18_cif.got.tgz:34883.got - 2010.06.28 04:59:45.
