data_PCOD8290888
_publ_section_title
;
Structure prediction by ZEFSAII (Michael W. Deem and Ramdas Pophale) SiO2 
 PCOD8290888
Probable space group: I M M M
;
_chemical_formula_sum "Si O2"
_cell_formula_units_Z 104
_cell_length_a 8.801699
_cell_length_b 27.360956
_cell_length_c 22.599950
_cell_angle_alpha 90.000000
_cell_angle_beta 90.000000
_cell_angle_gamma 90.000000
_cell_volume 5442.585478
_symmetry_space_group_name_H-M "I M M M"
_symmetry_group_IT_number 71
_symmetry_cell_setting 'orthorhombic'
loop_
_space_group_symop_operation_xyz
x,y,z
-x,-y,z
x,-y,-z
-x,y,-z
-x,-y,-z
x,y,-z
-x,y,z
x,-y,z
1/2+x,1/2+y,1/2+z
1/2-x,1/2-y,1/2+z
1/2+x,1/2-y,1/2-z
1/2-x,1/2+y,1/2-z
1/2-x,1/2-y,1/2-z
1/2+x,1/2+y,1/2-z
1/2-x,1/2+y,1/2+z
1/2+x,1/2-y,1/2+z
loop_
_atom_site_type_symbol
_atom_site_label
_atom_site_fract_x
_atom_site_fract_y
_atom_site_fract_z
Si Si1 0.326508 0.857991 0.363563
Si Si2 0.830293 0.096593 0.069925
Si Si3 0.673418 0.763477 0.433026
Si Si4 0.321968 0.556116 0.067339
Si Si5 0.329031 0.000000 0.929372
Si Si6 0.322721 0.180525 0.864312
Si Si7 0.320719 0.303841 0.245933
O O1 0.500000 0.864954 0.343304
O O2 0.313890 0.820574 0.418248
O O3 0.263037 0.909770 0.385546
O O4 0.233731 0.836221 0.308827
O O5 0.722981 0.141435 0.086494
O O6 0.000000 0.103227 0.095756
O O7 0.758148 0.047111 0.095902
O O8 0.836448 0.093644 0.000000
O O9 0.728867 0.755422 0.500000
O O10 0.500000 0.744937 0.425134
O O11 0.781136 0.734143 0.388504
O O12 0.500000 0.566101 0.072897
O O13 0.283890 0.500000 0.083427
O O14 0.268481 0.567095 0.000000
O O15 0.500000 0.000000 0.904474
O O16 0.330226 0.000000 0.000000
O O17 0.500000 0.178650 0.850652
O O18 0.230327 0.167861 0.804997
O O19 0.500000 0.298006 0.242811
O O20 0.250000 0.250000 0.250000
#
# Coordination Sequence:
#
# PCOD8290888 Si02
#       7
#    16  16  16  16   8  16  16
#     4  11  22  37  60  88 118 155 197 243 293 348
#     4  10  20  35  56  82 114 151 188 230 284 342
#     4  10  21  36  54  80 117 155 188 230 285 343
#     4   9  19  37  61  90 125 163 202 246 298 356
#     4   9  17  31  53  81 111 143 183 229 274 329
#     4  12  24  37  56  82 112 150 192 237 286 339
#     4  12  24  41  62  84 111 150 195 238 284 340
#
# _framework density 19.108564999999999
#
# number of rings (size 3 to 8) (size 9 to 14) (size 15 to 20)
#    0.000    1.462    1.538    5.308    0.000    5.846 
#    0.000    0.769    1.692    0.000    0.000    0.000 
#    0.000    0.000    0.000    0.000    0.000    0.000 
#
# Total GULP energy -644937.638383 kJ/mol
# GULP energy per Si atom -12402.646892 kJ/mol
# Density = 1.906507 g / cm^3
# Si number density = 19.108565 Si / 1000 Ang^3
#
#
#
# Elastic Constant Matrix: (Units=GPa)
#
#
# Indices 1 2 3 4 5 6 
#
# 1 143.0400 53.9943 50.4544 0.0000 0.0000 0.0000
# 2 53.9943 110.2922 33.3182 0.0000 0.0000 0.0000
# 3 50.4544 33.3182 86.9455 0.0000 0.0000 0.0000
# 4 0.0000 0.0000 0.0000 24.6918 0.0000 0.0000
# 5 0.0000 0.0000 0.0000 0.0000 28.3876 0.0000
# 6 0.0000 0.0000 0.0000 0.0000 0.0000 31.7987
#
#
#
# Elastic Compliance Matrix: (Units=1/GPa)
#
#
# Indices 1 2 3 4 5 6 
#
# 1 0.009858 -0.003503 -0.004378 0.000000 0.000000 0.000000
# 2 -0.003503 0.011499 -0.002373 0.000000 0.000000 0.000000
# 3 -0.004378 -0.002373 0.014951 0.000000 0.000000 0.000000
# 4 0.000000 0.000000 0.000000 0.040499 0.000000 0.000000
# 5 0.000000 0.000000 0.000000 0.000000 0.035227 0.000000
# 6 0.000000 0.000000 0.000000 0.000000 0.000000 0.031448
#
#
# Mechanical properties :
#
#
# Convention : Reuss Voigt Hill
#
# Bulk Modulus (GPa) = 63.29668 68.42350 65.86009
# Shear Modulus (GPa) = 29.54080 30.47636 30.00858
#
# Velocity S-wave (km/s) = 3.93612 3.99796 3.96716
# Velocity P-wave (km/s) = 7.33853 7.56287 7.45155
#
# Compressibility (1/GPa) = 0.01579862
#
# Stress axis : x y z
#
# Youngs Moduli (GPa) = 101.44341 86.96460 66.88304
#
# Poissons Ratio (x) = 0.30467 0.29281
# Poissons Ratio (y) = 0.35540 0.15874
# Poissons Ratio (z) = 0.44411 0.20641
#
# Static dielectric constant tensor:
#      x y z
#    x 3.597470 0.000000 0.000000 
#    y 0.000000 3.493710 0.000000 
#    z 0.000000 0.000000 3.442180 
# 
# 
# High freq. dielectric constant tensor:
#      x y z
#    x 1.752730 0.000000 0.000000 
#    y 0.000000 1.741880 0.000000 
#    z 0.000000 0.000000 1.727400 
# 
# From -- ./inp_files/50938.got.cif
#   From: 2010.06.25/outbox.cif.g09.slc.cpg/sg71_26_cif.got.tgz:50938.got - 2010.06.28 04:59:45.
