data_PCOD8290347
_publ_section_title
;
Structure prediction by ZEFSAII (Michael W. Deem and Ramdas Pophale) SiO2 
 PCOD8290347
Probable space group: I M M M
;
_chemical_formula_sum "Si O2"
_cell_formula_units_Z 88
_cell_length_a 7.708364
_cell_length_b 28.547292
_cell_length_c 22.719130
_cell_angle_alpha 90.000000
_cell_angle_beta 90.000000
_cell_angle_gamma 90.000000
_cell_volume 4999.410850
_symmetry_space_group_name_H-M "I M M M"
_symmetry_group_IT_number 71
_symmetry_cell_setting 'orthorhombic'
loop_
_space_group_symop_operation_xyz
x,y,z
-x,-y,z
x,-y,-z
-x,y,-z
-x,-y,-z
x,y,-z
-x,y,z
x,-y,z
1/2+x,1/2+y,1/2+z
1/2-x,1/2-y,1/2+z
1/2+x,1/2-y,1/2-z
1/2-x,1/2+y,1/2-z
1/2-x,1/2-y,1/2-z
1/2+x,1/2+y,1/2-z
1/2-x,1/2+y,1/2+z
1/2+x,1/2-y,1/2+z
loop_
_atom_site_type_symbol
_atom_site_label
_atom_site_fract_x
_atom_site_fract_y
_atom_site_fract_z
Si Si1 0.000000 0.446149 0.752122
Si Si2 0.000000 0.295308 0.929397
Si Si3 0.800959 0.053417 0.839099
Si Si4 0.295605 0.628465 0.434214
Si Si5 0.000000 0.605817 0.128994
Si Si6 0.308094 0.771340 0.069264
Si Si7 0.804508 0.946954 0.568265
O O1 0.174784 0.437102 0.715447
O O2 0.000000 0.500000 0.776208
O O3 0.000000 0.406665 0.802372
O O4 0.000000 0.339873 0.887019
O O5 0.831445 0.266287 0.909020
O O6 0.000000 0.307293 0.000000
O O7 0.739055 0.085452 0.893247
O O8 0.000000 0.064526 0.820159
O O9 0.783346 0.000000 0.860732
O O10 0.220172 0.619746 0.500000
O O11 0.500000 0.633271 0.437614
O O12 0.223162 0.676521 0.405309
O O13 0.824831 0.585389 0.102830
O O14 0.500000 0.753690 0.087367
O O15 0.285919 0.776252 0.000000
O O16 0.758031 0.944031 0.500000
O O17 0.000000 0.929215 0.579670
O O18 0.783794 0.000000 0.590765
#
# Coordination Sequence:
#
# PCOD8290347 Si02
#       7
#     8   8  16  16   8  16  16
#     4  10  22  38  53  73 102 138 185 224 251 303
#     4  10  20  34  50  75 108 133 164 218 270 314
#     4   9  19  35  53  76 107 141 171 209 262 307
#     4   9  16  29  53  83 109 135 170 207 251 318
#     4  12  22  33  54  75  98 137 187 224 261 299
#     4   9  17  30  49  74 104 137 168 199 251 318
#     4   9  18  32  50  76 107 132 159 204 267 333
#
# _framework density 17.602074000000002
#
# number of rings (size 3 to 8) (size 9 to 14) (size 15 to 20)
#    0.000    2.545    0.909    2.182    1.273    2.545 
#    0.000    5.455    0.000    2.727    0.000    0.000 
#    0.000    0.000    0.000    0.000    0.000    0.000 
#
# Total GULP energy -545430.741568 kJ/mol
# GULP energy per Si atom -12396.153217 kJ/mol
# Density = 1.756201 g / cm^3
# Si number density = 17.602074 Si / 1000 Ang^3
#
#
#
# Elastic Constant Matrix: (Units=GPa)
#
#
# Indices 1 2 3 4 5 6 
#
# 1 103.6945 63.5661 48.2170 0.0000 0.0000 0.0000
# 2 63.5661 129.6696 69.4770 0.0000 0.0000 0.0000
# 3 48.2170 69.4770 69.5544 0.0001 0.0000 0.0000
# 4 0.0000 0.0000 0.0001 34.9081 0.0000 0.0000
# 5 0.0000 0.0000 0.0000 0.0000 22.6837 0.0000
# 6 0.0000 0.0000 0.0000 0.0000 0.0000 19.3630
#
#
#
# Elastic Compliance Matrix: (Units=1/GPa)
#
#
# Indices 1 2 3 4 5 6 
#
# 1 0.015075 -0.003853 -0.006602 0.000000 0.000000 0.000000
# 2 -0.003853 0.017577 -0.014886 0.000000 0.000000 0.000000
# 3 -0.006602 -0.014886 0.033824 0.000000 0.000000 0.000000
# 4 0.000000 0.000000 0.000000 0.028647 0.000000 0.000000
# 5 0.000000 0.000000 0.000000 0.000000 0.044085 0.000000
# 6 0.000000 0.000000 0.000000 0.000000 0.000000 0.051645
#
#
# Mechanical properties :
#
#
# Convention : Reuss Voigt Hill
#
# Bulk Modulus (GPa) = 63.31770 73.93762 68.62766
# Shear Modulus (GPa) = 20.25941 23.50154 21.88047
#
# Velocity S-wave (km/s) = 3.39627 3.65794 3.52953
# Velocity P-wave (km/s) = 7.17143 7.74190 7.46212
#
# Compressibility (1/GPa) = 0.01579337
#
# Stress axis : x y z
#
# Youngs Moduli (GPa) = 66.33283 56.89373 29.56502
#
# Poissons Ratio (x) = 0.21920 0.19520
# Poissons Ratio (y) = 0.25556 0.44011
# Poissons Ratio (z) = 0.43795 0.84693
#
# Static dielectric constant tensor:
#      x y z
#    x 3.445440 0.000000 0.000000 
#    y 0.000000 3.300180 0.000000 
#    z 0.000000 0.000000 2.979340 
# 
# 
# High freq. dielectric constant tensor:
#      x y z
#    x 1.699740 0.000000 0.000000 
#    y 0.000000 1.675820 0.000000 
#    z 0.000000 0.000000 1.634940 
# 
# From -- ./inp_files/50578.got.cif
#   From: 2010.06.25/outbox.cif.g09.slc.cpg/sg71_26_cif.got.tgz:50578.got - 2010.06.28 04:59:45.
