data_PCOD8290917
_publ_section_title
;
Structure prediction by ZEFSAII (Michael W. Deem and Ramdas Pophale) SiO2 
 PCOD8290917
Probable space group: I M M M
;
_chemical_formula_sum "Si O2"
_cell_formula_units_Z 64
_cell_length_a 9.264563
_cell_length_b 17.829137
_cell_length_c 20.526255
_cell_angle_alpha 90.000000
_cell_angle_beta 90.000000
_cell_angle_gamma 90.000000
_cell_volume 3390.509620
_symmetry_space_group_name_H-M "I M M M"
_symmetry_group_IT_number 71
_symmetry_cell_setting 'orthorhombic'
loop_
_space_group_symop_operation_xyz
x,y,z
-x,-y,z
x,-y,-z
-x,y,-z
-x,-y,-z
x,y,-z
-x,y,z
x,-y,z
1/2+x,1/2+y,1/2+z
1/2-x,1/2-y,1/2+z
1/2+x,1/2-y,1/2-z
1/2-x,1/2+y,1/2-z
1/2-x,1/2-y,1/2-z
1/2+x,1/2+y,1/2-z
1/2-x,1/2+y,1/2+z
1/2+x,1/2-y,1/2+z
loop_
_atom_site_type_symbol
_atom_site_label
_atom_site_fract_x
_atom_site_fract_y
_atom_site_fract_z
Si Si1 0.830268 0.086972 0.000000
Si Si2 0.331860 0.913653 0.743659
Si Si3 0.332406 0.158861 0.880754
Si Si4 0.669224 0.332862 0.871073
Si Si5 0.671695 0.584836 0.000000
O O1 0.764485 0.124228 0.063545
O O2 0.000000 0.100712 0.000000
O O3 0.789668 0.000000 0.000000
O O4 0.500000 0.902931 0.729260
O O5 0.291543 0.882887 0.814455
O O6 0.244700 0.866959 0.691352
O O7 0.285077 0.000000 0.739720
O O8 0.500000 0.147672 0.898849
O O9 0.293095 0.245755 0.874419
O O10 0.500000 0.346992 0.863586
O O11 0.730058 0.372779 0.936063
O O12 0.731356 0.500000 0.000000
O O13 0.500000 0.586057 0.000000
#
# Coordination Sequence:
#
# PCOD8290917 Si02
#       5
#     8  16  16  16   8
#     4  11  24  39  57  85 116 145 184 233 278 322
#     4  10  21  36  54  79 111 146 184 227 279 336
#     4  10  21  38  59  81 109 148 189 227 274 335
#     4  10  20  35  57  82 107 141 186 231 275 327
#     4   9  17  30  49  75 106 137 172 218 272 327
#
# _framework density 18.876218999999999
#
# number of rings (size 3 to 8) (size 9 to 14) (size 15 to 20)
#    0.000    2.000    0.000    3.375    0.000    7.500 
#    0.000    0.625    0.000    2.250    0.000    0.000 
#    0.000    0.000    0.000    0.000    0.000    0.000 
#
# Total GULP energy -396943.444782 kJ/mol
# GULP energy per Si atom -12404.482649 kJ/mol
# Density = 1.883326 g / cm^3
# Si number density = 18.876219 Si / 1000 Ang^3
#
#
#
# Elastic Constant Matrix: (Units=GPa)
#
#
# Indices 1 2 3 4 5 6 
#
# 1 59.4535 70.8806 72.9221 0.0000 0.0000 0.0000
# 2 70.8806 149.8882 97.1188 0.0000 0.0000 0.0000
# 3 72.9221 97.1188 155.8027 0.0000 0.0000 0.0000
# 4 0.0000 0.0000 0.0000 35.4779 0.0000 0.0000
# 5 0.0000 0.0000 0.0000 0.0000 36.3304 0.0000
# 6 0.0000 0.0000 0.0000 0.0000 0.0000 48.0172
#
#
#
# Elastic Compliance Matrix: (Units=1/GPa)
#
#
# Indices 1 2 3 4 5 6 
#
# 1 0.055285 -0.015732 -0.016069 0.000000 0.000000 0.000000
# 2 -0.015732 0.015669 -0.002404 0.000000 0.000000 0.000000
# 3 -0.016069 -0.002404 0.015438 0.000000 0.000000 0.000000
# 4 0.000000 0.000000 0.000000 0.028187 0.000000 0.000000
# 5 0.000000 0.000000 0.000000 0.000000 0.027525 0.000000
# 6 0.000000 0.000000 0.000000 0.000000 0.000000 0.020826
#
#
# Mechanical properties :
#
#
# Convention : Reuss Voigt Hill
#
# Bulk Modulus (GPa) = 55.61222 94.10969 74.86096
# Shear Modulus (GPa) = 21.06747 32.24664 26.65706
#
# Velocity S-wave (km/s) = 3.34441 4.13767 3.76201
# Velocity P-wave (km/s) = 6.66625 8.53179 7.65606
#
# Compressibility (1/GPa) = 0.01798166
#
# Stress axis : x y z
#
# Youngs Moduli (GPa) = 18.08808 63.82219 64.77558
#
# Poissons Ratio (x) = 1.00403 1.04090
# Poissons Ratio (y) = 0.28456 0.15571
# Poissons Ratio (z) = 0.29066 0.15342
#
# Static dielectric constant tensor:
#      x y z
#    x 3.279710 0.000000 0.000000 
#    y 0.000000 3.721050 0.000000 
#    z 0.000000 0.000000 3.476440 
# 
# 
# High freq. dielectric constant tensor:
#      x y z
#    x 1.712120 0.000000 0.000000 
#    y 0.000000 1.755230 0.000000 
#    z 0.000000 0.000000 1.750960 
# 
# From -- ./inp_files/41863.got.cif
#   From: 2010.06.25/outbox.cif.g09.slc.cpg/sg71_21_cif.got.tgz:41863.got - 2010.06.28 04:59:45.
