data_PCOD8290450
_publ_section_title
;
Structure prediction by ZEFSAII (Michael W. Deem and Ramdas Pophale) SiO2 
 PCOD8290450
Probable space group: I M M M
;
_chemical_formula_sum "Si O2"
_cell_formula_units_Z 88
_cell_length_a 29.748133
_cell_length_b 9.100365
_cell_length_c 17.944020
_cell_angle_alpha 90.000000
_cell_angle_beta 90.000000
_cell_angle_gamma 90.000000
_cell_volume 4857.784788
_symmetry_space_group_name_H-M "I M M M"
_symmetry_group_IT_number 71
_symmetry_cell_setting 'orthorhombic'
loop_
_space_group_symop_operation_xyz
x,y,z
-x,-y,z
x,-y,-z
-x,y,-z
-x,-y,-z
x,y,-z
-x,y,z
x,-y,z
1/2+x,1/2+y,1/2+z
1/2-x,1/2-y,1/2+z
1/2+x,1/2-y,1/2-z
1/2-x,1/2+y,1/2-z
1/2-x,1/2-y,1/2-z
1/2+x,1/2+y,1/2-z
1/2-x,1/2+y,1/2+z
1/2+x,1/2-y,1/2+z
loop_
_atom_site_type_symbol
_atom_site_label
_atom_site_fract_x
_atom_site_fract_y
_atom_site_fract_z
Si Si1 0.500000 0.340362 0.914485
Si Si2 0.294855 0.327867 0.774577
Si Si3 0.110813 0.174020 0.793759
Si Si4 0.551291 0.828627 0.586892
Si Si5 0.420832 0.165549 0.151482
Si Si6 0.175129 0.665195 0.584651
O O1 0.500000 0.500000 0.872871
O O2 0.542648 0.243917 0.897190
O O3 0.500000 0.375366 0.000000
O O4 0.287211 0.500000 0.773097
O O5 0.250000 0.250000 0.750000
O O6 0.336497 0.283771 0.719880
O O7 0.302145 0.279719 0.859734
O O8 0.089859 0.238034 0.869791
O O9 0.082872 0.243399 0.727092
O O10 0.104817 0.000000 0.793807
O O11 0.558457 0.794655 0.500000
O O12 0.500000 0.783394 0.609895
O O13 0.558533 0.000000 0.603573
O O14 0.377522 0.165927 0.099646
O O15 0.434929 0.000000 0.172834
O O16 0.184650 0.715835 0.500000
O O17 0.194122 0.500000 0.597904
#
# Coordination Sequence:
#
# PCOD8290450 Si02
#       6
#     8  16  16  16  16  16
#     4  11  23  35  47  69 104 141 176 219 265 301
#     4  10  21  37  57  81 109 142 180 224 276 329
#     4  10  21  36  55  81 110 140 177 223 274 326
#     4   9  19  36  57  81 110 145 186 230 275 327
#     4  10  20  34  53  75 102 140 181 218 258 309
#     4   9  18  34  56  80 105 135 174 219 266 318
#
# _framework density 18.115252999999999
#
# number of rings (size 3 to 8) (size 9 to 14) (size 15 to 20)
#    0.000    2.273    0.000    3.000    1.273    5.455 
#    0.000    1.818    0.000    1.091    0.000    0.000 
#    0.000    0.000    0.000    0.000    0.000    0.000 
#
# Total GULP energy -545420.697405 kJ/mol
# GULP energy per Si atom -12395.924941 kJ/mol
# Density = 1.807402 g / cm^3
# Si number density = 18.115253 Si / 1000 Ang^3
#
#
#
# Elastic Constant Matrix: (Units=GPa)
#
#
# Indices 1 2 3 4 5 6 
#
# 1 101.3295 68.3637 61.4764 0.0000 0.0000 0.0000
# 2 68.3637 104.8693 58.6674 0.0000 0.0000 0.0000
# 3 61.4764 58.6674 104.6526 0.0000 0.0000 0.0000
# 4 0.0000 0.0000 0.0000 32.2842 0.0000 0.0000
# 5 0.0000 0.0000 0.0000 0.0000 18.8999 0.0000
# 6 0.0000 0.0000 0.0000 0.0000 0.0000 33.5726
#
#
#
# Elastic Compliance Matrix: (Units=1/GPa)
#
#
# Indices 1 2 3 4 5 6 
#
# 1 0.020304 -0.009563 -0.006567 0.000000 0.000000 0.000000
# 2 -0.009563 0.018396 -0.004695 0.000000 0.000000 0.000000
# 3 -0.006567 -0.004695 0.016045 0.000000 0.000000 0.000000
# 4 0.000000 0.000000 0.000000 0.030975 0.000000 0.000000
# 5 0.000000 0.000000 0.000000 0.000000 0.052910 0.000000
# 6 0.000000 0.000000 0.000000 0.000000 0.000000 0.029786
#
#
# Mechanical properties :
#
#
# Convention : Reuss Voigt Hill
#
# Bulk Modulus (GPa) = 76.35763 76.42960 76.39361
# Shear Modulus (GPa) = 23.31739 25.10762 24.21250
#
# Velocity S-wave (km/s) = 3.59161 3.72693 3.65989
# Velocity P-wave (km/s) = 7.70987 7.79759 7.75385
#
# Compressibility (1/GPa) = 0.01309627
#
# Stress axis : x y z
#
# Youngs Moduli (GPa) = 49.25025 54.35878 62.32424
#
# Poissons Ratio (x) = 0.51982 0.40927
# Poissons Ratio (y) = 0.47097 0.29263
# Poissons Ratio (z) = 0.32341 0.25523
#
# Static dielectric constant tensor:
#      x y z
#    x 3.310040 0.000000 0.000000 
#    y 0.000000 3.534030 0.000000 
#    z 0.000000 0.000000 3.351850 
# 
# 
# High freq. dielectric constant tensor:
#      x y z
#    x 1.692920 0.000000 0.000000 
#    y 0.000000 1.713280 0.000000 
#    z 0.000000 0.000000 1.698740 
# 
# From -- ./inp_files/8782.got.cif
#   From: 2010.06.25/outbox.cif.g09.slc.cpg/sg71_5_cif.got.tgz:8782.got - 2010.06.28 04:59:45.
