data_PCOD8290038
_publ_section_title
;
Structure prediction by ZEFSAII (Michael W. Deem and Ramdas Pophale) SiO2 
 PCOD8290038
Probable space group: I M M M
;
_chemical_formula_sum "Si O2"
_cell_formula_units_Z 72
_cell_length_a 22.808436
_cell_length_b 9.221768
_cell_length_c 17.747252
_cell_angle_alpha 90.000000
_cell_angle_beta 90.000000
_cell_angle_gamma 90.000000
_cell_volume 3732.852370
_symmetry_space_group_name_H-M "I M M M"
_symmetry_group_IT_number 71
_symmetry_cell_setting 'orthorhombic'
loop_
_space_group_symop_operation_xyz
x,y,z
-x,-y,z
x,-y,-z
-x,y,-z
-x,-y,-z
x,y,-z
-x,y,z
x,-y,z
1/2+x,1/2+y,1/2+z
1/2-x,1/2-y,1/2+z
1/2+x,1/2-y,1/2-z
1/2-x,1/2+y,1/2-z
1/2-x,1/2-y,1/2-z
1/2+x,1/2+y,1/2-z
1/2-x,1/2+y,1/2+z
1/2+x,1/2-y,1/2+z
loop_
_atom_site_type_symbol
_atom_site_label
_atom_site_fract_x
_atom_site_fract_y
_atom_site_fract_z
Si Si1 0.791946 0.832824 0.151157
Si Si2 0.323867 0.332210 0.178647
Si Si3 0.500000 0.337597 0.409820
Si Si4 0.065121 0.171899 0.584915
Si Si5 0.108335 0.659650 0.913351
O O1 0.727360 0.766897 0.145406
O O2 0.823515 0.812662 0.231674
O O3 0.830794 0.744538 0.092367
O O4 0.788510 0.000000 0.127474
O O5 0.312414 0.500000 0.156723
O O6 0.385249 0.274048 0.143767
O O7 0.500000 0.500000 0.376384
O O8 0.500000 0.344366 0.500000
O O9 0.556524 0.254731 0.376598
O O10 0.080452 0.225435 0.500000
O O11 0.000000 0.230058 0.608108
O O12 0.063774 0.000000 0.586156
O O13 0.112017 0.500000 0.874803
O O14 0.093029 0.638114 0.000000
#
# Coordination Sequence:
#
# PCOD8290038 Si02
#       5
#    16  16   8  16  16
#     4  10  20  33  49  72 102 138 174 214 260 302
#     4   9  18  33  51  73 102 136 171 208 255 311
#     4   9  17  31  51  73  99 129 160 201 252 301
#     4   8  14  27  50  78 103 126 159 207 257 306
#     4  10  20  34  52  73  99 133 173 215 257 304
#
# _framework density 19.288198999999999
#
# number of rings (size 3 to 8) (size 9 to 14) (size 15 to 20)
#    0.000    2.778    0.000    2.333    0.000    4.444 
#    2.000    2.222    0.000    0.667    0.000    1.556 
#    0.000    0.000    0.000    0.000    0.000    0.000 
#
# Total GULP energy -446233.015044 kJ/mol
# GULP energy per Si atom -12395.361529 kJ/mol
# Density = 1.924430 g / cm^3
# Si number density = 19.288199 Si / 1000 Ang^3
#
#
#
# Elastic Constant Matrix: (Units=GPa)
#
#
# Indices 1 2 3 4 5 6 
#
# 1 154.1530 61.3873 40.2094 0.0000 0.0000 0.0000
# 2 61.3873 125.6150 13.5782 0.0000 0.0000 0.0000
# 3 40.2094 13.5782 32.6500 0.0000 0.0000 0.0000
# 4 0.0000 0.0000 0.0000 17.1919 0.0000 0.0000
# 5 0.0000 0.0000 0.0000 0.0000 35.0062 0.0000
# 6 0.0000 0.0000 0.0000 0.0000 0.0000 32.0376
#
#
#
# Elastic Compliance Matrix: (Units=1/GPa)
#
#
# Indices 1 2 3 4 5 6 
#
# 1 0.011363 -0.004231 -0.012235 0.000000 0.000000 0.000000
# 2 -0.004231 0.009911 0.001089 0.000000 0.000000 0.000000
# 3 -0.012235 0.001089 0.045242 0.000000 0.000000 0.000000
# 4 0.000000 0.000000 0.000000 0.058167 0.000000 0.000000
# 5 0.000000 0.000000 0.000000 0.000000 0.028566 0.000000
# 6 0.000000 0.000000 0.000000 0.000000 0.000000 0.031213
#
#
# Mechanical properties :
#
#
# Convention : Reuss Voigt Hill
#
# Bulk Modulus (GPa) = 27.96193 60.30751 44.13472
# Shear Modulus (GPa) = 22.01318 29.99670 26.00494
#
# Velocity S-wave (km/s) = 3.38194 3.94786 3.67581
# Velocity P-wave (km/s) = 5.45696 7.21909 6.39897
#
# Compressibility (1/GPa) = 0.03576291
#
# Stress axis : x y z
#
# Youngs Moduli (GPa) = 88.00470 100.90184 22.10316
#
# Poissons Ratio (x) = 0.42687 0.27042
# Poissons Ratio (y) = 0.37231 -0.02406
# Poissons Ratio (z) = 1.07670 -0.10983
#
# Static dielectric constant tensor:
#      x y z
#    x 3.731890 0.000000 0.000000 
#    y 0.000000 3.512160 0.000000 
#    z 0.000000 0.000000 3.259640 
# 
# 
# High freq. dielectric constant tensor:
#      x y z
#    x 1.761330 0.000000 0.000000 
#    y 0.000000 1.736450 0.000000 
#    z 0.000000 0.000000 1.715000 
# 
# From -- ./inp_files/7995.got.cif
#   From: 2010.06.25/outbox.cif.g09.slc.cpg/sg71_4_cif.got.tgz:7995.got - 2010.06.28 04:59:45.
