data_PCOD8290493
_publ_section_title
;
Structure prediction by ZEFSAII (Michael W. Deem and Ramdas Pophale) SiO2 
 PCOD8290493
Probable space group: I M M M
;
_chemical_formula_sum "Si O2"
_cell_formula_units_Z 104
_cell_length_a 30.274089
_cell_length_b 8.856959
_cell_length_c 19.203971
_cell_angle_alpha 90.000000
_cell_angle_beta 90.000000
_cell_angle_gamma 90.000000
_cell_volume 5149.282978
_symmetry_space_group_name_H-M "I M M M"
_symmetry_group_IT_number 71
_symmetry_cell_setting 'orthorhombic'
loop_
_space_group_symop_operation_xyz
x,y,z
-x,-y,z
x,-y,-z
-x,y,-z
-x,-y,-z
x,y,-z
-x,y,z
x,-y,z
1/2+x,1/2+y,1/2+z
1/2-x,1/2-y,1/2+z
1/2+x,1/2-y,1/2-z
1/2-x,1/2+y,1/2-z
1/2-x,1/2-y,1/2-z
1/2+x,1/2+y,1/2-z
1/2-x,1/2+y,1/2+z
1/2+x,1/2-y,1/2+z
loop_
_atom_site_type_symbol
_atom_site_label
_atom_site_fract_x
_atom_site_fract_y
_atom_site_fract_z
Si Si1 0.500000 0.176468 0.273911
Si Si2 0.904115 0.825061 0.578048
Si Si3 0.414773 0.179031 0.353953
Si Si4 0.000000 0.827165 0.629533
Si Si5 0.243122 0.178283 0.922237
Si Si6 0.450911 0.822227 0.500000
Si Si7 0.171649 0.677199 0.339164
Si Si8 0.825160 0.178850 0.192679
O O1 0.456252 0.240448 0.310170
O O2 0.500000 0.215424 0.193779
O O3 0.500000 0.000000 0.286096
O O4 0.890342 0.776572 0.500000
O O5 0.956324 0.792344 0.584911
O O6 0.876244 0.731969 0.634624
O O7 0.893902 0.000000 0.591169
O O8 0.422873 0.227576 0.433402
O O9 0.373997 0.272301 0.326331
O O10 0.406709 0.000000 0.345110
O O11 0.000000 0.000000 0.655737
O O12 0.292301 0.221126 0.897280
O O13 0.207743 0.243573 0.866923
O O14 0.237618 0.000000 0.925717
O O15 0.235540 0.246890 0.000000
O O16 0.500000 0.748314 0.500000
O O17 0.457735 0.000000 0.500000
O O18 0.168927 0.500000 0.325850
O O19 0.187151 0.752991 0.267437
O O20 0.821501 0.000000 0.198023
#
# Coordination Sequence:
#
# PCOD8290493 Si02
#       8
#     8  16  16   8  16   8  16  16
#     4  10  20  34  53  77 108 149 192 235 278 328
#     4  10  21  38  60  86 117 152 190 233 283 340
#     4  10  20  35  56  82 112 147 192 237 284 339
#     4  10  21  36  55  79 113 153 188 223 277 338
#     4   9  20  39  61  85 114 149 187 231 287 345
#     4   9  16  32  57  81 109 151 193 237 289 340
#     4  11  22  39  63  87 114 150 193 237 283 338
#     4  11  23  38  59  85 117 153 189 234 288 343
#
# _framework density 20.196987
#
# number of rings (size 3 to 8) (size 9 to 14) (size 15 to 20)
#    0.000    1.923    0.769    3.000    1.077    5.538 
#    0.000    2.308    0.000    5.538    0.000    0.000 
#    0.000    0.000    0.000    0.000    0.000    0.000 
#
# Total GULP energy -644845.214680 kJ/mol
# GULP energy per Si atom -12400.869513 kJ/mol
# Density = 2.015102 g / cm^3
# Si number density = 20.196987 Si / 1000 Ang^3
#
#
#
# Elastic Constant Matrix: (Units=GPa)
#
#
# Indices 1 2 3 4 5 6 
#
# 1 119.2989 31.2463 49.2770 0.0000 0.0000 0.0000
# 2 31.2463 48.8845 34.8565 0.0000 0.0000 0.0000
# 3 49.2770 34.8565 152.0776 0.0000 0.0000 0.0000
# 4 0.0000 0.0000 0.0000 21.9510 0.0000 0.0000
# 5 0.0000 0.0000 0.0000 0.0000 32.0264 0.0000
# 6 0.0000 0.0000 0.0000 0.0000 0.0000 21.0147
#
#
#
# Elastic Compliance Matrix: (Units=1/GPa)
#
#
# Indices 1 2 3 4 5 6 
#
# 1 0.010684 -0.005212 -0.002267 0.000000 0.000000 0.000000
# 2 -0.005212 0.026996 -0.004498 0.000000 0.000000 0.000000
# 3 -0.002267 -0.004498 0.008341 0.000000 0.000000 0.000000
# 4 0.000000 0.000000 0.000000 0.045556 0.000000 0.000000
# 5 0.000000 0.000000 0.000000 0.000000 0.031224 0.000000
# 6 0.000000 0.000000 0.000000 0.000000 0.000000 0.047586
#
#
# Mechanical properties :
#
#
# Convention : Reuss Voigt Hill
#
# Bulk Modulus (GPa) = 45.32131 61.22452 53.27292
# Shear Modulus (GPa) = 24.78949 28.65715 26.72332
#
# Velocity S-wave (km/s) = 3.50721 3.77089 3.64144
# Velocity P-wave (km/s) = 6.23611 7.02417 6.64184
#
# Compressibility (1/GPa) = 0.02206467
#
# Stress axis : x y z
#
# Youngs Moduli (GPa) = 93.59782 37.04293 119.88566
#
# Poissons Ratio (x) = 0.19309 0.27180
# Poissons Ratio (y) = 0.48788 0.53931
# Poissons Ratio (z) = 0.21220 0.16664
#
# Static dielectric constant tensor:
#      x y z
#    x 3.754040 0.000000 0.000000 
#    y 0.000000 3.329250 0.000000 
#    z 0.000000 0.000000 4.008860 
# 
# 
# High freq. dielectric constant tensor:
#      x y z
#    x 1.800100 0.000000 0.000000 
#    y 0.000000 1.756240 0.000000 
#    z 0.000000 0.000000 1.805690 
# 
# From -- ./inp_files/56296.got.cif
#   From: 2010.06.25/outbox.cif.g09.slc.cpg/sg71_29_cif.got.tgz:56296.got - 2010.06.28 04:59:45.
