data_PCOD8290401
_publ_section_title
;
Structure prediction by ZEFSAII (Michael W. Deem and Ramdas Pophale) SiO2 
 PCOD8290401
Probable space group: I M M M
;
_chemical_formula_sum "Si O2"
_cell_formula_units_Z 88
_cell_length_a 7.985673
_cell_length_b 29.924371
_cell_length_c 18.978344
_cell_angle_alpha 90.000000
_cell_angle_beta 90.000000
_cell_angle_gamma 90.000000
_cell_volume 4535.183536
_symmetry_space_group_name_H-M "I M M M"
_symmetry_group_IT_number 71
_symmetry_cell_setting 'orthorhombic'
loop_
_space_group_symop_operation_xyz
x,y,z
-x,-y,z
x,-y,-z
-x,y,-z
-x,-y,-z
x,y,-z
-x,y,z
x,-y,z
1/2+x,1/2+y,1/2+z
1/2-x,1/2-y,1/2+z
1/2+x,1/2-y,1/2-z
1/2-x,1/2+y,1/2-z
1/2-x,1/2-y,1/2-z
1/2+x,1/2+y,1/2-z
1/2-x,1/2+y,1/2+z
1/2+x,1/2-y,1/2+z
loop_
_atom_site_type_symbol
_atom_site_label
_atom_site_fract_x
_atom_site_fract_y
_atom_site_fract_z
Si Si1 0.189710 0.116734 0.717825
Si Si2 0.696412 0.660888 0.078787
Si Si3 0.810229 0.295540 0.715558
Si Si4 0.500000 0.552986 0.579034
Si Si5 0.687790 0.948411 0.172540
Si Si6 0.192729 0.241235 0.921417
O O1 0.249406 0.123703 0.636556
O O2 0.196972 0.163792 0.758545
O O3 0.303615 0.079469 0.755005
O O4 0.000000 0.099262 0.719824
O O5 0.500000 0.670971 0.084813
O O6 0.790716 0.706540 0.098092
O O7 0.744508 0.644113 0.000000
O O8 0.750000 0.250000 0.750000
O O9 0.795812 0.290281 0.631209
O O10 0.000000 0.305930 0.736780
O O11 0.500000 0.500000 0.574633
O O12 0.500000 0.573295 0.500000
O O13 0.669644 0.569327 0.618470
O O14 0.500000 0.942115 0.140404
O O15 0.720769 0.000000 0.191054
O O16 0.000000 0.227676 0.915782
O O17 0.263328 0.233033 0.000000
#
# Coordination Sequence:
#
# PCOD8290401 Si02
#       6
#    16  16  16   8  16  16
#     4  11  21  35  58  84 112 148 188 236 288 338
#     4   9  18  32  52  79 108 142 186 232 277 329
#     4  12  23  35  52  77 109 145 187 232 278 333
#     4   9  18  36  62  90 119 151 187 231 284 342
#     4  10  21  38  61  90 120 151 190 236 286 340
#     4  10  20  34  52  74 103 140 181 227 277 328
#
# _framework density 19.403846000000001
#
# number of rings (size 3 to 8) (size 9 to 14) (size 15 to 20)
#    0.000    1.727    2.727    2.727    0.000    2.182 
#    0.000    2.727    0.000    2.727    0.000    3.818 
#    0.000    0.000    0.000    0.000    0.000    0.000 
#
# Total GULP energy -545564.374707 kJ/mol
# GULP energy per Si atom -12399.190334 kJ/mol
# Density = 1.935968 g / cm^3
# Si number density = 19.403846 Si / 1000 Ang^3
#
#
#
# Elastic Constant Matrix: (Units=GPa)
#
#
# Indices 1 2 3 4 5 6 
#
# 1 87.5316 15.2625 35.1073 0.0000 0.0000 0.0000
# 2 15.2625 57.2107 39.4183 0.0000 0.0000 0.0000
# 3 35.1073 39.4183 133.9915 0.0000 0.0000 0.0000
# 4 0.0000 0.0000 0.0000 26.0137 0.0000 0.0000
# 5 0.0000 0.0000 0.0000 0.0000 23.1415 0.0000
# 6 0.0000 0.0000 0.0000 0.0000 0.0000 24.4057
#
#
#
# Elastic Compliance Matrix: (Units=1/GPa)
#
#
# Indices 1 2 3 4 5 6 
#
# 1 0.012854 -0.001390 -0.002959 0.000000 0.000000 0.000000
# 2 -0.001390 0.022073 -0.006129 0.000000 0.000000 0.000000
# 3 -0.002959 -0.006129 0.010042 0.000000 0.000000 0.000000
# 4 0.000000 0.000000 0.000000 0.038441 0.000000 0.000000
# 5 0.000000 0.000000 0.000000 0.000000 0.043212 0.000000
# 6 0.000000 0.000000 0.000000 0.000000 0.000000 0.040974
#
#
# Mechanical properties :
#
#
# Convention : Reuss Voigt Hill
#
# Bulk Modulus (GPa) = 41.64688 50.92333 46.28510
# Shear Modulus (GPa) = 25.43790 27.30856 26.37323
#
# Velocity S-wave (km/s) = 3.62466 3.75557 3.69070
# Velocity P-wave (km/s) = 6.24719 6.71615 6.48591
#
# Compressibility (1/GPa) = 0.02401140
#
# Stress axis : x y z
#
# Youngs Moduli (GPa) = 77.79929 45.30352 99.58630
#
# Poissons Ratio (x) = 0.06299 0.29465
# Poissons Ratio (y) = 0.10818 0.61040
# Poissons Ratio (z) = 0.23019 0.27768
#
# Static dielectric constant tensor:
#      x y z
#    x 3.610840 0.000000 0.000000 
#    y 0.000000 3.204560 0.000000 
#    z 0.000000 0.000000 4.018520 
# 
# 
# High freq. dielectric constant tensor:
#      x y z
#    x 1.763460 0.000000 0.000000 
#    y 0.000000 1.710980 0.000000 
#    z 0.000000 0.000000 1.762740 
# 
# From -- ./inp_files/42446.got.cif
#   From: 2010.06.25/outbox.cif.g09.slc.cpg/sg71_22_cif.got.tgz:42446.got - 2010.06.28 04:59:45.
