data_PCOD8290196
_publ_section_title
;
Structure prediction by ZEFSAII (Michael W. Deem and Ramdas Pophale) SiO2 
 PCOD8290196
Probable space group: I M M M
;
_chemical_formula_sum "Si O2"
_cell_formula_units_Z 88
_cell_length_a 9.033780
_cell_length_b 24.243793
_cell_length_c 19.757325
_cell_angle_alpha 90.000000
_cell_angle_beta 90.000000
_cell_angle_gamma 90.000000
_cell_volume 4327.112844
_symmetry_space_group_name_H-M "I M M M"
_symmetry_group_IT_number 71
_symmetry_cell_setting 'orthorhombic'
loop_
_space_group_symop_operation_xyz
x,y,z
-x,-y,z
x,-y,-z
-x,y,-z
-x,-y,-z
x,y,-z
-x,y,z
x,-y,z
1/2+x,1/2+y,1/2+z
1/2-x,1/2-y,1/2+z
1/2+x,1/2-y,1/2-z
1/2-x,1/2+y,1/2-z
1/2-x,1/2-y,1/2-z
1/2+x,1/2+y,1/2-z
1/2-x,1/2+y,1/2+z
1/2+x,1/2-y,1/2+z
loop_
_atom_site_type_symbol
_atom_site_label
_atom_site_fract_x
_atom_site_fract_y
_atom_site_fract_z
Si Si1 0.335924 0.439827 0.580596
Si Si2 0.339671 0.839762 0.921597
Si Si3 0.828586 0.236659 0.841096
Si Si4 0.325560 0.661835 0.786653
Si Si5 0.675551 0.064554 0.639340
Si Si6 0.832363 0.065120 0.500000
O O1 0.341820 0.436713 0.500000
O O2 0.500000 0.427293 0.609393
O O3 0.282597 0.500000 0.604569
O O4 0.223190 0.395875 0.611909
O O5 0.500000 0.826813 0.888457
O O6 0.223118 0.790453 0.911271
O O7 0.359098 0.849788 0.000000
O O8 0.735253 0.292591 0.838433
O O9 0.786632 0.189332 0.785971
O O10 0.000000 0.251968 0.839776
O O11 0.500000 0.653035 0.795855
O O12 0.244571 0.603236 0.801145
O O13 0.500000 0.073600 0.635692
O O14 0.745791 0.084135 0.567667
O O15 0.712676 0.000000 0.654513
O O16 0.000000 0.089652 0.500000
O O17 0.839851 0.000000 0.500000
#
# Coordination Sequence:
#
# PCOD8290196 Si02
#       6
#    16  16  16  16  16   8
#     4   8  14  26  45  68  95 130 170 209 254 311
#     4  10  20  33  51  77 108 139 174 222 275 324
#     4  10  21  38  59  80 105 142 185 227 276 332
#     4  10  21  38  60  83 107 140 183 229 275 328
#     4  10  20  35  57  86 119 152 187 228 276 333
#     4   9  17  31  53  81 115 153 187 223 272 327
#
# _framework density 20.336886
#
# number of rings (size 3 to 8) (size 9 to 14) (size 15 to 20)
#    0.000    2.455    0.000    3.000    0.000    5.818 
#    1.636    2.727    0.000    1.091    0.000    0.000 
#    0.000    0.000    0.000    0.000    0.000    0.000 
#
# Total GULP energy -545202.403157 kJ/mol
# GULP energy per Si atom -12390.963708 kJ/mol
# Density = 2.029060 g / cm^3
# Si number density = 20.336886 Si / 1000 Ang^3
#
#
#
# Elastic Constant Matrix: (Units=GPa)
#
#
# Indices 1 2 3 4 5 6 
#
# 1 111.1081 53.9321 20.7380 0.0000 0.0000 0.0000
# 2 53.9321 111.9797 23.6767 0.0000 0.0000 0.0000
# 3 20.7380 23.6767 12.2543 0.0000 0.0000 0.0000
# 4 0.0000 0.0000 0.0000 28.8676 0.0000 0.0000
# 5 0.0000 0.0000 0.0000 0.0000 26.0611 0.0000
# 6 0.0000 0.0000 0.0000 0.0000 0.0000 40.7012
#
#
#
# Elastic Compliance Matrix: (Units=1/GPa)
#
#
# Indices 1 2 3 4 5 6 
#
# 1 0.013678 -0.002863 -0.017615 0.000000 0.000000 0.000000
# 2 -0.002863 0.015697 -0.025484 0.000000 0.000000 0.000000
# 3 -0.017615 -0.025484 0.160653 0.000000 0.000000 0.000000
# 4 0.000000 0.000000 0.000000 0.034641 0.000000 0.000000
# 5 0.000000 0.000000 0.000000 0.000000 0.038371 0.000000
# 6 0.000000 0.000000 0.000000 0.000000 0.000000 0.024569
#
#
# Mechanical properties :
#
#
# Convention : Reuss Voigt Hill
#
# Bulk Modulus (GPa) = 10.19333 48.00395 29.09864
# Shear Modulus (GPa) = 12.12897 28.25899 20.19398
#
# Velocity S-wave (km/s) = 2.44478 3.73170 3.15457
# Velocity P-wave (km/s) = 3.60450 6.49793 5.25431
#
# Compressibility (1/GPa) = 0.09810338
#
# Stress axis : x y z
#
# Youngs Moduli (GPa) = 73.11106 63.70495 6.22459
#
# Poissons Ratio (x) = 0.18239 0.10965
# Poissons Ratio (y) = 0.20932 0.15863
# Poissons Ratio (z) = 1.28788 1.62346
#
# Static dielectric constant tensor:
#      x y z
#    x 4.015400 0.000000 0.000000 
#    y 0.000000 3.777200 0.000000 
#    z 0.000000 0.000000 3.386980 
# 
# 
# High freq. dielectric constant tensor:
#      x y z
#    x 1.807310 0.000000 0.000000 
#    y 0.000000 1.793820 0.000000 
#    z 0.000000 0.000000 1.758650 
# 
# From -- ./inp_files/50498.got.cif
#   From: 2010.06.25/outbox.cif.g09.slc.cpg/sg71_26_cif.got.tgz:50498.got - 2010.06.28 04:59:45.
