data_PCOD8290654
_publ_section_title
;
Structure prediction by ZEFSAII (Michael W. Deem and Ramdas Pophale) SiO2 
 PCOD8290654
Probable space group: I M M M
;
_chemical_formula_sum "Si O2"
_cell_formula_units_Z 96
_cell_length_a 13.797930
_cell_length_b 24.820346
_cell_length_c 14.697055
_cell_angle_alpha 90.000000
_cell_angle_beta 90.000000
_cell_angle_gamma 90.000000
_cell_volume 5033.291559
_symmetry_space_group_name_H-M "I M M M"
_symmetry_group_IT_number 71
_symmetry_cell_setting 'orthorhombic'
loop_
_space_group_symop_operation_xyz
x,y,z
-x,-y,z
x,-y,-z
-x,y,-z
-x,-y,-z
x,y,-z
-x,y,z
x,-y,z
1/2+x,1/2+y,1/2+z
1/2-x,1/2-y,1/2+z
1/2+x,1/2-y,1/2-z
1/2-x,1/2+y,1/2-z
1/2-x,1/2-y,1/2-z
1/2+x,1/2+y,1/2-z
1/2-x,1/2+y,1/2+z
1/2+x,1/2-y,1/2+z
loop_
_atom_site_type_symbol
_atom_site_label
_atom_site_fract_x
_atom_site_fract_y
_atom_site_fract_z
Si Si1 0.609246 0.061417 0.859513
Si Si2 0.245927 0.654292 0.399314
Si Si3 0.888109 0.246455 0.395240
Si Si4 0.603464 0.937148 0.352035
Si Si5 0.810264 0.937084 0.399200
Si Si6 0.888155 0.148452 0.732244
O O1 0.500000 0.071268 0.895269
O O2 0.683608 0.100030 0.910255
O O3 0.615707 0.074954 0.753654
O O4 0.640268 0.000000 0.879139
O O5 0.289799 0.666175 0.500000
O O6 0.175471 0.702262 0.367780
O O7 0.331050 0.647839 0.326766
O O8 0.871769 0.229294 0.500000
O O9 0.854024 0.197462 0.331632
O O10 0.000000 0.261352 0.377732
O O11 0.500000 0.911464 0.386067
O O12 0.699115 0.914376 0.401423
O O13 0.596751 0.000000 0.371401
O O14 0.854585 0.928156 0.500000
O O15 0.872778 0.906508 0.323969
O O16 0.811565 0.000000 0.372263
O O17 0.000000 0.153504 0.758268
#
# Coordination Sequence:
#
# PCOD8290654 Si02
#       6
#    16  16  16  16  16  16
#     4   9  17  31  53  81 112 143 174 213 266 325
#     4  11  22  36  57  82 109 142 180 221 265 320
#     4   9  19  37  61  87 109 131 167 217 274 330
#     4   8  14  27  48  74 107 143 172 204 256 323
#     4  10  20  34  55  82 109 141 184 229 274 323
#     4  11  23  39  57  76 106 146 185 228 271 311
#
# _framework density 19.073005999999999
#
# number of rings (size 3 to 8) (size 9 to 14) (size 15 to 20)
#    0.000    2.333    1.667    2.500    0.000    3.333 
#    0.000    3.333    0.000    0.000    0.000    4.667 
#    0.000    0.000    0.000    0.000    0.000    0.000 
#
# Total GULP energy -594964.369758 kJ/mol
# GULP energy per Si atom -12395.091037 kJ/mol
# Density = 1.902959 g / cm^3
# Si number density = 19.073006 Si / 1000 Ang^3
#
#
#
# Elastic Constant Matrix: (Units=GPa)
#
#
# Indices 1 2 3 4 5 6 
#
# 1 76.4843 42.7543 50.0916 0.0000 0.0000 0.0000
# 2 42.7543 93.2945 47.7732 0.0010 0.0000 0.0001
# 3 50.0916 47.7732 103.9658 0.0010 0.0000 0.0001
# 4 0.0000 0.0010 0.0010 23.2197 0.0000 0.0001
# 5 0.0000 0.0000 0.0000 0.0000 -5.2862 0.0000
# 6 0.0000 0.0001 0.0001 0.0001 0.0000 24.8786
#
#
#
# Elastic Compliance Matrix: (Units=1/GPa)
#
#
# Indices 1 2 3 4 5 6 
#
# 1 0.021327 -0.005900 -0.007564 0.000001 0.000000 0.000000
# 2 -0.005900 0.015649 -0.004348 -0.000001 0.000000 0.000000
# 3 -0.007564 -0.004348 0.015261 0.000000 0.000000 0.000000
# 4 0.000001 -0.000001 0.000000 0.043067 0.000000 0.000000
# 5 0.000000 0.000000 0.000000 0.000000 -0.189173 0.000000
# 6 0.000000 0.000000 0.000000 0.000000 0.000000 0.040195
#
#
# Mechanical properties :
#
#
# Convention : Reuss Voigt Hill
#
# Bulk Modulus (GPa) = 60.19774 61.66476 60.93125
# Shear Modulus (GPa) = -399.64413 17.43746 -191.10334
#
# Velocity S-wave (km/s) = -14.49099 3.02693 -10.02064
# Velocity P-wave (km/s) = 15.75928 6.67964 10.09300
#
# Compressibility (1/GPa) = 0.01661192
#
# Stress axis : x y z
#
# Youngs Moduli (GPa) = 46.88959 63.90117 65.52589
#
# Poissons Ratio (x) = 0.37702 0.49566
# Poissons Ratio (y) = 0.27665 0.28492
# Poissons Ratio (z) = 0.35469 0.27786
#
# Static dielectric constant tensor:
#      x y z
#    x 3.489570 0.000000 0.000000 
#    y 0.000000 3.330140 0.000000 
#    z 0.000000 0.000000 3.389780 
# 
# 
# High freq. dielectric constant tensor:
#      x y z
#    x 1.731330 0.000000 0.000000 
#    y 0.000000 1.721990 0.000000 
#    z 0.000000 0.000000 1.741650 
# 
# From -- ./inp_files/34535.got.cif
#   From: 2010.06.25/outbox.cif.g09.slc.cpg/sg71_18_cif.got.tgz:34535.got - 2010.06.28 04:59:45.
