data_PCOD8290067
_publ_section_title
;
Structure prediction by ZEFSAII (Michael W. Deem and Ramdas Pophale) SiO2 
 PCOD8290067
Probable space group: I M M M
;
_chemical_formula_sum "Si O2"
_cell_formula_units_Z 72
_cell_length_a 9.252994
_cell_length_b 22.261504
_cell_length_c 18.719527
_cell_angle_alpha 90.000000
_cell_angle_beta 90.000000
_cell_angle_gamma 90.000000
_cell_volume 3855.952307
_symmetry_space_group_name_H-M "I M M M"
_symmetry_group_IT_number 71
_symmetry_cell_setting 'orthorhombic'
loop_
_space_group_symop_operation_xyz
x,y,z
-x,-y,z
x,-y,-z
-x,y,-z
-x,-y,-z
x,y,-z
-x,y,z
x,-y,z
1/2+x,1/2+y,1/2+z
1/2-x,1/2-y,1/2+z
1/2+x,1/2-y,1/2-z
1/2-x,1/2+y,1/2-z
1/2-x,1/2-y,1/2-z
1/2+x,1/2+y,1/2-z
1/2-x,1/2+y,1/2+z
1/2+x,1/2-y,1/2+z
loop_
_atom_site_type_symbol
_atom_site_label
_atom_site_fract_x
_atom_site_fract_y
_atom_site_fract_z
Si Si1 0.339887 0.888118 0.916629
Si Si2 0.167350 0.334449 0.805855
Si Si3 0.662586 0.500000 0.414561
Si Si4 0.328567 0.932291 0.580187
Si Si5 0.166343 0.803103 0.833163
O O1 0.500000 0.886740 0.881820
O O2 0.252754 0.827051 0.901703
O O3 0.247773 0.942743 0.883750
O O4 0.355839 0.896907 0.000000
O O5 0.229120 0.383209 0.862691
O O6 0.185019 0.268052 0.837657
O O7 0.263192 0.336394 0.734907
O O8 0.000000 0.347447 0.786909
O O9 0.500000 0.500000 0.383997
O O10 0.659041 0.500000 0.500000
O O11 0.270595 0.917299 0.500000
O O12 0.500000 0.928829 0.578918
O O13 0.279097 0.000000 0.602020
O O14 0.000000 0.822122 0.836166
#
# Coordination Sequence:
#
# PCOD8290067 Si02
#       5
#    16  16   8  16  16
#     4  10  20  34  52  74 101 134 173 214 256 306
#     4   9  18  33  52  73 101 136 172 212 260 315
#     4   9  17  31  51  73  99 129 160 201 252 299
#     4   8  14  27  50  79 105 127 159 209 264 315
#     4  10  20  33  50  72 101 138 175 215 261 307
#
# _framework density 18.672429999999999
#
# number of rings (size 3 to 8) (size 9 to 14) (size 15 to 20)
#    0.000    2.778    0.000    2.333    0.000    4.444 
#    2.000    2.222    0.000    0.667    0.000    1.556 
#    0.000    0.000    0.000    0.000    0.000    0.000 
#
# Total GULP energy -446202.324839 kJ/mol
# GULP energy per Si atom -12394.509023 kJ/mol
# Density = 1.862993 g / cm^3
# Si number density = 18.672430 Si / 1000 Ang^3
#
#
#
# Elastic Constant Matrix: (Units=GPa)
#
#
# Indices 1 2 3 4 5 6 
#
# 1 117.1083 50.0922 22.5067 0.0000 0.0000 0.0000
# 2 50.0922 106.9719 49.5769 0.0000 0.0000 0.0000
# 3 22.5067 49.5769 48.9162 0.0000 0.0000 0.0000
# 4 0.0000 0.0000 0.0000 37.1491 0.0000 0.0000
# 5 0.0000 0.0000 0.0000 0.0000 25.3763 0.0000
# 6 0.0000 0.0000 0.0000 0.0000 0.0000 25.6952
#
#
#
# Elastic Compliance Matrix: (Units=1/GPa)
#
#
# Indices 1 2 3 4 5 6 
#
# 1 0.010680 -0.005136 0.000292 0.000000 0.000000 0.000000
# 2 -0.005136 0.020099 -0.018007 0.000000 0.000000 0.000000
# 3 0.000292 -0.018007 0.038559 0.000000 0.000000 0.000000
# 4 0.000000 0.000000 0.000000 0.026919 0.000000 0.000000
# 5 0.000000 0.000000 0.000000 0.000000 0.039407 0.000000
# 6 0.000000 0.000000 0.000000 0.000000 0.000000 0.038918
#
#
# Mechanical properties :
#
#
# Convention : Reuss Voigt Hill
#
# Bulk Modulus (GPa) = 42.31053 57.48311 49.89682
# Shear Modulus (GPa) = 21.91409 27.69882 24.80646
#
# Velocity S-wave (km/s) = 3.42951 3.85568 3.64882
# Velocity P-wave (km/s) = 6.19602 7.11854 6.67324
#
# Compressibility (1/GPa) = 0.02363478
#
# Stress axis : x y z
#
# Youngs Moduli (GPa) = 93.63205 49.75346 25.93408
#
# Poissons Ratio (x) = 0.25556 -0.00757
# Poissons Ratio (y) = 0.48094 0.46700
# Poissons Ratio (z) = -0.02733 0.89592
#
# Static dielectric constant tensor:
#      x y z
#    x 3.434540 0.000000 0.000000 
#    y 0.000000 3.580050 0.000000 
#    z 0.000000 0.000000 3.295710 
# 
# 
# High freq. dielectric constant tensor:
#      x y z
#    x 1.710750 0.000000 0.000000 
#    y 0.000000 1.730290 0.000000 
#    z 0.000000 0.000000 1.702960 
# 
# From -- ./inp_files/8004.got.cif
#   From: 2010.06.25/outbox.cif.g09.slc.cpg/sg71_5_cif.got.tgz:8004.got - 2010.06.28 04:59:45.
