data_PCOD8290803
_publ_section_title
;
Structure prediction by ZEFSAII (Michael W. Deem and Ramdas Pophale) SiO2 
 PCOD8290803
Probable space group: I M M M
;
_chemical_formula_sum "Si O2"
_cell_formula_units_Z 72
_cell_length_a 9.345913
_cell_length_b 17.450638
_cell_length_c 25.102690
_cell_angle_alpha 90.000000
_cell_angle_beta 90.000000
_cell_angle_gamma 90.000000
_cell_volume 4094.051546
_symmetry_space_group_name_H-M "I M M M"
_symmetry_group_IT_number 71
_symmetry_cell_setting 'orthorhombic'
loop_
_space_group_symop_operation_xyz
x,y,z
-x,-y,z
x,-y,-z
-x,y,-z
-x,-y,-z
x,y,-z
-x,y,z
x,-y,z
1/2+x,1/2+y,1/2+z
1/2-x,1/2-y,1/2+z
1/2+x,1/2-y,1/2-z
1/2-x,1/2+y,1/2-z
1/2-x,1/2-y,1/2-z
1/2+x,1/2+y,1/2-z
1/2-x,1/2+y,1/2+z
1/2+x,1/2-y,1/2+z
loop_
_atom_site_type_symbol
_atom_site_label
_atom_site_fract_x
_atom_site_fract_y
_atom_site_fract_z
Si Si1 0.169878 0.587956 0.500000
Si Si2 0.158986 0.865036 0.439935
Si Si3 0.171528 0.742652 0.805477
Si Si4 0.336117 0.917799 0.349980
Si Si5 0.832186 0.303033 0.595395
O O1 0.226133 0.500000 0.500000
O O2 0.221615 0.630066 0.554719
O O3 0.000000 0.591291 0.500000
O O4 0.173903 0.891902 0.500000
O O5 0.260385 0.919865 0.406788
O O6 0.197859 0.775487 0.435552
O O7 0.000000 0.877726 0.417931
O O8 0.250000 0.750000 0.750000
O O9 0.216380 0.654838 0.816946
O O10 0.238607 0.800685 0.849766
O O11 0.000000 0.755756 0.801769
O O12 0.500000 0.907189 0.363180
O O13 0.306611 0.000000 0.320765
O O14 0.000000 0.314023 0.610041
#
# Coordination Sequence:
#
# PCOD8290803 Si02
#       5
#     8  16  16  16  16
#     4   9  16  28  51  81 108 137 176 218 259 305
#     4   9  16  27  45  69  97 130 162 191 228 279
#     4  10  20  35  55  76  96 127 170 212 254 305
#     4   9  19  34  49  68  95 124 156 197 242 285
#     4   9  16  30  51  74 102 134 168 208 249 295
#
# _framework density 17.586490999999999
#
# number of rings (size 3 to 8) (size 9 to 14) (size 15 to 20)
#    0.000    2.778    1.111    0.667    0.000    2.222 
#    0.000    3.889    0.000    8.000    0.000    0.000 
#    0.000    0.000    0.000    0.000    0.000    0.000 
#
# Total GULP energy -445973.294416 kJ/mol
# GULP energy per Si atom -12388.147067 kJ/mol
# Density = 1.754646 g / cm^3
# Si number density = 17.586491 Si / 1000 Ang^3
#
#
#
# Elastic Constant Matrix: (Units=GPa)
#
#
# Indices 1 2 3 4 5 6 
#
# 1 46.3665 34.2635 50.1342 0.0000 0.0000 0.0000
# 2 34.2635 101.5879 54.4322 0.0000 0.0000 0.0000
# 3 50.1342 54.4322 122.9659 0.0000 0.0000 0.0000
# 4 0.0000 0.0000 0.0000 13.8428 0.0000 0.0000
# 5 0.0000 0.0000 0.0000 0.0000 29.1335 0.0000
# 6 0.0000 0.0000 0.0000 0.0000 0.0000 19.2044
#
#
#
# Elastic Compliance Matrix: (Units=1/GPa)
#
#
# Indices 1 2 3 4 5 6 
#
# 1 0.041587 -0.006478 -0.014088 0.000000 0.000000 0.000000
# 2 -0.006478 0.013913 -0.003518 0.000000 0.000000 0.000000
# 3 -0.014088 -0.003518 0.015433 0.000000 0.000000 0.000000
# 4 0.000000 0.000000 0.000000 0.072240 0.000000 0.000000
# 5 0.000000 0.000000 0.000000 0.000000 0.034325 0.000000
# 6 0.000000 0.000000 0.000000 0.000000 0.000000 0.052071
#
#
# Mechanical properties :
#
#
# Convention : Reuss Voigt Hill
#
# Bulk Modulus (GPa) = 43.92432 60.95338 52.43885
# Shear Modulus (GPa) = 17.52384 21.24215 19.38299
#
# Velocity S-wave (km/s) = 3.16006 3.47921 3.32347
# Velocity P-wave (km/s) = 6.19234 7.13262 6.67905
#
# Compressibility (1/GPa) = 0.02276643
#
# Stress axis : x y z
#
# Youngs Moduli (GPa) = 24.04608 71.87270 64.79522
#
# Poissons Ratio (x) = 0.46559 0.91282
# Poissons Ratio (y) = 0.15577 0.22794
# Poissons Ratio (z) = 0.33876 0.25284
#
# Static dielectric constant tensor:
#      x y z
#    x 3.243730 0.000000 0.000000 
#    y 0.000000 3.747000 0.000000 
#    z 0.000000 0.000000 3.285220 
# 
# 
# High freq. dielectric constant tensor:
#      x y z
#    x 1.668140 0.000000 0.000000 
#    y 0.000000 1.674320 0.000000 
#    z 0.000000 0.000000 1.669030 
# 
# From -- ./inp_files/8142.got.cif
#   From: 2010.06.25/outbox.cif.g09.slc.cpg/sg71_5_cif.got.tgz:8142.got - 2010.06.28 04:59:45.
