data_PCOD8290027
_publ_section_title
;
Structure prediction by ZEFSAII (Michael W. Deem and Ramdas Pophale) SiO2 
 PCOD8290027
Probable space group: I M M M
;
_chemical_formula_sum "Si O2"
_cell_formula_units_Z 112
_cell_length_a 18.991220
_cell_length_b 23.379357
_cell_length_c 13.705942
_cell_angle_alpha 90.000000
_cell_angle_beta 90.000000
_cell_angle_gamma 90.000000
_cell_volume 6085.472681
_symmetry_space_group_name_H-M "I M M M"
_symmetry_group_IT_number 71
_symmetry_cell_setting 'orthorhombic'
loop_
_space_group_symop_operation_xyz
x,y,z
-x,-y,z
x,-y,-z
-x,y,-z
-x,-y,-z
x,y,-z
-x,y,z
x,-y,z
1/2+x,1/2+y,1/2+z
1/2-x,1/2-y,1/2+z
1/2+x,1/2-y,1/2-z
1/2-x,1/2+y,1/2-z
1/2-x,1/2-y,1/2-z
1/2+x,1/2+y,1/2-z
1/2-x,1/2+y,1/2+z
1/2+x,1/2-y,1/2+z
loop_
_atom_site_type_symbol
_atom_site_label
_atom_site_fract_x
_atom_site_fract_y
_atom_site_fract_z
Si Si1 0.418559 0.675083 0.888792
Si Si2 0.671499 0.122450 0.112489
Si Si3 0.418007 0.173663 0.386971
Si Si4 0.682604 0.565428 0.390834
Si Si5 0.580364 0.563623 0.219834
Si Si6 0.169014 0.263932 0.270607
Si Si7 0.581183 0.935971 0.267584
O O1 0.500000 0.692283 0.871363
O O2 0.406523 0.607716 0.868064
O O3 0.368966 0.709015 0.815239
O O4 0.396307 0.687015 0.000000
O O5 0.752264 0.106623 0.129431
O O6 0.659638 0.186137 0.150852
O O7 0.623560 0.077429 0.169566
O O8 0.649371 0.119462 0.000000
O O9 0.398448 0.178638 0.500000
O O10 0.500000 0.187783 0.367856
O O11 0.369738 0.218972 0.329817
O O12 0.399867 0.109017 0.352842
O O13 0.653087 0.575018 0.500000
O O14 0.707215 0.500000 0.376787
O O15 0.622514 0.582872 0.315512
O O16 0.500000 0.564265 0.253553
O O17 0.602667 0.500000 0.183953
O O18 0.250000 0.250000 0.250000
O O19 0.500000 0.931124 0.238932
O O20 0.599930 0.000000 0.304591
#
# Coordination Sequence:
#
# PCOD8290027 Si02
#       7
#    16  16  16  16  16  16  16
#     4  10  21  37  56  77 103 135 170 209 256 311
#     4  10  20  33  49  71 101 137 174 211 255 305
#     4   9  19  36  56  78 106 139 173 212 259 308
#     4   9  17  30  49  72 100 135 170 204 247 299
#     4   9  18  33  53  77 103 130 164 208 256 306
#     4  11  22  36  55  77 103 135 173 219 262 308
#     4   9  18  32  51  77 106 136 173 214 255 301
#
# _framework density 18.404487
#
# number of rings (size 3 to 8) (size 9 to 14) (size 15 to 20)
#    0.000    2.429    0.000    2.143    0.000    3.714 
#    0.000    5.714    0.000    0.857    0.000    4.000 
#    0.000    0.000    0.000    0.000    0.000    0.000 
#
# Total GULP energy -694425.258747 kJ/mol
# GULP energy per Si atom -12400.451049 kJ/mol
# Density = 1.836260 g / cm^3
# Si number density = 18.404487 Si / 1000 Ang^3
#
#
#
# Elastic Constant Matrix: (Units=GPa)
#
#
# Indices 1 2 3 4 5 6 
#
# 1 80.2008 44.1579 61.5782 0.0000 0.0000 0.0000
# 2 44.1579 91.1425 53.0680 0.0000 0.0000 0.0000
# 3 61.5782 53.0680 127.2292 0.0000 0.0000 0.0000
# 4 0.0000 0.0000 0.0000 22.8638 0.0000 0.0000
# 5 0.0000 0.0000 0.0000 0.0000 28.1705 0.0000
# 6 0.0000 0.0000 0.0000 0.0000 0.0000 28.1827
#
#
#
# Elastic Compliance Matrix: (Units=1/GPa)
#
#
# Indices 1 2 3 4 5 6 
#
# 1 0.022001 -0.005890 -0.008192 0.000000 0.000000 0.000000
# 2 -0.005890 0.016068 -0.003851 0.000000 0.000000 0.000000
# 3 -0.008192 -0.003851 0.013431 0.000000 0.000000 0.000000
# 4 0.000000 0.000000 0.000000 0.043737 0.000000 0.000000
# 5 0.000000 0.000000 0.000000 0.000000 0.035498 0.000000
# 6 0.000000 0.000000 0.000000 0.000000 0.000000 0.035483
#
#
# Mechanical properties :
#
#
# Convention : Reuss Voigt Hill
#
# Bulk Modulus (GPa) = 63.96216 68.46452 66.21334
# Shear Modulus (GPa) = 24.12015 25.16130 24.64072
#
# Velocity S-wave (km/s) = 3.62409 3.70148 3.66299
# Velocity P-wave (km/s) = 7.23471 7.45309 7.34471
#
# Compressibility (1/GPa) = 0.01563424
#
# Stress axis : x y z
#
# Youngs Moduli (GPa) = 45.45200 62.23606 74.45429
#
# Poissons Ratio (x) = 0.36655 0.60992
# Poissons Ratio (y) = 0.26770 0.28675
# Poissons Ratio (z) = 0.37233 0.23970
#
# Static dielectric constant tensor:
#      x y z
#    x 3.339610 0.000000 0.000000 
#    y 0.000000 3.515510 0.000000 
#    z 0.000000 0.000000 3.312740 
# 
# 
# High freq. dielectric constant tensor:
#      x y z
#    x 1.710170 0.000000 0.000000 
#    y 0.000000 1.720760 0.000000 
#    z 0.000000 0.000000 1.709160 
# 
# From -- ./inp_files/26243.got.cif
#   From: 2010.06.25/outbox.cif.g09.slc.cpg/sg71_14_cif.got.tgz:26243.got - 2010.06.28 04:59:45.
