data_PCOD8290576
_publ_section_title
;
Structure prediction by ZEFSAII (Michael W. Deem and Ramdas Pophale) SiO2 
 PCOD8290576
Probable space group: I M M M
;
_chemical_formula_sum "Si O2"
_cell_formula_units_Z 104
_cell_length_a 28.108331
_cell_length_b 21.281062
_cell_length_c 8.968579
_cell_angle_alpha 90.000000
_cell_angle_beta 90.000000
_cell_angle_gamma 90.000000
_cell_volume 5364.780952
_symmetry_space_group_name_H-M "I M M M"
_symmetry_group_IT_number 71
_symmetry_cell_setting 'orthorhombic'
loop_
_space_group_symop_operation_xyz
x,y,z
-x,-y,z
x,-y,-z
-x,y,-z
-x,-y,-z
x,y,-z
-x,y,z
x,-y,z
1/2+x,1/2+y,1/2+z
1/2-x,1/2-y,1/2+z
1/2+x,1/2-y,1/2-z
1/2-x,1/2+y,1/2-z
1/2-x,1/2-y,1/2-z
1/2+x,1/2+y,1/2-z
1/2-x,1/2+y,1/2+z
1/2+x,1/2-y,1/2+z
loop_
_atom_site_type_symbol
_atom_site_label
_atom_site_fract_x
_atom_site_fract_y
_atom_site_fract_z
Si Si1 0.700784 0.319536 0.824483
Si Si2 0.054893 0.138876 0.173558
Si Si3 0.367025 0.570494 0.172709
Si Si4 0.400088 0.879158 0.325427
Si Si5 0.556048 0.236138 0.166288
Si Si6 0.192273 0.692896 0.173923
Si Si7 0.444860 0.000000 0.822882
O O1 0.673411 0.381648 0.769996
O O2 0.755426 0.327595 0.770446
O O3 0.676778 0.257300 0.755102
O O4 0.698257 0.312136 0.000000
O O5 0.085080 0.079786 0.231473
O O6 0.074842 0.199365 0.262093
O O7 0.000000 0.124866 0.208769
O O8 0.063223 0.150794 0.000000
O O9 0.348127 0.500000 0.199455
O O10 0.379237 0.582095 0.000000
O O11 0.408087 0.891307 0.500000
O O12 0.431528 0.820792 0.274301
O O13 0.344888 0.862928 0.288894
O O14 0.416723 0.939848 0.236040
O O15 0.500000 0.239331 0.155084
O O16 0.578045 0.227757 0.000000
O O17 0.191880 0.707911 0.000000
O O18 0.500000 0.000000 0.768223
O O19 0.443146 0.000000 0.000000
#
# Coordination Sequence:
#
# PCOD8290576 Si02
#       7
#    16  16  16  16  16  16   8
#     4   9  18  35  57  82 110 143 180 221 270 326
#     4  10  21  36  54  78 108 142 180 224 272 321
#     4  10  21  36  54  78 106 141 183 222 266 320
#     4  11  22  36  56  84 113 145 184 229 282 335
#     4  10  20  34  54  80 109 142 180 224 274 324
#     4   9  19  35  56  84 112 139 175 222 276 328
#     4  11  25  43  59  77 109 153 197 239 284 339
#
# _framework density 19.385694000000001
#
# number of rings (size 3 to 8) (size 9 to 14) (size 15 to 20)
#    0.000    2.077    0.000    3.000    0.000    9.231 
#    1.385    1.538    0.000    0.000    0.000    0.000 
#    0.000    0.000    0.000    0.000    0.000    0.000 
#
# Total GULP energy -644880.311280 kJ/mol
# GULP energy per Si atom -12401.544448 kJ/mol
# Density = 1.934157 g / cm^3
# Si number density = 19.385694 Si / 1000 Ang^3
#
#
#
# Elastic Constant Matrix: (Units=GPa)
#
#
# Indices 1 2 3 4 5 6 
#
# 1 88.6311 68.2877 44.8950 0.0000 0.0000 0.0000
# 2 68.2877 127.8559 36.3094 0.0000 0.0000 0.0000
# 3 44.8950 36.3094 61.7527 0.0000 0.0000 0.0000
# 4 0.0000 0.0000 0.0000 30.3823 0.0000 0.0000
# 5 0.0000 0.0000 0.0000 0.0000 26.9763 0.0000
# 6 0.0000 0.0000 0.0000 0.0000 0.0000 28.3166
#
#
#
# Elastic Compliance Matrix: (Units=1/GPa)
#
#
# Indices 1 2 3 4 5 6 
#
# 1 0.025306 -0.009953 -0.012546 0.000000 0.000000 0.000000
# 2 -0.009953 0.013304 -0.000586 0.000000 0.000000 0.000000
# 3 -0.012546 -0.000586 0.025659 0.000000 0.000000 0.000000
# 4 0.000000 0.000000 0.000000 0.032914 0.000000 0.000000
# 5 0.000000 0.000000 0.000000 0.000000 0.037070 0.000000
# 6 0.000000 0.000000 0.000000 0.000000 0.000000 0.035315
#
#
# Mechanical properties :
#
#
# Convention : Reuss Voigt Hill
#
# Bulk Modulus (GPa) = 55.25184 64.13599 59.69391
# Shear Modulus (GPa) = 22.54578 25.71821 24.13199
#
# Velocity S-wave (km/s) = 3.41399 3.64628 3.53205
# Velocity P-wave (km/s) = 6.64106 7.13325 6.89155
#
# Compressibility (1/GPa) = 0.01809895
#
# Stress axis : x y z
#
# Youngs Moduli (GPa) = 39.51594 75.16656 38.97237
#
# Poissons Ratio (x) = 0.74815 0.48893
# Poissons Ratio (y) = 0.39331 0.02285
# Poissons Ratio (z) = 0.49575 0.04407
#
# Static dielectric constant tensor:
#      x y z
#    x 3.746390 0.000000 0.000000 
#    y 0.000000 3.612690 0.000000 
#    z 0.000000 0.000000 3.595380 
# 
# 
# High freq. dielectric constant tensor:
#      x y z
#    x 1.760420 0.000000 0.000000 
#    y 0.000000 1.746390 0.000000 
#    z 0.000000 0.000000 1.756640 
# 
# From -- ./inp_files/15026.got.cif
#   From: 2010.06.25/outbox.cif.g09.slc.cpg/sg71_8_cif.got.tgz:15026.got - 2010.06.28 04:59:45.
