data_PCOD8290690
_publ_section_title
;
Structure prediction by ZEFSAII (Michael W. Deem and Ramdas Pophale) SiO2 
 PCOD8290690
Probable space group: I M M M
;
_chemical_formula_sum "Si O2"
_cell_formula_units_Z 80
_cell_length_a 25.398097
_cell_length_b 8.735085
_cell_length_c 18.237332
_cell_angle_alpha 90.000000
_cell_angle_beta 90.000000
_cell_angle_gamma 90.000000
_cell_volume 4046.034831
_symmetry_space_group_name_H-M "I M M M"
_symmetry_group_IT_number 71
_symmetry_cell_setting 'orthorhombic'
loop_
_space_group_symop_operation_xyz
x,y,z
-x,-y,z
x,-y,-z
-x,y,-z
-x,-y,-z
x,y,-z
-x,y,z
x,-y,z
1/2+x,1/2+y,1/2+z
1/2-x,1/2-y,1/2+z
1/2+x,1/2-y,1/2-z
1/2-x,1/2+y,1/2-z
1/2-x,1/2-y,1/2-z
1/2+x,1/2+y,1/2-z
1/2-x,1/2+y,1/2+z
1/2+x,1/2-y,1/2+z
loop_
_atom_site_type_symbol
_atom_site_label
_atom_site_fract_x
_atom_site_fract_y
_atom_site_fract_z
Si Si1 0.155930 0.176464 0.415376
Si Si2 0.748584 0.179630 0.830018
Si Si3 0.560479 0.822460 0.845155
Si Si4 0.154586 0.681509 0.084183
Si Si5 0.057905 0.681673 0.178910
O O1 0.168413 0.207777 0.500000
O O2 0.192839 0.282864 0.366364
O O3 0.095677 0.220392 0.398872
O O4 0.165981 0.000000 0.395504
O O5 0.750000 0.250000 0.750000
O O6 0.794223 0.246434 0.880345
O O7 0.755632 0.000000 0.823160
O O8 0.500000 0.793434 0.866419
O O9 0.571370 0.768787 0.761752
O O10 0.575111 0.000000 0.855044
O O11 0.158704 0.500000 0.092403
O O12 0.102421 0.746441 0.124492
O O13 0.151259 0.732371 0.000000
O O14 0.056159 0.500000 0.174697
O O15 0.000000 0.745623 0.156218
#
# Coordination Sequence:
#
# PCOD8290690 Si02
#       5
#    16  16  16  16  16
#     4  11  24  40  58  83 116 151 189 235 286 340
#     4  12  25  41  62  84 109 144 187 234 285 343
#     4   9  18  34  57  83 112 151 199 244 283 331
#     4  10  20  34  55  85 119 151 186 231 279 329
#     4   8  15  30  53  81 112 147 188 231 273 319
#
# _framework density 19.772444
#
# number of rings (size 3 to 8) (size 9 to 14) (size 15 to 20)
#    0.000    2.000    0.000    5.400    0.000    7.200 
#    0.000    4.000    0.000    1.800    0.000    1.400 
#    0.000    0.000    0.000    0.000    0.000    0.000 
#
# Total GULP energy -496086.725590 kJ/mol
# GULP energy per Si atom -12402.168140 kJ/mol
# Density = 1.972744 g / cm^3
# Si number density = 19.772444 Si / 1000 Ang^3
#
#
#
# Elastic Constant Matrix: (Units=GPa)
#
#
# Indices 1 2 3 4 5 6 
#
# 1 105.6688 18.5000 40.2747 0.0000 0.0000 0.0000
# 2 18.5000 26.8736 33.8611 0.0000 0.0000 0.0000
# 3 40.2747 33.8611 89.0240 0.0000 0.0000 0.0000
# 4 0.0000 0.0000 0.0000 26.7271 0.0000 0.0000
# 5 0.0000 0.0000 0.0000 0.0000 32.4856 0.0000
# 6 0.0000 0.0000 0.0000 0.0000 0.0000 27.0754
#
#
#
# Elastic Compliance Matrix: (Units=1/GPa)
#
#
# Indices 1 2 3 4 5 6 
#
# 1 0.011531 -0.002621 -0.004220 0.000000 0.000000 0.000000
# 2 -0.002621 0.072054 -0.026220 0.000000 0.000000 0.000000
# 3 -0.004220 -0.026220 0.023115 0.000000 0.000000 0.000000
# 4 0.000000 0.000000 0.000000 0.037415 0.000000 0.000000
# 5 0.000000 0.000000 0.000000 0.000000 0.030783 0.000000
# 6 0.000000 0.000000 0.000000 0.000000 0.000000 0.036934
#
#
# Mechanical properties :
#
#
# Convention : Reuss Voigt Hill
#
# Bulk Modulus (GPa) = 24.64445 45.20423 34.92434
# Shear Modulus (GPa) = 17.15390 25.85299 21.50344
#
# Velocity S-wave (km/s) = 2.94864 3.61990 3.30137
# Velocity P-wave (km/s) = 4.90752 6.35479 5.67746
#
# Compressibility (1/GPa) = 0.04057708
#
# Stress axis : x y z
#
# Youngs Moduli (GPa) = 86.72530 13.87857 43.26199
#
# Poissons Ratio (x) = 0.03638 0.18254
# Poissons Ratio (y) = 0.22732 1.13434
# Poissons Ratio (z) = 0.36594 0.36390
#
# Static dielectric constant tensor:
#      x y z
#    x 3.933290 0.000000 0.000000 
#    y 0.000000 3.331390 0.000000 
#    z 0.000000 0.000000 3.660480 
# 
# 
# High freq. dielectric constant tensor:
#      x y z
#    x 1.788360 0.000000 0.000000 
#    y 0.000000 1.744920 0.000000 
#    z 0.000000 0.000000 1.775790 
# 
# From -- ./inp_files/8350.got.cif
#   From: 2010.06.25/outbox.cif.g09.slc.cpg/sg71_5_cif.got.tgz:8350.got - 2010.06.28 04:59:45.
