data_PCOD8290008
_publ_section_title
;
Structure prediction by ZEFSAII (Michael W. Deem and Ramdas Pophale) SiO2 
 PCOD8290008
Probable space group: I M M M
;
_chemical_formula_sum "Si O2"
_cell_formula_units_Z 56
_cell_length_a 36.569899
_cell_length_b 8.713316
_cell_length_c 9.049995
_cell_angle_alpha 90.000000
_cell_angle_beta 90.000000
_cell_angle_gamma 90.000000
_cell_volume 2883.736436
_symmetry_space_group_name_H-M "I M M M"
_symmetry_group_IT_number 71
_symmetry_cell_setting 'orthorhombic'
loop_
_space_group_symop_operation_xyz
x,y,z
-x,-y,z
x,-y,-z
-x,y,-z
-x,-y,-z
x,y,-z
-x,y,z
x,-y,z
1/2+x,1/2+y,1/2+z
1/2-x,1/2-y,1/2+z
1/2+x,1/2-y,1/2-z
1/2-x,1/2+y,1/2-z
1/2-x,1/2-y,1/2-z
1/2+x,1/2+y,1/2-z
1/2-x,1/2+y,1/2+z
1/2+x,1/2-y,1/2+z
loop_
_atom_site_type_symbol
_atom_site_label
_atom_site_fract_x
_atom_site_fract_y
_atom_site_fract_z
Si Si1 0.571705 0.683051 0.666989
Si Si2 0.143296 0.817159 0.666891
Si Si3 0.000000 0.182995 0.333060
Si Si4 0.715419 0.318025 0.668424
O O1 0.571840 0.745998 0.500000
O O2 0.571793 0.500000 0.667187
O O3 0.607385 0.746808 0.750958
O O4 0.535804 0.746091 0.749711
O O5 0.143896 0.753418 0.500000
O O6 0.178946 0.755823 0.752142
O O7 0.142713 0.000000 0.666847
O O8 0.000000 0.246100 0.500000
O O9 0.000000 0.000000 0.332936
O O10 0.714967 0.260206 0.500000
O O11 0.717287 0.500000 0.676969
O O12 0.750000 0.250000 0.750000
#
# Coordination Sequence:
#
# PCOD8290008 Si02
#       4
#    16  16   8  16
#     4   9  15  22  32  47  69  98 133 172 212 255
#     4   9  16  26  40  57  78 106 140 177 217 262
#     4   9  15  21  29  43  65  95 132 171 210 253
#     4  10  20  33  49  69  92 119 152 189 229 273
#
# _framework density 19.419250999999999
#
# number of rings (size 3 to 8) (size 9 to 14) (size 15 to 20)
#    0.000    2.714    0.000    3.000    0.000   10.286 
#    0.000    0.000    0.000    0.000    0.000    0.000 
#    0.000    0.000    0.000    1.286    0.000   25.143 
#
# Total GULP energy -347193.481127 kJ/mol
# GULP energy per Si atom -12399.767183 kJ/mol
# Density = 1.937505 g / cm^3
# Si number density = 19.419251 Si / 1000 Ang^3
#
#
#
# Elastic Constant Matrix: (Units=GPa)
#
#
# Indices 1 2 3 4 5 6 
#
# 1 230.4835 8.6194 130.7588 0.0000 0.0000 0.0000
# 2 8.6194 1.8729 9.6902 0.0000 0.0000 0.0000
# 3 130.7588 9.6902 230.8739 0.0000 0.0000 0.0000
# 4 0.0000 0.0000 0.0000 10.7263 0.0000 0.0000
# 5 0.0000 0.0000 0.0000 0.0000 50.6673 0.0000
# 6 0.0000 0.0000 0.0000 0.0000 0.0000 15.3447
#
#
#
# Elastic Compliance Matrix: (Units=1/GPa)
#
#
# Indices 1 2 3 4 5 6 
#
# 1 0.006678 -0.014262 -0.003184 0.000000 0.000000 0.000000
# 2 -0.014262 0.712477 -0.021826 0.000000 0.000000 0.000000
# 3 -0.003184 -0.021826 0.007051 0.000000 0.000000 0.000000
# 4 0.000000 0.000000 0.000000 0.093229 0.000000 0.000000
# 5 0.000000 0.000000 0.000000 0.000000 0.019737 0.000000
# 6 0.000000 0.000000 0.000000 0.000000 0.000000 0.065169
#
#
# Mechanical properties :
#
#
# Convention : Reuss Voigt Hill
#
# Bulk Modulus (GPa) = 1.54402 84.59634 43.07018
# Shear Modulus (GPa) = 4.17094 36.29180 20.23137
#
# Velocity S-wave (km/s) = 1.46714 4.32772 3.23123
# Velocity P-wave (km/s) = 1.91489 8.28432 6.01235
#
# Compressibility (1/GPa) = 0.64766177
#
# Stress axis : x y z
#
# Youngs Moduli (GPa) = 149.73949 1.40355 141.83144
#
# Poissons Ratio (x) = 0.02002 0.45156
# Poissons Ratio (y) = 2.13555 3.09568
# Poissons Ratio (z) = 0.47673 0.03063
#
# Static dielectric constant tensor:
#      x y z
#    x 3.782740 0.000000 0.000000 
#    y 0.000000 2.703180 0.000000 
#    z 0.000000 0.000000 3.872950 
# 
# 
# High freq. dielectric constant tensor:
#      x y z
#    x 1.778100 0.000000 0.000000 
#    y 0.000000 1.663730 0.000000 
#    z 0.000000 0.000000 1.779090 
# 
# From -- ./inp_files/3553.got.cif
#   From: 2010.06.25/outbox.cif.g09.slc.cpg/sg71_2_cif.got.tgz:3553.got - 2010.06.28 04:59:45.
