data_PCOD8290303
_publ_section_title
;
Structure prediction by ZEFSAII (Michael W. Deem and Ramdas Pophale) SiO2 
 PCOD8290303
Probable space group: I M M M
;
_chemical_formula_sum "Si O2"
_cell_formula_units_Z 104
_cell_length_a 22.206910
_cell_length_b 13.635638
_cell_length_c 17.424218
_cell_angle_alpha 90.000000
_cell_angle_beta 90.000000
_cell_angle_gamma 90.000000
_cell_volume 5276.147055
_symmetry_space_group_name_H-M "I M M M"
_symmetry_group_IT_number 71
_symmetry_cell_setting 'orthorhombic'
loop_
_space_group_symop_operation_xyz
x,y,z
-x,-y,z
x,-y,-z
-x,y,-z
-x,-y,-z
x,y,-z
-x,y,z
x,-y,z
1/2+x,1/2+y,1/2+z
1/2-x,1/2-y,1/2+z
1/2+x,1/2-y,1/2-z
1/2-x,1/2+y,1/2-z
1/2-x,1/2-y,1/2-z
1/2+x,1/2+y,1/2-z
1/2-x,1/2+y,1/2+z
1/2+x,1/2-y,1/2+z
loop_
_atom_site_type_symbol
_atom_site_label
_atom_site_fract_x
_atom_site_fract_y
_atom_site_fract_z
Si Si1 0.738100 0.391789 0.656322
Si Si2 0.158287 0.387325 0.776340
Si Si3 0.567712 0.259215 0.205678
Si Si4 0.857018 0.887908 0.589417
Si Si5 0.067996 0.883829 0.000000
Si Si6 0.396874 0.389643 0.336776
Si Si7 0.271846 0.192793 0.586515
O O1 0.748085 0.500000 0.618612
O O2 0.782213 0.374134 0.726427
O O3 0.671579 0.385318 0.693107
O O4 0.746483 0.307653 0.592884
O O5 0.141335 0.500000 0.790845
O O6 0.102863 0.338455 0.731417
O O7 0.172729 0.334492 0.857275
O O8 0.500000 0.230813 0.179702
O O9 0.601013 0.313752 0.136188
O O10 0.561868 0.329476 0.279179
O O11 0.869690 0.867895 0.500000
O O12 0.786686 0.871200 0.607888
O O13 0.872993 0.000000 0.611791
O O14 0.100717 0.844220 0.076819
O O15 0.000000 0.845226 0.000000
O O16 0.071749 0.000000 0.000000
O O17 0.422344 0.500000 0.338105
O O18 0.292876 0.170694 0.500000
#
# Coordination Sequence:
#
# PCOD8290303 Si02
#       7
#    16  16  16  16   8  16  16
#     4  10  20  35  60  88 117 153 190 243 308 361
#     4  11  23  41  61  84 118 158 203 253 304 356
#     4  12  24  39  61  85 113 158 209 250 297 361
#     4  10  22  40  63  94 127 155 191 248 313 374
#     4   9  18  32  48  72 117 163 188 218 272 341
#     4  10  20  33  53  84 116 149 192 238 291 360
#     4  11  21  37  63  93 125 159 195 241 306 375
#
# _framework density 19.711354
#
# number of rings (size 3 to 8) (size 9 to 14) (size 15 to 20)
#    0.000    1.462    3.077    2.769    1.077    4.923 
#    0.000    0.769    0.000    0.462    0.000    2.154 
#    0.000    0.000    0.000    0.000    0.000    0.000 
#
# Total GULP energy -644812.133052 kJ/mol
# GULP energy per Si atom -12400.233328 kJ/mol
# Density = 1.966649 g / cm^3
# Si number density = 19.711354 Si / 1000 Ang^3
#
#
#
# Elastic Constant Matrix: (Units=GPa)
#
#
# Indices 1 2 3 4 5 6 
#
# 1 89.3031 34.5250 32.6404 0.0000 0.0000 0.0000
# 2 34.5250 118.8252 46.6753 0.0000 0.0000 0.0000
# 3 32.6404 46.6753 81.5542 0.0000 0.0000 0.0000
# 4 0.0000 0.0000 0.0000 23.8157 0.0000 0.0000
# 5 0.0000 0.0000 0.0000 0.0000 20.4253 0.0000
# 6 0.0000 0.0000 0.0000 0.0000 0.0000 20.7088
#
#
#
# Elastic Compliance Matrix: (Units=1/GPa)
#
#
# Indices 1 2 3 4 5 6 
#
# 1 0.013603 -0.002340 -0.004105 0.000000 0.000000 0.000000
# 2 -0.002340 0.011259 -0.005507 0.000000 0.000000 0.000000
# 3 -0.004105 -0.005507 0.017057 0.000000 0.000000 0.000000
# 4 0.000000 0.000000 0.000000 0.041989 0.000000 0.000000
# 5 0.000000 0.000000 0.000000 0.000000 0.048959 0.000000
# 6 0.000000 0.000000 0.000000 0.000000 0.000000 0.048289
#
#
# Mechanical properties :
#
#
# Convention : Reuss Voigt Hill
#
# Bulk Modulus (GPa) = 55.51230 57.48486 56.49858
# Shear Modulus (GPa) = 23.68950 24.71276 24.20113
#
# Velocity S-wave (km/s) = 3.47049 3.54465 3.50777
# Velocity P-wave (km/s) = 6.65453 6.78081 6.71797
#
# Compressibility (1/GPa) = 0.01801403
#
# Stress axis : x y z
#
# Youngs Moduli (GPa) = 73.51418 88.81912 58.62807
#
# Poissons Ratio (x) = 0.20782 0.24067
# Poissons Ratio (y) = 0.17201 0.32288
# Poissons Ratio (z) = 0.30178 0.48915
#
# Static dielectric constant tensor:
#      x y z
#    x 3.402580 0.000000 0.000000 
#    y 0.000000 3.697010 0.000000 
#    z 0.000000 0.000000 3.568040 
# 
# 
# High freq. dielectric constant tensor:
#      x y z
#    x 1.751110 0.000000 0.000000 
#    y 0.000000 1.764160 0.000000 
#    z 0.000000 0.000000 1.767700 
# 
# From -- ./inp_files/47304.got.cif
#   From: 2010.06.25/outbox.cif.g09.slc.cpg/sg71_24_cif.got.tgz:47304.got - 2010.06.28 04:59:45.
