data_PCOD8290005
_publ_section_title
;
Structure prediction by ZEFSAII (Michael W. Deem and Ramdas Pophale) SiO2 
 PCOD8290005
Probable space group: I M M M
;
_chemical_formula_sum "Si O2"
_cell_formula_units_Z 56
_cell_length_a 8.612458
_cell_length_b 9.206083
_cell_length_c 36.952980
_cell_angle_alpha 90.000000
_cell_angle_beta 90.000000
_cell_angle_gamma 90.000000
_cell_volume 2929.891043
_symmetry_space_group_name_H-M "I M M M"
_symmetry_group_IT_number 71
_symmetry_cell_setting 'orthorhombic'
loop_
_space_group_symop_operation_xyz
x,y,z
-x,-y,z
x,-y,-z
-x,y,-z
-x,-y,-z
x,y,-z
-x,y,z
x,-y,z
1/2+x,1/2+y,1/2+z
1/2-x,1/2-y,1/2+z
1/2+x,1/2-y,1/2-z
1/2-x,1/2+y,1/2-z
1/2-x,1/2-y,1/2-z
1/2+x,1/2+y,1/2-z
1/2-x,1/2+y,1/2+z
1/2+x,1/2-y,1/2+z
loop_
_atom_site_type_symbol
_atom_site_label
_atom_site_fract_x
_atom_site_fract_y
_atom_site_fract_z
Si Si1 0.814964 0.663523 0.353843
Si Si2 0.670197 0.672547 0.000000
Si Si3 0.815739 0.165315 0.283921
Si Si4 0.186035 0.836495 0.422435
O O1 0.751085 0.500000 0.350176
O O2 0.752808 0.757558 0.320194
O O3 0.749536 0.731885 0.391059
O O4 0.000000 0.665248 0.354381
O O5 0.753391 0.716647 0.038094
O O6 0.652484 0.500000 0.000000
O O7 0.500000 0.745210 0.000000
O O8 0.750000 0.250000 0.250000
O O9 0.000000 0.170354 0.282596
O O10 0.754823 0.000000 0.283448
O O11 0.000000 0.833161 0.424111
O O12 0.242211 0.000000 0.413716
#
# Coordination Sequence:
#
# PCOD8290005 Si02
#       4
#    16   8  16  16
#     4   9  16  25  37  54  77 105 137 173 212 254
#     4   7  10  16  27  43  63  91 128 167 204 243
#     4  10  20  33  49  68  89 115 147 182 221 264
#     4   8  12  19  31  46  66  95 132 170 206 247
#
# _framework density 19.113339
#
# number of rings (size 3 to 8) (size 9 to 14) (size 15 to 20)
#    0.000    3.286    0.000    3.429    0.000    5.143 
#    0.000    0.714    0.000    4.286    0.000    0.000 
#    0.000    0.000    0.000    1.286    0.000   26.286 
#
# Total GULP energy -346899.521108 kJ/mol
# GULP energy per Si atom -12389.268611 kJ/mol
# Density = 1.906984 g / cm^3
# Si number density = 19.113339 Si / 1000 Ang^3
#
#
#
# Elastic Constant Matrix: (Units=GPa)
#
#
# Indices 1 2 3 4 5 6 
#
# 1 2.2161 8.0180 7.9042 0.0000 0.0000 0.0000
# 2 8.0180 158.2825 108.9705 0.0000 0.0000 0.0000
# 3 7.9042 108.9705 227.2188 0.0000 0.0000 0.0000
# 4 0.0000 0.0000 0.0000 37.0665 0.0000 0.0000
# 5 0.0000 0.0000 0.0000 0.0000 13.3130 0.0000
# 6 0.0000 0.0000 0.0000 0.0000 0.0000 10.5989
#
#
#
# Elastic Compliance Matrix: (Units=1/GPa)
#
#
# Indices 1 2 3 4 5 6 
#
# 1 0.564148 -0.022494 -0.008837 0.000000 0.000000 0.000000
# 2 -0.022494 0.010329 -0.004171 0.000000 0.000000 0.000000
# 3 -0.008837 -0.004171 0.006709 0.000000 0.000000 0.000000
# 4 0.000000 0.000000 0.000000 0.026979 0.000000 0.000000
# 5 0.000000 0.000000 0.000000 0.000000 0.075114 0.000000
# 6 0.000000 0.000000 0.000000 0.000000 0.000000 0.094349
#
#
# Mechanical properties :
#
#
# Convention : Reuss Voigt Hill
#
# Bulk Modulus (GPa) = 1.96008 70.83362 36.39685
# Shear Modulus (GPa) = 4.90825 29.71732 17.31279
#
# Velocity S-wave (km/s) = 1.60423 3.94737 3.01291
# Velocity P-wave (km/s) = 2.11166 7.61025 5.58458
#
# Compressibility (1/GPa) = 0.51018211
#
# Stress axis : x y z
#
# Youngs Moduli (GPa) = 1.77258 96.81602 149.05687
#
# Poissons Ratio (x) = 2.17774 1.31725
# Poissons Ratio (y) = 0.03987 0.62173
# Poissons Ratio (z) = 0.01566 0.40383
#
# Static dielectric constant tensor:
#      x y z
#    x 2.688950 0.000000 0.000000 
#    y 0.000000 3.558890 0.000000 
#    z 0.000000 0.000000 3.847130 
# 
# 
# High freq. dielectric constant tensor:
#      x y z
#    x 1.651990 0.000000 0.000000 
#    y 0.000000 1.732430 0.000000 
#    z 0.000000 0.000000 1.773800 
# 
# From -- ./inp_files/68768.got.cif
#   From: 2010.06.25/outbox.cif.g09.slc.cpg/sg71_35_cif.got.tgz:68768.got - 2010.06.28 04:59:45.
