data_PCOD8290103
_publ_section_title
;
Structure prediction by ZEFSAII (Michael W. Deem and Ramdas Pophale) SiO2 
 PCOD8290103
Probable space group: I M M M
;
_chemical_formula_sum "Si O2"
_cell_formula_units_Z 120
_cell_length_a 8.849279
_cell_length_b 27.956208
_cell_length_c 26.662406
_cell_angle_alpha 90.000000
_cell_angle_beta 90.000000
_cell_angle_gamma 90.000000
_cell_volume 6596.073527
_symmetry_space_group_name_H-M "I M M M"
_symmetry_group_IT_number 71
_symmetry_cell_setting 'orthorhombic'
loop_
_space_group_symop_operation_xyz
x,y,z
-x,-y,z
x,-y,-z
-x,y,-z
-x,-y,-z
x,y,-z
-x,y,z
x,-y,z
1/2+x,1/2+y,1/2+z
1/2-x,1/2-y,1/2+z
1/2+x,1/2-y,1/2-z
1/2-x,1/2+y,1/2-z
1/2-x,1/2-y,1/2-z
1/2+x,1/2+y,1/2-z
1/2-x,1/2+y,1/2+z
1/2+x,1/2-y,1/2+z
loop_
_atom_site_type_symbol
_atom_site_label
_atom_site_fract_x
_atom_site_fract_y
_atom_site_fract_z
Si Si1 0.179142 0.445789 0.297486
Si Si2 0.326493 0.303002 0.443623
Si Si3 0.675690 0.359786 0.347866
Si Si4 0.328774 0.294300 0.940989
Si Si5 0.178247 0.609137 0.798562
Si Si6 0.679060 0.199409 0.237657
Si Si7 0.821677 0.388094 0.090547
Si Si8 0.177442 0.055323 0.500000
O O1 0.230879 0.500000 0.306906
O O2 0.256438 0.412492 0.339181
O O3 0.235216 0.429808 0.241996
O O4 0.000000 0.439692 0.302034
O O5 0.282767 0.319518 0.500000
O O6 0.500000 0.286215 0.441351
O O7 0.297269 0.347157 0.406263
O O8 0.225939 0.258365 0.426018
O O9 0.500000 0.359619 0.333620
O O10 0.759693 0.319744 0.315178
O O11 0.500000 0.301180 0.922038
O O12 0.220262 0.332683 0.915276
O O13 0.317221 0.302308 0.000000
O O14 0.229258 0.662072 0.780979
O O15 0.238343 0.596473 0.854131
O O16 0.000000 0.608023 0.800852
O O17 0.500000 0.204328 0.233974
O O18 0.750000 0.250000 0.250000
O O19 0.741771 0.421097 0.049973
O O20 0.000000 0.394336 0.084444
O O21 0.000000 0.063631 0.500000
O O22 0.222947 0.000000 0.500000
#
# Coordination Sequence:
#
# PCOD8290103 Si02
#       8
#    16  16  16  16  16  16  16   8
#     4   9  18  36  60  81 105 139 176 218 272 329
#     4   9  19  35  54  77 108 147 187 220 257 311
#     4  10  20  34  54  81 111 142 179 224 268 315
#     4  10  20  33  50  74 106 141 176 216 264 312
#     4   8  18  34  52  77 105 134 173 220 265 315
#     4  10  20  35  52  75 109 146 181 217 267 324
#     4  11  21  35  57  79 101 134 177 224 269 321
#     4  11  25  43  57  73 103 139 175 225 284 329
#
# _framework density 18.192640999999998
#
# number of rings (size 3 to 8) (size 9 to 14) (size 15 to 20)
#    0.000    2.333    0.667    2.600    1.867    2.933 
#    0.000    7.333    0.000    0.400    0.000    2.800 
#    0.000    0.000    0.000    0.000    0.000    0.000 
#
# Total GULP energy -743936.283086 kJ/mol
# GULP energy per Si atom -12398.938051 kJ/mol
# Density = 1.815123 g / cm^3
# Si number density = 18.192641 Si / 1000 Ang^3
#
#
#
# Elastic Constant Matrix: (Units=GPa)
#
#
# Indices 1 2 3 4 5 6 
#
# 1 61.0492 47.0569 36.2685 0.0000 0.0000 0.0000
# 2 47.0569 138.0813 69.0260 0.0000 0.0000 0.0000
# 3 36.2685 69.0260 116.3725 0.0000 0.0000 0.0000
# 4 0.0000 0.0000 0.0000 19.6147 0.0000 0.0000
# 5 0.0000 0.0000 0.0000 0.0000 22.6167 0.0000
# 6 0.0000 0.0000 0.0000 0.0000 0.0000 29.9861
#
#
#
# Elastic Compliance Matrix: (Units=1/GPa)
#
#
# Indices 1 2 3 4 5 6 
#
# 1 0.023240 -0.006111 -0.003618 0.000000 0.000000 0.000000
# 2 -0.006111 0.011902 -0.005155 0.000000 0.000000 0.000000
# 3 -0.003618 -0.005155 0.012778 0.000000 0.000000 0.000000
# 4 0.000000 0.000000 0.000000 0.050982 0.000000 0.000000
# 5 0.000000 0.000000 0.000000 0.000000 0.044215 0.000000
# 6 0.000000 0.000000 0.000000 0.000000 0.000000 0.033349
#
#
# Mechanical properties :
#
#
# Convention : Reuss Voigt Hill
#
# Bulk Modulus (GPa) = 55.09122 68.91177 62.00149
# Shear Modulus (GPa) = 23.55318 25.32027 24.43672
#
# Velocity S-wave (km/s) = 3.60203 3.73471 3.66897
# Velocity P-wave (km/s) = 6.90271 7.52054 7.21824
#
# Compressibility (1/GPa) = 0.01815171
#
# Stress axis : x y z
#
# Youngs Moduli (GPa) = 43.02852 84.02178 78.25812
#
# Poissons Ratio (x) = 0.51350 0.28314
# Poissons Ratio (y) = 0.26297 0.40340
# Poissons Ratio (z) = 0.15568 0.43311
#
# Static dielectric constant tensor:
#      x y z
#    x 3.353140 0.000000 0.000000 
#    y 0.000000 3.318730 0.000000 
#    z 0.000000 0.000000 3.597520 
# 
# 
# High freq. dielectric constant tensor:
#      x y z
#    x 1.702620 0.000000 0.000000 
#    y 0.000000 1.694990 0.000000 
#    z 0.000000 0.000000 1.703390 
# 
# From -- ./inp_files/63857.got.cif
#   From: 2010.06.25/outbox.cif.g09.slc.cpg/sg71_32_cif.got.tgz:63857.got - 2010.06.28 04:59:45.
