data_PCOD8290448
_publ_section_title
;
Structure prediction by ZEFSAII (Michael W. Deem and Ramdas Pophale) SiO2 
 PCOD8290448
Probable space group: I M M M
;
_chemical_formula_sum "Si O2"
_cell_formula_units_Z 80
_cell_length_a 25.205941
_cell_length_b 19.547714
_cell_length_c 9.056905
_cell_angle_alpha 90.000000
_cell_angle_beta 90.000000
_cell_angle_gamma 90.000000
_cell_volume 4462.504880
_symmetry_space_group_name_H-M "I M M M"
_symmetry_group_IT_number 71
_symmetry_cell_setting 'orthorhombic'
loop_
_space_group_symop_operation_xyz
x,y,z
-x,-y,z
x,-y,-z
-x,y,-z
-x,-y,-z
x,y,-z
-x,y,z
x,-y,z
1/2+x,1/2+y,1/2+z
1/2-x,1/2-y,1/2+z
1/2+x,1/2-y,1/2-z
1/2-x,1/2+y,1/2-z
1/2-x,1/2-y,1/2-z
1/2+x,1/2+y,1/2-z
1/2-x,1/2+y,1/2+z
1/2+x,1/2-y,1/2+z
loop_
_atom_site_type_symbol
_atom_site_label
_atom_site_fract_x
_atom_site_fract_y
_atom_site_fract_z
Si Si1 0.605863 0.419746 0.327730
Si Si2 0.690534 0.814309 0.670780
Si Si3 0.687530 0.676205 0.172316
Si Si4 0.896543 0.422432 0.172072
Si Si5 0.500000 0.081411 0.833746
Si Si6 0.500000 0.418722 0.167142
O O1 0.601901 0.402854 0.500000
O O2 0.613507 0.500000 0.298797
O O3 0.656118 0.382275 0.258049
O O4 0.552247 0.391873 0.251083
O O5 0.684077 0.793448 0.500000
O O6 0.671247 0.750816 0.768953
O O7 0.750570 0.836091 0.705820
O O8 0.654863 0.878860 0.714403
O O9 0.674157 0.671352 0.000000
O O10 0.885072 0.500000 0.223423
O O11 0.947388 0.390494 0.254357
O O12 0.909338 0.419304 0.000000
O O13 0.500000 0.000000 0.823776
O O14 0.500000 0.108657 0.000000
O O15 0.500000 0.500000 0.168750
O O16 0.500000 0.390324 0.000000
#
# Coordination Sequence:
#
# PCOD8290448 Si02
#       6
#    16  16  16  16   8   8
#     4  10  20  34  53  77 105 136 169 206 250 302
#     4   9  19  35  53  73 100 134 170 209 254 302
#     4  10  20  34  53  75 101 134 170 210 254 300
#     4   9  17  31  52  75  98 128 166 204 243 292
#     4   9  17  29  46  71 102 131 158 196 248 297
#     4   9  17  31  52  77 104 133 166 206 252 299
#
# _framework density 17.927152
#
# number of rings (size 3 to 8) (size 9 to 14) (size 15 to 20)
#    0.000    2.600    0.000    1.800    0.000    6.000 
#    0.000    3.000    0.000    6.000    0.000    0.000 
#    0.000    0.000    0.000    0.000    0.000    0.000 
#
# Total GULP energy -496081.002019 kJ/mol
# GULP energy per Si atom -12402.025050 kJ/mol
# Density = 1.788635 g / cm^3
# Si number density = 17.927152 Si / 1000 Ang^3
#
#
#
# Elastic Constant Matrix: (Units=GPa)
#
#
# Indices 1 2 3 4 5 6 
#
# 1 122.0134 63.4489 65.7370 0.0000 0.0000 0.0000
# 2 63.4489 71.9343 52.2858 0.0000 0.0000 0.0000
# 3 65.7370 52.2858 109.6734 0.0000 0.0000 0.0000
# 4 0.0000 0.0000 0.0000 27.5619 0.0000 0.0000
# 5 0.0000 0.0000 0.0000 0.0000 32.5262 0.0000
# 6 0.0000 0.0000 0.0000 0.0000 0.0000 9.2344
#
#
#
# Elastic Compliance Matrix: (Units=1/GPa)
#
#
# Indices 1 2 3 4 5 6 
#
# 1 0.016480 -0.011257 -0.004511 0.000000 0.000000 0.000000
# 2 -0.011257 0.028963 -0.007060 0.000000 0.000000 0.000000
# 3 -0.004511 -0.007060 0.015188 0.000000 0.000000 0.000000
# 4 0.000000 0.000000 0.000000 0.036282 0.000000 0.000000
# 5 0.000000 0.000000 0.000000 0.000000 0.030744 0.000000
# 6 0.000000 0.000000 0.000000 0.000000 0.000000 0.108290
#
#
# Mechanical properties :
#
#
# Convention : Reuss Voigt Hill
#
# Bulk Modulus (GPa) = 66.78543 74.06273 70.42408
# Shear Modulus (GPa) = 17.44613 22.00779 19.72696
#
# Velocity S-wave (km/s) = 3.12295 3.50755 3.32082
# Velocity P-wave (km/s) = 7.09496 7.60307 7.35340
#
# Compressibility (1/GPa) = 0.01497333
#
# Stress axis : x y z
#
# Youngs Moduli (GPa) = 60.67843 34.52718 65.84172
#
# Poissons Ratio (x) = 0.38868 0.29703
# Poissons Ratio (y) = 0.68307 0.46486
# Poissons Ratio (z) = 0.27374 0.24377
#
# Static dielectric constant tensor:
#      x y z
#    x 3.413410 0.000000 0.000000 
#    y 0.000000 3.101170 0.000000 
#    z 0.000000 0.000000 3.419400 
# 
# 
# High freq. dielectric constant tensor:
#      x y z
#    x 1.701700 0.000000 0.000000 
#    y 0.000000 1.667590 0.000000 
#    z 0.000000 0.000000 1.702860 
# 
# From -- ./inp_files/12386.got.cif
#   From: 2010.06.25/outbox.cif.g09.slc.cpg/sg71_7_cif.got.tgz:12386.got - 2010.06.28 04:59:45.
