data_PCOD8290899
_publ_section_title
;
Structure prediction by ZEFSAII (Michael W. Deem and Ramdas Pophale) SiO2 
 PCOD8290899
Probable space group: I M M M
;
_chemical_formula_sum "Si O2"
_cell_formula_units_Z 104
_cell_length_a 27.250655
_cell_length_b 9.244219
_cell_length_c 21.892807
_cell_angle_alpha 90.000000
_cell_angle_beta 90.000000
_cell_angle_gamma 90.000000
_cell_volume 5515.039401
_symmetry_space_group_name_H-M "I M M M"
_symmetry_group_IT_number 71
_symmetry_cell_setting 'orthorhombic'
loop_
_space_group_symop_operation_xyz
x,y,z
-x,-y,z
x,-y,-z
-x,y,-z
-x,-y,-z
x,y,-z
-x,y,z
x,-y,z
1/2+x,1/2+y,1/2+z
1/2-x,1/2-y,1/2+z
1/2+x,1/2-y,1/2-z
1/2-x,1/2+y,1/2-z
1/2-x,1/2-y,1/2-z
1/2+x,1/2+y,1/2-z
1/2-x,1/2+y,1/2+z
1/2+x,1/2-y,1/2+z
loop_
_atom_site_type_symbol
_atom_site_label
_atom_site_fract_x
_atom_site_fract_y
_atom_site_fract_z
Si Si1 0.171700 0.329955 0.500000
Si Si2 0.577333 0.331195 0.654000
Si Si3 0.000000 0.328337 0.927886
Si Si4 0.943413 0.834853 0.709203
Si Si5 0.682147 0.340971 0.395729
Si Si6 0.633012 0.170969 0.869652
Si Si7 0.229439 0.659245 0.695659
Si Si8 0.275393 0.830608 0.500000
O O1 0.184212 0.500000 0.500000
O O2 0.139864 0.285876 0.559274
O O3 0.223588 0.249881 0.500000
O O4 0.562858 0.500000 0.647421
O O5 0.547952 0.240222 0.603537
O O6 0.564851 0.275127 0.722115
O O7 0.634877 0.302531 0.644675
O O8 0.000000 0.500000 0.917492
O O9 0.000000 0.290595 0.000000
O O10 0.914851 0.744552 0.658175
O O11 0.000000 0.820692 0.691651
O O12 0.925109 0.000000 0.706258
O O13 0.674543 0.500000 0.426615
O O14 0.730311 0.348971 0.355873
O O15 0.690650 0.213731 0.443436
O O16 0.680211 0.228828 0.832300
O O17 0.627481 0.000000 0.863439
O O18 0.217344 0.500000 0.720868
O O19 0.250000 0.750000 0.750000
O O20 0.265492 0.000000 0.500000
#
# Coordination Sequence:
#
# PCOD8290899 Si02
#       8
#     8  16   8  16  16  16  16   8
#     4  10  20  42  65  83 119 164 206 246 293 366
#     4  10  21  40  65  87 111 155 209 246 288 358
#     4  11  25  41  57  83 123 158 191 252 315 351
#     4  10  21  40  64  89 119 153 196 254 307 356
#     4  10  21  38  59  82 113 154 192 233 283 345
#     4  10  21  37  62  89 116 156 201 248 301 360
#     4  10  20  35  56  83 116 152 188 233 289 346
#     4  12  24  36  56  86 120 156 196 245 290 346
#
# _framework density 18.857526
#
# number of rings (size 3 to 8) (size 9 to 14) (size 15 to 20)
#    0.000    1.769    2.308    1.846    1.077    5.231 
#    0.000    0.385    0.000    2.308    0.000    0.000 
#    0.000    0.000    0.000    0.000    0.000    0.000 
#
# Total GULP energy -644794.154102 kJ/mol
# GULP energy per Si atom -12399.887579 kJ/mol
# Density = 1.881461 g / cm^3
# Si number density = 18.857526 Si / 1000 Ang^3
#
#
#
# Elastic Constant Matrix: (Units=GPa)
#
#
# Indices 1 2 3 4 5 6 
#
# 1 102.8249 31.2328 42.4647 0.0000 0.0000 0.0000
# 2 31.2328 66.6574 50.5805 0.0000 0.0000 0.0000
# 3 42.4647 50.5805 127.4358 0.0000 0.0000 0.0000
# 4 0.0000 0.0000 0.0000 32.3931 0.0000 0.0000
# 5 0.0000 0.0000 0.0000 0.0000 35.4604 0.0000
# 6 0.0000 0.0000 0.0000 0.0000 0.0000 32.5254
#
#
#
# Elastic Compliance Matrix: (Units=1/GPa)
#
#
# Indices 1 2 3 4 5 6 
#
# 1 0.011871 -0.003664 -0.002501 0.000000 0.000000 0.000000
# 2 -0.003664 0.022599 -0.007749 0.000000 0.000000 0.000000
# 3 -0.002501 -0.007749 0.011756 0.000000 0.000000 0.000000
# 4 0.000000 0.000000 0.000000 0.030871 0.000000 0.000000
# 5 0.000000 0.000000 0.000000 0.000000 0.028200 0.000000
# 6 0.000000 0.000000 0.000000 0.000000 0.000000 0.030745
#
#
# Mechanical properties :
#
#
# Convention : Reuss Voigt Hill
#
# Bulk Modulus (GPa) = 54.35511 60.60823 57.48167
# Shear Modulus (GPa) = 29.41110 31.58513 30.49812
#
# Velocity S-wave (km/s) = 3.95352 4.09704 4.02592
# Velocity P-wave (km/s) = 7.05175 7.38856 7.22212
#
# Compressibility (1/GPa) = 0.01839753
#
# Stress axis : x y z
#
# Youngs Moduli (GPa) = 84.23657 44.25018 85.06202
#
# Poissons Ratio (x) = 0.16215 0.21278
# Poissons Ratio (y) = 0.30867 0.65912
# Poissons Ratio (z) = 0.21071 0.34288
#
# Static dielectric constant tensor:
#      x y z
#    x 3.452180 0.000000 0.000000 
#    y 0.000000 3.302450 0.000000 
#    z 0.000000 0.000000 3.416050 
# 
# 
# High freq. dielectric constant tensor:
#      x y z
#    x 1.738100 0.000000 0.000000 
#    y 0.000000 1.721570 0.000000 
#    z 0.000000 0.000000 1.734580 
# 
# From -- ./inp_files/15080.got.cif
#   From: 2010.06.25/outbox.cif.g09.slc.cpg/sg71_8_cif.got.tgz:15080.got - 2010.06.28 04:59:45.
