data_PCOD8290367
_publ_section_title
;
Structure prediction by ZEFSAII (Michael W. Deem and Ramdas Pophale) SiO2 
 PCOD8290367
Probable space group: I M M M
;
_chemical_formula_sum "Si O2"
_cell_formula_units_Z 88
_cell_length_a 18.181244
_cell_length_b 30.634697
_cell_length_c 8.980856
_cell_angle_alpha 90.000000
_cell_angle_beta 90.000000
_cell_angle_gamma 90.000000
_cell_volume 5002.129343
_symmetry_space_group_name_H-M "I M M M"
_symmetry_group_IT_number 71
_symmetry_cell_setting 'orthorhombic'
loop_
_space_group_symop_operation_xyz
x,y,z
-x,-y,z
x,-y,-z
-x,y,-z
-x,-y,-z
x,y,-z
-x,y,z
x,-y,z
1/2+x,1/2+y,1/2+z
1/2-x,1/2-y,1/2+z
1/2+x,1/2-y,1/2-z
1/2-x,1/2+y,1/2-z
1/2-x,1/2-y,1/2-z
1/2+x,1/2+y,1/2-z
1/2-x,1/2+y,1/2+z
1/2+x,1/2-y,1/2+z
loop_
_atom_site_type_symbol
_atom_site_label
_atom_site_fract_x
_atom_site_fract_y
_atom_site_fract_z
Si Si1 0.796681 0.116651 0.675074
Si Si2 0.916655 0.674422 0.669638
Si Si3 0.579836 0.000000 0.176978
Si Si4 0.657137 0.085389 0.830650
Si Si5 0.583090 0.549185 0.177144
Si Si6 0.273042 0.205369 0.676374
O O1 0.805282 0.117562 0.500000
O O2 0.723883 0.091641 0.719555
O O3 0.865530 0.088652 0.742315
O O4 0.784066 0.166981 0.731019
O O5 0.905321 0.690942 0.500000
O O6 0.904574 0.622656 0.678007
O O7 0.857155 0.697186 0.775297
O O8 0.000000 0.685046 0.723021
O O9 0.621608 0.042144 0.233994
O O10 0.500000 0.000000 0.250840
O O11 0.573843 0.000000 0.000000
O O12 0.686460 0.080854 0.000000
O O13 0.500000 0.558512 0.232391
O O14 0.607318 0.500000 0.230547
O O15 0.586322 0.550033 0.000000
O O16 0.270860 0.209586 0.500000
O O17 0.250000 0.250000 0.750000
#
# Coordination Sequence:
#
# PCOD8290367 Si02
#       6
#    16  16   8  16  16  16
#     4   9  18  31  48  71  95 122 157 198 241 286
#     4   9  17  31  51  72  94 124 163 202 241 287
#     4   9  16  26  41  63  92 125 160 194 225 263
#     4   9  17  28  44  67  94 126 161 195 231 275
#     4   8  14  26  46  71  96 123 156 194 237 286
#     4  10  20  34  51  72  99 128 161 202 251 301
#
# _framework density 17.592507999999999
#
# number of rings (size 3 to 8) (size 9 to 14) (size 15 to 20)
#    0.000    3.000    0.000    1.636    1.273    3.273 
#    0.000    0.909    0.000    6.000    0.000    1.273 
#    0.000    0.000    0.000    0.000    0.000    0.000 
#
# Total GULP energy -545094.122381 kJ/mol
# GULP energy per Si atom -12388.502781 kJ/mol
# Density = 1.755247 g / cm^3
# Si number density = 17.592508 Si / 1000 Ang^3
#
#
#
# Elastic Constant Matrix: (Units=GPa)
#
#
# Indices 1 2 3 4 5 6 
#
# 1 115.2424 81.1316 19.0992 -0.0008 -0.0003 -0.0007
# 2 81.1316 152.6537 29.9249 -0.0005 0.0006 0.0002
# 3 19.0992 29.9249 16.1210 -0.0015 0.0012 -0.0032
# 4 -0.0008 -0.0005 -0.0015 18.0464 0.0004 0.0001
# 5 -0.0003 0.0006 0.0012 0.0004 22.8326 0.0008
# 6 -0.0007 0.0002 -0.0032 0.0001 0.0008 21.6577
#
#
#
# Elastic Compliance Matrix: (Units=1/GPa)
#
#
# Indices 1 2 3 4 5 6 
#
# 1 0.014059 -0.006613 -0.004380 0.000000 0.000001 0.000000
# 2 -0.006613 0.013409 -0.017056 -0.000001 0.000000 -0.000003
# 3 -0.004380 -0.017056 0.098880 0.000008 -0.000005 0.000015
# 4 0.000000 -0.000001 0.000008 0.055413 -0.000001 0.000000
# 5 0.000001 0.000000 -0.000005 -0.000001 0.043797 -0.000002
# 6 0.000000 -0.000003 0.000015 0.000000 -0.000002 0.046173
#
#
# Mechanical properties :
#
#
# Convention : Reuss Voigt Hill
#
# Bulk Modulus (GPa) = 14.23492 60.48093 37.35793
# Shear Modulus (GPa) = 14.23504 22.76478 18.49991
#
# Velocity S-wave (km/s) = 2.84765 3.60113 3.24632
# Velocity P-wave (km/s) = 4.34985 7.19335 5.94413
#
# Compressibility (1/GPa) = 0.07024977
#
# Stress axis : x y z
#
# Youngs Moduli (GPa) = 71.12764 74.57632 10.11327
#
# Poissons Ratio (x) = 0.49321 0.04430
# Poissons Ratio (y) = 0.47040 0.17249
# Poissons Ratio (z) = 0.31155 1.27194
#
# Static dielectric constant tensor:
#      x y z
#    x 3.419020 0.000000 0.000000 
#    y 0.000000 3.519400 0.000000 
#    z 0.000000 0.000000 2.959800 
# 
# 
# High freq. dielectric constant tensor:
#      x y z
#    x 1.677040 0.000000 0.000000 
#    y 0.000000 1.682380 0.000000 
#    z 0.000000 0.000000 1.646410 
# 
# From -- ./inp_files/8793.got.cif
#   From: 2010.06.25/outbox.cif.g09.slc.cpg/sg71_5_cif.got.tgz:8793.got - 2010.06.28 04:59:45.
