data_PCOD8290945
_publ_section_title
;
Structure prediction by ZEFSAII (Michael W. Deem and Ramdas Pophale) SiO2 
 PCOD8290945
Probable space group: I M M M
;
_chemical_formula_sum "Si O2"
_cell_formula_units_Z 72
_cell_length_a 18.280234
_cell_length_b 11.816805
_cell_length_c 17.272836
_cell_angle_alpha 90.000000
_cell_angle_beta 90.000000
_cell_angle_gamma 90.000000
_cell_volume 3731.173714
_symmetry_space_group_name_H-M "I M M M"
_symmetry_group_IT_number 71
_symmetry_cell_setting 'orthorhombic'
loop_
_space_group_symop_operation_xyz
x,y,z
-x,-y,z
x,-y,-z
-x,y,-z
-x,-y,-z
x,y,-z
-x,y,z
x,-y,z
1/2+x,1/2+y,1/2+z
1/2-x,1/2-y,1/2+z
1/2+x,1/2-y,1/2-z
1/2-x,1/2+y,1/2-z
1/2-x,1/2-y,1/2-z
1/2+x,1/2+y,1/2-z
1/2-x,1/2+y,1/2+z
1/2+x,1/2-y,1/2+z
loop_
_atom_site_type_symbol
_atom_site_label
_atom_site_fract_x
_atom_site_fract_y
_atom_site_fract_z
Si Si1 0.583985 0.622571 0.771398
Si Si2 0.085344 0.500000 0.091836
Si Si3 0.082839 0.727791 0.411732
Si Si4 0.282824 0.875699 0.159211
Si Si5 0.169669 0.697322 0.822356
O O1 0.500000 0.609846 0.751931
O O2 0.622773 0.500000 0.761655
O O3 0.596594 0.661293 0.859828
O O4 0.613470 0.712172 0.710979
O O5 0.126661 0.388213 0.122141
O O6 0.000000 0.500000 0.118918
O O7 0.090267 0.500000 0.000000
O O8 0.097043 0.762714 0.500000
O O9 0.139165 0.631650 0.384158
O O10 0.000000 0.681280 0.400015
O O11 0.230421 0.772287 0.131247
O O12 0.291975 0.869921 0.252336
O O13 0.250456 0.000000 0.139156
#
# Coordination Sequence:
#
# PCOD8290945 Si02
#       5
#    16   8  16  16  16
#     4   9  17  31  55  84 110 143 185 231 284 338
#     4  11  24  42  64  88 116 154 196 243 298 348
#     4   9  19  34  50  77 117 156 194 233 276 336
#     4  10  20  35  57  84 112 153 190 236 292 346
#     4  10  20  37  58  83 115 143 189 242 290 344
#
# _framework density 19.296876999999999
#
# number of rings (size 3 to 8) (size 9 to 14) (size 15 to 20)
#    0.000    2.333    1.111    1.333    0.000    3.111 
#    2.000    3.333    0.000    2.000    0.000    7.778 
#    0.000    0.000    0.000    0.000    0.000    0.000 
#
# Total GULP energy -446162.460243 kJ/mol
# GULP energy per Si atom -12393.401673 kJ/mol
# Density = 1.925296 g / cm^3
# Si number density = 19.296877 Si / 1000 Ang^3
#
#
#
# Elastic Constant Matrix: (Units=GPa)
#
#
# Indices 1 2 3 4 5 6 
#
# 1 101.8131 64.9540 41.1588 0.0000 0.0000 0.0000
# 2 64.9540 156.9353 46.0171 0.0000 0.0000 0.0000
# 3 41.1588 46.0171 77.8344 0.0000 0.0000 0.0000
# 4 0.0000 0.0000 0.0000 12.8956 0.0000 0.0000
# 5 0.0000 0.0000 0.0000 0.0000 26.9554 0.0000
# 6 0.0000 0.0000 0.0000 0.0000 0.0000 27.5948
#
#
#
# Elastic Compliance Matrix: (Units=1/GPa)
#
#
# Indices 1 2 3 4 5 6 
#
# 1 0.014852 -0.004650 -0.005104 0.000000 0.000000 0.000000
# 2 -0.004650 0.009165 -0.002959 0.000000 0.000000 0.000000
# 3 -0.005104 -0.002959 0.017296 0.000000 0.000000 0.000000
# 4 0.000000 0.000000 0.000000 0.077546 0.000000 0.000000
# 5 0.000000 0.000000 0.000000 0.000000 0.037098 0.000000
# 6 0.000000 0.000000 0.000000 0.000000 0.000000 0.036239
#
#
# Mechanical properties :
#
#
# Convention : Reuss Voigt Hill
#
# Bulk Modulus (GPa) = 62.95117 71.20474 67.07795
# Shear Modulus (GPa) = 22.42962 25.78601 24.10781
#
# Velocity S-wave (km/s) = 3.41302 3.65948 3.53839
# Velocity P-wave (km/s) = 6.94441 7.40510 7.17845
#
# Compressibility (1/GPa) = 0.01588533
#
# Stress axis : x y z
#
# Youngs Moduli (GPa) = 67.32959 109.11665 57.81531
#
# Poissons Ratio (x) = 0.50745 0.29511
# Poissons Ratio (y) = 0.31312 0.17108
# Poissons Ratio (z) = 0.34368 0.32288
#
# Static dielectric constant tensor:
#      x y z
#    x 3.785430 0.000000 0.000000 
#    y 0.000000 3.658140 0.000000 
#    z 0.000000 0.000000 3.296210 
# 
# 
# High freq. dielectric constant tensor:
#      x y z
#    x 1.761740 0.000000 0.000000 
#    y 0.000000 1.754740 0.000000 
#    z 0.000000 0.000000 1.719760 
# 
# From -- ./inp_files/23485.got.cif
#   From: 2010.06.25/outbox.cif.g09.slc.cpg/sg71_12_cif.got.tgz:23485.got - 2010.06.28 04:59:45.
