data_PCOD8290345
_publ_section_title
;
Structure prediction by ZEFSAII (Michael W. Deem and Ramdas Pophale) SiO2 
 PCOD8290345
Probable space group: I M M M
;
_chemical_formula_sum "Si O2"
_cell_formula_units_Z 56
_cell_length_a 12.216872
_cell_length_b 19.505257
_cell_length_c 12.857264
_cell_angle_alpha 90.000000
_cell_angle_beta 90.000000
_cell_angle_gamma 90.000000
_cell_volume 3063.798943
_symmetry_space_group_name_H-M "I M M M"
_symmetry_group_IT_number 71
_symmetry_cell_setting 'orthorhombic'
loop_
_space_group_symop_operation_xyz
x,y,z
-x,-y,z
x,-y,-z
-x,y,-z
-x,-y,-z
x,y,-z
-x,y,z
x,-y,z
1/2+x,1/2+y,1/2+z
1/2-x,1/2-y,1/2+z
1/2+x,1/2-y,1/2-z
1/2-x,1/2+y,1/2-z
1/2-x,1/2-y,1/2-z
1/2+x,1/2+y,1/2-z
1/2-x,1/2+y,1/2+z
1/2+x,1/2-y,1/2+z
loop_
_atom_site_type_symbol
_atom_site_label
_atom_site_fract_x
_atom_site_fract_y
_atom_site_fract_z
Si Si1 0.264506 0.199880 0.383897
Si Si2 0.372903 0.419637 0.500000
Si Si3 0.000000 0.419884 0.310294
Si Si4 0.000000 0.660865 0.112306
Si Si5 0.273652 0.851430 0.167836
O O1 0.232944 0.171595 0.500000
O O2 0.395618 0.210320 0.373962
O O3 0.235021 0.146926 0.290049
O O4 0.208169 0.272992 0.367184
O O5 0.351822 0.500000 0.500000
O O6 0.500000 0.400964 0.500000
O O7 0.320683 0.388066 0.396519
O O8 0.000000 0.404129 0.188052
O O9 0.889251 0.387776 0.357752
O O10 0.000000 0.500000 0.333084
O O11 0.000000 0.625310 0.000000
#
# Coordination Sequence:
#
# PCOD8290345 Si02
#       5
#    16   8   8   8  16
#     4   9  17  32  54  83 112 137 179 224 273 324
#     4  11  24  39  57  79 103 142 191 230 271 327
#     4  10  20  34  50  74 113 149 177 213 261 328
#     4   8  16  29  53  81 104 138 175 223 271 316
#     4  10  20  34  55  80 109 146 179 220 275 321
#
# _framework density 18.277961000000001
#
# number of rings (size 3 to 8) (size 9 to 14) (size 15 to 20)
#    0.000    2.429    1.429    0.857    2.000    0.857 
#    2.571    1.429    0.000    2.571    0.000    2.000 
#    0.000    0.000    0.000    0.000    0.000    0.000 
#
# Total GULP energy -346929.702278 kJ/mol
# GULP energy per Si atom -12390.346510 kJ/mol
# Density = 1.823636 g / cm^3
# Si number density = 18.277961 Si / 1000 Ang^3
#
#
#
# Elastic Constant Matrix: (Units=GPa)
#
#
# Indices 1 2 3 4 5 6 
#
# 1 101.7006 59.3618 56.6380 0.0000 0.0000 0.0000
# 2 59.3618 87.5101 37.5716 0.0001 0.0000 0.0000
# 3 56.6380 37.5716 153.4460 0.0001 -0.0001 0.0000
# 4 0.0000 0.0001 0.0001 13.4213 -0.0001 0.0000
# 5 0.0000 0.0000 -0.0001 -0.0001 25.0957 0.0000
# 6 0.0000 0.0000 0.0000 0.0000 0.0000 30.2015
#
#
#
# Elastic Compliance Matrix: (Units=1/GPa)
#
#
# Indices 1 2 3 4 5 6 
#
# 1 0.018394 -0.010686 -0.004173 0.000000 0.000000 0.000000
# 2 -0.010686 0.018977 -0.000702 0.000000 0.000000 0.000000
# 3 -0.004173 -0.000702 0.008229 0.000000 0.000000 0.000000
# 4 0.000000 0.000000 0.000000 0.074509 0.000000 0.000000
# 5 0.000000 0.000000 0.000000 0.000000 0.039847 0.000000
# 6 0.000000 0.000000 0.000000 0.000000 0.000000 0.033111
#
#
# Mechanical properties :
#
#
# Convention : Reuss Voigt Hill
#
# Bulk Modulus (GPa) = 69.06895 72.19996 70.63445
# Shear Modulus (GPa) = 21.83254 26.34939 24.09096
#
# Velocity S-wave (km/s) = 3.45987 3.80095 3.63441
# Velocity P-wave (km/s) = 7.33696 7.67136 7.50603
#
# Compressibility (1/GPa) = 0.01447828
#
# Stress axis : x y z
#
# Youngs Moduli (GPa) = 54.36579 52.69408 121.51858
#
# Poissons Ratio (x) = 0.56308 0.50708
# Poissons Ratio (y) = 0.58094 0.08536
# Poissons Ratio (z) = 0.22686 0.03702
#
# Static dielectric constant tensor:
#      x y z
#    x 3.385850 0.000000 0.000000 
#    y 0.000000 3.073200 0.000000 
#    z 0.000000 0.000000 3.845600 
# 
# 
# High freq. dielectric constant tensor:
#      x y z
#    x 1.699140 0.000000 0.000000 
#    y 0.000000 1.677460 0.000000 
#    z 0.000000 0.000000 1.728590 
# 
# From -- ./inp_files/32218.got.cif
#   From: 2010.06.25/outbox.cif.g09.slc.cpg/sg71_17_cif.got.tgz:32218.got - 2010.06.28 04:59:45.
