data_PCOD8290774
_publ_section_title
;
Structure prediction by ZEFSAII (Michael W. Deem and Ramdas Pophale) SiO2 
 PCOD8290774
Probable space group: I M M M
;
_chemical_formula_sum "Si O2"
_cell_formula_units_Z 88
_cell_length_a 27.575057
_cell_length_b 8.885792
_cell_length_c 19.351959
_cell_angle_alpha 90.000000
_cell_angle_beta 90.000000
_cell_angle_gamma 90.000000
_cell_volume 4741.737381
_symmetry_space_group_name_H-M "I M M M"
_symmetry_group_IT_number 71
_symmetry_cell_setting 'orthorhombic'
loop_
_space_group_symop_operation_xyz
x,y,z
-x,-y,z
x,-y,-z
-x,y,-z
-x,-y,-z
x,y,-z
-x,y,z
x,-y,z
1/2+x,1/2+y,1/2+z
1/2-x,1/2-y,1/2+z
1/2+x,1/2-y,1/2-z
1/2-x,1/2+y,1/2-z
1/2-x,1/2-y,1/2-z
1/2+x,1/2+y,1/2-z
1/2-x,1/2+y,1/2+z
1/2+x,1/2-y,1/2+z
loop_
_atom_site_type_symbol
_atom_site_label
_atom_site_fract_x
_atom_site_fract_y
_atom_site_fract_z
Si Si1 0.730994 0.177622 0.319135
Si Si2 0.054267 0.320905 0.075950
Si Si3 0.378564 0.821291 0.304765
Si Si4 0.000000 0.679518 0.579091
Si Si5 0.902583 0.678964 0.652687
Si Si6 0.195431 0.675358 0.580579
O O1 0.750000 0.250000 0.250000
O O2 0.675353 0.228503 0.325117
O O3 0.760451 0.235929 0.384899
O O4 0.736291 0.000000 0.314071
O O5 0.055118 0.500000 0.080157
O O6 0.087601 0.250716 0.135704
O O7 0.000000 0.261126 0.088058
O O8 0.072875 0.269636 0.000000
O O9 0.395949 0.757595 0.230487
O O10 0.382531 0.000000 0.302434
O O11 0.952114 0.741978 0.618409
O O12 0.000000 0.500000 0.579642
O O13 0.000000 0.738197 0.500000
O O14 0.904778 0.500000 0.652784
O O15 0.856291 0.734052 0.608634
O O16 0.197523 0.709061 0.500000
O O17 0.201641 0.500000 0.597936
#
# Coordination Sequence:
#
# PCOD8290774 Si02
#       6
#    16  16  16   8  16  16
#     4  11  21  35  53  74 103 137 175 216 257 304
#     4   8  14  24  38  59  91 128 158 188 238 301
#     4   9  17  27  43  65  92 126 162 202 247 297
#     4   9  16  24  38  64  96 128 162 203 249 301
#     4   9  16  27  43  67  98 131 164 202 253 307
#     4  10  20  35  54  75 104 139 172 210 260 314
#
# _framework density 18.558598
#
# number of rings (size 3 to 8) (size 9 to 14) (size 15 to 20)
#    0.000    2.636    1.818    1.636    1.273    3.273 
#    0.000    1.818    0.000    0.000    0.000    0.636 
#    0.000    4.364    0.000   10.000    0.000    8.727 
#
# Total GULP energy -545448.177199 kJ/mol
# GULP energy per Si atom -12396.549482 kJ/mol
# Density = 1.851636 g / cm^3
# Si number density = 18.558598 Si / 1000 Ang^3
#
#
#
# Elastic Constant Matrix: (Units=GPa)
#
#
# Indices 1 2 3 4 5 6 
#
# 1 171.1467 24.2633 111.5182 0.0000 0.0000 0.0000
# 2 24.2633 19.5501 27.4038 0.0000 0.0000 0.0000
# 3 111.5182 27.4038 173.0350 0.0000 0.0000 0.0000
# 4 0.0000 0.0000 0.0000 17.5436 0.0000 0.0000
# 5 0.0000 0.0000 0.0000 0.0000 45.1638 0.0000
# 6 0.0000 0.0000 0.0000 0.0000 0.0000 18.9824
#
#
#
# Elastic Compliance Matrix: (Units=1/GPa)
#
#
# Indices 1 2 3 4 5 6 
#
# 1 0.010372 -0.004502 -0.005972 0.000000 0.000000 0.000000
# 2 -0.004502 0.067700 -0.007820 0.000000 0.000000 0.000000
# 3 -0.005972 -0.007820 0.010866 0.000000 0.000000 0.000000
# 4 0.000000 0.000000 0.000000 0.057001 0.000000 0.000000
# 5 0.000000 0.000000 0.000000 0.000000 0.022142 0.000000
# 6 0.000000 0.000000 0.000000 0.000000 0.000000 0.052680
#
#
# Mechanical properties :
#
#
# Convention : Reuss Voigt Hill
#
# Bulk Modulus (GPa) = 19.10209 76.67804 47.89007
# Shear Modulus (GPa) = 18.19506 29.70772 23.95139
#
# Velocity S-wave (km/s) = 3.13455 4.00528 3.59636
# Velocity P-wave (km/s) = 4.83898 7.92440 6.56551
#
# Compressibility (1/GPa) = 0.05235029
#
# Stress axis : x y z
#
# Youngs Moduli (GPa) = 96.40949 14.77111 92.02675
#
# Poissons Ratio (x) = 0.06650 0.54957
# Poissons Ratio (y) = 0.43405 0.71966
# Poissons Ratio (z) = 0.57574 0.11551
#
# Static dielectric constant tensor:
#      x y z
#    x 3.461720 0.000000 0.000000 
#    y 0.000000 2.799290 0.000000 
#    z 0.000000 0.000000 3.766790 
# 
# 
# High freq. dielectric constant tensor:
#      x y z
#    x 1.733290 0.000000 0.000000 
#    y 0.000000 1.647580 0.000000 
#    z 0.000000 0.000000 1.737380 
# 
# From -- ./inp_files/49229.got.cif
#   From: 2010.06.25/outbox.cif.g09.slc.cpg/sg71_25_cif.got.tgz:49229.got - 2010.06.28 04:59:45.
