data_PCOD8290933
_publ_section_title
;
Structure prediction by ZEFSAII (Michael W. Deem and Ramdas Pophale) SiO2 
 PCOD8290933
Probable space group: I M M M
;
_chemical_formula_sum "Si O2"
_cell_formula_units_Z 80
_cell_length_a 27.212769
_cell_length_b 8.925385
_cell_length_c 16.871403
_cell_angle_alpha 90.000000
_cell_angle_beta 90.000000
_cell_angle_gamma 90.000000
_cell_volume 4097.801274
_symmetry_space_group_name_H-M "I M M M"
_symmetry_group_IT_number 71
_symmetry_cell_setting 'orthorhombic'
loop_
_space_group_symop_operation_xyz
x,y,z
-x,-y,z
x,-y,-z
-x,y,-z
-x,-y,-z
x,y,-z
-x,y,z
x,-y,z
1/2+x,1/2+y,1/2+z
1/2-x,1/2-y,1/2+z
1/2+x,1/2-y,1/2-z
1/2-x,1/2+y,1/2-z
1/2-x,1/2-y,1/2-z
1/2+x,1/2+y,1/2-z
1/2-x,1/2+y,1/2+z
1/2+x,1/2-y,1/2+z
loop_
_atom_site_type_symbol
_atom_site_label
_atom_site_fract_x
_atom_site_fract_y
_atom_site_fract_z
Si Si1 0.189533 0.326595 0.408827
Si Si2 0.789510 0.675489 0.908378
Si Si3 0.884394 0.177703 0.151345
Si Si4 0.406460 0.823017 0.812698
Si Si5 0.500000 0.822127 0.911304
Si Si6 0.055170 0.822000 0.000000
O O1 0.176113 0.294010 0.500000
O O2 0.202564 0.500000 0.396079
O O3 0.235952 0.229598 0.380673
O O4 0.143488 0.276363 0.356576
O O5 0.793880 0.500000 0.893678
O O6 0.829545 0.757864 0.854781
O O7 0.797987 0.719358 0.000000
O O8 0.910394 0.238361 0.229709
O O9 0.916505 0.236834 0.077487
O O10 0.881692 0.000000 0.153531
O O11 0.451694 0.765748 0.865704
O O12 0.409036 0.000000 0.798081
O O13 0.500000 0.000000 0.916348
O O14 0.500000 0.754208 0.000000
O O15 0.000000 0.756010 0.000000
O O16 0.053631 0.000000 0.000000
#
# Coordination Sequence:
#
# PCOD8290933 Si02
#       6
#    16  16  16  16   8   8
#     4   9  18  34  57  82 111 149 192 230 274 335
#     4  10  20  35  57  83 113 147 186 235 286 333
#     4  11  22  37  59  83 113 150 190 231 279 337
#     4  10  21  36  56  86 118 146 185 237 282 329
#     4   9  18  36  63  88 115 152 190 228 280 337
#     4   9  20  38  59  81 107 147 193 232 271 330
#
# _framework density 19.522665
#
# number of rings (size 3 to 8) (size 9 to 14) (size 15 to 20)
#    0.000    2.200    1.000    1.800    1.400    4.800 
#    0.000    0.000    0.000    4.800    0.000    0.000 
#    0.000    0.000    0.000    0.000    0.000    0.000 
#
# Total GULP energy -496173.271872 kJ/mol
# GULP energy per Si atom -12404.331797 kJ/mol
# Density = 1.947823 g / cm^3
# Si number density = 19.522665 Si / 1000 Ang^3
#
#
#
# Elastic Constant Matrix: (Units=GPa)
#
#
# Indices 1 2 3 4 5 6 
#
# 1 153.3392 43.7591 84.4630 0.0000 0.0000 0.0000
# 2 43.7591 53.7066 42.0430 0.0000 0.0000 0.0000
# 3 84.4630 42.0430 147.3970 0.0000 0.0000 0.0000
# 4 0.0000 0.0000 0.0000 28.7412 0.0000 0.0000
# 5 0.0000 0.0000 0.0000 0.0000 31.2306 0.0000
# 6 0.0000 0.0000 0.0000 0.0000 0.0000 19.2308
#
#
#
# Elastic Compliance Matrix: (Units=1/GPa)
#
#
# Indices 1 2 3 4 5 6 
#
# 1 0.010453 -0.004928 -0.004584 0.000000 0.000000 0.000000
# 2 -0.004928 0.026296 -0.004677 0.000000 0.000000 0.000000
# 3 -0.004584 -0.004677 0.010745 0.000000 0.000000 0.000000
# 4 0.000000 0.000000 0.000000 0.034793 0.000000 0.000000
# 5 0.000000 0.000000 0.000000 0.000000 0.032020 0.000000
# 6 0.000000 0.000000 0.000000 0.000000 0.000000 0.052000
#
#
# Mechanical properties :
#
#
# Convention : Reuss Voigt Hill
#
# Bulk Modulus (GPa) = 52.31142 77.21923 64.76533
# Shear Modulus (GPa) = 24.86852 28.11902 26.49377
#
# Velocity S-wave (km/s) = 3.57295 3.79928 3.68785
# Velocity P-wave (km/s) = 6.62379 7.67369 7.16799
#
# Compressibility (1/GPa) = 0.01911628
#
# Stress axis : x y z
#
# Youngs Moduli (GPa) = 95.66680 38.02846 93.06507
#
# Poissons Ratio (x) = 0.18741 0.42662
# Poissons Ratio (y) = 0.47147 0.43522
# Poissons Ratio (z) = 0.43855 0.17784
#
# Static dielectric constant tensor:
#      x y z
#    x 3.690740 0.000000 0.000000 
#    y 0.000000 3.261140 0.000000 
#    z 0.000000 0.000000 3.608650 
# 
# 
# High freq. dielectric constant tensor:
#      x y z
#    x 1.771840 0.000000 0.000000 
#    y 0.000000 1.735970 0.000000 
#    z 0.000000 0.000000 1.762920 
# 
# From -- ./inp_files/14594.got.cif
#   From: 2010.06.25/outbox.cif.g09.slc.cpg/sg71_8_cif.got.tgz:14594.got - 2010.06.28 04:59:45.
