data_PCOD8290301
_publ_section_title
;
Structure prediction by ZEFSAII (Michael W. Deem and Ramdas Pophale) SiO2 
 PCOD8290301
Probable space group: I M M M
;
_chemical_formula_sum "Si O2"
_cell_formula_units_Z 88
_cell_length_a 22.560915
_cell_length_b 22.895263
_cell_length_c 8.699001
_cell_angle_alpha 90.000000
_cell_angle_beta 90.000000
_cell_angle_gamma 90.000000
_cell_volume 4493.365296
_symmetry_space_group_name_H-M "I M M M"
_symmetry_group_IT_number 71
_symmetry_cell_setting 'orthorhombic'
loop_
_space_group_symop_operation_xyz
x,y,z
-x,-y,z
x,-y,-z
-x,y,-z
-x,-y,-z
x,y,-z
-x,y,z
x,-y,z
1/2+x,1/2+y,1/2+z
1/2-x,1/2-y,1/2+z
1/2+x,1/2-y,1/2-z
1/2-x,1/2+y,1/2-z
1/2-x,1/2-y,1/2-z
1/2+x,1/2+y,1/2-z
1/2-x,1/2+y,1/2+z
1/2+x,1/2-y,1/2+z
loop_
_atom_site_type_symbol
_atom_site_label
_atom_site_fract_x
_atom_site_fract_y
_atom_site_fract_z
Si Si1 0.685186 0.761645 0.319960
Si Si2 0.738773 0.065755 0.176194
Si Si3 0.000000 0.567281 0.683305
Si Si4 0.435858 0.564376 0.818033
Si Si5 0.120858 0.372534 0.323940
Si Si6 0.166353 0.855190 0.681560
O O1 0.693494 0.768173 0.500000
O O2 0.750000 0.750000 0.250000
O O3 0.646729 0.816306 0.263036
O O4 0.650498 0.703687 0.271559
O O5 0.668373 0.075257 0.191213
O O6 0.770684 0.115020 0.278988
O O7 0.753354 0.000000 0.234127
O O8 0.758969 0.073872 0.000000
O O9 0.058427 0.602602 0.742815
O O10 0.000000 0.500000 0.745540
O O11 0.000000 0.565067 0.500000
O O12 0.500000 0.590863 0.773202
O O13 0.429415 0.500000 0.746868
O O14 0.383896 0.602980 0.750105
O O15 0.429440 0.560881 0.000000
O O16 0.112002 0.353620 0.500000
O O17 0.163453 0.843921 0.500000
#
# Coordination Sequence:
#
# PCOD8290301 Si02
#       6
#    16  16   8  16  16  16
#     4  12  24  40  60  82 113 151 192 241 295 354
#     4  10  20  33  53  83 118 152 187 232 289 347
#     4   9  18  36  65  97 125 157 202 251 296 353
#     4   8  15  30  52  79 111 144 180 226 275 324
#     4  10  20  37  61  88 119 156 198 242 291 348
#     4  11  21  34  56  84 113 147 191 239 287 347
#
# _framework density 19.584430000000001
#
# number of rings (size 3 to 8) (size 9 to 14) (size 15 to 20)
#    0.000    1.909    1.818    3.818    0.000    3.273 
#    1.636    0.455    0.000    3.818    0.000    6.364 
#    0.000    0.000    0.000    0.000    0.000    0.000 
#
# Total GULP energy -545313.034229 kJ/mol
# GULP energy per Si atom -12393.478051 kJ/mol
# Density = 1.953985 g / cm^3
# Si number density = 19.584430 Si / 1000 Ang^3
#
#
#
# Elastic Constant Matrix: (Units=GPa)
#
#
# Indices 1 2 3 4 5 6 
#
# 1 135.6725 60.0819 29.1025 0.0000 0.0000 0.0000
# 2 60.0819 135.6476 38.5775 0.0000 0.0000 0.0000
# 3 29.1025 38.5775 70.5140 0.0000 0.0000 0.0000
# 4 0.0000 0.0000 0.0000 28.8927 0.0000 0.0000
# 5 0.0000 0.0000 0.0000 0.0000 19.4572 0.0000
# 6 0.0000 0.0000 0.0000 0.0000 0.0000 31.2407
#
#
#
# Elastic Compliance Matrix: (Units=1/GPa)
#
#
# Indices 1 2 3 4 5 6 
#
# 1 0.009378 -0.003615 -0.001892 0.000000 0.000000 0.000000
# 2 -0.003615 0.010124 -0.004047 0.000000 0.000000 0.000000
# 3 -0.001892 -0.004047 0.017177 0.000000 0.000000 0.000000
# 4 0.000000 0.000000 0.000000 0.034611 0.000000 0.000000
# 5 0.000000 0.000000 0.000000 0.000000 0.051395 0.000000
# 6 0.000000 0.000000 0.000000 0.000000 0.000000 0.032010
#
#
# Mechanical properties :
#
#
# Convention : Reuss Voigt Hill
#
# Bulk Modulus (GPa) = 56.91717 66.37311 61.64514
# Shear Modulus (GPa) = 27.83046 30.18961 29.01004
#
# Velocity S-wave (km/s) = 3.77377 3.93047 3.85292
# Velocity P-wave (km/s) = 6.93643 7.38664 7.16507
#
# Compressibility (1/GPa) = 0.01756939
#
# Stress axis : x y z
#
# Youngs Moduli (GPa) = 106.63599 98.77234 58.21893
#
# Poissons Ratio (x) = 0.35711 0.11017
# Poissons Ratio (y) = 0.38554 0.23560
# Poissons Ratio (z) = 0.20180 0.39971
#
# Static dielectric constant tensor:
#      x y z
#    x 3.788070 0.000000 0.000000 
#    y 0.000000 4.059360 0.000000 
#    z 0.000000 0.000000 3.273900 
# 
# 
# High freq. dielectric constant tensor:
#      x y z
#    x 1.765600 0.000000 0.000000 
#    y 0.000000 1.773440 0.000000 
#    z 0.000000 0.000000 1.729720 
# 
# From -- ./inp_files/12576.got.cif
#   From: 2010.06.25/outbox.cif.g09.slc.cpg/sg71_7_cif.got.tgz:12576.got - 2010.06.28 04:59:45.
