data_PCOD8290324
_publ_section_title
;
Structure prediction by ZEFSAII (Michael W. Deem and Ramdas Pophale) SiO2 
 PCOD8290324
Probable space group: I M M M
;
_chemical_formula_sum "Si O2"
_cell_formula_units_Z 76
_cell_length_a 12.230935
_cell_length_b 12.984797
_cell_length_c 24.170908
_cell_angle_alpha 90.000000
_cell_angle_beta 90.000000
_cell_angle_gamma 90.000000
_cell_volume 3838.731955
_symmetry_space_group_name_H-M "I M M M"
_symmetry_group_IT_number 71
_symmetry_cell_setting 'orthorhombic'
loop_
_space_group_symop_operation_xyz
x,y,z
-x,-y,z
x,-y,-z
-x,y,-z
-x,-y,-z
x,y,-z
-x,y,z
x,-y,z
1/2+x,1/2+y,1/2+z
1/2-x,1/2-y,1/2+z
1/2+x,1/2-y,1/2-z
1/2-x,1/2+y,1/2-z
1/2-x,1/2-y,1/2-z
1/2+x,1/2+y,1/2-z
1/2-x,1/2+y,1/2+z
1/2+x,1/2-y,1/2+z
loop_
_atom_site_type_symbol
_atom_site_label
_atom_site_fract_x
_atom_site_fract_y
_atom_site_fract_z
Si Si1 0.261054 0.787430 0.615341
Si Si2 0.000000 0.883970 0.772665
Si Si3 0.221663 0.880899 0.729482
Si Si4 0.000000 0.207101 0.115386
Si Si5 0.627667 0.878110 0.172721
Si Si6 0.715467 0.123448 0.500000
Si Si7 0.500000 0.744694 0.500000
O O1 0.234135 0.866061 0.664455
O O2 0.391261 0.775307 0.621154
O O3 0.192217 0.681354 0.623504
O O4 0.224897 0.837081 0.556380
O O5 0.107831 0.828307 0.749150
O O6 0.000000 0.882940 0.839705
O O7 0.000000 0.000000 0.751615
O O8 0.318384 0.837225 0.769289
O O9 0.218145 0.000000 0.743232
O O10 0.000000 0.166353 0.052063
O O11 0.500000 0.848509 0.172980
O O12 0.643034 0.000000 0.163219
O O13 0.598466 0.175654 0.500000
O O14 0.708207 0.000000 0.500000
#
# Coordination Sequence:
#
# PCOD8290324 Si02
#       7
#    16   8  16   8  16   8   4
#     4  11  22  36  60  82 115 151 191 233 284 333
#     4  10  20  34  54  82 116 146 184 238 291 336
#     4  10  21  35  55  86 117 151 188 231 285 342
#     4  10  20  33  55  84 112 148 193 225 279 342
#     4  10  22  38  58  86 117 146 185 233 283 340
#     4  10  21  40  60  84 114 149 191 235 277 331
#     4   8  19  36  55  86 116 152 181 228 280 332
#
# _framework density 19.798204999999999
#
# number of rings (size 3 to 8) (size 9 to 14) (size 15 to 20)
#    0.000    1.895    2.105    1.421    2.947    0.000 
#    0.000    2.368    0.000    5.684    0.000    0.000 
#    0.000    0.000    0.000    0.000    0.000    0.000 
#
# Total GULP energy -470778.170698 kJ/mol
# GULP energy per Si atom -12388.899229 kJ/mol
# Density = 1.975314 g / cm^3
# Si number density = 19.798205 Si / 1000 Ang^3
#
#
#
# Elastic Constant Matrix: (Units=GPa)
#
#
# Indices 1 2 3 4 5 6 
#
# 1 141.0182 40.3072 61.4670 0.0000 0.0000 0.0000
# 2 40.3072 41.7379 28.7690 0.0000 0.0000 0.0000
# 3 61.4670 28.7690 172.5934 0.0000 0.0000 0.0000
# 4 0.0000 0.0000 0.0000 32.0068 0.0000 0.0000
# 5 0.0000 0.0000 0.0000 0.0000 26.2961 0.0000
# 6 0.0000 0.0000 0.0000 0.0000 0.0000 10.7315
#
#
#
# Elastic Compliance Matrix: (Units=1/GPa)
#
#
# Indices 1 2 3 4 5 6 
#
# 1 0.010564 -0.008596 -0.002329 0.000000 0.000000 0.000000
# 2 -0.008596 0.034064 -0.002617 0.000000 0.000000 0.000000
# 3 -0.002329 -0.002617 0.007060 0.000000 0.000000 0.000000
# 4 0.000000 0.000000 0.000000 0.031243 0.000000 0.000000
# 5 0.000000 0.000000 0.000000 0.000000 0.038028 0.000000
# 6 0.000000 0.000000 0.000000 0.000000 0.000000 0.093184
#
#
# Mechanical properties :
#
#
# Convention : Reuss Voigt Hill
#
# Bulk Modulus (GPa) = 40.64477 68.49290 54.56883
# Shear Modulus (GPa) = 20.04590 28.79396 24.41993
#
# Velocity S-wave (km/s) = 3.18545 3.81776 3.51585
# Velocity P-wave (km/s) = 5.83982 7.35557 6.64108
#
# Compressibility (1/GPa) = 0.02460341
#
# Stress axis : x y z
#
# Youngs Moduli (GPa) = 94.66534 29.35659 141.64989
#
# Poissons Ratio (x) = 0.25235 0.32994
# Poissons Ratio (y) = 0.81374 0.37065
# Poissons Ratio (z) = 0.22050 0.07682
#
# Static dielectric constant tensor:
#      x y z
#    x 3.880510 0.000000 0.000000 
#    y 0.000000 3.443530 0.000000 
#    z 0.000000 0.000000 3.886200 
# 
# 
# High freq. dielectric constant tensor:
#      x y z
#    x 1.775810 0.000000 0.000000 
#    y 0.000000 1.768500 0.000000 
#    z 0.000000 0.000000 1.768620 
# 
# From -- ./inp_files/58703.got.cif
#   From: 2010.06.25/outbox.cif.g09.slc.cpg/sg71_30_cif.got.tgz:58703.got - 2010.06.28 04:59:45.
