data_PCOD8290616
_publ_section_title
;
Structure prediction by ZEFSAII (Michael W. Deem and Ramdas Pophale) SiO2 
 PCOD8290616
Probable space group: I M M M
;
_chemical_formula_sum "Si O2"
_cell_formula_units_Z 72
_cell_length_a 8.969425
_cell_length_b 13.473540
_cell_length_c 28.625387
_cell_angle_alpha 90.000000
_cell_angle_beta 90.000000
_cell_angle_gamma 90.000000
_cell_volume 3459.375343
_symmetry_space_group_name_H-M "I M M M"
_symmetry_group_IT_number 71
_symmetry_cell_setting 'orthorhombic'
loop_
_space_group_symop_operation_xyz
x,y,z
-x,-y,z
x,-y,-z
-x,y,-z
-x,-y,-z
x,y,-z
-x,y,z
x,-y,z
1/2+x,1/2+y,1/2+z
1/2-x,1/2-y,1/2+z
1/2+x,1/2-y,1/2-z
1/2-x,1/2+y,1/2-z
1/2-x,1/2-y,1/2-z
1/2+x,1/2+y,1/2-z
1/2-x,1/2+y,1/2+z
1/2+x,1/2-y,1/2+z
loop_
_atom_site_type_symbol
_atom_site_label
_atom_site_fract_x
_atom_site_fract_y
_atom_site_fract_z
Si Si1 0.823995 0.207988 0.589847
Si Si2 0.325271 0.612435 0.629380
Si Si3 0.670962 0.882607 0.500000
Si Si4 0.833316 0.382257 0.176851
Si Si5 0.333869 0.381502 0.733585
O O1 0.766554 0.321256 0.592947
O O2 0.751753 0.157471 0.545411
O O3 0.776459 0.148079 0.635689
O O4 0.000000 0.205842 0.584463
O O5 0.500000 0.617892 0.618155
O O6 0.267394 0.500000 0.624540
O O7 0.293005 0.656766 0.681447
O O8 0.500000 0.847094 0.500000
O O9 0.682254 0.000000 0.500000
O O10 0.833333 0.500000 0.179996
O O11 0.778688 0.338862 0.227083
O O12 0.000000 0.341423 0.167003
O O13 0.500000 0.347579 0.747437
O O14 0.327287 0.500000 0.731204
#
# Coordination Sequence:
#
# PCOD8290616 Si02
#       5
#    16  16   8  16  16
#     4  12  25  39  60  89 119 152 191 238 292 350
#     4   9  19  38  62  86 117 158 200 242 288 339
#     4  11  25  47  72  93 116 147 185 234 290 347
#     4  10  20  34  54  82 117 157 200 244 290 345
#     4   8  15  30  53  81 114 153 196 242 291 339
#
# _framework density 20.813006999999999
#
# number of rings (size 3 to 8) (size 9 to 14) (size 15 to 20)
#    0.000    2.111    0.000    5.000    0.000    7.111 
#    0.000    2.778    0.000    3.333    0.000    0.000 
#    0.000    0.000    0.000    0.000    0.000    0.000 
#
# Total GULP energy -446466.458266 kJ/mol
# GULP energy per Si atom -12401.846063 kJ/mol
# Density = 2.076564 g / cm^3
# Si number density = 20.813007 Si / 1000 Ang^3
#
#
#
# Elastic Constant Matrix: (Units=GPa)
#
#
# Indices 1 2 3 4 5 6 
#
# 1 149.5177 47.1636 63.9009 0.0000 0.0000 0.0000
# 2 47.1636 45.7864 36.2012 0.0000 0.0000 0.0000
# 3 63.9009 36.2012 107.2243 0.0000 0.0000 0.0000
# 4 0.0000 0.0000 0.0000 29.3932 0.0000 0.0000
# 5 0.0000 0.0000 0.0000 0.0000 39.5230 0.0000
# 6 0.0000 0.0000 0.0000 0.0000 0.0000 25.9135
#
#
#
# Elastic Compliance Matrix: (Units=1/GPa)
#
#
# Indices 1 2 3 4 5 6 
#
# 1 0.010878 -0.008294 -0.003683 0.000000 0.000000 0.000000
# 2 -0.008294 0.036117 -0.007251 0.000000 0.000000 0.000000
# 3 -0.003683 -0.007251 0.013969 0.000000 0.000000 0.000000
# 4 0.000000 0.000000 0.000000 0.034021 0.000000 0.000000
# 5 0.000000 0.000000 0.000000 0.000000 0.025302 0.000000
# 6 0.000000 0.000000 0.000000 0.000000 0.000000 0.038590
#
#
# Mechanical properties :
#
#
# Convention : Reuss Voigt Hill
#
# Bulk Modulus (GPa) = 44.42675 66.33998 55.38336
# Shear Modulus (GPa) = 24.40980 29.31677 26.86329
#
# Velocity S-wave (km/s) = 3.42835 3.75718 3.59652
# Velocity P-wave (km/s) = 6.08798 7.12498 6.62679
#
# Compressibility (1/GPa) = 0.02250896
#
# Stress axis : x y z
#
# Youngs Moduli (GPa) = 91.92633 27.68799 71.58588
#
# Poissons Ratio (x) = 0.22963 0.26364
# Poissons Ratio (y) = 0.76240 0.51908
# Poissons Ratio (z) = 0.33855 0.20077
#
# Static dielectric constant tensor:
#      x y z
#    x 3.820730 0.000000 0.000000 
#    y 0.000000 3.856270 0.000000 
#    z 0.000000 0.000000 3.981800 
# 
# 
# High freq. dielectric constant tensor:
#      x y z
#    x 1.810750 0.000000 0.000000 
#    y 0.000000 1.833810 0.000000 
#    z 0.000000 0.000000 1.802360 
# 
# From -- ./inp_files/14305.got.cif
#   From: 2010.06.25/outbox.cif.g09.slc.cpg/sg71_8_cif.got.tgz:14305.got - 2010.06.28 04:59:45.
