data_PCOD8290042
_publ_section_title
;
Structure prediction by ZEFSAII (Michael W. Deem and Ramdas Pophale) SiO2 
 PCOD8290042
Probable space group: I M M M
;
_chemical_formula_sum "Si O2"
_cell_formula_units_Z 96
_cell_length_a 13.917751
_cell_length_b 11.709051
_cell_length_c 33.153153
_cell_angle_alpha 90.000000
_cell_angle_beta 90.000000
_cell_angle_gamma 90.000000
_cell_volume 5402.759030
_symmetry_space_group_name_H-M "I M M M"
_symmetry_group_IT_number 71
_symmetry_cell_setting 'orthorhombic'
loop_
_space_group_symop_operation_xyz
x,y,z
-x,-y,z
x,-y,-z
-x,y,-z
-x,-y,-z
x,y,-z
-x,y,z
x,-y,z
1/2+x,1/2+y,1/2+z
1/2-x,1/2-y,1/2+z
1/2+x,1/2-y,1/2-z
1/2-x,1/2+y,1/2-z
1/2-x,1/2-y,1/2-z
1/2+x,1/2+y,1/2-z
1/2-x,1/2+y,1/2+z
1/2+x,1/2-y,1/2+z
loop_
_atom_site_type_symbol
_atom_site_label
_atom_site_fract_x
_atom_site_fract_y
_atom_site_fract_z
Si Si1 0.886255 0.246472 0.263900
Si Si2 0.705833 0.284596 0.621587
Si Si3 0.392805 0.500000 0.244219
Si Si4 0.609533 0.865255 0.845724
Si Si5 0.111555 0.868026 0.954324
Si Si6 0.107212 0.000000 0.160417
Si Si7 0.112411 0.367204 0.183485
O O1 0.842379 0.118156 0.270666
O O2 0.859150 0.328294 0.300811
O O3 0.845430 0.300268 0.222504
O O4 0.000000 0.237356 0.258873
O O5 0.821638 0.298742 0.622920
O O6 0.672702 0.286449 0.575022
O O7 0.660433 0.388039 0.646093
O O8 0.670663 0.169125 0.643341
O O9 0.500000 0.500000 0.226185
O O10 0.396050 0.500000 0.292046
O O11 0.500000 0.829616 0.855260
O O12 0.623817 0.000000 0.849500
O O13 0.000000 0.837855 0.949763
O O14 0.129859 0.000000 0.942570
O O15 0.145705 0.844993 0.000000
O O16 0.000000 0.000000 0.141940
O O17 0.129325 0.500000 0.191164
O O18 0.000000 0.339607 0.176803
#
# Coordination Sequence:
#
# PCOD8290042 Si02
#       7
#    16  16   8  16  16   8  16
#     4   9  17  31  48  66  96 134 169 212 256 293
#     4  12  20  32  52  75  98 133 168 204 246 300
#     4   9  16  28  46  70  99 128 161 208 261 297
#     4  10  21  36  50  67  96 134 177 216 249 287
#     4   9  17  29  49  80 111 130 148 187 247 311
#     4  11  18  28  48  77 100 120 155 202 251 302
#     4  10  20  33  49  72 103 136 167 206 254 302
#
# _framework density 17.768699999999999
#
# number of rings (size 3 to 8) (size 9 to 14) (size 15 to 20)
#    0.000    2.000    3.333    2.500    0.000    2.667 
#    1.500    0.000    0.000    1.000    0.000    4.667 
#    0.000    0.000    0.000    1.500    0.000    0.333 
#
# Total GULP energy -595107.530277 kJ/mol
# GULP energy per Si atom -12398.073547 kJ/mol
# Density = 1.772826 g / cm^3
# Si number density = 17.768700 Si / 1000 Ang^3
#
#
#
# Elastic Constant Matrix: (Units=GPa)
#
#
# Indices 1 2 3 4 5 6 
#
# 1 71.3690 21.7455 32.1481 0.0000 0.0000 0.0000
# 2 21.7455 68.3368 21.6761 0.0000 0.0000 0.0000
# 3 32.1481 21.6761 90.5235 0.0000 0.0000 0.0000
# 4 0.0000 0.0000 0.0000 15.1106 0.0000 0.0000
# 5 0.0000 0.0000 0.0000 0.0000 17.8178 0.0000
# 6 0.0000 0.0000 0.0000 0.0000 0.0000 16.9998
#
#
#
# Elastic Compliance Matrix: (Units=1/GPa)
#
#
# Indices 1 2 3 4 5 6 
#
# 1 0.017597 -0.003915 -0.005312 0.000000 0.000000 0.000000
# 2 -0.003915 0.016707 -0.002610 0.000000 0.000000 0.000000
# 3 -0.005312 -0.002610 0.013558 0.000000 0.000000 0.000000
# 4 0.000000 0.000000 0.000000 0.066179 0.000000 0.000000
# 5 0.000000 0.000000 0.000000 0.000000 0.056124 0.000000
# 6 0.000000 0.000000 0.000000 0.000000 0.000000 0.058824
#
#
# Mechanical properties :
#
#
# Convention : Reuss Voigt Hill
#
# Bulk Modulus (GPa) = 41.34168 42.37432 41.85800
# Shear Modulus (GPa) = 19.17719 20.29627 19.73673
#
# Velocity S-wave (km/s) = 3.28879 3.38338 3.33642
# Velocity P-wave (km/s) = 6.14317 6.25800 6.20085
#
# Compressibility (1/GPa) = 0.02418866
#
# Stress axis : x y z
#
# Youngs Moduli (GPa) = 56.82702 59.85485 73.75502
#
# Poissons Ratio (x) = 0.23431 0.39179
# Poissons Ratio (y) = 0.22246 0.19252
# Poissons Ratio (z) = 0.30187 0.15624
#
# Static dielectric constant tensor:
#      x y z
#    x 3.358570 0.000000 0.000000 
#    y 0.000000 3.397870 0.000000 
#    z 0.000000 0.000000 3.096910 
# 
# 
# High freq. dielectric constant tensor:
#      x y z
#    x 1.684070 0.000000 0.000000 
#    y 0.000000 1.675840 0.000000 
#    z 0.000000 0.000000 1.650880 
# 
# From -- ./inp_files/69901.got.cif
#   From: 2010.06.25/outbox.cif.g09.slc.cpg/sg71_35_cif.got.tgz:69901.got - 2010.06.28 04:59:45.
