data_PCOD8290785
_publ_section_title
;
Structure prediction by ZEFSAII (Michael W. Deem and Ramdas Pophale) SiO2 
 PCOD8290785
Probable space group: I M M M
;
_chemical_formula_sum "Si O2"
_cell_formula_units_Z 104
_cell_length_a 27.316774
_cell_length_b 8.136599
_cell_length_c 23.768342
_cell_angle_alpha 90.000000
_cell_angle_beta 90.000000
_cell_angle_gamma 90.000000
_cell_volume 5282.885652
_symmetry_space_group_name_H-M "I M M M"
_symmetry_group_IT_number 71
_symmetry_cell_setting 'orthorhombic'
loop_
_space_group_symop_operation_xyz
x,y,z
-x,-y,z
x,-y,-z
-x,y,-z
-x,-y,-z
x,y,-z
-x,y,z
x,-y,z
1/2+x,1/2+y,1/2+z
1/2-x,1/2-y,1/2+z
1/2+x,1/2-y,1/2-z
1/2-x,1/2+y,1/2-z
1/2-x,1/2-y,1/2-z
1/2+x,1/2+y,1/2-z
1/2-x,1/2+y,1/2+z
1/2+x,1/2-y,1/2+z
loop_
_atom_site_type_symbol
_atom_site_label
_atom_site_fract_x
_atom_site_fract_y
_atom_site_fract_z
Si Si1 0.818011 0.689901 0.146126
Si Si2 0.371034 0.692598 0.935758
Si Si3 0.110524 0.182139 0.065350
Si Si4 0.289201 0.809179 0.858569
Si Si5 0.055523 0.304763 0.657792
Si Si6 0.861117 0.305641 0.262592
Si Si7 0.946112 0.500000 0.932955
O O1 0.832042 0.500000 0.137115
O O2 0.837017 0.800759 0.094731
O O3 0.759913 0.704307 0.145897
O O4 0.845551 0.762569 0.201604
O O5 0.362657 0.500000 0.931734
O O6 0.320865 0.778496 0.914863
O O7 0.418115 0.741585 0.898612
O O8 0.380883 0.748496 0.000000
O O9 0.077401 0.330430 0.089852
O O10 0.087763 0.000000 0.076870
O O11 0.119537 0.208000 0.000000
O O12 0.320935 0.743142 0.806559
O O13 0.275859 0.000000 0.853872
O O14 0.055301 0.500000 0.654878
O O15 0.085568 0.246797 0.713977
O O16 0.000000 0.235286 0.661032
O O17 0.859761 0.500000 0.260384
O O18 0.000000 0.500000 0.907615
O O19 0.946215 0.500000 0.000000
#
# Coordination Sequence:
#
# PCOD8290785 Si02
#       7
#    16  16  16  16  16  16   8
#     4  11  20  33  55  80 113 149 187 226 281 341
#     4  10  21  36  53  77 110 145 184 231 280 333
#     4  10  21  37  56  82 115 147 184 230 279 335
#     4  10  20  35  54  78 107 142 186 231 281 337
#     4   9  18  35  58  81 108 144 184 227 278 332
#     4   8  17  33  53  78 109 141 183 230 278 332
#     4   9  18  36  60  82 106 140 180 222 272 326
#
# _framework density 19.686211
#
# number of rings (size 3 to 8) (size 9 to 14) (size 15 to 20)
#    0.000    2.385    0.769    2.769    0.000    2.769 
#    0.000   10.769    0.000    0.000    0.000    0.000 
#    0.000    0.000    0.000    0.000    0.000    0.000 
#
# Total GULP energy -644496.677068 kJ/mol
# GULP energy per Si atom -12394.166867 kJ/mol
# Density = 1.964140 g / cm^3
# Si number density = 19.686211 Si / 1000 Ang^3
#
#
#
# Elastic Constant Matrix: (Units=GPa)
#
#
# Indices 1 2 3 4 5 6 
#
# 1 140.9122 34.5920 64.9300 0.0000 0.0000 0.0000
# 2 34.5920 80.4454 35.8254 0.0000 0.0000 0.0000
# 3 64.9300 35.8254 67.7426 0.0000 0.0000 0.0000
# 4 0.0000 0.0000 0.0000 17.8465 0.0000 0.0000
# 5 0.0000 0.0000 0.0000 0.0000 19.8987 0.0000
# 6 0.0000 0.0000 0.0000 0.0000 0.0000 24.7809
#
#
#
# Elastic Compliance Matrix: (Units=1/GPa)
#
#
# Indices 1 2 3 4 5 6 
#
# 1 0.012710 -0.000052 -0.012155 0.000000 0.000000 0.000000
# 2 -0.000052 0.016261 -0.008549 0.000000 0.000000 0.000000
# 3 -0.012155 -0.008549 0.030933 0.000000 0.000000 0.000000
# 4 0.000000 0.000000 0.000000 0.056033 0.000000 0.000000
# 5 0.000000 0.000000 0.000000 0.000000 0.050255 0.000000
# 6 0.000000 0.000000 0.000000 0.000000 0.000000 0.040354
#
#
# Mechanical properties :
#
#
# Convention : Reuss Voigt Hill
#
# Bulk Modulus (GPa) = 54.37375 62.19944 58.28660
# Shear Modulus (GPa) = 19.67048 22.75541 21.21295
#
# Velocity S-wave (km/s) = 3.16444 3.40355 3.28617
# Velocity P-wave (km/s) = 6.40561 6.86364 6.63857
#
# Compressibility (1/GPa) = 0.01839123
#
# Stress axis : x y z
#
# Youngs Moduli (GPa) = 78.67703 61.49842 32.32801
#
# Poissons Ratio (x) = 0.00323 0.39294
# Poissons Ratio (y) = 0.00413 0.27637
# Poissons Ratio (z) = 0.95630 0.52575
#
# Static dielectric constant tensor:
#      x y z
#    x 3.695520 0.000000 0.000000 
#    y 0.000000 3.534310 0.000000 
#    z 0.000000 0.000000 3.689170 
# 
# 
# High freq. dielectric constant tensor:
#      x y z
#    x 1.762060 0.000000 0.000000 
#    y 0.000000 1.763110 0.000000 
#    z 0.000000 0.000000 1.758670 
# 
# From -- ./inp_files/61953.got.cif
#   From: 2010.06.25/outbox.cif.g09.slc.cpg/sg71_31_cif.got.tgz:61953.got - 2010.06.28 04:59:45.
