data_PCOD8290198
_publ_section_title
;
Structure prediction by ZEFSAII (Michael W. Deem and Ramdas Pophale) SiO2 
 PCOD8290198
Probable space group: I M M M
;
_chemical_formula_sum "Si O2"
_cell_formula_units_Z 112
_cell_length_a 14.444163
_cell_length_b 24.334132
_cell_length_c 15.735517
_cell_angle_alpha 90.000000
_cell_angle_beta 90.000000
_cell_angle_gamma 90.000000
_cell_volume 5530.816589
_symmetry_space_group_name_H-M "I M M M"
_symmetry_group_IT_number 71
_symmetry_cell_setting 'orthorhombic'
loop_
_space_group_symop_operation_xyz
x,y,z
-x,-y,z
x,-y,-z
-x,y,-z
-x,-y,-z
x,y,-z
-x,y,z
x,-y,z
1/2+x,1/2+y,1/2+z
1/2-x,1/2-y,1/2+z
1/2+x,1/2-y,1/2-z
1/2-x,1/2+y,1/2-z
1/2-x,1/2-y,1/2-z
1/2+x,1/2+y,1/2-z
1/2-x,1/2+y,1/2+z
1/2+x,1/2-y,1/2+z
loop_
_atom_site_type_symbol
_atom_site_label
_atom_site_fract_x
_atom_site_fract_y
_atom_site_fract_z
Si Si1 0.397592 0.286615 0.151985
Si Si2 0.394147 0.724947 0.656927
Si Si3 0.793656 0.123786 0.095434
Si Si4 0.207184 0.325391 0.094271
Si Si5 0.398762 0.166578 0.097687
Si Si6 0.772432 0.061952 0.402315
Si Si7 0.602166 0.563932 0.255856
O O1 0.500000 0.302748 0.117026
O O2 0.387341 0.303272 0.250688
O O3 0.318069 0.315891 0.098313
O O4 0.385934 0.221021 0.152877
O O5 0.500000 0.729588 0.626148
O O6 0.335769 0.685474 0.595220
O O7 0.349469 0.786314 0.657882
O O8 0.684163 0.124671 0.118795
O O9 0.840429 0.085720 0.164615
O O10 0.808070 0.100055 0.000000
O O11 0.193245 0.391051 0.112591
O O12 0.172042 0.311089 0.000000
O O13 0.500000 0.139422 0.116416
O O14 0.391712 0.185215 0.000000
O O15 0.808962 0.066052 0.500000
O O16 0.854173 0.076242 0.336289
O O17 0.733347 0.000000 0.385234
O O18 0.500000 0.591100 0.256215
O O19 0.594366 0.500000 0.271064
#
# Coordination Sequence:
#
# PCOD8290198 Si02
#       7
#    16  16  16  16  16  16  16
#     4  10  20  33  51  77 108 142 179 225 276 329
#     4  11  23  35  50  78 113 150 188 225 273 328
#     4  11  22  36  57  82 114 157 195 231 275 325
#     4  11  21  33  53  78 107 143 179 222 274 332
#     4   9  18  33  53  79 110 143 183 230 282 336
#     4   9  20  38  59  82 107 140 184 235 292 344
#     4  10  22  39  59  84 114 151 192 232 276 329
#
# _framework density 20.250174999999999
#
# number of rings (size 3 to 8) (size 9 to 14) (size 15 to 20)
#    0.000    1.857    1.429    2.571    2.000    5.143 
#    0.000    3.571    0.000    0.857    0.000    6.000 
#    0.000    0.000    0.000    0.000    0.000    0.286 
#
# Total GULP energy -694083.492132 kJ/mol
# GULP energy per Si atom -12394.348074 kJ/mol
# Density = 2.020408 g / cm^3
# Si number density = 20.250175 Si / 1000 Ang^3
#
#
#
# Elastic Constant Matrix: (Units=GPa)
#
#
# Indices 1 2 3 4 5 6 
#
# 1 98.0261 24.9368 23.4423 0.0005 0.0001 0.0001
# 2 24.9368 44.7711 17.3528 0.0010 0.0001 0.0000
# 3 23.4423 17.3528 78.0346 0.0009 0.0000 0.0000
# 4 0.0005 0.0010 0.0009 32.9696 0.0000 0.0000
# 5 0.0001 0.0001 0.0000 0.0000 23.4546 0.0000
# 6 0.0001 0.0000 0.0000 0.0000 0.0000 21.5199
#
#
#
# Elastic Compliance Matrix: (Units=1/GPa)
#
#
# Indices 1 2 3 4 5 6 
#
# 1 0.012274 -0.005917 -0.002371 0.000000 0.000000 0.000000
# 2 -0.005917 0.027295 -0.004292 -0.000001 0.000000 0.000000
# 3 -0.002371 -0.004292 0.014482 0.000000 0.000000 0.000000
# 4 0.000000 -0.000001 0.000000 0.030331 0.000000 0.000000
# 5 0.000000 0.000000 0.000000 0.000000 0.042636 0.000000
# 6 0.000000 0.000000 0.000000 0.000000 0.000000 0.046469
#
#
# Mechanical properties :
#
#
# Convention : Reuss Voigt Hill
#
# Bulk Modulus (GPa) = 34.61488 39.14393 36.87941
# Shear Modulus (GPa) = 24.00653 25.92881 24.96767
#
# Velocity S-wave (km/s) = 3.44684 3.58218 3.51516
# Velocity P-wave (km/s) = 5.74210 6.03999 5.89293
#
# Compressibility (1/GPa) = 0.02888931
#
# Stress axis : x y z
#
# Youngs Moduli (GPa) = 81.47494 36.63652 69.05293
#
# Poissons Ratio (x) = 0.21678 0.16375
# Poissons Ratio (y) = 0.48210 0.29638
# Poissons Ratio (z) = 0.19320 0.15725
#
# Static dielectric constant tensor:
#      x y z
#    x 3.740730 0.000000 0.000000 
#    y 0.000000 3.616570 0.000000 
#    z 0.000000 0.000000 3.587510 
# 
# 
# High freq. dielectric constant tensor:
#      x y z
#    x 1.774060 0.000000 0.000000 
#    y 0.000000 1.776420 0.000000 
#    z 0.000000 0.000000 1.795870 
# 
# From -- ./inp_files/34849.got.cif
#   From: 2010.06.25/outbox.cif.g09.slc.cpg/sg71_18_cif.got.tgz:34849.got - 2010.06.28 04:59:45.
