data_PCOD8290964
_publ_section_title
;
Structure prediction by ZEFSAII (Michael W. Deem and Ramdas Pophale) SiO2 
 PCOD8290964
Probable space group: I M M M
;
_chemical_formula_sum "Si O2"
_cell_formula_units_Z 88
_cell_length_a 8.810491
_cell_length_b 20.074100
_cell_length_c 24.094452
_cell_angle_alpha 90.000000
_cell_angle_beta 90.000000
_cell_angle_gamma 90.000000
_cell_volume 4261.409291
_symmetry_space_group_name_H-M "I M M M"
_symmetry_group_IT_number 71
_symmetry_cell_setting 'orthorhombic'
loop_
_space_group_symop_operation_xyz
x,y,z
-x,-y,z
x,-y,-z
-x,y,-z
-x,-y,-z
x,y,-z
-x,y,z
x,-y,z
1/2+x,1/2+y,1/2+z
1/2-x,1/2-y,1/2+z
1/2+x,1/2-y,1/2-z
1/2-x,1/2+y,1/2-z
1/2-x,1/2-y,1/2-z
1/2+x,1/2+y,1/2-z
1/2-x,1/2+y,1/2+z
1/2+x,1/2-y,1/2+z
loop_
_atom_site_type_symbol
_atom_site_label
_atom_site_fract_x
_atom_site_fract_y
_atom_site_fract_z
Si Si1 0.179349 0.500000 0.936271
Si Si2 0.176296 0.877160 0.626734
Si Si3 0.825905 0.626700 0.437929
Si Si4 0.669757 0.765071 0.436334
Si Si5 0.174616 0.073525 0.163257
Si Si6 0.179456 0.823134 0.255475
O O1 0.231036 0.435834 0.902055
O O2 0.000000 0.500000 0.938962
O O3 0.243499 0.500000 0.000000
O O4 0.206380 0.809528 0.593945
O O5 0.231537 0.862797 0.689448
O O6 0.000000 0.896087 0.624593
O O7 0.803177 0.597507 0.500000
O O8 0.718253 0.689512 0.428341
O O9 0.774082 0.572849 0.392851
O O10 0.000000 0.647481 0.428695
O O11 0.669645 0.786585 0.500000
O O12 0.500000 0.774322 0.411339
O O13 0.234779 0.130460 0.204846
O O14 0.000000 0.086954 0.148100
O O15 0.193187 0.000000 0.190417
O O16 0.250000 0.750000 0.250000
O O17 0.000000 0.813976 0.256054
#
# Coordination Sequence:
#
# PCOD8290964 Si02
#       6
#     8  16  16  16  16  16
#     4  11  25  43  61  87 125 167 212 259 310 375
#     4  11  23  38  61  89 120 158 202 254 310 367
#     4  10  21  37  58  86 120 154 192 242 298 354
#     4  10  20  35  57  85 118 155 197 246 297 353
#     4  10  22  40  62  85 115 156 199 243 294 356
#     4  10  23  41  63  90 121 157 200 252 306 362
#
# _framework density 20.650445999999999
#
# number of rings (size 3 to 8) (size 9 to 14) (size 15 to 20)
#    0.000    1.727    0.000    3.545    1.273   10.909 
#    0.000    1.818    0.000    0.000    0.000    0.000 
#    0.000    0.000    0.000    0.000    0.000    0.000 
#
# Total GULP energy -545599.635021 kJ/mol
# GULP energy per Si atom -12399.991705 kJ/mol
# Density = 2.060344 g / cm^3
# Si number density = 20.650446 Si / 1000 Ang^3
#
#
#
# Elastic Constant Matrix: (Units=GPa)
#
#
# Indices 1 2 3 4 5 6 
#
# 1 63.4830 32.5361 46.5130 0.0000 0.0000 0.0000
# 2 32.5361 108.6030 75.2710 0.0000 0.0000 0.0000
# 3 46.5130 75.2710 137.5177 0.0000 0.0000 0.0000
# 4 0.0000 0.0000 0.0000 36.5287 0.0000 0.0000
# 5 0.0000 0.0000 0.0000 0.0000 31.3300 0.0000
# 6 0.0000 0.0000 0.0000 0.0000 0.0000 22.8133
#
#
#
# Elastic Compliance Matrix: (Units=1/GPa)
#
#
# Indices 1 2 3 4 5 6 
#
# 1 0.021273 -0.002234 -0.005973 0.000000 0.000000 0.000000
# 2 -0.002234 0.015071 -0.007494 0.000000 0.000000 0.000000
# 3 -0.005973 -0.007494 0.013394 0.000000 0.000000 0.000000
# 4 0.000000 0.000000 0.000000 0.027376 0.000000 0.000000
# 5 0.000000 0.000000 0.000000 0.000000 0.031918 0.000000
# 6 0.000000 0.000000 0.000000 0.000000 0.000000 0.043834
#
#
# Mechanical properties :
#
#
# Convention : Reuss Voigt Hill
#
# Bulk Modulus (GPa) = 54.53243 68.69376 61.61309
# Shear Modulus (GPa) = 26.26361 28.48665 27.37513
#
# Velocity S-wave (km/s) = 3.57012 3.71815 3.64489
# Velocity P-wave (km/s) = 6.59235 7.19514 6.90033
#
# Compressibility (1/GPa) = 0.01833771
#
# Stress axis : x y z
#
# Youngs Moduli (GPa) = 47.00777 66.35423 74.66276
#
# Poissons Ratio (x) = 0.14821 0.44594
# Poissons Ratio (y) = 0.10500 0.55949
# Poissons Ratio (z) = 0.28076 0.49723
#
# Static dielectric constant tensor:
#      x y z
#    x 3.696620 0.000000 0.000000 
#    y 0.000000 3.753040 0.000000 
#    z 0.000000 0.000000 4.023700 
# 
# 
# High freq. dielectric constant tensor:
#      x y z
#    x 1.806000 0.000000 0.000000 
#    y 0.000000 1.809850 0.000000 
#    z 0.000000 0.000000 1.816020 
# 
# From -- ./inp_files/50516.got.cif
#   From: 2010.06.25/outbox.cif.g09.slc.cpg/sg71_26_cif.got.tgz:50516.got - 2010.06.28 04:59:45.
