data_PCOD8290818
_publ_section_title
;
Structure prediction by ZEFSAII (Michael W. Deem and Ramdas Pophale) SiO2 
 PCOD8290818
Probable space group: I M M M
;
_chemical_formula_sum "Si O2"
_cell_formula_units_Z 88
_cell_length_a 16.386829
_cell_length_b 13.533316
_cell_length_c 19.903234
_cell_angle_alpha 90.000000
_cell_angle_beta 90.000000
_cell_angle_gamma 90.000000
_cell_volume 4413.903087
_symmetry_space_group_name_H-M "I M M M"
_symmetry_group_IT_number 71
_symmetry_cell_setting 'orthorhombic'
loop_
_space_group_symop_operation_xyz
x,y,z
-x,-y,z
x,-y,-z
-x,y,-z
-x,-y,-z
x,y,-z
-x,y,z
x,-y,z
1/2+x,1/2+y,1/2+z
1/2-x,1/2-y,1/2+z
1/2+x,1/2-y,1/2-z
1/2-x,1/2+y,1/2-z
1/2-x,1/2-y,1/2-z
1/2+x,1/2+y,1/2-z
1/2-x,1/2+y,1/2+z
1/2+x,1/2-y,1/2+z
loop_
_atom_site_type_symbol
_atom_site_label
_atom_site_fract_x
_atom_site_fract_y
_atom_site_fract_z
Si Si1 0.590402 0.383997 0.500000
Si Si2 0.683034 0.711525 0.867552
Si Si3 0.162533 0.110292 0.500000
Si Si4 0.907756 0.212458 0.768144
Si Si5 0.352446 0.883572 0.645578
Si Si6 0.699350 0.385312 0.375250
Si Si7 0.644176 0.107819 0.500000
O O1 0.579658 0.500000 0.500000
O O2 0.500000 0.334729 0.500000
O O3 0.640387 0.349981 0.435061
O O4 0.636214 0.670805 0.933497
O O5 0.616416 0.716515 0.809398
O O6 0.756278 0.638216 0.845783
O O7 0.718126 0.821695 0.880368
O O8 0.259055 0.100434 0.500000
O O9 0.123234 0.000000 0.500000
O O10 0.902074 0.322935 0.799001
O O11 0.848015 0.136655 0.806129
O O12 0.000000 0.173636 0.774081
O O13 0.382023 0.843415 0.571130
O O14 0.368330 0.000000 0.654809
O O15 0.723407 0.500000 0.379637
O O16 0.604774 0.000000 0.500000
#
# Coordination Sequence:
#
# PCOD8290818 Si02
#       7
#     8  16   8  16  16  16   8
#     4   9  17  30  50  77 107 136 165 201 252 317
#     4  10  20  35  56  80 104 134 180 230 273 327
#     4   9  17  33  59  84 102 125 163 219 283 330
#     4  11  24  36  48  74 110 146 183 226 275 321
#     4   9  17  33  56  80 106 138 179 226 276 327
#     4  10  20  35  55  78 107 145 183 216 258 320
#     4   7  12  25  50  81 105 126 161 211 258 305
#
# _framework density 19.937003000000001
#
# number of rings (size 3 to 8) (size 9 to 14) (size 15 to 20)
#    0.000    2.455    0.000    4.909    0.000    7.273 
#    0.000    1.818    0.000    2.182    0.000    0.000 
#    0.000    6.545    0.000    0.000    0.000    0.000 
#
# Total GULP energy -545306.636288 kJ/mol
# GULP energy per Si atom -12393.332643 kJ/mol
# Density = 1.989163 g / cm^3
# Si number density = 19.937003 Si / 1000 Ang^3
#
#
#
# Elastic Constant Matrix: (Units=GPa)
#
#
# Indices 1 2 3 4 5 6 
#
# 1 27.1722 8.1342 25.8789 0.0000 0.0000 0.0000
# 2 8.1342 119.4184 42.1281 0.0000 0.0000 0.0000
# 3 25.8789 42.1281 157.7924 0.0000 0.0000 0.0000
# 4 0.0000 0.0000 0.0000 26.2632 0.0000 0.0000
# 5 0.0000 0.0000 0.0000 0.0000 17.7724 0.0000
# 6 0.0000 0.0000 0.0000 0.0000 0.0000 8.3699
#
#
#
# Elastic Compliance Matrix: (Units=1/GPa)
#
#
# Indices 1 2 3 4 5 6 
#
# 1 0.043641 -0.000494 -0.007026 0.000000 0.000000 0.000000
# 2 -0.000494 0.009250 -0.002389 0.000000 0.000000 0.000000
# 3 -0.007026 -0.002389 0.008127 0.000000 0.000000 0.000000
# 4 0.000000 0.000000 0.000000 0.038076 0.000000 0.000000
# 5 0.000000 0.000000 0.000000 0.000000 0.056267 0.000000
# 6 0.000000 0.000000 0.000000 0.000000 0.000000 0.119476
#
#
# Mechanical properties :
#
#
# Convention : Reuss Voigt Hill
#
# Bulk Modulus (GPa) = 24.27042 50.74058 37.50550
# Shear Modulus (GPa) = 16.21328 25.69721 20.95524
#
# Velocity S-wave (km/s) = 2.85480 3.59405 3.24554
# Velocity P-wave (km/s) = 4.80276 6.53671 5.73564
#
# Compressibility (1/GPa) = 0.04120242
#
# Stress axis : x y z
#
# Youngs Moduli (GPa) = 22.91400 108.10539 123.04069
#
# Poissons Ratio (x) = 0.05342 0.86443
# Poissons Ratio (y) = 0.01132 0.29390
# Poissons Ratio (z) = 0.16098 0.25822
#
# Static dielectric constant tensor:
#      x y z
#    x 3.120770 0.000000 0.000000 
#    y 0.000000 3.614880 0.000000 
#    z 0.000000 0.000000 3.905210 
# 
# 
# High freq. dielectric constant tensor:
#      x y z
#    x 1.724750 0.000000 0.000000 
#    y 0.000000 1.781260 0.000000 
#    z 0.000000 0.000000 1.788180 
# 
# From -- ./inp_files/45907.got.cif
#   From: 2010.06.25/outbox.cif.g09.slc.cpg/sg71_23_cif.got.tgz:45907.got - 2010.06.28 04:59:45.
