data_PCOD8290646
_publ_section_title
;
Structure prediction by ZEFSAII (Michael W. Deem and Ramdas Pophale) SiO2 
 PCOD8290646
Probable space group: I M M M
;
_chemical_formula_sum "Si O2"
_cell_formula_units_Z 96
_cell_length_a 24.678579
_cell_length_b 24.496259
_cell_length_c 8.789273
_cell_angle_alpha 90.000000
_cell_angle_beta 90.000000
_cell_angle_gamma 90.000000
_cell_volume 5313.404370
_symmetry_space_group_name_H-M "I M M M"
_symmetry_group_IT_number 71
_symmetry_cell_setting 'orthorhombic'
loop_
_space_group_symop_operation_xyz
x,y,z
-x,-y,z
x,-y,-z
-x,y,-z
-x,-y,-z
x,y,-z
-x,y,z
x,-y,z
1/2+x,1/2+y,1/2+z
1/2-x,1/2-y,1/2+z
1/2+x,1/2-y,1/2-z
1/2-x,1/2+y,1/2-z
1/2-x,1/2-y,1/2-z
1/2+x,1/2+y,1/2-z
1/2-x,1/2+y,1/2+z
1/2+x,1/2-y,1/2+z
loop_
_atom_site_type_symbol
_atom_site_label
_atom_site_fract_x
_atom_site_fract_y
_atom_site_fract_z
Si Si1 0.725649 0.500000 0.166726
Si Si2 0.636142 0.411264 0.826147
Si Si3 0.831475 0.500000 0.324596
Si Si4 0.314738 0.805070 0.178343
Si Si5 0.563739 0.500000 0.676550
Si Si6 0.191620 0.811142 0.178836
Si Si7 0.614366 0.103379 0.320072
Si Si8 0.500000 0.938156 0.680173
O O1 0.690104 0.553608 0.182248
O O2 0.766906 0.500000 0.306361
O O3 0.754337 0.500000 0.000000
O O4 0.586988 0.444808 0.751401
O O5 0.648880 0.356116 0.735027
O O6 0.620439 0.397593 0.000000
O O7 0.847961 0.500000 0.500000
O O8 0.852314 0.553132 0.242304
O O9 0.254109 0.826562 0.218836
O O10 0.323759 0.744197 0.236500
O O11 0.360636 0.841298 0.256605
O O12 0.324581 0.806921 0.000000
O O13 0.500000 0.500000 0.703268
O O14 0.579625 0.500000 0.500000
O O15 0.184684 0.802375 0.000000
O O16 0.618500 0.104165 0.500000
O O17 0.552355 0.095745 0.264537
O O18 0.500000 0.943617 0.500000
O O19 0.500000 0.000000 0.748899
#
# Coordination Sequence:
#
# PCOD8290646 Si02
#       8
#     8  16   8  16   8  16  16   8
#     4   9  19  33  49  75 109 145 179 210 261 324
#     4  10  20  34  55  81 110 143 179 223 269 317
#     4  12  23  32  47  76 110 140 175 221 271 321
#     4  10  21  36  55  82 113 143 179 223 269 320
#     4  10  21  37  58  83 110 143 182 222 269 329
#     4  10  20  35  56  81 112 149 182 215 263 324
#     4  11  21  36  57  77 102 139 182 225 271 323
#     4   9  18  36  58  78 100 136 184 225 266 317
#
# _framework density 18.067513000000002
#
# number of rings (size 3 to 8) (size 9 to 14) (size 15 to 20)
#    0.000    1.833    0.833    4.500    0.000    7.333 
#    0.000    2.083    1.833    0.000    0.000    0.000 
#    0.000    0.000    0.000    0.000    0.000    0.000 
#
# Total GULP energy -595214.048075 kJ/mol
# GULP energy per Si atom -12400.292668 kJ/mol
# Density = 1.802639 g / cm^3
# Si number density = 18.067513 Si / 1000 Ang^3
#
#
#
# Elastic Constant Matrix: (Units=GPa)
#
#
# Indices 1 2 3 4 5 6 
#
# 1 104.2166 41.7726 40.6188 0.0000 0.0000 0.0000
# 2 41.7726 64.9269 26.0582 0.0000 0.0000 0.0000
# 3 40.6188 26.0582 82.8281 0.0000 0.0000 0.0000
# 4 0.0000 0.0000 0.0000 34.0353 0.0000 0.0000
# 5 0.0000 0.0000 0.0000 0.0000 24.2696 0.0000
# 6 0.0000 0.0000 0.0000 0.0000 0.0000 44.1544
#
#
#
# Elastic Compliance Matrix: (Units=1/GPa)
#
#
# Indices 1 2 3 4 5 6 
#
# 1 0.014393 -0.007356 -0.004744 0.000000 0.000000 0.000000
# 2 -0.007356 0.021387 -0.003121 0.000000 0.000000 0.000000
# 3 -0.004744 -0.003121 0.015382 0.000000 0.000000 0.000000
# 4 0.000000 0.000000 0.000000 0.029381 0.000000 0.000000
# 5 0.000000 0.000000 0.000000 0.000000 0.041204 0.000000
# 6 0.000000 0.000000 0.000000 0.000000 0.000000 0.022648
#
#
# Mechanical properties :
#
#
# Convention : Reuss Voigt Hill
#
# Bulk Modulus (GPa) = 48.26410 52.09676 50.18043
# Shear Modulus (GPa) = 27.51126 30.05998 28.78562
#
# Velocity S-wave (km/s) = 3.90640 4.08334 3.99585
# Velocity P-wave (km/s) = 6.86424 7.15043 7.00880
#
# Compressibility (1/GPa) = 0.02071934
#
# Stress axis : x y z
#
# Youngs Moduli (GPa) = 69.47874 46.75655 65.01275
#
# Poissons Ratio (x) = 0.34395 0.30842
# Poissons Ratio (y) = 0.51109 0.20292
# Poissons Ratio (z) = 0.32961 0.14594
#
# Static dielectric constant tensor:
#      x y z
#    x 3.368240 0.000000 0.000000 
#    y 0.000000 3.287010 0.000000 
#    z 0.000000 0.000000 3.430870 
# 
# 
# High freq. dielectric constant tensor:
#      x y z
#    x 1.687030 0.000000 0.000000 
#    y 0.000000 1.699970 0.000000 
#    z 0.000000 0.000000 1.709310 
# 
# From -- ./inp_files/12987.got.cif
#   From: 2010.06.25/outbox.cif.g09.slc.cpg/sg71_7_cif.got.tgz:12987.got - 2010.06.28 04:59:45.
