data_PCOD8290481
_publ_section_title
;
Structure prediction by ZEFSAII (Michael W. Deem and Ramdas Pophale) SiO2 
 PCOD8290481
Probable space group: I M M M
;
_chemical_formula_sum "Si O2"
_cell_formula_units_Z 64
_cell_length_a 8.875340
_cell_length_b 14.131140
_cell_length_c 28.110985
_cell_angle_alpha 90.000000
_cell_angle_beta 90.000000
_cell_angle_gamma 90.000000
_cell_volume 3525.642410
_symmetry_space_group_name_H-M "I M M M"
_symmetry_group_IT_number 71
_symmetry_cell_setting 'orthorhombic'
loop_
_space_group_symop_operation_xyz
x,y,z
-x,-y,z
x,-y,-z
-x,y,-z
-x,-y,-z
x,y,-z
-x,y,z
x,-y,z
1/2+x,1/2+y,1/2+z
1/2-x,1/2-y,1/2+z
1/2+x,1/2-y,1/2-z
1/2-x,1/2+y,1/2-z
1/2-x,1/2-y,1/2-z
1/2+x,1/2+y,1/2-z
1/2-x,1/2+y,1/2+z
1/2+x,1/2-y,1/2+z
loop_
_atom_site_type_symbol
_atom_site_label
_atom_site_fract_x
_atom_site_fract_y
_atom_site_fract_z
Si Si1 0.174063 0.391436 0.746388
Si Si2 0.324029 0.610189 0.500000
Si Si3 0.322120 0.242342 0.073661
Si Si4 0.825418 0.240705 0.825235
Si Si5 0.177788 0.895730 0.500000
O O1 0.217360 0.500000 0.755683
O O2 0.208764 0.334341 0.794536
O O3 0.275326 0.352353 0.703532
O O4 0.000000 0.379527 0.731754
O O5 0.288050 0.500000 0.500000
O O6 0.500000 0.632139 0.500000
O O7 0.252646 0.652994 0.452189
O O8 0.500000 0.228494 0.070949
O O9 0.271111 0.249494 0.127554
O O10 0.270812 0.338407 0.046865
O O11 0.000000 0.231032 0.838355
O O12 0.000000 0.906747 0.500000
O O13 0.253769 0.000000 0.500000
#
# Coordination Sequence:
#
# PCOD8290481 Si02
#       5
#    16   8  16  16   8
#     4   9  19  36  55  75 102 136 173 213 257 305
#     4  10  21  37  56  77 102 133 171 216 260 300
#     4  10  20  34  54  78 105 138 171 206 253 306
#     4  10  20  34  53  77 105 135 170 213 257 302
#     4   8  16  32  52  75 102 131 167 208 246 292
#
# _framework density 18.152721
#
# number of rings (size 3 to 8) (size 9 to 14) (size 15 to 20)
#    0.000    2.500    0.000    2.625    0.000    4.500 
#    0.000    0.000    0.000   12.750    0.000    0.000 
#    0.000    0.000    0.000    0.000    0.000    0.000 
#
# Total GULP energy -396857.959070 kJ/mol
# GULP energy per Si atom -12401.811221 kJ/mol
# Density = 1.811140 g / cm^3
# Si number density = 18.152721 Si / 1000 Ang^3
#
#
#
# Elastic Constant Matrix: (Units=GPa)
#
#
# Indices 1 2 3 4 5 6 
#
# 1 71.9017 57.9426 43.9710 0.0000 0.0000 0.0000
# 2 57.9426 149.8248 66.7164 0.0000 0.0000 0.0000
# 3 43.9710 66.7164 124.4016 0.0000 0.0000 0.0000
# 4 0.0000 0.0000 0.0000 12.4992 0.0000 0.0000
# 5 0.0000 0.0000 0.0000 0.0000 22.4263 0.0000
# 6 0.0000 0.0000 0.0000 0.0000 0.0000 24.7590
#
#
#
# Elastic Compliance Matrix: (Units=1/GPa)
#
#
# Indices 1 2 3 4 5 6 
#
# 1 0.021736 -0.006549 -0.004171 0.000000 0.000000 0.000000
# 2 -0.006549 0.010742 -0.003446 0.000000 0.000000 0.000000
# 3 -0.004171 -0.003446 0.011361 0.000000 0.000000 0.000000
# 4 0.000000 0.000000 0.000000 0.080005 0.000000 0.000000
# 5 0.000000 0.000000 0.000000 0.000000 0.044590 0.000000
# 6 0.000000 0.000000 0.000000 0.000000 0.000000 0.040389
#
#
# Mechanical properties :
#
#
# Convention : Reuss Voigt Hill
#
# Bulk Modulus (GPa) = 64.48581 75.93202 70.20892
# Shear Modulus (GPa) = 20.63360 23.77010 22.20185
#
# Velocity S-wave (km/s) = 3.37511 3.62256 3.50102
# Velocity P-wave (km/s) = 7.12668 7.70828 7.42318
#
# Compressibility (1/GPa) = 0.01550729
#
# Stress axis : x y z
#
# Youngs Moduli (GPa) = 46.00700 93.09594 88.02284
#
# Poissons Ratio (x) = 0.60967 0.36711
# Poissons Ratio (y) = 0.30129 0.30332
# Poissons Ratio (z) = 0.19188 0.32080
#
# Static dielectric constant tensor:
#      x y z
#    x 3.329930 0.000000 0.000000 
#    y 0.000000 3.534320 0.000000 
#    z 0.000000 0.000000 3.316350 
# 
# 
# High freq. dielectric constant tensor:
#      x y z
#    x 1.703120 0.000000 0.000000 
#    y 0.000000 1.706250 0.000000 
#    z 0.000000 0.000000 1.704600 
# 
# From -- ./inp_files/5853.got.cif
#   From: 2010.06.25/outbox.cif.g09.slc.cpg/sg71_3_cif.got.tgz:5853.got - 2010.06.28 04:59:45.
