data_PCOD8290780
_publ_section_title
;
Structure prediction by ZEFSAII (Michael W. Deem and Ramdas Pophale) SiO2 
 PCOD8290780
Probable space group: I M M M
;
_chemical_formula_sum "Si O2"
_cell_formula_units_Z 64
_cell_length_a 9.097056
_cell_length_b 10.344011
_cell_length_c 35.701782
_cell_angle_alpha 90.000000
_cell_angle_beta 90.000000
_cell_angle_gamma 90.000000
_cell_volume 3359.539376
_symmetry_space_group_name_H-M "I M M M"
_symmetry_group_IT_number 71
_symmetry_cell_setting 'orthorhombic'
loop_
_space_group_symop_operation_xyz
x,y,z
-x,-y,z
x,-y,-z
-x,y,-z
-x,-y,-z
x,y,-z
-x,y,z
x,-y,z
1/2+x,1/2+y,1/2+z
1/2-x,1/2-y,1/2+z
1/2+x,1/2-y,1/2-z
1/2-x,1/2+y,1/2-z
1/2-x,1/2-y,1/2-z
1/2+x,1/2+y,1/2-z
1/2-x,1/2+y,1/2+z
1/2+x,1/2-y,1/2+z
loop_
_atom_site_type_symbol
_atom_site_label
_atom_site_fract_x
_atom_site_fract_y
_atom_site_fract_z
Si Si1 0.174303 0.500000 0.834690
Si Si2 0.672299 0.000000 0.914272
Si Si3 0.670312 0.259359 0.956238
Si Si4 0.172563 0.000000 0.164752
Si Si5 0.826149 0.748703 0.789761
Si Si6 0.325169 0.000000 0.419484
O O1 0.232488 0.373857 0.813111
O O2 0.235338 0.500000 0.876947
O O3 0.000000 0.500000 0.835787
O O4 0.720779 0.874032 0.937327
O O5 0.751168 0.000000 0.874894
O O6 0.500000 0.000000 0.907135
O O7 0.500000 0.290116 0.948146
O O8 0.768264 0.373444 0.940111
O O9 0.700714 0.246007 0.000000
O O10 0.223212 0.875241 0.187827
O O11 0.000000 0.000000 0.157591
O O12 0.750000 0.750000 0.750000
O O13 0.000000 0.743484 0.783718
O O14 0.500000 0.000000 0.420691
#
# Coordination Sequence:
#
# PCOD8290780 Si02
#       6
#     8   8  16   8  16   8
#     4   9  19  35  53  73 103 140 171 207 261 317
#     4  10  21  37  59  84 108 143 190 230 269 328
#     4  10  21  38  58  81 112 147 182 226 279 328
#     4  10  21  36  54  78 110 143 174 219 279 329
#     4  10  20  35  54  76 103 137 175 215 264 318
#     4  11  22  37  58  83 111 146 187 226 269 328
#
# _framework density 19.050232000000001
#
# number of rings (size 3 to 8) (size 9 to 14) (size 15 to 20)
#    0.000    2.000    0.000    3.375    0.000    7.500 
#    0.000    2.500    0.000    2.250    0.000    0.000 
#    0.000    0.000    0.000    0.000    0.000    0.000 
#
# Total GULP energy -396929.990212 kJ/mol
# GULP energy per Si atom -12404.062194 kJ/mol
# Density = 1.900687 g / cm^3
# Si number density = 19.050232 Si / 1000 Ang^3
#
#
#
# Elastic Constant Matrix: (Units=GPa)
#
#
# Indices 1 2 3 4 5 6 
#
# 1 45.6008 54.1710 56.0398 0.0000 0.0000 0.0000
# 2 54.1710 203.7645 104.5609 0.0000 0.0000 0.0000
# 3 56.0398 104.5609 181.1115 0.0000 0.0000 0.0000
# 4 0.0000 0.0000 0.0000 43.0870 0.0000 0.0000
# 5 0.0000 0.0000 0.0000 0.0000 37.7843 0.0000
# 6 0.0000 0.0000 0.0000 0.0000 0.0000 61.3256
#
#
#
# Elastic Compliance Matrix: (Units=1/GPa)
#
#
# Indices 1 2 3 4 5 6 
#
# 1 0.040094 -0.006100 -0.008884 0.000000 0.000000 0.000000
# 2 -0.006100 0.007902 -0.002674 0.000000 0.000000 0.000000
# 3 -0.008884 -0.002674 0.009814 0.000000 0.000000 0.000000
# 4 0.000000 0.000000 0.000000 0.023209 0.000000 0.000000
# 5 0.000000 0.000000 0.000000 0.000000 0.026466 0.000000
# 6 0.000000 0.000000 0.000000 0.000000 0.000000 0.016306
#
#
# Mechanical properties :
#
#
# Convention : Reuss Voigt Hill
#
# Bulk Modulus (GPa) = 44.45872 95.55780 70.00826
# Shear Modulus (GPa) = 30.01085 42.81973 36.41529
#
# Velocity S-wave (km/s) = 3.97338 4.74616 4.37686
# Velocity P-wave (km/s) = 6.66623 8.96128 7.89757
#
# Compressibility (1/GPa) = 0.02249277
#
# Stress axis : x y z
#
# Youngs Moduli (GPa) = 24.94134 126.55516 101.89111
#
# Poissons Ratio (x) = 0.77201 0.90522
# Poissons Ratio (y) = 0.15215 0.27249
# Poissons Ratio (z) = 0.22158 0.33845
#
# Static dielectric constant tensor:
#      x y z
#    x 2.626590 0.000000 0.000000 
#    y 0.000000 3.595270 0.000000 
#    z 0.000000 0.000000 3.606690 
# 
# 
# High freq. dielectric constant tensor:
#      x y z
#    x 1.719690 0.000000 0.000000 
#    y 0.000000 1.763060 0.000000 
#    z 0.000000 0.000000 1.759080 
# 
# From -- ./inp_files/67734.got.cif
#   From: 2010.06.25/outbox.cif.g09.slc.cpg/sg71_34_cif.got.tgz:67734.got - 2010.06.28 04:59:45.
