data_PCOD8290326
_publ_section_title
;
Structure prediction by ZEFSAII (Michael W. Deem and Ramdas Pophale) SiO2 
 PCOD8290326
Probable space group: I M M M
;
_chemical_formula_sum "Si O2"
_cell_formula_units_Z 104
_cell_length_a 28.086270
_cell_length_b 11.016409
_cell_length_c 17.916641
_cell_angle_alpha 90.000000
_cell_angle_beta 90.000000
_cell_angle_gamma 90.000000
_cell_volume 5543.584982
_symmetry_space_group_name_H-M "I M M M"
_symmetry_group_IT_number 71
_symmetry_cell_setting 'orthorhombic'
loop_
_space_group_symop_operation_xyz
x,y,z
-x,-y,z
x,-y,-z
-x,y,-z
-x,-y,-z
x,y,-z
-x,y,z
x,-y,z
1/2+x,1/2+y,1/2+z
1/2-x,1/2-y,1/2+z
1/2+x,1/2-y,1/2-z
1/2-x,1/2+y,1/2-z
1/2-x,1/2-y,1/2-z
1/2+x,1/2+y,1/2-z
1/2-x,1/2+y,1/2+z
1/2+x,1/2-y,1/2+z
loop_
_atom_site_type_symbol
_atom_site_label
_atom_site_fract_x
_atom_site_fract_y
_atom_site_fract_z
Si Si1 0.944220 0.355166 0.500000
Si Si2 0.197206 0.858149 0.313803
Si Si3 0.384343 0.141443 0.582636
Si Si4 0.054948 0.356349 0.219344
Si Si5 0.705471 0.249580 0.655815
Si Si6 0.612935 0.220316 0.140276
Si Si7 0.719260 0.500000 0.416658
Si Si8 0.168802 0.500000 0.414100
O O1 0.932888 0.500000 0.500000
O O2 0.923279 0.285534 0.571350
O O3 0.000000 0.333883 0.500000
O O4 0.243448 0.813850 0.360448
O O5 0.195103 0.767510 0.243150
O O6 0.147233 0.839635 0.358632
O O7 0.202930 0.000000 0.292819
O O8 0.389516 0.202321 0.500000
O O9 0.424742 0.189845 0.639686
O O10 0.332766 0.162477 0.618026
O O11 0.391722 0.000000 0.573036
O O12 0.062054 0.500000 0.230647
O O13 0.082543 0.286616 0.284482
O O14 0.000000 0.319482 0.223327
O O15 0.698960 0.381277 0.621148
O O16 0.650691 0.113202 0.132397
O O17 0.700207 0.500000 0.500000
O O18 0.775399 0.500000 0.411713
O O19 0.150091 0.500000 0.500000
#
# Coordination Sequence:
#
# PCOD8290326 Si02
#       8
#     8  16  16  16  16  16   8   8
#     4  11  22  36  61  95 123 149 192 251 304 345
#     4  11  24  37  57  85 116 154 196 235 278 344
#     4  10  21  37  56  82 119 155 187 229 287 348
#     4  10  20  33  55  86 113 143 187 234 287 344
#     4  11  21  38  58  83 117 151 192 236 286 336
#     4  12  19  36  59  82 121 154 185 239 289 347
#     4  11  22  34  58  86 117 150 193 236 286 336
#     4  11  20  34  54  88 119 151 186 230 294 341
#
# _framework density 18.760422999999999
#
# number of rings (size 3 to 8) (size 9 to 14) (size 15 to 20)
#    0.000    1.154    6.154    1.385    0.000    1.538 
#    1.385    1.923    0.000    2.308    0.000    0.000 
#    0.000    3.077    0.000    0.000    0.000    0.000 
#
# Total GULP energy -644634.564257 kJ/mol
# GULP energy per Si atom -12396.818543 kJ/mol
# Density = 1.871772 g / cm^3
# Si number density = 18.760423 Si / 1000 Ang^3
#
#
#
# Elastic Constant Matrix: (Units=GPa)
#
#
# Indices 1 2 3 4 5 6 
#
# 1 109.7823 18.7179 38.4884 0.0000 0.0000 0.0000
# 2 18.7179 39.8608 16.4631 0.0000 0.0000 0.0000
# 3 38.4884 16.4631 103.2016 0.0000 0.0000 0.0000
# 4 0.0000 0.0000 0.0000 23.7606 0.0000 0.0000
# 5 0.0000 0.0000 0.0000 0.0000 28.8702 0.0000
# 6 0.0000 0.0000 0.0000 0.0000 0.0000 25.8983
#
#
#
# Elastic Compliance Matrix: (Units=1/GPa)
#
#
# Indices 1 2 3 4 5 6 
#
# 1 0.010967 -0.003705 -0.003499 0.000000 0.000000 0.000000
# 2 -0.003705 0.028108 -0.003102 0.000000 0.000000 0.000000
# 3 -0.003499 -0.003102 0.011490 0.000000 0.000000 0.000000
# 4 0.000000 0.000000 0.000000 0.042087 0.000000 0.000000
# 5 0.000000 0.000000 0.000000 0.000000 0.034638 0.000000
# 6 0.000000 0.000000 0.000000 0.000000 0.000000 0.038613
#
#
# Mechanical properties :
#
#
# Convention : Reuss Voigt Hill
#
# Bulk Modulus (GPa) = 33.38593 44.46482 38.92538
# Shear Modulus (GPa) = 25.44542 27.65084 26.54813
#
# Velocity S-wave (km/s) = 3.68684 3.84330 3.76588
# Velocity P-wave (km/s) = 5.99652 6.59146 6.30102
#
# Compressibility (1/GPa) = 0.02995274
#
# Stress axis : x y z
#
# Youngs Moduli (GPa) = 91.17936 35.57672 87.03474
#
# Poissons Ratio (x) = 0.13181 0.30455
# Poissons Ratio (y) = 0.33781 0.27000
# Poissons Ratio (z) = 0.31906 0.11037
#
# Static dielectric constant tensor:
#      x y z
#    x 3.501850 0.000000 0.000000 
#    y 0.000000 3.126880 0.000000 
#    z 0.000000 0.000000 3.757310 
# 
# 
# High freq. dielectric constant tensor:
#      x y z
#    x 1.735810 0.000000 0.000000 
#    y 0.000000 1.691190 0.000000 
#    z 0.000000 0.000000 1.736500 
# 
# From -- ./inp_files/48887.got.cif
#   From: 2010.06.25/outbox.cif.g09.slc.cpg/sg71_25_cif.got.tgz:48887.got - 2010.06.28 04:59:45.
