data_PCOD8290666
_publ_section_title
;
Structure prediction by ZEFSAII (Michael W. Deem and Ramdas Pophale) SiO2 
 PCOD8290666
Probable space group: I M M M
;
_chemical_formula_sum "Si O2"
_cell_formula_units_Z 104
_cell_length_a 28.346974
_cell_length_b 21.188661
_cell_length_c 8.859141
_cell_angle_alpha 90.000000
_cell_angle_beta 90.000000
_cell_angle_gamma 90.000000
_cell_volume 5321.105038
_symmetry_space_group_name_H-M "I M M M"
_symmetry_group_IT_number 71
_symmetry_cell_setting 'orthorhombic'
loop_
_space_group_symop_operation_xyz
x,y,z
-x,-y,z
x,-y,-z
-x,y,-z
-x,-y,-z
x,y,-z
-x,y,z
x,-y,z
1/2+x,1/2+y,1/2+z
1/2-x,1/2-y,1/2+z
1/2+x,1/2-y,1/2-z
1/2-x,1/2+y,1/2-z
1/2-x,1/2-y,1/2-z
1/2+x,1/2+y,1/2-z
1/2-x,1/2+y,1/2+z
1/2+x,1/2-y,1/2+z
loop_
_atom_site_type_symbol
_atom_site_label
_atom_site_fract_x
_atom_site_fract_y
_atom_site_fract_z
Si Si1 0.693366 0.147321 0.321771
Si Si2 0.280263 0.430490 0.172765
Si Si3 0.385752 0.070480 0.171803
Si Si4 0.874767 0.902330 0.821016
Si Si5 0.446783 0.814446 0.172841
Si Si6 0.444424 0.500000 0.821003
Si Si7 0.632934 0.260597 0.677646
O O1 0.695248 0.149496 0.500000
O O2 0.744607 0.123686 0.262906
O O3 0.655833 0.094765 0.276993
O O4 0.676456 0.216533 0.258720
O O5 0.256009 0.500000 0.180738
O O6 0.326341 0.435815 0.276272
O O7 0.294656 0.415107 0.000000
O O8 0.432346 0.112651 0.192557
O O9 0.399703 0.000000 0.219908
O O10 0.367403 0.073672 0.000000
O O11 0.868340 0.831150 0.756413
O O12 0.919491 0.937234 0.745593
O O13 0.882367 0.904756 0.000000
O O14 0.500000 0.806896 0.226982
O O15 0.416388 0.770537 0.280514
O O16 0.439865 0.792634 0.000000
O O17 0.500000 0.500000 0.776958
O O18 0.437914 0.500000 0.000000
O O19 0.637828 0.264214 0.500000
#
# Coordination Sequence:
#
# PCOD8290666 Si02
#       7
#    16  16  16  16  16   8  16
#     4   9  18  34  54  77 108 149 188 222 264 318
#     4  10  20  34  55  82 113 149 187 225 266 317
#     4   9  17  29  46  71 104 140 180 228 274 317
#     4  11  23  39  60  86 114 144 177 221 277 330
#     4   9  18  32  50  73 101 136 180 226 274 327
#     4  11  25  45  67  89 113 143 183 231 282 341
#     4   9  20  37  55  78 110 144 182 225 271 328
#
# _framework density 19.544810999999999
#
# number of rings (size 3 to 8) (size 9 to 14) (size 15 to 20)
#    0.000    2.385    0.769    1.154    0.000    5.231 
#    0.000    4.615    0.000    0.000    0.000    4.308 
#    0.000    0.000    0.000    0.000    0.000    0.000 
#
# Total GULP energy -644460.619618 kJ/mol
# GULP energy per Si atom -12393.473454 kJ/mol
# Density = 1.950033 g / cm^3
# Si number density = 19.544811 Si / 1000 Ang^3
#
#
#
# Elastic Constant Matrix: (Units=GPa)
#
#
# Indices 1 2 3 4 5 6 
#
# 1 122.4142 54.8412 24.9561 0.0000 0.0000 0.0000
# 2 54.8412 148.2614 26.7782 0.0000 0.0000 0.0000
# 3 24.9561 26.7782 28.0877 0.0000 0.0000 0.0000
# 4 0.0000 0.0000 0.0000 22.6260 0.0000 0.0000
# 5 0.0000 0.0000 0.0000 0.0000 29.0888 0.0000
# 6 0.0000 0.0000 0.0000 0.0000 0.0000 22.9109
#
#
#
# Elastic Compliance Matrix: (Units=1/GPa)
#
#
# Indices 1 2 3 4 5 6 
#
# 1 0.010824 -0.002738 -0.007007 0.000000 0.000000 0.000000
# 2 -0.002738 0.008841 -0.005995 0.000000 0.000000 0.000000
# 3 -0.007007 -0.005995 0.047544 0.000000 0.000000 0.000000
# 4 0.000000 0.000000 0.000000 0.044197 0.000000 0.000000
# 5 0.000000 0.000000 0.000000 0.000000 0.034378 0.000000
# 6 0.000000 0.000000 0.000000 0.000000 0.000000 0.043647
#
#
# Mechanical properties :
#
#
# Convention : Reuss Voigt Hill
#
# Bulk Modulus (GPa) = 27.98922 56.87939 42.43431
# Shear Modulus (GPa) = 21.47573 27.73765 24.60669
#
# Velocity S-wave (km/s) = 3.31840 3.77129 3.55207
# Velocity P-wave (km/s) = 5.38832 6.93749 6.21139
#
# Compressibility (1/GPa) = 0.03572804
#
# Stress axis : x y z
#
# Youngs Moduli (GPa) = 92.38585 113.11470 21.03308
#
# Poissons Ratio (x) = 0.30974 0.14737
# Poissons Ratio (y) = 0.25298 0.12610
# Poissons Ratio (z) = 0.64732 0.67817
#
# Static dielectric constant tensor:
#      x y z
#    x 3.515960 0.000000 0.000000 
#    y 0.000000 3.987220 0.000000 
#    z 0.000000 0.000000 3.400350 
# 
# 
# High freq. dielectric constant tensor:
#      x y z
#    x 1.751910 0.000000 0.000000 
#    y 0.000000 1.772530 0.000000 
#    z 0.000000 0.000000 1.747710 
# 
# From -- ./inp_files/11070.got.cif
#   From: 2010.06.25/outbox.cif.g09.slc.cpg/sg71_6_cif.got.tgz:11070.got - 2010.06.28 04:59:45.
