data_PCOD8290783
_publ_section_title
;
Structure prediction by ZEFSAII (Michael W. Deem and Ramdas Pophale) SiO2 
 PCOD8290783
Probable space group: I M M M
;
_chemical_formula_sum "Si O2"
_cell_formula_units_Z 96
_cell_length_a 24.124599
_cell_length_b 8.630500
_cell_length_c 23.986272
_cell_angle_alpha 90.000000
_cell_angle_beta 90.000000
_cell_angle_gamma 90.000000
_cell_volume 4994.118170
_symmetry_space_group_name_H-M "I M M M"
_symmetry_group_IT_number 71
_symmetry_cell_setting 'orthorhombic'
loop_
_space_group_symop_operation_xyz
x,y,z
-x,-y,z
x,-y,-z
-x,y,-z
-x,-y,-z
x,y,-z
-x,y,z
x,-y,z
1/2+x,1/2+y,1/2+z
1/2-x,1/2-y,1/2+z
1/2+x,1/2-y,1/2-z
1/2-x,1/2+y,1/2-z
1/2-x,1/2-y,1/2-z
1/2+x,1/2+y,1/2-z
1/2-x,1/2+y,1/2+z
1/2+x,1/2-y,1/2+z
loop_
_atom_site_type_symbol
_atom_site_label
_atom_site_fract_x
_atom_site_fract_y
_atom_site_fract_z
Si Si1 0.371133 0.318619 0.436431
Si Si2 0.777215 0.319937 0.866088
Si Si3 0.343271 0.681999 0.270695
Si Si4 0.437836 0.816876 0.937572
Si Si5 0.563527 0.179985 0.657377
Si Si6 0.151872 0.179868 0.645152
O O1 0.371424 0.264927 0.500000
O O2 0.382596 0.500000 0.429868
O O3 0.311373 0.279769 0.410460
O O4 0.419487 0.223560 0.405599
O O5 0.792054 0.500000 0.872820
O O6 0.793464 0.269013 0.803138
O O7 0.712966 0.288415 0.879119
O O8 0.330103 0.500000 0.270888
O O9 0.401448 0.715054 0.300625
O O10 0.348881 0.746452 0.207980
O O11 0.500000 0.759053 0.921685
O O12 0.393764 0.759812 0.892834
O O13 0.436730 0.000000 0.937289
O O14 0.422715 0.756594 0.000000
O O15 0.500000 0.221085 0.667256
O O16 0.575937 0.000000 0.668275
O O17 0.137495 0.000000 0.646146
#
# Coordination Sequence:
#
# PCOD8290783 Si02
#       6
#    16  16  16  16  16  16
#     4  10  21  36  54  77 105 138 177 219 263 311
#     4  10  20  35  54  77 108 141 174 215 261 309
#     4  10  20  35  54  77 108 141 174 215 261 309
#     4   9  20  39  59  79 105 137 174 217 262 307
#     4  10  21  36  54  77 105 138 177 219 263 311
#     4  10  22  36  54  83 110 137 175 214 257 312
#
# _framework density 19.222612000000002
#
# number of rings (size 3 to 8) (size 9 to 14) (size 15 to 20)
#    0.000    2.167    0.000    5.000    0.000    7.667 
#    0.000    9.167    0.000    0.000    0.000    0.000 
#    0.000    0.000    0.000    0.000    0.000    0.000 
#
# Total GULP energy -595183.748832 kJ/mol
# GULP energy per Si atom -12399.661434 kJ/mol
# Density = 1.917886 g / cm^3
# Si number density = 19.222612 Si / 1000 Ang^3
#
#
#
# Elastic Constant Matrix: (Units=GPa)
#
#
# Indices 1 2 3 4 5 6 
#
# 1 91.0773 14.6247 12.7350 0.0000 0.0000 0.0000
# 2 14.6247 37.5338 9.0160 0.0000 0.0000 0.0000
# 3 12.7350 9.0160 61.7238 0.0000 0.0000 0.0000
# 4 0.0000 0.0000 0.0000 29.5960 0.0000 0.0000
# 5 0.0000 0.0000 0.0000 0.0000 22.1243 0.0000
# 6 0.0000 0.0000 0.0000 0.0000 0.0000 31.7034
#
#
#
# Elastic Compliance Matrix: (Units=1/GPa)
#
#
# Indices 1 2 3 4 5 6 
#
# 1 0.011912 -0.004198 -0.001844 0.000000 0.000000 0.000000
# 2 -0.004198 0.029091 -0.003383 0.000000 0.000000 0.000000
# 3 -0.001844 -0.003383 0.017076 0.000000 0.000000 0.000000
# 4 0.000000 0.000000 0.000000 0.033788 0.000000 0.000000
# 5 0.000000 0.000000 0.000000 0.000000 0.045199 0.000000
# 6 0.000000 0.000000 0.000000 0.000000 0.000000 0.031542
#
#
# Mechanical properties :
#
#
# Convention : Reuss Voigt Hill
#
# Bulk Modulus (GPa) = 25.49253 29.23181 27.36217
# Shear Modulus (GPa) = 24.93319 26.94869 25.94094
#
# Velocity S-wave (km/s) = 3.60540 3.74829 3.67754
# Velocity P-wave (km/s) = 5.53375 5.82863 5.68310
#
# Compressibility (1/GPa) = 0.03922718
#
# Stress axis : x y z
#
# Youngs Moduli (GPa) = 83.95100 34.37473 58.56201
#
# Poissons Ratio (x) = 0.14431 0.10801
# Poissons Ratio (y) = 0.35245 0.19812
# Poissons Ratio (z) = 0.15484 0.11629
#
# Static dielectric constant tensor:
#      x y z
#    x 3.540620 0.000000 0.000000 
#    y 0.000000 3.443240 0.000000 
#    z 0.000000 0.000000 3.720180 
# 
# 
# High freq. dielectric constant tensor:
#      x y z
#    x 1.752020 0.000000 0.000000 
#    y 0.000000 1.748760 0.000000 
#    z 0.000000 0.000000 1.748150 
# 
# From -- ./inp_files/61552.got.cif
#   From: 2010.06.25/outbox.cif.g09.slc.cpg/sg71_31_cif.got.tgz:61552.got - 2010.06.28 04:59:45.
