data_PCOD8290694
_publ_section_title
;
Structure prediction by ZEFSAII (Michael W. Deem and Ramdas Pophale) SiO2 
 PCOD8290694
Probable space group: I M M M
;
_chemical_formula_sum "Si O2"
_cell_formula_units_Z 96
_cell_length_a 19.950237
_cell_length_b 13.717892
_cell_length_c 18.416958
_cell_angle_alpha 90.000000
_cell_angle_beta 90.000000
_cell_angle_gamma 90.000000
_cell_volume 5040.264600
_symmetry_space_group_name_H-M "I M M M"
_symmetry_group_IT_number 71
_symmetry_cell_setting 'orthorhombic'
loop_
_space_group_symop_operation_xyz
x,y,z
-x,-y,z
x,-y,-z
-x,y,-z
-x,-y,-z
x,y,-z
-x,y,z
x,-y,z
1/2+x,1/2+y,1/2+z
1/2-x,1/2-y,1/2+z
1/2+x,1/2-y,1/2-z
1/2-x,1/2+y,1/2-z
1/2-x,1/2-y,1/2-z
1/2+x,1/2+y,1/2-z
1/2-x,1/2+y,1/2+z
1/2+x,1/2-y,1/2+z
loop_
_atom_site_type_symbol
_atom_site_label
_atom_site_fract_x
_atom_site_fract_y
_atom_site_fract_z
Si Si1 0.196755 0.387419 0.813760
Si Si2 0.373533 0.610473 0.417061
Si Si3 0.576947 0.387956 0.828928
Si Si4 0.808916 0.201193 0.585035
Si Si5 0.574903 0.252695 0.305570
Si Si6 0.228280 0.608815 0.649899
O O1 0.186326 0.500000 0.832886
O O2 0.243872 0.339893 0.874084
O O3 0.123912 0.338436 0.813530
O O4 0.231149 0.372471 0.735799
O O5 0.365876 0.643118 0.500000
O O6 0.399901 0.500000 0.411166
O O7 0.425813 0.681510 0.378063
O O8 0.302794 0.623535 0.378242
O O9 0.500000 0.372205 0.852770
O O10 0.590141 0.500000 0.806852
O O11 0.624387 0.359417 0.896072
O O12 0.597128 0.321377 0.760990
O O13 0.795740 0.193043 0.500000
O O14 0.819680 0.313952 0.609191
O O15 0.500000 0.211800 0.293629
O O16 0.201190 0.500000 0.632414
#
# Coordination Sequence:
#
# PCOD8290694 Si02
#       6
#    16  16  16  16  16  16
#     4  11  23  39  60  86 116 152 199 246 285 340
#     4  10  20  34  55  86 120 149 182 233 297 356
#     4  10  22  40  61  87 118 153 194 237 286 349
#     4  12  23  38  62  90 122 155 190 237 294 350
#     4  11  22  38  59  82 113 155 200 244 291 339
#     4  10  20  37  62  88 114 149 193 241 291 342
#
# _framework density 19.046619
#
# number of rings (size 3 to 8) (size 9 to 14) (size 15 to 20)
#    0.000    1.333    3.333    3.000    0.000    5.667 
#    0.000    1.667    0.000    0.500    0.000    3.500 
#    0.000    0.000    0.000    0.000    0.000    0.000 
#
# Total GULP energy -595354.700037 kJ/mol
# GULP energy per Si atom -12403.222917 kJ/mol
# Density = 1.900327 g / cm^3
# Si number density = 19.046619 Si / 1000 Ang^3
#
#
#
# Elastic Constant Matrix: (Units=GPa)
#
#
# Indices 1 2 3 4 5 6 
#
# 1 87.2181 50.4409 43.8467 0.0000 0.0000 0.0000
# 2 50.4409 120.8214 54.6727 0.0000 0.0000 0.0000
# 3 43.8467 54.6727 136.1054 0.0000 0.0000 0.0000
# 4 0.0000 0.0000 0.0000 25.3019 0.0000 0.0000
# 5 0.0000 0.0000 0.0000 0.0000 13.1594 0.0000
# 6 0.0000 0.0000 0.0000 0.0000 0.0000 27.2187
#
#
#
# Elastic Compliance Matrix: (Units=1/GPa)
#
#
# Indices 1 2 3 4 5 6 
#
# 1 0.016079 -0.005339 -0.003035 0.000000 0.000000 0.000000
# 2 -0.005339 0.011888 -0.003055 0.000000 0.000000 0.000000
# 3 -0.003035 -0.003055 0.009552 0.000000 0.000000 0.000000
# 4 0.000000 0.000000 0.000000 0.039523 0.000000 0.000000
# 5 0.000000 0.000000 0.000000 0.000000 0.075991 0.000000
# 6 0.000000 0.000000 0.000000 0.000000 0.000000 0.036740
#
#
# Mechanical properties :
#
#
# Convention : Reuss Voigt Hill
#
# Bulk Modulus (GPa) = 68.21228 71.34061 69.77645
# Shear Modulus (GPa) = 22.98636 26.14829 24.56733
#
# Velocity S-wave (km/s) = 3.47774 3.70923 3.59535
# Velocity P-wave (km/s) = 7.21230 7.47540 7.34503
#
# Compressibility (1/GPa) = 0.01466012
#
# Stress axis : x y z
#
# Youngs Moduli (GPa) = 62.19174 84.11582 104.68603
#
# Poissons Ratio (x) = 0.44913 0.31774
# Poissons Ratio (y) = 0.33207 0.31986
# Poissons Ratio (z) = 0.18876 0.25701
#
# Static dielectric constant tensor:
#      x y z
#    x 3.309990 0.000000 0.000000 
#    y 0.000000 3.746840 0.000000 
#    z 0.000000 0.000000 3.467870 
# 
# 
# High freq. dielectric constant tensor:
#      x y z
#    x 1.727730 0.000000 0.000000 
#    y 0.000000 1.748070 0.000000 
#    z 0.000000 0.000000 1.739150 
# 
# From -- ./inp_files/34506.got.cif
#   From: 2010.06.25/outbox.cif.g09.slc.cpg/sg71_18_cif.got.tgz:34506.got - 2010.06.28 04:59:45.
