data_PCOD8290097
_publ_section_title
;
Structure prediction by ZEFSAII (Michael W. Deem and Ramdas Pophale) SiO2 
 PCOD8290097
Probable space group: I M M M
;
_chemical_formula_sum "Si O2"
_cell_formula_units_Z 72
_cell_length_a 15.650911
_cell_length_b 27.689018
_cell_length_c 9.037884
_cell_angle_alpha 90.000000
_cell_angle_beta 90.000000
_cell_angle_gamma 90.000000
_cell_volume 3916.642556
_symmetry_space_group_name_H-M "I M M M"
_symmetry_group_IT_number 71
_symmetry_cell_setting 'orthorhombic'
loop_
_space_group_symop_operation_xyz
x,y,z
-x,-y,z
x,-y,-z
-x,y,-z
-x,-y,-z
x,y,-z
-x,y,z
x,-y,z
1/2+x,1/2+y,1/2+z
1/2-x,1/2-y,1/2+z
1/2+x,1/2-y,1/2-z
1/2-x,1/2+y,1/2-z
1/2-x,1/2-y,1/2-z
1/2+x,1/2+y,1/2-z
1/2-x,1/2+y,1/2+z
1/2+x,1/2-y,1/2+z
loop_
_atom_site_type_symbol
_atom_site_label
_atom_site_fract_x
_atom_site_fract_y
_atom_site_fract_z
Si Si1 0.500000 0.389999 0.165876
Si Si2 0.832389 0.111134 0.171181
Si Si3 0.828487 0.776233 0.826229
Si Si4 0.000000 0.224829 0.668384
Si Si5 0.000000 0.552501 0.825480
Si Si6 0.184256 0.442366 0.831322
O O1 0.415432 0.409651 0.245780
O O2 0.500000 0.332573 0.170808
O O3 0.500000 0.410212 0.000000
O O4 0.817663 0.167210 0.206075
O O5 0.750515 0.081526 0.221394
O O6 0.848374 0.102186 0.000000
O O7 0.750000 0.750000 0.750000
O O8 0.916006 0.756263 0.753734
O O9 0.830347 0.764654 0.000000
O O10 0.000000 0.244456 0.500000
O O11 0.089808 0.578392 0.783626
O O12 0.000000 0.500000 0.748302
O O13 0.000000 0.544736 0.000000
O O14 0.186019 0.500000 0.814959
O O15 0.205811 0.427390 0.000000
#
# Coordination Sequence:
#
# PCOD8290097 Si02
#       6
#     8  16  16   8   8  16
#     4   9  17  31  52  73  94 127 168 203 238 291
#     4  10  20  33  50  74 103 131 160 201 251 296
#     4  10  20  34  52  74 100 132 169 206 246 295
#     4   9  17  31  52  75  98 127 163 204 250 299
#     4   7  12  26  48  71  94 123 161 201 236 275
#     4   9  17  31  52  75  98 128 167 206 243 290
#
# _framework density 18.383092000000001
#
# number of rings (size 3 to 8) (size 9 to 14) (size 15 to 20)
#    0.000    2.778    0.000    3.333    0.000    5.778 
#    0.000    2.222    0.000   10.667    0.000    0.000 
#    0.000    0.000    0.000    0.000    0.000    0.000 
#
# Total GULP energy -446207.869493 kJ/mol
# GULP energy per Si atom -12394.663041 kJ/mol
# Density = 1.834125 g / cm^3
# Si number density = 18.383092 Si / 1000 Ang^3
#
#
#
# Elastic Constant Matrix: (Units=GPa)
#
#
# Indices 1 2 3 4 5 6 
#
# 1 191.0076 38.6756 76.2406 -0.0016 -0.0012 -0.0007
# 2 38.6756 26.6660 31.7763 0.0051 -0.0009 0.0004
# 3 76.2406 31.7763 106.7726 0.0061 -0.0042 0.0000
# 4 -0.0016 0.0051 0.0061 24.0858 -0.0012 0.0004
# 5 -0.0012 -0.0009 -0.0042 -0.0012 32.3117 0.0005
# 6 -0.0007 0.0004 0.0000 0.0004 0.0005 23.3533
#
#
#
# Elastic Compliance Matrix: (Units=1/GPa)
#
#
# Indices 1 2 3 4 5 6 
#
# 1 0.008216 -0.007632 -0.003595 0.000003 0.000000 0.000000
# 2 -0.007632 0.065198 -0.013954 -0.000011 0.000000 -0.000001
# 3 -0.003595 -0.013954 0.016086 -0.000001 0.000002 0.000000
# 4 0.000003 -0.000011 -0.000001 0.041518 0.000002 -0.000001
# 5 0.000000 0.000000 0.000002 0.000002 0.030949 -0.000001
# 6 0.000000 -0.000001 0.000000 -0.000001 -0.000001 0.042820
#
#
# Mechanical properties :
#
#
# Convention : Reuss Voigt Hill
#
# Bulk Modulus (GPa) = 25.55093 68.64791 47.09942
# Shear Modulus (GPa) = 18.64325 27.80041 23.22183
#
# Velocity S-wave (km/s) = 3.18803 3.89303 3.55803
# Velocity P-wave (km/s) = 5.24220 7.59155 6.52351
#
# Compressibility (1/GPa) = 0.03913752
#
# Stress axis : x y z
#
# Youngs Moduli (GPa) = 121.71881 15.33794 62.16751
#
# Poissons Ratio (x) = 0.11705 0.22350
# Poissons Ratio (y) = 0.92892 0.86748
# Poissons Ratio (z) = 0.43759 0.21403
#
# Static dielectric constant tensor:
#      x y z
#    x 3.806420 0.000000 0.000020 
#    y 0.000000 2.944800 -0.000010 
#    z 0.000020 -0.000010 3.378040 
# 
# 
# High freq. dielectric constant tensor:
#      x y z
#    x 1.737300 0.000000 0.000000 
#    y 0.000000 1.663190 0.000000 
#    z 0.000000 0.000000 1.711750 
# 
# From -- ./inp_files/6143.got.cif
#   From: 2010.06.25/outbox.cif.g09.slc.cpg/sg71_4_cif.got.tgz:6143.got - 2010.06.28 04:59:45.
