data_PCOD8290369
_publ_section_title
;
Structure prediction by ZEFSAII (Michael W. Deem and Ramdas Pophale) SiO2 
 PCOD8290369
Probable space group: I M M M
;
_chemical_formula_sum "Si O2"
_cell_formula_units_Z 88
_cell_length_a 14.463779
_cell_length_b 12.342372
_cell_length_c 27.581301
_cell_angle_alpha 90.000000
_cell_angle_beta 90.000000
_cell_angle_gamma 90.000000
_cell_volume 4923.740514
_symmetry_space_group_name_H-M "I M M M"
_symmetry_group_IT_number 71
_symmetry_cell_setting 'orthorhombic'
loop_
_space_group_symop_operation_xyz
x,y,z
-x,-y,z
x,-y,-z
-x,y,-z
-x,-y,-z
x,y,-z
-x,y,z
x,-y,z
1/2+x,1/2+y,1/2+z
1/2-x,1/2-y,1/2+z
1/2+x,1/2-y,1/2-z
1/2-x,1/2+y,1/2-z
1/2-x,1/2-y,1/2-z
1/2+x,1/2+y,1/2-z
1/2-x,1/2+y,1/2+z
1/2+x,1/2-y,1/2+z
loop_
_atom_site_type_symbol
_atom_site_label
_atom_site_fract_x
_atom_site_fract_y
_atom_site_fract_z
Si Si1 0.273591 0.873665 0.360950
Si Si2 0.602111 0.874764 0.920441
Si Si3 0.210698 0.786480 0.054283
Si Si4 0.395287 0.500000 0.557501
Si Si5 0.104511 0.747573 0.325494
Si Si6 0.108461 0.622935 0.769354
O O1 0.307248 0.812587 0.409426
O O2 0.169879 0.843864 0.344252
O O3 0.342463 0.838198 0.318310
O O4 0.278001 0.000000 0.372681
O O5 0.500000 0.840683 0.939534
O O6 0.679534 0.808744 0.949368
O O7 0.609197 0.852021 0.863064
O O8 0.619830 0.000000 0.929924
O O9 0.157682 0.892093 0.075474
O O10 0.175798 0.756329 0.000000
O O11 0.500000 0.500000 0.578045
O O12 0.395253 0.500000 0.500000
O O13 0.139500 0.701624 0.274110
O O14 0.000000 0.793445 0.321576
O O15 0.138061 0.500000 0.756662
O O16 0.000000 0.630785 0.778171
#
# Coordination Sequence:
#
# PCOD8290369 Si02
#       6
#    16  16  16   8  16  16
#     4  10  21  34  50  74 103 139 176 209 247 294
#     4   9  16  27  47  76 105 128 156 201 255 307
#     4  10  20  34  51  73 101 133 173 215 257 304
#     4   9  18  34  55  75  95 125 164 210 267 315
#     4   9  17  30  50  74 102 135 168 202 245 300
#     4   9  17  31  52  76 100 127 164 212 261 305
#
# _framework density 17.872591
#
# number of rings (size 3 to 8) (size 9 to 14) (size 15 to 20)
#    0.000    2.636    0.909    1.091    0.000    4.000 
#    0.000    0.909    2.000    0.000    0.000   10.182 
#    0.000    0.000    0.000    0.000    0.000    0.000 
#
# Total GULP energy -545493.887254 kJ/mol
# GULP energy per Si atom -12397.588347 kJ/mol
# Density = 1.783191 g / cm^3
# Si number density = 17.872591 Si / 1000 Ang^3
#
#
#
# Elastic Constant Matrix: (Units=GPa)
#
#
# Indices 1 2 3 4 5 6 
#
# 1 62.7905 28.1510 25.5079 0.0000 0.0000 0.0000
# 2 28.1510 85.8673 50.1524 0.0000 0.0000 0.0000
# 3 25.5079 50.1524 101.4326 0.0000 0.0000 0.0000
# 4 0.0000 0.0000 0.0000 24.8730 0.0000 0.0000
# 5 0.0000 0.0000 0.0000 0.0000 24.0076 0.0000
# 6 0.0000 0.0000 0.0000 0.0000 0.0000 21.6648
#
#
#
# Elastic Compliance Matrix: (Units=1/GPa)
#
#
# Indices 1 2 3 4 5 6 
#
# 1 0.019076 -0.004854 -0.002397 0.000000 0.000000 0.000000
# 2 -0.004854 0.017610 -0.007486 0.000000 0.000000 0.000000
# 3 -0.002397 -0.007486 0.014163 0.000000 0.000000 0.000000
# 4 0.000000 0.000000 0.000000 0.040204 0.000000 0.000000
# 5 0.000000 0.000000 0.000000 0.000000 0.041654 0.000000
# 6 0.000000 0.000000 0.000000 0.000000 0.000000 0.046158
#
#
# Mechanical properties :
#
#
# Convention : Reuss Voigt Hill
#
# Bulk Modulus (GPa) = 46.78561 50.85700 48.82131
# Shear Modulus (GPa) = 23.20575 23.86101 23.53338
#
# Velocity S-wave (km/s) = 3.60724 3.65781 3.63261
# Velocity P-wave (km/s) = 6.60179 6.80856 6.70598
#
# Compressibility (1/GPa) = 0.02137409
#
# Stress axis : x y z
#
# Youngs Moduli (GPa) = 52.42206 56.78690 70.60565
#
# Poissons Ratio (x) = 0.27563 0.16926
# Poissons Ratio (y) = 0.25444 0.52858
# Poissons Ratio (z) = 0.12567 0.42513
#
# Static dielectric constant tensor:
#      x y z
#    x 3.445230 0.000000 0.000000 
#    y 0.000000 3.080060 0.000000 
#    z 0.000000 0.000000 3.252320 
# 
# 
# High freq. dielectric constant tensor:
#      x y z
#    x 1.695470 0.000000 0.000000 
#    y 0.000000 1.667980 0.000000 
#    z 0.000000 0.000000 1.686580 
# 
# From -- ./inp_files/22482.got.cif
#   From: 2010.06.25/outbox.cif.g09.slc.cpg/sg71_12_cif.got.tgz:22482.got - 2010.06.28 04:59:45.
