data_PCOD8290759
_publ_section_title
;
Structure prediction by ZEFSAII (Michael W. Deem and Ramdas Pophale) SiO2 
 PCOD8290759
Probable space group: I M M M
;
_chemical_formula_sum "Si O2"
_cell_formula_units_Z 80
_cell_length_a 8.899017
_cell_length_b 21.944704
_cell_length_c 21.703354
_cell_angle_alpha 90.000000
_cell_angle_beta 90.000000
_cell_angle_gamma 90.000000
_cell_volume 4238.367569
_symmetry_space_group_name_H-M "I M M M"
_symmetry_group_IT_number 71
_symmetry_cell_setting 'orthorhombic'
loop_
_space_group_symop_operation_xyz
x,y,z
-x,-y,z
x,-y,-z
-x,y,-z
-x,-y,-z
x,y,-z
-x,y,z
x,-y,z
1/2+x,1/2+y,1/2+z
1/2-x,1/2-y,1/2+z
1/2+x,1/2-y,1/2-z
1/2-x,1/2+y,1/2-z
1/2-x,1/2-y,1/2-z
1/2+x,1/2+y,1/2-z
1/2-x,1/2+y,1/2+z
1/2+x,1/2-y,1/2+z
loop_
_atom_site_type_symbol
_atom_site_label
_atom_site_fract_x
_atom_site_fract_y
_atom_site_fract_z
Si Si1 0.322742 0.728659 0.571799
Si Si2 0.322089 0.887692 0.131999
Si Si3 0.333505 0.500000 0.572045
Si Si4 0.321383 0.069334 0.265038
Si Si5 0.179498 0.431847 0.000000
Si Si6 0.321581 0.140275 0.383338
O O1 0.274897 0.731465 0.500000
O O2 0.500000 0.717877 0.576880
O O3 0.237766 0.676021 0.607660
O O4 0.271693 0.790045 0.606904
O O5 0.500000 0.888724 0.127012
O O6 0.257702 0.940550 0.089924
O O7 0.267828 0.899144 0.201924
O O8 0.500000 0.500000 0.602528
O O9 0.352193 0.500000 0.500000
O O10 0.500000 0.066766 0.268177
O O11 0.256631 0.111201 0.320341
O O12 0.258436 0.000000 0.269381
O O13 0.243865 0.398732 0.939782
O O14 0.241643 0.500000 0.000000
O O15 0.000000 0.430091 0.000000
O O16 0.500000 0.136240 0.383218
#
# Coordination Sequence:
#
# PCOD8290759 Si02
#       6
#    16  16   8  16   8  16
#     4  10  20  35  53  77 111 146 183 228 276 320
#     4  11  22  36  55  80 110 146 184 221 268 326
#     4  11  23  39  59  83 107 136 179 230 282 325
#     4   9  17  31  50  75 108 143 177 222 276 325
#     4   9  14  22  42  76 109 138 179 226 271 321
#     4   9  16  28  48  74 108 146 179 221 275 324
#
# _framework density 18.875191000000001
#
# number of rings (size 3 to 8) (size 9 to 14) (size 15 to 20)
#    0.000    2.200    2.000    2.100    0.000    6.800 
#    0.000    0.000    0.000    1.200    0.000    0.000 
#    0.000    0.800    0.000    0.000    0.000    0.000 
#
# Total GULP energy -495936.247464 kJ/mol
# GULP energy per Si atom -12398.406187 kJ/mol
# Density = 1.883223 g / cm^3
# Si number density = 18.875191 Si / 1000 Ang^3
#
#
#
# Elastic Constant Matrix: (Units=GPa)
#
#
# Indices 1 2 3 4 5 6 
#
# 1 32.4755 45.3333 35.5766 0.0000 0.0000 0.0000
# 2 45.3333 183.1189 91.5139 0.0000 0.0000 0.0000
# 3 35.5766 91.5139 156.1942 0.0000 0.0000 0.0000
# 4 0.0000 0.0000 0.0000 34.1396 0.0000 0.0000
# 5 0.0000 0.0000 0.0000 0.0000 13.2999 0.0000
# 6 0.0000 0.0000 0.0000 0.0000 0.0000 67.9045
#
#
#
# Elastic Compliance Matrix: (Units=1/GPa)
#
#
# Indices 1 2 3 4 5 6 
#
# 1 0.050655 -0.009579 -0.005925 0.000000 0.000000 0.000000
# 2 -0.009579 0.009533 -0.003404 0.000000 0.000000 0.000000
# 3 -0.005925 -0.003404 0.009746 0.000000 0.000000 0.000000
# 4 0.000000 0.000000 0.000000 0.029292 0.000000 0.000000
# 5 0.000000 0.000000 0.000000 0.000000 0.075189 0.000000
# 6 0.000000 0.000000 0.000000 0.000000 0.000000 0.014727
#
#
# Mechanical properties :
#
#
# Convention : Reuss Voigt Hill
#
# Bulk Modulus (GPa) = 31.13484 79.62623 55.38054
# Shear Modulus (GPa) = 21.03807 36.35979 28.69893
#
# Velocity S-wave (km/s) = 3.34217 4.39376 3.90354
# Velocity P-wave (km/s) = 5.60574 8.24726 7.05130
#
# Compressibility (1/GPa) = 0.03211836
#
# Stress axis : x y z
#
# Youngs Moduli (GPa) = 19.74122 104.89464 102.60423
#
# Poissons Ratio (x) = 1.00480 0.60798
# Poissons Ratio (y) = 0.18910 0.34924
# Poissons Ratio (z) = 0.11698 0.35703
#
# Static dielectric constant tensor:
#      x y z
#    x 3.001970 0.000000 0.000000 
#    y 0.000000 3.590760 0.000000 
#    z 0.000000 0.000000 3.763480 
# 
# 
# High freq. dielectric constant tensor:
#      x y z
#    x 1.680360 0.000000 0.000000 
#    y 0.000000 1.749680 0.000000 
#    z 0.000000 0.000000 1.746860 
# 
# From -- ./inp_files/50388.got.cif
#   From: 2010.06.25/outbox.cif.g09.slc.cpg/sg71_26_cif.got.tgz:50388.got - 2010.06.28 04:59:45.
