data_PCOD8290273
_publ_section_title
;
Structure prediction by ZEFSAII (Michael W. Deem and Ramdas Pophale) SiO2 
 PCOD8290273
Probable space group: I M M M
;
_chemical_formula_sum "Si O2"
_cell_formula_units_Z 80
_cell_length_a 9.195802
_cell_length_b 15.827431
_cell_length_c 28.872476
_cell_angle_alpha 90.000000
_cell_angle_beta 90.000000
_cell_angle_gamma 90.000000
_cell_volume 4202.271130
_symmetry_space_group_name_H-M "I M M M"
_symmetry_group_IT_number 71
_symmetry_cell_setting 'orthorhombic'
loop_
_space_group_symop_operation_xyz
x,y,z
-x,-y,z
x,-y,-z
-x,y,-z
-x,-y,-z
x,y,-z
-x,y,z
x,-y,z
1/2+x,1/2+y,1/2+z
1/2-x,1/2-y,1/2+z
1/2+x,1/2-y,1/2-z
1/2-x,1/2+y,1/2-z
1/2-x,1/2-y,1/2-z
1/2+x,1/2+y,1/2-z
1/2-x,1/2+y,1/2+z
1/2+x,1/2-y,1/2+z
loop_
_atom_site_type_symbol
_atom_site_label
_atom_site_fract_x
_atom_site_fract_y
_atom_site_fract_z
Si Si1 0.667014 0.906139 0.637520
Si Si2 0.326949 0.751528 0.298864
Si Si3 0.329896 0.654410 0.052098
Si Si4 0.166253 0.826811 0.051235
Si Si5 0.170787 0.091584 0.144011
O O1 0.500000 0.887086 0.625504
O O2 0.723664 0.835636 0.673613
O O3 0.754901 0.905755 0.589494
O O4 0.686097 0.000000 0.659426
O O5 0.500000 0.750330 0.292386
O O6 0.250000 0.750000 0.250000
O O7 0.266767 0.669080 0.326026
O O8 0.500000 0.655310 0.061894
O O9 0.270785 0.748257 0.058718
O O10 0.296234 0.621396 0.000000
O O11 0.206940 0.896046 0.089646
O O12 0.000000 0.795611 0.058277
O O13 0.187450 0.866527 0.000000
O O14 0.000000 0.089381 0.151932
O O15 0.237197 0.000000 0.158836
#
# Coordination Sequence:
#
# PCOD8290273 Si02
#       5
#    16  16  16  16  16
#     4  10  21  38  59  81 107 142 184 225 265 316
#     4  10  21  38  57  79 106 138 176 222 272 321
#     4  10  20  33  52  80 114 148 181 220 267 317
#     4   9  16  29  52  79 108 143 180 215 256 312
#     4   9  17  31  53  81 110 137 170 215 264 314
#
# _framework density 19.037324999999999
#
# number of rings (size 3 to 8) (size 9 to 14) (size 15 to 20)
#    0.000    2.400    2.000    0.600    0.000    4.000 
#    0.000    4.000    0.000    1.800    0.000    2.800 
#    0.000    0.000    0.000    0.000    0.000    0.000 
#
# Total GULP energy -495806.616259 kJ/mol
# GULP energy per Si atom -12395.165406 kJ/mol
# Density = 1.899400 g / cm^3
# Si number density = 19.037325 Si / 1000 Ang^3
#
#
#
# Elastic Constant Matrix: (Units=GPa)
#
#
# Indices 1 2 3 4 5 6 
#
# 1 45.4872 27.6919 38.7496 0.0000 0.0000 0.0000
# 2 27.6919 152.7600 80.2477 0.0000 0.0000 0.0000
# 3 38.7496 80.2477 141.5581 0.0000 0.0000 0.0000
# 4 0.0000 0.0000 0.0000 15.7332 0.0000 0.0000
# 5 0.0000 0.0000 0.0000 0.0000 32.1922 0.0000
# 6 0.0000 0.0000 0.0000 0.0000 0.0000 6.8492
#
#
#
# Elastic Compliance Matrix: (Units=1/GPa)
#
#
# Indices 1 2 3 4 5 6 
#
# 1 0.028923 -0.001544 -0.007042 0.000000 0.000000 0.000000
# 2 -0.001544 0.009405 -0.004909 0.000000 0.000000 0.000000
# 3 -0.007042 -0.004909 0.011775 0.000000 0.000000 0.000000
# 4 0.000000 0.000000 0.000000 0.063560 0.000000 0.000000
# 5 0.000000 0.000000 0.000000 0.000000 0.031063 0.000000
# 6 0.000000 0.000000 0.000000 0.000000 0.000000 0.146002
#
#
# Mechanical properties :
#
#
# Convention : Reuss Voigt Hill
#
# Bulk Modulus (GPa) = 43.26566 70.35375 56.80970
# Shear Modulus (GPa) = 15.36467 23.82935 19.59701
#
# Velocity S-wave (km/s) = 2.84400 3.54180 3.21191
# Velocity P-wave (km/s) = 5.79315 7.33224 6.60766
#
# Compressibility (1/GPa) = 0.02311302
#
# Stress axis : x y z
#
# Youngs Moduli (GPa) = 34.57448 106.32879 84.92753
#
# Poissons Ratio (x) = 0.16414 0.59808
# Poissons Ratio (y) = 0.05337 0.41690
# Poissons Ratio (z) = 0.24348 0.52196
#
# Static dielectric constant tensor:
#      x y z
#    x 3.230440 0.000000 0.000000 
#    y 0.000000 3.691810 0.000000 
#    z 0.000000 0.000000 3.568710 
# 
# 
# High freq. dielectric constant tensor:
#      x y z
#    x 1.708770 0.000000 0.000000 
#    y 0.000000 1.739730 0.000000 
#    z 0.000000 0.000000 1.740650 
# 
# From -- ./inp_files/8368.got.cif
#   From: 2010.06.25/outbox.cif.g09.slc.cpg/sg71_5_cif.got.tgz:8368.got - 2010.06.28 04:59:45.
