data_PCOD8290083
_publ_section_title
;
Structure prediction by ZEFSAII (Michael W. Deem and Ramdas Pophale) SiO2 
 PCOD8290083
Probable space group: I M M M
;
_chemical_formula_sum "Si O2"
_cell_formula_units_Z 104
_cell_length_a 27.132173
_cell_length_b 24.206089
_cell_length_c 9.212785
_cell_angle_alpha 90.000000
_cell_angle_beta 90.000000
_cell_angle_gamma 90.000000
_cell_volume 6050.623634
_symmetry_space_group_name_H-M "I M M M"
_symmetry_group_IT_number 71
_symmetry_cell_setting 'orthorhombic'
loop_
_space_group_symop_operation_xyz
x,y,z
-x,-y,z
x,-y,-z
-x,y,-z
-x,-y,-z
x,y,-z
-x,y,z
x,-y,z
1/2+x,1/2+y,1/2+z
1/2-x,1/2-y,1/2+z
1/2+x,1/2-y,1/2-z
1/2-x,1/2+y,1/2-z
1/2-x,1/2-y,1/2-z
1/2+x,1/2+y,1/2-z
1/2-x,1/2+y,1/2+z
1/2+x,1/2-y,1/2+z
loop_
_atom_site_type_symbol
_atom_site_label
_atom_site_fract_x
_atom_site_fract_y
_atom_site_fract_z
Si Si1 0.945587 0.662763 0.332992
Si Si2 0.058652 0.440113 0.837091
Si Si3 0.355666 0.232258 0.832770
Si Si4 0.329593 0.355552 0.168251
Si Si5 0.000000 0.934503 0.665276
Si Si6 0.598580 0.435209 0.329472
Si Si7 0.769279 0.303720 0.830549
O O1 0.949036 0.647416 0.500000
O O2 0.920280 0.609522 0.259004
O O3 0.912412 0.716512 0.306113
O O4 0.000000 0.675984 0.269806
O O5 0.077215 0.500000 0.779182
O O6 0.000000 0.438905 0.831785
O O7 0.077819 0.431353 0.000000
O O8 0.350489 0.295728 0.783876
O O9 0.323054 0.187861 0.740638
O O10 0.339614 0.226264 0.000000
O O11 0.354275 0.402531 0.266887
O O12 0.269926 0.353914 0.193330
O O13 0.341867 0.368026 0.000000
O O14 0.048963 0.913936 0.749159
O O15 0.000000 0.911256 0.500000
O O16 0.000000 0.000000 0.663862
O O17 0.592929 0.423200 0.500000
O O18 0.607449 0.500000 0.300084
O O19 0.750000 0.250000 0.750000
O O20 0.774843 0.291322 0.000000
#
# Coordination Sequence:
#
# PCOD8290083 Si02
#       7
#    16  16  16  16   8  16  16
#     4   9  17  29  45  66  95 128 158 190 232 282
#     4   8  14  25  41  61  85 114 150 191 229 264
#     4   9  18  32  48  70  99 129 163 199 241 289
#     4   9  18  32  49  72  96 121 160 201 240 294
#     4   9  17  31  51  71  93 127 167 201 238 287
#     4  10  20  33  50  73 101 130 162 205 252 295
#     4   9  17  30  50  73  94 118 153 194 236 280
#
# _framework density 17.188310000000001
#
# number of rings (size 3 to 8) (size 9 to 14) (size 15 to 20)
#    0.000    3.000    0.000    2.538    0.000    5.846 
#    1.385    1.538    0.000    0.923    0.000    0.000 
#    0.000    0.000    0.000    0.000    0.000    0.000 
#
# Total GULP energy -644312.061129 kJ/mol
# GULP energy per Si atom -12390.616560 kJ/mol
# Density = 1.714919 g / cm^3
# Si number density = 17.188310 Si / 1000 Ang^3
#
#
#
# Elastic Constant Matrix: (Units=GPa)
#
#
# Indices 1 2 3 4 5 6 
#
# 1 83.9205 39.9879 47.2138 0.0000 0.0000 0.0000
# 2 39.9879 65.3291 36.5102 0.0000 0.0000 0.0000
# 3 47.2138 36.5102 86.7645 0.0000 0.0000 0.0000
# 4 0.0000 0.0000 0.0000 25.4088 0.0000 0.0000
# 5 0.0000 0.0000 0.0000 0.0000 28.5400 0.0000
# 6 0.0000 0.0000 0.0000 0.0000 0.0000 25.6538
#
#
#
# Elastic Compliance Matrix: (Units=1/GPa)
#
#
# Indices 1 2 3 4 5 6 
#
# 1 0.019950 -0.008033 -0.007475 0.000000 0.000000 0.000000
# 2 -0.008033 0.023249 -0.005412 0.000000 0.000000 0.000000
# 3 -0.007475 -0.005412 0.017870 0.000000 0.000000 0.000000
# 4 0.000000 0.000000 0.000000 0.039356 0.000000 0.000000
# 5 0.000000 0.000000 0.000000 0.000000 0.035039 0.000000
# 6 0.000000 0.000000 0.000000 0.000000 0.000000 0.038981
#
#
# Mechanical properties :
#
#
# Convention : Reuss Voigt Hill
#
# Bulk Modulus (GPa) = 52.00717 53.71534 52.86126
# Shear Modulus (GPa) = 22.45234 23.40734 22.92984
#
# Velocity S-wave (km/s) = 3.61814 3.69428 3.65641
# Velocity P-wave (km/s) = 6.91213 7.03675 6.97472
#
# Compressibility (1/GPa) = 0.01922812
#
# Stress axis : x y z
#
# Youngs Moduli (GPa) = 50.12639 43.01326 55.95846
#
# Poissons Ratio (x) = 0.34554 0.41831
# Poissons Ratio (y) = 0.40268 0.30282
# Poissons Ratio (z) = 0.37471 0.23277
#
# Static dielectric constant tensor:
#      x y z
#    x 4.214260 0.000000 0.000000 
#    y 0.000000 3.123540 0.000000 
#    z 0.000000 0.000000 3.447900 
# 
# 
# High freq. dielectric constant tensor:
#      x y z
#    x 1.651970 0.000000 0.000000 
#    y 0.000000 1.634620 0.000000 
#    z 0.000000 0.000000 1.667330 
# 
# From -- ./inp_files/15556.got.cif
#   From: 2010.06.25/outbox.cif.g09.slc.cpg/sg71_8_cif.got.tgz:15556.got - 2010.06.28 04:59:45.
