data_PCOD8290281
_publ_section_title
;
Structure prediction by ZEFSAII (Michael W. Deem and Ramdas Pophale) SiO2 
 PCOD8290281
Probable space group: I M M M
;
_chemical_formula_sum "Si O2"
_cell_formula_units_Z 96
_cell_length_a 25.353243
_cell_length_b 8.762215
_cell_length_c 22.934883
_cell_angle_alpha 90.000000
_cell_angle_beta 90.000000
_cell_angle_gamma 90.000000
_cell_volume 5094.997242
_symmetry_space_group_name_H-M "I M M M"
_symmetry_group_IT_number 71
_symmetry_cell_setting 'orthorhombic'
loop_
_space_group_symop_operation_xyz
x,y,z
-x,-y,z
x,-y,-z
-x,y,-z
-x,-y,-z
x,y,-z
-x,y,z
x,-y,z
1/2+x,1/2+y,1/2+z
1/2-x,1/2-y,1/2+z
1/2+x,1/2-y,1/2-z
1/2-x,1/2+y,1/2-z
1/2-x,1/2-y,1/2-z
1/2+x,1/2+y,1/2-z
1/2-x,1/2+y,1/2+z
1/2+x,1/2-y,1/2+z
loop_
_atom_site_type_symbol
_atom_site_label
_atom_site_fract_x
_atom_site_fract_y
_atom_site_fract_z
Si Si1 0.439670 0.822128 0.325026
Si Si2 0.655481 0.678641 0.628336
Si Si3 0.060419 0.823528 0.699275
Si Si4 0.303256 0.168258 0.737763
Si Si5 0.350836 0.168775 0.862678
Si Si6 0.244425 0.178526 0.432601
O O1 0.500000 0.790558 0.342515
O O2 0.404335 0.744251 0.376782
O O3 0.427592 0.760653 0.260190
O O4 0.425639 0.000000 0.323402
O O5 0.656427 0.500000 0.615980
O O6 0.666583 0.718665 0.695169
O O7 0.699288 0.754058 0.587034
O O8 0.094574 0.762627 0.643688
O O9 0.000000 0.797801 0.680875
O O10 0.073766 0.000000 0.709331
O O11 0.250000 0.250000 0.750000
O O12 0.333691 0.149340 0.796872
O O13 0.294528 0.000000 0.709340
O O14 0.305598 0.252238 0.899291
O O15 0.360583 0.000000 0.889896
O O16 0.236936 0.217816 0.500000
O O17 0.245261 0.000000 0.420337
#
# Coordination Sequence:
#
# PCOD8290281 Si02
#       6
#    16  16  16  16  16  16
#     4  10  20  34  53  80 116 154 189 226 271 328
#     4  12  23  35  56  83 114 150 184 227 278 331
#     4  10  20  33  52  81 117 154 189 226 271 328
#     4  11  21  32  50  80 113 147 183 222 275 335
#     4  11  22  35  56  83 114 151 185 227 279 332
#     4  11  25  43  62  82 107 144 188 235 285 335
#
# _framework density 18.842010999999999
#
# number of rings (size 3 to 8) (size 9 to 14) (size 15 to 20)
#    0.000    1.167    3.333    4.000    0.000    4.667 
#    0.000    0.000    0.000    1.000    0.000    7.000 
#    0.000    0.000    0.000    0.000    0.000    0.000 
#
# Total GULP energy -594841.878736 kJ/mol
# GULP energy per Si atom -12392.539140 kJ/mol
# Density = 1.879913 g / cm^3
# Si number density = 18.842011 Si / 1000 Ang^3
#
#
#
# Elastic Constant Matrix: (Units=GPa)
#
#
# Indices 1 2 3 4 5 6 
#
# 1 118.0886 50.7276 22.1800 0.0000 0.0000 0.0000
# 2 50.7276 122.4422 29.0908 0.0000 0.0000 0.0000
# 3 22.1800 29.0908 51.2794 0.0000 0.0000 0.0000
# 4 0.0000 0.0000 0.0000 21.3406 0.0000 0.0000
# 5 0.0000 0.0000 0.0000 0.0000 5.3620 0.0000
# 6 0.0000 0.0000 0.0000 0.0000 0.0000 33.5787
#
#
#
# Elastic Compliance Matrix: (Units=1/GPa)
#
#
# Indices 1 2 3 4 5 6 
#
# 1 0.010553 -0.003800 -0.002409 0.000000 0.000000 0.000000
# 2 -0.003800 0.010808 -0.004488 0.000000 0.000000 0.000000
# 3 -0.002409 -0.004488 0.023089 0.000000 0.000000 0.000000
# 4 0.000000 0.000000 0.000000 0.046859 0.000000 0.000000
# 5 0.000000 0.000000 0.000000 0.000000 0.186496 0.000000
# 6 0.000000 0.000000 0.000000 0.000000 0.000000 0.029781
#
#
# Mechanical properties :
#
#
# Convention : Reuss Voigt Hill
#
# Bulk Modulus (GPa) = 43.37126 55.08967 49.23047
# Shear Modulus (GPa) = 14.85163 24.71040 19.78102
#
# Velocity S-wave (km/s) = 2.81057 3.62533 3.24363
# Velocity P-wave (km/s) = 5.79662 6.84289 6.34137
#
# Compressibility (1/GPa) = 0.02305674
#
# Stress axis : x y z
#
# Youngs Moduli (GPa) = 94.76050 92.52799 43.31115
#
# Poissons Ratio (x) = 0.35158 0.10433
# Poissons Ratio (y) = 0.36006 0.19436
# Poissons Ratio (z) = 0.22827 0.41523
#
# Static dielectric constant tensor:
#      x y z
#    x 3.731820 0.000000 0.000000 
#    y 0.000000 3.029630 0.000000 
#    z 0.000000 0.000000 3.123660 
# 
# 
# High freq. dielectric constant tensor:
#      x y z
#    x 1.753130 0.000000 0.000000 
#    y 0.000000 1.753110 0.000000 
#    z 0.000000 0.000000 1.680650 
# 
# From -- ./inp_files/13152.got.cif
#   From: 2010.06.25/outbox.cif.g09.slc.cpg/sg71_7_cif.got.tgz:13152.got - 2010.06.28 04:59:45.
