data_PCOD8290372
_publ_section_title
;
Structure prediction by ZEFSAII (Michael W. Deem and Ramdas Pophale) SiO2 
 PCOD8290372
Probable space group: I M M M
;
_chemical_formula_sum "Si O2"
_cell_formula_units_Z 104
_cell_length_a 21.908537
_cell_length_b 9.370907
_cell_length_c 27.115121
_cell_angle_alpha 90.000000
_cell_angle_beta 90.000000
_cell_angle_gamma 90.000000
_cell_volume 5566.811965
_symmetry_space_group_name_H-M "I M M M"
_symmetry_group_IT_number 71
_symmetry_cell_setting 'orthorhombic'
loop_
_space_group_symop_operation_xyz
x,y,z
-x,-y,z
x,-y,-z
-x,y,-z
-x,-y,-z
x,y,-z
-x,y,z
x,-y,z
1/2+x,1/2+y,1/2+z
1/2-x,1/2-y,1/2+z
1/2+x,1/2-y,1/2-z
1/2-x,1/2+y,1/2-z
1/2-x,1/2-y,1/2-z
1/2+x,1/2+y,1/2-z
1/2-x,1/2+y,1/2+z
1/2+x,1/2-y,1/2+z
loop_
_atom_site_type_symbol
_atom_site_label
_atom_site_fract_x
_atom_site_fract_y
_atom_site_fract_z
Si Si1 0.930614 0.832574 0.730182
Si Si2 0.930259 0.337707 0.368292
Si Si3 0.286581 0.335245 0.392667
Si Si4 0.836692 0.667059 0.554432
Si Si5 0.388008 0.159561 0.558357
Si Si6 0.500000 0.659835 0.558897
Si Si7 0.196677 0.833266 0.778769
O O1 0.915994 0.756275 0.679100
O O2 0.873771 0.788630 0.765708
O O3 0.000000 0.789213 0.749411
O O4 0.929602 0.000000 0.720687
O O5 0.909264 0.500000 0.356410
O O6 0.895124 0.274960 0.415790
O O7 0.000000 0.331495 0.383496
O O8 0.303845 0.500000 0.403060
O O9 0.219164 0.297354 0.409913
O O10 0.325967 0.232548 0.426404
O O11 0.294654 0.296061 0.335825
O O12 0.831688 0.739861 0.500000
O O13 0.842404 0.500000 0.546003
O O14 0.392473 0.153130 0.500000
O O15 0.442043 0.256464 0.580120
O O16 0.392859 0.000000 0.580321
O O17 0.500000 0.500000 0.580846
O O18 0.500000 0.654807 0.500000
O O19 0.250000 0.750000 0.750000
O O20 0.206713 0.000000 0.768020
#
# Coordination Sequence:
#
# PCOD8290372 Si02
#       7
#    16  16  16  16  16   8  16
#     4   9  18  34  54  75 103 138 173 211 261 319
#     4   9  17  30  51  78 104 131 168 213 257 307
#     4  10  20  34  51  74 101 134 179 221 261 314
#     4   9  17  29  47  72 103 137 170 211 260 308
#     4  10  20  34  52  75 105 137 170 213 263 311
#     4   9  17  31  53  77  99 131 173 209 247 301
#     4  10  21  36  55  79 105 137 178 223 272 322
#
# _framework density 18.682145999999999
#
# number of rings (size 3 to 8) (size 9 to 14) (size 15 to 20)
#    0.000    2.538    0.000    2.077    0.000    5.231 
#    1.385    2.308    0.000    1.385    0.000    2.154 
#    0.000    0.000    0.000    0.000    0.000    0.000 
#
# Total GULP energy -644471.291255 kJ/mol
# GULP energy per Si atom -12393.678678 kJ/mol
# Density = 1.863962 g / cm^3
# Si number density = 18.682146 Si / 1000 Ang^3
#
#
#
# Elastic Constant Matrix: (Units=GPa)
#
#
# Indices 1 2 3 4 5 6 
#
# 1 120.8514 36.6590 56.6352 0.0000 0.0000 0.0000
# 2 36.6590 62.3404 17.3106 0.0000 0.0000 0.0000
# 3 56.6352 17.3106 88.7119 0.0000 0.0000 0.0000
# 4 0.0000 0.0000 0.0000 23.4917 0.0000 0.0000
# 5 0.0000 0.0000 0.0000 0.0000 6.8724 0.0000
# 6 0.0000 0.0000 0.0000 0.0000 0.0000 26.1302
#
#
#
# Elastic Compliance Matrix: (Units=1/GPa)
#
#
# Indices 1 2 3 4 5 6 
#
# 1 0.013592 -0.005903 -0.007525 0.000000 0.000000 0.000000
# 2 -0.005903 0.019524 -0.000041 0.000000 0.000000 0.000000
# 3 -0.007525 -0.000041 0.016085 0.000000 0.000000 0.000000
# 4 0.000000 0.000000 0.000000 0.042568 0.000000 0.000000
# 5 0.000000 0.000000 0.000000 0.000000 0.145511 0.000000
# 6 0.000000 0.000000 0.000000 0.000000 0.000000 0.038270
#
#
# Mechanical properties :
#
#
# Convention : Reuss Voigt Hill
#
# Bulk Modulus (GPa) = 44.92115 54.79037 49.85576
# Shear Modulus (GPa) = 16.13379 22.05211 19.09295
#
# Velocity S-wave (km/s) = 2.94188 3.43940 3.20032
# Velocity P-wave (km/s) = 5.96965 6.72041 6.35613
#
# Compressibility (1/GPa) = 0.02226123
#
# Stress axis : x y z
#
# Youngs Moduli (GPa) = 73.57310 51.22006 62.17033
#
# Poissons Ratio (x) = 0.30235 0.46786
# Poissons Ratio (y) = 0.43430 0.00256
# Poissons Ratio (z) = 0.55367 0.00211
#
# Static dielectric constant tensor:
#      x y z
#    x 3.804960 0.000000 0.000000 
#    y 0.000000 3.377560 0.000000 
#    z 0.000000 0.000000 3.539910 
# 
# 
# High freq. dielectric constant tensor:
#      x y z
#    x 1.742330 0.000000 0.000000 
#    y 0.000000 1.706700 0.000000 
#    z 0.000000 0.000000 1.711000 
# 
# From -- ./inp_files/66426.got.cif
#   From: 2010.06.25/outbox.cif.g09.slc.cpg/sg71_34_cif.got.tgz:66426.got - 2010.06.28 04:59:45.
