data_PCOD8290172
_publ_section_title
;
Structure prediction by ZEFSAII (Michael W. Deem and Ramdas Pophale) SiO2 
 PCOD8290172
Probable space group: I M M M
;
_chemical_formula_sum "Si O2"
_cell_formula_units_Z 104
_cell_length_a 27.042320
_cell_length_b 23.203654
_cell_length_c 9.063765
_cell_angle_alpha 90.000000
_cell_angle_beta 90.000000
_cell_angle_gamma 90.000000
_cell_volume 5687.337033
_symmetry_space_group_name_H-M "I M M M"
_symmetry_group_IT_number 71
_symmetry_cell_setting 'orthorhombic'
loop_
_space_group_symop_operation_xyz
x,y,z
-x,-y,z
x,-y,-z
-x,y,-z
-x,-y,-z
x,y,-z
-x,y,z
x,-y,z
1/2+x,1/2+y,1/2+z
1/2-x,1/2-y,1/2+z
1/2+x,1/2-y,1/2-z
1/2-x,1/2+y,1/2-z
1/2-x,1/2-y,1/2-z
1/2+x,1/2+y,1/2-z
1/2-x,1/2+y,1/2+z
1/2+x,1/2-y,1/2+z
loop_
_atom_site_type_symbol
_atom_site_label
_atom_site_fract_x
_atom_site_fract_y
_atom_site_fract_z
Si Si1 0.384962 0.702675 0.837217
Si Si2 0.820144 0.500000 0.825863
Si Si3 0.295153 0.500000 0.174724
Si Si4 0.354641 0.114586 0.823627
Si Si5 0.791045 0.282262 0.660199
Si Si6 0.445968 0.500000 0.326644
Si Si7 0.444926 0.808624 0.175484
Si Si8 0.635031 0.412084 0.325887
O O1 0.337684 0.741936 0.856490
O O2 0.428348 0.744153 0.773681
O O3 0.371956 0.653440 0.721018
O O4 0.398622 0.677212 0.000000
O O5 0.762464 0.500000 0.783363
O O6 0.847663 0.445282 0.757955
O O7 0.827610 0.500000 0.000000
O O8 0.319034 0.557743 0.243568
O O9 0.303719 0.500000 0.000000
O O10 0.309668 0.156849 0.772528
O O11 0.406946 0.142019 0.769886
O O12 0.354028 0.106376 0.000000
O O13 0.767734 0.294456 0.500000
O O14 0.750000 0.250000 0.750000
O O15 0.500000 0.500000 0.249300
O O16 0.453134 0.500000 0.500000
O O17 0.415547 0.556270 0.278454
O O18 0.500000 0.821393 0.237741
O O19 0.444450 0.808596 0.000000
O O20 0.645013 0.416456 0.500000
#
# Coordination Sequence:
#
# PCOD8290172 Si02
#       8
#    16   8   8  16  16   8  16  16
#     4   9  18  32  50  75 108 137 167 210 258 306
#     4  11  24  38  55  78 105 140 179 220 273 327
#     4  10  22  38  53  70  99 141 181 223 273 316
#     4   9  19  36  56  80 107 137 177 223 263 308
#     4   9  19  33  50  74 103 137 171 207 254 303
#     4   8  16  32  49  65  93 132 169 212 260 298
#     4   8  15  32  58  83 107 138 176 217 262 312
#     4  10  20  33  51  76 103 135 179 219 257 311
#
# _framework density 18.286237
#
# number of rings (size 3 to 8) (size 9 to 14) (size 15 to 20)
#    0.000    2.846    0.000    3.231    2.154    3.077 
#    0.000    2.692    0.000   11.538    0.000    0.000 
#    0.000    0.000    0.000    0.000    0.000    0.000 
#
# Total GULP energy -644455.972840 kJ/mol
# GULP energy per Si atom -12393.384093 kJ/mol
# Density = 1.824462 g / cm^3
# Si number density = 18.286237 Si / 1000 Ang^3
#
#
#
# Elastic Constant Matrix: (Units=GPa)
#
#
# Indices 1 2 3 4 5 6 
#
# 1 107.8027 51.8345 35.4348 0.0000 0.0000 0.0000
# 2 51.8345 137.2208 41.5968 0.0000 0.0000 0.0000
# 3 35.4348 41.5968 59.1197 0.0000 0.0000 0.0000
# 4 0.0000 0.0000 0.0000 26.8002 0.0000 0.0000
# 5 0.0000 0.0000 0.0000 0.0000 19.1572 0.0000
# 6 0.0000 0.0000 0.0000 0.0000 0.0000 17.1942
#
#
#
# Elastic Compliance Matrix: (Units=1/GPa)
#
#
# Indices 1 2 3 4 5 6 
#
# 1 0.012522 -0.003121 -0.005310 0.000000 0.000000 0.000000
# 2 -0.003121 0.010041 -0.005194 0.000000 0.000000 0.000000
# 3 -0.005310 -0.005194 0.023752 0.000000 0.000000 0.000000
# 4 0.000000 0.000000 0.000000 0.037313 0.000000 0.000000
# 5 0.000000 0.000000 0.000000 0.000000 0.052200 0.000000
# 6 0.000000 0.000000 0.000000 0.000000 0.000000 0.058159
#
#
# Mechanical properties :
#
#
# Convention : Reuss Voigt Hill
#
# Bulk Modulus (GPa) = 52.45036 62.43058 57.44047
# Shear Modulus (GPa) = 21.96917 24.31546 23.14231
#
# Velocity S-wave (km/s) = 3.46989 3.65048 3.56133
# Velocity P-wave (km/s) = 6.69319 7.20991 6.95635
#
# Compressibility (1/GPa) = 0.01906565
#
# Stress axis : x y z
#
# Youngs Moduli (GPa) = 79.85982 99.59244 42.10137
#
# Poissons Ratio (x) = 0.31078 0.22355
# Poissons Ratio (y) = 0.24920 0.21869
# Poissons Ratio (z) = 0.42403 0.51733
#
# Static dielectric constant tensor:
#      x y z
#    x 6.328730 0.000000 0.000000 
#    y 0.000000 3.410030 0.000000 
#    z 0.000000 0.000000 3.046620 
# 
# 
# High freq. dielectric constant tensor:
#      x y z
#    x 1.708860 0.000000 0.000000 
#    y 0.000000 1.710120 0.000000 
#    z 0.000000 0.000000 1.684390 
# 
# From -- ./inp_files/15352.got.cif
#   From: 2010.06.25/outbox.cif.g09.slc.cpg/sg71_8_cif.got.tgz:15352.got - 2010.06.28 04:59:45.
