data_PCOD8290016
_publ_section_title
;
Structure prediction by ZEFSAII (Michael W. Deem and Ramdas Pophale) SiO2 
 PCOD8290016
Probable space group: I M M M
;
_chemical_formula_sum "Si O2"
_cell_formula_units_Z 96
_cell_length_a 9.923082
_cell_length_b 24.772766
_cell_length_c 22.361960
_cell_angle_alpha 90.000000
_cell_angle_beta 90.000000
_cell_angle_gamma 90.000000
_cell_volume 5497.065944
_symmetry_space_group_name_H-M "I M M M"
_symmetry_group_IT_number 71
_symmetry_cell_setting 'orthorhombic'
loop_
_space_group_symop_operation_xyz
x,y,z
-x,-y,z
x,-y,-z
-x,y,-z
-x,-y,-z
x,y,-z
-x,y,z
x,-y,z
1/2+x,1/2+y,1/2+z
1/2-x,1/2-y,1/2+z
1/2+x,1/2-y,1/2-z
1/2-x,1/2+y,1/2-z
1/2-x,1/2-y,1/2-z
1/2+x,1/2+y,1/2-z
1/2-x,1/2+y,1/2+z
1/2+x,1/2-y,1/2+z
loop_
_atom_site_type_symbol
_atom_site_label
_atom_site_fract_x
_atom_site_fract_y
_atom_site_fract_z
Si Si1 0.154879 0.561240 0.890376
Si Si2 0.843379 0.088572 0.718809
Si Si3 0.839968 0.059007 0.149848
Si Si4 0.338559 0.742782 0.500000
Si Si5 0.348003 0.333064 0.602380
Si Si6 0.840104 0.365726 0.000000
Si Si7 0.647536 0.704207 0.263150
O O1 0.163375 0.500000 0.915031
O O2 0.249484 0.565521 0.832778
O O3 0.209702 0.602296 0.941063
O O4 0.000000 0.575177 0.872969
O O5 0.791361 0.063636 0.781534
O O6 0.823864 0.152865 0.721593
O O7 0.000000 0.073319 0.706655
O O8 0.780366 0.106576 0.106705
O O9 0.000000 0.067467 0.151482
O O10 0.798846 0.000000 0.124489
O O11 0.500000 0.747198 0.500000
O O12 0.279097 0.709247 0.443180
O O13 0.281736 0.804282 0.500000
O O14 0.500000 0.339754 0.579055
O O15 0.341788 0.309448 0.667855
O O16 0.000000 0.365604 0.000000
O O17 0.500000 0.727076 0.248700
O O18 0.750000 0.750000 0.250000
#
# Coordination Sequence:
#
# PCOD8290016 Si02
#       7
#    16  16  16   8  16   8  16
#     4  10  20  33  49  70  94 119 156 204 243 281
#     4   9  18  31  47  70  96 125 158 189 230 287
#     4   8  13  24  42  62  88 122 152 180 223 274
#     4   9  16  27  43  62  87 120 157 191 226 275
#     4   8  15  26  40  63  90 115 150 192 224 263
#     4   9  19  32  46  63  86 123 159 192 243 290
#     4   9  18  30  46  69  97 124 154 193 233 277
#
# _framework density 17.463861999999999
#
# number of rings (size 3 to 8) (size 9 to 14) (size 15 to 20)
#    0.000    3.167    0.000    2.750    2.333    2.667 
#    0.000    0.833    0.000    3.500    0.000    0.583 
#    0.000    0.000    0.000    0.000    0.000   36.417 
#
# Total GULP energy -594664.118957 kJ/mol
# GULP energy per Si atom -12388.835812 kJ/mol
# Density = 1.742411 g / cm^3
# Si number density = 17.463862 Si / 1000 Ang^3
#
#
#
# Elastic Constant Matrix: (Units=GPa)
#
#
# Indices 1 2 3 4 5 6 
#
# 1 35.0865 31.4050 14.1764 0.0000 0.0000 0.0000
# 2 31.4050 154.6359 51.3317 0.0000 0.0000 0.0000
# 3 14.1764 51.3317 68.5296 0.0000 0.0000 0.0000
# 4 0.0000 0.0000 0.0000 17.1948 0.0000 0.0000
# 5 0.0000 0.0000 0.0000 0.0000 15.4962 0.0000
# 6 0.0000 0.0000 0.0000 0.0000 0.0000 17.8660
#
#
#
# Elastic Compliance Matrix: (Units=1/GPa)
#
#
# Indices 1 2 3 4 5 6 
#
# 1 0.035168 -0.006292 -0.002562 0.000000 0.000000 0.000000
# 2 -0.006292 0.009732 -0.005989 0.000000 0.000000 0.000000
# 3 -0.002562 -0.005989 0.019608 0.000000 0.000000 0.000000
# 4 0.000000 0.000000 0.000000 0.058157 0.000000 0.000000
# 5 0.000000 0.000000 0.000000 0.000000 0.064532 0.000000
# 6 0.000000 0.000000 0.000000 0.000000 0.000000 0.055972
#
#
# Mechanical properties :
#
#
# Convention : Reuss Voigt Hill
#
# Bulk Modulus (GPa) = 28.71641 50.23091 39.47366
# Shear Modulus (GPa) = 17.57704 20.86734 19.22219
#
# Velocity S-wave (km/s) = 3.17595 3.46046 3.32125
# Velocity P-wave (km/s) = 5.47064 6.69265 6.11226
#
# Compressibility (1/GPa) = 0.03482329
#
# Stress axis : x y z
#
# Youngs Moduli (GPa) = 28.43516 102.74859 50.99969
#
# Poissons Ratio (x) = 0.64646 0.13067
# Poissons Ratio (y) = 0.17891 0.30541
# Poissons Ratio (z) = 0.07286 0.61531
#
# Static dielectric constant tensor:
#      x y z
#    x 2.679250 0.000000 0.000000 
#    y 0.000000 3.675850 0.000000 
#    z 0.000000 0.000000 3.108100 
# 
# 
# High freq. dielectric constant tensor:
#      x y z
#    x 1.609660 0.000000 0.000000 
#    y 0.000000 1.697490 0.000000 
#    z 0.000000 0.000000 1.664250 
# 
# From -- ./inp_files/59107.got.cif
#   From: 2010.06.25/outbox.cif.g09.slc.cpg/sg71_30_cif.got.tgz:59107.got - 2010.06.28 04:59:45.
