data_PCOD8290177
_publ_section_title
;
Structure prediction by ZEFSAII (Michael W. Deem and Ramdas Pophale) SiO2 
 PCOD8290177
Probable space group: I M M M
;
_chemical_formula_sum "Si O2"
_cell_formula_units_Z 96
_cell_length_a 23.368566
_cell_length_b 9.339875
_cell_length_c 23.474741
_cell_angle_alpha 90.000000
_cell_angle_beta 90.000000
_cell_angle_gamma 90.000000
_cell_volume 5123.584890
_symmetry_space_group_name_H-M "I M M M"
_symmetry_group_IT_number 71
_symmetry_cell_setting 'orthorhombic'
loop_
_space_group_symop_operation_xyz
x,y,z
-x,-y,z
x,-y,-z
-x,y,-z
-x,-y,-z
x,y,-z
-x,y,z
x,-y,z
1/2+x,1/2+y,1/2+z
1/2-x,1/2-y,1/2+z
1/2+x,1/2-y,1/2-z
1/2-x,1/2+y,1/2-z
1/2-x,1/2-y,1/2-z
1/2+x,1/2+y,1/2-z
1/2-x,1/2+y,1/2+z
1/2+x,1/2-y,1/2+z
loop_
_atom_site_type_symbol
_atom_site_label
_atom_site_fract_x
_atom_site_fract_y
_atom_site_fract_z
Si Si1 0.568034 0.339490 0.937941
Si Si2 0.668443 0.835964 0.242020
Si Si3 0.327161 0.832149 0.433375
Si Si4 0.564250 0.834454 0.167934
Si Si5 0.936868 0.839495 0.067510
Si Si6 0.227218 0.833381 0.162372
O O1 0.500000 0.335561 0.937451
O O2 0.590378 0.500000 0.927526
O O3 0.591635 0.241541 0.887337
O O4 0.589952 0.284902 0.000000
O O5 0.603849 0.803022 0.222284
O O6 0.709977 0.807562 0.188206
O O7 0.680750 0.729505 0.293607
O O8 0.675605 0.000000 0.262886
O O9 0.316594 0.800170 0.500000
O O10 0.388549 0.771478 0.411796
O O11 0.277859 0.751483 0.397446
O O12 0.325630 0.000000 0.420379
O O13 0.500000 0.779784 0.182110
O O14 0.564021 0.000000 0.152399
O O15 0.000000 0.793067 0.090442
O O16 0.922006 0.000000 0.089287
O O17 0.938529 0.839363 0.000000
O O18 0.214357 0.000000 0.152090
#
# Coordination Sequence:
#
# PCOD8290177 Si02
#       6
#    16  16  16  16  16  16
#     4   8  14  25  41  63  94 131 166 197 232 279
#     4   9  19  36  55  75  99 127 164 208 251 300
#     4  10  20  33  51  76 105 135 167 207 254 300
#     4   9  17  30  50  75 101 128 158 198 250 301
#     4   8  14  26  45  69  98 132 167 201 240 291
#     4  10  20  35  56  76  95 128 171 210 249 294
#
# _framework density 18.736879999999999
#
# number of rings (size 3 to 8) (size 9 to 14) (size 15 to 20)
#    0.000    3.000    0.000    2.000    0.000    3.000 
#    0.000    5.000    0.000    8.000    0.000    0.000 
#    0.000    0.000    0.000    0.000    0.000    0.000 
#
# Total GULP energy -594956.693583 kJ/mol
# GULP energy per Si atom -12394.931116 kJ/mol
# Density = 1.869423 g / cm^3
# Si number density = 18.736880 Si / 1000 Ang^3
#
#
#
# Elastic Constant Matrix: (Units=GPa)
#
#
# Indices 1 2 3 4 5 6 
#
# 1 59.2077 32.2214 31.5869 0.0000 0.0000 0.0000
# 2 32.2214 93.6717 47.3497 0.0000 0.0000 0.0000
# 3 31.5869 47.3497 72.7851 0.0000 0.0000 0.0000
# 4 0.0000 0.0000 0.0000 35.0814 0.0000 0.0000
# 5 0.0000 0.0000 0.0000 0.0000 19.6654 0.0000
# 6 0.0000 0.0000 0.0000 0.0000 0.0000 22.9500
#
#
#
# Elastic Compliance Matrix: (Units=1/GPa)
#
#
# Indices 1 2 3 4 5 6 
#
# 1 0.023077 -0.004285 -0.007228 0.000000 0.000000 0.000000
# 2 -0.004285 0.016702 -0.009006 0.000000 0.000000 0.000000
# 3 -0.007228 -0.009006 0.022734 0.000000 0.000000 0.000000
# 4 0.000000 0.000000 0.000000 0.028505 0.000000 0.000000
# 5 0.000000 0.000000 0.000000 0.000000 0.050851 0.000000
# 6 0.000000 0.000000 0.000000 0.000000 0.000000 0.043573
#
#
# Mechanical properties :
#
#
# Convention : Reuss Voigt Hill
#
# Bulk Modulus (GPa) = 46.56085 49.77560 48.16823
# Shear Modulus (GPa) = 21.40072 23.17315 22.28693
#
# Velocity S-wave (km/s) = 3.38327 3.52058 3.45261
# Velocity P-wave (km/s) = 6.33765 6.56881 6.45426
#
# Compressibility (1/GPa) = 0.02147727
#
# Stress axis : x y z
#
# Youngs Moduli (GPa) = 43.33250 59.87421 43.98660
#
# Poissons Ratio (x) = 0.25655 0.31792
# Poissons Ratio (y) = 0.18567 0.39613
# Poissons Ratio (z) = 0.31319 0.53921
#
# Static dielectric constant tensor:
#      x y z
#    x 3.456030 0.000000 0.000000 
#    y 0.000000 3.500570 0.000000 
#    z 0.000000 0.000000 3.364060 
# 
# 
# High freq. dielectric constant tensor:
#      x y z
#    x 1.708310 0.000000 0.000000 
#    y 0.000000 1.727400 0.000000 
#    z 0.000000 0.000000 1.710910 
# 
# From -- ./inp_files/12798.got.cif
#   From: 2010.06.25/outbox.cif.g09.slc.cpg/sg71_7_cif.got.tgz:12798.got - 2010.06.28 04:59:45.
