data_PCOD8290749
_publ_section_title
;
Structure prediction by ZEFSAII (Michael W. Deem and Ramdas Pophale) SiO2 
 PCOD8290749
Probable space group: I M M M
;
_chemical_formula_sum "Si O2"
_cell_formula_units_Z 96
_cell_length_a 8.743332
_cell_length_b 24.183648
_cell_length_c 24.222665
_cell_angle_alpha 90.000000
_cell_angle_beta 90.000000
_cell_angle_gamma 90.000000
_cell_volume 5121.777471
_symmetry_space_group_name_H-M "I M M M"
_symmetry_group_IT_number 71
_symmetry_cell_setting 'orthorhombic'
loop_
_space_group_symop_operation_xyz
x,y,z
-x,-y,z
x,-y,-z
-x,y,-z
-x,-y,-z
x,y,-z
-x,y,z
x,-y,z
1/2+x,1/2+y,1/2+z
1/2-x,1/2-y,1/2+z
1/2+x,1/2-y,1/2-z
1/2-x,1/2+y,1/2-z
1/2-x,1/2-y,1/2-z
1/2+x,1/2+y,1/2-z
1/2-x,1/2+y,1/2+z
1/2+x,1/2-y,1/2+z
loop_
_atom_site_type_symbol
_atom_site_label
_atom_site_fract_x
_atom_site_fract_y
_atom_site_fract_z
Si Si1 0.181629 0.147137 0.229539
Si Si2 0.682054 0.149157 0.652987
Si Si3 0.321821 0.143219 0.061769
Si Si4 0.319637 0.767647 0.848337
Si Si5 0.680322 0.438792 0.638435
Si Si6 0.181562 0.437858 0.938068
O O1 0.247153 0.131141 0.288842
O O2 0.252341 0.204767 0.207363
O O3 0.236683 0.097733 0.189892
O O4 0.000000 0.153741 0.232256
O O5 0.500000 0.148451 0.656561
O O6 0.740226 0.209947 0.638233
O O7 0.744056 0.106436 0.606420
O O8 0.500000 0.131001 0.065358
O O9 0.276135 0.194900 0.099458
O O10 0.237222 0.087950 0.081557
O O11 0.268462 0.157204 0.000000
O O12 0.500000 0.759134 0.840323
O O13 0.500000 0.441429 0.636945
O O14 0.750621 0.500000 0.644518
O O15 0.238438 0.500000 0.922670
O O16 0.000000 0.436746 0.937419
O O17 0.239504 0.422306 0.000000
#
# Coordination Sequence:
#
# PCOD8290749 Si02
#       6
#    16  16  16  16  16  16
#     4  10  20  35  53  73 102 137 170 207 251 298
#     4  11  21  32  52  81 105 128 165 208 249 299
#     4   9  19  35  53  74 101 134 171 210 252 297
#     4  10  20  35  53  73 102 137 170 207 251 298
#     4   9  19  35  53  74 101 134 171 210 252 297
#     4   8  16  33  54  75 102 134 166 203 246 292
#
# _framework density 18.743493000000001
#
# number of rings (size 3 to 8) (size 9 to 14) (size 15 to 20)
#    0.000    2.500    0.000    2.500    0.000    3.667 
#    0.000    1.667    0.000    3.000    0.000    4.667 
#    0.000    0.000    0.000    0.000    0.000    0.000 
#
# Total GULP energy -595163.996226 kJ/mol
# GULP energy per Si atom -12399.249921 kJ/mol
# Density = 1.870083 g / cm^3
# Si number density = 18.743493 Si / 1000 Ang^3
#
#
#
# Elastic Constant Matrix: (Units=GPa)
#
#
# Indices 1 2 3 4 5 6 
#
# 1 27.0886 20.8700 21.7868 0.0000 0.0000 0.0000
# 2 20.8700 90.5052 53.9270 0.0000 0.0000 0.0000
# 3 21.7868 53.9270 136.2084 0.0000 0.0000 0.0000
# 4 0.0000 0.0000 0.0000 30.5048 0.0000 0.0000
# 5 0.0000 0.0000 0.0000 0.0000 24.6828 0.0000
# 6 0.0000 0.0000 0.0000 0.0000 0.0000 21.9999
#
#
#
# Elastic Compliance Matrix: (Units=1/GPa)
#
#
# Indices 1 2 3 4 5 6 
#
# 1 0.046651 -0.008260 -0.004192 0.000000 0.000000 0.000000
# 2 -0.008260 0.015923 -0.004983 0.000000 0.000000 0.000000
# 3 -0.004192 -0.004983 0.009985 0.000000 0.000000 0.000000
# 4 0.000000 0.000000 0.000000 0.032782 0.000000 0.000000
# 5 0.000000 0.000000 0.000000 0.000000 0.040514 0.000000
# 6 0.000000 0.000000 0.000000 0.000000 0.000000 0.045455
#
#
# Mechanical properties :
#
#
# Convention : Reuss Voigt Hill
#
# Bulk Modulus (GPa) = 26.53239 49.66332 38.09785
# Shear Modulus (GPa) = 20.94315 25.91872 23.43093
#
# Velocity S-wave (km/s) = 3.34631 3.72265 3.53949
# Velocity P-wave (km/s) = 5.39599 6.71054 6.08884
#
# Compressibility (1/GPa) = 0.03768979
#
# Stress axis : x y z
#
# Youngs Moduli (GPa) = 21.43578 62.80306 100.15049
#
# Poissons Ratio (x) = 0.51874 0.41980
# Poissons Ratio (y) = 0.17706 0.49904
# Poissons Ratio (z) = 0.08985 0.31294
#
# Static dielectric constant tensor:
#      x y z
#    x 3.255300 0.000000 0.000000 
#    y 0.000000 3.733910 0.000000 
#    z 0.000000 0.000000 3.682330 
# 
# 
# High freq. dielectric constant tensor:
#      x y z
#    x 1.713930 0.000000 0.000000 
#    y 0.000000 1.732070 0.000000 
#    z 0.000000 0.000000 1.733350 
# 
# From -- ./inp_files/12832.got.cif
#   From: 2010.06.25/outbox.cif.g09.slc.cpg/sg71_7_cif.got.tgz:12832.got - 2010.06.28 04:59:45.
