data_PCOD8290227
_publ_section_title
;
Structure prediction by ZEFSAII (Michael W. Deem and Ramdas Pophale) SiO2 
 PCOD8290227
Probable space group: I M M M
;
_chemical_formula_sum "Si O2"
_cell_formula_units_Z 120
_cell_length_a 27.655799
_cell_length_b 26.926869
_cell_length_c 9.178214
_cell_angle_alpha 90.000000
_cell_angle_beta 90.000000
_cell_angle_gamma 90.000000
_cell_volume 6834.869819
_symmetry_space_group_name_H-M "I M M M"
_symmetry_group_IT_number 71
_symmetry_cell_setting 'orthorhombic'
loop_
_space_group_symop_operation_xyz
x,y,z
-x,-y,z
x,-y,-z
-x,y,-z
-x,-y,-z
x,y,-z
-x,y,z
x,-y,z
1/2+x,1/2+y,1/2+z
1/2-x,1/2-y,1/2+z
1/2+x,1/2-y,1/2-z
1/2-x,1/2+y,1/2-z
1/2-x,1/2-y,1/2-z
1/2+x,1/2+y,1/2-z
1/2-x,1/2+y,1/2+z
1/2+x,1/2-y,1/2+z
loop_
_atom_site_type_symbol
_atom_site_label
_atom_site_fract_x
_atom_site_fract_y
_atom_site_fract_z
Si Si1 0.714785 0.101561 0.830910
Si Si2 0.554195 0.000000 0.327029
Si Si3 0.231246 0.201972 0.830863
Si Si4 0.301396 0.444560 0.832871
Si Si5 0.555410 0.809419 0.329943
Si Si6 0.614296 0.905262 0.672814
Si Si7 0.054012 0.789513 0.669675
Si Si8 0.645939 0.652509 0.831774
O O1 0.730034 0.158440 0.804956
O O2 0.755538 0.065075 0.768754
O O3 0.665787 0.090563 0.747541
O O4 0.707918 0.089496 0.000000
O O5 0.582015 0.048833 0.272107
O O6 0.500000 0.000000 0.261497
O O7 0.551315 0.000000 0.500000
O O8 0.250000 0.250000 0.750000
O O9 0.179608 0.186930 0.766529
O O10 0.224289 0.214064 0.000000
O O11 0.321280 0.500000 0.802589
O O12 0.344451 0.405619 0.797491
O O13 0.284472 0.438587 0.000000
O O14 0.562080 0.800057 0.500000
O O15 0.500000 0.822117 0.291318
O O16 0.588139 0.854916 0.276033
O O17 0.572802 0.759898 0.248987
O O18 0.621373 0.906624 0.500000
O O19 0.053884 0.777228 0.500000
O O20 0.090208 0.834909 0.706083
O O21 0.000000 0.804391 0.723112
O O22 0.657440 0.664751 0.000000
#
# Coordination Sequence:
#
# PCOD8290227 Si02
#       8
#    16   8  16  16  16  16  16  16
#     4  10  22  36  49  72 103 133 164 203 252 302
#     4   9  18  34  55  75  95 125 169 217 260 301
#     4  10  21  35  51  72 101 135 169 206 250 300
#     4   9  18  34  56  76  97 128 168 212 251 295
#     4   9  18  32  49  71  98 128 166 211 253 293
#     4  10  20  33  52  75  97 127 167 212 258 303
#     4   9  18  32  51  75 104 137 168 200 245 301
#     4   9  18  33  52  75 102 133 170 208 248 299
#
# _framework density 17.557027999999999
#
# number of rings (size 3 to 8) (size 9 to 14) (size 15 to 20)
#    0.000    2.600    0.000    1.200    2.800    4.533 
#    0.000    0.000    0.000    2.000    0.000    2.800 
#    0.000    0.000    0.000   10.000    0.000   10.400 
#
# Total GULP energy -744019.133316 kJ/mol
# GULP energy per Si atom -12400.318889 kJ/mol
# Density = 1.751707 g / cm^3
# Si number density = 17.557028 Si / 1000 Ang^3
#
#
#
# Elastic Constant Matrix: (Units=GPa)
#
#
# Indices 1 2 3 4 5 6 
#
# 1 124.4040 78.8795 39.9853 0.0000 0.0000 0.0000
# 2 78.8795 137.3389 44.9759 0.0000 0.0000 0.0000
# 3 39.9853 44.9759 52.7540 0.0000 0.0000 0.0000
# 4 0.0000 0.0000 0.0000 23.8020 0.0000 0.0000
# 5 0.0000 0.0000 0.0000 0.0000 20.8261 0.0000
# 6 0.0000 0.0000 0.0000 0.0000 0.0000 21.6000
#
#
#
# Elastic Compliance Matrix: (Units=1/GPa)
#
#
# Indices 1 2 3 4 5 6 
#
# 1 0.013544 -0.006128 -0.005041 0.000000 0.000000 0.000000
# 2 -0.006128 0.012874 -0.006331 0.000000 0.000000 0.000000
# 3 -0.005041 -0.006331 0.028175 0.000000 0.000000 0.000000
# 4 0.000000 0.000000 0.000000 0.042013 0.000000 0.000000
# 5 0.000000 0.000000 0.000000 0.000000 0.048017 0.000000
# 6 0.000000 0.000000 0.000000 0.000000 0.000000 0.046296
#
#
# Mechanical properties :
#
#
# Convention : Reuss Voigt Hill
#
# Bulk Modulus (GPa) = 51.04157 71.35312 61.19735
# Shear Modulus (GPa) = 21.50986 23.28938 22.39962
#
# Velocity S-wave (km/s) = 3.50400 3.64606 3.57574
# Velocity P-wave (km/s) = 6.74579 7.64552 7.20971
#
# Compressibility (1/GPa) = 0.01959188
#
# Stress axis : x y z
#
# Youngs Moduli (GPa) = 73.83189 77.67462 35.49268
#
# Poissons Ratio (x) = 0.47600 0.17893
# Poissons Ratio (y) = 0.45245 0.22471
# Poissons Ratio (z) = 0.37222 0.49177
#
# Static dielectric constant tensor:
#      x y z
#    x 3.326150 0.000000 0.000000 
#    y 0.000000 3.384900 0.000000 
#    z 0.000000 0.000000 3.227490 
# 
# 
# High freq. dielectric constant tensor:
#      x y z
#    x 1.673160 0.000000 0.000000 
#    y 0.000000 1.678450 0.000000 
#    z 0.000000 0.000000 1.671000 
# 
# From -- ./inp_files/15604.got.cif
#   From: 2010.06.25/outbox.cif.g09.slc.cpg/sg71_8_cif.got.tgz:15604.got - 2010.06.28 04:59:45.
