data_PCOD8290423
_publ_section_title
;
Structure prediction by ZEFSAII (Michael W. Deem and Ramdas Pophale) SiO2 
 PCOD8290423
Probable space group: I M M M
;
_chemical_formula_sum "Si O2"
_cell_formula_units_Z 88
_cell_length_a 31.166218
_cell_length_b 12.212368
_cell_length_c 12.709224
_cell_angle_alpha 90.000000
_cell_angle_beta 90.000000
_cell_angle_gamma 90.000000
_cell_volume 4837.299984
_symmetry_space_group_name_H-M "I M M M"
_symmetry_group_IT_number 71
_symmetry_cell_setting 'orthorhombic'
loop_
_space_group_symop_operation_xyz
x,y,z
-x,-y,z
x,-y,-z
-x,y,-z
-x,-y,-z
x,y,-z
-x,y,z
x,-y,z
1/2+x,1/2+y,1/2+z
1/2-x,1/2-y,1/2+z
1/2+x,1/2-y,1/2-z
1/2-x,1/2+y,1/2-z
1/2-x,1/2-y,1/2-z
1/2+x,1/2+y,1/2-z
1/2-x,1/2+y,1/2+z
1/2+x,1/2-y,1/2+z
loop_
_atom_site_type_symbol
_atom_site_label
_atom_site_fract_x
_atom_site_fract_y
_atom_site_fract_z
Si Si1 0.550186 0.210948 0.754922
Si Si2 0.745802 0.626512 0.621541
Si Si3 0.818978 0.755075 0.734773
Si Si4 0.119827 0.627636 0.119538
Si Si5 0.449274 0.000000 0.115871
Si Si6 0.603591 0.372456 0.876914
O O1 0.500000 0.210720 0.728697
O O2 0.576964 0.197797 0.647098
O O3 0.562626 0.321061 0.816890
O O4 0.565944 0.108807 0.825454
O O5 0.735465 0.650490 0.500000
O O6 0.756500 0.500000 0.641082
O O7 0.786511 0.697622 0.655209
O O8 0.704492 0.658429 0.689891
O O9 0.841004 0.662550 0.806284
O O10 0.852730 0.819788 0.664144
O O11 0.110150 0.500000 0.135198
O O12 0.132405 0.654517 0.000000
O O13 0.500000 0.000000 0.107381
O O14 0.428272 0.000000 0.000000
O O15 0.603968 0.500000 0.851076
O O16 0.598574 0.349233 0.000000
#
# Coordination Sequence:
#
# PCOD8290423 Si02
#       6
#    16  16  16  16   8  16
#     4  10  20  34  52  76 105 136 174 219 264 314
#     4  10  20  34  54  79 106 137 174 216 262 313
#     4  10  20  35  54  77 106 139 175 216 262 313
#     4  10  20  34  53  77 106 139 176 219 267 318
#     4   9  16  28  47  71  99 129 162 204 255 307
#     4  10  21  36  54  77 106 141 179 218 263 316
#
# _framework density 18.191967000000002
#
# number of rings (size 3 to 8) (size 9 to 14) (size 15 to 20)
#    0.000    2.091    0.909    2.727    0.000    1.818 
#    0.000    1.818    0.000   13.636    0.000    5.091 
#    0.000    0.000    0.000    0.000    0.000    0.000 
#
# Total GULP energy -545698.285484 kJ/mol
# GULP energy per Si atom -12402.233761 kJ/mol
# Density = 1.815056 g / cm^3
# Si number density = 18.191967 Si / 1000 Ang^3
#
#
#
# Elastic Constant Matrix: (Units=GPa)
#
#
# Indices 1 2 3 4 5 6 
#
# 1 57.9801 13.2304 -0.4027 0.0000 0.0000 0.0000
# 2 13.2304 87.1831 30.3397 0.0000 0.0000 0.0000
# 3 -0.4027 30.3397 59.7078 0.0000 0.0000 0.0000
# 4 0.0000 0.0000 0.0000 30.7304 0.0000 0.0000
# 5 0.0000 0.0000 0.0000 0.0000 21.4935 0.0000
# 6 0.0000 0.0000 0.0000 0.0000 0.0000 24.2479
#
#
#
# Elastic Compliance Matrix: (Units=1/GPa)
#
#
# Indices 1 2 3 4 5 6 
#
# 1 0.018030 -0.003375 0.001837 0.000000 0.000000 0.000000
# 2 -0.003375 0.014566 -0.007424 0.000000 0.000000 0.000000
# 3 0.001837 -0.007424 0.020533 0.000000 0.000000 0.000000
# 4 0.000000 0.000000 0.000000 0.032541 0.000000 0.000000
# 5 0.000000 0.000000 0.000000 0.000000 0.046526 0.000000
# 6 0.000000 0.000000 0.000000 0.000000 0.000000 0.041241
#
#
# Mechanical properties :
#
#
# Convention : Reuss Voigt Hill
#
# Bulk Modulus (GPa) = 28.40614 32.35621 30.38118
# Shear Modulus (GPa) = 24.61876 26.07460 25.34668
#
# Velocity S-wave (km/s) = 3.68268 3.79001 3.73673
# Velocity P-wave (km/s) = 5.80788 6.08085 5.94593
#
# Compressibility (1/GPa) = 0.03520366
#
# Stress axis : x y z
#
# Youngs Moduli (GPa) = 55.46230 68.65304 48.70163
#
# Poissons Ratio (x) = 0.23173 -0.08945
# Poissons Ratio (y) = 0.18721 0.36158
# Poissons Ratio (z) = -0.10187 0.50970
#
# Static dielectric constant tensor:
#      x y z
#    x 3.252010 0.000000 0.000000 
#    y 0.000000 3.357190 0.000000 
#    z 0.000000 0.000000 3.449830 
# 
# 
# High freq. dielectric constant tensor:
#      x y z
#    x 1.703280 0.000000 0.000000 
#    y 0.000000 1.706790 0.000000 
#    z 0.000000 0.000000 1.711180 
# 
# From -- ./inp_files/20295.got.cif
#   From: 2010.06.25/outbox.cif.g09.slc.cpg/sg71_11_cif.got.tgz:20295.got - 2010.06.28 04:59:45.
