data_PCOD8290765
_publ_section_title
;
Structure prediction by ZEFSAII (Michael W. Deem and Ramdas Pophale) SiO2 
 PCOD8290765
Probable space group: I M M M
;
_chemical_formula_sum "Si O2"
_cell_formula_units_Z 80
_cell_length_a 9.123180
_cell_length_b 27.087890
_cell_length_c 18.657468
_cell_angle_alpha 90.000000
_cell_angle_beta 90.000000
_cell_angle_gamma 90.000000
_cell_volume 4610.777085
_symmetry_space_group_name_H-M "I M M M"
_symmetry_group_IT_number 71
_symmetry_cell_setting 'orthorhombic'
loop_
_space_group_symop_operation_xyz
x,y,z
-x,-y,z
x,-y,-z
-x,y,-z
-x,-y,-z
x,y,-z
-x,y,z
x,-y,z
1/2+x,1/2+y,1/2+z
1/2-x,1/2-y,1/2+z
1/2+x,1/2-y,1/2-z
1/2-x,1/2+y,1/2-z
1/2-x,1/2-y,1/2-z
1/2+x,1/2+y,1/2-z
1/2-x,1/2+y,1/2+z
1/2+x,1/2-y,1/2+z
loop_
_atom_site_type_symbol
_atom_site_label
_atom_site_fract_x
_atom_site_fract_y
_atom_site_fract_z
Si Si1 0.168779 0.444368 0.857392
Si Si2 0.827129 0.201651 0.720648
Si Si3 0.330342 0.111887 0.785524
Si Si4 0.829205 0.146726 0.580308
Si Si5 0.673555 0.945222 0.921455
O O1 0.229912 0.500000 0.868560
O O2 0.188039 0.430286 0.774211
O O3 0.252786 0.405883 0.907603
O O4 0.000000 0.441989 0.880088
O O5 0.750000 0.250000 0.750000
O O6 0.774494 0.157569 0.770780
O O7 0.779615 0.188237 0.638393
O O8 0.000000 0.208903 0.726967
O O9 0.500000 0.129254 0.790242
O O10 0.267826 0.090856 0.860149
O O11 0.791707 0.165859 0.500000
O O12 0.000000 0.136627 0.589910
O O13 0.500000 0.948819 0.914277
O O14 0.740073 0.000000 0.911246
O O15 0.718014 0.924474 0.000000
#
# Coordination Sequence:
#
# PCOD8290765 Si02
#       5
#    16  16  16  16  16
#     4   9  17  28  44  69  99 129 159 189 223 266
#     4  10  20  35  54  72  90 115 150 192 235 278
#     4   9  16  28  47  69  94 124 157 193 231 271
#     4   9  19  35  52  70  93 121 153 189 228 270
#     4   8  13  22  40  68  98 126 158 194 227 261
#
# _framework density 17.350655
#
# number of rings (size 3 to 8) (size 9 to 14) (size 15 to 20)
#    0.000    3.000    0.000    1.800    0.000    4.400 
#    0.000    3.000    0.000    8.400    0.000    1.400 
#    0.000    0.000    0.000    0.000    0.000    0.000 
#
# Total GULP energy -495777.414866 kJ/mol
# GULP energy per Si atom -12394.435372 kJ/mol
# Density = 1.731116 g / cm^3
# Si number density = 17.350655 Si / 1000 Ang^3
#
#
#
# Elastic Constant Matrix: (Units=GPa)
#
#
# Indices 1 2 3 4 5 6 
#
# 1 43.3777 42.3282 36.7165 0.0000 0.0000 0.0000
# 2 42.3282 121.6897 71.1846 0.0000 0.0000 0.0000
# 3 36.7165 71.1846 146.5144 -0.0003 0.0000 0.0000
# 4 0.0000 0.0000 -0.0003 18.8967 0.0000 0.0000
# 5 0.0000 0.0000 0.0000 0.0000 19.8525 0.0000
# 6 0.0000 0.0000 0.0000 0.0000 0.0000 26.9712
#
#
#
# Elastic Compliance Matrix: (Units=1/GPa)
#
#
# Indices 1 2 3 4 5 6 
#
# 1 0.036642 -0.010302 -0.004177 0.000000 0.000000 0.000000
# 2 -0.010302 0.014377 -0.004403 0.000000 0.000000 0.000000
# 3 -0.004177 -0.004403 0.010011 0.000000 0.000000 0.000000
# 4 0.000000 0.000000 0.000000 0.052919 0.000000 0.000000
# 5 0.000000 0.000000 0.000000 0.000000 0.050371 0.000000
# 6 0.000000 0.000000 0.000000 0.000000 0.000000 0.037077
#
#
# Mechanical properties :
#
#
# Convention : Reuss Voigt Hill
#
# Bulk Modulus (GPa) = 42.98283 68.00448 55.49365
# Shear Modulus (GPa) = 20.24971 23.90091 22.07531
#
# Velocity S-wave (km/s) = 3.41997 3.71553 3.57081
# Velocity P-wave (km/s) = 6.35781 7.59514 7.00385
#
# Compressibility (1/GPa) = 0.02326510
#
# Stress axis : x y z
#
# Youngs Moduli (GPa) = 27.29139 69.55656 99.88521
#
# Poissons Ratio (x) = 0.71655 0.41725
# Poissons Ratio (y) = 0.28115 0.43983
# Poissons Ratio (z) = 0.11400 0.30629
#
# Static dielectric constant tensor:
#      x y z
#    x 3.019700 0.000000 0.000000 
#    y 0.000000 3.262130 0.000000 
#    z 0.000000 0.000000 3.510160 
# 
# 
# High freq. dielectric constant tensor:
#      x y z
#    x 1.645580 0.000000 0.000000 
#    y 0.000000 1.656420 0.000000 
#    z 0.000000 0.000000 1.677700 
# 
# From -- ./inp_files/8263.got.cif
#   From: 2010.06.25/outbox.cif.g09.slc.cpg/sg71_5_cif.got.tgz:8263.got - 2010.06.28 04:59:45.
