data_PCOD8290582
_publ_section_title
;
Structure prediction by ZEFSAII (Michael W. Deem and Ramdas Pophale) SiO2 
 PCOD8290582
Probable space group: I M M M
;
_chemical_formula_sum "Si O2"
_cell_formula_units_Z 112
_cell_length_a 24.192765
_cell_length_b 17.233664
_cell_length_c 13.605884
_cell_angle_alpha 90.000000
_cell_angle_beta 90.000000
_cell_angle_gamma 90.000000
_cell_volume 5672.700988
_symmetry_space_group_name_H-M "I M M M"
_symmetry_group_IT_number 71
_symmetry_cell_setting 'orthorhombic'
loop_
_space_group_symop_operation_xyz
x,y,z
-x,-y,z
x,-y,-z
-x,y,-z
-x,-y,-z
x,y,-z
-x,y,z
x,-y,z
1/2+x,1/2+y,1/2+z
1/2-x,1/2-y,1/2+z
1/2+x,1/2-y,1/2-z
1/2-x,1/2+y,1/2-z
1/2-x,1/2-y,1/2-z
1/2+x,1/2+y,1/2-z
1/2-x,1/2+y,1/2+z
1/2+x,1/2-y,1/2+z
loop_
_atom_site_type_symbol
_atom_site_label
_atom_site_fract_x
_atom_site_fract_y
_atom_site_fract_z
Si Si1 0.935188 0.278074 0.389755
Si Si2 0.143910 0.412566 0.614529
Si Si3 0.257658 0.839582 0.772367
Si Si4 0.156204 0.091352 0.113011
Si Si5 0.174165 0.590413 0.891234
Si Si6 0.560313 0.152830 0.614216
Si Si7 0.062437 0.184284 0.204745
O O1 0.917827 0.251826 0.500000
O O2 0.911186 0.363023 0.363241
O O3 0.915212 0.212941 0.311958
O O4 0.000000 0.289045 0.379118
O O5 0.152822 0.423745 0.500000
O O6 0.141769 0.500000 0.662528
O O7 0.194327 0.360234 0.651519
O O8 0.250000 0.750000 0.750000
O O9 0.201343 0.870501 0.817327
O O10 0.273587 0.878794 0.669112
O O11 0.097656 0.114330 0.160221
O O12 0.162986 0.000000 0.117274
O O13 0.161146 0.120376 0.000000
O O14 0.179974 0.500000 0.899237
O O15 0.114720 0.611121 0.839316
O O16 0.176715 0.628399 0.000000
O O17 0.559845 0.132527 0.500000
O O18 0.500000 0.125968 0.658738
O O19 0.566583 0.244372 0.629492
O O20 0.000000 0.153198 0.214162
#
# Coordination Sequence:
#
# PCOD8290582 Si02
#       7
#    16  16  16  16  16  16  16
#     4   9  18  33  54  82 116 153 191 226 262 313
#     4  10  20  34  54  80 110 144 183 230 282 330
#     4  12  24  38  57  78 106 145 185 228 275 331
#     4  11  24  41  62  87 113 141 177 227 287 344
#     4  10  21  36  54  78 110 147 186 228 273 323
#     4   9  17  30  51  80 113 149 188 229 275 328
#     4  10  20  36  58  83 112 145 182 226 276 329
#
# _framework density 19.743682
#
# number of rings (size 3 to 8) (size 9 to 14) (size 15 to 20)
#    0.000    1.857    0.000    4.714    0.000    5.143 
#    0.000    4.286    0.000    5.571    0.000    2.000 
#    0.000    0.000    0.000    0.000    0.000    0.000 
#
# Total GULP energy -694053.938998 kJ/mol
# GULP energy per Si atom -12393.820339 kJ/mol
# Density = 1.969874 g / cm^3
# Si number density = 19.743682 Si / 1000 Ang^3
#
#
#
# Elastic Constant Matrix: (Units=GPa)
#
#
# Indices 1 2 3 4 5 6 
#
# 1 97.6563 44.5513 49.0554 0.0000 0.0000 0.0000
# 2 44.5513 81.5872 34.2547 0.0000 0.0000 0.0000
# 3 49.0554 34.2547 94.8481 0.0000 0.0000 0.0000
# 4 0.0000 0.0000 0.0000 30.8222 0.0000 0.0000
# 5 0.0000 0.0000 0.0000 0.0000 31.3088 0.0000
# 6 0.0000 0.0000 0.0000 0.0000 0.0000 29.3974
#
#
#
# Elastic Compliance Matrix: (Units=1/GPa)
#
#
# Indices 1 2 3 4 5 6 
#
# 1 0.016160 -0.006265 -0.006095 0.000000 0.000000 0.000000
# 2 -0.006265 0.016877 -0.002855 0.000000 0.000000 0.000000
# 3 -0.006095 -0.002855 0.014727 0.000000 0.000000 0.000000
# 4 0.000000 0.000000 0.000000 0.032444 0.000000 0.000000
# 5 0.000000 0.000000 0.000000 0.000000 0.031940 0.000000
# 6 0.000000 0.000000 0.000000 0.000000 0.000000 0.034017
#
#
# Mechanical properties :
#
#
# Convention : Reuss Voigt Hill
#
# Bulk Modulus (GPa) = 57.69366 58.86829 58.28098
# Shear Modulus (GPa) = 27.41653 28.05434 27.73544
#
# Velocity S-wave (km/s) = 3.73047 3.77361 3.75210
# Velocity P-wave (km/s) = 6.91664 6.99055 6.95370
#
# Compressibility (1/GPa) = 0.01733293
#
# Stress axis : x y z
#
# Youngs Moduli (GPa) = 61.88113 59.25396 67.90424
#
# Poissons Ratio (x) = 0.37124 0.41389
# Poissons Ratio (y) = 0.38770 0.19384
# Poissons Ratio (z) = 0.37718 0.16915
#
# Static dielectric constant tensor:
#      x y z
#    x 3.879400 0.000000 0.000000 
#    y 0.000000 3.397010 0.000000 
#    z 0.000000 0.000000 4.162270 
# 
# 
# High freq. dielectric constant tensor:
#      x y z
#    x 1.773120 0.000000 0.000000 
#    y 0.000000 1.748610 0.000000 
#    z 0.000000 0.000000 1.786020 
# 
# From -- ./inp_files/39287.got.cif
#   From: 2010.06.25/outbox.cif.g09.slc.cpg/sg71_20_cif.got.tgz:39287.got - 2010.06.28 04:59:45.
