data_PCOD8290234
_publ_section_title
;
Structure prediction by ZEFSAII (Michael W. Deem and Ramdas Pophale) SiO2 
 PCOD8290234
Probable space group: I M M M
;
_chemical_formula_sum "Si O2"
_cell_formula_units_Z 96
_cell_length_a 9.430402
_cell_length_b 20.236659
_cell_length_c 27.689605
_cell_angle_alpha 90.000000
_cell_angle_beta 90.000000
_cell_angle_gamma 90.000000
_cell_volume 5284.279497
_symmetry_space_group_name_H-M "I M M M"
_symmetry_group_IT_number 71
_symmetry_cell_setting 'orthorhombic'
loop_
_space_group_symop_operation_xyz
x,y,z
-x,-y,z
x,-y,-z
-x,y,-z
-x,-y,-z
x,y,-z
-x,y,z
x,-y,z
1/2+x,1/2+y,1/2+z
1/2-x,1/2-y,1/2+z
1/2+x,1/2-y,1/2-z
1/2-x,1/2+y,1/2-z
1/2-x,1/2-y,1/2-z
1/2+x,1/2+y,1/2-z
1/2-x,1/2+y,1/2+z
1/2+x,1/2-y,1/2+z
loop_
_atom_site_type_symbol
_atom_site_label
_atom_site_fract_x
_atom_site_fract_y
_atom_site_fract_z
Si Si1 0.836989 0.812567 0.444317
Si Si2 0.335152 0.923683 0.604246
Si Si3 0.168128 0.572237 0.212467
Si Si4 0.835626 0.923796 0.944674
Si Si5 0.833301 0.683976 0.612361
Si Si6 0.832937 0.307598 0.723993
O O1 0.815983 0.794394 0.500000
O O2 0.750349 0.878320 0.432563
O O3 0.779522 0.750413 0.413781
O O4 0.000000 0.826669 0.431579
O O5 0.500000 0.906777 0.598635
O O6 0.281188 0.908180 0.658614
O O7 0.306177 0.000000 0.591175
O O8 0.229623 0.500000 0.226565
O O9 0.221319 0.624584 0.251674
O O10 0.000000 0.568242 0.211618
O O11 0.742710 0.879599 0.909366
O O12 0.000000 0.907741 0.935983
O O13 0.803366 0.000000 0.932550
O O14 0.794236 0.908500 0.000000
O O15 0.791532 0.689985 0.668178
O O16 0.000000 0.673869 0.604882
O O17 0.750000 0.250000 0.750000
O O18 0.000000 0.296742 0.731586
#
# Coordination Sequence:
#
# PCOD8290234 Si02
#       6
#    16  16  16  16  16  16
#     4  10  21  35  49  68  99 135 166 201 248 299
#     4   9  18  33  53  75  97 124 162 206 248 293
#     4   8  15  30  51  73  98 128 160 195 239 290
#     4   9  19  36  56  78 105 137 173 213 259 312
#     4  10  21  35  52  77 106 136 173 214 255 303
#     4  10  20  33  52  77 103 133 169 209 251 298
#
# _framework density 18.167093999999999
#
# number of rings (size 3 to 8) (size 9 to 14) (size 15 to 20)
#    0.000    2.667    0.000    3.000    0.000    4.333 
#    0.000    4.167    0.000    1.500    0.000    0.000 
#    0.000    0.000    0.000    0.000    0.000    0.000 
#
# Total GULP energy -595222.145808 kJ/mol
# GULP energy per Si atom -12400.461371 kJ/mol
# Density = 1.812574 g / cm^3
# Si number density = 18.167094 Si / 1000 Ang^3
#
#
#
# Elastic Constant Matrix: (Units=GPa)
#
#
# Indices 1 2 3 4 5 6 
#
# 1 47.3553 49.3674 42.7138 0.0000 0.0000 0.0000
# 2 49.3674 124.1134 70.8953 0.0000 0.0000 0.0000
# 3 42.7138 70.8953 107.0950 0.0000 0.0000 0.0000
# 4 0.0000 0.0000 0.0000 40.5032 0.0000 0.0000
# 5 0.0000 0.0000 0.0000 0.0000 25.0135 0.0000
# 6 0.0000 0.0000 0.0000 0.0000 0.0000 34.7302
#
#
#
# Elastic Compliance Matrix: (Units=1/GPa)
#
#
# Indices 1 2 3 4 5 6 
#
# 1 0.040724 -0.011129 -0.008875 0.000000 0.000000 0.000000
# 2 -0.011129 0.015998 -0.006152 0.000000 0.000000 0.000000
# 3 -0.008875 -0.006152 0.016950 0.000000 0.000000 0.000000
# 4 0.000000 0.000000 0.000000 0.024689 0.000000 0.000000
# 5 0.000000 0.000000 0.000000 0.000000 0.039978 0.000000
# 6 0.000000 0.000000 0.000000 0.000000 0.000000 0.028793
#
#
# Mechanical properties :
#
#
# Convention : Reuss Voigt Hill
#
# Bulk Modulus (GPa) = 46.81671 67.16854 56.99262
# Shear Modulus (GPa) = 22.06889 27.75518 24.91204
#
# Velocity S-wave (km/s) = 3.48914 3.91291 3.70709
# Velocity P-wave (km/s) = 6.48522 7.58073 7.05427
#
# Compressibility (1/GPa) = 0.02135989
#
# Stress axis : x y z
#
# Youngs Moduli (GPa) = 24.55566 62.50956 58.99843
#
# Poissons Ratio (x) = 0.69565 0.52363
# Poissons Ratio (y) = 0.27327 0.36293
# Poissons Ratio (z) = 0.21794 0.38453
#
# Static dielectric constant tensor:
#      x y z
#    x 3.081750 0.000000 0.000000 
#    y 0.000000 3.051270 0.000000 
#    z 0.000000 0.000000 3.087200 
# 
# 
# High freq. dielectric constant tensor:
#      x y z
#    x 1.679380 0.000000 0.000000 
#    y 0.000000 1.714500 0.000000 
#    z 0.000000 0.000000 1.709170 
# 
# From -- ./inp_files/10852.got.cif
#   From: 2010.06.25/outbox.cif.g09.slc.cpg/sg71_6_cif.got.tgz:10852.got - 2010.06.28 04:59:45.
