data_PCOD8290527
_publ_section_title
;
Structure prediction by ZEFSAII (Michael W. Deem and Ramdas Pophale) SiO2 
 PCOD8290527
Probable space group: I M M M
;
_chemical_formula_sum "Si O2"
_cell_formula_units_Z 72
_cell_length_a 9.009232
_cell_length_b 13.324631
_cell_length_c 28.958556
_cell_angle_alpha 90.000000
_cell_angle_beta 90.000000
_cell_angle_gamma 90.000000
_cell_volume 3476.320936
_symmetry_space_group_name_H-M "I M M M"
_symmetry_group_IT_number 71
_symmetry_cell_setting 'orthorhombic'
loop_
_space_group_symop_operation_xyz
x,y,z
-x,-y,z
x,-y,-z
-x,y,-z
-x,-y,-z
x,y,-z
-x,y,z
x,-y,z
1/2+x,1/2+y,1/2+z
1/2-x,1/2-y,1/2+z
1/2+x,1/2-y,1/2-z
1/2-x,1/2+y,1/2-z
1/2-x,1/2-y,1/2-z
1/2+x,1/2+y,1/2-z
1/2-x,1/2+y,1/2+z
1/2+x,1/2-y,1/2+z
loop_
_atom_site_type_symbol
_atom_site_label
_atom_site_fract_x
_atom_site_fract_y
_atom_site_fract_z
Si Si1 0.334850 0.117839 0.323258
Si Si2 0.675753 0.115019 0.500000
Si Si3 0.328982 0.697350 0.089419
Si Si4 0.830402 0.612323 0.643329
Si Si5 0.168010 0.880040 0.234137
O O1 0.500000 0.163050 0.330874
O O2 0.230478 0.136460 0.366906
O O3 0.263980 0.165599 0.276595
O O4 0.346053 0.000000 0.316109
O O5 0.500000 0.121232 0.500000
O O6 0.735464 0.171124 0.544691
O O7 0.730262 0.000000 0.500000
O O8 0.500000 0.667897 0.081336
O O9 0.310362 0.816361 0.098937
O O10 0.780473 0.500000 0.629080
O O11 0.731698 0.657219 0.684933
O O12 0.000000 0.612592 0.660634
O O13 0.000000 0.842299 0.239556
O O14 0.177279 0.000000 0.234986
#
# Coordination Sequence:
#
# PCOD8290527 Si02
#       5
#    16   8  16  16  16
#     4  10  20  34  53  79 114 154 191 230 280 336
#     4  11  25  45  66  87 114 146 177 217 276 339
#     4  11  23  38  60  87 111 142 186 233 280 329
#     4   9  19  37  58  81 113 151 188 227 274 328
#     4   9  17  30  51  80 113 150 192 235 276 321
#
# _framework density 20.711552999999999
#
# number of rings (size 3 to 8) (size 9 to 14) (size 15 to 20)
#    0.000    2.111    0.000    3.000    0.000   10.222 
#    0.000    0.556    0.000    3.333    0.000    0.000 
#    0.000    0.000    0.000    0.000    0.000    0.000 
#
# Total GULP energy -446521.245594 kJ/mol
# GULP energy per Si atom -12403.367933 kJ/mol
# Density = 2.066441 g / cm^3
# Si number density = 20.711553 Si / 1000 Ang^3
#
#
#
# Elastic Constant Matrix: (Units=GPa)
#
#
# Indices 1 2 3 4 5 6 
#
# 1 113.1903 36.9121 52.2786 0.0000 0.0000 0.0000
# 2 36.9121 60.9853 45.6596 0.0000 0.0000 0.0000
# 3 52.2786 45.6596 142.4901 0.0000 0.0000 0.0000
# 4 0.0000 0.0000 0.0000 29.9909 0.0000 0.0000
# 5 0.0000 0.0000 0.0000 0.0000 41.5610 0.0000
# 6 0.0000 0.0000 0.0000 0.0000 0.0000 23.8840
#
#
#
# Elastic Compliance Matrix: (Units=1/GPa)
#
#
# Indices 1 2 3 4 5 6 
#
# 1 0.011731 -0.005102 -0.002669 0.000000 0.000000 0.000000
# 2 -0.005102 0.023792 -0.005752 0.000000 0.000000 0.000000
# 3 -0.002669 -0.005752 0.009841 0.000000 0.000000 0.000000
# 4 0.000000 0.000000 0.000000 0.033343 0.000000 0.000000
# 5 0.000000 0.000000 0.000000 0.000000 0.024061 0.000000
# 6 0.000000 0.000000 0.000000 0.000000 0.000000 0.041869
#
#
# Mechanical properties :
#
#
# Convention : Reuss Voigt Hill
#
# Bulk Modulus (GPa) = 54.59340 65.15181 59.87261
# Shear Modulus (GPa) = 28.12311 31.20821 29.66566
#
# Velocity S-wave (km/s) = 3.68889 3.88597 3.78871
# Velocity P-wave (km/s) = 6.67533 7.18744 6.93612
#
# Compressibility (1/GPa) = 0.01831723
#
# Stress axis : x y z
#
# Youngs Moduli (GPa) = 85.24188 42.03093 101.62067
#
# Poissons Ratio (x) = 0.21445 0.27125
# Poissons Ratio (y) = 0.43491 0.58452
# Poissons Ratio (z) = 0.22753 0.24176
#
# Static dielectric constant tensor:
#      x y z
#    x 3.946820 0.000000 0.000000 
#    y 0.000000 3.861560 0.000000 
#    z 0.000000 0.000000 3.617960 
# 
# 
# High freq. dielectric constant tensor:
#      x y z
#    x 1.821390 0.000000 0.000000 
#    y 0.000000 1.825130 0.000000 
#    z 0.000000 0.000000 1.789980 
# 
# From -- ./inp_files/6002.got.cif
#   From: 2010.06.25/outbox.cif.g09.slc.cpg/sg71_4_cif.got.tgz:6002.got - 2010.06.28 04:59:45.
