data_PCOD8290974
_publ_section_title
;
Structure prediction by ZEFSAII (Michael W. Deem and Ramdas Pophale) SiO2 
 PCOD8290974
Probable space group: I M M M
;
_chemical_formula_sum "Si O2"
_cell_formula_units_Z 80
_cell_length_a 15.051771
_cell_length_b 23.641491
_cell_length_c 11.909617
_cell_angle_alpha 90.000000
_cell_angle_beta 90.000000
_cell_angle_gamma 90.000000
_cell_volume 4237.993247
_symmetry_space_group_name_H-M "I M M M"
_symmetry_group_IT_number 71
_symmetry_cell_setting 'orthorhombic'
loop_
_space_group_symop_operation_xyz
x,y,z
-x,-y,z
x,-y,-z
-x,y,-z
-x,-y,-z
x,y,-z
-x,y,z
x,-y,z
1/2+x,1/2+y,1/2+z
1/2-x,1/2-y,1/2+z
1/2+x,1/2-y,1/2-z
1/2-x,1/2+y,1/2-z
1/2-x,1/2-y,1/2-z
1/2+x,1/2+y,1/2-z
1/2-x,1/2+y,1/2+z
1/2+x,1/2-y,1/2+z
loop_
_atom_site_type_symbol
_atom_site_label
_atom_site_fract_x
_atom_site_fract_y
_atom_site_fract_z
Si Si1 0.500000 0.063556 0.132922
Si Si2 0.102288 0.933279 0.500000
Si Si3 0.329214 0.132803 0.873140
Si Si4 0.000000 0.881044 0.124104
Si Si5 0.000000 0.252519 0.877966
Si Si6 0.156584 0.125401 0.280733
Si Si7 0.650261 0.247982 0.212911
O O1 0.588797 0.095698 0.172842
O O2 0.500000 0.000000 0.182734
O O3 0.500000 0.062319 0.000000
O O4 0.156862 0.912845 0.608849
O O5 0.000000 0.910743 0.500000
O O6 0.102746 0.000000 0.500000
O O7 0.250895 0.124783 0.782756
O O8 0.358764 0.199143 0.881110
O O9 0.300386 0.114953 0.000000
O O10 0.000000 0.814353 0.108977
O O11 0.086644 0.900528 0.192467
O O12 0.000000 0.909445 0.000000
O O13 0.088535 0.272456 0.815195
O O14 0.000000 0.281599 0.000000
O O15 0.125325 0.188132 0.323699
O O16 0.750000 0.250000 0.250000
#
# Coordination Sequence:
#
# PCOD8290974 Si02
#       7
#     8   8  16   8   8  16  16
#     4   9  19  36  56  79 108 144 185 235 287 331
#     4  11  24  42  60  79 113 159 201 238 276 342
#     4  10  20  35  57  87 117 149 189 242 291 343
#     4   9  16  30  54  81 110 144 185 236 289 353
#     4   9  17  31  49  73 112 158 194 226 283 346
#     4  10  20  36  56  84 114 155 194 231 290 349
#     4   9  19  32  51  85 118 147 189 234 291 349
#
# _framework density 18.876857999999999
#
# number of rings (size 3 to 8) (size 9 to 14) (size 15 to 20)
#    0.000    2.400    1.000    1.200    1.400    5.600 
#    5.400    0.000    0.000    2.400    0.000    1.400 
#    0.000    0.000    0.000    0.000    0.000    0.000 
#
# Total GULP energy -495665.061194 kJ/mol
# GULP energy per Si atom -12391.626530 kJ/mol
# Density = 1.883389 g / cm^3
# Si number density = 18.876858 Si / 1000 Ang^3
#
#
#
# Elastic Constant Matrix: (Units=GPa)
#
#
# Indices 1 2 3 4 5 6 
#
# 1 136.0731 39.6114 59.3049 0.0000 0.0000 0.0000
# 2 39.6114 88.4075 33.6071 0.0000 0.0000 0.0000
# 3 59.3049 33.6071 121.2738 0.0001 0.0030 0.0000
# 4 0.0000 0.0000 0.0001 18.4097 0.0000 0.0000
# 5 0.0000 0.0000 0.0030 0.0000 123.1582 0.0000
# 6 0.0000 0.0000 0.0000 0.0000 0.0000 23.6537
#
#
#
# Elastic Compliance Matrix: (Units=1/GPa)
#
#
# Indices 1 2 3 4 5 6 
#
# 1 0.009972 -0.002922 -0.004067 0.000000 0.000000 0.000000
# 2 -0.002922 0.013499 -0.002312 0.000000 0.000000 0.000000
# 3 -0.004067 -0.002312 0.010875 0.000000 0.000000 0.000000
# 4 0.000000 0.000000 0.000000 0.054319 0.000000 0.000000
# 5 0.000000 0.000000 0.000000 0.000000 0.008120 0.000000
# 6 0.000000 0.000000 0.000000 0.000000 0.000000 0.042277
#
#
# Mechanical properties :
#
#
# Convention : Reuss Voigt Hill
#
# Bulk Modulus (GPa) = 63.51209 67.86679 65.68944
# Shear Modulus (GPa) = 30.69144 47.25973 38.97558
#
# Velocity S-wave (km/s) = 4.03659 5.00901 4.54886
# Velocity P-wave (km/s) = 7.44607 8.33570 7.90341
#
# Compressibility (1/GPa) = 0.01574503
#
# Stress axis : x y z
#
# Youngs Moduli (GPa) = 100.28050 74.07746 91.95251
#
# Poissons Ratio (x) = 0.21646 0.37395
# Poissons Ratio (y) = 0.29303 0.21259
# Poissons Ratio (z) = 0.40781 0.17126
#
# Static dielectric constant tensor:
#      x y z
#    x 3.517020 0.000000 0.000000 
#    y 0.000000 3.681980 0.000000 
#    z 0.000000 0.000000 3.421670 
# 
# 
# High freq. dielectric constant tensor:
#      x y z
#    x 1.741120 0.000000 0.000000 
#    y 0.000000 1.710930 0.000000 
#    z 0.000000 0.000000 1.716940 
# 
# From -- ./inp_files/21966.got.cif
#   From: 2010.06.25/outbox.cif.g09.slc.cpg/sg71_11_cif.got.tgz:21966.got - 2010.06.28 04:59:45.
