data_PCOD8290800
_publ_section_title
;
Structure prediction by ZEFSAII (Michael W. Deem and Ramdas Pophale) SiO2 
 PCOD8290800
Probable space group: I M M M
;
_chemical_formula_sum "Si O2"
_cell_formula_units_Z 80
_cell_length_a 9.069746
_cell_length_b 21.797917
_cell_length_c 22.119420
_cell_angle_alpha 90.000000
_cell_angle_beta 90.000000
_cell_angle_gamma 90.000000
_cell_volume 4373.044073
_symmetry_space_group_name_H-M "I M M M"
_symmetry_group_IT_number 71
_symmetry_cell_setting 'orthorhombic'
loop_
_space_group_symop_operation_xyz
x,y,z
-x,-y,z
x,-y,-z
-x,y,-z
-x,-y,-z
x,y,-z
-x,y,z
x,-y,z
1/2+x,1/2+y,1/2+z
1/2-x,1/2-y,1/2+z
1/2+x,1/2-y,1/2-z
1/2-x,1/2+y,1/2-z
1/2-x,1/2-y,1/2-z
1/2+x,1/2+y,1/2-z
1/2-x,1/2+y,1/2+z
1/2+x,1/2-y,1/2+z
loop_
_atom_site_type_symbol
_atom_site_label
_atom_site_fract_x
_atom_site_fract_y
_atom_site_fract_z
Si Si1 0.672921 0.122794 0.570503
Si Si2 0.328379 0.069896 0.117773
Si Si3 0.829534 0.332678 0.715798
Si Si4 0.834337 0.073002 0.000000
Si Si5 0.333320 0.500000 0.071736
Si Si6 0.171601 0.200559 0.333477
O O1 0.706438 0.133912 0.500000
O O2 0.500000 0.117687 0.583044
O O3 0.748214 0.060338 0.594724
O O4 0.740997 0.179751 0.606908
O O5 0.500000 0.075195 0.103026
O O6 0.285119 0.108590 0.176452
O O7 0.280893 0.000000 0.130750
O O8 0.244959 0.097985 0.059946
O O9 0.796880 0.272447 0.675924
O O10 0.729529 0.336156 0.775140
O O11 0.000000 0.334018 0.735864
O O12 0.000000 0.097873 0.000000
O O13 0.825625 0.000000 0.000000
O O14 0.500000 0.500000 0.097402
O O15 0.333955 0.500000 0.000000
O O16 0.000000 0.186310 0.342422
#
# Coordination Sequence:
#
# PCOD8290800 Si02
#       6
#    16  16  16   8   8  16
#     4  10  20  35  55  79 108 141 177 217 261 313
#     4   9  17  32  54  77 102 134 173 215 259 312
#     4   9  19  36  55  75 102 138 179 219 264 319
#     4   9  17  29  47  73 105 137 165 202 255 308
#     4   9  17  31  53  79 107 137 169 210 261 312
#     4  10  20  35  55  76 102 140 178 218 266 314
#
# _framework density 18.293893000000001
#
# number of rings (size 3 to 8) (size 9 to 14) (size 15 to 20)
#    0.000    2.600    0.000    1.800    0.000    5.200 
#    3.600    0.000    0.000    0.000    0.000    0.000 
#    0.000    0.000    0.000    0.000    0.000    0.000 
#
# Total GULP energy -496085.749661 kJ/mol
# GULP energy per Si atom -12402.143742 kJ/mol
# Density = 1.825226 g / cm^3
# Si number density = 18.293893 Si / 1000 Ang^3
#
#
#
# Elastic Constant Matrix: (Units=GPa)
#
#
# Indices 1 2 3 4 5 6 
#
# 1 103.8518 41.4386 57.7514 0.0000 0.0000 0.0000
# 2 41.4386 73.3199 51.8600 0.0000 0.0000 0.0000
# 3 57.7514 51.8600 91.9898 0.0000 0.0000 0.0000
# 4 0.0000 0.0000 0.0000 25.6628 0.0000 0.0000
# 5 0.0000 0.0000 0.0000 0.0000 34.9107 0.0000
# 6 0.0000 0.0000 0.0000 0.0000 0.0000 27.0090
#
#
#
# Elastic Compliance Matrix: (Units=1/GPa)
#
#
# Indices 1 2 3 4 5 6 
#
# 1 0.015196 -0.003061 -0.007814 0.000000 0.000000 0.000000
# 2 -0.003061 0.023301 -0.011214 0.000000 0.000000 0.000000
# 3 -0.007814 -0.011214 0.022099 0.000000 0.000000 0.000000
# 4 0.000000 0.000000 0.000000 0.038967 0.000000 0.000000
# 5 0.000000 0.000000 0.000000 0.000000 0.028644 0.000000
# 6 0.000000 0.000000 0.000000 0.000000 0.000000 0.037025
#
#
# Mechanical properties :
#
#
# Convention : Reuss Voigt Hill
#
# Bulk Modulus (GPa) = 60.91573 63.47350 62.19461
# Shear Modulus (GPa) = 23.26841 25.39060 24.32950
#
# Velocity S-wave (km/s) = 3.57027 3.72953 3.65077
# Velocity P-wave (km/s) = 7.09693 7.30190 7.20015
#
# Compressibility (1/GPa) = 0.01641612
#
# Stress axis : x y z
#
# Youngs Moduli (GPa) = 65.80629 42.91666 45.25151
#
# Poissons Ratio (x) = 0.13138 0.35361
# Poissons Ratio (y) = 0.20145 0.50746
# Poissons Ratio (z) = 0.51423 0.48128
#
# Static dielectric constant tensor:
#      x y z
#    x 3.457280 0.000000 0.000000 
#    y 0.000000 3.316010 0.000000 
#    z 0.000000 0.000000 3.253960 
# 
# 
# High freq. dielectric constant tensor:
#      x y z
#    x 1.717180 0.000000 0.000000 
#    y 0.000000 1.696440 0.000000 
#    z 0.000000 0.000000 1.700030 
# 
# From -- ./inp_files/57443.got.cif
#   From: 2010.06.25/outbox.cif.g09.slc.cpg/sg71_29_cif.got.tgz:57443.got - 2010.06.28 04:59:45.
