data_PCOD8290218
_publ_section_title
;
Structure prediction by ZEFSAII (Michael W. Deem and Ramdas Pophale) SiO2 
 PCOD8290218
Probable space group: I M M M
;
_chemical_formula_sum "Si O2"
_cell_formula_units_Z 104
_cell_length_a 8.739303
_cell_length_b 23.313353
_cell_length_c 27.371657
_cell_angle_alpha 90.000000
_cell_angle_beta 90.000000
_cell_angle_gamma 90.000000
_cell_volume 5576.768617
_symmetry_space_group_name_H-M "I M M M"
_symmetry_group_IT_number 71
_symmetry_cell_setting 'orthorhombic'
loop_
_space_group_symop_operation_xyz
x,y,z
-x,-y,z
x,-y,-z
-x,y,-z
-x,-y,-z
x,y,-z
-x,y,z
x,-y,z
1/2+x,1/2+y,1/2+z
1/2-x,1/2-y,1/2+z
1/2+x,1/2-y,1/2-z
1/2-x,1/2+y,1/2-z
1/2-x,1/2-y,1/2-z
1/2+x,1/2+y,1/2-z
1/2-x,1/2+y,1/2+z
1/2+x,1/2-y,1/2+z
loop_
_atom_site_type_symbol
_atom_site_label
_atom_site_fract_x
_atom_site_fract_y
_atom_site_fract_z
Si Si1 0.181875 0.115374 0.143841
Si Si2 0.325033 0.286429 0.878997
Si Si3 0.681187 0.000000 0.705131
Si Si4 0.681788 0.000000 0.816345
Si Si5 0.675342 0.721595 0.296258
Si Si6 0.319508 0.093389 0.371902
Si Si7 0.677207 0.182534 0.055547
Si Si8 0.320730 0.000000 0.552531
O O1 0.237927 0.158992 0.186942
O O2 0.231764 0.139235 0.090895
O O3 0.000000 0.108880 0.143818
O O4 0.259241 0.054844 0.154277
O O5 0.500000 0.279343 0.860645
O O6 0.202926 0.264433 0.840258
O O7 0.285433 0.352557 0.883686
O O8 0.300806 0.249161 0.928317
O O9 0.732945 0.058258 0.676891
O O10 0.500000 0.000000 0.704713
O O11 0.745918 0.000000 0.760487
O O12 0.500000 0.000000 0.816015
O O13 0.500000 0.715836 0.283760
O O14 0.750000 0.750000 0.250000
O O15 0.500000 0.108469 0.369213
O O16 0.274213 0.056061 0.418280
O O17 0.500000 0.165154 0.058496
O O18 0.738577 0.176342 0.000000
O O19 0.500000 0.000000 0.545437
O O20 0.237236 0.000000 0.500000
#
# Coordination Sequence:
#
# PCOD8290218 Si02
#       8
#    16  16   8   8  16  16  16   8
#     4  10  22  39  57  84 116 143 179 231 280 322
#     4  10  20  33  51  79 111 141 178 221 269 323
#     4   8  18  34  51  73 100 143 190 230 273 319
#     4  11  22  37  59  82 108 148 191 226 273 335
#     4  10  21  36  55  79 110 146 181 219 268 320
#     4   9  17  32  51  73 104 140 186 233 271 321
#     4   9  19  38  61  82 109 146 183 221 271 333
#     4   8  15  29  49  71  99 138 182 230 280 325
#
# _framework density 18.648793999999999
#
# number of rings (size 3 to 8) (size 9 to 14) (size 15 to 20)
#    0.000    2.538    0.000    2.538    2.154    3.385 
#    0.000    2.692    0.000    2.769    0.000    0.000 
#    0.000    0.000    0.000    0.000    0.000    0.000 
#
# Total GULP energy -644392.133498 kJ/mol
# GULP energy per Si atom -12392.156413 kJ/mol
# Density = 1.860635 g / cm^3
# Si number density = 18.648794 Si / 1000 Ang^3
#
#
#
# Elastic Constant Matrix: (Units=GPa)
#
#
# Indices 1 2 3 4 5 6 
#
# 1 45.9104 36.4727 34.6411 0.0000 0.0000 0.0000
# 2 36.4727 149.3801 69.6399 0.0000 0.0000 0.0000
# 3 34.6411 69.6399 135.6467 0.0000 0.0000 0.0000
# 4 0.0000 0.0000 0.0000 17.3818 0.0000 0.0000
# 5 0.0000 0.0000 0.0000 0.0000 21.8797 0.0000
# 6 0.0000 0.0000 0.0000 0.0000 0.0000 32.8065
#
#
#
# Elastic Compliance Matrix: (Units=1/GPa)
#
#
# Indices 1 2 3 4 5 6 
#
# 1 0.029420 -0.004839 -0.005029 0.000000 0.000000 0.000000
# 2 -0.004839 0.009597 -0.003691 0.000000 0.000000 0.000000
# 3 -0.005029 -0.003691 0.010551 0.000000 0.000000 0.000000
# 4 0.000000 0.000000 0.000000 0.057531 0.000000 0.000000
# 5 0.000000 0.000000 0.000000 0.000000 0.045705 0.000000
# 6 0.000000 0.000000 0.000000 0.000000 0.000000 0.030482
#
#
# Mechanical properties :
#
#
# Convention : Reuss Voigt Hill
#
# Bulk Modulus (GPa) = 44.54280 68.04938 56.29609
# Shear Modulus (GPa) = 22.94769 27.09250 25.02009
#
# Velocity S-wave (km/s) = 3.51168 3.81566 3.66682
# Velocity P-wave (km/s) = 6.35448 7.48208 6.94122
#
# Compressibility (1/GPa) = 0.02245032
#
# Stress axis : x y z
#
# Youngs Moduli (GPa) = 33.99025 104.20456 94.77447
#
# Poissons Ratio (x) = 0.50422 0.47663
# Poissons Ratio (y) = 0.16447 0.34982
# Poissons Ratio (z) = 0.17094 0.38463
#
# Static dielectric constant tensor:
#      x y z
#    x 3.240830 0.000000 0.000000 
#    y 0.000000 3.528970 0.000000 
#    z 0.000000 0.000000 3.828650 
# 
# 
# High freq. dielectric constant tensor:
#      x y z
#    x 1.710710 0.000000 0.000000 
#    y 0.000000 1.727270 0.000000 
#    z 0.000000 0.000000 1.722220 
# 
# From -- ./inp_files/63366.got.cif
#   From: 2010.06.25/outbox.cif.g09.slc.cpg/sg71_32_cif.got.tgz:63366.got - 2010.06.28 04:59:45.
