data_PCOD8290743
_publ_section_title
;
Structure prediction by ZEFSAII (Michael W. Deem and Ramdas Pophale) SiO2 
 PCOD8290743
Probable space group: I M M M
;
_chemical_formula_sum "Si O2"
_cell_formula_units_Z 104
_cell_length_a 15.013004
_cell_length_b 26.582067
_cell_length_c 14.476024
_cell_angle_alpha 90.000000
_cell_angle_beta 90.000000
_cell_angle_gamma 90.000000
_cell_volume 5777.043571
_symmetry_space_group_name_H-M "I M M M"
_symmetry_group_IT_number 71
_symmetry_cell_setting 'orthorhombic'
loop_
_space_group_symop_operation_xyz
x,y,z
-x,-y,z
x,-y,-z
-x,y,-z
-x,-y,-z
x,y,-z
-x,y,z
x,-y,z
1/2+x,1/2+y,1/2+z
1/2-x,1/2-y,1/2+z
1/2+x,1/2-y,1/2-z
1/2-x,1/2+y,1/2-z
1/2-x,1/2-y,1/2-z
1/2+x,1/2+y,1/2-z
1/2-x,1/2+y,1/2+z
1/2+x,1/2-y,1/2+z
loop_
_atom_site_type_symbol
_atom_site_label
_atom_site_fract_x
_atom_site_fract_y
_atom_site_fract_z
Si Si1 0.094831 0.342291 0.894847
Si Si2 0.252264 0.942377 0.103912
Si Si3 0.104035 0.639629 0.606892
Si Si4 0.776063 0.307343 0.751280
Si Si5 0.000000 0.060299 0.611103
Si Si6 0.325720 0.944480 0.395889
Si Si7 0.330589 0.403788 0.775130
O O1 0.173014 0.313054 0.846747
O O2 0.098617 0.402756 0.881616
O O3 0.000000 0.325194 0.853851
O O4 0.102807 0.326546 0.000000
O O5 0.344079 0.912578 0.125946
O O6 0.170194 0.927496 0.171795
O O7 0.278360 0.000000 0.116187
O O8 0.219058 0.930540 0.000000
O O9 0.109978 0.655714 0.500000
O O10 0.156843 0.681208 0.666581
O O11 0.000000 0.634668 0.637066
O O12 0.750000 0.250000 0.750000
O O13 0.690202 0.344323 0.759272
O O14 0.918137 0.086462 0.664385
O O15 0.000000 0.072487 0.500000
O O16 0.000000 0.000000 0.625782
O O17 0.287006 0.941612 0.500000
O O18 0.246586 0.933314 0.326866
O O19 0.365328 0.000000 0.375864
#
# Coordination Sequence:
#
# PCOD8290743 Si02
#       7
#    16  16  16  16   8  16  16
#     4   9  18  32  50  75 104 131 164 205 247 302
#     4   9  17  30  51  78 108 142 174 205 249 309
#     4   9  18  33  53  79 108 134 167 211 257 308
#     4  10  21  37  55  73  96 138 176 220 268 315
#     4  11  22  36  57  83 113 145 176 222 282 333
#     4   9  16  27  47  74 105 139 168 196 243 309
#     4  10  20  35  51  73 104 137 180 224 264 313
#
# _framework density 18.002286999999999
#
# number of rings (size 3 to 8) (size 9 to 14) (size 15 to 20)
#    0.000    2.538    0.000    2.308    0.000    3.077 
#    2.769    3.462    0.000    6.923    0.000    0.000 
#    0.000    0.000    0.000    0.000    0.000    0.000 
#
# Total GULP energy -644230.326957 kJ/mol
# GULP energy per Si atom -12389.044749 kJ/mol
# Density = 1.796131 g / cm^3
# Si number density = 18.002287 Si / 1000 Ang^3
#
#
#
# Elastic Constant Matrix: (Units=GPa)
#
#
# Indices 1 2 3 4 5 6 
#
# 1 87.8295 42.0894 56.0694 0.0000 0.0000 0.0000
# 2 42.0894 131.8700 49.3998 0.0000 0.0000 0.0000
# 3 56.0694 49.3998 106.2544 0.0001 0.0000 0.0000
# 4 0.0000 0.0000 0.0001 20.3341 0.0000 0.0000
# 5 0.0000 0.0000 0.0000 0.0000 27.3587 0.0000
# 6 0.0000 0.0000 0.0000 0.0000 0.0000 13.3487
#
#
#
# Elastic Compliance Matrix: (Units=1/GPa)
#
#
# Indices 1 2 3 4 5 6 
#
# 1 0.017894 -0.002633 -0.008218 0.000000 0.000000 0.000000
# 2 -0.002633 0.009570 -0.003060 0.000000 0.000000 0.000000
# 3 -0.008218 -0.003060 0.015171 0.000000 0.000000 0.000000
# 4 0.000000 0.000000 0.000000 0.049178 0.000000 0.000000
# 5 0.000000 0.000000 0.000000 0.000000 0.036551 0.000000
# 6 0.000000 0.000000 0.000000 0.000000 0.000000 0.074913
#
#
# Mechanical properties :
#
#
# Convention : Reuss Voigt Hill
#
# Bulk Modulus (GPa) = 67.51102 69.00793 68.25947
# Shear Modulus (GPa) = 21.18309 24.10133 22.64221
#
# Velocity S-wave (km/s) = 3.43401 3.66292 3.55031
# Velocity P-wave (km/s) = 7.30110 7.50369 7.40309
#
# Compressibility (1/GPa) = 0.01481240
#
# Stress axis : x y z
#
# Youngs Moduli (GPa) = 55.88517 104.49576 65.91582
#
# Poissons Ratio (x) = 0.27509 0.54173
# Poissons Ratio (y) = 0.14712 0.20170
# Poissons Ratio (z) = 0.45929 0.31976
#
# Static dielectric constant tensor:
#      x y z
#    x 5.122820 0.000000 0.000000 
#    y 0.000000 3.218280 0.000000 
#    z 0.000000 0.000000 3.774550 
# 
# 
# High freq. dielectric constant tensor:
#      x y z
#    x 1.673090 0.000000 0.000000 
#    y 0.000000 1.679900 0.000000 
#    z 0.000000 0.000000 1.719660 
# 
# From -- ./inp_files/34926.got.cif
#   From: 2010.06.25/outbox.cif.g09.slc.cpg/sg71_18_cif.got.tgz:34926.got - 2010.06.28 04:59:45.
