data_PCOD8290980
_publ_section_title
;
Structure prediction by ZEFSAII (Michael W. Deem and Ramdas Pophale) SiO2 
 PCOD8290980
Probable space group: I M M M
;
_chemical_formula_sum "Si O2"
_cell_formula_units_Z 48
_cell_length_a 37.489563
_cell_length_b 9.139128
_cell_length_c 7.539226
_cell_angle_alpha 90.000000
_cell_angle_beta 90.000000
_cell_angle_gamma 90.000000
_cell_volume 2583.104049
_symmetry_space_group_name_H-M "I M M M"
_symmetry_group_IT_number 71
_symmetry_cell_setting 'orthorhombic'
loop_
_space_group_symop_operation_xyz
x,y,z
-x,-y,z
x,-y,-z
-x,y,-z
-x,-y,-z
x,y,-z
-x,y,z
x,-y,z
1/2+x,1/2+y,1/2+z
1/2-x,1/2-y,1/2+z
1/2+x,1/2-y,1/2-z
1/2-x,1/2+y,1/2-z
1/2-x,1/2-y,1/2-z
1/2+x,1/2+y,1/2-z
1/2-x,1/2+y,1/2+z
1/2+x,1/2-y,1/2+z
loop_
_atom_site_type_symbol
_atom_site_label
_atom_site_fract_x
_atom_site_fract_y
_atom_site_fract_z
Si Si1 0.214060 0.669547 0.799610
Si Si2 0.840401 0.328092 0.500000
Si Si3 0.541355 0.832056 0.704161
Si Si4 0.915397 0.826709 0.500000
O O1 0.222226 0.500000 0.771944
O O2 0.250000 0.750000 0.750000
O O3 0.181854 0.718574 0.673457
O O4 0.202455 0.706287 0.000000
O O5 0.849683 0.500000 0.500000
O O6 0.875837 0.234721 0.500000
O O7 0.550645 0.799529 0.500000
O O8 0.500000 0.800695 0.742055
O O9 0.564633 0.726083 0.823965
O O10 0.550412 0.000000 0.750921
O O11 0.914242 0.000000 0.500000
#
# Coordination Sequence:
#
# PCOD8290980 Si02
#       4
#    16   8  16   8
#     4  10  20  35  58  84 108 137 179 229 280 334
#     4  10  22  39  55  78 112 153 196 234 277 337
#     4   9  19  38  64  89 113 150 199 242 282 339
#     4  12  25  37  54  85 124 158 190 238 296 345
#
# _framework density 18.582293
#
# number of rings (size 3 to 8) (size 9 to 14) (size 15 to 20)
#    0.000    2.000    1.667    3.000    0.000    6.000 
#    0.000    5.000    0.000    0.000    0.000    0.000 
#    0.000    0.000    0.000    0.000    0.000    0.000 
#
# Total GULP energy -297665.890182 kJ/mol
# GULP energy per Si atom -12402.745424 kJ/mol
# Density = 1.854000 g / cm^3
# Si number density = 18.582293 Si / 1000 Ang^3
#
#
#
# Elastic Constant Matrix: (Units=GPa)
#
#
# Indices 1 2 3 4 5 6 
#
# 1 146.3529 86.0029 92.1364 0.0000 0.0000 0.0000
# 2 86.0029 106.1070 71.4442 0.0000 0.0000 0.0000
# 3 92.1364 71.4442 159.5863 0.0000 0.0000 0.0000
# 4 0.0000 0.0000 0.0000 24.4643 0.0000 0.0000
# 5 0.0000 0.0000 0.0000 0.0000 116.1027 0.0000
# 6 0.0000 0.0000 0.0000 0.0000 0.0000 32.1580
#
#
#
# Elastic Compliance Matrix: (Units=1/GPa)
#
#
# Indices 1 2 3 4 5 6 
#
# 1 0.015120 -0.009130 -0.004643 0.000000 0.000000 0.000000
# 2 -0.009130 0.019004 -0.003237 0.000000 0.000000 0.000000
# 3 -0.004643 -0.003237 0.010396 0.000000 0.000000 0.000000
# 4 0.000000 0.000000 0.000000 0.040876 0.000000 0.000000
# 5 0.000000 0.000000 0.000000 0.000000 0.008613 0.000000
# 6 0.000000 0.000000 0.000000 0.000000 0.000000 0.031096
#
#
# Mechanical properties :
#
#
# Convention : Reuss Voigt Hill
#
# Bulk Modulus (GPa) = 95.22044 101.24592 98.23318
# Shear Modulus (GPa) = 30.74586 45.37584 38.06085
#
# Velocity S-wave (km/s) = 4.07206 4.94691 4.53065
# Velocity P-wave (km/s) = 8.57104 9.33984 8.96369
#
# Compressibility (1/GPa) = 0.01050195
#
# Stress axis : x y z
#
# Youngs Moduli (GPa) = 66.13546 52.62141 96.19523
#
# Poissons Ratio (x) = 0.48042 0.44659
# Poissons Ratio (y) = 0.60380 0.31135
# Poissons Ratio (z) = 0.30703 0.17032
#
# Static dielectric constant tensor:
#      x y z
#    x 3.231040 0.000000 0.000000 
#    y 0.000000 3.319760 0.000000 
#    z 0.000000 0.000000 3.937990 
# 
# 
# High freq. dielectric constant tensor:
#      x y z
#    x 1.719720 0.000000 0.000000 
#    y 0.000000 1.709200 0.000000 
#    z 0.000000 0.000000 1.741810 
# 
# From -- ./inp_files/15983.got.cif
#   From: 2010.06.25/outbox.cif.g09.slc.cpg/sg71_8_cif.got.tgz:15983.got - 2010.06.28 04:59:45.
