data_PCOD8290904
_publ_section_title
;
Structure prediction by ZEFSAII (Michael W. Deem and Ramdas Pophale) SiO2 
 PCOD8290904
Probable space group: I M M M
;
_chemical_formula_sum "Si O2"
_cell_formula_units_Z 104
_cell_length_a 27.554905
_cell_length_b 8.968295
_cell_length_c 20.990469
_cell_angle_alpha 90.000000
_cell_angle_beta 90.000000
_cell_angle_gamma 90.000000
_cell_volume 5187.175546
_symmetry_space_group_name_H-M "I M M M"
_symmetry_group_IT_number 71
_symmetry_cell_setting 'orthorhombic'
loop_
_space_group_symop_operation_xyz
x,y,z
-x,-y,z
x,-y,-z
-x,y,-z
-x,-y,-z
x,y,-z
-x,y,z
x,-y,z
1/2+x,1/2+y,1/2+z
1/2-x,1/2-y,1/2+z
1/2+x,1/2-y,1/2-z
1/2-x,1/2+y,1/2-z
1/2-x,1/2-y,1/2-z
1/2+x,1/2+y,1/2-z
1/2-x,1/2+y,1/2+z
1/2+x,1/2-y,1/2+z
loop_
_atom_site_type_symbol
_atom_site_label
_atom_site_fract_x
_atom_site_fract_y
_atom_site_fract_z
Si Si1 0.731448 0.669654 0.570080
Si Si2 0.301552 0.675290 0.159386
Si Si3 0.553982 0.828354 0.171510
Si Si4 0.623341 0.328433 0.602410
Si Si5 0.890053 0.175239 0.570652
Si Si6 0.360190 0.175994 0.736612
Si Si7 0.442719 0.176029 0.500000
O O1 0.751408 0.718971 0.500000
O O2 0.746958 0.500000 0.584915
O O3 0.751103 0.772175 0.627720
O O4 0.673597 0.683011 0.564692
O O5 0.299412 0.500000 0.172446
O O6 0.342031 0.723590 0.108378
O O7 0.313185 0.756921 0.226410
O O8 0.500000 0.793572 0.196620
O O9 0.562991 0.738825 0.106439
O O10 0.591257 0.778590 0.225717
O O11 0.561168 0.000000 0.154640
O O12 0.607769 0.500000 0.612566
O O13 0.632554 0.249674 0.669069
O O14 0.581022 0.246237 0.563281
O O15 0.887321 0.243871 0.500000
O O16 0.895076 0.000000 0.567694
O O17 0.352849 0.000000 0.729482
O O18 0.500000 0.211837 0.500000
O O19 0.433019 0.000000 0.500000
#
# Coordination Sequence:
#
# PCOD8290904 Si02
#       7
#    16  16  16  16  16  16   8
#     4  10  21  38  59  85 119 157 194 239 293 352
#     4  10  20  35  56  84 115 154 200 244 289 345
#     4   9  19  35  53  74 103 140 184 234 285 339
#     4  11  23  42  65  91 122 155 192 240 296 354
#     4   9  18  32  49  73 108 144 183 233 284 334
#     4  10  21  38  59  84 116 155 196 243 298 357
#     4  11  25  45  69  97 127 159 199 247 300 363
#
# _framework density 20.049446
#
# number of rings (size 3 to 8) (size 9 to 14) (size 15 to 20)
#    0.000    2.077    0.769    2.077    0.000    6.154 
#    0.000    3.077    0.000    0.000    0.000    0.000 
#    0.000    0.000    0.000    0.000    0.000    0.000 
#
# Total GULP energy -644810.709715 kJ/mol
# GULP energy per Si atom -12400.205956 kJ/mol
# Density = 2.000381 g / cm^3
# Si number density = 20.049446 Si / 1000 Ang^3
#
#
#
# Elastic Constant Matrix: (Units=GPa)
#
#
# Indices 1 2 3 4 5 6 
#
# 1 80.8583 40.3947 32.8944 0.0000 0.0000 0.0000
# 2 40.3947 98.7584 61.8790 0.0000 0.0000 0.0000
# 3 32.8944 61.8790 144.1193 0.0000 0.0000 0.0000
# 4 0.0000 0.0000 0.0000 36.9249 0.0000 0.0000
# 5 0.0000 0.0000 0.0000 0.0000 24.7790 0.0000
# 6 0.0000 0.0000 0.0000 0.0000 0.0000 30.9552
#
#
#
# Elastic Compliance Matrix: (Units=1/GPa)
#
#
# Indices 1 2 3 4 5 6 
#
# 1 0.015676 -0.005705 -0.001129 0.000000 0.000000 0.000000
# 2 -0.005705 0.015928 -0.005537 0.000000 0.000000 0.000000
# 3 -0.001129 -0.005537 0.009574 0.000000 0.000000 0.000000
# 4 0.000000 0.000000 0.000000 0.027082 0.000000 0.000000
# 5 0.000000 0.000000 0.000000 0.000000 0.040357 0.000000
# 6 0.000000 0.000000 0.000000 0.000000 0.000000 0.032305
#
#
# Mechanical properties :
#
#
# Convention : Reuss Voigt Hill
#
# Bulk Modulus (GPa) = 60.83593 66.00802 63.42198
# Shear Modulus (GPa) = 29.21550 31.10304 30.15927
#
# Velocity S-wave (km/s) = 3.82143 3.94295 3.88267
# Velocity P-wave (km/s) = 7.06257 7.32961 7.19733
#
# Compressibility (1/GPa) = 0.01643765
#
# Stress axis : x y z
#
# Youngs Moduli (GPa) = 63.78989 62.78077 104.45370
#
# Poissons Ratio (x) = 0.35816 0.11789
# Poissons Ratio (y) = 0.36392 0.57835
# Poissons Ratio (z) = 0.07199 0.34761
#
# Static dielectric constant tensor:
#      x y z
#    x 3.694770 0.000000 0.000000 
#    y 0.000000 3.599980 0.000000 
#    z 0.000000 0.000000 3.777880 
# 
# 
# High freq. dielectric constant tensor:
#      x y z
#    x 1.776200 0.000000 0.000000 
#    y 0.000000 1.783370 0.000000 
#    z 0.000000 0.000000 1.790530 
# 
# From -- ./inp_files/11123.got.cif
#   From: 2010.06.25/outbox.cif.g09.slc.cpg/sg71_6_cif.got.tgz:11123.got - 2010.06.28 04:59:45.
