data_PCOD8290731
_publ_section_title
;
Structure prediction by ZEFSAII (Michael W. Deem and Ramdas Pophale) SiO2 
 PCOD8290731
Probable space group: I M M M
;
_chemical_formula_sum "Si O2"
_cell_formula_units_Z 64
_cell_length_a 16.778676
_cell_length_b 8.733935
_cell_length_c 22.179290
_cell_angle_alpha 90.000000
_cell_angle_beta 90.000000
_cell_angle_gamma 90.000000
_cell_volume 3250.238892
_symmetry_space_group_name_H-M "I M M M"
_symmetry_group_IT_number 71
_symmetry_cell_setting 'orthorhombic'
loop_
_space_group_symop_operation_xyz
x,y,z
-x,-y,z
x,-y,-z
-x,y,-z
-x,-y,-z
x,y,-z
-x,y,z
x,-y,z
1/2+x,1/2+y,1/2+z
1/2-x,1/2-y,1/2+z
1/2+x,1/2-y,1/2-z
1/2-x,1/2+y,1/2-z
1/2-x,1/2-y,1/2-z
1/2+x,1/2+y,1/2-z
1/2-x,1/2+y,1/2+z
1/2+x,1/2-y,1/2+z
loop_
_atom_site_type_symbol
_atom_site_label
_atom_site_fract_x
_atom_site_fract_y
_atom_site_fract_z
Si Si1 0.183911 0.317924 0.382993
Si Si2 0.589660 0.181947 0.233169
Si Si3 0.647037 0.818562 0.362511
Si Si4 0.500000 0.325200 0.428741
Si Si5 0.589583 0.817977 0.000000
O O1 0.190185 0.500000 0.382233
O O2 0.139657 0.255040 0.323378
O O3 0.271305 0.249033 0.387149
O O4 0.134939 0.258595 0.440705
O O5 0.500000 0.248603 0.230383
O O6 0.631906 0.239100 0.294234
O O7 0.585916 0.000000 0.231263
O O8 0.577646 0.760058 0.405237
O O9 0.649592 0.000000 0.365403
O O10 0.500000 0.500000 0.406051
O O11 0.500000 0.315834 0.500000
O O12 0.500000 0.751180 0.000000
O O13 0.586545 0.000000 0.000000
#
# Coordination Sequence:
#
# PCOD8290731 Si02
#       5
#    16  16  16   8   8
#     4  10  20  34  57  85 116 152 195 243 282 331
#     4   9  17  33  57  83 113 152 196 240 285 334
#     4  11  22  38  59  85 118 152 189 233 289 352
#     4  11  25  43  63  85 113 148 191 240 288 343
#     4   9  18  34  57  86 113 146 195 241 280 325
#
# _framework density 19.690861000000002
#
# number of rings (size 3 to 8) (size 9 to 14) (size 15 to 20)
#    0.000    2.000    1.250    2.625    1.750    4.000 
#    0.000    1.250    0.000    3.000    0.000    0.000 
#    0.000    0.000    0.000    0.000    0.000    0.000 
#
# Total GULP energy -396891.071100 kJ/mol
# GULP energy per Si atom -12402.845972 kJ/mol
# Density = 1.964604 g / cm^3
# Si number density = 19.690861 Si / 1000 Ang^3
#
#
#
# Elastic Constant Matrix: (Units=GPa)
#
#
# Indices 1 2 3 4 5 6 
#
# 1 196.7485 28.2181 80.3393 0.0000 0.0000 0.0000
# 2 28.2181 30.4335 25.4586 0.0000 0.0000 0.0000
# 3 80.3393 25.4586 141.0037 0.0000 0.0000 0.0000
# 4 0.0000 0.0000 0.0000 18.4949 0.0000 0.0000
# 5 0.0000 0.0000 0.0000 0.0000 43.6963 0.0000
# 6 0.0000 0.0000 0.0000 0.0000 0.0000 -6.1704
#
#
#
# Elastic Compliance Matrix: (Units=1/GPa)
#
#
# Indices 1 2 3 4 5 6 
#
# 1 0.006959 -0.003693 -0.003298 0.000000 0.000000 0.000000
# 2 -0.003693 0.040665 -0.005238 0.000000 0.000000 0.000000
# 3 -0.003298 -0.005238 0.009917 0.000000 0.000000 0.000000
# 4 0.000000 0.000000 0.000000 0.054069 0.000000 0.000000
# 5 0.000000 0.000000 0.000000 0.000000 0.022885 0.000000
# 6 0.000000 0.000000 0.000000 0.000000 0.000000 -0.162065
#
#
# Mechanical properties :
#
#
# Convention : Reuss Voigt Hill
#
# Bulk Modulus (GPa) = 30.22800 70.69086 50.45943
# Shear Modulus (GPa) = 631.60319 26.81546 329.20933
#
# Velocity S-wave (km/s) = 17.92919 3.69429 12.94418
# Velocity P-wave (km/s) = 21.07113 7.36039 15.78239
#
# Compressibility (1/GPa) = 0.03308191
#
# Stress axis : x y z
#
# Youngs Moduli (GPa) = 143.69593 24.59138 100.83782
#
# Poissons Ratio (x) = 0.09083 0.33259
# Poissons Ratio (y) = 0.53074 0.52816
# Poissons Ratio (z) = 0.47394 0.12880
#
# Static dielectric constant tensor:
#      x y z
#    x 3.719530 0.000000 0.000000 
#    y 0.000000 3.218380 0.000000 
#    z 0.000000 0.000000 3.854650 
# 
# 
# High freq. dielectric constant tensor:
#      x y z
#    x 1.785760 0.000000 0.000000 
#    y 0.000000 1.728030 0.000000 
#    z 0.000000 0.000000 1.782980 
# 
# From -- ./inp_files/5538.got.cif
#   From: 2010.06.25/outbox.cif.g09.slc.cpg/sg71_3_cif.got.tgz:5538.got - 2010.06.28 04:59:45.
