data_PCOD8290893
_publ_section_title
;
Structure prediction by ZEFSAII (Michael W. Deem and Ramdas Pophale) SiO2 
 PCOD8290893
Probable space group: I M M M
;
_chemical_formula_sum "Si O2"
_cell_formula_units_Z 80
_cell_length_a 8.924622
_cell_length_b 22.206250
_cell_length_c 21.371819
_cell_angle_alpha 90.000000
_cell_angle_beta 90.000000
_cell_angle_gamma 90.000000
_cell_volume 4235.518110
_symmetry_space_group_name_H-M "I M M M"
_symmetry_group_IT_number 71
_symmetry_cell_setting 'orthorhombic'
loop_
_space_group_symop_operation_xyz
x,y,z
-x,-y,z
x,-y,-z
-x,y,-z
-x,-y,-z
x,y,-z
-x,y,z
x,-y,z
1/2+x,1/2+y,1/2+z
1/2-x,1/2-y,1/2+z
1/2+x,1/2-y,1/2-z
1/2-x,1/2+y,1/2-z
1/2-x,1/2-y,1/2-z
1/2+x,1/2+y,1/2-z
1/2-x,1/2+y,1/2+z
1/2+x,1/2-y,1/2+z
loop_
_atom_site_type_symbol
_atom_site_label
_atom_site_fract_x
_atom_site_fract_y
_atom_site_fract_z
Si Si1 0.672157 0.120687 0.574060
Si Si2 0.324348 0.069916 0.126024
Si Si3 0.675003 0.331706 0.702395
Si Si4 0.831199 0.071513 0.000000
Si Si5 0.331025 0.500000 0.074383
Si Si6 0.175097 0.213608 0.339148
O O1 0.688393 0.126029 0.500000
O O2 0.500000 0.121263 0.595302
O O3 0.745632 0.058959 0.599208
O O4 0.758415 0.176785 0.603258
O O5 0.500000 0.081672 0.123664
O O6 0.251504 0.105580 0.183574
O O7 0.286312 0.000000 0.136318
O O8 0.254320 0.094836 0.061448
O O9 0.500000 0.334354 0.687934
O O10 0.745860 0.278208 0.661699
O O11 0.708802 0.322295 0.775416
O O12 0.000000 0.097205 0.000000
O O13 0.830935 0.000000 0.000000
O O14 0.500000 0.500000 0.101067
O O15 0.332115 0.500000 0.000000
O O16 0.000000 0.223812 0.349591
#
# Coordination Sequence:
#
# PCOD8290893 Si02
#       6
#    16  16  16   8   8  16
#     4  10  20  35  56  83 114 146 183 228 276 328
#     4  10  20  35  56  83 114 146 183 227 273 326
#     4  10  21  38  59  81 108 145 185 228 276 330
#     4   9  17  31  53  79 109 145 179 218 271 324
#     4   9  17  31  53  79 109 145 181 220 271 326
#     4  10  21  38  59  81 108 146 186 228 277 331
#
# _framework density 18.887889999999999
#
# number of rings (size 3 to 8) (size 9 to 14) (size 15 to 20)
#    0.000    2.200    0.000    3.000    0.000    7.200 
#    3.600    0.000    0.000    0.000    0.000    0.000 
#    0.000    0.000    0.000    0.000    0.000    0.000 
#
# Total GULP energy -496166.932982 kJ/mol
# GULP energy per Si atom -12404.173325 kJ/mol
# Density = 1.884490 g / cm^3
# Si number density = 18.887890 Si / 1000 Ang^3
#
#
#
# Elastic Constant Matrix: (Units=GPa)
#
#
# Indices 1 2 3 4 5 6 
#
# 1 128.0407 56.7469 37.3830 0.0000 0.0000 0.0000
# 2 56.7469 90.4739 34.6195 0.0000 0.0000 0.0000
# 3 37.3830 34.6195 43.1530 0.0000 0.0000 0.0000
# 4 0.0000 0.0000 0.0000 25.7701 0.0000 0.0000
# 5 0.0000 0.0000 0.0000 0.0000 32.1553 0.0000
# 6 0.0000 0.0000 0.0000 0.0000 0.0000 38.7739
#
#
#
# Elastic Compliance Matrix: (Units=1/GPa)
#
#
# Indices 1 2 3 4 5 6 
#
# 1 0.011871 -0.005066 -0.006220 0.000000 0.000000 0.000000
# 2 -0.005066 0.018111 -0.010141 0.000000 0.000000 0.000000
# 3 -0.006220 -0.010141 0.036697 0.000000 0.000000 0.000000
# 4 0.000000 0.000000 0.000000 0.038805 0.000000 0.000000
# 5 0.000000 0.000000 0.000000 0.000000 0.031099 0.000000
# 6 0.000000 0.000000 0.000000 0.000000 0.000000 0.025791
#
#
# Mechanical properties :
#
#
# Convention : Reuss Voigt Hill
#
# Bulk Modulus (GPa) = 41.97112 57.68515 49.82814
# Shear Modulus (GPa) = 23.45574 28.20108 25.82841
#
# Velocity S-wave (km/s) = 3.52780 3.86823 3.70193
# Velocity P-wave (km/s) = 6.23404 7.11042 6.68660
#
# Compressibility (1/GPa) = 0.02382591
#
# Stress axis : x y z
#
# Youngs Moduli (GPa) = 84.23828 55.21623 27.25029
#
# Poissons Ratio (x) = 0.27971 0.16949
# Poissons Ratio (y) = 0.42673 0.27634
# Poissons Ratio (z) = 0.52394 0.55994
#
# Static dielectric constant tensor:
#      x y z
#    x 3.658160 0.000000 0.000000 
#    y 0.000000 3.409660 0.000000 
#    z 0.000000 0.000000 3.295390 
# 
# 
# High freq. dielectric constant tensor:
#      x y z
#    x 1.754580 0.000000 0.000000 
#    y 0.000000 1.728530 0.000000 
#    z 0.000000 0.000000 1.717130 
# 
# From -- ./inp_files/57442.got.cif
#   From: 2010.06.25/outbox.cif.g09.slc.cpg/sg71_29_cif.got.tgz:57442.got - 2010.06.28 04:59:45.
