data_PCOD8290912
_publ_section_title
;
Structure prediction by ZEFSAII (Michael W. Deem and Ramdas Pophale) SiO2 
 PCOD8290912
Probable space group: I M M M
;
_chemical_formula_sum "Si O2"
_cell_formula_units_Z 88
_cell_length_a 22.356838
_cell_length_b 8.835004
_cell_length_c 22.361882
_cell_angle_alpha 90.000000
_cell_angle_beta 90.000000
_cell_angle_gamma 90.000000
_cell_volume 4416.980498
_symmetry_space_group_name_H-M "I M M M"
_symmetry_group_IT_number 71
_symmetry_cell_setting 'orthorhombic'
loop_
_space_group_symop_operation_xyz
x,y,z
-x,-y,z
x,-y,-z
-x,y,-z
-x,-y,-z
x,y,-z
-x,y,z
x,-y,z
1/2+x,1/2+y,1/2+z
1/2-x,1/2-y,1/2+z
1/2+x,1/2-y,1/2-z
1/2-x,1/2+y,1/2-z
1/2-x,1/2-y,1/2-z
1/2+x,1/2+y,1/2-z
1/2-x,1/2+y,1/2+z
1/2+x,1/2-y,1/2+z
loop_
_atom_site_type_symbol
_atom_site_label
_atom_site_fract_x
_atom_site_fract_y
_atom_site_fract_z
Si Si1 0.265896 0.166576 0.000000
Si Si2 0.213783 0.671800 0.369887
Si Si3 0.595195 0.675002 0.153725
Si Si4 0.500000 0.179025 0.930771
Si Si5 0.566591 0.671542 0.287490
Si Si6 0.350701 0.171786 0.500000
Si Si7 0.658084 0.820898 0.628555
O O1 0.304961 0.178142 0.940072
O O2 0.220795 0.307431 0.000000
O O3 0.233018 0.000000 0.000000
O O4 0.214146 0.500000 0.345866
O O5 0.162768 0.765952 0.336799
O O6 0.279004 0.741211 0.357439
O O7 0.596243 0.500000 0.135983
O O8 0.559479 0.761132 0.101915
O O9 0.563505 0.702846 0.216959
O O10 0.500000 0.000000 0.926419
O O11 0.500000 0.232587 0.000000
O O12 0.500000 0.698479 0.313084
O O13 0.587956 0.500000 0.300070
O O14 0.611634 0.785851 0.319387
O O15 0.370462 0.240808 0.564675
O O16 0.370894 0.000000 0.500000
O O17 0.669317 0.000000 0.624522
#
# Coordination Sequence:
#
# PCOD8290912 Si02
#       7
#     8  16  16   8  16   8  16
#     4   8  16  30  50  76 112 150 186 224 277 341
#     4  10  20  35  56  86 120 155 192 240 297 350
#     4  11  23  41  62  86 117 156 200 247 294 344
#     4  11  25  43  63  89 123 160 201 248 293 345
#     4  10  22  42  62  81 112 153 196 243 295 351
#     4   8  16  32  53  81 117 146 178 229 282 335
#     4  10  20  36  60  89 118 152 194 239 291 352
#
# _framework density 19.923110999999999
#
# number of rings (size 3 to 8) (size 9 to 14) (size 15 to 20)
#    0.000    2.091    0.909    1.909    1.273    4.727 
#    0.000    0.455    0.000    2.727    0.000    0.000 
#    0.000    0.000    0.000    0.000    0.000    0.000 
#
# Total GULP energy -545245.801140 kJ/mol
# GULP energy per Si atom -12391.950026 kJ/mol
# Density = 1.987777 g / cm^3
# Si number density = 19.923111 Si / 1000 Ang^3
#
#
#
# Elastic Constant Matrix: (Units=GPa)
#
#
# Indices 1 2 3 4 5 6 
#
# 1 102.8116 38.1625 44.5746 0.0000 0.0000 0.0000
# 2 38.1625 81.6196 42.9028 0.0000 0.0000 0.0000
# 3 44.5746 42.9028 76.1813 0.0000 0.0000 0.0000
# 4 0.0000 0.0000 0.0000 26.9657 0.0000 0.0000
# 5 0.0000 0.0000 0.0000 0.0000 29.9158 0.0000
# 6 0.0000 0.0000 0.0000 0.0000 0.0000 32.9431
#
#
#
# Elastic Compliance Matrix: (Units=1/GPa)
#
#
# Indices 1 2 3 4 5 6 
#
# 1 0.013557 -0.003081 -0.006197 0.000000 0.000000 0.000000
# 2 -0.003081 0.018104 -0.008393 0.000000 0.000000 0.000000
# 3 -0.006197 -0.008393 0.021479 0.000000 0.000000 0.000000
# 4 0.000000 0.000000 0.000000 0.037084 0.000000 0.000000
# 5 0.000000 0.000000 0.000000 0.000000 0.033427 0.000000
# 6 0.000000 0.000000 0.000000 0.000000 0.000000 0.030355
#
#
# Mechanical properties :
#
#
# Convention : Reuss Voigt Hill
#
# Bulk Modulus (GPa) = 56.18608 56.87691 56.53149
# Shear Modulus (GPa) = 25.60395 26.96311 26.28353
#
# Velocity S-wave (km/s) = 3.58877 3.68279 3.63609
# Velocity P-wave (km/s) = 6.74055 6.83331 6.78709
#
# Compressibility (1/GPa) = 0.01779800
#
# Stress axis : x y z
#
# Youngs Moduli (GPa) = 73.76218 55.23546 46.55678
#
# Poissons Ratio (x) = 0.17020 0.28852
# Poissons Ratio (y) = 0.22729 0.39074
# Poissons Ratio (z) = 0.45711 0.46358
#
# Static dielectric constant tensor:
#      x y z
#    x 3.316040 0.000000 0.000000 
#    y 0.000000 3.627970 0.000000 
#    z 0.000000 0.000000 3.789090 
# 
# 
# High freq. dielectric constant tensor:
#      x y z
#    x 1.757060 0.000000 0.000000 
#    y 0.000000 1.778810 0.000000 
#    z 0.000000 0.000000 1.782090 
# 
# From -- ./inp_files/55596.got.cif
#   From: 2010.06.25/outbox.cif.g09.slc.cpg/sg71_28_cif.got.tgz:55596.got - 2010.06.28 04:59:45.
