data_PCOD8290157
_publ_section_title
;
Structure prediction by ZEFSAII (Michael W. Deem and Ramdas Pophale) SiO2 
 PCOD8290157
Probable space group: I M M M
;
_chemical_formula_sum "Si O2"
_cell_formula_units_Z 104
_cell_length_a 29.435004
_cell_length_b 19.598108
_cell_length_c 9.157366
_cell_angle_alpha 90.000000
_cell_angle_beta 90.000000
_cell_angle_gamma 90.000000
_cell_volume 5282.613272
_symmetry_space_group_name_H-M "I M M M"
_symmetry_group_IT_number 71
_symmetry_cell_setting 'orthorhombic'
loop_
_space_group_symop_operation_xyz
x,y,z
-x,-y,z
x,-y,-z
-x,y,-z
-x,-y,-z
x,y,-z
-x,y,z
x,-y,z
1/2+x,1/2+y,1/2+z
1/2-x,1/2-y,1/2+z
1/2+x,1/2-y,1/2-z
1/2-x,1/2+y,1/2-z
1/2-x,1/2-y,1/2-z
1/2+x,1/2+y,1/2-z
1/2-x,1/2+y,1/2+z
1/2+x,1/2-y,1/2+z
loop_
_atom_site_type_symbol
_atom_site_label
_atom_site_fract_x
_atom_site_fract_y
_atom_site_fract_z
Si Si1 0.884867 0.302062 0.832408
Si Si2 0.413955 0.343376 0.333789
Si Si3 0.000000 0.922790 0.174142
Si Si4 0.247724 0.074921 0.837591
Si Si5 0.341445 0.423794 0.829710
Si Si6 0.551275 0.922921 0.673418
Si Si7 0.791913 0.712418 0.330963
O O1 0.919759 0.238296 0.823312
O O2 0.911760 0.367883 0.766107
O O3 0.840544 0.277198 0.744179
O O4 0.870294 0.315928 0.000000
O O5 0.407478 0.366917 0.500000
O O6 0.456871 0.382019 0.263848
O O7 0.370031 0.365905 0.246610
O O8 0.000000 0.000000 0.234768
O O9 0.000000 0.921667 0.000000
O O10 0.210069 0.088940 0.716472
O O11 0.286410 0.130944 0.819891
O O12 0.269728 0.000000 0.813637
O O13 0.225697 0.079822 0.000000
O O14 0.357264 0.500000 0.783284
O O15 0.345160 0.413039 0.000000
O O16 0.550773 0.917382 0.500000
O O17 0.500000 0.906878 0.731183
O O18 0.565297 0.000000 0.721663
O O19 0.793245 0.737083 0.500000
O O20 0.750000 0.750000 0.250000
#
# Coordination Sequence:
#
# PCOD8290157 Si02
#       7
#    16  16   8  16  16  16  16
#     4  10  21  34  53  82 111 141 181 226 273 324
#     4  10  20  33  51  75 103 136 174 217 261 307
#     4   9  18  32  51  75 100 130 170 213 255 297
#     4   9  19  36  56  76  99 133 177 220 261 308
#     4  10  20  33  51  76 104 135 173 216 263 315
#     4   8  15  30  54  83 114 147 183 227 280 336
#     4  11  23  38  56  78 109 146 183 225 274 328
#
# _framework density 19.687225000000002
#
# number of rings (size 3 to 8) (size 9 to 14) (size 15 to 20)
#    0.000    2.385    0.000    2.769    1.077    7.692 
#    0.000    0.385    0.000    1.846    0.000    1.077 
#    0.000    0.000    0.000    0.000    0.000    0.000 
#
# Total GULP energy -644495.636597 kJ/mol
# GULP energy per Si atom -12394.146858 kJ/mol
# Density = 1.964242 g / cm^3
# Si number density = 19.687225 Si / 1000 Ang^3
#
#
#
# Elastic Constant Matrix: (Units=GPa)
#
#
# Indices 1 2 3 4 5 6 
#
# 1 92.2435 56.1162 28.5172 0.0000 0.0000 0.0000
# 2 56.1162 115.0643 26.8511 0.0000 0.0000 0.0000
# 3 28.5172 26.8511 54.6425 0.0000 0.0000 0.0000
# 4 0.0000 0.0000 0.0000 18.7284 0.0000 0.0000
# 5 0.0000 0.0000 0.0000 0.0000 1.1801 0.0000
# 6 0.0000 0.0000 0.0000 0.0000 0.0000 36.9483
#
#
#
# Elastic Compliance Matrix: (Units=1/GPa)
#
#
# Indices 1 2 3 4 5 6 
#
# 1 0.016678 -0.006893 -0.005317 0.000000 0.000000 0.000000
# 2 -0.006893 0.012665 -0.002626 0.000000 0.000000 0.000000
# 3 -0.005317 -0.002626 0.022366 0.000000 0.000000 0.000000
# 4 0.000000 0.000000 0.000000 0.053395 0.000000 0.000000
# 5 0.000000 0.000000 0.000000 0.000000 0.847382 0.000000
# 6 0.000000 0.000000 0.000000 0.000000 0.000000 0.027065
#
#
# Mechanical properties :
#
#
# Convention : Reuss Voigt Hill
#
# Bulk Modulus (GPa) = 45.37798 53.87992 49.62895
# Shear Modulus (GPa) = 4.91850 21.40240 13.16045
#
# Velocity S-wave (km/s) = 1.58232 3.30073 2.58830
# Velocity P-wave (km/s) = 5.14177 6.47717 5.84772
#
# Compressibility (1/GPa) = 0.02203712
#
# Stress axis : x y z
#
# Youngs Moduli (GPa) = 59.95949 78.95550 44.71047
#
# Poissons Ratio (x) = 0.54424 0.23772
# Poissons Ratio (y) = 0.41330 0.11742
# Poissons Ratio (z) = 0.31879 0.20736
#
# Static dielectric constant tensor:
#      x y z
#    x 3.472770 0.000000 0.000000 
#    y 0.000000 3.982080 0.000000 
#    z 0.000000 0.000000 3.340420 
# 
# 
# High freq. dielectric constant tensor:
#      x y z
#    x 1.750790 0.000000 0.000000 
#    y 0.000000 1.788570 0.000000 
#    z 0.000000 0.000000 1.735190 
# 
# From -- ./inp_files/15035.got.cif
#   From: 2010.06.25/outbox.cif.g09.slc.cpg/sg71_8_cif.got.tgz:15035.got - 2010.06.28 04:59:45.
