data_PCOD8290449
_publ_section_title
;
Structure prediction by ZEFSAII (Michael W. Deem and Ramdas Pophale) SiO2 
 PCOD8290449
Probable space group: I M M M
;
_chemical_formula_sum "Si O2"
_cell_formula_units_Z 72
_cell_length_a 13.586316
_cell_length_b 33.575704
_cell_length_c 9.171053
_cell_angle_alpha 90.000000
_cell_angle_beta 90.000000
_cell_angle_gamma 90.000000
_cell_volume 4183.560388
_symmetry_space_group_name_H-M "I M M M"
_symmetry_group_IT_number 71
_symmetry_cell_setting 'orthorhombic'
loop_
_space_group_symop_operation_xyz
x,y,z
-x,-y,z
x,-y,-z
-x,y,-z
-x,-y,-z
x,y,-z
-x,y,z
x,-y,z
1/2+x,1/2+y,1/2+z
1/2-x,1/2-y,1/2+z
1/2+x,1/2-y,1/2-z
1/2-x,1/2+y,1/2-z
1/2-x,1/2-y,1/2-z
1/2+x,1/2+y,1/2-z
1/2-x,1/2+y,1/2+z
1/2+x,1/2-y,1/2+z
loop_
_atom_site_type_symbol
_atom_site_label
_atom_site_fract_x
_atom_site_fract_y
_atom_site_fract_z
Si Si1 0.611276 0.771524 0.171363
Si Si2 0.385753 0.610050 0.170264
Si Si3 0.614285 0.000000 0.327788
Si Si4 0.767430 0.043863 0.835392
Si Si5 0.282438 0.691164 0.829276
O O1 0.500000 0.777106 0.226037
O O2 0.646041 0.727306 0.216246
O O3 0.677963 0.804751 0.248897
O O4 0.619896 0.777899 0.000000
O O5 0.500000 0.614201 0.207976
O O6 0.341940 0.573748 0.259971
O O7 0.333051 0.650462 0.221285
O O8 0.368959 0.601981 0.000000
O O9 0.665092 0.960456 0.256662
O O10 0.500000 0.000000 0.287373
O O11 0.632128 0.000000 0.500000
O O12 0.818388 0.000000 0.837978
O O13 0.743589 0.058203 0.000000
O O14 0.261974 0.691370 0.000000
#
# Coordination Sequence:
#
# PCOD8290449 Si02
#       5
#    16  16   8  16  16
#     4   9  17  31  51  73 100 134 169 207 254 304
#     4  10  20  34  53  75 101 135 173 213 257 303
#     4   9  17  33  58  81 100 127 165 206 246 293
#     4   9  20  35  52  77 107 135 165 206 252 302
#     4   9  18  32  50  74 102 131 169 214 254 299
#
# _framework density 17.210221000000001
#
# number of rings (size 3 to 8) (size 9 to 14) (size 15 to 20)
#    0.667    2.111    0.000    1.333    0.000    5.778 
#    0.000    3.333    0.000    5.333    0.000    0.000 
#    0.000    0.000    0.000    0.000    0.000    0.000 
#
# Total GULP energy -446261.994348 kJ/mol
# GULP energy per Si atom -12396.166510 kJ/mol
# Density = 1.717105 g / cm^3
# Si number density = 17.210221 Si / 1000 Ang^3
#
#
#
# Elastic Constant Matrix: (Units=GPa)
#
#
# Indices 1 2 3 4 5 6 
#
# 1 151.3464 68.0967 64.6362 0.0007 0.0035 0.0017
# 2 68.0967 97.8694 48.5902 0.0000 -0.0011 0.0000
# 3 64.6362 48.5902 69.2139 0.0033 -0.0165 -0.0068
# 4 0.0007 0.0000 0.0033 23.3331 -0.0020 -0.0005
# 5 0.0035 -0.0011 -0.0165 -0.0020 27.2567 0.0016
# 6 0.0017 0.0000 -0.0068 -0.0005 0.0016 30.0763
#
#
#
# Elastic Compliance Matrix: (Units=1/GPa)
#
#
# Indices 1 2 3 4 5 6 
#
# 1 0.012064 -0.004299 -0.008248 0.000001 -0.000007 -0.000003
# 2 -0.004299 0.017216 -0.008072 0.000001 -0.000004 -0.000002
# 3 -0.008248 -0.008072 0.027817 -0.000004 0.000018 0.000007
# 4 0.000001 0.000001 -0.000004 0.042858 0.000003 0.000001
# 5 -0.000007 -0.000004 0.000018 0.000003 0.036688 -0.000002
# 6 -0.000003 -0.000002 0.000007 0.000001 -0.000002 0.033249
#
#
# Mechanical properties :
#
#
# Convention : Reuss Voigt Hill
#
# Bulk Modulus (GPa) = 63.05222 75.67510 69.36366
# Shear Modulus (GPa) = 23.10351 25.27368 24.18859
#
# Velocity S-wave (km/s) = 3.66789 3.83629 3.75304
# Velocity P-wave (km/s) = 7.39283 7.98056 7.69231
#
# Compressibility (1/GPa) = 0.01585987
#
# Stress axis : x y z
#
# Youngs Moduli (GPa) = 82.88876 58.08410 35.94886
#
# Poissons Ratio (x) = 0.24971 0.29652
# Poissons Ratio (y) = 0.35635 0.29017
# Poissons Ratio (z) = 0.68369 0.46883
#
# Static dielectric constant tensor:
#      x y z
#    x 3.200790 0.000000 0.000010 
#    y 0.000000 3.106850 -0.000030 
#    z 0.000010 -0.000030 3.173850 
# 
# 
# High freq. dielectric constant tensor:
#      x y z
#    x 1.661390 0.000000 0.000000 
#    y 0.000000 1.650240 0.000000 
#    z 0.000000 0.000000 1.666210 
# 
# From -- ./inp_files/6433.got.cif
#   From: 2010.06.25/outbox.cif.g09.slc.cpg/sg71_4_cif.got.tgz:6433.got - 2010.06.28 04:59:45.
