data_PCOD8290051
_publ_section_title
;
Structure prediction by ZEFSAII (Michael W. Deem and Ramdas Pophale) SiO2 
 PCOD8290051
Probable space group: I M M M
;
_chemical_formula_sum "Si O2"
_cell_formula_units_Z 88
_cell_length_a 21.541893
_cell_length_b 19.143156
_cell_length_c 11.929029
_cell_angle_alpha 90.000000
_cell_angle_beta 90.000000
_cell_angle_gamma 90.000000
_cell_volume 4919.290811
_symmetry_space_group_name_H-M "I M M M"
_symmetry_group_IT_number 71
_symmetry_cell_setting 'orthorhombic'
loop_
_space_group_symop_operation_xyz
x,y,z
-x,-y,z
x,-y,-z
-x,y,-z
-x,-y,-z
x,y,-z
-x,y,z
x,-y,z
1/2+x,1/2+y,1/2+z
1/2-x,1/2-y,1/2+z
1/2+x,1/2-y,1/2-z
1/2-x,1/2+y,1/2-z
1/2-x,1/2-y,1/2-z
1/2+x,1/2+y,1/2-z
1/2-x,1/2+y,1/2+z
1/2+x,1/2-y,1/2+z
loop_
_atom_site_type_symbol
_atom_site_label
_atom_site_fract_x
_atom_site_fract_y
_atom_site_fract_z
Si Si1 0.427683 0.697090 0.500000
Si Si2 0.822863 0.229926 0.370569
Si Si3 0.830333 0.080038 0.000000
Si Si4 0.754708 0.140638 0.200653
Si Si5 0.072032 0.716199 0.216606
Si Si6 0.873303 0.580066 0.733927
Si Si7 0.431485 0.081224 0.000000
O O1 0.500000 0.680741 0.500000
O O2 0.393279 0.623814 0.500000
O O3 0.407311 0.741204 0.607698
O O4 0.832321 0.209671 0.500000
O O5 0.799416 0.161520 0.303728
O O6 0.771253 0.290092 0.359338
O O7 0.888461 0.255785 0.321299
O O8 0.791049 0.095015 0.889186
O O9 0.850506 0.000000 0.000000
O O10 0.699755 0.092411 0.250180
O O11 0.087480 0.634365 0.190195
O O12 0.000000 0.725847 0.244723
O O13 0.890926 0.500000 0.763537
O O14 0.891197 0.602040 0.607181
O O15 0.500000 0.117861 0.000000
O O16 0.443558 0.000000 0.000000
#
# Coordination Sequence:
#
# PCOD8290051 Si02
#       7
#     8  16   8  16  16  16   8
#     4  10  22  42  58  81 111 137 183 238 291 334
#     4  10  20  35  57  82 113 148 188 232 279 335
#     4  12  21  35  63  86 108 141 183 233 287 335
#     4  10  20  34  52  84 115 145 186 232 282 327
#     4  10  21  36  58  81 110 149 186 233 279 333
#     4  10  20  33  49  78 116 152 188 224 270 328
#     4   9  17  29  46  72 113 154 184 225 272 312
#
# _framework density 17.888756999999998
#
# number of rings (size 3 to 8) (size 9 to 14) (size 15 to 20)
#    0.000    1.909    2.727    1.636    3.818    2.364 
#    0.000    0.455    0.000    3.273    0.000    0.000 
#    0.000    2.909    0.000    0.000    0.000    0.000 
#
# Total GULP energy -545598.726960 kJ/mol
# GULP energy per Si atom -12399.971067 kJ/mol
# Density = 1.784804 g / cm^3
# Si number density = 17.888757 Si / 1000 Ang^3
#
#
#
# Elastic Constant Matrix: (Units=GPa)
#
#
# Indices 1 2 3 4 5 6 
#
# 1 82.6563 47.8328 42.6242 0.0000 0.0000 0.0000
# 2 47.8328 113.6997 52.2326 0.0000 0.0000 0.0000
# 3 42.6242 52.2326 102.8121 0.0000 0.0000 0.0000
# 4 0.0000 0.0000 0.0000 19.2954 0.0000 0.0000
# 5 0.0000 0.0000 0.0000 0.0000 21.1853 0.0000
# 6 0.0000 0.0000 0.0000 0.0000 0.0000 16.4460
#
#
#
# Elastic Compliance Matrix: (Units=1/GPa)
#
#
# Indices 1 2 3 4 5 6 
#
# 1 0.017506 -0.005258 -0.004587 0.000000 0.000000 0.000000
# 2 -0.005258 0.013052 -0.004451 0.000000 0.000000 0.000000
# 3 -0.004587 -0.004451 0.013889 0.000000 0.000000 0.000000
# 4 0.000000 0.000000 0.000000 0.051826 0.000000 0.000000
# 5 0.000000 0.000000 0.000000 0.000000 0.047202 0.000000
# 6 0.000000 0.000000 0.000000 0.000000 0.000000 0.060805
#
#
# Mechanical properties :
#
#
# Convention : Reuss Voigt Hill
#
# Bulk Modulus (GPa) = 63.06576 64.94970 64.00773
# Shear Modulus (GPa) = 20.99458 21.81725 21.40592
#
# Velocity S-wave (km/s) = 3.42953 3.49608 3.46296
# Velocity P-wave (km/s) = 7.14235 7.25831 7.20056
#
# Compressibility (1/GPa) = 0.01585646
#
# Stress axis : x y z
#
# Youngs Moduli (GPa) = 57.12289 76.61810 71.99759
#
# Poissons Ratio (x) = 0.40283 0.33023
# Poissons Ratio (y) = 0.30033 0.32047
# Poissons Ratio (z) = 0.26200 0.34103
#
# Static dielectric constant tensor:
#      x y z
#    x 3.331550 0.000000 0.000000 
#    y 0.000000 3.236670 0.000000 
#    z 0.000000 0.000000 3.298270 
# 
# 
# High freq. dielectric constant tensor:
#      x y z
#    x 1.698770 0.000000 0.000000 
#    y 0.000000 1.677900 0.000000 
#    z 0.000000 0.000000 1.676780 
# 
# From -- ./inp_files/24020.got.cif
#   From: 2010.06.25/outbox.cif.g09.slc.cpg/sg71_13_cif.got.tgz:24020.got - 2010.06.28 04:59:45.
