data_PCOD8290308
_publ_section_title
;
Structure prediction by ZEFSAII (Michael W. Deem and Ramdas Pophale) SiO2 
 PCOD8290308
Probable space group: I M M M
;
_chemical_formula_sum "Si O2"
_cell_formula_units_Z 80
_cell_length_a 12.207805
_cell_length_b 16.743740
_cell_length_c 19.972332
_cell_angle_alpha 90.000000
_cell_angle_beta 90.000000
_cell_angle_gamma 90.000000
_cell_volume 4082.430799
_symmetry_space_group_name_H-M "I M M M"
_symmetry_group_IT_number 71
_symmetry_cell_setting 'orthorhombic'
loop_
_space_group_symop_operation_xyz
x,y,z
-x,-y,z
x,-y,-z
-x,y,-z
-x,-y,-z
x,y,-z
-x,y,z
x,-y,z
1/2+x,1/2+y,1/2+z
1/2-x,1/2-y,1/2+z
1/2+x,1/2-y,1/2-z
1/2-x,1/2+y,1/2-z
1/2-x,1/2-y,1/2-z
1/2+x,1/2+y,1/2-z
1/2-x,1/2+y,1/2+z
1/2+x,1/2-y,1/2+z
loop_
_atom_site_type_symbol
_atom_site_label
_atom_site_fract_x
_atom_site_fract_y
_atom_site_fract_z
Si Si1 0.377175 0.344201 0.264630
Si Si2 0.206270 0.312201 0.835655
Si Si3 0.181527 0.309198 0.573469
Si Si4 0.500000 0.904015 0.156683
Si Si5 0.620765 0.589414 0.597067
Si Si6 0.500000 0.093130 0.683011
O O1 0.500000 0.344440 0.235141
O O2 0.291531 0.365394 0.206789
O O3 0.350385 0.257011 0.292923
O O4 0.362355 0.409190 0.322787
O O5 0.278555 0.275496 0.896296
O O6 0.106582 0.370732 0.854825
O O7 0.126060 0.295536 0.500000
O O8 0.290662 0.359021 0.558916
O O9 0.104813 0.359603 0.624035
O O10 0.500000 0.889388 0.236493
O O11 0.500000 0.000000 0.140292
O O12 0.500000 0.623841 0.579835
O O13 0.631793 0.500000 0.571072
O O14 0.500000 0.000000 0.669236
#
# Coordination Sequence:
#
# PCOD8290308 Si02
#       6
#    16  16  16   8  16   8
#     4   9  16  29  52  77 107 143 183 228 290 333
#     4  10  20  33  54  79 110 146 193 243 287 343
#     4  11  24  37  53  78 115 163 201 226 267 331
#     4  11  23  38  59  91 127 157 192 237 283 344
#     4   9  18  32  50  77 110 144 184 227 271 326
#     4  11  22  39  63  91 116 142 186 253 325 362
#
# _framework density 19.596169
#
# number of rings (size 3 to 8) (size 9 to 14) (size 15 to 20)
#    0.000    2.000    1.000    4.500    2.800    4.800 
#    0.000    1.000    0.000    1.200    0.000    0.000 
#    0.000    1.600    0.000    0.000    0.000    0.000 
#
# Total GULP energy -495628.113838 kJ/mol
# GULP energy per Si atom -12390.702846 kJ/mol
# Density = 1.955157 g / cm^3
# Si number density = 19.596169 Si / 1000 Ang^3
#
#
#
# Elastic Constant Matrix: (Units=GPa)
#
#
# Indices 1 2 3 4 5 6 
#
# 1 95.4048 27.3958 21.7771 0.0000 0.0000 0.0000
# 2 27.3958 72.6431 28.6247 0.0000 0.0000 0.0000
# 3 21.7771 28.6247 65.2440 0.0000 0.0000 0.0000
# 4 0.0000 0.0000 0.0000 4.3267 0.0000 0.0000
# 5 0.0000 0.0000 0.0000 0.0000 6.8864 0.0000
# 6 0.0000 0.0000 0.0000 0.0000 0.0000 29.8608
#
#
#
# Elastic Compliance Matrix: (Units=1/GPa)
#
#
# Indices 1 2 3 4 5 6 
#
# 1 0.012072 -0.003585 -0.002457 0.000000 0.000000 0.000000
# 2 -0.003585 0.017708 -0.006572 0.000000 0.000000 0.000000
# 3 -0.002457 -0.006572 0.019031 0.000000 0.000000 0.000000
# 4 0.000000 0.000000 0.000000 0.231126 0.000000 0.000000
# 5 0.000000 0.000000 0.000000 0.000000 0.145214 0.000000
# 6 0.000000 0.000000 0.000000 0.000000 0.000000 0.033489
#
#
# Mechanical properties :
#
#
# Convention : Reuss Voigt Hill
#
# Bulk Modulus (GPa) = 42.40405 43.20966 42.80685
# Shear Modulus (GPa) = 10.16824 18.58105 14.37465
#
# Velocity S-wave (km/s) = 2.28039 3.08262 2.71134
# Velocity P-wave (km/s) = 5.34972 5.89644 5.62972
#
# Compressibility (1/GPa) = 0.02358265
#
# Stress axis : x y z
#
# Youngs Moduli (GPa) = 82.83826 56.47288 52.54693
#
# Poissons Ratio (x) = 0.20243 0.12909
# Poissons Ratio (y) = 0.29694 0.34536
# Poissons Ratio (z) = 0.20350 0.37117
#
# Static dielectric constant tensor:
#      x y z
#    x 3.907250 0.000000 0.000000 
#    y 0.000000 3.372340 0.000000 
#    z 0.000000 0.000000 3.353300 
# 
# 
# High freq. dielectric constant tensor:
#      x y z
#    x 1.785240 0.000000 0.000000 
#    y 0.000000 1.733240 0.000000 
#    z 0.000000 0.000000 1.732490 
# 
# From -- ./inp_files/51733.got.cif
#   From: 2010.06.25/outbox.cif.g09.slc.cpg/sg71_26_cif.got.tgz:51733.got - 2010.06.28 04:59:45.
