data_PCOD8290447
_publ_section_title
;
Structure prediction by ZEFSAII (Michael W. Deem and Ramdas Pophale) SiO2 
 PCOD8290447
Probable space group: I M M M
;
_chemical_formula_sum "Si O2"
_cell_formula_units_Z 88
_cell_length_a 19.563068
_cell_length_b 8.781309
_cell_length_c 30.262363
_cell_angle_alpha 90.000000
_cell_angle_beta 90.000000
_cell_angle_gamma 90.000000
_cell_volume 5198.751521
_symmetry_space_group_name_H-M "I M M M"
_symmetry_group_IT_number 71
_symmetry_cell_setting 'orthorhombic'
loop_
_space_group_symop_operation_xyz
x,y,z
-x,-y,z
x,-y,-z
-x,y,-z
-x,-y,-z
x,y,-z
-x,y,z
x,-y,z
1/2+x,1/2+y,1/2+z
1/2-x,1/2-y,1/2+z
1/2+x,1/2-y,1/2-z
1/2-x,1/2+y,1/2-z
1/2-x,1/2-y,1/2-z
1/2+x,1/2+y,1/2-z
1/2-x,1/2+y,1/2+z
1/2+x,1/2-y,1/2+z
loop_
_atom_site_type_symbol
_atom_site_label
_atom_site_fract_x
_atom_site_fract_y
_atom_site_fract_z
Si Si1 0.713243 0.679137 0.206979
Si Si2 0.858896 0.678817 0.050851
Si Si3 0.074907 0.169549 0.818649
Si Si4 0.422999 0.176487 0.771268
Si Si5 0.000000 0.170280 0.947678
Si Si6 0.793137 0.825230 0.872161
O O1 0.721586 0.500000 0.211055
O O2 0.750000 0.750000 0.250000
O O3 0.633490 0.724149 0.203512
O O4 0.744613 0.735691 0.161143
O O5 0.859414 0.500000 0.058419
O O6 0.795970 0.751411 0.079022
O O7 0.931807 0.742263 0.067459
O O8 0.844856 0.721986 0.000000
O O9 0.085614 0.294142 0.780776
O O10 0.129358 0.193695 0.856390
O O11 0.000000 0.188892 0.840545
O O12 0.082783 0.000000 0.797453
O O13 0.500000 0.222534 0.786599
O O14 0.408934 0.000000 0.780640
O O15 0.000000 0.000000 0.927003
O O16 0.000000 0.160326 0.000000
O O17 0.768979 0.000000 0.874626
#
# Coordination Sequence:
#
# PCOD8290447 Si02
#       6
#    16  16  16  16   8  16
#     4  12  23  36  53  74 104 138 173 211 255 304
#     4  10  21  36  51  70  98 130 168 215 264 311
#     4   9  18  31  46  67  96 130 170 213 255 299
#     4  10  20  34  53  75 100 132 170 211 254 300
#     4   9  17  31  51  71  93 127 171 217 263 307
#     4  11  22  34  52  75  99 132 172 215 261 308
#
# _framework density 16.927142
#
# number of rings (size 3 to 8) (size 9 to 14) (size 15 to 20)
#    0.000    1.727    1.818    3.545    1.273    4.000 
#    0.000    0.000    0.000    0.000    0.000    0.000 
#    0.000    0.727    0.000    7.636    0.000    3.273 
#
# Total GULP energy -545500.228253 kJ/mol
# GULP energy per Si atom -12397.732460 kJ/mol
# Density = 1.688861 g / cm^3
# Si number density = 16.927142 Si / 1000 Ang^3
#
#
#
# Elastic Constant Matrix: (Units=GPa)
#
#
# Indices 1 2 3 4 5 6 
#
# 1 81.3227 46.9176 41.9978 0.0000 0.0000 0.0000
# 2 46.9176 118.5410 44.1300 0.0000 0.0000 0.0000
# 3 41.9978 44.1300 75.0775 0.0000 0.0000 0.0000
# 4 0.0000 0.0000 0.0000 26.0273 0.0000 0.0000
# 5 0.0000 0.0000 0.0000 0.0000 27.8302 0.0000
# 6 0.0000 0.0000 0.0000 0.0000 0.0000 27.4907
#
#
#
# Elastic Compliance Matrix: (Units=1/GPa)
#
#
# Indices 1 2 3 4 5 6 
#
# 1 0.019050 -0.004574 -0.007968 0.000000 0.000000 0.000000
# 2 -0.004574 0.011897 -0.004435 0.000000 0.000000 0.000000
# 3 -0.007968 -0.004435 0.020384 0.000000 0.000000 0.000000
# 4 0.000000 0.000000 0.000000 0.038421 0.000000 0.000000
# 5 0.000000 0.000000 0.000000 0.000000 0.035932 0.000000
# 6 0.000000 0.000000 0.000000 0.000000 0.000000 0.036376
#
#
# Mechanical properties :
#
#
# Convention : Reuss Voigt Hill
#
# Bulk Modulus (GPa) = 57.54376 60.11466 58.82921
# Shear Modulus (GPa) = 24.77627 25.72936 25.25282
#
# Velocity S-wave (km/s) = 3.82999 3.90296 3.86664
# Velocity P-wave (km/s) = 7.32306 7.47674 7.40030
#
# Compressibility (1/GPa) = 0.01737808
#
# Stress axis : x y z
#
# Youngs Moduli (GPa) = 52.49216 84.05517 49.05910
#
# Poissons Ratio (x) = 0.38443 0.39092
# Poissons Ratio (y) = 0.24008 0.21755
# Poissons Ratio (z) = 0.41828 0.37274
#
# Static dielectric constant tensor:
#      x y z
#    x 3.231910 0.000000 0.000000 
#    y 0.000000 3.329080 0.000000 
#    z 0.000000 0.000000 2.975640 
# 
# 
# High freq. dielectric constant tensor:
#      x y z
#    x 1.632040 0.000000 0.000000 
#    y 0.000000 1.668660 0.000000 
#    z 0.000000 0.000000 1.626980 
# 
# From -- ./inp_files/16633.got.cif
#   From: 2010.06.25/outbox.cif.g09.slc.cpg/sg71_9_cif.got.tgz:16633.got - 2010.06.28 04:59:45.
