data_PCOD8290384
_publ_section_title
;
Structure prediction by ZEFSAII (Michael W. Deem and Ramdas Pophale) SiO2 
 PCOD8290384
Probable space group: I M M M
;
_chemical_formula_sum "Si O2"
_cell_formula_units_Z 40
_cell_length_a 7.362872
_cell_length_b 32.860538
_cell_length_c 9.572778
_cell_angle_alpha 90.000000
_cell_angle_beta 90.000000
_cell_angle_gamma 90.000000
_cell_volume 2316.113871
_symmetry_space_group_name_H-M "I M M M"
_symmetry_group_IT_number 71
_symmetry_cell_setting 'orthorhombic'
loop_
_space_group_symop_operation_xyz
x,y,z
-x,-y,z
x,-y,-z
-x,y,-z
-x,-y,-z
x,y,-z
-x,y,z
x,-y,z
1/2+x,1/2+y,1/2+z
1/2-x,1/2-y,1/2+z
1/2+x,1/2-y,1/2-z
1/2-x,1/2+y,1/2-z
1/2-x,1/2-y,1/2-z
1/2+x,1/2+y,1/2-z
1/2-x,1/2+y,1/2+z
1/2+x,1/2-y,1/2+z
loop_
_atom_site_type_symbol
_atom_site_label
_atom_site_fract_x
_atom_site_fract_y
_atom_site_fract_z
Si Si1 0.706288 0.711019 0.340843
Si Si2 0.000000 0.435703 0.165450
Si Si3 0.795345 0.000000 0.334909
Si Si4 0.500000 0.146285 0.836967
O O1 0.751360 0.722987 0.500000
O O2 0.500000 0.697400 0.320839
O O3 0.750000 0.750000 0.250000
O O4 0.824461 0.672515 0.294484
O O5 0.181402 0.460229 0.211548
O O6 0.000000 0.393619 0.245079
O O7 0.000000 0.428083 0.000000
O O8 0.810974 0.000000 0.500000
O O9 0.000000 0.000000 0.269157
O O10 0.500000 0.134460 0.000000
#
# Coordination Sequence:
#
# PCOD8290384 Si02
#       4
#    16   8   8   8
#     4  10  20  34  52  72  96 131 173 213 255 301
#     4   9  18  32  52  78 100 128 170 206 243 299
#     4   8  15  31  54  76 102 130 160 206 254 292
#     4  10  21  35  49  72 108 138 162 207 263 302
#
# _framework density 17.270308
#
# number of rings (size 3 to 8) (size 9 to 14) (size 15 to 20)
#    0.000    2.600    2.000    1.200    0.000    3.200 
#    0.000    2.000    0.000    1.200    0.000    0.000 
#    0.000    0.000    0.000    0.000    0.000    0.000 
#
# Total GULP energy -247954.043077 kJ/mol
# GULP energy per Si atom -12397.702154 kJ/mol
# Density = 1.723100 g / cm^3
# Si number density = 17.270308 Si / 1000 Ang^3
#
#
#
# Elastic Constant Matrix: (Units=GPa)
#
#
# Indices 1 2 3 4 5 6 
#
# 1 165.2758 87.6056 43.1205 -0.0001 0.0000 0.0000
# 2 87.6056 172.3995 70.9092 -0.0037 -0.0001 -0.0005
# 3 43.1205 70.9092 55.4198 -0.0023 0.0003 -0.0010
# 4 -0.0001 -0.0037 -0.0023 38.4079 0.0000 -0.0007
# 5 0.0000 -0.0001 0.0003 0.0000 18.7080 -0.0002
# 6 0.0000 -0.0005 -0.0010 -0.0007 -0.0002 23.0616
#
#
#
# Elastic Compliance Matrix: (Units=1/GPa)
#
#
# Indices 1 2 3 4 5 6 
#
# 1 0.008414 -0.003341 -0.002272 0.000000 0.000000 0.000000
# 2 -0.003341 0.013571 -0.014764 0.000000 0.000000 0.000000
# 3 -0.002272 -0.014764 0.038702 0.000001 -0.000001 0.000001
# 4 0.000000 0.000000 0.000001 0.026036 0.000000 0.000001
# 5 0.000000 0.000000 -0.000001 0.000000 0.053453 0.000000
# 6 0.000000 0.000000 0.000001 0.000001 0.000000 0.043362
#
#
# Mechanical properties :
#
#
# Convention : Reuss Voigt Hill
#
# Bulk Modulus (GPa) = 50.16765 88.48510 69.32638
# Shear Modulus (GPa) = 21.65084 28.79948 25.22516
#
# Velocity S-wave (km/s) = 3.54453 4.08802 3.82594
# Velocity P-wave (km/s) = 6.77223 8.58074 7.72956
#
# Compressibility (1/GPa) = 0.01993316
#
# Stress axis : x y z
#
# Youngs Moduli (GPa) = 118.84513 73.68603 25.83831
#
# Poissons Ratio (x) = 0.24622 0.05869
# Poissons Ratio (y) = 0.39712 0.38148
# Poissons Ratio (z) = 0.26996 1.08792
#
# Static dielectric constant tensor:
#      x y z
#    x 3.876740 0.000000 0.000000 
#    y 0.000000 3.085810 0.000000 
#    z 0.000000 0.000000 3.015530 
# 
# 
# High freq. dielectric constant tensor:
#      x y z
#    x 1.686880 0.000000 0.000000 
#    y 0.000000 1.661010 0.000000 
#    z 0.000000 0.000000 1.643520 
# 
# From -- ./inp_files/1983.got.cif
#   From: 2010.06.25/outbox.cif.g09.slc.cpg/sg71_1_cif.got.tgz:1983.got - 2010.06.28 04:59:45.
