data_PCOD8290624
_publ_section_title
;
Structure prediction by ZEFSAII (Michael W. Deem and Ramdas Pophale) SiO2 
 PCOD8290624
Probable space group: I M M M
;
_chemical_formula_sum "Si O2"
_cell_formula_units_Z 88
_cell_length_a 14.476239
_cell_length_b 26.251301
_cell_length_c 13.663130
_cell_angle_alpha 90.000000
_cell_angle_beta 90.000000
_cell_angle_gamma 90.000000
_cell_volume 5192.264129
_symmetry_space_group_name_H-M "I M M M"
_symmetry_group_IT_number 71
_symmetry_cell_setting 'orthorhombic'
loop_
_space_group_symop_operation_xyz
x,y,z
-x,-y,z
x,-y,-z
-x,y,-z
-x,-y,-z
x,y,-z
-x,y,z
x,-y,z
1/2+x,1/2+y,1/2+z
1/2-x,1/2-y,1/2+z
1/2+x,1/2-y,1/2-z
1/2-x,1/2+y,1/2-z
1/2-x,1/2-y,1/2-z
1/2+x,1/2+y,1/2-z
1/2-x,1/2+y,1/2+z
1/2+x,1/2-y,1/2+z
loop_
_atom_site_type_symbol
_atom_site_label
_atom_site_fract_x
_atom_site_fract_y
_atom_site_fract_z
Si Si1 0.844779 0.091502 0.249436
Si Si2 0.500000 0.056202 0.385528
Si Si3 0.888846 0.205987 0.232954
Si Si4 0.500000 0.439930 0.109065
Si Si5 0.391133 0.500000 0.386051
Si Si6 0.685585 0.108791 0.388597
Si Si7 0.737252 0.776390 0.610079
O O1 0.868522 0.147089 0.207243
O O2 0.849841 0.050847 0.162052
O O3 0.747606 0.085793 0.302735
O O4 0.911702 0.081309 0.338592
O O5 0.500000 0.047960 0.500000
O O6 0.586859 0.089372 0.353801
O O7 0.500000 0.000000 0.335440
O O8 0.834696 0.223329 0.331427
O O9 0.841074 0.237308 0.146076
O O10 0.000000 0.215937 0.241326
O O11 0.500000 0.500000 0.111157
O O12 0.500000 0.417797 0.000000
O O13 0.500000 0.500000 0.367261
O O14 0.365456 0.500000 0.500000
O O15 0.710836 0.090274 0.500000
O O16 0.687850 0.169368 0.384291
O O17 0.764152 0.761439 0.500000
#
# Coordination Sequence:
#
# PCOD8290624 Si02
#       7
#    16   8  16   8   8  16  16
#     4  11  19  36  51  76 106 138 174 213 261 312
#     4   9  18  30  45  74 108 138 173 201 236 309
#     4  10  20  34  55  78 105 137 179 222 261 319
#     4  11  20  30  49  78 110 138 165 200 256 327
#     4  11  22  36  52  71 104 143 179 216 253 299
#     4   9  19  33  52  77 108 138 166 210 266 319
#     4   9  20  36  52  77 107 138 175 218 269 317
#
# _framework density 16.94829
#
# number of rings (size 3 to 8) (size 9 to 14) (size 15 to 20)
#    0.000    2.091    2.727    0.545    2.545    2.182 
#    0.000    0.000    0.000    0.000    0.000    1.273 
#    0.000    0.000    0.000    0.000    0.000    0.000 
#
# Total GULP energy -545329.088191 kJ/mol
# GULP energy per Si atom -12393.842913 kJ/mol
# Density = 1.690971 g / cm^3
# Si number density = 16.948290 Si / 1000 Ang^3
#
#
#
# Elastic Constant Matrix: (Units=GPa)
#
#
# Indices 1 2 3 4 5 6 
#
# 1 132.9431 53.0562 52.1743 0.0000 0.0000 0.0000
# 2 53.0562 90.5599 58.0529 -0.0002 0.0000 0.0000
# 3 52.1743 58.0529 112.6123 -0.0004 0.0000 0.0000
# 4 0.0000 -0.0002 -0.0004 14.2400 0.0000 0.0000
# 5 0.0000 0.0000 0.0000 0.0000 24.3181 0.0000
# 6 0.0000 0.0000 0.0000 0.0000 0.0000 27.4722
#
#
#
# Elastic Compliance Matrix: (Units=1/GPa)
#
#
# Indices 1 2 3 4 5 6 
#
# 1 0.010258 -0.004426 -0.002471 0.000000 0.000000 0.000000
# 2 -0.004426 0.018402 -0.007436 0.000000 0.000000 0.000000
# 3 -0.002471 -0.007436 0.013858 0.000000 0.000000 0.000000
# 4 0.000000 0.000000 0.000000 0.070225 0.000000 0.000000
# 5 0.000000 0.000000 0.000000 0.000000 0.041122 0.000000
# 6 0.000000 0.000000 0.000000 0.000000 0.000000 0.036400
#
#
# Mechanical properties :
#
#
# Convention : Reuss Voigt Hill
#
# Bulk Modulus (GPa) = 72.18828 73.63137 72.90983
# Shear Modulus (GPa) = 22.36650 24.72819 23.54735
#
# Velocity S-wave (km/s) = 3.63670 3.82388 3.73146
# Velocity P-wave (km/s) = 7.76658 7.93946 7.85350
#
# Compressibility (1/GPa) = 0.01385266
#
# Stress axis : x y z
#
# Youngs Moduli (GPa) = 97.48375 54.34140 72.15904
#
# Poissons Ratio (x) = 0.24050 0.17831
# Poissons Ratio (y) = 0.43144 0.53658
# Poissons Ratio (z) = 0.24089 0.40408
#
# Static dielectric constant tensor:
#      x y z
#    x 3.781410 0.000000 0.000000 
#    y 0.000000 3.360580 0.000000 
#    z 0.000000 0.000000 3.192210 
# 
# 
# High freq. dielectric constant tensor:
#      x y z
#    x 1.654130 0.000000 0.000000 
#    y 0.000000 1.661830 0.000000 
#    z 0.000000 0.000000 1.639010 
# 
# From -- ./inp_files/35015.got.cif
#   From: 2010.06.25/outbox.cif.g09.slc.cpg/sg71_18_cif.got.tgz:35015.got - 2010.06.28 04:59:45.
