data_PCOD8290199
_publ_section_title
;
Structure prediction by ZEFSAII (Michael W. Deem and Ramdas Pophale) SiO2 
 PCOD8290199
Probable space group: I M M M
;
_chemical_formula_sum "Si O2"
_cell_formula_units_Z 88
_cell_length_a 21.818905
_cell_length_b 22.735139
_cell_length_c 9.873897
_cell_angle_alpha 90.000000
_cell_angle_beta 90.000000
_cell_angle_gamma 90.000000
_cell_volume 4898.004251
_symmetry_space_group_name_H-M "I M M M"
_symmetry_group_IT_number 71
_symmetry_cell_setting 'orthorhombic'
loop_
_space_group_symop_operation_xyz
x,y,z
-x,-y,z
x,-y,-z
-x,y,-z
-x,-y,-z
x,y,-z
-x,y,z
x,-y,z
1/2+x,1/2+y,1/2+z
1/2-x,1/2-y,1/2+z
1/2+x,1/2-y,1/2-z
1/2-x,1/2+y,1/2-z
1/2-x,1/2-y,1/2-z
1/2+x,1/2+y,1/2-z
1/2-x,1/2+y,1/2+z
1/2+x,1/2-y,1/2+z
loop_
_atom_site_type_symbol
_atom_site_label
_atom_site_fract_x
_atom_site_fract_y
_atom_site_fract_z
Si Si1 0.370346 0.882731 0.159279
Si Si2 0.927831 0.065714 0.848783
Si Si3 0.652901 0.365380 0.847766
Si Si4 0.227961 0.566589 0.153921
Si Si5 0.500000 0.066810 0.159535
Si Si6 0.806972 0.738232 0.347070
O O1 0.328753 0.927136 0.244790
O O2 0.440247 0.895828 0.204998
O O3 0.349761 0.816360 0.197515
O O4 0.361465 0.895362 0.000000
O O5 0.901009 0.112367 0.746048
O O6 0.000000 0.071217 0.842881
O O7 0.907130 0.000000 0.807539
O O8 0.904219 0.079907 0.000000
O O9 0.718380 0.389783 0.796404
O O10 0.649962 0.295165 0.841097
O O11 0.641598 0.388446 0.000000
O O12 0.252343 0.500000 0.162263
O O13 0.207830 0.582294 0.000000
O O14 0.500000 0.000000 0.221198
O O15 0.500000 0.060571 0.000000
O O16 0.781909 0.728623 0.500000
O O17 0.750000 0.750000 0.250000
#
# Coordination Sequence:
#
# PCOD8290199 Si02
#       6
#    16  16  16  16   8  16
#     4  10  20  35  56  80 104 138 182 224 268 318
#     4   9  19  36  55  76 105 139 176 220 267 314
#     4  10  20  34  52  77 107 140 176 215 266 325
#     4  10  20  33  51  77 109 140 170 213 267 320
#     4   9  18  34  55  79 109 141 176 225 276 318
#     4  10  20  35  55  79 106 138 175 217 264 318
#
# _framework density 17.966501999999998
#
# number of rings (size 3 to 8) (size 9 to 14) (size 15 to 20)
#    0.000    2.273    1.818    1.636    0.000    4.000 
#    1.636    1.364    0.000    1.636    0.000    0.000 
#    0.000    0.000    0.000    0.000    0.000    0.000 
#
# Total GULP energy -545545.083500 kJ/mol
# GULP energy per Si atom -12398.751898 kJ/mol
# Density = 1.792561 g / cm^3
# Si number density = 17.966502 Si / 1000 Ang^3
#
#
#
# Elastic Constant Matrix: (Units=GPa)
#
#
# Indices 1 2 3 4 5 6 
#
# 1 77.4595 47.5609 38.7401 0.0000 0.0000 0.0000
# 2 47.5609 106.6159 34.0270 0.0000 0.0000 0.0000
# 3 38.7401 34.0270 63.2988 0.0000 0.0000 0.0000
# 4 0.0000 0.0000 0.0000 25.8692 0.0000 0.0000
# 5 0.0000 0.0000 0.0000 0.0000 32.3931 0.0000
# 6 0.0000 0.0000 0.0000 0.0000 0.0000 31.9408
#
#
#
# Elastic Compliance Matrix: (Units=1/GPa)
#
#
# Indices 1 2 3 4 5 6 
#
# 1 0.021903 -0.006630 -0.009841 0.000000 0.000000 0.000000
# 2 -0.006630 0.013329 -0.003107 0.000000 0.000000 0.000000
# 3 -0.009841 -0.003107 0.023491 0.000000 0.000000 0.000000
# 4 0.000000 0.000000 0.000000 0.038656 0.000000 0.000000
# 5 0.000000 0.000000 0.000000 0.000000 0.030871 0.000000
# 6 0.000000 0.000000 0.000000 0.000000 0.000000 0.031308
#
#
# Mechanical properties :
#
#
# Convention : Reuss Voigt Hill
#
# Bulk Modulus (GPa) = 51.10807 54.22556 52.66682
# Shear Modulus (GPa) = 24.36223 26.51034 25.43629
#
# Velocity S-wave (km/s) = 3.68636 3.84545 3.76674
# Velocity P-wave (km/s) = 6.82840 7.06849 6.94948
#
# Compressibility (1/GPa) = 0.01956638
#
# Stress axis : x y z
#
# Youngs Moduli (GPa) = 45.65686 75.02558 42.56899
#
# Poissons Ratio (x) = 0.49741 0.41891
# Poissons Ratio (y) = 0.30270 0.13228
# Poissons Ratio (z) = 0.44930 0.23314
#
# Static dielectric constant tensor:
#      x y z
#    x 3.173350 0.000000 0.000000 
#    y 0.000000 3.497330 0.000000 
#    z 0.000000 0.000000 3.316810 
# 
# 
# High freq. dielectric constant tensor:
#      x y z
#    x 1.680140 0.000000 0.000000 
#    y 0.000000 1.704280 0.000000 
#    z 0.000000 0.000000 1.688590 
# 
# From -- ./inp_files/10420.got.cif
#   From: 2010.06.25/outbox.cif.g09.slc.cpg/sg71_6_cif.got.tgz:10420.got - 2010.06.28 04:59:45.
