data_PCOD8290520
_publ_section_title
;
Structure prediction by ZEFSAII (Michael W. Deem and Ramdas Pophale) SiO2 
 PCOD8290520
Probable space group: I M M M
;
_chemical_formula_sum "Si O2"
_cell_formula_units_Z 104
_cell_length_a 27.253840
_cell_length_b 23.488406
_cell_length_c 8.565342
_cell_angle_alpha 90.000000
_cell_angle_beta 90.000000
_cell_angle_gamma 90.000000
_cell_volume 5483.097334
_symmetry_space_group_name_H-M "I M M M"
_symmetry_group_IT_number 71
_symmetry_cell_setting 'orthorhombic'
loop_
_space_group_symop_operation_xyz
x,y,z
-x,-y,z
x,-y,-z
-x,y,-z
-x,-y,-z
x,y,-z
-x,y,z
x,-y,z
1/2+x,1/2+y,1/2+z
1/2-x,1/2-y,1/2+z
1/2+x,1/2-y,1/2-z
1/2-x,1/2+y,1/2-z
1/2-x,1/2-y,1/2-z
1/2+x,1/2+y,1/2-z
1/2-x,1/2+y,1/2+z
1/2+x,1/2-y,1/2+z
loop_
_atom_site_type_symbol
_atom_site_label
_atom_site_fract_x
_atom_site_fract_y
_atom_site_fract_z
Si Si1 0.378359 0.713330 0.679394
Si Si2 0.810726 0.500000 0.183980
Si Si3 0.297331 0.500000 0.684600
Si Si4 0.352528 0.119777 0.683673
Si Si5 0.704660 0.217602 0.821404
Si Si6 0.446815 0.500000 0.183328
Si Si7 0.445933 0.813106 0.318792
Si Si8 0.630573 0.409205 0.184903
O O1 0.360819 0.720979 0.500000
O O2 0.341123 0.741326 0.799612
O O3 0.429750 0.746933 0.704136
O O4 0.380121 0.647693 0.720994
O O5 0.760149 0.500000 0.277851
O O6 0.843520 0.554515 0.232611
O O7 0.798784 0.500000 0.000000
O O8 0.305699 0.500000 0.500000
O O9 0.320995 0.442831 0.758286
O O10 0.354110 0.127280 0.500000
O O11 0.306220 0.156652 0.742729
O O12 0.404432 0.143920 0.753202
O O13 0.750000 0.250000 0.750000
O O14 0.715754 0.205593 0.000000
O O15 0.500000 0.500000 0.266296
O O16 0.417064 0.555344 0.233497
O O17 0.453421 0.500000 0.000000
O O18 0.450818 0.827404 0.500000
O O19 0.500000 0.821793 0.240155
O O20 0.635348 0.398607 0.000000
#
# Coordination Sequence:
#
# PCOD8290520 Si02
#       8
#    16   8   8  16  16   8  16  16
#     4  10  20  34  53  79 110 142 181 223 268 326
#     4  10  21  37  57  80 112 148 186 228 277 329
#     4  11  23  37  54  75 104 145 190 234 278 329
#     4   9  19  36  56  81 112 146 184 227 273 327
#     4  11  22  36  55  78 108 143 180 224 275 326
#     4   8  16  32  52  73 101 140 183 226 273 323
#     4   8  15  31  55  81 111 145 180 223 275 326
#     4  10  20  35  54  77 108 143 182 228 277 327
#
# _framework density 18.967383000000002
#
# number of rings (size 3 to 8) (size 9 to 14) (size 15 to 20)
#    0.000    2.385    0.000    4.385    2.154    1.231 
#    0.000    0.385    0.000   21.231    0.000    0.000 
#    0.000    5.538    0.000    0.000    0.000    0.000 
#
# Total GULP energy -644455.182907 kJ/mol
# GULP energy per Si atom -12393.368902 kJ/mol
# Density = 1.892421 g / cm^3
# Si number density = 18.967383 Si / 1000 Ang^3
#
#
#
# Elastic Constant Matrix: (Units=GPa)
#
#
# Indices 1 2 3 4 5 6 
#
# 1 125.0554 64.0801 30.2596 0.0000 0.0000 0.0000
# 2 64.0801 159.3729 26.8498 0.0000 0.0000 0.0000
# 3 30.2596 26.8498 40.6313 0.0000 0.0000 0.0000
# 4 0.0000 0.0000 0.0000 26.8708 0.0000 0.0000
# 5 0.0000 0.0000 0.0000 0.0000 16.1533 0.0000
# 6 0.0000 0.0000 0.0000 0.0000 0.0000 18.1926
#
#
#
# Elastic Compliance Matrix: (Units=1/GPa)
#
#
# Indices 1 2 3 4 5 6 
#
# 1 0.011261 -0.003505 -0.006071 0.000000 0.000000 0.000000
# 2 -0.003505 0.008152 -0.002776 0.000000 0.000000 0.000000
# 3 -0.006071 -0.002776 0.030967 0.000000 0.000000 0.000000
# 4 0.000000 0.000000 0.000000 0.037215 0.000000 0.000000
# 5 0.000000 0.000000 0.000000 0.000000 0.061907 0.000000
# 6 0.000000 0.000000 0.000000 0.000000 0.000000 0.054967
#
#
# Mechanical properties :
#
#
# Convention : Reuss Voigt Hill
#
# Bulk Modulus (GPa) = 38.94655 63.04875 50.99765
# Shear Modulus (GPa) = 21.03207 25.83470 23.43338
#
# Velocity S-wave (km/s) = 3.33356 3.69461 3.51872
# Velocity P-wave (km/s) = 5.94936 7.17726 6.59196
#
# Compressibility (1/GPa) = 0.02567622
#
# Stress axis : x y z
#
# Youngs Moduli (GPa) = 88.79821 122.67377 32.29228
#
# Poissons Ratio (x) = 0.43000 0.19603
# Poissons Ratio (y) = 0.31126 0.08965
# Poissons Ratio (z) = 0.53905 0.34058
#
# Static dielectric constant tensor:
#      x y z
#    x 3.866940 0.000000 0.000000 
#    y 0.000000 3.586330 0.000000 
#    z 0.000000 0.000000 2.776770 
# 
# 
# High freq. dielectric constant tensor:
#      x y z
#    x 1.734970 0.000000 0.000000 
#    y 0.000000 1.740390 0.000000 
#    z 0.000000 0.000000 1.717980 
# 
# From -- ./inp_files/15351.got.cif
#   From: 2010.06.25/outbox.cif.g09.slc.cpg/sg71_8_cif.got.tgz:15351.got - 2010.06.28 04:59:45.
