data_PCOD8290524
_publ_section_title
;
Structure prediction by ZEFSAII (Michael W. Deem and Ramdas Pophale) SiO2 
 PCOD8290524
Probable space group: I M M M
;
_chemical_formula_sum "Si O2"
_cell_formula_units_Z 88
_cell_length_a 13.517441
_cell_length_b 26.348012
_cell_length_c 13.451643
_cell_angle_alpha 90.000000
_cell_angle_beta 90.000000
_cell_angle_gamma 90.000000
_cell_volume 4790.906201
_symmetry_space_group_name_H-M "I M M M"
_symmetry_group_IT_number 71
_symmetry_cell_setting 'orthorhombic'
loop_
_space_group_symop_operation_xyz
x,y,z
-x,-y,z
x,-y,-z
-x,y,-z
-x,-y,-z
x,y,-z
-x,y,z
x,-y,z
1/2+x,1/2+y,1/2+z
1/2-x,1/2-y,1/2+z
1/2+x,1/2-y,1/2-z
1/2-x,1/2+y,1/2-z
1/2-x,1/2-y,1/2-z
1/2+x,1/2+y,1/2-z
1/2-x,1/2+y,1/2+z
1/2+x,1/2-y,1/2+z
loop_
_atom_site_type_symbol
_atom_site_label
_atom_site_fract_x
_atom_site_fract_y
_atom_site_fract_z
Si Si1 0.889631 0.387033 0.112818
Si Si2 0.288694 0.296877 0.381468
Si Si3 0.117571 0.000000 0.889339
Si Si4 0.804539 0.057903 0.386407
Si Si5 0.386520 0.211326 0.261088
Si Si6 0.114859 0.896063 0.796281
O O1 0.812643 0.432669 0.129876
O O2 0.861179 0.340950 0.184284
O O3 0.000000 0.407571 0.136110
O O4 0.883292 0.366638 0.000000
O O5 0.284845 0.293339 0.500000
O O6 0.366719 0.256856 0.337962
O O7 0.180346 0.284266 0.337512
O O8 0.322114 0.352414 0.347379
O O9 0.157237 0.949059 0.838296
O O10 0.000000 0.000000 0.885581
O O11 0.159221 0.000000 0.000000
O O12 0.835187 0.067680 0.500000
O O13 0.867530 0.098561 0.322261
O O14 0.828986 0.000000 0.355828
O O15 0.500000 0.214119 0.226752
O O16 0.000000 0.886663 0.820133
#
# Coordination Sequence:
#
# PCOD8290524 Si02
#       6
#    16  16   8  16  16  16
#     4   9  17  32  56  81 106 139 179 224 273 325
#     4  11  23  38  59  85 112 144 183 226 273 326
#     4   9  18  32  51  73 100 139 183 227 271 314
#     4  10  20  34  53  79 111 145 183 228 279 333
#     4  10  21  38  59  84 113 144 179 222 272 326
#     4  11  21  35  53  78 110 143 185 231 272 324
#
# _framework density 18.368133
#
# number of rings (size 3 to 8) (size 9 to 14) (size 15 to 20)
#    0.000    1.909    2.727    1.636    0.000    4.000 
#    0.000    2.727    0.000    2.182    0.000    0.000 
#    0.000    5.818    0.000    0.000    0.000    0.000 
#
# Total GULP energy -545561.373879 kJ/mol
# GULP energy per Si atom -12399.122134 kJ/mol
# Density = 1.832633 g / cm^3
# Si number density = 18.368133 Si / 1000 Ang^3
#
#
#
# Elastic Constant Matrix: (Units=GPa)
#
#
# Indices 1 2 3 4 5 6 
#
# 1 67.7991 27.3177 30.7249 0.0000 0.0000 0.0000
# 2 27.3177 78.3124 46.3276 0.0000 0.0000 0.0000
# 3 30.7249 46.3276 111.5806 0.0001 0.0000 0.0000
# 4 0.0000 0.0000 0.0001 27.0643 0.0000 0.0000
# 5 0.0000 0.0000 0.0000 0.0000 20.8837 0.0000
# 6 0.0000 0.0000 0.0000 0.0000 0.0000 24.9904
#
#
#
# Elastic Compliance Matrix: (Units=1/GPa)
#
#
# Indices 1 2 3 4 5 6 
#
# 1 0.017937 -0.004421 -0.003104 0.000000 0.000000 0.000000
# 2 -0.004421 0.018017 -0.006263 0.000000 0.000000 0.000000
# 3 -0.003104 -0.006263 0.012417 0.000000 0.000000 0.000000
# 4 0.000000 0.000000 0.000000 0.036949 0.000000 0.000000
# 5 0.000000 0.000000 0.000000 0.000000 0.047884 0.000000
# 6 0.000000 0.000000 0.000000 0.000000 0.000000 0.040015
#
#
# Mechanical properties :
#
#
# Convention : Reuss Voigt Hill
#
# Bulk Modulus (GPa) = 48.08701 51.82584 49.95642
# Shear Modulus (GPa) = 24.07007 24.80915 24.43961
#
# Velocity S-wave (km/s) = 3.62391 3.67912 3.65162
# Velocity P-wave (km/s) = 6.61413 6.80619 6.71085
#
# Compressibility (1/GPa) = 0.02079564
#
# Stress axis : x y z
#
# Youngs Moduli (GPa) = 55.74987 55.50436 80.53407
#
# Poissons Ratio (x) = 0.24539 0.24995
# Poissons Ratio (y) = 0.24647 0.50439
# Poissons Ratio (z) = 0.17303 0.34762
#
# Static dielectric constant tensor:
#      x y z
#    x 3.276060 0.000000 0.000000 
#    y 0.000000 3.407650 0.000000 
#    z 0.000000 0.000000 3.400900 
# 
# 
# High freq. dielectric constant tensor:
#      x y z
#    x 1.702550 0.000000 0.000000 
#    y 0.000000 1.713950 0.000000 
#    z 0.000000 0.000000 1.711700 
# 
# From -- ./inp_files/22283.got.cif
#   From: 2010.06.25/outbox.cif.g09.slc.cpg/sg71_12_cif.got.tgz:22283.got - 2010.06.28 04:59:45.
