data_PCOD8290126
_publ_section_title
;
Structure prediction by ZEFSAII (Michael W. Deem and Ramdas Pophale) SiO2 
 PCOD8290126
Probable space group: I M M M
;
_chemical_formula_sum "Si O2"
_cell_formula_units_Z 64
_cell_length_a 8.908658
_cell_length_b 17.732463
_cell_length_c 23.373140
_cell_angle_alpha 90.000000
_cell_angle_beta 90.000000
_cell_angle_gamma 90.000000
_cell_volume 3692.312152
_symmetry_space_group_name_H-M "I M M M"
_symmetry_group_IT_number 71
_symmetry_cell_setting 'orthorhombic'
loop_
_space_group_symop_operation_xyz
x,y,z
-x,-y,z
x,-y,-z
-x,y,-z
-x,-y,-z
x,y,-z
-x,y,z
x,-y,z
1/2+x,1/2+y,1/2+z
1/2-x,1/2-y,1/2+z
1/2+x,1/2-y,1/2-z
1/2-x,1/2+y,1/2-z
1/2-x,1/2-y,1/2-z
1/2+x,1/2+y,1/2-z
1/2-x,1/2+y,1/2+z
1/2+x,1/2-y,1/2+z
loop_
_atom_site_type_symbol
_atom_site_label
_atom_site_fract_x
_atom_site_fract_y
_atom_site_fract_z
Si Si1 0.675367 0.000000 0.259913
Si Si2 0.170155 0.583872 0.866291
Si Si3 0.321467 0.000000 0.866811
Si Si4 0.326358 0.710979 0.934480
Si Si5 0.674541 0.635043 0.566647
O O1 0.714190 0.074458 0.298522
O O2 0.500000 0.000000 0.248998
O O3 0.750887 0.000000 0.197422
O O4 0.181057 0.500000 0.894624
O O5 0.285889 0.639630 0.895885
O O6 0.000000 0.614675 0.873090
O O7 0.265952 0.925844 0.898236
O O8 0.500000 0.000000 0.866822
O O9 0.500000 0.730916 0.926160
O O10 0.229581 0.782473 0.914410
O O11 0.289333 0.690396 0.000000
O O12 0.707995 0.621528 0.500000
O O13 0.500000 0.626810 0.580721
#
# Coordination Sequence:
#
# PCOD8290126 Si02
#       5
#     8  16   8  16  16
#     4   7  16  34  53  74 100 133 170 209 246 291
#     4   8  16  33  54  73 100 136 172 206 243 295
#     4  11  20  34  57  79 101 130 166 209 258 301
#     4  10  20  33  50  76 107 134 165 209 257 298
#     4  10  21  36  53  75 104 135 168 205 247 302
#
# _framework density 17.333311999999999
#
# number of rings (size 3 to 8) (size 9 to 14) (size 15 to 20)
#    0.750    2.000    0.000    2.250    0.000    5.500 
#    0.000    6.250    0.000    0.000    0.000    0.000 
#    0.000    0.000    0.000    0.000    0.000    0.000 
#
# Total GULP energy -396540.982965 kJ/mol
# GULP energy per Si atom -12391.905718 kJ/mol
# Density = 1.729386 g / cm^3
# Si number density = 17.333312 Si / 1000 Ang^3
#
#
#
# Elastic Constant Matrix: (Units=GPa)
#
#
# Indices 1 2 3 4 5 6 
#
# 1 68.6442 39.8293 42.8063 0.0000 0.0000 0.0000
# 2 39.8293 100.8854 63.8269 0.0000 0.0000 0.0000
# 3 42.8063 63.8269 91.7029 0.0000 0.0000 0.0000
# 4 0.0000 0.0000 0.0000 -178.3645 0.0000 0.0000
# 5 0.0000 0.0000 0.0000 0.0000 21.2175 0.0000
# 6 0.0000 0.0000 0.0000 0.0000 0.0000 35.9767
#
#
#
# Elastic Compliance Matrix: (Units=1/GPa)
#
#
# Indices 1 2 3 4 5 6 
#
# 1 0.021332 -0.003791 -0.007319 0.000000 0.000000 0.000000
# 2 -0.003791 0.018385 -0.011027 0.000000 0.000000 0.000000
# 3 -0.007319 -0.011027 0.021996 0.000000 0.000000 0.000000
# 4 0.000000 0.000000 0.000000 -0.005606 0.000000 0.000000
# 5 0.000000 0.000000 0.000000 0.000000 0.047131 0.000000
# 6 0.000000 0.000000 0.000000 0.000000 0.000000 0.027796
#
#
# Mechanical properties :
#
#
# Convention : Reuss Voigt Hill
#
# Bulk Modulus (GPa) = 57.34153 61.57305 59.45729
# Shear Modulus (GPa) = 27.60608 -16.58273 5.51167
#
# Velocity S-wave (km/s) = 3.99514 -3.09641 1.78514
# Velocity P-wave (km/s) = 7.37801 4.77665 6.21496
#
# Compressibility (1/GPa) = 0.01743937
#
# Stress axis : x y z
#
# Youngs Moduli (GPa) = 46.87882 54.39116 45.46318
#
# Poissons Ratio (x) = 0.20622 0.33272
# Poissons Ratio (y) = 0.17774 0.50131
# Poissons Ratio (z) = 0.34308 0.59976
#
# Static dielectric constant tensor:
#      x y z
#    x 3.112650 0.000000 0.000000 
#    y 0.000000 3.122830 0.000000 
#    z 0.000000 0.000000 3.368140 
# 
# 
# High freq. dielectric constant tensor:
#      x y z
#    x 1.668070 0.000000 0.000000 
#    y 0.000000 1.663270 0.000000 
#    z 0.000000 0.000000 1.658440 
# 
# From -- ./inp_files/57185.got.cif
#   From: 2010.06.25/outbox.cif.g09.slc.cpg/sg71_29_cif.got.tgz:57185.got - 2010.06.28 04:59:45.
