data_PCOD8290585
_publ_section_title
;
Structure prediction by ZEFSAII (Michael W. Deem and Ramdas Pophale) SiO2 
 PCOD8290585
Probable space group: I M M M
;
_chemical_formula_sum "Si O2"
_cell_formula_units_Z 80
_cell_length_a 11.065441
_cell_length_b 29.550779
_cell_length_c 12.749724
_cell_angle_alpha 90.000000
_cell_angle_beta 90.000000
_cell_angle_gamma 90.000000
_cell_volume 4169.062870
_symmetry_space_group_name_H-M "I M M M"
_symmetry_group_IT_number 71
_symmetry_cell_setting 'orthorhombic'
loop_
_space_group_symop_operation_xyz
x,y,z
-x,-y,z
x,-y,-z
-x,y,-z
-x,-y,-z
x,y,-z
-x,y,z
x,-y,z
1/2+x,1/2+y,1/2+z
1/2-x,1/2-y,1/2+z
1/2+x,1/2-y,1/2-z
1/2-x,1/2+y,1/2-z
1/2-x,1/2-y,1/2-z
1/2+x,1/2+y,1/2-z
1/2-x,1/2+y,1/2+z
1/2+x,1/2-y,1/2+z
loop_
_atom_site_type_symbol
_atom_site_label
_atom_site_fract_x
_atom_site_fract_y
_atom_site_fract_z
Si Si1 0.359207 0.500000 0.811186
Si Si2 0.641967 0.401754 0.879329
Si Si3 0.000000 0.562867 0.617160
Si Si4 0.237911 0.679213 0.758679
Si Si5 0.863167 0.756953 0.883520
Si Si6 0.000000 0.331765 0.378048
Si Si7 0.296548 0.000000 0.122529
O O1 0.500000 0.500000 0.823489
O O2 0.311927 0.546338 0.865461
O O3 0.326551 0.500000 0.688105
O O4 0.500000 0.396803 0.849217
O O5 0.723927 0.369574 0.804559
O O6 0.662668 0.387677 0.000000
O O7 0.000000 0.615190 0.623438
O O8 0.875031 0.543158 0.663011
O O9 0.000000 0.543352 0.500000
O O10 0.219405 0.714105 0.853758
O O11 0.346486 0.698848 0.688762
O O12 0.119472 0.682215 0.684663
O O13 0.000000 0.740401 0.875605
O O14 0.827353 0.771886 0.000000
O O15 0.000000 0.313949 0.500000
O O16 0.260102 0.000000 0.000000
#
# Coordination Sequence:
#
# PCOD8290585 Si02
#       7
#     8  16   8  16  16   8   8
#     4  10  20  34  54  80 113 149 182 229 282 336
#     4  10  21  38  59  83 111 147 192 238 285 337
#     4   8  16  29  48  70 100 138 180 224 271 315
#     4  11  21  36  58  84 110 149 188 233 275 340
#     4  10  21  38  57  80 112 147 183 230 285 335
#     4  11  21  34  52  82 114 146 185 229 275 330
#     4   9  16  30  50  74 104 144 185 229 276 325
#
# _framework density 19.188966000000001
#
# number of rings (size 3 to 8) (size 9 to 14) (size 15 to 20)
#    0.000    2.000    1.000    3.900    0.000    1.400 
#    0.000    1.000    0.000    2.400    0.000    5.600 
#    0.000    0.000    0.000    0.000    0.000    0.000 
#
# Total GULP energy -495626.797381 kJ/mol
# GULP energy per Si atom -12390.669935 kJ/mol
# Density = 1.914529 g / cm^3
# Si number density = 19.188966 Si / 1000 Ang^3
#
#
#
# Elastic Constant Matrix: (Units=GPa)
#
#
# Indices 1 2 3 4 5 6 
#
# 1 45.5407 23.8476 37.2059 -0.0008 0.0004 0.0002
# 2 23.8476 111.1818 41.4512 -0.0006 0.0004 0.0002
# 3 37.2059 41.4512 107.4699 -0.0038 0.0018 0.0011
# 4 -0.0008 -0.0006 -0.0038 26.8811 0.0007 0.0004
# 5 0.0004 0.0004 0.0018 0.0007 24.5383 -0.0006
# 6 0.0002 0.0002 0.0011 0.0004 -0.0006 28.3778
#
#
#
# Elastic Compliance Matrix: (Units=1/GPa)
#
#
# Indices 1 2 3 4 5 6 
#
# 1 0.031533 -0.003146 -0.009703 -0.000001 0.000000 0.000000
# 2 -0.003146 0.010819 -0.003084 0.000000 0.000000 0.000000
# 3 -0.009703 -0.003084 0.013854 0.000002 -0.000001 0.000000
# 4 -0.000001 0.000000 0.000002 0.037201 -0.000001 0.000000
# 5 0.000000 0.000000 -0.000001 -0.000001 0.040753 0.000001
# 6 0.000000 0.000000 0.000000 0.000000 0.000001 0.035239
#
#
# Mechanical properties :
#
#
# Convention : Reuss Voigt Hill
#
# Bulk Modulus (GPa) = 41.08534 52.13352 46.60943
# Shear Modulus (GPa) = 23.88037 26.73862 25.30950
#
# Velocity S-wave (km/s) = 3.53155 3.73693 3.63569
# Velocity P-wave (km/s) = 6.17143 6.77104 6.47818
#
# Compressibility (1/GPa) = 0.02433958
#
# Stress axis : x y z
#
# Youngs Moduli (GPa) = 31.71256 92.43231 72.18359
#
# Poissons Ratio (x) = 0.29079 0.70042
# Poissons Ratio (y) = 0.09977 0.22259
# Poissons Ratio (z) = 0.30772 0.28503
#
# Static dielectric constant tensor:
#      x y z
#    x 3.410770 0.000000 0.000000 
#    y 0.000000 3.240620 0.000000 
#    z 0.000000 0.000000 3.622160 
# 
# 
# High freq. dielectric constant tensor:
#      x y z
#    x 1.736650 0.000000 0.000000 
#    y 0.000000 1.750660 0.000000 
#    z 0.000000 0.000000 1.745110 
# 
# From -- ./inp_files/20238.got.cif
#   From: 2010.06.25/outbox.cif.g09.slc.cpg/sg71_11_cif.got.tgz:20238.got - 2010.06.28 04:59:45.
