data_PCOD8290336
_publ_section_title
;
Structure prediction by ZEFSAII (Michael W. Deem and Ramdas Pophale) SiO2 
 PCOD8290336
Probable space group: I M M M
;
_chemical_formula_sum "Si O2"
_cell_formula_units_Z 96
_cell_length_a 25.801182
_cell_length_b 10.873109
_cell_length_c 23.324328
_cell_angle_alpha 90.000000
_cell_angle_beta 90.000000
_cell_angle_gamma 90.000000
_cell_volume 6543.385151
_symmetry_space_group_name_H-M "I M M M"
_symmetry_group_IT_number 71
_symmetry_cell_setting 'orthorhombic'
loop_
_space_group_symop_operation_xyz
x,y,z
-x,-y,z
x,-y,-z
-x,y,-z
-x,-y,-z
x,y,-z
-x,y,z
x,-y,z
1/2+x,1/2+y,1/2+z
1/2-x,1/2-y,1/2+z
1/2+x,1/2-y,1/2-z
1/2-x,1/2+y,1/2-z
1/2-x,1/2-y,1/2-z
1/2+x,1/2+y,1/2-z
1/2-x,1/2+y,1/2+z
1/2+x,1/2-y,1/2+z
loop_
_atom_site_type_symbol
_atom_site_label
_atom_site_fract_x
_atom_site_fract_y
_atom_site_fract_z
Si Si1 0.215285 0.144542 0.779075
Si Si2 0.854343 0.139156 0.319667
Si Si3 0.690750 0.000000 0.936998
Si Si4 0.262336 0.763660 0.885796
Si Si5 0.232639 0.854614 0.500000
Si Si6 0.442418 0.257836 0.110795
Si Si7 0.069983 0.500000 0.436293
Si Si8 0.385151 0.642953 0.000000
O O1 0.250000 0.250000 0.750000
O O2 0.158919 0.152870 0.748360
O O3 0.214680 0.188674 0.845604
O O4 0.234915 0.000000 0.773379
O O5 0.802246 0.171859 0.354640
O O6 0.904795 0.219997 0.334764
O O7 0.868533 0.000000 0.335997
O O8 0.704889 0.882233 0.900871
O O9 0.630315 0.000000 0.945000
O O10 0.717742 0.000000 0.000000
O O11 0.239541 0.697780 0.942736
O O12 0.173226 0.801946 0.500000
O O13 0.236801 0.000000 0.500000
O O14 0.500000 0.314180 0.121686
O O15 0.449483 0.114314 0.100420
O O16 0.416273 0.317754 0.055530
O O17 0.044739 0.500000 0.500000
O O18 0.377916 0.500000 0.000000
#
# Coordination Sequence:
#
# PCOD8290336 Si02
#       8
#    16  16   8  16   8  16   8   8
#     4   9  19  32  48  66  87 115 148 188 229 271
#     4  10  20  34  46  61  86 113 145 188 228 264
#     4  11  18  27  46  67  86 112 145 180 219 265
#     4  11  18  30  47  67  86 113 149 178 220 274
#     4  11  20  30  47  67  94 123 144 182 229 269
#     4  12  23  33  46  62  81 113 154 194 232 267
#     4  11  21  34  45  58  86 116 146 189 234 267
#     4  11  21  33  43  58  86 117 148 187 231 267
#
# _framework density 14.671305
#
# number of rings (size 3 to 8) (size 9 to 14) (size 15 to 20)
#    0.000    1.333    5.833    1.500    0.000    2.667 
#    0.000    0.000    0.000    0.000    0.000    0.000 
#    0.000    0.000    0.000    0.750    0.000    9.000 
#
# Total GULP energy -594678.900575 kJ/mol
# GULP energy per Si atom -12389.143762 kJ/mol
# Density = 1.463791 g / cm^3
# Si number density = 14.671305 Si / 1000 Ang^3
#
#
#
# Elastic Constant Matrix: (Units=GPa)
#
#
# Indices 1 2 3 4 5 6 
#
# 1 51.9000 23.6381 47.0508 0.0000 0.0000 0.0000
# 2 23.6381 81.5868 35.2642 0.0000 0.0000 0.0000
# 3 47.0508 35.2642 99.6105 0.0000 0.0000 0.0000
# 4 0.0000 0.0000 0.0000 24.3805 0.0000 0.0000
# 5 0.0000 0.0000 0.0000 0.0000 0.3491 0.0000
# 6 0.0000 0.0000 0.0000 0.0000 0.0000 11.8714
#
#
#
# Elastic Compliance Matrix: (Units=1/GPa)
#
#
# Indices 1 2 3 4 5 6 
#
# 1 0.034518 -0.003487 -0.015070 0.000000 0.000000 0.000000
# 2 -0.003487 0.014824 -0.003601 0.000000 0.000000 0.000000
# 3 -0.015070 -0.003601 0.018432 0.000000 0.000000 0.000000
# 4 0.000000 0.000000 0.000000 0.041016 0.000000 0.000000
# 5 0.000000 0.000000 0.000000 0.000000 2.864577 0.000000
# 6 0.000000 0.000000 0.000000 0.000000 0.000000 0.084236
#
#
# Mechanical properties :
#
#
# Convention : Reuss Voigt Hill
#
# Bulk Modulus (GPa) = 42.62947 49.44484 46.03715
# Shear Modulus (GPa) = 1.60785 15.79649 8.70217
#
# Velocity S-wave (km/s) = 1.04800 3.28486 2.43809
# Velocity P-wave (km/s) = 5.53026 6.93988 6.27478
#
# Compressibility (1/GPa) = 0.02345795
#
# Stress axis : x y z
#
# Youngs Moduli (GPa) = 28.97037 67.46023 54.25328
#
# Poissons Ratio (x) = 0.23525 0.81759
# Poissons Ratio (y) = 0.10103 0.19535
# Poissons Ratio (z) = 0.43658 0.24290
#
# Static dielectric constant tensor:
#      x y z
#    x 2.654850 0.000000 0.000000 
#    y 0.000000 3.181100 0.000000 
#    z 0.000000 0.000000 3.191920 
# 
# 
# High freq. dielectric constant tensor:
#      x y z
#    x 1.508010 0.000000 0.000000 
#    y 0.000000 1.587190 0.000000 
#    z 0.000000 0.000000 1.551090 
# 
# From -- ./inp_files/27940.got.cif
#   From: 2010.06.25/outbox.cif.g09.slc.cpg/sg71_14_cif.got.tgz:27940.got - 2010.06.28 04:59:45.
