data_PCOD8290959
_publ_section_title
;
Structure prediction by ZEFSAII (Michael W. Deem and Ramdas Pophale) SiO2 
 PCOD8290959
Probable space group: I M M M
;
_chemical_formula_sum "Si O2"
_cell_formula_units_Z 80
_cell_length_a 10.602743
_cell_length_b 23.266388
_cell_length_c 17.664601
_cell_angle_alpha 90.000000
_cell_angle_beta 90.000000
_cell_angle_gamma 90.000000
_cell_volume 4357.636833
_symmetry_space_group_name_H-M "I M M M"
_symmetry_group_IT_number 71
_symmetry_cell_setting 'orthorhombic'
loop_
_space_group_symop_operation_xyz
x,y,z
-x,-y,z
x,-y,-z
-x,y,-z
-x,-y,-z
x,y,-z
-x,y,z
x,-y,z
1/2+x,1/2+y,1/2+z
1/2-x,1/2-y,1/2+z
1/2+x,1/2-y,1/2-z
1/2-x,1/2+y,1/2-z
1/2-x,1/2-y,1/2-z
1/2+x,1/2+y,1/2-z
1/2-x,1/2+y,1/2+z
1/2+x,1/2-y,1/2+z
loop_
_atom_site_type_symbol
_atom_site_label
_atom_site_fract_x
_atom_site_fract_y
_atom_site_fract_z
Si Si1 0.737529 0.118169 0.142549
Si Si2 0.650496 0.758498 0.817662
Si Si3 0.149791 0.064791 0.289487
Si Si4 0.000000 0.434960 0.416866
Si Si5 0.855705 0.935790 0.000000
Si Si6 0.352113 0.351779 0.083672
O O1 0.688492 0.183261 0.139949
O O2 0.808124 0.103960 0.219850
O O3 0.617436 0.078112 0.135649
O O4 0.826690 0.103258 0.072378
O O5 0.500000 0.758789 0.792977
O O6 0.750000 0.750000 0.750000
O O7 0.678009 0.708696 0.877584
O O8 0.201347 0.095677 0.365461
O O9 0.000000 0.063371 0.288916
O O10 0.204336 0.000000 0.285062
O O11 0.000000 0.500000 0.438092
O O12 0.000000 0.402365 0.500000
O O13 0.000000 0.950060 0.000000
O O14 0.787963 0.000000 0.000000
O O15 0.500000 0.359873 0.075497
O O16 0.289323 0.353989 0.000000
#
# Coordination Sequence:
#
# PCOD8290959 Si02
#       6
#    16  16  16   8   8  16
#     4  12  22  36  57  85 114 155 201 243 293 354
#     4  11  23  40  62  87 118 155 201 246 298 357
#     4  10  20  35  57  85 115 149 190 242 302 358
#     4  11  22  36  54  82 119 153 190 240 292 349
#     4  11  24  39  57  85 125 168 202 241 300 370
#     4   9  19  35  57  83 114 151 192 244 295 348
#
# _framework density 18.358574999999998
#
# number of rings (size 3 to 8) (size 9 to 14) (size 15 to 20)
#    0.000    1.400    4.000    2.400    1.400    2.800 
#    0.000    2.000    0.000    0.000    0.000    0.000 
#    0.000    4.000    0.000    0.000    0.000    0.000 
#
# Total GULP energy -495682.848861 kJ/mol
# GULP energy per Si atom -12392.071222 kJ/mol
# Density = 1.831679 g / cm^3
# Si number density = 18.358575 Si / 1000 Ang^3
#
#
#
# Elastic Constant Matrix: (Units=GPa)
#
#
# Indices 1 2 3 4 5 6 
#
# 1 60.1305 24.0739 29.9547 0.0000 0.0000 0.0000
# 2 24.0739 110.7599 45.1207 0.0000 0.0000 0.0000
# 3 29.9547 45.1207 144.4099 0.0001 0.0000 0.0000
# 4 0.0000 0.0000 0.0001 33.5912 0.0000 0.0000
# 5 0.0000 0.0000 0.0000 0.0000 22.2977 0.0000
# 6 0.0000 0.0000 0.0000 0.0000 0.0000 26.4999
#
#
#
# Elastic Compliance Matrix: (Units=1/GPa)
#
#
# Indices 1 2 3 4 5 6 
#
# 1 0.019351 -0.002946 -0.003094 0.000000 0.000000 0.000000
# 2 -0.002946 0.010794 -0.002761 0.000000 0.000000 0.000000
# 3 -0.003094 -0.002761 0.008429 0.000000 0.000000 0.000000
# 4 0.000000 0.000000 0.000000 0.029770 0.000000 0.000000
# 5 0.000000 0.000000 0.000000 0.000000 0.044848 0.000000
# 6 0.000000 0.000000 0.000000 0.000000 0.000000 0.037736
#
#
# Mechanical properties :
#
#
# Convention : Reuss Voigt Hill
#
# Bulk Modulus (GPa) = 47.68163 57.06653 52.37408
# Shear Modulus (GPa) = 28.48687 30.88784 29.68735
#
# Velocity S-wave (km/s) = 3.94343 4.10625 4.02566
# Velocity P-wave (km/s) = 6.83834 7.32350 7.08507
#
# Compressibility (1/GPa) = 0.02097244
#
# Stress axis : x y z
#
# Youngs Moduli (GPa) = 51.67709 92.64621 118.63474
#
# Poissons Ratio (x) = 0.27291 0.36700
# Poissons Ratio (y) = 0.15223 0.32761
# Poissons Ratio (z) = 0.15987 0.25584
#
# Static dielectric constant tensor:
#      x y z
#    x 3.315350 0.000000 0.000000 
#    y 0.000000 3.656830 0.000000 
#    z 0.000000 0.000000 3.668690 
# 
# 
# High freq. dielectric constant tensor:
#      x y z
#    x 1.688990 0.000000 0.000000 
#    y 0.000000 1.725710 0.000000 
#    z 0.000000 0.000000 1.716300 
# 
# From -- ./inp_files/32696.got.cif
#   From: 2010.06.25/outbox.cif.g09.slc.cpg/sg71_17_cif.got.tgz:32696.got - 2010.06.28 04:59:45.
