data_PCOD8290309
_publ_section_title
;
Structure prediction by ZEFSAII (Michael W. Deem and Ramdas Pophale) SiO2 
 PCOD8290309
Probable space group: I M M M
;
_chemical_formula_sum "Si O2"
_cell_formula_units_Z 80
_cell_length_a 24.364785
_cell_length_b 7.726969
_cell_length_c 24.189459
_cell_angle_alpha 90.000000
_cell_angle_beta 90.000000
_cell_angle_gamma 90.000000
_cell_volume 4554.051198
_symmetry_space_group_name_H-M "I M M M"
_symmetry_group_IT_number 71
_symmetry_cell_setting 'orthorhombic'
loop_
_space_group_symop_operation_xyz
x,y,z
-x,-y,z
x,-y,-z
-x,y,-z
-x,-y,-z
x,y,-z
-x,y,z
x,-y,z
1/2+x,1/2+y,1/2+z
1/2-x,1/2-y,1/2+z
1/2+x,1/2-y,1/2-z
1/2-x,1/2+y,1/2-z
1/2-x,1/2-y,1/2-z
1/2+x,1/2+y,1/2-z
1/2-x,1/2+y,1/2+z
1/2+x,1/2-y,1/2+z
loop_
_atom_site_type_symbol
_atom_site_label
_atom_site_fract_x
_atom_site_fract_y
_atom_site_fract_z
Si Si1 0.065129 0.000000 0.346102
Si Si2 0.560939 0.205066 0.645669
Si Si3 0.348286 0.205632 0.437528
Si Si4 0.653102 0.500000 0.934337
Si Si5 0.565136 0.808161 0.768345
Si Si6 0.229760 0.692253 0.565296
O O1 0.085651 0.830604 0.312994
O O2 0.093643 0.000000 0.405842
O O3 0.000000 0.000000 0.355427
O O4 0.500000 0.283793 0.635425
O O5 0.602818 0.281436 0.600344
O O6 0.583155 0.252730 0.706924
O O7 0.557515 0.000000 0.640324
O O8 0.357436 0.274087 0.500000
O O9 0.290901 0.272637 0.411914
O O10 0.347296 0.000000 0.436670
O O11 0.686176 0.668183 0.912793
O O12 0.643612 0.500000 0.000000
O O13 0.500000 0.817542 0.768650
O O14 0.588931 0.000000 0.782481
O O15 0.233181 0.713830 0.500000
O O16 0.210303 0.500000 0.582830
#
# Coordination Sequence:
#
# PCOD8290309 Si02
#       6
#     8  16  16   8  16  16
#     4  10  20  33  54  80  99 121 153 189 237 295
#     4   8  14  25  43  69  99 133 169 205 247 286
#     4   9  15  25  44  70  99 131 168 209 248 284
#     4  10  20  35  54  76 101 123 149 191 239 293
#     4   8  15  30  49  69  95 128 167 199 225 273
#     4   9  17  31  50  70  93 127 169 199 228 279
#
# _framework density 17.566776999999998
#
# number of rings (size 3 to 8) (size 9 to 14) (size 15 to 20)
#    0.000    3.200    1.000    1.200    0.000    1.400 
#    1.800    2.000    0.000    1.200    0.000    8.400 
#    0.000    0.000    0.000    0.000    0.000    0.000 
#
# Total GULP energy -495732.417705 kJ/mol
# GULP energy per Si atom -12393.310443 kJ/mol
# Density = 1.752679 g / cm^3
# Si number density = 17.566777 Si / 1000 Ang^3
#
#
#
# Elastic Constant Matrix: (Units=GPa)
#
#
# Indices 1 2 3 4 5 6 
#
# 1 85.4331 38.5258 52.6973 0.0000 0.0000 0.0000
# 2 38.5258 88.7031 37.9260 0.0000 0.0000 0.0000
# 3 52.6973 37.9260 81.6476 0.0000 0.0000 0.0000
# 4 0.0000 0.0000 0.0000 12.8266 0.0000 0.0000
# 5 0.0000 0.0000 0.0000 0.0000 11.7004 0.0000
# 6 0.0000 0.0000 0.0000 0.0000 0.0000 7.7627
#
#
#
# Elastic Compliance Matrix: (Units=1/GPa)
#
#
# Indices 1 2 3 4 5 6 
#
# 1 0.020557 -0.004062 -0.011381 0.000000 0.000000 0.000000
# 2 -0.004062 0.014870 -0.004285 0.000000 0.000000 0.000000
# 3 -0.011381 -0.004285 0.021584 0.000000 0.000000 0.000000
# 4 0.000000 0.000000 0.000000 0.077963 0.000000 0.000000
# 5 0.000000 0.000000 0.000000 0.000000 0.085467 0.000000
# 6 0.000000 0.000000 0.000000 0.000000 0.000000 0.128821
#
#
# Mechanical properties :
#
#
# Convention : Reuss Voigt Hill
#
# Bulk Modulus (GPa) = 56.96808 57.12021 57.04414
# Shear Modulus (GPa) = 12.67198 14.90025 13.78612
#
# Velocity S-wave (km/s) = 2.68873 2.91556 2.80444
# Velocity P-wave (km/s) = 6.49145 6.62726 6.55971
#
# Compressibility (1/GPa) = 0.01755369
#
# Stress axis : x y z
#
# Youngs Moduli (GPa) = 48.64508 67.24857 46.33067
#
# Poissons Ratio (x) = 0.27318 0.52729
# Poissons Ratio (y) = 0.19761 0.19855
# Poissons Ratio (z) = 0.55363 0.28819
#
# Static dielectric constant tensor:
#      x y z
#    x 3.127420 0.000000 0.000000 
#    y 0.000000 3.448160 0.000000 
#    z 0.000000 0.000000 3.127590 
# 
# 
# High freq. dielectric constant tensor:
#      x y z
#    x 1.653070 0.000000 0.000000 
#    y 0.000000 1.680200 0.000000 
#    z 0.000000 0.000000 1.649500 
# 
# From -- ./inp_files/10776.got.cif
#   From: 2010.06.25/outbox.cif.g09.slc.cpg/sg71_6_cif.got.tgz:10776.got - 2010.06.28 04:59:45.
