data_PCOD8290389
_publ_section_title
;
Structure prediction by ZEFSAII (Michael W. Deem and Ramdas Pophale) SiO2 
 PCOD8290389
Probable space group: I M M M
;
_chemical_formula_sum "Si O2"
_cell_formula_units_Z 104
_cell_length_a 32.606604
_cell_length_b 19.557194
_cell_length_c 8.887443
_cell_angle_alpha 90.000000
_cell_angle_beta 90.000000
_cell_angle_gamma 90.000000
_cell_volume 5667.466233
_symmetry_space_group_name_H-M "I M M M"
_symmetry_group_IT_number 71
_symmetry_cell_setting 'orthorhombic'
loop_
_space_group_symop_operation_xyz
x,y,z
-x,-y,z
x,-y,-z
-x,y,-z
-x,-y,-z
x,y,-z
-x,y,z
x,-y,z
1/2+x,1/2+y,1/2+z
1/2-x,1/2-y,1/2+z
1/2+x,1/2-y,1/2-z
1/2-x,1/2+y,1/2-z
1/2-x,1/2-y,1/2-z
1/2+x,1/2+y,1/2-z
1/2-x,1/2+y,1/2+z
1/2+x,1/2-y,1/2+z
loop_
_atom_site_type_symbol
_atom_site_label
_atom_site_fract_x
_atom_site_fract_y
_atom_site_fract_z
Si Si1 0.546538 0.000000 0.663459
Si Si2 0.685150 0.421206 0.173082
Si Si3 0.453541 0.726302 0.826795
Si Si4 0.580367 0.873649 0.827275
Si Si5 0.339561 0.167967 0.676283
Si Si6 0.729141 0.077790 0.822187
Si Si7 0.127608 0.815451 0.823130
O O1 0.554318 0.935411 0.766966
O O2 0.500000 0.000000 0.620063
O O3 0.570106 0.000000 0.500000
O O4 0.672960 0.500000 0.192313
O O5 0.725711 0.403365 0.266076
O O6 0.647402 0.378457 0.236831
O O7 0.693142 0.402256 0.000000
O O8 0.500000 0.707782 0.775003
O O9 0.447332 0.806947 0.806009
O O10 0.420083 0.687547 0.725509
O O11 0.446826 0.705074 0.000000
O O12 0.621157 0.874029 0.727996
O O13 0.593172 0.884360 0.000000
O O14 0.333251 0.160039 0.500000
O O15 0.300349 0.135694 0.756611
O O16 0.347070 0.247111 0.722252
O O17 0.717238 0.000000 0.770810
O O18 0.728279 0.083280 0.000000
O O19 0.129337 0.828007 0.000000
#
# Coordination Sequence:
#
# PCOD8290389 Si02
#       7
#     8  16  16  16  16  16  16
#     4  11  23  35  47  67  97 135 179 227 279 329
#     4  10  21  38  60  84 109 140 177 217 268 325
#     4   9  18  34  56  80 106 138 176 219 267 319
#     4  10  20  34  52  73 100 136 180 227 273 320
#     4  10  21  36  53  77 109 144 183 224 270 320
#     4  10  21  36  55  79 108 144 187 229 271 319
#     4  10  21  36  56  83 112 143 179 219 267 321
#
# _framework density 18.350352999999998
#
# number of rings (size 3 to 8) (size 9 to 14) (size 15 to 20)
#    0.000    2.077    0.000    3.000    1.077    6.462 
#    0.000    0.000    0.000    0.462    0.000    3.231 
#    0.000    0.000    0.000    0.000    0.000    0.000 
#
# Total GULP energy -644791.766739 kJ/mol
# GULP energy per Si atom -12399.841668 kJ/mol
# Density = 1.830859 g / cm^3
# Si number density = 18.350353 Si / 1000 Ang^3
#
#
#
# Elastic Constant Matrix: (Units=GPa)
#
#
# Indices 1 2 3 4 5 6 
#
# 1 107.6019 55.3158 45.6052 0.0000 0.0000 0.0000
# 2 55.3158 69.7481 41.5813 0.0000 0.0000 0.0000
# 3 45.6052 41.5813 76.3201 0.0000 0.0000 0.0000
# 4 0.0000 0.0000 0.0000 29.6306 0.0000 0.0000
# 5 0.0000 0.0000 0.0000 0.0000 34.8482 0.0000
# 6 0.0000 0.0000 0.0000 0.0000 0.0000 58.9401
#
#
#
# Elastic Compliance Matrix: (Units=1/GPa)
#
#
# Indices 1 2 3 4 5 6 
#
# 1 0.016491 -0.010670 -0.004041 0.000000 0.000000 0.000000
# 2 -0.010670 0.028138 -0.008954 0.000000 0.000000 0.000000
# 3 -0.004041 -0.008954 0.020396 0.000000 0.000000 0.000000
# 4 0.000000 0.000000 0.000000 0.033749 0.000000 0.000000
# 5 0.000000 0.000000 0.000000 0.000000 0.028696 0.000000
# 6 0.000000 0.000000 0.000000 0.000000 0.000000 0.016966
#
#
# Mechanical properties :
#
#
# Convention : Reuss Voigt Hill
#
# Bulk Modulus (GPa) = 56.51539 59.85273 58.18406
# Shear Modulus (GPa) = 25.29529 32.09497 28.69513
#
# Velocity S-wave (km/s) = 3.71679 4.18666 3.95870
# Velocity P-wave (km/s) = 7.02027 7.48721 7.25750
#
# Compressibility (1/GPa) = 0.01769430
#
# Stress axis : x y z
#
# Youngs Moduli (GPa) = 60.63747 35.53972 49.02880
#
# Poissons Ratio (x) = 0.37920 0.19814
# Poissons Ratio (y) = 0.64699 0.43902
# Poissons Ratio (z) = 0.24506 0.31824
#
# Static dielectric constant tensor:
#      x y z
#    x 3.357880 0.000000 0.000000 
#    y 0.000000 3.285410 0.000000 
#    z 0.000000 0.000000 3.489010 
# 
# 
# High freq. dielectric constant tensor:
#      x y z
#    x 1.709940 0.000000 0.000000 
#    y 0.000000 1.695490 0.000000 
#    z 0.000000 0.000000 1.727200 
# 
# From -- ./inp_files/11469.got.cif
#   From: 2010.06.25/outbox.cif.g09.slc.cpg/sg71_6_cif.got.tgz:11469.got - 2010.06.28 04:59:45.
