data_PCOD8290612
_publ_section_title
;
Structure prediction by ZEFSAII (Michael W. Deem and Ramdas Pophale) SiO2 
 PCOD8290612
Probable space group: I M M M
;
_chemical_formula_sum "Si O2"
_cell_formula_units_Z 104
_cell_length_a 27.440191
_cell_length_b 9.375904
_cell_length_c 21.144366
_cell_angle_alpha 90.000000
_cell_angle_beta 90.000000
_cell_angle_gamma 90.000000
_cell_volume 5439.950521
_symmetry_space_group_name_H-M "I M M M"
_symmetry_group_IT_number 71
_symmetry_cell_setting 'orthorhombic'
loop_
_space_group_symop_operation_xyz
x,y,z
-x,-y,z
x,-y,-z
-x,y,-z
-x,-y,-z
x,y,-z
-x,y,z
x,-y,z
1/2+x,1/2+y,1/2+z
1/2-x,1/2-y,1/2+z
1/2+x,1/2-y,1/2-z
1/2-x,1/2+y,1/2-z
1/2-x,1/2-y,1/2-z
1/2+x,1/2+y,1/2-z
1/2-x,1/2+y,1/2+z
1/2+x,1/2-y,1/2+z
loop_
_atom_site_type_symbol
_atom_site_label
_atom_site_fract_x
_atom_site_fract_y
_atom_site_fract_z
Si Si1 0.372869 0.666571 0.242121
Si Si2 0.442263 0.168999 0.000000
Si Si3 0.399445 0.336670 0.571800
Si Si4 0.623280 0.665687 0.095676
Si Si5 0.267765 0.664830 0.930512
Si Si6 0.444066 0.839732 0.324512
Si Si7 0.303049 0.661449 0.650540
O O1 0.383395 0.500000 0.254520
O O2 0.370072 0.705017 0.168992
O O3 0.417513 0.755098 0.269207
O O4 0.322796 0.707533 0.279701
O O5 0.418201 0.238494 0.937303
O O6 0.500000 0.201458 0.000000
O O7 0.432335 0.000000 0.000000
O O8 0.398012 0.284745 0.500000
O O9 0.416678 0.500000 0.577686
O O10 0.437609 0.237514 0.608209
O O11 0.346119 0.316511 0.600597
O O12 0.608911 0.500000 0.086446
O O13 0.675123 0.700892 0.064903
O O14 0.260264 0.500000 0.914741
O O15 0.242447 0.746235 0.872719
O O16 0.245844 0.703769 0.000000
O O17 0.500000 0.842160 0.305570
O O18 0.423045 0.000000 0.329246
O O19 0.284437 0.500000 0.651838
#
# Coordination Sequence:
#
# PCOD8290612 Si02
#       7
#    16   8  16  16  16  16  16
#     4   9  20  38  59  80 107 145 190 235 275 329
#     4  11  25  43  63  91 123 149 181 233 294 351
#     4   9  18  33  52  74 104 143 187 233 274 320
#     4  10  21  41  64  85 112 148 188 229 276 333
#     4  10  20  34  54  82 115 149 186 230 274 323
#     4  10  21  35  51  74 106 141 177 226 286 339
#     4   9  18  33  52  79 112 147 185 226 273 325
#
# _framework density 19.117819999999998
#
# number of rings (size 3 to 8) (size 9 to 14) (size 15 to 20)
#    0.000    2.385    0.769    2.077    0.000    8.308 
#    0.000    4.615    0.000    0.000    0.000    0.000 
#    0.000    0.000    0.000    0.000    0.000    0.000 
#
# Total GULP energy -644694.464591 kJ/mol
# GULP energy per Si atom -12397.970473 kJ/mol
# Density = 1.907431 g / cm^3
# Si number density = 19.117820 Si / 1000 Ang^3
#
#
#
# Elastic Constant Matrix: (Units=GPa)
#
#
# Indices 1 2 3 4 5 6 
#
# 1 84.8142 52.7988 49.5174 0.0000 0.0000 0.0000
# 2 52.7988 90.4443 58.6827 0.0000 0.0000 0.0000
# 3 49.5174 58.6827 149.5915 0.0000 0.0000 0.0000
# 4 0.0000 0.0000 0.0000 22.9711 0.0000 0.0000
# 5 0.0000 0.0000 0.0000 0.0000 22.9435 0.0000
# 6 0.0000 0.0000 0.0000 0.0000 0.0000 33.8878
#
#
#
# Elastic Compliance Matrix: (Units=1/GPa)
#
#
# Indices 1 2 3 4 5 6 
#
# 1 0.019267 -0.009537 -0.002636 0.000000 0.000000 0.000000
# 2 -0.009537 0.019552 -0.004513 0.000000 0.000000 0.000000
# 3 -0.002636 -0.004513 0.009328 0.000000 0.000000 0.000000
# 4 0.000000 0.000000 0.000000 0.043533 0.000000 0.000000
# 5 0.000000 0.000000 0.000000 0.000000 0.043585 0.000000
# 6 0.000000 0.000000 0.000000 0.000000 0.000000 0.029509
#
#
# Mechanical properties :
#
#
# Convention : Reuss Voigt Hill
#
# Bulk Modulus (GPa) = 67.68649 71.87200 69.77925
# Shear Modulus (GPa) = 24.62191 26.88391 25.75291
#
# Velocity S-wave (km/s) = 3.59263 3.75403 3.67422
# Velocity P-wave (km/s) = 7.25886 7.51440 7.38774
#
# Compressibility (1/GPa) = 0.01477400
#
# Stress axis : x y z
#
# Youngs Moduli (GPa) = 51.90351 51.14560 107.20351
#
# Poissons Ratio (x) = 0.48776 0.28264
# Poissons Ratio (y) = 0.49498 0.48383
# Poissons Ratio (z) = 0.13684 0.23083
#
# Static dielectric constant tensor:
#      x y z
#    x 3.280080 0.000000 0.000000 
#    y 0.000000 3.490300 0.000000 
#    z 0.000000 0.000000 3.682700 
# 
# 
# High freq. dielectric constant tensor:
#      x y z
#    x 1.730160 0.000000 0.000000 
#    y 0.000000 1.738800 0.000000 
#    z 0.000000 0.000000 1.754010 
# 
# From -- ./inp_files/56228.got.cif
#   From: 2010.06.25/outbox.cif.g09.slc.cpg/sg71_29_cif.got.tgz:56228.got - 2010.06.28 04:59:45.
