data_PCOD8290007
_publ_section_title
;
Structure prediction by ZEFSAII (Michael W. Deem and Ramdas Pophale) SiO2 
 PCOD8290007
Probable space group: I M M M
;
_chemical_formula_sum "Si O2"
_cell_formula_units_Z 80
_cell_length_a 20.013314
_cell_length_b 25.426536
_cell_length_c 8.865957
_cell_angle_alpha 90.000000
_cell_angle_beta 90.000000
_cell_angle_gamma 90.000000
_cell_volume 4511.612879
_symmetry_space_group_name_H-M "I M M M"
_symmetry_group_IT_number 71
_symmetry_cell_setting 'orthorhombic'
loop_
_space_group_symop_operation_xyz
x,y,z
-x,-y,z
x,-y,-z
-x,y,-z
-x,-y,-z
x,y,-z
-x,y,z
x,-y,z
1/2+x,1/2+y,1/2+z
1/2-x,1/2-y,1/2+z
1/2+x,1/2-y,1/2-z
1/2-x,1/2+y,1/2-z
1/2-x,1/2-y,1/2-z
1/2+x,1/2+y,1/2-z
1/2-x,1/2+y,1/2+z
1/2+x,1/2-y,1/2+z
loop_
_atom_site_type_symbol
_atom_site_label
_atom_site_fract_x
_atom_site_fract_y
_atom_site_fract_z
Si Si1 0.925625 0.887693 0.819420
Si Si2 0.922545 0.393117 0.322575
Si Si3 0.823478 0.687764 0.823366
Si Si4 0.185802 0.191346 0.177022
Si Si5 0.579329 0.000000 0.670544
Si Si6 0.079071 0.000000 0.164219
O O1 0.875412 0.843334 0.761686
O O2 0.000000 0.873436 0.761011
O O3 0.901768 0.944975 0.753043
O O4 0.926000 0.890945 0.000000
O O5 0.912452 0.396295 0.500000
O O6 0.881706 0.344205 0.257972
O O7 0.894330 0.447557 0.253230
O O8 0.000000 0.384563 0.279012
O O9 0.833309 0.748976 0.783266
O O10 0.751076 0.670654 0.763269
O O11 0.827963 0.676708 0.000000
O O12 0.198707 0.184273 0.000000
O O13 0.500000 0.000000 0.676228
O O14 0.606446 0.000000 0.500000
O O15 0.000000 0.000000 0.142474
O O16 0.113990 0.000000 0.000000
#
# Coordination Sequence:
#
# PCOD8290007 Si02
#       6
#    16  16  16  16   8   8
#     4   8  13  23  42  68  94 119 150 190 236 287
#     4  10  20  34  53  76 101 129 163 204 248 296
#     4  10  20  33  49  68  94 130 167 204 249 298
#     4   9  18  32  49  68  94 129 166 205 248 295
#     4   9  17  31  52  77 104 131 159 195 242 295
#     4   7  10  18  35  62  94 119 139 175 230 281
#
# _framework density 17.732016999999999
#
# number of rings (size 3 to 8) (size 9 to 14) (size 15 to 20)
#    0.000    3.000    0.000    2.700    0.000    4.000 
#    0.000    3.000    0.000    3.000    0.000    0.000 
#    0.000    2.400    0.000    0.000    0.000    0.000 
#
# Total GULP energy -495756.100457 kJ/mol
# GULP energy per Si atom -12393.902511 kJ/mol
# Density = 1.769166 g / cm^3
# Si number density = 17.732017 Si / 1000 Ang^3
#
#
#
# Elastic Constant Matrix: (Units=GPa)
#
#
# Indices 1 2 3 4 5 6 
#
# 1 102.3317 79.6684 37.0971 0.0000 0.0000 0.0000
# 2 79.6684 124.8461 39.9095 0.0000 0.0000 0.0000
# 3 37.0971 39.9095 62.8509 0.0000 0.0000 0.0000
# 4 0.0000 0.0000 0.0000 23.9102 0.0000 0.0000
# 5 0.0000 0.0000 0.0000 0.0000 23.0603 0.0000
# 6 0.0000 0.0000 0.0000 0.0000 0.0000 10.9861
#
#
#
# Elastic Compliance Matrix: (Units=1/GPa)
#
#
# Indices 1 2 3 4 5 6 
#
# 1 0.020495 -0.011557 -0.004758 0.000000 0.000000 0.000000
# 2 -0.011557 0.016567 -0.003698 0.000000 0.000000 0.000000
# 3 -0.004758 -0.003698 0.021067 0.000000 0.000000 0.000000
# 4 0.000000 0.000000 0.000000 0.041823 0.000000 0.000000
# 5 0.000000 0.000000 0.000000 0.000000 0.043365 0.000000
# 6 0.000000 0.000000 0.000000 0.000000 0.000000 0.091024
#
#
# Mechanical properties :
#
#
# Convention : Reuss Voigt Hill
#
# Bulk Modulus (GPa) = 55.24279 67.04209 61.14244
# Shear Modulus (GPa) = 17.83149 20.48157 19.15653
#
# Velocity S-wave (km/s) = 3.17458 3.40231 3.29041
# Velocity P-wave (km/s) = 6.68275 7.30239 6.99943
#
# Compressibility (1/GPa) = 0.01810191
#
# Stress axis : x y z
#
# Youngs Moduli (GPa) = 48.79283 60.35994 47.46655
#
# Poissons Ratio (x) = 0.69760 0.22585
# Poissons Ratio (y) = 0.56392 0.17555
# Poissons Ratio (z) = 0.23216 0.22323
#
# Static dielectric constant tensor:
#      x y z
#    x 3.176260 0.000000 0.000000 
#    y 0.000000 3.621240 0.000000 
#    z 0.000000 0.000000 3.044730 
# 
# 
# High freq. dielectric constant tensor:
#      x y z
#    x 1.664100 0.000000 0.000000 
#    y 0.000000 1.699580 0.000000 
#    z 0.000000 0.000000 1.660010 
# 
# From -- ./inp_files/10241.got.cif
#   From: 2010.06.25/outbox.cif.g09.slc.cpg/sg71_6_cif.got.tgz:10241.got - 2010.06.28 04:59:45.
