data_PCOD8290656
_publ_section_title
;
Structure prediction by ZEFSAII (Michael W. Deem and Ramdas Pophale) SiO2 
 PCOD8290656
Probable space group: I M M M
;
_chemical_formula_sum "Si O2"
_cell_formula_units_Z 104
_cell_length_a 17.394123
_cell_length_b 31.689599
_cell_length_c 10.670434
_cell_angle_alpha 90.000000
_cell_angle_beta 90.000000
_cell_angle_gamma 90.000000
_cell_volume 5881.679619
_symmetry_space_group_name_H-M "I M M M"
_symmetry_group_IT_number 71
_symmetry_cell_setting 'orthorhombic'
loop_
_space_group_symop_operation_xyz
x,y,z
-x,-y,z
x,-y,-z
-x,y,-z
-x,-y,-z
x,y,-z
-x,y,z
x,-y,z
1/2+x,1/2+y,1/2+z
1/2-x,1/2-y,1/2+z
1/2+x,1/2-y,1/2-z
1/2-x,1/2+y,1/2-z
1/2-x,1/2-y,1/2-z
1/2+x,1/2+y,1/2-z
1/2-x,1/2+y,1/2+z
1/2+x,1/2-y,1/2+z
loop_
_atom_site_type_symbol
_atom_site_label
_atom_site_fract_x
_atom_site_fract_y
_atom_site_fract_z
Si Si1 0.322295 0.392984 0.702222
Si Si2 0.335517 0.148674 0.136127
Si Si3 0.911225 0.824829 0.642227
Si Si4 0.190912 0.254647 0.360962
Si Si5 0.726588 0.045170 0.643224
Si Si6 0.907996 0.050537 0.000000
Si Si7 0.588028 0.101040 0.642181
O O1 0.252312 0.368242 0.636104
O O2 0.377888 0.358483 0.761173
O O3 0.286872 0.420953 0.810977
O O4 0.370819 0.425262 0.617444
O O5 0.342052 0.198673 0.144207
O O6 0.386585 0.134378 0.253222
O O7 0.369348 0.134204 0.000000
O O8 0.896234 0.840333 0.500000
O O9 0.876328 0.778684 0.664309
O O10 0.000000 0.820411 0.672687
O O11 0.227545 0.246371 0.500000
O O12 0.250000 0.250000 0.250000
O O13 0.745932 0.039036 0.500000
O O14 0.638572 0.059389 0.663405
O O15 0.735873 0.000000 0.712914
O O16 0.000000 0.056452 0.000000
O O17 0.887967 0.000000 0.000000
O O18 0.601340 0.119019 0.500000
O O19 0.500000 0.088353 0.662504
#
# Coordination Sequence:
#
# PCOD8290656 Si02
#       7
#    16  16  16  16  16   8  16
#     4  11  19  35  56  77 106 140 182 229 271 333
#     4  10  20  34  55  82 109 145 186 225 272 327
#     4  10  21  36  56  82 111 145 183 226 283 339
#     4  10  20  35  55  81 111 144 185 229 273 326
#     4   9  18  32  53  80 104 132 174 223 276 326
#     4  11  24  38  54  78 109 149 187 229 288 342
#     4   9  19  34  53  78 109 144 182 223 271 326
#
# _framework density 17.682023999999998
#
# number of rings (size 3 to 8) (size 9 to 14) (size 15 to 20)
#    0.000    2.077    2.308    1.385    0.000    2.462 
#    0.000    3.077    0.000    0.000    0.000    8.615 
#    0.000    0.000    0.000    0.000    0.000    0.000 
#
# Total GULP energy -644319.239179 kJ/mol
# GULP energy per Si atom -12390.754600 kJ/mol
# Density = 1.764178 g / cm^3
# Si number density = 17.682024 Si / 1000 Ang^3
#
#
#
# Elastic Constant Matrix: (Units=GPa)
#
#
# Indices 1 2 3 4 5 6 
#
# 1 92.4377 45.2839 38.8940 -0.0009 -0.0004 -0.0002
# 2 45.2839 131.8637 50.9603 -0.0039 0.0005 0.0003
# 3 38.8940 50.9603 94.2789 -0.0109 0.0009 0.0007
# 4 -0.0009 -0.0039 -0.0109 26.1711 0.0011 0.0005
# 5 -0.0004 0.0005 0.0009 0.0011 24.4009 0.0000
# 6 -0.0002 0.0003 0.0007 0.0005 0.0000 24.7632
#
#
#
# Elastic Compliance Matrix: (Units=1/GPa)
#
#
# Indices 1 2 3 4 5 6 
#
# 1 0.014134 -0.003287 -0.004054 -0.000002 0.000000 0.000000
# 2 -0.003287 0.010351 -0.004239 0.000000 0.000000 0.000000
# 3 -0.004054 -0.004239 0.014570 0.000005 -0.000001 0.000000
# 4 -0.000002 0.000000 0.000005 0.038210 -0.000002 -0.000001
# 5 0.000000 0.000000 -0.000001 -0.000002 0.040982 0.000000
# 6 0.000000 0.000000 0.000000 -0.000001 0.000000 0.040383
#
#
# Mechanical properties :
#
#
# Convention : Reuss Voigt Hill
#
# Bulk Modulus (GPa) = 62.91174 65.42852 64.17013
# Shear Modulus (GPa) = 26.72534 27.29650 27.01092
#
# Velocity S-wave (km/s) = 3.89194 3.93331 3.91268
# Velocity P-wave (km/s) = 7.47349 7.59678 7.53539
#
# Compressibility (1/GPa) = 0.01589528
#
# Stress axis : x y z
#
# Youngs Moduli (GPa) = 70.75008 96.61358 68.63198
#
# Poissons Ratio (x) = 0.31758 0.27825
# Poissons Ratio (y) = 0.23256 0.29091
# Poissons Ratio (z) = 0.28684 0.40951
#
# Static dielectric constant tensor:
#      x y z
#    x 3.181970 0.000040 -0.000010 
#    y 0.000040 3.384320 -0.000020 
#    z -0.000010 -0.000020 3.527550 
# 
# 
# High freq. dielectric constant tensor:
#      x y z
#    x 1.674870 0.000000 0.000000 
#    y 0.000000 1.691180 0.000000 
#    z 0.000000 0.000000 1.693070 
# 
# From -- ./inp_files/24561.got.cif
#   From: 2010.06.25/outbox.cif.g09.slc.cpg/sg71_13_cif.got.tgz:24561.got - 2010.06.28 04:59:45.
