data_PCOD8290155
_publ_section_title
;
Structure prediction by ZEFSAII (Michael W. Deem and Ramdas Pophale) SiO2 
 PCOD8290155
Probable space group: I M M M
;
_chemical_formula_sum "Si O2"
_cell_formula_units_Z 96
_cell_length_a 27.982387
_cell_length_b 20.116227
_cell_length_c 9.457118
_cell_angle_alpha 90.000000
_cell_angle_beta 90.000000
_cell_angle_gamma 90.000000
_cell_volume 5323.412185
_symmetry_space_group_name_H-M "I M M M"
_symmetry_group_IT_number 71
_symmetry_cell_setting 'orthorhombic'
loop_
_space_group_symop_operation_xyz
x,y,z
-x,-y,z
x,-y,-z
-x,y,-z
-x,-y,-z
x,y,-z
-x,y,z
x,-y,z
1/2+x,1/2+y,1/2+z
1/2-x,1/2-y,1/2+z
1/2+x,1/2-y,1/2-z
1/2-x,1/2+y,1/2-z
1/2-x,1/2-y,1/2-z
1/2+x,1/2+y,1/2-z
1/2-x,1/2+y,1/2+z
1/2+x,1/2-y,1/2+z
loop_
_atom_site_type_symbol
_atom_site_label
_atom_site_fract_x
_atom_site_fract_y
_atom_site_fract_z
Si Si1 0.446811 0.311812 0.167863
Si Si2 0.719805 0.803089 0.836020
Si Si3 0.783974 0.925037 0.162031
Si Si4 0.554560 0.077199 0.336728
Si Si5 0.123592 0.924243 0.334723
Si Si6 0.889150 0.316249 0.667427
O O1 0.500000 0.313112 0.233204
O O2 0.419196 0.377614 0.219946
O O3 0.419834 0.246276 0.221758
O O4 0.449303 0.311140 0.000000
O O5 0.750000 0.750000 0.750000
O O6 0.739710 0.876917 0.806918
O O7 0.665154 0.803078 0.784926
O O8 0.723608 0.783570 0.000000
O O9 0.828345 0.902222 0.256784
O O10 0.767774 0.000000 0.200645
O O11 0.800620 0.920281 0.000000
O O12 0.563491 0.094992 0.500000
O O13 0.500000 0.094486 0.294754
O O14 0.590990 0.117908 0.240502
O O15 0.564791 0.000000 0.308781
O O16 0.133100 0.913780 0.500000
O O17 0.109460 0.000000 0.299003
O O18 0.892684 0.326526 0.500000
#
# Coordination Sequence:
#
# PCOD8290155 Si02
#       6
#    16  16  16  16  16  16
#     4   9  17  29  46  70 100 129 157 196 244 288
#     4  10  21  35  52  75 102 133 168 207 250 296
#     4   9  18  33  51  70  96 130 163 196 240 291
#     4   9  19  36  55  75 102 134 166 204 253 307
#     4   9  17  30  50  74  97 124 161 201 238 281
#     4  10  20  33  51  75 101 131 169 210 250 295
#
# _framework density 18.033545
#
# number of rings (size 3 to 8) (size 9 to 14) (size 15 to 20)
#    0.000    2.667    0.000    2.000    0.000    5.000 
#    0.000    5.000    0.000    3.500    0.000    2.333 
#    0.000    0.000    0.000    0.000    0.000    0.000 
#
# Total GULP energy -595253.178886 kJ/mol
# GULP energy per Si atom -12401.107893 kJ/mol
# Density = 1.799250 g / cm^3
# Si number density = 18.033545 Si / 1000 Ang^3
#
#
#
# Elastic Constant Matrix: (Units=GPa)
#
#
# Indices 1 2 3 4 5 6 
#
# 1 148.3214 73.3189 44.1523 0.0000 0.0000 0.0000
# 2 73.3189 101.5657 37.2763 0.0000 0.0000 0.0000
# 3 44.1523 37.2763 40.9622 0.0000 0.0000 0.0000
# 4 0.0000 0.0000 0.0000 27.3797 0.0000 0.0000
# 5 0.0000 0.0000 0.0000 0.0000 27.1688 0.0000
# 6 0.0000 0.0000 0.0000 0.0000 0.0000 38.2427
#
#
#
# Elastic Compliance Matrix: (Units=1/GPa)
#
#
# Indices 1 2 3 4 5 6 
#
# 1 0.011835 -0.005798 -0.007480 0.000000 0.000000 0.000000
# 2 -0.005798 0.017624 -0.009788 0.000000 0.000000 0.000000
# 3 -0.007480 -0.009788 0.041383 0.000000 0.000000 0.000000
# 4 0.000000 0.000000 0.000000 0.036523 0.000000 0.000000
# 5 0.000000 0.000000 0.000000 0.000000 0.036807 0.000000
# 6 0.000000 0.000000 0.000000 0.000000 0.000000 0.026149
#
#
# Mechanical properties :
#
#
# Convention : Reuss Voigt Hill
#
# Bulk Modulus (GPa) = 40.47190 66.70492 53.58841
# Shear Modulus (GPa) = 22.25276 27.63168 24.94222
#
# Velocity S-wave (km/s) = 3.51659 3.91863 3.72304
# Velocity P-wave (km/s) = 6.24339 7.58577 6.94708
#
# Compressibility (1/GPa) = 0.02470850
#
# Stress axis : x y z
#
# Youngs Moduli (GPa) = 84.49500 56.74100 24.16435
#
# Poissons Ratio (x) = 0.32899 0.18076
# Poissons Ratio (y) = 0.48991 0.23653
# Poissons Ratio (z) = 0.63205 0.55540
#
# Static dielectric constant tensor:
#      x y z
#    x 3.474980 0.000000 0.000000 
#    y 0.000000 3.461990 0.000000 
#    z 0.000000 0.000000 3.103560 
# 
# 
# High freq. dielectric constant tensor:
#      x y z
#    x 1.700200 0.000000 0.000000 
#    y 0.000000 1.710330 0.000000 
#    z 0.000000 0.000000 1.673800 
# 
# From -- ./inp_files/10853.got.cif
#   From: 2010.06.25/outbox.cif.g09.slc.cpg/sg71_6_cif.got.tgz:10853.got - 2010.06.28 04:59:45.
