data_PCOD8290607
_publ_section_title
;
Structure prediction by ZEFSAII (Michael W. Deem and Ramdas Pophale) SiO2 
 PCOD8290607
Probable space group: I M M M
;
_chemical_formula_sum "Si O2"
_cell_formula_units_Z 56
_cell_length_a 21.940018
_cell_length_b 5.200322
_cell_length_c 24.691940
_cell_angle_alpha 90.000000
_cell_angle_beta 90.000000
_cell_angle_gamma 90.000000
_cell_volume 2817.230803
_symmetry_space_group_name_H-M "I M M M"
_symmetry_group_IT_number 71
_symmetry_cell_setting 'orthorhombic'
loop_
_space_group_symop_operation_xyz
x,y,z
-x,-y,z
x,-y,-z
-x,y,-z
-x,-y,-z
x,y,-z
-x,y,z
x,-y,z
1/2+x,1/2+y,1/2+z
1/2-x,1/2-y,1/2+z
1/2+x,1/2-y,1/2-z
1/2-x,1/2+y,1/2-z
1/2-x,1/2-y,1/2-z
1/2+x,1/2+y,1/2-z
1/2-x,1/2+y,1/2+z
1/2+x,1/2-y,1/2+z
loop_
_atom_site_type_symbol
_atom_site_label
_atom_site_fract_x
_atom_site_fract_y
_atom_site_fract_z
Si Si1 0.237384 0.000000 0.215446
Si Si2 0.731116 0.000000 0.098754
Si Si3 0.639304 0.500000 0.366847
Si Si4 0.927850 0.500000 0.278938
Si Si5 0.572284 0.500000 0.843069
Si Si6 0.162946 0.000000 0.561462
Si Si7 0.072349 0.500000 0.155773
O O1 0.250000 0.750000 0.250000
O O2 0.167750 0.000000 0.194053
O O3 0.403441 0.000000 0.282371
O O4 0.717077 0.000000 0.163455
O O5 0.703961 0.748617 0.071421
O O6 0.804848 0.000000 0.090058
O O7 0.597598 0.249837 0.374974
O O8 0.904593 0.752301 0.310076
O O9 0.000000 0.500000 0.277181
O O10 0.500000 0.500000 0.851906
O O11 0.602808 0.500000 0.901841
O O12 0.139467 0.000000 0.500000
O O13 0.000000 0.500000 0.152679
#
# Coordination Sequence:
#
# PCOD8290607 Si02
#       7
#     8   8   8   8   8   8   8
#     4  10  20  34  54  81 114 154 190 222 290 339
#     4  10  24  40  56  82 119 145 191 246 281 355
#     4  10  22  35  53  77 120 150 185 243 271 339
#     4   9  19  33  51  76 112 153 191 227 277 337
#     4  10  21  37  55  79 109 147 193 249 302 339
#     4  12  24  41  62  83 108 150 198 258 307 347
#     4  11  20  34  55  86 118 160 196 226 271 345
#
# _framework density 19.877675
#
# number of rings (size 3 to 8) (size 9 to 14) (size 15 to 20)
#    0.857    0.857    0.000    5.143    0.000    9.429 
#    0.000    0.000    0.000    4.286    0.000    0.000 
#    0.000   40.000    0.000    0.000    0.000    0.000 
#
# Total GULP energy -347156.644312 kJ/mol
# GULP energy per Si atom -12398.451583 kJ/mol
# Density = 1.983243 g / cm^3
# Si number density = 19.877675 Si / 1000 Ang^3
#
#
#
# Elastic Constant Matrix: (Units=GPa)
#
#
# Indices 1 2 3 4 5 6 
#
# 1 84.6307 37.5101 2.0483 0.0000 0.0000 0.0000
# 2 37.5101 182.9984 16.3300 0.0000 0.0000 0.0000
# 3 2.0483 16.3300 49.5792 0.0000 0.0000 0.0000
# 4 0.0000 0.0000 0.0000 25.7057 0.0000 0.0000
# 5 0.0000 0.0000 0.0000 0.0000 26.3683 0.0000
# 6 0.0000 0.0000 0.0000 0.0000 0.0000 27.9712
#
#
#
# Elastic Compliance Matrix: (Units=1/GPa)
#
#
# Indices 1 2 3 4 5 6 
#
# 1 0.013003 -0.002697 0.000351 0.000000 0.000000 0.000000
# 2 -0.002697 0.006189 -0.001927 0.000000 0.000000 0.000000
# 3 0.000351 -0.001927 0.020790 0.000000 0.000000 0.000000
# 4 0.000000 0.000000 0.000000 0.038902 0.000000 0.000000
# 5 0.000000 0.000000 0.000000 0.000000 0.037924 0.000000
# 6 0.000000 0.000000 0.000000 0.000000 0.000000 0.035751
#
#
# Mechanical properties :
#
#
# Convention : Reuss Voigt Hill
#
# Bulk Modulus (GPa) = 31.81015 47.66501 39.73758
# Shear Modulus (GPa) = 29.14034 33.43037 31.28535
#
# Velocity S-wave (km/s) = 3.83297 4.10543 3.97154
# Velocity P-wave (km/s) = 5.96880 6.81938 6.40822
#
# Compressibility (1/GPa) = 0.03143651
#
# Stress axis : x y z
#
# Youngs Moduli (GPa) = 76.90697 161.57112 48.10002
#
# Poissons Ratio (x) = 0.43569 -0.01688
# Poissons Ratio (y) = 0.20738 0.09270
# Poissons Ratio (z) = -0.02699 0.31137
#
# Static dielectric constant tensor:
#      x y z
#    x 3.506460 0.000000 0.000000 
#    y 0.000000 3.480040 0.000000 
#    z 0.000000 0.000000 3.307400 
# 
# 
# High freq. dielectric constant tensor:
#      x y z
#    x 1.777520 0.000000 0.000000 
#    y 0.000000 1.797820 0.000000 
#    z 0.000000 0.000000 1.732860 
# 
# From -- ./inp_files/65741.got.cif
#   From: 2010.06.25/outbox.cif.g09.slc.cpg/sg71_33_cif.got.tgz:65741.got - 2010.06.28 04:59:45.
