data_PCOD8290225
_publ_section_title
;
Structure prediction by ZEFSAII (Michael W. Deem and Ramdas Pophale) SiO2 
 PCOD8290225
Probable space group: I M M M
;
_chemical_formula_sum "Si O2"
_cell_formula_units_Z 72
_cell_length_a 20.297532
_cell_length_b 8.686916
_cell_length_c 21.292672
_cell_angle_alpha 90.000000
_cell_angle_beta 90.000000
_cell_angle_gamma 90.000000
_cell_volume 3754.386857
_symmetry_space_group_name_H-M "I M M M"
_symmetry_group_IT_number 71
_symmetry_cell_setting 'orthorhombic'
loop_
_space_group_symop_operation_xyz
x,y,z
-x,-y,z
x,-y,-z
-x,y,-z
-x,-y,-z
x,y,-z
-x,y,z
x,-y,z
1/2+x,1/2+y,1/2+z
1/2-x,1/2-y,1/2+z
1/2+x,1/2-y,1/2-z
1/2-x,1/2+y,1/2-z
1/2-x,1/2-y,1/2-z
1/2+x,1/2+y,1/2-z
1/2-x,1/2+y,1/2+z
1/2+x,1/2-y,1/2+z
loop_
_atom_site_type_symbol
_atom_site_label
_atom_site_fract_x
_atom_site_fract_y
_atom_site_fract_z
Si Si1 0.000000 0.317577 0.148675
Si Si2 0.375651 0.177543 0.572022
Si Si3 0.379046 0.681997 0.131942
Si Si4 0.236871 0.680742 0.428177
Si Si5 0.928418 0.817386 0.500000
Si Si6 0.500000 0.181931 0.791900
O O1 0.065422 0.254899 0.114612
O O2 0.000000 0.261575 0.220383
O O3 0.000000 0.500000 0.143217
O O4 0.397815 0.194423 0.500000
O O5 0.312041 0.278995 0.587230
O O6 0.359624 0.000000 0.588112
O O7 0.382530 0.500000 0.141539
O O8 0.303876 0.743129 0.130974
O O9 0.394665 0.742828 0.062272
O O10 0.432009 0.755588 0.178622
O O11 0.220340 0.741729 0.500000
O O12 0.226269 0.500000 0.425304
O O13 0.000000 0.743531 0.500000
O O14 0.931510 0.000000 0.500000
O O15 0.500000 0.000000 0.798395
#
# Coordination Sequence:
#
# PCOD8290225 Si02
#       6
#     8  16  16  16   8   8
#     4   9  19  37  59  81 108 140 178 224 268 317
#     4   9  17  33  60  88 108 134 175 220 267 322
#     4  11  20  34  54  77 106 144 188 225 260 308
#     4  10  20  33  51  82 118 143 168 215 278 330
#     4   9  16  28  48  74 100 129 172 227 264 294
#     4  11  23  37  52  76 111 147 181 222 272 316
#
# _framework density 19.177565999999999
#
# number of rings (size 3 to 8) (size 9 to 14) (size 15 to 20)
#    0.000    2.111    2.222    2.000    0.000    2.222 
#    0.000    4.444    0.000    2.667    0.000    0.000 
#    0.000    0.000    0.000    0.000    0.000    0.000 
#
# Total GULP energy -446053.287390 kJ/mol
# GULP energy per Si atom -12390.369094 kJ/mol
# Density = 1.913392 g / cm^3
# Si number density = 19.177566 Si / 1000 Ang^3
#
#
#
# Elastic Constant Matrix: (Units=GPa)
#
#
# Indices 1 2 3 4 5 6 
#
# 1 136.5560 36.0964 71.3299 0.0000 0.0000 0.0000
# 2 36.0964 65.5662 34.0346 0.0000 0.0000 0.0000
# 3 71.3299 34.0346 106.1974 0.0000 0.0000 0.0000
# 4 0.0000 0.0000 0.0000 127.4603 0.0000 0.0000
# 5 0.0000 0.0000 0.0000 0.0000 11.3741 0.0000
# 6 0.0000 0.0000 0.0000 0.0000 0.0000 29.7564
#
#
#
# Elastic Compliance Matrix: (Units=1/GPa)
#
#
# Indices 1 2 3 4 5 6 
#
# 1 0.011704 -0.002834 -0.006953 0.000000 0.000000 0.000000
# 2 -0.002834 0.018982 -0.004180 0.000000 0.000000 0.000000
# 3 -0.006953 -0.004180 0.015426 0.000000 0.000000 0.000000
# 4 0.000000 0.000000 0.000000 0.007846 0.000000 0.000000
# 5 0.000000 0.000000 0.000000 0.000000 0.087919 0.000000
# 6 0.000000 0.000000 0.000000 0.000000 0.000000 0.033606
#
#
# Mechanical properties :
#
#
# Convention : Reuss Voigt Hill
#
# Bulk Modulus (GPa) = 55.01131 65.69349 60.35240
# Shear Modulus (GPa) = 23.86908 44.84208 34.35558
#
# Velocity S-wave (km/s) = 3.53177 4.84080 4.23714
# Velocity P-wave (km/s) = 6.73637 8.09779 7.44825
#
# Compressibility (1/GPa) = 0.01817808
#
# Stress axis : x y z
#
# Youngs Moduli (GPa) = 85.44030 52.68230 64.82540
#
# Poissons Ratio (x) = 0.14932 0.45073
# Poissons Ratio (y) = 0.24216 0.27095
# Poissons Ratio (z) = 0.59406 0.22019
#
# Static dielectric constant tensor:
#      x y z
#    x 3.755830 0.000000 0.000000 
#    y 0.000000 3.209640 0.000000 
#    z 0.000000 0.000000 3.339840 
# 
# 
# High freq. dielectric constant tensor:
#      x y z
#    x 1.764210 0.000000 0.000000 
#    y 0.000000 1.728590 0.000000 
#    z 0.000000 0.000000 1.718820 
# 
# From -- ./inp_files/54728.got.cif
#   From: 2010.06.25/outbox.cif.g09.slc.cpg/sg71_28_cif.got.tgz:54728.got - 2010.06.28 04:59:45.
