data_PCOD8290635
_publ_section_title
;
Structure prediction by ZEFSAII (Michael W. Deem and Ramdas Pophale) SiO2 
 PCOD8290635
Probable space group: I M M M
;
_chemical_formula_sum "Si O2"
_cell_formula_units_Z 96
_cell_length_a 8.859257
_cell_length_b 19.636069
_cell_length_c 30.185276
_cell_angle_alpha 90.000000
_cell_angle_beta 90.000000
_cell_angle_gamma 90.000000
_cell_volume 5251.060247
_symmetry_space_group_name_H-M "I M M M"
_symmetry_group_IT_number 71
_symmetry_cell_setting 'orthorhombic'
loop_
_space_group_symop_operation_xyz
x,y,z
-x,-y,z
x,-y,-z
-x,y,-z
-x,-y,-z
x,y,-z
-x,y,z
x,-y,z
1/2+x,1/2+y,1/2+z
1/2-x,1/2-y,1/2+z
1/2+x,1/2-y,1/2-z
1/2-x,1/2+y,1/2-z
1/2-x,1/2-y,1/2-z
1/2+x,1/2+y,1/2-z
1/2-x,1/2+y,1/2+z
1/2+x,1/2-y,1/2+z
loop_
_atom_site_type_symbol
_atom_site_label
_atom_site_fract_x
_atom_site_fract_y
_atom_site_fract_z
Si Si1 0.322964 0.295612 0.127299
Si Si2 0.175667 0.216795 0.792889
Si Si3 0.179069 0.928327 0.950267
Si Si4 0.675945 0.281114 0.552235
Si Si5 0.675123 0.922858 0.335611
Si Si6 0.672199 0.424431 0.743592
O O1 0.500000 0.290790 0.133191
O O2 0.247272 0.245580 0.162686
O O3 0.274471 0.274191 0.077987
O O4 0.270821 0.373271 0.133328
O O5 0.250000 0.250000 0.750000
O O6 0.201493 0.134670 0.792522
O O7 0.000000 0.235336 0.792587
O O8 0.230715 0.856149 0.929487
O O9 0.000000 0.926038 0.951898
O O10 0.231332 0.000000 0.926199
O O11 0.242433 0.930841 0.000000
O O12 0.707135 0.273968 0.500000
O O13 0.500000 0.269197 0.562671
O O14 0.500000 0.905547 0.341050
O O15 0.718217 0.910908 0.284650
O O16 0.711672 0.000000 0.350162
O O17 0.500000 0.419545 0.761020
O O18 0.702534 0.500000 0.723025
#
# Coordination Sequence:
#
# PCOD8290635 Si02
#       6
#    16  16  16  16  16  16
#     4  12  24  36  53  78 110 148 183 219 264 320
#     4  11  21  34  54  79 109 142 178 222 268 319
#     4   7  10  20  43  74 101 125 161 211 263 312
#     4   9  18  34  56  80 106 138 179 229 279 324
#     4  10  20  34  55  81 106 134 173 222 270 319
#     4   9  18  33  53  77 106 141 179 220 269 321
#
# _framework density 18.282022999999999
#
# number of rings (size 3 to 8) (size 9 to 14) (size 15 to 20)
#    0.000    2.333    1.667    4.000    0.000    2.000 
#    0.000    0.833    0.000    6.000    0.000    5.833 
#    0.000    0.000    0.000    0.000    0.000    0.000 
#
# Total GULP energy -594753.662695 kJ/mol
# GULP energy per Si atom -12390.701306 kJ/mol
# Density = 1.824041 g / cm^3
# Si number density = 18.282023 Si / 1000 Ang^3
#
#
#
# Elastic Constant Matrix: (Units=GPa)
#
#
# Indices 1 2 3 4 5 6 
#
# 1 98.8277 55.8242 37.5863 0.0000 0.0000 0.0000
# 2 55.8242 143.0229 48.2376 0.0000 0.0000 0.0000
# 3 37.5863 48.2376 59.7367 0.0000 0.0000 0.0000
# 4 0.0000 0.0000 0.0000 25.2770 0.0000 0.0000
# 5 0.0000 0.0000 0.0000 0.0000 23.2466 0.0000
# 6 0.0000 0.0000 0.0000 0.0000 0.0000 20.9587
#
#
#
# Elastic Compliance Matrix: (Units=1/GPa)
#
#
# Indices 1 2 3 4 5 6 
#
# 1 0.014505 -0.003550 -0.006259 0.000000 0.000000 0.000000
# 2 -0.003550 0.010478 -0.006227 0.000000 0.000000 0.000000
# 3 -0.006259 -0.006227 0.025707 0.000000 0.000000 0.000000
# 4 0.000000 0.000000 0.000000 0.039562 0.000000 0.000000
# 5 0.000000 0.000000 0.000000 0.000000 0.043017 0.000000
# 6 0.000000 0.000000 0.000000 0.000000 0.000000 0.047713
#
#
# Mechanical properties :
#
#
# Convention : Reuss Voigt Hill
#
# Bulk Modulus (GPa) = 53.71766 64.98705 59.35235
# Shear Modulus (GPa) = 22.80398 24.55907 23.68152
#
# Velocity S-wave (km/s) = 3.53561 3.66914 3.60299
# Velocity P-wave (km/s) = 6.79072 7.31945 7.06004
#
# Compressibility (1/GPa) = 0.01861585
#
# Stress axis : x y z
#
# Youngs Moduli (GPa) = 68.94341 95.43973 38.89995
#
# Poissons Ratio (x) = 0.33884 0.24349
# Poissons Ratio (y) = 0.24477 0.24223
# Poissons Ratio (z) = 0.43155 0.59431
#
# Static dielectric constant tensor:
#      x y z
#    x 3.243150 0.000000 0.000000 
#    y 0.000000 3.936160 0.000000 
#    z 0.000000 0.000000 2.991440 
# 
# 
# High freq. dielectric constant tensor:
#      x y z
#    x 1.694800 0.000000 0.000000 
#    y 0.000000 1.731060 0.000000 
#    z 0.000000 0.000000 1.662400 
# 
# From -- ./inp_files/14835.got.cif
#   From: 2010.06.25/outbox.cif.g09.slc.cpg/sg71_8_cif.got.tgz:14835.got - 2010.06.28 04:59:45.
