data_PCOD8290787
_publ_section_title
;
Structure prediction by ZEFSAII (Michael W. Deem and Ramdas Pophale) SiO2 
 PCOD8290787
Probable space group: I M M M
;
_chemical_formula_sum "Si O2"
_cell_formula_units_Z 96
_cell_length_a 29.348402
_cell_length_b 19.310378
_cell_length_c 8.873066
_cell_angle_alpha 90.000000
_cell_angle_beta 90.000000
_cell_angle_gamma 90.000000
_cell_volume 5028.621481
_symmetry_space_group_name_H-M "I M M M"
_symmetry_group_IT_number 71
_symmetry_cell_setting 'orthorhombic'
loop_
_space_group_symop_operation_xyz
x,y,z
-x,-y,z
x,-y,-z
-x,y,-z
-x,-y,-z
x,y,-z
-x,y,z
x,-y,z
1/2+x,1/2+y,1/2+z
1/2-x,1/2-y,1/2+z
1/2+x,1/2-y,1/2-z
1/2-x,1/2+y,1/2-z
1/2-x,1/2-y,1/2-z
1/2+x,1/2+y,1/2-z
1/2-x,1/2+y,1/2+z
1/2+x,1/2-y,1/2+z
loop_
_atom_site_type_symbol
_atom_site_label
_atom_site_fract_x
_atom_site_fract_y
_atom_site_fract_z
Si Si1 0.882159 0.169368 0.675550
Si Si2 0.448029 0.080419 0.676047
Si Si3 0.946520 0.076325 0.831810
Si Si4 0.872015 0.676785 0.320712
Si Si5 0.225010 0.683762 0.176885
Si Si6 0.698503 0.422871 0.176470
O O1 0.873573 0.174671 0.500000
O O2 0.929289 0.131864 0.712118
O O3 0.884831 0.246785 0.739545
O O4 0.841454 0.124250 0.750300
O O5 0.440774 0.094371 0.500000
O O6 0.500000 0.101116 0.722090
O O7 0.411048 0.124377 0.767121
O O8 0.439837 0.000000 0.713986
O O9 0.000000 0.075548 0.821144
O O10 0.927504 0.000000 0.790959
O O11 0.930741 0.097115 0.000000
O O12 0.868550 0.671795 0.500000
O O13 0.822740 0.662300 0.250476
O O14 0.250000 0.750000 0.250000
O O15 0.254147 0.615039 0.207543
O O16 0.219357 0.699146 0.000000
O O17 0.699302 0.500000 0.249122
O O18 0.689006 0.429744 0.000000
#
# Coordination Sequence:
#
# PCOD8290787 Si02
#       6
#    16  16  16  16  16  16
#     4  10  20  35  54  78 109 144 185 230 274 332
#     4   9  20  41  66  90 118 155 200 246 296 359
#     4   9  19  35  52  73 105 142 180 226 278 329
#     4  11  23  38  58  88 120 152 194 238 289 352
#     4  11  21  37  59  83 115 155 196 242 296 352
#     4   9  18  34  56  80 107 143 186 231 279 333
#
# _framework density 19.090720000000001
#
# number of rings (size 3 to 8) (size 9 to 14) (size 15 to 20)
#    0.000    2.167    1.667    2.500    0.000    4.667 
#    0.000    6.667    0.000    2.500    0.000    0.000 
#    0.000    0.000    0.000    0.000    0.000    0.000 
#
# Total GULP energy -594989.871354 kJ/mol
# GULP energy per Si atom -12395.622320 kJ/mol
# Density = 1.904727 g / cm^3
# Si number density = 19.090720 Si / 1000 Ang^3
#
#
#
# Elastic Constant Matrix: (Units=GPa)
#
#
# Indices 1 2 3 4 5 6 
#
# 1 114.6835 69.6428 48.3044 0.0000 0.0000 0.0000
# 2 69.6428 137.8035 44.7500 0.0000 0.0000 0.0000
# 3 48.3044 44.7500 58.9801 0.0000 0.0000 0.0000
# 4 0.0000 0.0000 0.0000 27.3858 0.0000 0.0000
# 5 0.0000 0.0000 0.0000 0.0000 34.3235 0.0000
# 6 0.0000 0.0000 0.0000 0.0000 0.0000 34.6367
#
#
#
# Elastic Compliance Matrix: (Units=1/GPa)
#
#
# Indices 1 2 3 4 5 6 
#
# 1 0.015470 -0.004915 -0.008941 0.000000 0.000000 0.000000
# 2 -0.004915 0.011191 -0.004465 0.000000 0.000000 0.000000
# 3 -0.008941 -0.004465 0.027666 0.000000 0.000000 0.000000
# 4 0.000000 0.000000 0.000000 0.036515 0.000000 0.000000
# 5 0.000000 0.000000 0.000000 0.000000 0.029135 0.000000
# 6 0.000000 0.000000 0.000000 0.000000 0.000000 0.028871
#
#
# Mechanical properties :
#
#
# Convention : Reuss Voigt Hill
#
# Bulk Modulus (GPa) = 56.54871 70.76237 63.65554
# Shear Modulus (GPa) = 26.12543 29.18719 27.65631
#
# Velocity S-wave (km/s) = 3.70332 3.91432 3.81028
# Velocity P-wave (km/s) = 6.92614 7.58788 7.26455
#
# Compressibility (1/GPa) = 0.01768387
#
# Stress axis : x y z
#
# Youngs Moduli (GPa) = 64.64075 89.36037 36.14600
#
# Poissons Ratio (x) = 0.43919 0.32318
# Poissons Ratio (y) = 0.31770 0.16141
# Poissons Ratio (z) = 0.57795 0.39904
#
# Static dielectric constant tensor:
#      x y z
#    x 3.485260 0.000000 0.000000 
#    y 0.000000 3.789650 0.000000 
#    z 0.000000 0.000000 3.386040 
# 
# 
# High freq. dielectric constant tensor:
#      x y z
#    x 1.749050 0.000000 0.000000 
#    y 0.000000 1.750850 0.000000 
#    z 0.000000 0.000000 1.722680 
# 
# From -- ./inp_files/14811.got.cif
#   From: 2010.06.25/outbox.cif.g09.slc.cpg/sg71_8_cif.got.tgz:14811.got - 2010.06.28 04:59:45.
