data_PCOD8290387
_publ_section_title
;
Structure prediction by ZEFSAII (Michael W. Deem and Ramdas Pophale) SiO2 
 PCOD8290387
Probable space group: I M M M
;
_chemical_formula_sum "Si O2"
_cell_formula_units_Z 80
_cell_length_a 9.054408
_cell_length_b 19.006547
_cell_length_c 25.691222
_cell_angle_alpha 90.000000
_cell_angle_beta 90.000000
_cell_angle_gamma 90.000000
_cell_volume 4421.280269
_symmetry_space_group_name_H-M "I M M M"
_symmetry_group_IT_number 71
_symmetry_cell_setting 'orthorhombic'
loop_
_space_group_symop_operation_xyz
x,y,z
-x,-y,z
x,-y,-z
-x,y,-z
-x,-y,-z
x,y,-z
-x,y,z
x,-y,z
1/2+x,1/2+y,1/2+z
1/2-x,1/2-y,1/2+z
1/2+x,1/2-y,1/2-z
1/2-x,1/2+y,1/2-z
1/2-x,1/2-y,1/2-z
1/2+x,1/2+y,1/2-z
1/2-x,1/2+y,1/2+z
1/2+x,1/2-y,1/2+z
loop_
_atom_site_type_symbol
_atom_site_label
_atom_site_fract_x
_atom_site_fract_y
_atom_site_fract_z
Si Si1 0.672427 0.419122 0.898163
Si Si2 0.827421 0.917622 0.103815
Si Si3 0.328974 0.670654 0.800071
Si Si4 0.833664 0.416279 0.000000
Si Si5 0.333056 0.916429 0.000000
Si Si6 0.828593 0.666502 0.694522
O O1 0.500000 0.409925 0.908388
O O2 0.715522 0.500000 0.888526
O O3 0.725153 0.375978 0.848197
O O4 0.754104 0.387262 0.948462
O O5 0.750366 0.888904 0.051355
O O6 0.761315 0.877065 0.152508
O O7 0.000000 0.901635 0.099306
O O8 0.796247 0.000000 0.111776
O O9 0.500000 0.657052 0.786297
O O10 0.231227 0.646528 0.751401
O O11 0.301586 0.751253 0.815589
O O12 0.823856 0.500000 0.000000
O O13 0.000000 0.388362 0.000000
O O14 0.500000 0.886960 0.000000
O O15 0.331709 0.000000 0.000000
O O16 0.000000 0.646119 0.690951
#
# Coordination Sequence:
#
# PCOD8290387 Si02
#       6
#    16  16  16   8   8  16
#     4   9  17  31  52  74  96 126 164 201 238 287
#     4  10  20  34  53  76 102 132 167 207 250 299
#     4   9  19  35  52  72 100 134 169 205 249 298
#     4   9  17  29  46  71 102 129 155 195 246 291
#     4   9  17  31  52  77 104 131 161 201 250 301
#     4  10  20  34  52  73 100 134 169 207 250 296
#
# _framework density 18.094307000000001
#
# number of rings (size 3 to 8) (size 9 to 14) (size 15 to 20)
#    0.000    2.600    0.000    1.800    0.000    6.000 
#    0.000    3.000    0.000    2.400    0.000    0.000 
#    0.000    0.000    0.000    0.000    0.000    0.000 
#
# Total GULP energy -496089.421613 kJ/mol
# GULP energy per Si atom -12402.235540 kJ/mol
# Density = 1.805312 g / cm^3
# Si number density = 18.094307 Si / 1000 Ang^3
#
#
#
# Elastic Constant Matrix: (Units=GPa)
#
#
# Indices 1 2 3 4 5 6 
#
# 1 110.1180 42.3575 84.7099 0.0000 0.0000 0.0000
# 2 42.3575 49.1657 67.0222 0.0000 0.0000 0.0000
# 3 84.7099 67.0222 174.0613 0.0000 0.0000 0.0000
# 4 0.0000 0.0000 0.0000 -18.1167 0.0000 0.0000
# 5 0.0000 0.0000 0.0000 0.0000 39.0462 0.0000
# 6 0.0000 0.0000 0.0000 0.0000 0.0000 22.6068
#
#
#
# Elastic Compliance Matrix: (Units=1/GPa)
#
#
# Indices 1 2 3 4 5 6 
#
# 1 0.015425 -0.006432 -0.005030 0.000000 0.000000 0.000000
# 2 -0.006432 0.045492 -0.014387 0.000000 0.000000 0.000000
# 3 -0.005030 -0.014387 0.013733 0.000000 0.000000 0.000000
# 4 0.000000 0.000000 0.000000 -0.055198 0.000000 0.000000
# 5 0.000000 0.000000 0.000000 0.000000 0.025611 0.000000
# 6 0.000000 0.000000 0.000000 0.000000 0.000000 0.044234
#
#
# Mechanical properties :
#
#
# Convention : Reuss Voigt Hill
#
# Bulk Modulus (GPa) = 43.56820 80.16935 61.86878
# Shear Modulus (GPa) = 33.63726 17.99095 25.81410
#
# Velocity S-wave (km/s) = 4.31629 3.15665 3.78119
# Velocity P-wave (km/s) = 6.99794 7.59530 7.30273
#
# Compressibility (1/GPa) = 0.02295252
#
# Stress axis : x y z
#
# Youngs Moduli (GPa) = 64.83113 21.98186 72.81905
#
# Poissons Ratio (x) = 0.14138 0.36629
# Poissons Ratio (y) = 0.41697 1.04762
# Poissons Ratio (z) = 0.32611 0.31624
#
# Static dielectric constant tensor:
#      x y z
#    x 3.435300 0.000000 0.000000 
#    y 0.000000 3.107320 0.000000 
#    z 0.000000 0.000000 3.496350 
# 
# 
# High freq. dielectric constant tensor:
#      x y z
#    x 1.709220 0.000000 0.000000 
#    y 0.000000 1.671360 0.000000 
#    z 0.000000 0.000000 1.714470 
# 
# From -- ./inp_files/12385.got.cif
#   From: 2010.06.25/outbox.cif.g09.slc.cpg/sg71_7_cif.got.tgz:12385.got - 2010.06.28 04:59:45.
