data_PCOD8290363
_publ_section_title
;
Structure prediction by ZEFSAII (Michael W. Deem and Ramdas Pophale) SiO2 
 PCOD8290363
Probable space group: I M M M
;
_chemical_formula_sum "Si O2"
_cell_formula_units_Z 104
_cell_length_a 22.943536
_cell_length_b 8.901202
_cell_length_c 27.945640
_cell_angle_alpha 90.000000
_cell_angle_beta 90.000000
_cell_angle_gamma 90.000000
_cell_volume 5707.199685
_symmetry_space_group_name_H-M "I M M M"
_symmetry_group_IT_number 71
_symmetry_cell_setting 'orthorhombic'
loop_
_space_group_symop_operation_xyz
x,y,z
-x,-y,z
x,-y,-z
-x,y,-z
-x,-y,-z
x,y,-z
-x,y,z
x,-y,z
1/2+x,1/2+y,1/2+z
1/2-x,1/2-y,1/2+z
1/2+x,1/2-y,1/2-z
1/2-x,1/2+y,1/2-z
1/2-x,1/2-y,1/2-z
1/2+x,1/2+y,1/2-z
1/2-x,1/2+y,1/2+z
1/2+x,1/2-y,1/2+z
loop_
_atom_site_type_symbol
_atom_site_label
_atom_site_fract_x
_atom_site_fract_y
_atom_site_fract_z
Si Si1 0.936190 0.822607 0.730623
Si Si2 0.236380 0.670085 0.699748
Si Si3 0.931065 0.663231 0.000000
Si Si4 0.366475 0.667784 0.679541
Si Si5 0.435703 0.822085 0.600896
Si Si6 0.566814 0.823122 0.055170
Si Si7 0.633924 0.321677 0.141011
O O1 0.888188 0.767444 0.769073
O O2 0.916612 0.772937 0.677911
O O3 0.000000 0.752167 0.741468
O O4 0.939813 0.000000 0.732280
O O5 0.213762 0.500000 0.709131
O O6 0.250000 0.750000 0.750000
O O7 0.297806 0.665945 0.673101
O O8 0.193578 0.755503 0.663151
O O9 0.914772 0.748391 0.049549
O O10 0.900113 0.500000 0.000000
O O11 0.000000 0.640015 0.000000
O O12 0.391981 0.500000 0.672314
O O13 0.389571 0.778816 0.639994
O O14 0.500000 0.761282 0.615071
O O15 0.437899 0.000000 0.595374
O O16 0.500000 0.773139 0.066826
O O17 0.614166 0.742170 0.089448
O O18 0.573196 0.000000 0.062852
O O19 0.581322 0.780694 0.000000
O O20 0.641898 0.500000 0.136782
#
# Coordination Sequence:
#
# PCOD8290363 Si02
#       7
#    16  16   8  16  16  16  16
#     4   9  17  30  48  73 107 141 169 205 260 321
#     4  11  22  38  57  77 103 141 187 229 271 322
#     4   7  12  26  47  69  97 131 161 195 244 299
#     4  10  20  34  51  72 102 139 175 212 262 317
#     4   9  17  30  50  76 103 132 168 209 257 310
#     4   9  19  37  60  87 120 154 186 227 285 345
#     4  11  21  35  56  83 112 146 188 230 274 329
#
# _framework density 18.222595999999999
#
# number of rings (size 3 to 8) (size 9 to 14) (size 15 to 20)
#    0.000    2.385    1.538    3.231    0.000    3.385 
#    0.000    1.154    1.692    4.154    0.000    0.000 
#    0.000    0.000    0.000    0.000    0.000    0.000 
#
# Total GULP energy -644249.514712 kJ/mol
# GULP energy per Si atom -12389.413744 kJ/mol
# Density = 1.818112 g / cm^3
# Si number density = 18.222596 Si / 1000 Ang^3
#
#
#
# Elastic Constant Matrix: (Units=GPa)
#
#
# Indices 1 2 3 4 5 6 
#
# 1 96.1462 31.2668 51.8572 0.0000 0.0000 0.0000
# 2 31.2668 62.8156 44.4167 0.0000 0.0000 0.0000
# 3 51.8572 44.4167 137.7239 0.0000 0.0000 0.0000
# 4 0.0000 0.0000 0.0000 15.3826 0.0000 0.0000
# 5 0.0000 0.0000 0.0000 0.0000 20.9819 0.0000
# 6 0.0000 0.0000 0.0000 0.0000 0.0000 25.4038
#
#
#
# Elastic Compliance Matrix: (Units=1/GPa)
#
#
# Indices 1 2 3 4 5 6 
#
# 1 0.013839 -0.004150 -0.003872 0.000000 0.000000 0.000000
# 2 -0.004150 0.021867 -0.005490 0.000000 0.000000 0.000000
# 3 -0.003872 -0.005490 0.010489 0.000000 0.000000 0.000000
# 4 0.000000 0.000000 0.000000 0.065008 0.000000 0.000000
# 5 0.000000 0.000000 0.000000 0.000000 0.047660 0.000000
# 6 0.000000 0.000000 0.000000 0.000000 0.000000 0.039364
#
#
# Mechanical properties :
#
#
# Convention : Reuss Voigt Hill
#
# Bulk Modulus (GPa) = 52.16183 61.30748 56.73465
# Shear Modulus (GPa) = 21.58493 23.62999 22.60746
#
# Velocity S-wave (km/s) = 3.44541 3.60494 3.52608
# Velocity P-wave (km/s) = 6.67194 7.14452 6.91227
#
# Compressibility (1/GPa) = 0.01917111
#
# Stress axis : x y z
#
# Youngs Moduli (GPa) = 72.25907 45.73080 95.33479
#
# Poissons Ratio (x) = 0.18980 0.36917
# Poissons Ratio (y) = 0.29990 0.52334
# Poissons Ratio (z) = 0.27981 0.25104
#
# Static dielectric constant tensor:
#      x y z
#    x 3.409480 0.000000 0.000000 
#    y 0.000000 3.166040 0.000000 
#    z 0.000000 0.000000 3.580990 
# 
# 
# High freq. dielectric constant tensor:
#      x y z
#    x 1.693370 0.000000 0.000000 
#    y 0.000000 1.684070 0.000000 
#    z 0.000000 0.000000 1.712700 
# 
# From -- ./inp_files/66807.got.cif
#   From: 2010.06.25/outbox.cif.g09.slc.cpg/sg71_34_cif.got.tgz:66807.got - 2010.06.28 04:59:45.
