data_PCOD8290708
_publ_section_title
;
Structure prediction by ZEFSAII (Michael W. Deem and Ramdas Pophale) SiO2 
 PCOD8290708
Probable space group: I M M M
;
_chemical_formula_sum "Si O2"
_cell_formula_units_Z 88
_cell_length_a 9.327320
_cell_length_b 22.685185
_cell_length_c 21.864503
_cell_angle_alpha 90.000000
_cell_angle_beta 90.000000
_cell_angle_gamma 90.000000
_cell_volume 4626.353476
_symmetry_space_group_name_H-M "I M M M"
_symmetry_group_IT_number 71
_symmetry_cell_setting 'orthorhombic'
loop_
_space_group_symop_operation_xyz
x,y,z
-x,-y,z
x,-y,-z
-x,y,-z
-x,-y,-z
x,y,-z
-x,y,z
x,-y,z
1/2+x,1/2+y,1/2+z
1/2-x,1/2-y,1/2+z
1/2+x,1/2-y,1/2-z
1/2-x,1/2+y,1/2-z
1/2-x,1/2-y,1/2-z
1/2+x,1/2+y,1/2-z
1/2-x,1/2+y,1/2+z
1/2+x,1/2-y,1/2+z
loop_
_atom_site_type_symbol
_atom_site_label
_atom_site_fract_x
_atom_site_fract_y
_atom_site_fract_z
Si Si1 0.159837 0.066341 0.929695
Si Si2 0.663779 0.565437 0.760955
Si Si3 0.834992 0.123965 0.385592
Si Si4 0.338208 0.737037 0.810906
Si Si5 0.839249 0.632784 0.335224
Si Si6 0.328888 0.930339 0.500000
O O1 0.274993 0.104837 0.895479
O O2 0.000000 0.091903 0.919692
O O3 0.165589 0.000000 0.904042
O O4 0.202741 0.067392 0.000000
O O5 0.500000 0.571738 0.739408
O O6 0.721582 0.500000 0.745579
O O7 0.677002 0.574512 0.833401
O O8 0.752630 0.615027 0.725518
O O9 0.778077 0.185688 0.355663
O O10 0.735216 0.102959 0.441030
O O11 0.000000 0.130507 0.408262
O O12 0.500000 0.718840 0.791501
O O13 0.250000 0.750000 0.750000
O O14 0.336177 0.797705 0.848220
O O15 0.000000 0.609711 0.325795
O O16 0.500000 0.922833 0.500000
O O17 0.286918 0.000000 0.500000
#
# Coordination Sequence:
#
# PCOD8290708 Si02
#       6
#    16  16  16  16  16   8
#     4   9  19  37  58  78 105 145 191 233 273 327
#     4  10  20  34  56  85 113 146 191 236 278 335
#     4  10  21  40  64  86 113 156 203 242 286 348
#     4  10  21  38  60  85 114 149 189 233 282 339
#     4  11  22  34  53  84 117 147 181 229 289 345
#     4  11  25  43  63  91 125 157 194 249 312 363
#
# _framework density 19.021459
#
# number of rings (size 3 to 8) (size 9 to 14) (size 15 to 20)
#    0.000    1.909    1.818    2.455    0.000    6.909 
#    1.636    0.909    0.000    0.000    0.000    0.000 
#    0.000    0.000    0.000    0.000    0.000    0.000 
#
# Total GULP energy -545497.140910 kJ/mol
# GULP energy per Si atom -12397.662293 kJ/mol
# Density = 1.897817 g / cm^3
# Si number density = 19.021459 Si / 1000 Ang^3
#
#
#
# Elastic Constant Matrix: (Units=GPa)
#
#
# Indices 1 2 3 4 5 6 
#
# 1 97.0107 51.7698 55.0111 0.0000 0.0000 0.0000
# 2 51.7698 115.3832 53.1874 0.0000 0.0000 0.0000
# 3 55.0111 53.1874 103.2767 0.0000 0.0000 0.0000
# 4 0.0000 0.0000 0.0000 32.7356 0.0000 0.0000
# 5 0.0000 0.0000 0.0000 0.0000 31.8087 0.0000
# 6 0.0000 0.0000 0.0000 0.0000 0.0000 28.2003
#
#
#
# Elastic Compliance Matrix: (Units=1/GPa)
#
#
# Indices 1 2 3 4 5 6 
#
# 1 0.016269 -0.004334 -0.006434 0.000000 0.000000 0.000000
# 2 -0.004334 0.012519 -0.004139 0.000000 0.000000 0.000000
# 3 -0.006434 -0.004139 0.015241 0.000000 0.000000 0.000000
# 4 0.000000 0.000000 0.000000 0.030548 0.000000 0.000000
# 5 0.000000 0.000000 0.000000 0.000000 0.031438 0.000000
# 6 0.000000 0.000000 0.000000 0.000000 0.000000 0.035461
#
#
# Mechanical properties :
#
#
# Convention : Reuss Voigt Hill
#
# Bulk Modulus (GPa) = 70.34169 70.62301 70.48235
# Shear Modulus (GPa) = 28.40443 28.92907 28.66675
#
# Velocity S-wave (km/s) = 3.86850 3.90406 3.88632
# Velocity P-wave (km/s) = 7.55077 7.58491 7.56786
#
# Compressibility (1/GPa) = 0.01421632
#
# Stress axis : x y z
#
# Youngs Moduli (GPa) = 61.46491 79.87768 65.61065
#
# Poissons Ratio (x) = 0.34618 0.42215
# Poissons Ratio (y) = 0.26638 0.27156
# Poissons Ratio (z) = 0.39547 0.33060
#
# Static dielectric constant tensor:
#      x y z
#    x 3.457680 0.000000 0.000000 
#    y 0.000000 3.715680 0.000000 
#    z 0.000000 0.000000 3.306510 
# 
# 
# High freq. dielectric constant tensor:
#      x y z
#    x 1.733280 0.000000 0.000000 
#    y 0.000000 1.749230 0.000000 
#    z 0.000000 0.000000 1.734180 
# 
# From -- ./inp_files/10458.got.cif
#   From: 2010.06.25/outbox.cif.g09.slc.cpg/sg71_6_cif.got.tgz:10458.got - 2010.06.28 04:59:45.
