data_PCOD8290957
_publ_section_title
;
Structure prediction by ZEFSAII (Michael W. Deem and Ramdas Pophale) SiO2 
 PCOD8290957
Probable space group: I M M M
;
_chemical_formula_sum "Si O2"
_cell_formula_units_Z 104
_cell_length_a 26.981147
_cell_length_b 21.905970
_cell_length_c 8.481755
_cell_angle_alpha 90.000000
_cell_angle_beta 90.000000
_cell_angle_gamma 90.000000
_cell_volume 5013.125998
_symmetry_space_group_name_H-M "I M M M"
_symmetry_group_IT_number 71
_symmetry_cell_setting 'orthorhombic'
loop_
_space_group_symop_operation_xyz
x,y,z
-x,-y,z
x,-y,-z
-x,y,-z
-x,-y,-z
x,y,-z
-x,y,z
x,-y,z
1/2+x,1/2+y,1/2+z
1/2-x,1/2-y,1/2+z
1/2+x,1/2-y,1/2-z
1/2-x,1/2+y,1/2-z
1/2-x,1/2-y,1/2-z
1/2+x,1/2+y,1/2-z
1/2-x,1/2+y,1/2+z
1/2+x,1/2-y,1/2+z
loop_
_atom_site_type_symbol
_atom_site_label
_atom_site_fract_x
_atom_site_fract_y
_atom_site_fract_z
Si Si1 0.442038 0.500000 0.824243
Si Si2 0.776547 0.689543 0.186533
Si Si3 0.389599 0.182721 0.313827
Si Si4 0.221910 0.068744 0.684555
Si Si5 0.943383 0.792502 0.316695
Si Si6 0.054786 0.433465 0.186731
Si Si7 0.882108 0.896872 0.181647
O O1 0.500000 0.500000 0.840223
O O2 0.426728 0.441186 0.726028
O O3 0.418296 0.500000 0.000000
O O4 0.750000 0.750000 0.250000
O O5 0.833429 0.694635 0.239043
O O6 0.754532 0.625151 0.255396
O O7 0.770479 0.689004 0.000000
O O8 0.396921 0.193617 0.500000
O O9 0.428130 0.223338 0.216006
O O10 0.403480 0.114297 0.260841
O O11 0.231383 0.065644 0.500000
O O12 0.165046 0.085253 0.715423
O O13 0.234077 0.000000 0.754158
O O14 0.938651 0.809211 0.500000
O O15 0.902852 0.830021 0.217623
O O16 0.000000 0.803794 0.260096
O O17 0.069932 0.500000 0.253899
O O18 0.000000 0.415069 0.249783
O O19 0.052701 0.436186 0.000000
O O20 0.867009 0.902169 0.000000
#
# Coordination Sequence:
#
# PCOD8290957 Si02
#       7
#     8  16  16  16  16  16  16
#     4  11  23  39  59  83 115 153 189 227 280 345
#     4  10  22  38  57  84 113 149 195 243 296 349
#     4  10  20  35  57  85 115 146 190 246 294 342
#     4  10  21  39  62  85 117 161 203 243 296 360
#     4  11  24  40  58  82 115 156 198 238 291 361
#     4   8  14  26  48  80 115 147 176 215 276 343
#     4  12  24  38  59  87 116 148 194 245 290 337
#
# _framework density 20.745539000000001
#
# number of rings (size 3 to 8) (size 9 to 14) (size 15 to 20)
#    0.000    1.769    0.769    4.385    0.000    8.615 
#    0.000    3.077    0.000    0.462    0.000    4.308 
#    0.000    0.000    0.000    0.000    0.000    0.000 
#
# Total GULP energy -644594.926536 kJ/mol
# GULP energy per Si atom -12396.056280 kJ/mol
# Density = 2.069832 g / cm^3
# Si number density = 20.745539 Si / 1000 Ang^3
#
#
#
# Elastic Constant Matrix: (Units=GPa)
#
#
# Indices 1 2 3 4 5 6 
#
# 1 91.4519 51.3117 12.8014 0.0000 0.0000 0.0000
# 2 51.3117 147.5726 14.5896 0.0000 0.0000 0.0000
# 3 12.8014 14.5896 28.9121 0.0000 0.0000 0.0000
# 4 0.0000 0.0000 0.0000 24.6038 0.0000 0.0000
# 5 0.0000 0.0000 0.0000 0.0000 21.0797 0.0000
# 6 0.0000 0.0000 0.0000 0.0000 0.0000 38.8970
#
#
#
# Elastic Compliance Matrix: (Units=1/GPa)
#
#
# Indices 1 2 3 4 5 6 
#
# 1 0.013999 -0.004478 -0.003938 0.000000 0.000000 0.000000
# 2 -0.004478 0.008565 -0.002339 0.000000 0.000000 0.000000
# 3 -0.003938 -0.002339 0.037512 0.000000 0.000000 0.000000
# 4 0.000000 0.000000 0.000000 0.040644 0.000000 0.000000
# 5 0.000000 0.000000 0.000000 0.000000 0.047439 0.000000
# 6 0.000000 0.000000 0.000000 0.000000 0.000000 0.025709
#
#
# Mechanical properties :
#
#
# Convention : Reuss Voigt Hill
#
# Bulk Modulus (GPa) = 25.93109 47.26023 36.59566
# Shear Modulus (GPa) = 24.01160 29.53169 26.77164
#
# Velocity S-wave (km/s) = 3.40580 3.77705 3.59622
# Velocity P-wave (km/s) = 5.29081 6.46930 5.90951
#
# Compressibility (1/GPa) = 0.03856375
#
# Stress axis : x y z
#
# Youngs Moduli (GPa) = 71.43612 116.75970 26.65830
#
# Poissons Ratio (x) = 0.52285 0.10499
# Poissons Ratio (y) = 0.31989 0.06236
# Poissons Ratio (z) = 0.28135 0.27312
#
# Static dielectric constant tensor:
#      x y z
#    x 3.748770 0.000000 0.000000 
#    y 0.000000 4.307780 0.000000 
#    z 0.000000 0.000000 3.437270 
# 
# 
# High freq. dielectric constant tensor:
#      x y z
#    x 1.810930 0.000000 0.000000 
#    y 0.000000 1.832750 0.000000 
#    z 0.000000 0.000000 1.778970 
# 
# From -- ./inp_files/14971.got.cif
#   From: 2010.06.25/outbox.cif.g09.slc.cpg/sg71_8_cif.got.tgz:14971.got - 2010.06.28 04:59:45.
