data_PCOD8290096
_publ_section_title
;
Structure prediction by ZEFSAII (Michael W. Deem and Ramdas Pophale) SiO2 
 PCOD8290096
Probable space group: I M M M
;
_chemical_formula_sum "Si O2"
_cell_formula_units_Z 104
_cell_length_a 29.554999
_cell_length_b 8.973975
_cell_length_c 22.386607
_cell_angle_alpha 90.000000
_cell_angle_beta 90.000000
_cell_angle_gamma 90.000000
_cell_volume 5937.506247
_symmetry_space_group_name_H-M "I M M M"
_symmetry_group_IT_number 71
_symmetry_cell_setting 'orthorhombic'
loop_
_space_group_symop_operation_xyz
x,y,z
-x,-y,z
x,-y,-z
-x,y,-z
-x,-y,-z
x,y,-z
-x,y,z
x,-y,z
1/2+x,1/2+y,1/2+z
1/2-x,1/2-y,1/2+z
1/2+x,1/2-y,1/2-z
1/2-x,1/2+y,1/2-z
1/2-x,1/2-y,1/2-z
1/2+x,1/2+y,1/2-z
1/2-x,1/2+y,1/2+z
1/2+x,1/2-y,1/2+z
loop_
_atom_site_type_symbol
_atom_site_label
_atom_site_fract_x
_atom_site_fract_y
_atom_site_fract_z
Si Si1 0.446414 0.831676 0.117826
Si Si2 0.609496 0.676565 0.214088
Si Si3 0.551925 0.671379 0.430629
Si Si4 0.946075 0.831482 0.500000
Si Si5 0.382931 0.176204 0.339974
Si Si6 0.199165 0.335177 0.690620
Si Si7 0.716643 0.164169 0.330387
O O1 0.500000 0.833550 0.116641
O O2 0.431770 0.735574 0.174712
O O3 0.427334 0.754331 0.057988
O O4 0.427318 0.000000 0.121801
O O5 0.608915 0.500000 0.217593
O O6 0.602130 0.740875 0.280040
O O7 0.655947 0.729328 0.182844
O O8 0.560559 0.704219 0.500000
O O9 0.500000 0.706836 0.414059
O O10 0.563098 0.500000 0.415619
O O11 0.584239 0.779003 0.393469
O O12 0.000000 0.832591 0.500000
O O13 0.927187 0.000000 0.500000
O O14 0.331236 0.222155 0.357077
O O15 0.385504 0.000000 0.328131
O O16 0.187870 0.500000 0.666077
O O17 0.241762 0.271995 0.652619
O O18 0.212180 0.344123 0.759434
O O19 0.727634 0.000000 0.355785
#
# Coordination Sequence:
#
# PCOD8290096 Si02
#       7
#    16  16  16   8  16  16  16
#     4  10  20  34  51  71  97 129 166 207 247 287
#     4  11  21  32  48  71 102 136 167 203 250 303
#     4   9  19  36  55  74  98 130 169 211 254 304
#     4   9  17  31  51  73  95 121 159 201 237 279
#     4  10  20  33  50  74 102 130 164 206 250 299
#     4   9  16  27  44  67  96 127 160 197 238 287
#     4   8  15  27  43  66  95 125 157 194 238 287
#
# _framework density 17.515771999999998
#
# number of rings (size 3 to 8) (size 9 to 14) (size 15 to 20)
#    0.000    2.538    0.000    4.385    0.000    7.385 
#    0.000    0.769    0.000    0.000    2.000    0.000 
#    0.000    0.000    0.000    0.000    0.000    0.000 
#
# Total GULP energy -644690.596399 kJ/mol
# GULP energy per Si atom -12397.896085 kJ/mol
# Density = 1.747590 g / cm^3
# Si number density = 17.515772 Si / 1000 Ang^3
#
#
#
# Elastic Constant Matrix: (Units=GPa)
#
#
# Indices 1 2 3 4 5 6 
#
# 1 69.7589 41.8675 36.0987 0.0000 0.0000 0.0000
# 2 41.8675 130.9993 44.3783 0.0000 0.0000 0.0000
# 3 36.0987 44.3783 60.8507 0.0000 0.0000 0.0000
# 4 0.0000 0.0000 0.0000 27.3890 0.0000 0.0000
# 5 0.0000 0.0000 0.0000 0.0000 11.8192 0.0000
# 6 0.0000 0.0000 0.0000 0.0000 0.0000 30.2003
#
#
#
# Elastic Compliance Matrix: (Units=1/GPa)
#
#
# Indices 1 2 3 4 5 6 
#
# 1 0.021789 -0.003433 -0.010422 0.000000 0.000000 0.000000
# 2 -0.003433 0.010679 -0.005752 0.000000 0.000000 0.000000
# 3 -0.010422 -0.005752 0.026811 0.000000 0.000000 0.000000
# 4 0.000000 0.000000 0.000000 0.036511 0.000000 0.000000
# 5 0.000000 0.000000 0.000000 0.000000 0.084608 0.000000
# 6 0.000000 0.000000 0.000000 0.000000 0.000000 0.033112
#
#
# Mechanical properties :
#
#
# Convention : Reuss Voigt Hill
#
# Bulk Modulus (GPa) = 49.83720 56.25534 53.04627
# Shear Modulus (GPa) = 19.27426 23.16599 21.22013
#
# Velocity S-wave (km/s) = 3.32082 3.64067 3.48442
# Velocity P-wave (km/s) = 6.57406 7.06112 6.82194
#
# Compressibility (1/GPa) = 0.02006533
#
# Stress axis : x y z
#
# Youngs Moduli (GPa) = 45.89528 93.63849 37.29779
#
# Poissons Ratio (x) = 0.32146 0.38872
# Poissons Ratio (y) = 0.15756 0.21453
# Poissons Ratio (z) = 0.47833 0.53860
#
# Static dielectric constant tensor:
#      x y z
#    x 3.309250 0.000000 0.000000 
#    y 0.000000 3.469320 0.000000 
#    z 0.000000 0.000000 2.931000 
# 
# 
# High freq. dielectric constant tensor:
#      x y z
#    x 1.671790 0.000000 0.000000 
#    y 0.000000 1.691360 0.000000 
#    z 0.000000 0.000000 1.635920 
# 
# From -- ./inp_files/56704.got.cif
#   From: 2010.06.25/outbox.cif.g09.slc.cpg/sg71_29_cif.got.tgz:56704.got - 2010.06.28 04:59:45.
