data_PCOD8290655
_publ_section_title
;
Structure prediction by ZEFSAII (Michael W. Deem and Ramdas Pophale) SiO2 
 PCOD8290655
Probable space group: I M M M
;
_chemical_formula_sum "Si O2"
_cell_formula_units_Z 120
_cell_length_a 30.306184
_cell_length_b 13.632044
_cell_length_c 14.916432
_cell_angle_alpha 90.000000
_cell_angle_beta 90.000000
_cell_angle_gamma 90.000000
_cell_volume 6162.503621
_symmetry_space_group_name_H-M "I M M M"
_symmetry_group_IT_number 71
_symmetry_cell_setting 'orthorhombic'
loop_
_space_group_symop_operation_xyz
x,y,z
-x,-y,z
x,-y,-z
-x,y,-z
-x,-y,-z
x,y,-z
-x,y,z
x,-y,z
1/2+x,1/2+y,1/2+z
1/2-x,1/2-y,1/2+z
1/2+x,1/2-y,1/2-z
1/2-x,1/2+y,1/2-z
1/2-x,1/2-y,1/2-z
1/2+x,1/2+y,1/2-z
1/2-x,1/2+y,1/2+z
1/2+x,1/2-y,1/2+z
loop_
_atom_site_type_symbol
_atom_site_label
_atom_site_fract_x
_atom_site_fract_y
_atom_site_fract_z
Si Si1 0.221804 0.614381 0.235284
Si Si2 0.221753 0.762800 0.604801
Si Si3 0.121747 0.742490 0.404893
Si Si4 0.451197 0.383854 0.500000
Si Si5 0.048724 0.615625 0.099709
Si Si6 0.402831 0.389718 0.322410
Si Si7 0.127720 0.690098 0.781538
Si Si8 0.450759 0.389966 0.143056
O O1 0.228873 0.500000 0.252142
O O2 0.230195 0.667034 0.331639
O O3 0.253470 0.648131 0.154275
O O4 0.172751 0.634935 0.196433
O O5 0.237668 0.746950 0.500000
O O6 0.170242 0.790581 0.605418
O O7 0.119438 0.684699 0.500000
O O8 0.114213 0.668819 0.322224
O O9 0.085129 0.826880 0.409302
O O10 0.455432 0.500000 0.500000
O O11 0.500000 0.336458 0.500000
O O12 0.424490 0.349568 0.413184
O O13 0.053018 0.500000 0.093878
O O14 0.086930 0.654741 0.161793
O O15 0.000000 0.644255 0.136977
O O16 0.054795 0.660771 0.000000
O O17 0.382175 0.500000 0.332001
O O18 0.365806 0.308804 0.294888
O O19 0.441489 0.389835 0.249229
O O20 0.500000 0.347632 0.127071
O O21 0.447751 0.500000 0.105166
#
# Coordination Sequence:
#
# PCOD8290655 Si02
#       8
#    16  16  16   8  16  16  16  16
#     4  10  21  38  62  91 117 144 185 239 288 337
#     4   9  20  40  61  85 116 150 186 229 283 349
#     4   9  19  35  53  74 103 139 179 220 268 326
#     4   9  16  26  42  64  93 137 191 235 270 320
#     4   9  19  35  53  75 106 145 188 231 276 332
#     4   9  18  31  46  68 104 147 185 225 272 327
#     4  10  20  34  55  82 109 144 184 232 284 332
#     4   9  17  29  45  68 100 137 179 226 272 318
#
# _framework density 19.472605999999999
#
# number of rings (size 3 to 8) (size 9 to 14) (size 15 to 20)
#    0.000    2.733    0.000    1.200    0.933    6.400 
#    0.000    8.667    0.000    1.200    0.000    0.933 
#    0.000    0.000    0.000    0.000    0.000    0.000 
#
# Total GULP energy -743391.998151 kJ/mol
# GULP energy per Si atom -12389.866636 kJ/mol
# Density = 1.942829 g / cm^3
# Si number density = 19.472606 Si / 1000 Ang^3
#
#
#
# Elastic Constant Matrix: (Units=GPa)
#
#
# Indices 1 2 3 4 5 6 
#
# 1 91.2121 36.3824 49.2429 0.0000 0.0000 0.0000
# 2 36.3824 72.7551 31.8062 0.0000 0.0000 0.0000
# 3 49.2429 31.8062 142.6751 0.0000 0.0000 0.0000
# 4 0.0000 0.0000 0.0000 14.5722 0.0000 0.0000
# 5 0.0000 0.0000 0.0000 0.0000 24.4968 0.0000
# 6 0.0000 0.0000 0.0000 0.0000 0.0000 27.4165
#
#
#
# Elastic Compliance Matrix: (Units=1/GPa)
#
#
# Indices 1 2 3 4 5 6 
#
# 1 0.015531 -0.006009 -0.004021 0.000000 0.000000 0.000000
# 2 -0.006009 0.017554 -0.001839 0.000000 0.000000 0.000000
# 3 -0.004021 -0.001839 0.008807 0.000000 0.000000 0.000000
# 4 0.000000 0.000000 0.000000 0.068624 0.000000 0.000000
# 5 0.000000 0.000000 0.000000 0.000000 0.040822 0.000000
# 6 0.000000 0.000000 0.000000 0.000000 0.000000 0.036474
#
#
# Mechanical properties :
#
#
# Convention : Reuss Voigt Hill
#
# Bulk Modulus (GPa) = 55.08587 60.16725 57.62656
# Shear Modulus (GPa) = 22.97790 25.91113 24.44452
#
# Velocity S-wave (km/s) = 3.43886 3.65176 3.54691
# Velocity P-wave (km/s) = 6.64214 6.98183 6.81410
#
# Compressibility (1/GPa) = 0.01815348
#
# Stress axis : x y z
#
# Youngs Moduli (GPa) = 64.38756 56.96833 113.54964
#
# Poissons Ratio (x) = 0.34231 0.45656
# Poissons Ratio (y) = 0.38689 0.20886
# Poissons Ratio (z) = 0.25889 0.10478
#
# Static dielectric constant tensor:
#      x y z
#    x 3.489590 0.000000 0.000000 
#    y 0.000000 3.461000 0.000000 
#    z 0.000000 0.000000 3.941320 
# 
# 
# High freq. dielectric constant tensor:
#      x y z
#    x 1.748750 0.000000 0.000000 
#    y 0.000000 1.737950 0.000000 
#    z 0.000000 0.000000 1.770810 
# 
# From -- ./inp_files/41135.got.cif
#   From: 2010.06.25/outbox.cif.g09.slc.cpg/sg71_21_cif.got.tgz:41135.got - 2010.06.28 04:59:45.
