data_PCOD8290409
_publ_section_title
;
Structure prediction by ZEFSAII (Michael W. Deem and Ramdas Pophale) SiO2 
 PCOD8290409
Probable space group: I M M M
;
_chemical_formula_sum "Si O2"
_cell_formula_units_Z 88
_cell_length_a 24.804789
_cell_length_b 15.205380
_cell_length_c 13.083738
_cell_angle_alpha 90.000000
_cell_angle_beta 90.000000
_cell_angle_gamma 90.000000
_cell_volume 4934.744300
_symmetry_space_group_name_H-M "I M M M"
_symmetry_group_IT_number 71
_symmetry_cell_setting 'orthorhombic'
loop_
_space_group_symop_operation_xyz
x,y,z
-x,-y,z
x,-y,-z
-x,y,-z
-x,-y,-z
x,y,-z
-x,y,z
x,-y,z
1/2+x,1/2+y,1/2+z
1/2-x,1/2-y,1/2+z
1/2+x,1/2-y,1/2-z
1/2-x,1/2+y,1/2-z
1/2-x,1/2-y,1/2-z
1/2+x,1/2+y,1/2-z
1/2-x,1/2+y,1/2+z
1/2+x,1/2-y,1/2+z
loop_
_atom_site_type_symbol
_atom_site_label
_atom_site_fract_x
_atom_site_fract_y
_atom_site_fract_z
Si Si1 0.758917 0.899765 0.618225
Si Si2 0.061391 0.172372 0.224830
Si Si3 0.064307 0.000000 0.885788
Si Si4 0.561225 0.850632 0.382661
Si Si5 0.656856 0.902037 0.754600
Si Si6 0.146921 0.231897 0.379895
O O1 0.745354 0.885445 0.500000
O O2 0.704891 0.876944 0.678579
O O3 0.804598 0.831830 0.654235
O O4 0.778276 0.000000 0.638914
O O5 0.066614 0.246939 0.138592
O O6 0.093158 0.196599 0.326956
O O7 0.000000 0.158193 0.259404
O O8 0.085838 0.084832 0.174445
O O9 0.000000 0.000000 0.891833
O O10 0.088644 0.000000 0.000000
O O11 0.576778 0.869087 0.500000
O O12 0.500000 0.882242 0.360610
O O13 0.601062 0.902850 0.308360
O O14 0.657904 0.832265 0.846460
O O15 0.664507 0.000000 0.800742
O O16 0.137269 0.229490 0.500000
#
# Coordination Sequence:
#
# PCOD8290409 Si02
#       6
#    16  16   8  16  16  16
#     4   9  18  33  54  78 100 124 160 206 257 311
#     4   9  18  31  48  73 103 136 171 206 248 298
#     4   9  16  28  49  75 103 135 168 202 248 307
#     4   9  17  30  49  74 104 132 159 199 253 310
#     4  10  20  34  52  74  99 131 168 210 255 300
#     4  10  21  35  52  73  99 136 176 212 249 291
#
# _framework density 17.832737000000002
#
# number of rings (size 3 to 8) (size 9 to 14) (size 15 to 20)
#    0.000    2.636    0.000    1.636    1.273    4.364 
#    0.000    0.909    0.000    2.727    0.000    5.091 
#    0.000    0.000    0.000    0.000    0.000    0.000 
#
# Total GULP energy -545595.241581 kJ/mol
# GULP energy per Si atom -12399.891854 kJ/mol
# Density = 1.779215 g / cm^3
# Si number density = 17.832737 Si / 1000 Ang^3
#
#
#
# Elastic Constant Matrix: (Units=GPa)
#
#
# Indices 1 2 3 4 5 6 
#
# 1 79.0425 37.5506 39.2056 0.0000 0.0000 0.0000
# 2 37.5506 111.8781 43.0079 0.0000 0.0000 0.0000
# 3 39.2056 43.0079 79.9291 0.0000 0.0000 0.0000
# 4 0.0000 0.0000 0.0000 21.0108 0.0000 0.0000
# 5 0.0000 0.0000 0.0000 0.0000 22.6764 0.0000
# 6 0.0000 0.0000 0.0000 0.0000 0.0000 24.8651
#
#
#
# Elastic Compliance Matrix: (Units=1/GPa)
#
#
# Indices 1 2 3 4 5 6 
#
# 1 0.017618 -0.003267 -0.006884 0.000000 0.000000 0.000000
# 2 -0.003267 0.011875 -0.004787 0.000000 0.000000 0.000000
# 3 -0.006884 -0.004787 0.018463 0.000000 0.000000 0.000000
# 4 0.000000 0.000000 0.000000 0.047595 0.000000 0.000000
# 5 0.000000 0.000000 0.000000 0.000000 0.044099 0.000000
# 6 0.000000 0.000000 0.000000 0.000000 0.000000 0.040217
#
#
# Mechanical properties :
#
#
# Convention : Reuss Voigt Hill
#
# Bulk Modulus (GPa) = 55.30820 56.70867 56.00844
# Shear Modulus (GPa) = 23.17286 23.78282 23.47784
#
# Velocity S-wave (km/s) = 3.60871 3.65589 3.63238
# Velocity P-wave (km/s) = 6.96032 7.04912 7.00486
#
# Compressibility (1/GPa) = 0.01808050
#
# Stress axis : x y z
#
# Youngs Moduli (GPa) = 56.76062 84.20957 54.16092
#
# Poissons Ratio (x) = 0.27511 0.37283
# Poissons Ratio (y) = 0.18544 0.25928
# Poissons Ratio (z) = 0.39073 0.40313
#
# Static dielectric constant tensor:
#      x y z
#    x 3.281820 0.000000 0.000000 
#    y 0.000000 3.431780 0.000000 
#    z 0.000000 0.000000 3.079900 
# 
# 
# High freq. dielectric constant tensor:
#      x y z
#    x 1.683330 0.000000 0.000000 
#    y 0.000000 1.701520 0.000000 
#    z 0.000000 0.000000 1.673770 
# 
# From -- ./inp_files/21997.got.cif
#   From: 2010.06.25/outbox.cif.g09.slc.cpg/sg71_11_cif.got.tgz:21997.got - 2010.06.28 04:59:45.
