data_PCOD8290205
_publ_section_title
;
Structure prediction by ZEFSAII (Michael W. Deem and Ramdas Pophale) SiO2 
 PCOD8290205
Probable space group: I M M M
;
_chemical_formula_sum "Si O2"
_cell_formula_units_Z 88
_cell_length_a 27.490546
_cell_length_b 8.903951
_cell_length_c 19.317390
_cell_angle_alpha 90.000000
_cell_angle_beta 90.000000
_cell_angle_gamma 90.000000
_cell_volume 4728.403987
_symmetry_space_group_name_H-M "I M M M"
_symmetry_group_IT_number 71
_symmetry_cell_setting 'orthorhombic'
loop_
_space_group_symop_operation_xyz
x,y,z
-x,-y,z
x,-y,-z
-x,y,-z
-x,-y,-z
x,y,-z
-x,y,z
x,-y,z
1/2+x,1/2+y,1/2+z
1/2-x,1/2-y,1/2+z
1/2+x,1/2-y,1/2-z
1/2-x,1/2+y,1/2-z
1/2-x,1/2-y,1/2-z
1/2+x,1/2+y,1/2-z
1/2-x,1/2+y,1/2+z
1/2+x,1/2-y,1/2+z
loop_
_atom_site_type_symbol
_atom_site_label
_atom_site_fract_x
_atom_site_fract_y
_atom_site_fract_z
Si Si1 0.775357 0.833768 0.918093
Si Si2 0.820870 0.174027 0.418948
Si Si3 0.944458 0.178191 0.796095
Si Si4 0.500000 0.821468 0.077162
Si Si5 0.381895 0.678589 0.576744
Si Si6 0.907336 0.677957 0.338622
O O1 0.733065 0.720874 0.893740
O O2 0.828387 0.768972 0.896285
O O3 0.766161 0.000000 0.886010
O O4 0.775267 0.847947 0.000000
O O5 0.828460 0.209667 0.500000
O O6 0.858206 0.271286 0.375063
O O7 0.828684 0.000000 0.402647
O O8 0.922943 0.233311 0.869691
O O9 0.911451 0.251988 0.737228
O O10 0.000000 0.235087 0.790922
O O11 0.941381 0.000000 0.788815
O O12 0.452464 0.761176 0.116202
O O13 0.500000 0.000000 0.074583
O O14 0.500000 0.753646 0.000000
O O15 0.393674 0.744352 0.500000
O O16 0.380897 0.500000 0.572265
O O17 0.907928 0.500000 0.332479
#
# Coordination Sequence:
#
# PCOD8290205 Si02
#       6
#    16  16  16   8  16  16
#     4   8  14  28  51  76 102 134 172 212 254 303
#     4  10  20  33  51  78 109 136 167 213 266 313
#     4  10  20  34  53  77 108 141 171 213 268 315
#     4   9  18  32  51  73  94 123 170 220 253 287
#     4   8  15  30  54  82 107 134 173 216 256 307
#     4  11  21  35  53  73 102 140 180 216 253 307
#
# _framework density 18.61093
#
# number of rings (size 3 to 8) (size 9 to 14) (size 15 to 20)
#    0.000    2.636    0.909    2.727    0.000    2.182 
#    0.000    3.636    0.000    3.818    0.000    1.273 
#    0.000    0.000    0.000    0.000    0.000    0.000 
#
# Total GULP energy -545482.768006 kJ/mol
# GULP energy per Si atom -12397.335637 kJ/mol
# Density = 1.856857 g / cm^3
# Si number density = 18.610930 Si / 1000 Ang^3
#
#
#
# Elastic Constant Matrix: (Units=GPa)
#
#
# Indices 1 2 3 4 5 6 
#
# 1 99.7952 24.4677 46.6412 0.0000 0.0000 0.0000
# 2 24.4677 37.8956 25.8134 0.0000 0.0000 0.0000
# 3 46.6412 25.8134 101.1953 0.0000 0.0000 0.0000
# 4 0.0000 0.0000 0.0000 18.1242 0.0000 0.0000
# 5 0.0000 0.0000 0.0000 0.0000 11.6300 0.0000
# 6 0.0000 0.0000 0.0000 0.0000 0.0000 17.2558
#
#
#
# Elastic Compliance Matrix: (Units=1/GPa)
#
#
# Indices 1 2 3 4 5 6 
#
# 1 0.013652 -0.005481 -0.004894 0.000000 0.000000 0.000000
# 2 -0.005481 0.034138 -0.006182 0.000000 0.000000 0.000000
# 3 -0.004894 -0.006182 0.013715 0.000000 0.000000 0.000000
# 4 0.000000 0.000000 0.000000 0.055175 0.000000 0.000000
# 5 0.000000 0.000000 0.000000 0.000000 0.085985 0.000000
# 6 0.000000 0.000000 0.000000 0.000000 0.000000 0.057952
#
#
# Mechanical properties :
#
#
# Convention : Reuss Voigt Hill
#
# Bulk Modulus (GPa) = 35.22288 48.08121 41.65205
# Shear Modulus (GPa) = 16.49119 18.86624 17.67871
#
# Velocity S-wave (km/s) = 2.97998 3.18735 3.08541
# Velocity P-wave (km/s) = 5.55044 6.27986 5.92638
#
# Compressibility (1/GPa) = 0.02839063
#
# Stress axis : x y z
#
# Youngs Moduli (GPa) = 73.25167 29.29293 72.91552
#
# Poissons Ratio (x) = 0.16054 0.35685
# Poissons Ratio (y) = 0.40146 0.45077
# Poissons Ratio (z) = 0.35850 0.18109
#
# Static dielectric constant tensor:
#      x y z
#    x 3.752510 0.000000 0.000000 
#    y 0.000000 3.128330 0.000000 
#    z 0.000000 0.000000 3.400480 
# 
# 
# High freq. dielectric constant tensor:
#      x y z
#    x 1.733190 0.000000 0.000000 
#    y 0.000000 1.692990 0.000000 
#    z 0.000000 0.000000 1.705180 
# 
# From -- ./inp_files/10396.got.cif
#   From: 2010.06.25/outbox.cif.g09.slc.cpg/sg71_6_cif.got.tgz:10396.got - 2010.06.28 04:59:45.
