data_PCOD8290682
_publ_section_title
;
Structure prediction by ZEFSAII (Michael W. Deem and Ramdas Pophale) SiO2 
 PCOD8290682
Probable space group: I M M M
;
_chemical_formula_sum "Si O2"
_cell_formula_units_Z 88
_cell_length_a 22.598222
_cell_length_b 9.147948
_cell_length_c 22.254877
_cell_angle_alpha 90.000000
_cell_angle_beta 90.000000
_cell_angle_gamma 90.000000
_cell_volume 4600.691964
_symmetry_space_group_name_H-M "I M M M"
_symmetry_group_IT_number 71
_symmetry_cell_setting 'orthorhombic'
loop_
_space_group_symop_operation_xyz
x,y,z
-x,-y,z
x,-y,-z
-x,y,-z
-x,-y,-z
x,y,-z
-x,y,z
x,-y,z
1/2+x,1/2+y,1/2+z
1/2-x,1/2-y,1/2+z
1/2+x,1/2-y,1/2-z
1/2-x,1/2+y,1/2-z
1/2-x,1/2-y,1/2-z
1/2+x,1/2+y,1/2-z
1/2-x,1/2+y,1/2+z
1/2+x,1/2-y,1/2+z
loop_
_atom_site_type_symbol
_atom_site_label
_atom_site_fract_x
_atom_site_fract_y
_atom_site_fract_z
Si Si1 0.429748 0.825334 0.500000
Si Si2 0.934923 0.828208 0.433495
Si Si3 0.863700 0.337495 0.339576
Si Si4 0.766239 0.163006 0.190372
Si Si5 0.566256 0.832917 0.275199
Si Si6 0.118354 0.174154 0.119168
O O1 0.500000 0.785550 0.500000
O O2 0.396404 0.756345 0.442694
O O3 0.421333 0.000000 0.500000
O O4 0.925146 0.763772 0.500000
O O5 0.885220 0.767530 0.390974
O O6 0.000000 0.783112 0.409888
O O7 0.928579 0.000000 0.435236
O O8 0.890179 0.500000 0.348163
O O9 0.793570 0.338527 0.347949
O O10 0.886076 0.280264 0.274515
O O11 0.750000 0.250000 0.250000
O O12 0.817977 0.225875 0.147039
O O13 0.784755 0.000000 0.210437
O O14 0.500000 0.818983 0.248703
O O15 0.570168 0.726102 0.332277
O O16 0.579395 0.000000 0.295305
O O17 0.115463 0.000000 0.108634
#
# Coordination Sequence:
#
# PCOD8290682 Si02
#       6
#     8  16  16  16  16  16
#     4  11  25  45  67  89 117 159 206 249 300 363
#     4   9  19  36  55  77 110 148 185 230 282 334
#     4  10  20  35  56  82 112 148 189 233 279 336
#     4  10  21  38  60  85 115 150 188 231 282 341
#     4  10  20  34  55  84 117 151 188 233 286 347
#     4  11  23  39  61  89 119 153 194 244 299 351
#
# _framework density 19.127556999999999
#
# number of rings (size 3 to 8) (size 9 to 14) (size 15 to 20)
#    0.000    1.909    1.818    2.455    0.000    6.909 
#    1.636    0.909    0.000    0.000    0.000    0.000 
#    0.000    0.000    0.000    0.000    0.000    0.000 
#
# Total GULP energy -545425.049591 kJ/mol
# GULP energy per Si atom -12396.023854 kJ/mol
# Density = 1.908402 g / cm^3
# Si number density = 19.127557 Si / 1000 Ang^3
#
#
#
# Elastic Constant Matrix: (Units=GPa)
#
#
# Indices 1 2 3 4 5 6 
#
# 1 109.0379 37.0786 54.7117 0.0000 0.0000 0.0000
# 2 37.0786 67.6630 53.7410 0.0000 0.0000 0.0000
# 3 54.7117 53.7410 117.0914 0.0000 0.0000 0.0000
# 4 0.0000 0.0000 0.0000 24.4190 0.0000 0.0000
# 5 0.0000 0.0000 0.0000 0.0000 30.9461 0.0000
# 6 0.0000 0.0000 0.0000 0.0000 0.0000 29.4169
#
#
#
# Elastic Compliance Matrix: (Units=1/GPa)
#
#
# Indices 1 2 3 4 5 6 
#
# 1 0.012478 -0.003473 -0.004236 0.000000 0.000000 0.000000
# 2 -0.003473 0.024224 -0.009495 0.000000 0.000000 0.000000
# 3 -0.004236 -0.009495 0.014878 0.000000 0.000000 0.000000
# 4 0.000000 0.000000 0.000000 0.040952 0.000000 0.000000
# 5 0.000000 0.000000 0.000000 0.000000 0.032314 0.000000
# 6 0.000000 0.000000 0.000000 0.000000 0.000000 0.033994
#
#
# Mechanical properties :
#
#
# Convention : Reuss Voigt Hill
#
# Bulk Modulus (GPa) = 58.23988 64.98388 61.61188
# Shear Modulus (GPa) = 25.12920 26.84044 25.98482
#
# Velocity S-wave (km/s) = 3.62853 3.75004 3.68978
# Velocity P-wave (km/s) = 6.93320 7.26623 7.10167
#
# Compressibility (1/GPa) = 0.01717037
#
# Stress axis : x y z
#
# Youngs Moduli (GPa) = 80.14241 41.28183 67.21461
#
# Poissons Ratio (x) = 0.14337 0.28474
# Poissons Ratio (y) = 0.27834 0.63821
# Poissons Ratio (z) = 0.33951 0.39197
#
# Static dielectric constant tensor:
#      x y z
#    x 3.691260 0.000000 0.000000 
#    y 0.000000 3.493510 0.000000 
#    z 0.000000 0.000000 3.430250 
# 
# 
# High freq. dielectric constant tensor:
#      x y z
#    x 1.751970 0.000000 0.000000 
#    y 0.000000 1.740470 0.000000 
#    z 0.000000 0.000000 1.736500 
# 
# From -- ./inp_files/10460.got.cif
#   From: 2010.06.25/outbox.cif.g09.slc.cpg/sg71_6_cif.got.tgz:10460.got - 2010.06.28 04:59:45.
