data_PCOD8290488
_publ_section_title
;
Structure prediction by ZEFSAII (Michael W. Deem and Ramdas Pophale) SiO2 
 PCOD8290488
Probable space group: I M M M
;
_chemical_formula_sum "Si O2"
_cell_formula_units_Z 96
_cell_length_a 18.650600
_cell_length_b 28.770891
_cell_length_c 9.015691
_cell_angle_alpha 90.000000
_cell_angle_beta 90.000000
_cell_angle_gamma 90.000000
_cell_volume 4837.769120
_symmetry_space_group_name_H-M "I M M M"
_symmetry_group_IT_number 71
_symmetry_cell_setting 'orthorhombic'
loop_
_space_group_symop_operation_xyz
x,y,z
-x,-y,z
x,-y,-z
-x,y,-z
-x,-y,-z
x,y,-z
-x,y,z
x,-y,z
1/2+x,1/2+y,1/2+z
1/2-x,1/2-y,1/2+z
1/2+x,1/2-y,1/2-z
1/2-x,1/2+y,1/2-z
1/2-x,1/2-y,1/2-z
1/2+x,1/2+y,1/2-z
1/2-x,1/2+y,1/2+z
1/2+x,1/2-y,1/2+z
loop_
_atom_site_type_symbol
_atom_site_label
_atom_site_fract_x
_atom_site_fract_y
_atom_site_fract_z
Si Si1 0.582996 0.299542 0.324453
Si Si2 0.335229 0.380519 0.828055
Si Si3 0.583387 0.550403 0.338213
Si Si4 0.418514 0.113935 0.327104
Si Si5 0.415276 0.205563 0.834314
Si Si6 0.289398 0.947790 0.325463
O O1 0.588552 0.299016 0.500000
O O2 0.500000 0.311577 0.276984
O O3 0.643019 0.334379 0.260785
O O4 0.607301 0.249634 0.263239
O O5 0.399359 0.416424 0.798979
O O6 0.265411 0.408202 0.763880
O O7 0.327788 0.367621 0.000000
O O8 0.608642 0.570453 0.500000
O O9 0.500000 0.543721 0.342494
O O10 0.619726 0.500000 0.311720
O O11 0.414338 0.126298 0.500000
O O12 0.500000 0.102041 0.279575
O O13 0.386522 0.158515 0.241297
O O14 0.369866 0.069310 0.287996
O O15 0.500000 0.202315 0.840827
O O16 0.383054 0.210223 0.000000
O O17 0.276513 0.950722 0.500000
O O18 0.278930 0.000000 0.257639
#
# Coordination Sequence:
#
# PCOD8290488 Si02
#       6
#    16  16  16  16  16  16
#     4  10  20  34  53  77 106 140 179 220 257 298
#     4  11  21  32  48  71 102 139 176 214 259 308
#     4   9  18  32  48  66  91 126 170 219 265 306
#     4   9  17  32  57  84 106 132 169 211 257 313
#     4   9  17  31  53  81 111 138 166 207 260 313
#     4   9  19  35  53  76 107 139 172 215 264 309
#
# _framework density 19.843857
#
# number of rings (size 3 to 8) (size 9 to 14) (size 15 to 20)
#    0.000    2.500    0.000    3.000    0.000    6.667 
#    0.000    5.000    0.000    2.500    0.000    2.333 
#    0.000    0.000    0.000    0.000    0.000    0.000 
#
# Total GULP energy -594710.459404 kJ/mol
# GULP energy per Si atom -12389.801238 kJ/mol
# Density = 1.979869 g / cm^3
# Si number density = 19.843857 Si / 1000 Ang^3
#
#
#
# Elastic Constant Matrix: (Units=GPa)
#
#
# Indices 1 2 3 4 5 6 
#
# 1 70.8996 54.8684 24.7431 0.0000 0.0000 0.0000
# 2 54.8684 126.1092 38.1273 0.0000 0.0000 0.0000
# 3 24.7431 38.1273 65.4713 0.0007 0.0003 0.0002
# 4 0.0000 0.0000 0.0007 17.3489 0.0001 0.0001
# 5 0.0000 0.0000 0.0003 0.0001 15.5954 -0.0001
# 6 0.0000 0.0000 0.0002 0.0001 -0.0001 -23.8345
#
#
#
# Elastic Compliance Matrix: (Units=1/GPa)
#
#
# Indices 1 2 3 4 5 6 
#
# 1 0.021837 -0.008503 -0.003301 0.000000 0.000000 0.000000
# 2 -0.008503 0.012935 -0.004319 0.000000 0.000000 0.000000
# 3 -0.003301 -0.004319 0.019037 -0.000001 0.000000 0.000000
# 4 0.000000 0.000000 -0.000001 0.057641 0.000000 0.000000
# 5 0.000000 0.000000 0.000000 0.000000 0.064122 0.000000
# 6 0.000000 0.000000 0.000000 0.000000 0.000000 -0.041956
#
#
# Mechanical properties :
#
#
# Convention : Reuss Voigt Hill
#
# Bulk Modulus (GPa) = 46.37736 55.32864 50.85300
# Shear Modulus (GPa) = 28.89367 11.47137 20.18252
#
# Velocity S-wave (km/s) = 3.81996 2.40694 3.19261
# Velocity P-wave (km/s) = 6.54813 5.97219 6.26678
#
# Compressibility (1/GPa) = 0.02156225
#
# Stress axis : x y z
#
# Youngs Moduli (GPa) = 45.79445 77.30970 52.53009
#
# Poissons Ratio (x) = 0.65735 0.17340
# Poissons Ratio (y) = 0.38938 0.22689
# Poissons Ratio (z) = 0.15116 0.33392
#
# Static dielectric constant tensor:
#      x y z
#    x 3.470960 0.000000 0.000000 
#    y 0.000000 3.790810 0.000000 
#    z 0.000000 0.000000 3.622720 
# 
# 
# High freq. dielectric constant tensor:
#      x y z
#    x 1.747600 0.000000 0.000000 
#    y 0.000000 1.780720 0.000000 
#    z 0.000000 0.000000 1.756760 
# 
# From -- ./inp_files/13130.got.cif
#   From: 2010.06.25/outbox.cif.g09.slc.cpg/sg71_7_cif.got.tgz:13130.got - 2010.06.28 04:59:45.
