data_PCOD8290030
_publ_section_title
;
Structure prediction by ZEFSAII (Michael W. Deem and Ramdas Pophale) SiO2 
 PCOD8290030
Probable space group: I M M M
;
_chemical_formula_sum "Si O2"
_cell_formula_units_Z 104
_cell_length_a 9.035381
_cell_length_b 21.759632
_cell_length_c 26.113641
_cell_angle_alpha 90.000000
_cell_angle_beta 90.000000
_cell_angle_gamma 90.000000
_cell_volume 5134.113271
_symmetry_space_group_name_H-M "I M M M"
_symmetry_group_IT_number 71
_symmetry_cell_setting 'orthorhombic'
loop_
_space_group_symop_operation_xyz
x,y,z
-x,-y,z
x,-y,-z
-x,y,-z
-x,-y,-z
x,y,-z
-x,y,z
x,-y,z
1/2+x,1/2+y,1/2+z
1/2-x,1/2-y,1/2+z
1/2+x,1/2-y,1/2-z
1/2-x,1/2+y,1/2-z
1/2-x,1/2-y,1/2-z
1/2+x,1/2+y,1/2-z
1/2-x,1/2+y,1/2+z
1/2+x,1/2-y,1/2+z
loop_
_atom_site_type_symbol
_atom_site_label
_atom_site_fract_x
_atom_site_fract_y
_atom_site_fract_z
Si Si1 0.324435 0.928739 0.500000
Si Si2 0.675425 0.853467 0.214127
Si Si3 0.664946 0.428049 0.369441
Si Si4 0.828222 0.748529 0.640452
Si Si5 0.829709 0.931704 0.705497
Si Si6 0.830364 0.352345 0.557561
Si Si7 0.671581 0.623549 0.899658
O O1 0.500000 0.922275 0.500000
O O2 0.262107 0.895674 0.550425
O O3 0.274974 0.000000 0.500000
O O4 0.500000 0.853353 0.219353
O O5 0.722432 0.904565 0.173338
O O6 0.731941 0.786484 0.192209
O O7 0.744578 0.874515 0.268120
O O8 0.500000 0.401046 0.360637
O O9 0.660094 0.500000 0.366542
O O10 0.725909 0.408217 0.424976
O O11 0.795150 0.706546 0.591720
O O12 0.758763 0.814566 0.626325
O O13 0.000000 0.759524 0.649721
O O14 0.812355 0.928002 0.644139
O O15 0.000000 0.924790 0.721877
O O16 0.772038 0.000000 0.721803
O O17 0.790947 0.333923 0.500000
O O18 0.000000 0.373204 0.563430
O O19 0.500000 0.632887 0.915749
#
# Coordination Sequence:
#
# PCOD8290030 Si02
#       7
#     8  16  16  16  16  16  16
#     4  11  25  43  61  87 125 157 186 237 294 335
#     4  10  20  35  56  81 110 147 187 227 279 341
#     4  10  20  33  49  71 102 140 183 232 282 329
#     4   8  17  34  56  83 111 141 184 234 279 328
#     4  10  21  36  55  84 118 148 187 237 283 332
#     4   9  18  32  51  74 103 139 178 226 283 340
#     4  10  21  39  65  89 112 151 196 235 280 340
#
# _framework density 20.256661999999999
#
# number of rings (size 3 to 8) (size 9 to 14) (size 15 to 20)
#    0.000    2.385    0.000    3.000    1.077    6.462 
#    0.000    5.385    0.000    0.000    0.000    0.000 
#    0.000    0.000    0.000    0.000    0.000    0.000 
#
# Total GULP energy -644408.833858 kJ/mol
# GULP energy per Si atom -12392.477574 kJ/mol
# Density = 2.021056 g / cm^3
# Si number density = 20.256662 Si / 1000 Ang^3
#
#
#
# Elastic Constant Matrix: (Units=GPa)
#
#
# Indices 1 2 3 4 5 6 
#
# 1 60.3371 35.8466 35.8025 0.0000 0.0000 0.0000
# 2 35.8466 107.3338 44.3307 0.0000 0.0000 0.0000
# 3 35.8025 44.3307 114.8955 0.0000 0.0000 0.0000
# 4 0.0000 0.0000 0.0000 20.4528 0.0000 0.0000
# 5 0.0000 0.0000 0.0000 0.0000 29.5893 0.0000
# 6 0.0000 0.0000 0.0000 0.0000 0.0000 22.4117
#
#
#
# Elastic Compliance Matrix: (Units=1/GPa)
#
#
# Indices 1 2 3 4 5 6 
#
# 1 0.022831 -0.005575 -0.004963 0.000000 0.000000 0.000000
# 2 -0.005575 0.012444 -0.003064 0.000000 0.000000 0.000000
# 3 -0.004963 -0.003064 0.011432 0.000000 0.000000 0.000000
# 4 0.000000 0.000000 0.000000 0.048893 0.000000 0.000000
# 5 0.000000 0.000000 0.000000 0.000000 0.033796 0.000000
# 6 0.000000 0.000000 0.000000 0.000000 0.000000 0.044620
#
#
# Mechanical properties :
#
#
# Convention : Reuss Voigt Hill
#
# Bulk Modulus (GPa) = 51.27536 57.16955 54.22245
# Shear Modulus (GPa) = 24.07067 25.59652 24.83360
#
# Velocity S-wave (km/s) = 3.45089 3.55859 3.50515
# Velocity P-wave (km/s) = 6.42230 6.72076 6.57322
#
# Compressibility (1/GPa) = 0.01950255
#
# Stress axis : x y z
#
# Youngs Moduli (GPa) = 43.80061 80.35888 87.47045
#
# Poissons Ratio (x) = 0.44800 0.43414
# Poissons Ratio (y) = 0.24419 0.26803
# Poissons Ratio (z) = 0.21739 0.24623
#
# Static dielectric constant tensor:
#      x y z
#    x 3.695820 0.000000 0.000000 
#    y 0.000000 3.912880 0.000000 
#    z 0.000000 0.000000 4.157800 
# 
# 
# High freq. dielectric constant tensor:
#      x y z
#    x 1.766660 0.000000 0.000000 
#    y 0.000000 1.794560 0.000000 
#    z 0.000000 0.000000 1.796610 
# 
# From -- ./inp_files/11046.got.cif
#   From: 2010.06.25/outbox.cif.g09.slc.cpg/sg71_6_cif.got.tgz:11046.got - 2010.06.28 04:59:45.
