data_PCOD8290792
_publ_section_title
;
Structure prediction by ZEFSAII (Michael W. Deem and Ramdas Pophale) SiO2 
 PCOD8290792
Probable space group: I M M M
;
_chemical_formula_sum "Si O2"
_cell_formula_units_Z 88
_cell_length_a 19.050089
_cell_length_b 18.872661
_cell_length_c 12.711603
_cell_angle_alpha 90.000000
_cell_angle_beta 90.000000
_cell_angle_gamma 90.000000
_cell_volume 4570.150149
_symmetry_space_group_name_H-M "I M M M"
_symmetry_group_IT_number 71
_symmetry_cell_setting 'orthorhombic'
loop_
_space_group_symop_operation_xyz
x,y,z
-x,-y,z
x,-y,-z
-x,y,-z
-x,-y,-z
x,y,-z
-x,y,z
x,-y,z
1/2+x,1/2+y,1/2+z
1/2-x,1/2-y,1/2+z
1/2+x,1/2-y,1/2-z
1/2-x,1/2+y,1/2-z
1/2-x,1/2-y,1/2-z
1/2+x,1/2+y,1/2-z
1/2-x,1/2+y,1/2+z
1/2+x,1/2-y,1/2+z
loop_
_atom_site_type_symbol
_atom_site_label
_atom_site_fract_x
_atom_site_fract_y
_atom_site_fract_z
Si Si1 0.919132 0.831957 0.310589
Si Si2 0.843842 0.583771 0.791056
Si Si3 0.417120 0.578588 0.384880
Si Si4 0.419174 0.826160 0.877862
Si Si5 0.299266 0.578827 0.884048
Si Si6 0.579523 0.915806 0.500000
O O1 0.894265 0.860383 0.196207
O O2 0.908224 0.748562 0.319845
O O3 0.866884 0.870594 0.390330
O O4 0.000000 0.852421 0.336257
O O5 0.854454 0.500000 0.781886
O O6 0.871782 0.617476 0.683177
O O7 0.761499 0.603488 0.803301
O O8 0.884941 0.613757 0.893248
O O9 0.386076 0.597799 0.500000
O O10 0.500000 0.576318 0.391653
O O11 0.389983 0.500000 0.350442
O O12 0.500000 0.849969 0.870499
O O13 0.395782 0.821569 0.000000
O O14 0.325108 0.500000 0.854225
O O15 0.264513 0.578516 0.000000
O O16 0.500000 0.888097 0.500000
O O17 0.584076 0.000000 0.500000
#
# Coordination Sequence:
#
# PCOD8290792 Si02
#       6
#    16  16  16  16  16   8
#     4  10  20  35  54  79 113 155 198 234 274 331
#     4  10  20  37  58  82 111 144 184 234 293 353
#     4   8  14  27  48  73 103 139 181 233 284 323
#     4  10  22  39  57  81 115 152 189 237 289 336
#     4  10  20  35  56  82 113 147 184 234 289 335
#     4   9  16  30  56  84 105 129 168 224 285 340
#
# _framework density 19.255386000000001
#
# number of rings (size 3 to 8) (size 9 to 14) (size 15 to 20)
#    0.000    2.455    0.909    2.182    0.000    4.364 
#    1.636    2.727    0.000    1.091    0.000    0.000 
#    0.000    0.000    0.000    0.000    0.000    0.000 
#
# Total GULP energy -545339.276492 kJ/mol
# GULP energy per Si atom -12394.074466 kJ/mol
# Density = 1.921156 g / cm^3
# Si number density = 19.255386 Si / 1000 Ang^3
#
#
#
# Elastic Constant Matrix: (Units=GPa)
#
#
# Indices 1 2 3 4 5 6 
#
# 1 89.9196 45.7576 34.8894 0.0000 0.0000 0.0000
# 2 45.7576 70.3878 49.0828 0.0000 0.0000 0.0000
# 3 34.8894 49.0828 127.6641 0.0000 0.0000 0.0000
# 4 0.0000 0.0000 0.0000 24.6452 0.0000 0.0000
# 5 0.0000 0.0000 0.0000 0.0000 29.1016 0.0000
# 6 0.0000 0.0000 0.0000 0.0000 0.0000 26.0901
#
#
#
# Elastic Compliance Matrix: (Units=1/GPa)
#
#
# Indices 1 2 3 4 5 6 
#
# 1 0.016645 -0.010450 -0.000531 0.000000 0.000000 0.000000
# 2 -0.010450 0.025972 -0.007129 0.000000 0.000000 0.000000
# 3 -0.000531 -0.007129 0.010719 0.000000 0.000000 0.000000
# 4 0.000000 0.000000 0.000000 0.040576 0.000000 0.000000
# 5 0.000000 0.000000 0.000000 0.000000 0.034362 0.000000
# 6 0.000000 0.000000 0.000000 0.000000 0.000000 0.038329
#
#
# Mechanical properties :
#
#
# Convention : Reuss Voigt Hill
#
# Bulk Modulus (GPa) = 58.42955 60.82569 59.62762
# Shear Modulus (GPa) = 23.97743 26.51683 25.24713
#
# Velocity S-wave (km/s) = 3.53261 3.71497 3.62494
# Velocity P-wave (km/s) = 6.85927 7.07523 6.96808
#
# Compressibility (1/GPa) = 0.01711463
#
# Stress axis : x y z
#
# Youngs Moduli (GPa) = 60.07840 38.50312 93.28994
#
# Poissons Ratio (x) = 0.40236 0.04955
# Poissons Ratio (y) = 0.62783 0.66511
# Poissons Ratio (z) = 0.03191 0.27451
#
# Static dielectric constant tensor:
#      x y z
#    x 3.336490 0.000000 0.000000 
#    y 0.000000 3.238090 0.000000 
#    z 0.000000 0.000000 3.714170 
# 
# 
# High freq. dielectric constant tensor:
#      x y z
#    x 1.735300 0.000000 0.000000 
#    y 0.000000 1.724310 0.000000 
#    z 0.000000 0.000000 1.754400 
# 
# From -- ./inp_files/25651.got.cif
#   From: 2010.06.25/outbox.cif.g09.slc.cpg/sg71_13_cif.got.tgz:25651.got - 2010.06.28 04:59:45.
