data_PCOD8290543
_publ_section_title
;
Structure prediction by ZEFSAII (Michael W. Deem and Ramdas Pophale) SiO2 
 PCOD8290543
Probable space group: I M M M
;
_chemical_formula_sum "Si O2"
_cell_formula_units_Z 64
_cell_length_a 8.733976
_cell_length_b 14.185854
_cell_length_c 28.398398
_cell_angle_alpha 90.000000
_cell_angle_beta 90.000000
_cell_angle_gamma 90.000000
_cell_volume 3518.530512
_symmetry_space_group_name_H-M "I M M M"
_symmetry_group_IT_number 71
_symmetry_cell_setting 'orthorhombic'
loop_
_space_group_symop_operation_xyz
x,y,z
-x,-y,z
x,-y,-z
-x,y,-z
-x,-y,-z
x,y,-z
-x,y,z
x,-y,z
1/2+x,1/2+y,1/2+z
1/2-x,1/2-y,1/2+z
1/2+x,1/2-y,1/2-z
1/2-x,1/2+y,1/2-z
1/2-x,1/2-y,1/2-z
1/2+x,1/2+y,1/2-z
1/2-x,1/2+y,1/2+z
1/2+x,1/2-y,1/2+z
loop_
_atom_site_type_symbol
_atom_site_label
_atom_site_fract_x
_atom_site_fract_y
_atom_site_fract_z
Si Si1 0.180662 0.240707 0.677859
Si Si2 0.181060 0.605672 0.751501
Si Si3 0.680958 0.890931 0.500000
Si Si4 0.819150 0.108955 0.000000
Si Si5 0.181995 0.250193 0.570686
O O1 0.237231 0.332011 0.707165
O O2 0.252844 0.146726 0.699943
O O3 0.237466 0.251411 0.624524
O O4 0.000000 0.230367 0.680209
O O5 0.243868 0.500000 0.744318
O O6 0.000000 0.606365 0.755277
O O7 0.500000 0.875525 0.500000
O O8 0.751647 0.843442 0.546440
O O9 0.726769 0.000000 0.500000
O O10 0.748457 0.156312 0.953562
O O11 0.000000 0.124413 0.000000
O O12 0.773018 0.000000 0.000000
O O13 0.000000 0.250360 0.565854
#
# Coordination Sequence:
#
# PCOD8290543 Si02
#       5
#    16  16   8   8  16
#     4   9  19  34  51  74 102 130 163 205 249 291
#     4   9  18  33  52  73  99 132 167 202 242 291
#     4  10  21  36  53  73 100 134 169 207 252 301
#     4  10  21  36  53  75 104 134 165 205 250 297
#     4  10  20  34  54  77 101 132 168 208 252 296
#
# _framework density 18.189412000000001
#
# number of rings (size 3 to 8) (size 9 to 14) (size 15 to 20)
#    0.000    2.500    0.000    3.000    0.000    6.500 
#    0.000    7.500    0.000    0.000    0.000    0.000 
#    0.000    0.000    0.000    0.000    0.000    0.000 
#
# Total GULP energy -396842.192870 kJ/mol
# GULP energy per Si atom -12401.318527 kJ/mol
# Density = 1.814801 g / cm^3
# Si number density = 18.189412 Si / 1000 Ang^3
#
#
#
# Elastic Constant Matrix: (Units=GPa)
#
#
# Indices 1 2 3 4 5 6 
#
# 1 53.6215 41.5760 41.3634 0.0000 0.0000 0.0000
# 2 41.5760 168.4906 82.3423 0.0000 0.0000 0.0000
# 3 41.3634 82.3423 175.6255 0.0000 0.0000 0.0000
# 4 0.0000 0.0000 0.0000 14.4566 0.0000 0.0000
# 5 0.0000 0.0000 0.0000 0.0000 23.8499 0.0000
# 6 0.0000 0.0000 0.0000 0.0000 0.0000 26.7502
#
#
#
# Elastic Compliance Matrix: (Units=1/GPa)
#
#
# Indices 1 2 3 4 5 6 
#
# 1 0.024943 -0.004260 -0.003877 0.000000 0.000000 0.000000
# 2 -0.004260 0.008427 -0.002948 0.000000 0.000000 0.000000
# 3 -0.003877 -0.002948 0.007989 0.000000 0.000000 0.000000
# 4 0.000000 0.000000 0.000000 0.069172 0.000000 0.000000
# 5 0.000000 0.000000 0.000000 0.000000 0.041929 0.000000
# 6 0.000000 0.000000 0.000000 0.000000 0.000000 0.037383
#
#
# Mechanical properties :
#
#
# Convention : Reuss Voigt Hill
#
# Bulk Modulus (GPa) = 52.11249 80.92233 66.51741
# Shear Modulus (GPa) = 22.89278 28.50842 25.70060
#
# Velocity S-wave (km/s) = 3.55149 3.96322 3.76299
# Velocity P-wave (km/s) = 6.74756 8.09494 7.45177
#
# Compressibility (1/GPa) = 0.01918926
#
# Stress axis : x y z
#
# Youngs Moduli (GPa) = 40.09099 118.67019 125.17068
#
# Poissons Ratio (x) = 0.50554 0.48533
# Poissons Ratio (y) = 0.17079 0.36895
# Poissons Ratio (z) = 0.15545 0.34979
#
# Static dielectric constant tensor:
#      x y z
#    x 3.308130 0.000000 0.000000 
#    y 0.000000 3.531810 0.000000 
#    z 0.000000 0.000000 3.498750 
# 
# 
# High freq. dielectric constant tensor:
#      x y z
#    x 1.706560 0.000000 0.000000 
#    y 0.000000 1.708340 0.000000 
#    z 0.000000 0.000000 1.707470 
# 
# From -- ./inp_files/31359.got.cif
#   From: 2010.06.25/outbox.cif.g09.slc.cpg/sg71_16_cif.got.tgz:31359.got - 2010.06.28 04:59:45.
