data_PCOD8290695
_publ_section_title
;
Structure prediction by ZEFSAII (Michael W. Deem and Ramdas Pophale) SiO2 
 PCOD8290695
Probable space group: I M M M
;
_chemical_formula_sum "Si O2"
_cell_formula_units_Z 96
_cell_length_a 26.990464
_cell_length_b 18.814645
_cell_length_c 10.793219
_cell_angle_alpha 90.000000
_cell_angle_beta 90.000000
_cell_angle_gamma 90.000000
_cell_volume 5480.969284
_symmetry_space_group_name_H-M "I M M M"
_symmetry_group_IT_number 71
_symmetry_cell_setting 'orthorhombic'
loop_
_space_group_symop_operation_xyz
x,y,z
-x,-y,z
x,-y,-z
-x,y,-z
-x,-y,-z
x,y,-z
-x,y,z
x,-y,z
1/2+x,1/2+y,1/2+z
1/2-x,1/2-y,1/2+z
1/2+x,1/2-y,1/2-z
1/2-x,1/2+y,1/2-z
1/2-x,1/2-y,1/2-z
1/2+x,1/2+y,1/2-z
1/2-x,1/2+y,1/2+z
1/2+x,1/2-y,1/2+z
loop_
_atom_site_type_symbol
_atom_site_label
_atom_site_fract_x
_atom_site_fract_y
_atom_site_fract_z
Si Si1 0.406820 0.855236 0.255818
Si Si2 0.944396 0.077950 0.647193
Si Si3 0.442760 0.080082 0.500000
Si Si4 0.813220 0.580636 0.141005
Si Si5 0.880179 0.792809 0.357274
Si Si6 0.765516 0.198988 0.360350
Si Si7 0.500000 0.923387 0.859361
O O1 0.430311 0.868258 0.388130
O O2 0.354535 0.897881 0.256610
O O3 0.394058 0.773745 0.228295
O O4 0.448718 0.881619 0.161417
O O5 0.942560 0.078657 0.500000
O O6 0.909746 0.140258 0.698868
O O7 0.000000 0.092704 0.694005
O O8 0.926684 0.000000 0.694754
O O9 0.500000 0.064095 0.500000
O O10 0.416803 0.000000 0.500000
O O11 0.797449 0.500000 0.164610
O O12 0.763431 0.625556 0.158997
O O13 0.834492 0.591454 0.000000
O O14 0.894373 0.775469 0.500000
O O15 0.823385 0.815176 0.346475
O O16 0.754327 0.229610 0.500000
O O17 0.750000 0.250000 0.250000
O O18 0.500000 0.000000 0.785465
O O19 0.500000 0.942947 0.000000
#
# Coordination Sequence:
#
# PCOD8290695 Si02
#       7
#    16  16   8  16  16  16   8
#     4  12  21  34  54  76 109 140 180 221 272 316
#     4   8  15  29  50  77 108 139 171 211 263 320
#     4  11  22  36  54  76 105 143 185 233 273 307
#     4  10  20  34  56  82 105 136 182 229 273 318
#     4  10  21  34  53  80 112 144 175 217 273 327
#     4  10  20  37  55  77 108 142 177 221 273 321
#     4  11  24  37  49  71 106 149 185 216 265 328
#
# _framework density 17.515150999999999
#
# number of rings (size 3 to 8) (size 9 to 14) (size 15 to 20)
#    0.000    1.833    3.333    2.500    1.167    0.667 
#    0.000    3.333    0.000    1.500    0.000    0.583 
#    0.000    2.000    0.000    0.000    0.000    0.000 
#
# Total GULP energy -594735.717020 kJ/mol
# GULP energy per Si atom -12390.327438 kJ/mol
# Density = 1.747529 g / cm^3
# Si number density = 17.515151 Si / 1000 Ang^3
#
#
#
# Elastic Constant Matrix: (Units=GPa)
#
#
# Indices 1 2 3 4 5 6 
#
# 1 115.6601 80.1635 35.5145 0.0000 0.0000 0.0000
# 2 80.1635 158.0810 50.4860 0.0000 0.0000 0.0000
# 3 35.5145 50.4860 65.2233 0.0000 0.0000 0.0000
# 4 0.0000 0.0000 0.0000 25.9174 0.0000 0.0000
# 5 0.0000 0.0000 0.0000 0.0000 19.5206 0.0000
# 6 0.0000 0.0000 0.0000 0.0000 0.0000 35.4153
#
#
#
# Elastic Compliance Matrix: (Units=1/GPa)
#
#
# Indices 1 2 3 4 5 6 
#
# 1 0.013697 -0.006063 -0.002765 0.000000 0.000000 0.000000
# 2 -0.006063 0.011087 -0.005280 0.000000 0.000000 0.000000
# 3 -0.002765 -0.005280 0.020925 0.000000 0.000000 0.000000
# 4 0.000000 0.000000 0.000000 0.038584 0.000000 0.000000
# 5 0.000000 0.000000 0.000000 0.000000 0.051228 0.000000
# 6 0.000000 0.000000 0.000000 0.000000 0.000000 0.028236
#
#
# Mechanical properties :
#
#
# Convention : Reuss Voigt Hill
#
# Bulk Modulus (GPa) = 57.16949 74.58805 65.87877
# Shear Modulus (GPa) = 25.27741 27.69070 26.48405
#
# Velocity S-wave (km/s) = 3.80303 3.98044 3.89275
# Velocity P-wave (km/s) = 7.21075 7.98765 7.60912
#
# Compressibility (1/GPa) = 0.01749185
#
# Stress axis : x y z
#
# Youngs Moduli (GPa) = 73.00755 90.19795 47.78961
#
# Poissons Ratio (x) = 0.54685 0.13216
# Poissons Ratio (y) = 0.44263 0.25235
# Poissons Ratio (z) = 0.20189 0.47629
#
# Static dielectric constant tensor:
#      x y z
#    x 3.548850 0.000000 0.000000 
#    y 0.000000 3.385140 0.000000 
#    z 0.000000 0.000000 3.102470 
# 
# 
# High freq. dielectric constant tensor:
#      x y z
#    x 1.692140 0.000000 0.000000 
#    y 0.000000 1.677730 0.000000 
#    z 0.000000 0.000000 1.645370 
# 
# From -- ./inp_files/29953.got.cif
#   From: 2010.06.25/outbox.cif.g09.slc.cpg/sg71_15_cif.got.tgz:29953.got - 2010.06.28 04:59:45.
