data_PCOD8290843
_publ_section_title
;
Structure prediction by ZEFSAII (Michael W. Deem and Ramdas Pophale) SiO2 
 PCOD8290843
Probable space group: I M M M
;
_chemical_formula_sum "Si O2"
_cell_formula_units_Z 88
_cell_length_a 7.791568
_cell_length_b 19.108903
_cell_length_c 28.952130
_cell_angle_alpha 90.000000
_cell_angle_beta 90.000000
_cell_angle_gamma 90.000000
_cell_volume 4310.633913
_symmetry_space_group_name_H-M "I M M M"
_symmetry_group_IT_number 71
_symmetry_cell_setting 'orthorhombic'
loop_
_space_group_symop_operation_xyz
x,y,z
-x,-y,z
x,-y,-z
-x,y,-z
-x,-y,-z
x,y,-z
-x,y,z
x,-y,z
1/2+x,1/2+y,1/2+z
1/2-x,1/2-y,1/2+z
1/2+x,1/2-y,1/2-z
1/2-x,1/2+y,1/2-z
1/2-x,1/2-y,1/2-z
1/2+x,1/2+y,1/2-z
1/2-x,1/2+y,1/2+z
1/2+x,1/2-y,1/2+z
loop_
_atom_site_type_symbol
_atom_site_label
_atom_site_fract_x
_atom_site_fract_y
_atom_site_fract_z
Si Si1 0.201407 0.178078 0.773899
Si Si2 0.696655 0.845004 0.603486
Si Si3 0.500000 0.578383 0.945673
Si Si4 0.203216 0.919672 0.694117
Si Si5 0.797652 0.420823 0.551991
Si Si6 0.196964 0.807399 0.874876
O O1 0.250000 0.250000 0.750000
O O2 0.266528 0.113748 0.742496
O O3 0.284395 0.173002 0.825470
O O4 0.000000 0.171659 0.778109
O O5 0.500000 0.848320 0.584594
O O6 0.698487 0.879245 0.653890
O O7 0.770729 0.765594 0.605702
O O8 0.824534 0.884978 0.569615
O O9 0.500000 0.500000 0.924669
O O10 0.500000 0.576676 0.000000
O O11 0.000000 0.910910 0.686194
O O12 0.259757 0.000000 0.694350
O O13 0.737662 0.401234 0.500000
O O14 0.739394 0.500000 0.563532
O O15 0.713261 0.369194 0.588397
O O16 0.000000 0.413947 0.555726
O O17 0.000000 0.792248 0.864704
#
# Coordination Sequence:
#
# PCOD8290843 Si02
#       6
#    16  16   8  16  16  16
#     4  10  20  35  55  81 117 156 194 242 297 356
#     4  11  23  40  63  93 125 159 205 259 309 367
#     4  11  26  46  66  90 121 161 209 257 317 383
#     4  10  20  35  58  86 116 158 208 249 297 365
#     4   9  20  39  61  86 117 156 202 248 298 360
#     4  10  22  37  58  90 123 157 200 249 307 367
#
# _framework density 20.414629999999999
#
# number of rings (size 3 to 8) (size 9 to 14) (size 15 to 20)
#    0.000    1.909    2.727    1.091    1.273    4.727 
#    0.000    5.455    0.000    0.000    0.000    0.000 
#    0.000    0.000    0.000    0.000    0.000    0.000 
#
# Total GULP energy -545499.153765 kJ/mol
# GULP energy per Si atom -12397.708040 kJ/mol
# Density = 2.036816 g / cm^3
# Si number density = 20.414630 Si / 1000 Ang^3
#
#
#
# Elastic Constant Matrix: (Units=GPa)
#
#
# Indices 1 2 3 4 5 6 
#
# 1 53.7629 18.1382 17.0071 0.0000 0.0000 0.0000
# 2 18.1382 149.6924 66.1132 0.0000 0.0000 0.0000
# 3 17.0071 66.1132 117.8863 0.0000 0.0000 0.0000
# 4 0.0000 0.0000 0.0000 41.9018 0.0000 0.0000
# 5 0.0000 0.0000 0.0000 0.0000 20.9530 0.0000
# 6 0.0000 0.0000 0.0000 0.0000 0.0000 24.8314
#
#
#
# Elastic Compliance Matrix: (Units=1/GPa)
#
#
# Indices 1 2 3 4 5 6 
#
# 1 0.019742 -0.001508 -0.002003 0.000000 0.000000 0.000000
# 2 -0.001508 0.008995 -0.004827 0.000000 0.000000 0.000000
# 3 -0.002003 -0.004827 0.011479 0.000000 0.000000 0.000000
# 4 0.000000 0.000000 0.000000 0.023865 0.000000 0.000000
# 5 0.000000 0.000000 0.000000 0.000000 0.047726 0.000000
# 6 0.000000 0.000000 0.000000 0.000000 0.000000 0.040272
#
#
# Mechanical properties :
#
#
# Convention : Reuss Voigt Hill
#
# Bulk Modulus (GPa) = 42.47849 58.20652 50.34250
# Shear Modulus (GPa) = 28.31245 32.20945 30.26095
#
# Velocity S-wave (km/s) = 3.72811 3.97642 3.85426
# Velocity P-wave (km/s) = 6.27573 7.04674 6.67238
#
# Compressibility (1/GPa) = 0.02354133
#
# Stress axis : x y z
#
# Youngs Moduli (GPa) = 50.65258 111.17312 87.11722
#
# Poissons Ratio (x) = 0.16762 0.17446
# Poissons Ratio (y) = 0.07637 0.42052
# Poissons Ratio (z) = 0.10144 0.53664
#
# Static dielectric constant tensor:
#      x y z
#    x 3.518270 0.000000 0.000000 
#    y 0.000000 3.960630 0.000000 
#    z 0.000000 0.000000 3.949830 
# 
# 
# High freq. dielectric constant tensor:
#      x y z
#    x 1.786430 0.000000 0.000000 
#    y 0.000000 1.805520 0.000000 
#    z 0.000000 0.000000 1.799900 
# 
# From -- ./inp_files/8741.got.cif
#   From: 2010.06.25/outbox.cif.g09.slc.cpg/sg71_5_cif.got.tgz:8741.got - 2010.06.28 04:59:45.
