data_PCOD8290517
_publ_section_title
;
Structure prediction by ZEFSAII (Michael W. Deem and Ramdas Pophale) SiO2 
 PCOD8290517
Probable space group: I M M M
;
_chemical_formula_sum "Si O2"
_cell_formula_units_Z 60
_cell_length_a 13.122268
_cell_length_b 19.181663
_cell_length_c 10.814136
_cell_angle_alpha 90.000000
_cell_angle_beta 90.000000
_cell_angle_gamma 90.000000
_cell_volume 2721.992893
_symmetry_space_group_name_H-M "I M M M"
_symmetry_group_IT_number 71
_symmetry_cell_setting 'orthorhombic'
loop_
_space_group_symop_operation_xyz
x,y,z
-x,-y,z
x,-y,-z
-x,y,-z
-x,-y,-z
x,y,-z
-x,y,z
x,-y,z
1/2+x,1/2+y,1/2+z
1/2-x,1/2-y,1/2+z
1/2+x,1/2-y,1/2-z
1/2-x,1/2+y,1/2-z
1/2-x,1/2-y,1/2-z
1/2+x,1/2+y,1/2-z
1/2-x,1/2+y,1/2+z
1/2+x,1/2-y,1/2+z
loop_
_atom_site_type_symbol
_atom_site_label
_atom_site_fract_x
_atom_site_fract_y
_atom_site_fract_z
Si Si1 0.121179 0.356247 0.360331
Si Si2 0.613833 0.000000 0.234693
Si Si3 0.818903 0.500000 0.000000
Si Si4 0.379889 0.289408 0.231802
Si Si5 0.119229 0.769004 0.000000
Si Si6 0.226018 0.148074 0.500000
O O1 0.155949 0.341764 0.500000
O O2 0.169673 0.429401 0.313069
O O3 0.163170 0.290495 0.281789
O O4 0.000000 0.360656 0.347778
O O5 0.500000 0.000000 0.179819
O O6 0.608289 0.000000 0.381897
O O7 0.747045 0.566726 0.000000
O O8 0.500000 0.288395 0.210598
O O9 0.352760 0.312377 0.374037
O O10 0.336526 0.338733 0.125933
O O11 0.171800 0.693566 0.000000
O O12 0.000000 0.751053 0.000000
#
# Coordination Sequence:
#
# PCOD8290517 Si02
#       6
#    16   8   4  16   8   8
#     4   9  16  29  53  85 116 148 187 228 280 354
#     4  10  20  34  53  78 117 158 187 228 288 355
#     4  12  27  38  51  76 116 150 206 242 294 352
#     4  10  20  38  63  90 119 154 200 249 296 348
#     4  10  22  37  60  95 126 153 189 236 298 364
#     4  12  23  40  61  84 121 160 198 251 296 345
#
# _framework density 22.042674000000002
#
# number of rings (size 3 to 8) (size 9 to 14) (size 15 to 20)
#    0.000    1.867    1.333    3.400    0.000    4.800 
#    0.000    1.333    2.933    0.000    0.000    2.800 
#    0.000    0.000    0.000    0.000    0.000    0.000 
#
# Total GULP energy -371888.241345 kJ/mol
# GULP energy per Si atom -12396.274711 kJ/mol
# Density = 2.199250 g / cm^3
# Si number density = 22.042674 Si / 1000 Ang^3
#
#
#
# Elastic Constant Matrix: (Units=GPa)
#
#
# Indices 1 2 3 4 5 6 
#
# 1 24.7749 1.2551 30.6370 0.0000 0.0000 0.0000
# 2 1.2551 99.7411 42.4734 0.0000 0.0000 0.0000
# 3 30.6370 42.4734 181.5936 -0.0002 -0.0001 0.0000
# 4 0.0000 0.0000 -0.0002 28.3081 0.0000 0.0000
# 5 0.0000 0.0000 -0.0001 0.0000 32.8387 0.0000
# 6 0.0000 0.0000 0.0000 0.0000 0.0000 18.1821
#
#
#
# Elastic Compliance Matrix: (Units=1/GPa)
#
#
# Indices 1 2 3 4 5 6 
#
# 1 0.052037 0.003425 -0.009580 0.000000 0.000000 0.000000
# 2 0.003425 0.011360 -0.003235 0.000000 0.000000 0.000000
# 3 -0.009580 -0.003235 0.007880 0.000000 0.000000 0.000000
# 4 0.000000 0.000000 0.000000 0.035326 0.000000 0.000000
# 5 0.000000 0.000000 0.000000 0.000000 0.030452 0.000000
# 6 0.000000 0.000000 0.000000 0.000000 0.000000 0.054999
#
#
# Mechanical properties :
#
#
# Convention : Reuss Voigt Hill
#
# Bulk Modulus (GPa) = 19.04892 50.53784 34.79338
# Shear Modulus (GPa) = 21.89780 31.31539 26.60659
#
# Velocity S-wave (km/s) = 3.15529 3.77327 3.47803
# Velocity P-wave (km/s) = 4.68349 6.47769 5.65223
#
# Compressibility (1/GPa) = 0.05249642
#
# Stress axis : x y z
#
# Youngs Moduli (GPa) = 19.21707 88.02499 126.90778
#
# Poissons Ratio (x) = -0.30147 1.21582
# Poissons Ratio (y) = -0.06582 0.41054
# Poissons Ratio (z) = 0.18411 0.28475
#
# Static dielectric constant tensor:
#      x y z
#    x 3.851350 0.000000 0.000000 
#    y 0.000000 3.915320 0.000000 
#    z 0.000000 0.000000 4.384170 
# 
# 
# High freq. dielectric constant tensor:
#      x y z
#    x 1.856660 0.000000 0.000000 
#    y 0.000000 1.834930 0.000000 
#    z 0.000000 0.000000 1.896250 
# 
# From -- ./inp_files/21187.got.cif
#   From: 2010.06.25/outbox.cif.g09.slc.cpg/sg71_11_cif.got.tgz:21187.got - 2010.06.28 04:59:45.
