data_PCOD8290813
_publ_section_title
;
Structure prediction by ZEFSAII (Michael W. Deem and Ramdas Pophale) SiO2 
 PCOD8290813
Probable space group: I M M M
;
_chemical_formula_sum "Si O2"
_cell_formula_units_Z 80
_cell_length_a 9.066506
_cell_length_b 22.191096
_cell_length_c 21.773340
_cell_angle_alpha 90.000000
_cell_angle_beta 90.000000
_cell_angle_gamma 90.000000
_cell_volume 4380.702492
_symmetry_space_group_name_H-M "I M M M"
_symmetry_group_IT_number 71
_symmetry_cell_setting 'orthorhombic'
loop_
_space_group_symop_operation_xyz
x,y,z
-x,-y,z
x,-y,-z
-x,y,-z
-x,-y,-z
x,y,-z
-x,y,z
x,-y,z
1/2+x,1/2+y,1/2+z
1/2-x,1/2-y,1/2+z
1/2+x,1/2-y,1/2-z
1/2-x,1/2+y,1/2-z
1/2-x,1/2-y,1/2-z
1/2+x,1/2+y,1/2-z
1/2-x,1/2+y,1/2+z
1/2+x,1/2-y,1/2+z
loop_
_atom_site_type_symbol
_atom_site_label
_atom_site_fract_x
_atom_site_fract_y
_atom_site_fract_z
Si Si1 0.670827 0.067724 0.880459
Si Si2 0.334540 0.428315 0.500000
Si Si3 0.830234 0.675964 0.703098
Si Si4 0.672195 0.209128 0.660964
Si Si5 0.833493 0.500000 0.072929
Si Si6 0.827924 0.120098 0.572003
O O1 0.500000 0.067569 0.897946
O O2 0.703744 0.109154 0.821656
O O3 0.725137 0.000000 0.864547
O O4 0.754793 0.095669 0.938972
O O5 0.327591 0.500000 0.500000
O O6 0.500000 0.403344 0.500000
O O7 0.727808 0.722456 0.666400
O O8 0.793444 0.674931 0.775234
O O9 0.000000 0.694765 0.692155
O O10 0.500000 0.208992 0.644861
O O11 0.759775 0.177040 0.606533
O O12 0.749836 0.440624 0.096736
O O13 0.000000 0.500000 0.099171
O O14 0.833899 0.500000 0.000000
O O15 0.798778 0.129525 0.500000
O O16 0.000000 0.114834 0.586720
#
# Coordination Sequence:
#
# PCOD8290813 Si02
#       6
#    16   8  16  16   8  16
#     4   9  17  32  54  77 102 134 173 212 254 312
#     4   9  17  29  47  73 105 135 163 202 255 304
#     4   9  19  36  55  76 103 139 178 215 263 319
#     4  10  20  35  55  78 104 139 179 220 265 312
#     4   9  17  31  53  79 107 139 173 214 263 312
#     4  10  20  35  55  79 109 143 178 218 264 317
#
# _framework density 18.261911999999999
#
# number of rings (size 3 to 8) (size 9 to 14) (size 15 to 20)
#    0.000    2.600    0.000    1.800    0.000    5.200 
#    3.600    0.000    0.000    0.000    0.000    0.000 
#    0.000    0.000    0.000    0.000    0.000    0.000 
#
# Total GULP energy -496056.004994 kJ/mol
# GULP energy per Si atom -12401.400125 kJ/mol
# Density = 1.822035 g / cm^3
# Si number density = 18.261912 Si / 1000 Ang^3
#
#
#
# Elastic Constant Matrix: (Units=GPa)
#
#
# Indices 1 2 3 4 5 6 
#
# 1 106.3745 50.8749 46.2027 0.0000 0.0000 0.0000
# 2 50.8749 92.0681 50.8272 0.0000 0.0000 0.0000
# 3 46.2027 50.8272 68.9088 0.0000 0.0000 0.0000
# 4 0.0000 0.0000 0.0000 29.0010 0.0000 0.0000
# 5 0.0000 0.0000 0.0000 0.0000 26.0204 0.0000
# 6 0.0000 0.0000 0.0000 0.0000 0.0000 30.7482
#
#
#
# Elastic Compliance Matrix: (Units=1/GPa)
#
#
# Indices 1 2 3 4 5 6 
#
# 1 0.014239 -0.004382 -0.006315 0.000000 0.000000 0.000000
# 2 -0.004382 0.019671 -0.011571 0.000000 0.000000 0.000000
# 3 -0.006315 -0.011571 0.027281 0.000000 0.000000 0.000000
# 4 0.000000 0.000000 0.000000 0.034482 0.000000 0.000000
# 5 0.000000 0.000000 0.000000 0.000000 0.038431 0.000000
# 6 0.000000 0.000000 0.000000 0.000000 0.000000 0.032522
#
#
# Mechanical properties :
#
#
# Convention : Reuss Voigt Hill
#
# Bulk Modulus (GPa) = 60.04332 62.57346 61.30839
# Shear Modulus (GPa) = 23.07176 25.11704 24.09440
#
# Velocity S-wave (km/s) = 3.55826 3.71263 3.63627
# Velocity P-wave (km/s) = 7.05918 7.26065 7.16062
#
# Compressibility (1/GPa) = 0.01665464
#
# Stress axis : x y z
#
# Youngs Moduli (GPa) = 70.22735 50.83640 36.65536
#
# Poissons Ratio (x) = 0.22277 0.23149
# Poissons Ratio (y) = 0.30774 0.42415
# Poissons Ratio (z) = 0.44350 0.58824
#
# Static dielectric constant tensor:
#      x y z
#    x 3.481380 0.000000 0.000000 
#    y 0.000000 3.301950 0.000000 
#    z 0.000000 0.000000 3.245380 
# 
# 
# High freq. dielectric constant tensor:
#      x y z
#    x 1.716360 0.000000 0.000000 
#    y 0.000000 1.698330 0.000000 
#    z 0.000000 0.000000 1.693260 
# 
# From -- ./inp_files/50384.got.cif
#   From: 2010.06.25/outbox.cif.g09.slc.cpg/sg71_26_cif.got.tgz:50384.got - 2010.06.28 04:59:45.
