data_PCOD8290088
_publ_section_title
;
Structure prediction by ZEFSAII (Michael W. Deem and Ramdas Pophale) SiO2 
 PCOD8290088
Probable space group: I M M M
;
_chemical_formula_sum "Si O2"
_cell_formula_units_Z 88
_cell_length_a 9.391425
_cell_length_b 23.106393
_cell_length_c 21.589471
_cell_angle_alpha 90.000000
_cell_angle_beta 90.000000
_cell_angle_gamma 90.000000
_cell_volume 4684.957455
_symmetry_space_group_name_H-M "I M M M"
_symmetry_group_IT_number 71
_symmetry_cell_setting 'orthorhombic'
loop_
_space_group_symop_operation_xyz
x,y,z
-x,-y,z
x,-y,-z
-x,y,-z
-x,-y,-z
x,y,-z
-x,y,z
x,-y,z
1/2+x,1/2+y,1/2+z
1/2-x,1/2-y,1/2+z
1/2+x,1/2-y,1/2-z
1/2-x,1/2+y,1/2-z
1/2-x,1/2-y,1/2-z
1/2+x,1/2+y,1/2-z
1/2-x,1/2+y,1/2+z
1/2+x,1/2-y,1/2+z
loop_
_atom_site_type_symbol
_atom_site_label
_atom_site_fract_x
_atom_site_fract_y
_atom_site_fract_z
Si Si1 0.339489 0.714188 0.671561
Si Si2 0.337896 0.168901 0.927566
Si Si3 0.838143 0.931537 0.500000
Si Si4 0.842494 0.936845 0.073373
Si Si5 0.339046 0.841064 0.273705
Si Si6 0.333378 0.932584 0.378135
O O1 0.500000 0.693161 0.661453
O O2 0.254639 0.717354 0.606757
O O3 0.333794 0.779294 0.693834
O O4 0.266017 0.665535 0.715451
O O5 0.500000 0.173363 0.906562
O O6 0.277627 0.107262 0.904101
O O7 0.318698 0.178576 0.000000
O O8 0.755243 0.911103 0.561862
O O9 0.000000 0.906496 0.500000
O O10 0.842269 0.000000 0.500000
O O11 0.000000 0.917164 0.095718
O O12 0.805596 0.000000 0.101086
O O13 0.841199 0.940183 0.000000
O O14 0.500000 0.854275 0.251032
O O15 0.287778 0.892280 0.319940
O O16 0.500000 0.923959 0.393248
O O17 0.300789 0.000000 0.362234
#
# Coordination Sequence:
#
# PCOD8290088 Si02
#       6
#    16  16   8  16  16  16
#     4  10  20  35  55  75  98 134 175 215 262 312
#     4  10  20  33  50  73 102 134 169 213 260 306
#     4   9  17  29  47  75 111 145 173 205 250 305
#     4   8  14  26  45  68  94 125 160 198 244 298
#     4   9  19  36  56  77 100 131 173 216 258 313
#     4   9  17  32  55  80 107 139 173 212 261 315
#
# _framework density 18.783521
#
# number of rings (size 3 to 8) (size 9 to 14) (size 15 to 20)
#    0.000    2.818    0.000    1.909    0.000    4.000 
#    1.636    2.727    0.000    3.273    0.000    0.000 
#    0.000    0.000    0.000    0.000    0.000    0.000 
#
# Total GULP energy -545277.366940 kJ/mol
# GULP energy per Si atom -12392.667430 kJ/mol
# Density = 1.874077 g / cm^3
# Si number density = 18.783521 Si / 1000 Ang^3
#
#
#
# Elastic Constant Matrix: (Units=GPa)
#
#
# Indices 1 2 3 4 5 6 
#
# 1 134.1773 27.7903 60.4953 0.0000 0.0000 0.0000
# 2 27.7903 41.4218 37.8771 0.0000 0.0000 0.0000
# 3 60.4953 37.8771 72.7963 0.0000 0.0000 0.0000
# 4 0.0000 0.0000 0.0000 21.3361 0.0000 0.0000
# 5 0.0000 0.0000 0.0000 0.0000 32.2305 0.0000
# 6 0.0000 0.0000 0.0000 0.0000 0.0000 23.1610
#
#
#
# Elastic Compliance Matrix: (Units=1/GPa)
#
#
# Indices 1 2 3 4 5 6 
#
# 1 0.012008 0.002039 -0.011040 0.000000 0.000000 0.000000
# 2 0.002039 0.046400 -0.025837 0.000000 0.000000 0.000000
# 3 -0.011040 -0.025837 0.036354 0.000000 0.000000 0.000000
# 4 0.000000 0.000000 0.000000 0.046869 0.000000 0.000000
# 5 0.000000 0.000000 0.000000 0.000000 0.031027 0.000000
# 6 0.000000 0.000000 0.000000 0.000000 0.000000 0.043176
#
#
# Mechanical properties :
#
#
# Convention : Reuss Voigt Hill
#
# Bulk Modulus (GPa) = 39.86166 55.63563 47.74864
# Shear Modulus (GPa) = 17.01425 23.49435 20.25430
#
# Velocity S-wave (km/s) = 3.01293 3.54050 3.28731
# Velocity P-wave (km/s) = 5.77679 6.81155 6.31540
#
# Compressibility (1/GPa) = 0.02508676
#
# Stress axis : x y z
#
# Youngs Moduli (GPa) = 83.27854 21.55177 27.50701
#
# Poissons Ratio (x) = -0.04394 0.30366
# Poissons Ratio (y) = -0.16977 0.71069
# Poissons Ratio (z) = 0.91936 0.55683
#
# Static dielectric constant tensor:
#      x y z
#    x 3.682140 0.000000 0.000000 
#    y 0.000000 3.482390 0.000000 
#    z 0.000000 0.000000 3.363230 
# 
# 
# High freq. dielectric constant tensor:
#      x y z
#    x 1.735310 0.000000 0.000000 
#    y 0.000000 1.715040 0.000000 
#    z 0.000000 0.000000 1.715200 
# 
# From -- ./inp_files/57527.got.cif
#   From: 2010.06.25/outbox.cif.g09.slc.cpg/sg71_29_cif.got.tgz:57527.got - 2010.06.28 04:59:45.
