data_PCOD8290618
_publ_section_title
;
Structure prediction by ZEFSAII (Michael W. Deem and Ramdas Pophale) SiO2 
 PCOD8290618
Probable space group: I M M M
;
_chemical_formula_sum "Si O2"
_cell_formula_units_Z 72
_cell_length_a 8.982241
_cell_length_b 27.501736
_cell_length_c 14.325138
_cell_angle_alpha 90.000000
_cell_angle_beta 90.000000
_cell_angle_gamma 90.000000
_cell_volume 3538.699026
_symmetry_space_group_name_H-M "I M M M"
_symmetry_group_IT_number 71
_symmetry_cell_setting 'orthorhombic'
loop_
_space_group_symop_operation_xyz
x,y,z
-x,-y,z
x,-y,-z
-x,y,-z
-x,-y,-z
x,y,-z
-x,y,z
x,-y,z
1/2+x,1/2+y,1/2+z
1/2-x,1/2-y,1/2+z
1/2+x,1/2-y,1/2-z
1/2-x,1/2+y,1/2-z
1/2-x,1/2-y,1/2-z
1/2+x,1/2+y,1/2-z
1/2-x,1/2+y,1/2+z
1/2+x,1/2-y,1/2+z
loop_
_atom_site_type_symbol
_atom_site_label
_atom_site_fract_x
_atom_site_fract_y
_atom_site_fract_z
Si Si1 0.327957 0.119936 0.603620
Si Si2 0.825166 0.500000 0.390389
Si Si3 0.177471 0.089147 0.786333
Si Si4 0.162842 0.782836 0.367837
Si Si5 0.162447 0.193939 0.844784
O O1 0.308578 0.096558 0.500000
O O2 0.500000 0.120133 0.634076
O O3 0.235637 0.088869 0.679398
O O4 0.272177 0.175254 0.597192
O O5 0.790714 0.500000 0.500000
O O6 0.751242 0.546775 0.344789
O O7 0.000000 0.500000 0.369529
O O8 0.225844 0.139066 0.838064
O O9 0.000000 0.083382 0.783188
O O10 0.143685 0.784400 0.257725
O O11 0.227722 0.730186 0.400140
O O12 0.000000 0.789235 0.414293
O O13 0.000000 0.193104 0.893698
#
# Coordination Sequence:
#
# PCOD8290618 Si02
#       5
#    16   8  16  16  16
#     4  10  20  34  54  82 119 161 198 233 278 336
#     4  11  25  45  68  91 114 141 177 228 290 351
#     4  10  21  38  62  88 114 148 190 239 291 341
#     4   9  16  26  45  74 108 149 193 233 272 319
#     4   8  15  28  47  74 107 144 185 228 277 328
#
# _framework density 20.34646
#
# number of rings (size 3 to 8) (size 9 to 14) (size 15 to 20)
#    0.000    2.556    0.000    3.667    0.000    8.889 
#    0.000    1.667    0.000    4.667    0.000    0.000 
#    0.000    0.000    0.000    0.000    0.000    0.000 
#
# Total GULP energy -446148.390870 kJ/mol
# GULP energy per Si atom -12393.010857 kJ/mol
# Density = 2.030015 g / cm^3
# Si number density = 20.346460 Si / 1000 Ang^3
#
#
#
# Elastic Constant Matrix: (Units=GPa)
#
#
# Indices 1 2 3 4 5 6 
#
# 1 132.9236 65.2518 52.6648 -0.0001 0.0005 0.0000
# 2 65.2518 141.3951 50.3338 0.0001 0.0004 -0.0001
# 3 52.6648 50.3338 96.8521 0.0002 0.0018 -0.0003
# 4 -0.0001 0.0001 0.0002 -8.2260 0.0004 0.0000
# 5 0.0005 0.0004 0.0018 0.0004 -6.1629 0.0001
# 6 0.0000 -0.0001 -0.0003 0.0000 0.0001 34.6171
#
#
#
# Elastic Compliance Matrix: (Units=1/GPa)
#
#
# Indices 1 2 3 4 5 6 
#
# 1 0.010889 -0.003580 -0.004061 0.000000 -0.000001 0.000000
# 2 -0.003580 0.009855 -0.003175 0.000000 -0.000001 0.000000
# 3 -0.004061 -0.003175 0.014183 0.000000 0.000004 0.000000
# 4 0.000000 0.000000 0.000000 -0.121566 -0.000007 0.000000
# 5 -0.000001 -0.000001 0.000004 -0.000007 -0.162261 0.000001
# 6 0.000000 0.000000 0.000000 0.000000 0.000001 0.028887
#
#
# Mechanical properties :
#
#
# Convention : Reuss Voigt Hill
#
# Bulk Modulus (GPa) = 75.20973 78.63017 76.91995
# Shear Modulus (GPa) = -25.77991 17.57368 -4.10312
#
# Velocity S-wave (km/s) = -3.56342 2.94210 -1.42162
# Velocity P-wave (km/s) = 4.48488 7.09019 5.93232
#
# Compressibility (1/GPa) = 0.01329615
#
# Stress axis : x y z
#
# Youngs Moduli (GPa) = 91.83329 101.47616 70.50608
#
# Poissons Ratio (x) = 0.36325 0.28632
# Poissons Ratio (y) = 0.32873 0.22385
# Poissons Ratio (z) = 0.37292 0.32217
#
# Static dielectric constant tensor:
#      x y z
#    x 4.128940 0.000000 0.000000 
#    y 0.000000 3.596190 0.000000 
#    z 0.000000 0.000000 3.603790 
# 
# 
# High freq. dielectric constant tensor:
#      x y z
#    x 1.807690 0.000000 0.000000 
#    y 0.000000 1.774770 0.000000 
#    z 0.000000 0.000000 1.784760 
# 
# From -- ./inp_files/31448.got.cif
#   From: 2010.06.25/outbox.cif.g09.slc.cpg/sg71_16_cif.got.tgz:31448.got - 2010.06.28 04:59:45.
