data_PCOD8290757
_publ_section_title
;
Structure prediction by ZEFSAII (Michael W. Deem and Ramdas Pophale) SiO2 
 PCOD8290757
Probable space group: I M M M
;
_chemical_formula_sum "Si O2"
_cell_formula_units_Z 104
_cell_length_a 18.601891
_cell_length_b 17.032273
_cell_length_c 17.501257
_cell_angle_alpha 90.000000
_cell_angle_beta 90.000000
_cell_angle_gamma 90.000000
_cell_volume 5544.966760
_symmetry_space_group_name_H-M "I M M M"
_symmetry_group_IT_number 71
_symmetry_cell_setting 'orthorhombic'
loop_
_space_group_symop_operation_xyz
x,y,z
-x,-y,z
x,-y,-z
-x,y,-z
-x,-y,-z
x,y,-z
-x,y,z
x,-y,z
1/2+x,1/2+y,1/2+z
1/2-x,1/2-y,1/2+z
1/2+x,1/2-y,1/2-z
1/2-x,1/2+y,1/2-z
1/2-x,1/2-y,1/2-z
1/2+x,1/2+y,1/2-z
1/2-x,1/2+y,1/2+z
1/2+x,1/2-y,1/2+z
loop_
_atom_site_type_symbol
_atom_site_label
_atom_site_fract_x
_atom_site_fract_y
_atom_site_fract_z
Si Si1 0.416346 0.830227 0.279992
Si Si2 0.644930 0.681833 0.644266
Si Si3 0.419918 0.588543 0.223039
Si Si4 0.169293 0.870388 0.410202
Si Si5 0.773054 0.500000 0.085451
Si Si6 0.578732 0.000000 0.649116
Si Si7 0.206659 0.280105 0.676854
Si Si8 0.415287 0.410562 0.500000
O O1 0.500000 0.808404 0.262169
O O2 0.385510 0.771880 0.347110
O O3 0.411666 0.921513 0.301761
O O4 0.365538 0.824764 0.204473
O O5 0.630712 0.643243 0.726684
O O6 0.731068 0.672451 0.630942
O O7 0.607347 0.636854 0.575249
O O8 0.500000 0.620231 0.233484
O O9 0.413320 0.500000 0.252804
O O10 0.399424 0.594500 0.133885
O O11 0.154419 0.874464 0.500000
O O12 0.238375 0.920805 0.379972
O O13 0.181606 0.782369 0.384956
O O14 0.858930 0.500000 0.086535
O O15 0.745533 0.500000 0.000000
O O16 0.500000 0.000000 0.609327
O O17 0.250000 0.250000 0.750000
O O18 0.383981 0.500000 0.500000
O O19 0.500000 0.415477 0.500000
#
# Coordination Sequence:
#
# PCOD8290757 Si02
#       8
#    16  16  16  16   8   8  16   8
#     4  10  20  37  60  84 113 149 193 244 295 345
#     4  11  22  38  61  88 116 158 197 240 294 352
#     4  11  22  36  58  87 118 152 196 239 285 355
#     4  11  22  35  56  84 119 153 193 235 287 343
#     4  10  20  35  53  76 114 159 183 224 284 341
#     4  10  22  37  56  85 112 140 192 249 291 342
#     4  10  20  36  57  85 109 148 196 245 284 341
#     4  11  24  42  62  89 128 160 192 238 292 352
#
# _framework density 18.755747
#
# number of rings (size 3 to 8) (size 9 to 14) (size 15 to 20)
#    0.000    1.462    3.846    3.692    1.077    1.692 
#    2.769    0.769    0.000    0.000    0.000    0.000 
#    0.000    2.462    0.000    0.000    0.000    0.000 
#
# Total GULP energy -644230.471172 kJ/mol
# GULP energy per Si atom -12389.047523 kJ/mol
# Density = 1.871306 g / cm^3
# Si number density = 18.755747 Si / 1000 Ang^3
#
#
#
# Elastic Constant Matrix: (Units=GPa)
#
#
# Indices 1 2 3 4 5 6 
#
# 1 110.6296 43.1219 19.1833 0.0000 0.0000 0.0000
# 2 43.1219 114.9915 38.5673 0.0000 0.0000 0.0000
# 3 19.1833 38.5673 77.1990 0.0000 0.0000 0.0000
# 4 0.0000 0.0000 0.0000 17.9737 0.0000 0.0000
# 5 0.0000 0.0000 0.0000 0.0000 27.7214 0.0000
# 6 0.0000 0.0000 0.0000 0.0000 0.0000 25.5249
#
#
#
# Elastic Compliance Matrix: (Units=1/GPa)
#
#
# Indices 1 2 3 4 5 6 
#
# 1 0.010626 -0.003723 -0.000781 0.000000 0.000000 0.000000
# 2 -0.003723 0.011751 -0.004946 0.000000 0.000000 0.000000
# 3 -0.000781 -0.004946 0.015618 0.000000 0.000000 0.000000
# 4 0.000000 0.000000 0.000000 0.055637 0.000000 0.000000
# 5 0.000000 0.000000 0.000000 0.000000 0.036073 0.000000
# 6 0.000000 0.000000 0.000000 0.000000 0.000000 0.039177
#
#
# Mechanical properties :
#
#
# Convention : Reuss Voigt Hill
#
# Bulk Modulus (GPa) = 52.36397 56.06280 54.21338
# Shear Modulus (GPa) = 25.75383 27.70717 26.73050
#
# Velocity S-wave (km/s) = 3.70958 3.84769 3.77926
# Velocity P-wave (km/s) = 6.80643 7.04950 6.92903
#
# Compressibility (1/GPa) = 0.01909710
#
# Stress axis : x y z
#
# Youngs Moduli (GPa) = 94.11214 85.09870 64.02785
#
# Poissons Ratio (x) = 0.31681 0.04997
# Poissons Ratio (y) = 0.35036 0.31665
# Poissons Ratio (z) = 0.07346 0.42086
#
# Static dielectric constant tensor:
#      x y z
#    x 3.907690 0.000000 0.000000 
#    y 0.000000 3.644160 0.000000 
#    z 0.000000 0.000000 3.205540 
# 
# 
# High freq. dielectric constant tensor:
#      x y z
#    x 1.742780 0.000000 0.000000 
#    y 0.000000 1.732490 0.000000 
#    z 0.000000 0.000000 1.701720 
# 
# From -- ./inp_files/46170.got.cif
#   From: 2010.06.25/outbox.cif.g09.slc.cpg/sg71_24_cif.got.tgz:46170.got - 2010.06.28 04:59:45.
