data_PCOD8290342
_publ_section_title
;
Structure prediction by ZEFSAII (Michael W. Deem and Ramdas Pophale) SiO2 
 PCOD8290342
Probable space group: I M M M
;
_chemical_formula_sum "Si O2"
_cell_formula_units_Z 80
_cell_length_a 9.427008
_cell_length_b 18.433740
_cell_length_c 29.914199
_cell_angle_alpha 90.000000
_cell_angle_beta 90.000000
_cell_angle_gamma 90.000000
_cell_volume 5198.340363
_symmetry_space_group_name_H-M "I M M M"
_symmetry_group_IT_number 71
_symmetry_cell_setting 'orthorhombic'
loop_
_space_group_symop_operation_xyz
x,y,z
-x,-y,z
x,-y,-z
-x,y,-z
-x,-y,-z
x,y,-z
-x,y,z
x,-y,z
1/2+x,1/2+y,1/2+z
1/2-x,1/2-y,1/2+z
1/2+x,1/2-y,1/2-z
1/2-x,1/2+y,1/2-z
1/2-x,1/2-y,1/2-z
1/2+x,1/2+y,1/2-z
1/2-x,1/2+y,1/2+z
1/2+x,1/2-y,1/2+z
loop_
_atom_site_type_symbol
_atom_site_label
_atom_site_fract_x
_atom_site_fract_y
_atom_site_fract_z
Si Si1 0.161810 0.000000 0.332202
Si Si2 0.335281 0.731641 0.183607
Si Si3 0.171920 0.500000 0.743237
Si Si4 0.000000 0.080845 0.551371
Si Si5 0.000000 0.586727 0.052530
Si Si6 0.834061 0.857474 0.228653
Si Si7 0.233990 0.133177 0.606165
O O1 0.186222 0.929623 0.361008
O O2 0.281769 0.000000 0.294538
O O3 0.000000 0.000000 0.312278
O O4 0.500000 0.756253 0.181144
O O5 0.233227 0.797381 0.196516
O O6 0.319199 0.666892 0.219677
O O7 0.278508 0.706573 0.135000
O O8 0.241623 0.429539 0.720096
O O9 0.000000 0.500000 0.738943
O O10 0.869376 0.131081 0.564141
O O11 0.000000 0.065247 0.500000
O O12 0.000000 0.000000 0.574756
O O13 0.879711 0.622563 0.081709
O O14 0.000000 0.500000 0.055966
O O15 0.000000 0.609535 0.000000
O O16 0.000000 0.869436 0.216512
#
# Coordination Sequence:
#
# PCOD8290342 Si02
#       7
#     8  16   8   8   8  16  16
#     4  12  20  32  47  73  95 130 180 215 249 296
#     4  10  20  34  50  72  99 128 170 213 251 297
#     4  12  24  34  52  73 103 134 168 211 252 294
#     4  11  20  32  50  71  94 131 177 216 259 299
#     4  11  24  36  46  69 102 133 173 224 265 301
#     4  10  21  35  52  73 101 131 165 208 253 296
#     4  12  20  33  51  68  96 134 173 219 256 295
#
# _framework density 15.389528
#
# number of rings (size 3 to 8) (size 9 to 14) (size 15 to 20)
#    0.000    1.000    6.000    2.100    2.800    2.400 
#    0.000    0.000    0.000    0.000    0.000    0.000 
#    0.000    0.000    0.000    5.400    0.000    0.100 
#
# Total GULP energy -495638.792559 kJ/mol
# GULP energy per Si atom -12390.969814 kJ/mol
# Density = 1.535450 g / cm^3
# Si number density = 15.389528 Si / 1000 Ang^3
#
#
#
# Elastic Constant Matrix: (Units=GPa)
#
#
# Indices 1 2 3 4 5 6 
#
# 1 156.7879 51.5342 45.7747 0.0000 0.0000 0.0000
# 2 51.5342 73.5331 32.4128 0.0000 0.0000 0.0000
# 3 45.7747 32.4128 72.5184 0.0000 0.0000 0.0000
# 4 0.0000 0.0000 0.0000 23.7685 0.0000 0.0000
# 5 0.0000 0.0000 0.0000 0.0000 32.3634 0.0000
# 6 0.0000 0.0000 0.0000 0.0000 0.0000 27.4413
#
#
#
# Elastic Compliance Matrix: (Units=1/GPa)
#
#
# Indices 1 2 3 4 5 6 
#
# 1 0.008965 -0.004718 -0.003550 0.000000 0.000000 0.000000
# 2 -0.004718 0.019419 -0.005701 0.000000 0.000000 0.000000
# 3 -0.003550 -0.005701 0.018579 0.000000 0.000000 0.000000
# 4 0.000000 0.000000 0.000000 0.042072 0.000000 0.000000
# 5 0.000000 0.000000 0.000000 0.000000 0.030899 0.000000
# 6 0.000000 0.000000 0.000000 0.000000 0.000000 0.036441
#
#
# Mechanical properties :
#
#
# Convention : Reuss Voigt Hill
#
# Bulk Modulus (GPa) = 52.56599 62.47586 57.52092
# Shear Modulus (GPa) = 26.22511 28.25584 27.24047
#
# Velocity S-wave (km/s) = 4.13254 4.28956 4.21178
# Velocity P-wave (km/s) = 7.54994 8.07578 7.81728
#
# Compressibility (1/GPa) = 0.01902371
#
# Stress axis : x y z
#
# Youngs Moduli (GPa) = 111.54020 51.49567 53.82483
#
# Poissons Ratio (x) = 0.24297 0.19109
# Poissons Ratio (y) = 0.52628 0.30687
# Poissons Ratio (z) = 0.39599 0.29359
#
# Static dielectric constant tensor:
#      x y z
#    x 3.168190 0.000000 0.000000 
#    y 0.000000 2.834000 0.000000 
#    z 0.000000 0.000000 2.859220 
# 
# 
# High freq. dielectric constant tensor:
#      x y z
#    x 1.612650 0.000000 0.000000 
#    y 0.000000 1.563500 0.000000 
#    z 0.000000 0.000000 1.568180 
# 
# From -- ./inp_files/42412.got.cif
#   From: 2010.06.25/outbox.cif.g09.slc.cpg/sg71_22_cif.got.tgz:42412.got - 2010.06.28 04:59:45.
