data_PCOD8290777
_publ_section_title
;
Structure prediction by ZEFSAII (Michael W. Deem and Ramdas Pophale) SiO2 
 PCOD8290777
Probable space group: I M M M
;
_chemical_formula_sum "Si O2"
_cell_formula_units_Z 120
_cell_length_a 18.456168
_cell_length_b 13.269709
_cell_length_c 25.478593
_cell_angle_alpha 90.000000
_cell_angle_beta 90.000000
_cell_angle_gamma 90.000000
_cell_volume 6239.910710
_symmetry_space_group_name_H-M "I M M M"
_symmetry_group_IT_number 71
_symmetry_cell_setting 'orthorhombic'
loop_
_space_group_symop_operation_xyz
x,y,z
-x,-y,z
x,-y,-z
-x,y,-z
-x,-y,-z
x,y,-z
-x,y,z
x,-y,z
1/2+x,1/2+y,1/2+z
1/2-x,1/2-y,1/2+z
1/2+x,1/2-y,1/2-z
1/2-x,1/2+y,1/2-z
1/2-x,1/2-y,1/2-z
1/2+x,1/2+y,1/2-z
1/2-x,1/2+y,1/2+z
1/2+x,1/2-y,1/2+z
loop_
_atom_site_type_symbol
_atom_site_label
_atom_site_fract_x
_atom_site_fract_y
_atom_site_fract_z
Si Si1 0.416404 0.714415 0.201552
Si Si2 0.201355 0.743744 0.558618
Si Si3 0.917674 0.113485 0.407653
Si Si4 0.334307 0.113644 0.561161
Si Si5 0.317571 0.884048 0.159341
Si Si6 0.415849 0.280364 0.395838
Si Si7 0.586303 0.387262 0.500000
Si Si8 0.660776 0.616553 0.299386
O O1 0.500000 0.729784 0.219460
O O2 0.411035 0.636280 0.154043
O O3 0.383652 0.822287 0.184755
O O4 0.367461 0.667929 0.246929
O O5 0.212863 0.699054 0.500000
O O6 0.127171 0.806947 0.558539
O O7 0.262997 0.823072 0.574339
O O8 0.200258 0.653586 0.600430
O O9 0.000000 0.124307 0.426551
O O10 0.889360 0.000000 0.417637
O O11 0.355062 0.116291 0.500000
O O12 0.399463 0.161730 0.595748
O O13 0.322310 0.000000 0.580680
O O14 0.247352 0.872326 0.196523
O O15 0.341831 0.000000 0.155504
O O16 0.500000 0.300075 0.387915
O O17 0.383544 0.333454 0.448110
O O18 0.375066 0.325685 0.347148
O O19 0.616153 0.500000 0.500000
O O20 0.500000 0.383070 0.500000
O O21 0.636943 0.500000 0.300921
#
# Coordination Sequence:
#
# PCOD8290777 Si02
#       8
#    16  16  16  16  16  16   8  16
#     4  10  21  38  61  87 118 154 194 242 294 353
#     4  10  20  36  57  84 119 154 195 239 285 346
#     4   9  18  33  55  85 117 148 187 238 298 355
#     4  10  20  35  54  75 106 152 198 237 284 342
#     4  10  22  40  62  88 119 156 196 237 290 350
#     4  11  21  34  52  79 112 148 194 245 294 348
#     4   9  18  32  49  73 109 149 187 234 294 348
#     4  11  22  38  61  89 118 151 194 244 298 348
#
# _framework density 19.231044000000001
#
# number of rings (size 3 to 8) (size 9 to 14) (size 15 to 20)
#    0.000    1.933    2.000    2.000    0.000    4.000 
#    0.000    2.000    0.000    1.600    0.000    3.733 
#    0.000    0.000    0.000    0.000    0.000    0.000 
#
# Total GULP energy -744057.945945 kJ/mol
# GULP energy per Si atom -12400.965766 kJ/mol
# Density = 1.918727 g / cm^3
# Si number density = 19.231044 Si / 1000 Ang^3
#
#
#
# Elastic Constant Matrix: (Units=GPa)
#
#
# Indices 1 2 3 4 5 6 
#
# 1 50.7285 20.6941 4.4523 0.0000 0.0000 0.0000
# 2 20.6941 110.0472 15.3339 0.0000 0.0000 0.0000
# 3 4.4523 15.3339 53.1768 0.0000 0.0000 0.0000
# 4 0.0000 0.0000 0.0000 22.1776 0.0000 0.0000
# 5 0.0000 0.0000 0.0000 0.0000 17.8473 0.0000
# 6 0.0000 0.0000 0.0000 0.0000 0.0000 25.7526
#
#
#
# Elastic Compliance Matrix: (Units=1/GPa)
#
#
# Indices 1 2 3 4 5 6 
#
# 1 0.021373 -0.003928 -0.000657 0.000000 0.000000 0.000000
# 2 -0.003928 0.010189 -0.002609 0.000000 0.000000 0.000000
# 3 -0.000657 -0.002609 0.019613 0.000000 0.000000 0.000000
# 4 0.000000 0.000000 0.000000 0.045091 0.000000 0.000000
# 5 0.000000 0.000000 0.000000 0.000000 0.056031 0.000000
# 6 0.000000 0.000000 0.000000 0.000000 0.000000 0.038831
#
#
# Mechanical properties :
#
#
# Convention : Reuss Voigt Hill
#
# Bulk Modulus (GPa) = 27.18357 32.76811 29.97584
# Shear Modulus (GPa) = 22.95930 24.72031 23.83980
#
# Velocity S-wave (km/s) = 3.45899 3.58919 3.52469
# Velocity P-wave (km/s) = 5.48805 5.85257 5.67324
#
# Compressibility (1/GPa) = 0.03678692
#
# Stress axis : x y z
#
# Youngs Moduli (GPa) = 46.78886 98.14364 50.98769
#
# Poissons Ratio (x) = 0.38546 0.03349
# Poissons Ratio (y) = 0.18376 0.13304
# Poissons Ratio (z) = 0.03074 0.25608
#
# Static dielectric constant tensor:
#      x y z
#    x 3.586600 0.000000 0.000000 
#    y 0.000000 3.578080 0.000000 
#    z 0.000000 0.000000 3.875330 
# 
# 
# High freq. dielectric constant tensor:
#      x y z
#    x 1.750380 0.000000 0.000000 
#    y 0.000000 1.747440 0.000000 
#    z 0.000000 0.000000 1.743140 
# 
# From -- ./inp_files/55835.got.cif
#   From: 2010.06.25/outbox.cif.g09.slc.cpg/sg71_28_cif.got.tgz:55835.got - 2010.06.28 04:59:45.
