data_PCOD8290228
_publ_section_title
;
Structure prediction by ZEFSAII (Michael W. Deem and Ramdas Pophale) SiO2 
 PCOD8290228
Probable space group: I M M M
;
_chemical_formula_sum "Si O2"
_cell_formula_units_Z 72
_cell_length_a 9.263761
_cell_length_b 22.693735
_cell_length_c 17.649416
_cell_angle_alpha 90.000000
_cell_angle_beta 90.000000
_cell_angle_gamma 90.000000
_cell_volume 3710.425028
_symmetry_space_group_name_H-M "I M M M"
_symmetry_group_IT_number 71
_symmetry_cell_setting 'orthorhombic'
loop_
_space_group_symop_operation_xyz
x,y,z
-x,-y,z
x,-y,-z
-x,y,-z
-x,-y,-z
x,y,-z
-x,y,z
x,-y,z
1/2+x,1/2+y,1/2+z
1/2-x,1/2-y,1/2+z
1/2+x,1/2-y,1/2-z
1/2-x,1/2+y,1/2-z
1/2-x,1/2-y,1/2-z
1/2+x,1/2+y,1/2-z
1/2-x,1/2+y,1/2+z
1/2+x,1/2-y,1/2+z
loop_
_atom_site_type_symbol
_atom_site_label
_atom_site_fract_x
_atom_site_fract_y
_atom_site_fract_z
Si Si1 0.666410 0.270461 0.084785
Si Si2 0.828621 0.564510 0.583865
Si Si3 0.828582 0.373871 0.146480
Si Si4 0.828834 0.500000 0.913625
Si Si5 0.328229 0.835072 0.811478
O O1 0.500000 0.285337 0.101256
O O2 0.757272 0.330785 0.085182
O O3 0.725982 0.225713 0.149811
O O4 0.682739 0.242862 0.000000
O O5 0.765162 0.574028 0.500000
O O6 0.785972 0.500000 0.614748
O O7 0.760057 0.612413 0.639117
O O8 0.000000 0.571006 0.581181
O O9 0.776069 0.441167 0.131086
O O10 0.772986 0.347681 0.226805
O O11 0.000000 0.370478 0.139326
O O12 0.000000 0.500000 0.916467
O O13 0.768319 0.500000 0.000000
O O14 0.500000 0.836801 0.813859
#
# Coordination Sequence:
#
# PCOD8290228 Si02
#       5
#    16  16  16   8  16
#     4  10  20  34  51  71  99 133 164 198 243 294
#     4   8  13  21  36  61  94 129 161 194 234 285
#     4  10  20  33  52  75  99 128 163 206 248 287
#     4   9  18  32  49  71  98 126 158 199 245 287
#     4   9  17  28  45  69  98 128 160 198 244 291
#
# _framework density 19.404786999999999
#
# number of rings (size 3 to 8) (size 9 to 14) (size 15 to 20)
#    0.000    2.778    0.000    2.667    1.556    4.000 
#    0.000    0.556    0.000    2.000    0.000    0.000 
#    0.000    0.000    0.000    7.111    0.000    6.667 
#
# Total GULP energy -446090.687179 kJ/mol
# GULP energy per Si atom -12391.407977 kJ/mol
# Density = 1.936062 g / cm^3
# Si number density = 19.404787 Si / 1000 Ang^3
#
#
#
# Elastic Constant Matrix: (Units=GPa)
#
#
# Indices 1 2 3 4 5 6 
#
# 1 14.3851 23.2969 17.5831 0.0000 0.0000 0.0000
# 2 23.2969 153.2287 64.2075 0.0000 0.0000 0.0000
# 3 17.5831 64.2075 109.2233 0.0000 0.0000 0.0000
# 4 0.0000 0.0000 0.0000 33.1926 0.0000 0.0000
# 5 0.0000 0.0000 0.0000 0.0000 14.1217 0.0000
# 6 0.0000 0.0000 0.0000 0.0000 0.0000 19.0131
#
#
#
# Elastic Compliance Matrix: (Units=1/GPa)
#
#
# Indices 1 2 3 4 5 6 
#
# 1 0.099010 -0.011112 -0.009407 0.000000 0.000000 0.000000
# 2 -0.011112 0.009906 -0.004035 0.000000 0.000000 0.000000
# 3 -0.009407 -0.004035 0.013042 0.000000 0.000000 0.000000
# 4 0.000000 0.000000 0.000000 0.030127 0.000000 0.000000
# 5 0.000000 0.000000 0.000000 0.000000 0.070813 0.000000
# 6 0.000000 0.000000 0.000000 0.000000 0.000000 0.052595
#
#
# Mechanical properties :
#
#
# Convention : Reuss Voigt Hill
#
# Bulk Modulus (GPa) = 13.72654 54.11246 33.91950
# Shear Modulus (GPa) = 14.33140 24.71543 19.52342
#
# Velocity S-wave (km/s) = 2.72058 3.57273 3.17537
# Velocity P-wave (km/s) = 4.11799 6.70566 5.56434
#
# Compressibility (1/GPa) = 0.07285157
#
# Stress axis : x y z
#
# Youngs Moduli (GPa) = 10.09997 100.94615 76.67715
#
# Poissons Ratio (x) = 1.12169 0.72129
# Poissons Ratio (y) = 0.11223 0.30937
# Poissons Ratio (z) = 0.09501 0.40728
#
# Static dielectric constant tensor:
#      x y z
#    x 2.789240 0.000000 0.000000 
#    y 0.000000 3.785430 0.000000 
#    z 0.000000 0.000000 3.819150 
# 
# 
# High freq. dielectric constant tensor:
#      x y z
#    x 1.676240 0.000000 0.000000 
#    y 0.000000 1.770360 0.000000 
#    z 0.000000 0.000000 1.767470 
# 
# From -- ./inp_files/23715.got.cif
#   From: 2010.06.25/outbox.cif.g09.slc.cpg/sg71_12_cif.got.tgz:23715.got - 2010.06.28 04:59:45.
