data_PCOD8290640
_publ_section_title
;
Structure prediction by ZEFSAII (Michael W. Deem and Ramdas Pophale) SiO2 
 PCOD8290640
Probable space group: I M M M
;
_chemical_formula_sum "Si O2"
_cell_formula_units_Z 120
_cell_length_a 9.253006
_cell_length_b 25.383962
_cell_length_c 26.980357
_cell_angle_alpha 90.000000
_cell_angle_beta 90.000000
_cell_angle_gamma 90.000000
_cell_volume 6337.091015
_symmetry_space_group_name_H-M "I M M M"
_symmetry_group_IT_number 71
_symmetry_cell_setting 'orthorhombic'
loop_
_space_group_symop_operation_xyz
x,y,z
-x,-y,z
x,-y,-z
-x,y,-z
-x,-y,-z
x,y,-z
-x,y,z
x,-y,z
1/2+x,1/2+y,1/2+z
1/2-x,1/2-y,1/2+z
1/2+x,1/2-y,1/2-z
1/2-x,1/2+y,1/2-z
1/2-x,1/2-y,1/2-z
1/2+x,1/2+y,1/2-z
1/2-x,1/2+y,1/2+z
1/2+x,1/2-y,1/2+z
loop_
_atom_site_type_symbol
_atom_site_label
_atom_site_fract_x
_atom_site_fract_y
_atom_site_fract_z
Si Si1 0.334324 0.640299 0.185031
Si Si2 0.665718 0.441962 0.342703
Si Si3 0.163490 0.562420 0.000000
Si Si4 0.669795 0.410719 0.552600
Si Si5 0.169081 0.938824 0.401934
Si Si6 0.831944 0.207207 0.055698
Si Si7 0.165315 0.257376 0.353150
Si Si8 0.670753 0.145979 0.213422
O O1 0.500000 0.628715 0.199439
O O2 0.282543 0.597522 0.144299
O O3 0.313788 0.699116 0.166429
O O4 0.237666 0.635732 0.233243
O O5 0.500000 0.421669 0.336209
O O6 0.682143 0.500000 0.319068
O O7 0.707704 0.447204 0.400898
O O8 0.779456 0.402889 0.319315
O O9 0.245567 0.581608 0.950457
O O10 0.162335 0.500000 0.000000
O O11 0.000000 0.584989 0.000000
O O12 0.731835 0.433405 0.500000
O O13 0.500000 0.405268 0.546596
O O14 0.729932 0.351877 0.561441
O O15 0.000000 0.931528 0.413161
O O16 0.204928 0.000000 0.389605
O O17 0.749502 0.242614 0.095247
O O18 0.000000 0.210084 0.068691
O O19 0.802686 0.228365 0.000000
O O20 0.224850 0.299664 0.312554
O O21 0.000000 0.271130 0.364240
O O22 0.500000 0.145843 0.219199
#
# Coordination Sequence:
#
# PCOD8290640 Si02
#       8
#    16  16   8  16  16  16  16  16
#     4  10  22  39  58  82 109 139 184 233 272 320
#     4  10  20  34  55  81 107 142 186 228 274 327
#     4   9  17  31  55  85 115 147 177 207 254 319
#     4   8  14  27  49  77 106 136 175 224 272 316
#     4   9  18  35  59  83 108 141 179 219 263 314
#     4   9  17  31  54  81 109 144 183 223 270 322
#     4  10  21  37  56  80 109 144 183 225 276 330
#     4  11  23  38  56  78 107 144 183 227 282 333
#
# _framework density 18.936133999999999
#
# number of rings (size 3 to 8) (size 9 to 14) (size 15 to 20)
#    0.000    2.467    1.333    1.800    0.000    3.733 
#    1.200    2.667    0.000    0.400    0.000    0.933 
#    0.000    0.000    0.000    0.000    0.000    0.000 
#
# Total GULP energy -743681.890105 kJ/mol
# GULP energy per Si atom -12394.698168 kJ/mol
# Density = 1.889303 g / cm^3
# Si number density = 18.936134 Si / 1000 Ang^3
#
#
#
# Elastic Constant Matrix: (Units=GPa)
#
#
# Indices 1 2 3 4 5 6 
#
# 1 51.2881 36.2790 58.1211 0.0000 0.0000 0.0000
# 2 36.2790 81.3753 53.8863 0.0000 0.0000 0.0000
# 3 58.1211 53.8863 139.5994 0.0000 0.0000 0.0000
# 4 0.0000 0.0000 0.0000 19.9819 0.0000 0.0000
# 5 0.0000 0.0000 0.0000 0.0000 32.3591 0.0000
# 6 0.0000 0.0000 0.0000 0.0000 0.0000 22.2912
#
#
#
# Elastic Compliance Matrix: (Units=1/GPa)
#
#
# Indices 1 2 3 4 5 6 
#
# 1 0.041796 -0.009552 -0.013714 0.000000 0.000000 0.000000
# 2 -0.009552 0.018692 -0.003238 0.000000 0.000000 0.000000
# 3 -0.013714 -0.003238 0.014123 0.000000 0.000000 0.000000
# 4 0.000000 0.000000 0.000000 0.050045 0.000000 0.000000
# 5 0.000000 0.000000 0.000000 0.000000 0.030903 0.000000
# 6 0.000000 0.000000 0.000000 0.000000 0.000000 0.044861
#
#
# Mechanical properties :
#
#
# Convention : Reuss Voigt Hill
#
# Bulk Modulus (GPa) = 46.29282 63.20395 54.74838
# Shear Modulus (GPa) = 19.18439 23.19154 21.18796
#
# Velocity S-wave (km/s) = 3.18639 3.50340 3.34865
# Velocity P-wave (km/s) = 6.16744 7.05797 6.62768
#
# Compressibility (1/GPa) = 0.02160162
#
# Stress axis : x y z
#
# Youngs Moduli (GPa) = 23.92596 53.50018 70.80607
#
# Poissons Ratio (x) = 0.51103 0.97104
# Poissons Ratio (y) = 0.22854 0.22928
# Poissons Ratio (z) = 0.32812 0.17324
#
# Static dielectric constant tensor:
#      x y z
#    x 3.295980 0.000000 0.000000 
#    y 0.000000 3.427950 0.000000 
#    z 0.000000 0.000000 3.961540 
# 
# 
# High freq. dielectric constant tensor:
#      x y z
#    x 1.711440 0.000000 0.000000 
#    y 0.000000 1.726230 0.000000 
#    z 0.000000 0.000000 1.746430 
# 
# From -- ./inp_files/63759.got.cif
#   From: 2010.06.25/outbox.cif.g09.slc.cpg/sg71_32_cif.got.tgz:63759.got - 2010.06.28 04:59:45.
