data_PCOD8290995
_publ_section_title
;
Structure prediction by ZEFSAII (Michael W. Deem and Ramdas Pophale) SiO2 
 PCOD8290995
Probable space group: I M M M
;
_chemical_formula_sum "Si O2"
_cell_formula_units_Z 88
_cell_length_a 21.913587
_cell_length_b 17.498474
_cell_length_c 12.263186
_cell_angle_alpha 90.000000
_cell_angle_beta 90.000000
_cell_angle_gamma 90.000000
_cell_volume 4702.371800
_symmetry_space_group_name_H-M "I M M M"
_symmetry_group_IT_number 71
_symmetry_cell_setting 'orthorhombic'
loop_
_space_group_symop_operation_xyz
x,y,z
-x,-y,z
x,-y,-z
-x,y,-z
-x,-y,-z
x,y,-z
-x,y,z
x,-y,z
1/2+x,1/2+y,1/2+z
1/2-x,1/2-y,1/2+z
1/2+x,1/2-y,1/2-z
1/2-x,1/2+y,1/2-z
1/2-x,1/2-y,1/2-z
1/2+x,1/2+y,1/2-z
1/2-x,1/2+y,1/2+z
1/2+x,1/2-y,1/2+z
loop_
_atom_site_type_symbol
_atom_site_label
_atom_site_fract_x
_atom_site_fract_y
_atom_site_fract_z
Si Si1 0.102373 0.803933 0.626980
Si Si2 0.929529 0.652346 0.260215
Si Si3 0.378849 0.000000 0.871362
Si Si4 0.500000 0.585253 0.130276
Si Si5 0.734494 0.500000 0.626514
Si Si6 0.711906 0.345590 0.271111
Si Si7 0.318239 0.194814 0.375495
O O1 0.108679 0.812183 0.500000
O O2 0.077089 0.719896 0.651922
O O3 0.058315 0.869236 0.675040
O O4 0.168231 0.820649 0.674017
O O5 0.908113 0.574033 0.315563
O O6 0.888637 0.676132 0.155112
O O7 0.000000 0.644555 0.222827
O O8 0.306559 0.000000 0.851376
O O9 0.394163 0.000000 0.000000
O O10 0.500000 0.500000 0.179107
O O11 0.500000 0.583688 0.000000
O O12 0.720426 0.500000 0.500000
O O13 0.700233 0.571963 0.678878
O O14 0.701630 0.283973 0.367593
O O15 0.778718 0.348864 0.216148
O O16 0.307079 0.167609 0.500000
#
# Coordination Sequence:
#
# PCOD8290995 Si02
#       7
#    16  16   8   8   8  16  16
#     4  10  20  35  58  86 116 150 189 237 294 347
#     4  11  22  38  58  84 117 156 200 237 285 345
#     4  11  23  38  59  86 117 153 195 245 292 339
#     4   9  18  32  50  79 115 149 180 224 288 348
#     4  11  22  39  60  85 118 151 187 237 293 347
#     4  10  21  37  59  86 109 146 190 235 291 343
#     4  10  21  39  59  82 112 148 193 241 285 338
#
# _framework density 18.71396
#
# number of rings (size 3 to 8) (size 9 to 14) (size 15 to 20)
#    0.000    1.727    2.727    1.909    1.273    1.818 
#    0.000    2.727    0.000    1.091    0.000    0.636 
#    0.000    0.000    0.000    0.000    0.000    0.000 
#
# Total GULP energy -545442.011918 kJ/mol
# GULP energy per Si atom -12396.409362 kJ/mol
# Density = 1.867137 g / cm^3
# Si number density = 18.713960 Si / 1000 Ang^3
#
#
#
# Elastic Constant Matrix: (Units=GPa)
#
#
# Indices 1 2 3 4 5 6 
#
# 1 74.9778 16.8710 27.2405 0.0000 0.0000 0.0000
# 2 16.8710 144.3629 35.3740 0.0000 0.0000 0.0000
# 3 27.2405 35.3740 78.4291 0.0000 0.0000 0.0000
# 4 0.0000 0.0000 0.0000 20.9598 0.0000 0.0000
# 5 0.0000 0.0000 0.0000 0.0000 9.1484 0.0000
# 6 0.0000 0.0000 0.0000 0.0000 0.0000 54.3685
#
#
#
# Elastic Compliance Matrix: (Units=1/GPa)
#
#
# Indices 1 2 3 4 5 6 
#
# 1 0.015302 -0.000546 -0.005068 0.000000 0.000000 0.000000
# 2 -0.000546 0.007807 -0.003332 0.000000 0.000000 0.000000
# 3 -0.005068 -0.003332 0.016013 0.000000 0.000000 0.000000
# 4 0.000000 0.000000 0.000000 0.047710 0.000000 0.000000
# 5 0.000000 0.000000 0.000000 0.000000 0.109308 0.000000
# 6 0.000000 0.000000 0.000000 0.000000 0.000000 0.018393
#
#
# Mechanical properties :
#
#
# Convention : Reuss Voigt Hill
#
# Bulk Modulus (GPa) = 47.10337 50.74898 48.92618
# Shear Modulus (GPa) = 20.87661 31.44764 26.16212
#
# Velocity S-wave (km/s) = 3.34363 4.10376 3.74304
# Velocity P-wave (km/s) = 6.33493 7.04497 6.69936
#
# Compressibility (1/GPa) = 0.02122990
#
# Stress axis : x y z
#
# Youngs Moduli (GPa) = 65.35268 128.08733 62.44793
#
# Poissons Ratio (x) = 0.06998 0.31650
# Poissons Ratio (y) = 0.03570 0.20805
# Poissons Ratio (z) = 0.33122 0.42673
#
# Static dielectric constant tensor:
#      x y z
#    x 3.582590 0.000000 0.000000 
#    y 0.000000 3.628240 0.000000 
#    z 0.000000 0.000000 3.114730 
# 
# 
# High freq. dielectric constant tensor:
#      x y z
#    x 1.732680 0.000000 0.000000 
#    y 0.000000 1.735710 0.000000 
#    z 0.000000 0.000000 1.704820 
# 
# From -- ./inp_files/24021.got.cif
#   From: 2010.06.25/outbox.cif.g09.slc.cpg/sg71_13_cif.got.tgz:24021.got - 2010.06.28 04:59:45.
