data_PCOD8290099
_publ_section_title
;
Structure prediction by ZEFSAII (Michael W. Deem and Ramdas Pophale) SiO2 
 PCOD8290099
Probable space group: I M M M
;
_chemical_formula_sum "Si O2"
_cell_formula_units_Z 96
_cell_length_a 13.084838
_cell_length_b 20.897669
_cell_length_c 19.272919
_cell_angle_alpha 90.000000
_cell_angle_beta 90.000000
_cell_angle_gamma 90.000000
_cell_volume 5270.037340
_symmetry_space_group_name_H-M "I M M M"
_symmetry_group_IT_number 71
_symmetry_cell_setting 'orthorhombic'
loop_
_space_group_symop_operation_xyz
x,y,z
-x,-y,z
x,-y,-z
-x,y,-z
-x,-y,-z
x,y,-z
-x,y,z
x,-y,z
1/2+x,1/2+y,1/2+z
1/2-x,1/2-y,1/2+z
1/2+x,1/2-y,1/2-z
1/2-x,1/2+y,1/2-z
1/2-x,1/2-y,1/2-z
1/2+x,1/2+y,1/2-z
1/2-x,1/2+y,1/2+z
1/2+x,1/2-y,1/2+z
loop_
_atom_site_type_symbol
_atom_site_label
_atom_site_fract_x
_atom_site_fract_y
_atom_site_fract_z
Si Si1 0.763590 0.657072 0.692711
Si Si2 0.389327 0.878587 0.578165
Si Si3 0.116812 0.727240 0.809862
Si Si4 0.613178 0.575398 0.219284
Si Si5 0.380671 0.926246 0.080633
Si Si6 0.323312 0.572018 0.925219
O O1 0.849055 0.690065 0.740480
O O2 0.683308 0.711048 0.670720
O O3 0.701334 0.603205 0.733482
O O4 0.815273 0.623176 0.626640
O O5 0.390919 0.852641 0.500000
O O6 0.500000 0.910067 0.597070
O O7 0.367994 0.817619 0.624801
O O8 0.299003 0.929518 0.588409
O O9 0.000000 0.748597 0.798712
O O10 0.500000 0.591958 0.247853
O O11 0.631816 0.500000 0.215952
O O12 0.621714 0.604824 0.140717
O O13 0.500000 0.914806 0.095908
O O14 0.352202 0.000000 0.098607
O O15 0.356149 0.912492 0.000000
O O16 0.362409 0.500000 0.930888
O O17 0.348366 0.606226 0.000000
#
# Coordination Sequence:
#
# PCOD8290099 Si02
#       6
#    16  16  16  16  16  16
#     4  11  20  34  55  77 104 143 173 214 259 319
#     4   9  17  31  49  69  99 134 167 206 249 296
#     4  10  21  34  50  76 105 139 180 215 250 298
#     4  10  20  33  50  74 103 135 173 216 262 310
#     4   9  19  37  61  87 111 134 167 219 280 333
#     4   9  17  30  48  70  98 133 172 211 253 301
#
# _framework density 18.216189
#
# number of rings (size 3 to 8) (size 9 to 14) (size 15 to 20)
#    0.000    2.333    1.667    2.000    0.000    1.333 
#    0.000    3.333    0.000    1.500    0.000    5.833 
#    0.000    0.000    0.000    0.000    0.000    0.000 
#
# Total GULP energy -594748.153718 kJ/mol
# GULP energy per Si atom -12390.586536 kJ/mol
# Density = 1.817473 g / cm^3
# Si number density = 18.216189 Si / 1000 Ang^3
#
#
#
# Elastic Constant Matrix: (Units=GPa)
#
#
# Indices 1 2 3 4 5 6 
#
# 1 91.8047 38.6061 43.1105 0.0000 0.0000 0.0000
# 2 38.6061 64.5523 40.3969 0.0000 0.0000 0.0000
# 3 43.1105 40.3969 94.5110 0.0000 0.0000 0.0000
# 4 0.0000 0.0000 0.0000 25.5527 0.0000 0.0000
# 5 0.0000 0.0000 0.0000 0.0000 23.5552 0.0000
# 6 0.0000 0.0000 0.0000 0.0000 0.0000 26.9517
#
#
#
# Elastic Compliance Matrix: (Units=1/GPa)
#
#
# Indices 1 2 3 4 5 6 
#
# 1 0.015741 -0.006718 -0.004309 0.000000 0.000000 0.000000
# 2 -0.006718 0.024015 -0.007201 0.000000 0.000000 0.000000
# 3 -0.004309 -0.007201 0.015624 0.000000 0.000000 0.000000
# 4 0.000000 0.000000 0.000000 0.039135 0.000000 0.000000
# 5 0.000000 0.000000 0.000000 0.000000 0.042454 0.000000
# 6 0.000000 0.000000 0.000000 0.000000 0.000000 0.037103
#
#
# Mechanical properties :
#
#
# Convention : Reuss Voigt Hill
#
# Bulk Modulus (GPa) = 52.83749 55.01057 53.92403
# Shear Modulus (GPa) = 23.05909 23.79554 23.42732
#
# Velocity S-wave (km/s) = 3.56175 3.61818 3.59007
# Velocity P-wave (km/s) = 6.78111 6.90791 6.84481
#
# Compressibility (1/GPa) = 0.01892596
#
# Stress axis : x y z
#
# Youngs Moduli (GPa) = 63.52846 41.64077 64.00418
#
# Poissons Ratio (x) = 0.27972 0.27578
# Poissons Ratio (y) = 0.42676 0.46087
# Poissons Ratio (z) = 0.27373 0.29984
#
# Static dielectric constant tensor:
#      x y z
#    x 3.524670 0.000000 0.000000 
#    y 0.000000 3.141780 0.000000 
#    z 0.000000 0.000000 3.471910 
# 
# 
# High freq. dielectric constant tensor:
#      x y z
#    x 1.715700 0.000000 0.000000 
#    y 0.000000 1.681500 0.000000 
#    z 0.000000 0.000000 1.707280 
# 
# From -- ./inp_files/25978.got.cif
#   From: 2010.06.25/outbox.cif.g09.slc.cpg/sg71_13_cif.got.tgz:25978.got - 2010.06.28 04:59:45.
