data_PCOD8290085
_publ_section_title
;
Structure prediction by ZEFSAII (Michael W. Deem and Ramdas Pophale) SiO2 
 PCOD8290085
Probable space group: I M M M
;
_chemical_formula_sum "Si O2"
_cell_formula_units_Z 104
_cell_length_a 22.237442
_cell_length_b 17.551059
_cell_length_c 15.093711
_cell_angle_alpha 90.000000
_cell_angle_beta 90.000000
_cell_angle_gamma 90.000000
_cell_volume 5890.934376
_symmetry_space_group_name_H-M "I M M M"
_symmetry_group_IT_number 71
_symmetry_cell_setting 'orthorhombic'
loop_
_space_group_symop_operation_xyz
x,y,z
-x,-y,z
x,-y,-z
-x,y,-z
-x,-y,-z
x,y,-z
-x,y,z
x,-y,z
1/2+x,1/2+y,1/2+z
1/2-x,1/2-y,1/2+z
1/2+x,1/2-y,1/2-z
1/2-x,1/2+y,1/2-z
1/2-x,1/2-y,1/2-z
1/2+x,1/2+y,1/2-z
1/2-x,1/2+y,1/2+z
1/2+x,1/2-y,1/2+z
loop_
_atom_site_type_symbol
_atom_site_label
_atom_site_fract_x
_atom_site_fract_y
_atom_site_fract_z
Si Si1 0.732621 0.587701 0.905268
Si Si2 0.824839 0.587207 0.395142
Si Si3 0.398162 0.353750 0.097287
Si Si4 0.434238 0.816121 0.895916
Si Si5 0.391725 0.412419 0.276845
Si Si6 0.000000 0.090500 0.100707
Si Si7 0.737565 0.338076 0.733859
O O1 0.714422 0.500000 0.890626
O O2 0.673133 0.638515 0.911314
O O3 0.767616 0.618104 0.818927
O O4 0.767809 0.597195 0.000000
O O5 0.819284 0.596302 0.500000
O O6 0.821975 0.500000 0.364981
O O7 0.887126 0.622425 0.358161
O O8 0.769688 0.633778 0.354577
O O9 0.412345 0.268206 0.126960
O O10 0.421375 0.407330 0.177737
O O11 0.427380 0.373163 0.000000
O O12 0.500000 0.830695 0.852922
O O13 0.438774 0.827065 0.000000
O O14 0.373914 0.500000 0.296708
O O15 0.439800 0.381504 0.348681
O O16 0.332933 0.358475 0.278666
O O17 0.000000 0.000000 0.101606
O O18 0.000000 0.122267 0.000000
O O19 0.750000 0.250000 0.750000
#
# Coordination Sequence:
#
# PCOD8290085 Si02
#       7
#    16  16  16  16  16   8  16
#     4   9  17  31  51  71  97 135 170 203 247 302
#     4  10  20  33  50  73 101 133 172 217 259 305
#     4   9  16  27  46  72 100 128 158 196 245 304
#     4   9  18  31  46  67  98 136 169 199 247 309
#     4  10  20  34  52  74 100 136 177 215 256 309
#     4   9  20  38  55  71  95 133 181 226 262 298
#     4  11  21  33  51  77 108 135 169 212 271 319
#
# _framework density 17.654246000000001
#
# number of rings (size 3 to 8) (size 9 to 14) (size 15 to 20)
#    0.000    2.385    0.000    4.615    1.077    3.692 
#    0.000    3.077    0.000    1.385    0.000    0.000 
#    0.000    0.000    0.000    3.231    0.000    0.923 
#
# Total GULP energy -644229.277268 kJ/mol
# GULP energy per Si atom -12389.024563 kJ/mol
# Density = 1.761406 g / cm^3
# Si number density = 17.654246 Si / 1000 Ang^3
#
#
#
# Elastic Constant Matrix: (Units=GPa)
#
#
# Indices 1 2 3 4 5 6 
#
# 1 87.6195 56.1727 37.9209 0.0000 0.0000 0.0000
# 2 56.1727 96.3251 34.3053 0.0000 0.0000 0.0000
# 3 37.9209 34.3053 90.9558 0.0000 0.0000 0.0000
# 4 0.0000 0.0000 0.0000 22.1088 0.0000 0.0000
# 5 0.0000 0.0000 0.0000 0.0000 17.8256 0.0000
# 6 0.0000 0.0000 0.0000 0.0000 0.0000 23.7735
#
#
#
# Elastic Compliance Matrix: (Units=1/GPa)
#
#
# Indices 1 2 3 4 5 6 
#
# 1 0.019691 -0.009887 -0.004480 0.000000 0.000000 0.000000
# 2 -0.009887 0.016957 -0.002273 0.000000 0.000000 0.000000
# 3 -0.004480 -0.002273 0.013720 0.000000 0.000000 0.000000
# 4 0.000000 0.000000 0.000000 0.045231 0.000000 0.000000
# 5 0.000000 0.000000 0.000000 0.000000 0.056099 0.000000
# 6 0.000000 0.000000 0.000000 0.000000 0.000000 0.042064
#
#
# Mechanical properties :
#
#
# Convention : Reuss Voigt Hill
#
# Bulk Modulus (GPa) = 58.52889 59.07758 58.80324
# Shear Modulus (GPa) = 21.48341 22.50835 21.99588
#
# Velocity S-wave (km/s) = 3.49219 3.57452 3.53360
# Velocity P-wave (km/s) = 7.03458 7.11144 7.07312
#
# Compressibility (1/GPa) = 0.01708558
#
# Stress axis : x y z
#
# Youngs Moduli (GPa) = 50.78572 58.97301 72.88790
#
# Poissons Ratio (x) = 0.58307 0.32655
# Poissons Ratio (y) = 0.50212 0.16571
# Poissons Ratio (z) = 0.22753 0.13407
#
# Static dielectric constant tensor:
#      x y z
#    x 3.207500 0.000000 0.000000 
#    y 0.000000 3.232420 0.000000 
#    z 0.000000 0.000000 3.800450 
# 
# 
# High freq. dielectric constant tensor:
#      x y z
#    x 1.653500 0.000000 0.000000 
#    y 0.000000 1.675340 0.000000 
#    z 0.000000 0.000000 1.679390 
# 
# From -- ./inp_files/34912.got.cif
#   From: 2010.06.25/outbox.cif.g09.slc.cpg/sg71_18_cif.got.tgz:34912.got - 2010.06.28 04:59:45.
