data_PCOD8290160
_publ_section_title
;
Structure prediction by ZEFSAII (Michael W. Deem and Ramdas Pophale) SiO2 
 PCOD8290160
Probable space group: I M M M
;
_chemical_formula_sum "Si O2"
_cell_formula_units_Z 88
_cell_length_a 18.978397
_cell_length_b 8.519885
_cell_length_c 28.326979
_cell_angle_alpha 90.000000
_cell_angle_beta 90.000000
_cell_angle_gamma 90.000000
_cell_volume 4580.295742
_symmetry_space_group_name_H-M "I M M M"
_symmetry_group_IT_number 71
_symmetry_cell_setting 'orthorhombic'
loop_
_space_group_symop_operation_xyz
x,y,z
-x,-y,z
x,-y,-z
-x,y,-z
-x,-y,-z
x,y,-z
-x,y,z
x,-y,z
1/2+x,1/2+y,1/2+z
1/2-x,1/2-y,1/2+z
1/2+x,1/2-y,1/2-z
1/2-x,1/2+y,1/2-z
1/2-x,1/2-y,1/2-z
1/2+x,1/2+y,1/2-z
1/2-x,1/2+y,1/2+z
1/2+x,1/2-y,1/2+z
loop_
_atom_site_type_symbol
_atom_site_label
_atom_site_fract_x
_atom_site_fract_y
_atom_site_fract_z
Si Si1 0.000000 0.171249 0.553780
Si Si2 0.322567 0.184721 0.651125
Si Si3 0.580517 0.814052 0.732698
Si Si4 0.719409 0.184248 0.448328
Si Si5 0.829354 0.815532 0.317022
Si Si6 0.860409 0.318798 0.586735
O O1 0.065823 0.279851 0.564242
O O2 0.000000 0.128259 0.500000
O O3 0.000000 0.000000 0.580616
O O4 0.391937 0.235205 0.680342
O O5 0.323046 0.256075 0.597310
O O6 0.253047 0.236117 0.680876
O O7 0.320053 0.000000 0.644981
O O8 0.500000 0.755003 0.738456
O O9 0.633273 0.731732 0.768687
O O10 0.585279 0.000000 0.739776
O O11 0.696899 0.255894 0.500000
O O12 0.801507 0.215446 0.439223
O O13 0.707129 0.000000 0.450818
O O14 0.868613 0.723146 0.358335
O O15 0.837591 0.000000 0.324928
O O16 0.841258 0.500000 0.579827
#
# Coordination Sequence:
#
# PCOD8290160 Si02
#       6
#     8  16  16  16  16  16
#     4  11  23  37  51  67  95 137 177 211 252 301
#     4   8  16  32  52  75 101 134 172 210 256 308
#     4  10  20  33  51  75 105 136 169 213 265 314
#     4   9  17  32  54  76  99 130 170 211 252 303
#     4  10  20  35  54  73  98 134 176 215 253 305
#     4  11  22  34  50  73 102 131 167 213 259 305
#
# _framework density 19.212734000000001
#
# number of rings (size 3 to 8) (size 9 to 14) (size 15 to 20)
#    0.000    2.273    0.000    4.636    1.273    3.636 
#    0.000    3.636    0.000    0.545    0.000    3.818 
#    0.000    0.000    0.000    8.182    0.000    9.091 
#
# Total GULP energy -545197.552225 kJ/mol
# GULP energy per Si atom -12390.853460 kJ/mol
# Density = 1.916901 g / cm^3
# Si number density = 19.212734 Si / 1000 Ang^3
#
#
#
# Elastic Constant Matrix: (Units=GPa)
#
#
# Indices 1 2 3 4 5 6 
#
# 1 61.9557 8.9639 42.7894 0.0000 0.0000 0.0000
# 2 8.9639 36.7896 12.2112 0.0000 0.0000 0.0000
# 3 42.7894 12.2112 135.7825 0.0000 0.0000 0.0000
# 4 0.0000 0.0000 0.0000 16.9413 0.0000 0.0000
# 5 0.0000 0.0000 0.0000 0.0000 21.9344 0.0000
# 6 0.0000 0.0000 0.0000 0.0000 0.0000 14.9412
#
#
#
# Elastic Compliance Matrix: (Units=1/GPa)
#
#
# Indices 1 2 3 4 5 6 
#
# 1 0.020948 -0.003002 -0.006331 0.000000 0.000000 0.000000
# 2 -0.003002 0.028448 -0.001612 0.000000 0.000000 0.000000
# 3 -0.006331 -0.001612 0.009505 0.000000 0.000000 0.000000
# 4 0.000000 0.000000 0.000000 0.059027 0.000000 0.000000
# 5 0.000000 0.000000 0.000000 0.000000 0.045591 0.000000
# 6 0.000000 0.000000 0.000000 0.000000 0.000000 0.066929
#
#
# Mechanical properties :
#
#
# Convention : Reuss Voigt Hill
#
# Bulk Modulus (GPa) = 27.02055 40.27297 33.64676
# Shear Modulus (GPa) = 18.89102 22.13426 20.51264
#
# Velocity S-wave (km/s) = 3.13909 3.39789 3.27105
# Velocity P-wave (km/s) = 5.21852 6.03335 5.64067
#
# Compressibility (1/GPa) = 0.03700888
#
# Stress axis : x y z
#
# Youngs Moduli (GPa) = 47.73816 35.15149 105.20906
#
# Poissons Ratio (x) = 0.10554 0.66610
# Poissons Ratio (y) = 0.14333 0.16962
# Poissons Ratio (z) = 0.30224 0.05667
#
# Static dielectric constant tensor:
#      x y z
#    x 3.402880 0.000000 0.000000 
#    y 0.000000 3.288520 0.000000 
#    z 0.000000 0.000000 4.015720 
# 
# 
# High freq. dielectric constant tensor:
#      x y z
#    x 1.718250 0.000000 0.000000 
#    y 0.000000 1.726600 0.000000 
#    z 0.000000 0.000000 1.760550 
# 
# From -- ./inp_files/8775.got.cif
#   From: 2010.06.25/outbox.cif.g09.slc.cpg/sg71_5_cif.got.tgz:8775.got - 2010.06.28 04:59:45.
