data_PCOD8290203
_publ_section_title
;
Structure prediction by ZEFSAII (Michael W. Deem and Ramdas Pophale) SiO2 
 PCOD8290203
Probable space group: I M M M
;
_chemical_formula_sum "Si O2"
_cell_formula_units_Z 120
_cell_length_a 19.032106
_cell_length_b 17.041273
_cell_length_c 19.469117
_cell_angle_alpha 90.000000
_cell_angle_beta 90.000000
_cell_angle_gamma 90.000000
_cell_volume 6314.444301
_symmetry_space_group_name_H-M "I M M M"
_symmetry_group_IT_number 71
_symmetry_cell_setting 'orthorhombic'
loop_
_space_group_symop_operation_xyz
x,y,z
-x,-y,z
x,-y,-z
-x,y,-z
-x,-y,-z
x,y,-z
-x,y,z
x,-y,z
1/2+x,1/2+y,1/2+z
1/2-x,1/2-y,1/2+z
1/2+x,1/2-y,1/2-z
1/2-x,1/2+y,1/2-z
1/2-x,1/2-y,1/2-z
1/2+x,1/2+y,1/2-z
1/2-x,1/2+y,1/2+z
1/2+x,1/2-y,1/2+z
loop_
_atom_site_type_symbol
_atom_site_label
_atom_site_fract_x
_atom_site_fract_y
_atom_site_fract_z
Si Si1 0.805165 0.413362 0.864843
Si Si2 0.582935 0.500000 0.921499
Si Si3 0.578744 0.087362 0.105551
Si Si4 0.080866 0.796819 0.793293
Si Si5 0.176576 0.725211 0.575468
Si Si6 0.167064 0.248433 0.077294
Si Si7 0.921796 0.379670 0.761057
Si Si8 0.151249 0.866131 0.332657
O O1 0.798919 0.500000 0.900797
O O2 0.825852 0.343566 0.916821
O O3 0.865273 0.421480 0.808374
O O4 0.731911 0.392846 0.827465
O O5 0.500000 0.500000 0.924192
O O6 0.607703 0.424343 0.880131
O O7 0.612966 0.500000 0.000000
O O8 0.500000 0.116413 0.086572
O O9 0.635435 0.143744 0.071612
O O10 0.588093 0.084218 0.186802
O O11 0.591138 0.000000 0.076456
O O12 0.113091 0.791102 0.869726
O O13 0.090278 0.713349 0.756871
O O14 0.120264 0.860294 0.744700
O O15 0.000000 0.822338 0.800431
O O16 0.172998 0.765324 0.500000
O O17 0.257963 0.708699 0.593180
O O18 0.142694 0.781667 0.631681
O O19 0.140887 0.230324 0.000000
O O20 0.000000 0.397526 0.790007
#
# Coordination Sequence:
#
# PCOD8290203 Si02
#       8
#    16   8  16  16  16  16  16  16
#     4  10  20  33  54  86 117 155 189 233 291 340
#     4  11  24  40  58  84 122 158 190 240 297 354
#     4  10  20  33  51  77 110 146 182 227 273 328
#     4  10  20  35  60  84 109 147 191 245 293 337
#     4  10  21  36  55  78 110 151 186 227 282 343
#     4   9  21  38  57  83 114 151 193 239 290 348
#     4   9  18  33  53  80 113 147 186 228 277 337
#     4  11  21  37  58  85 116 149 196 239 284 351
#
# _framework density 19.004048000000001
#
# number of rings (size 3 to 8) (size 9 to 14) (size 15 to 20)
#    0.000    2.067    2.000    1.200    1.867    4.533 
#    0.000    0.667    0.000    0.000    0.000    3.733 
#    0.000    1.600    0.000    0.000    0.000    0.000 
#
# Total GULP energy -743801.291630 kJ/mol
# GULP energy per Si atom -12396.688194 kJ/mol
# Density = 1.896079 g / cm^3
# Si number density = 19.004048 Si / 1000 Ang^3
#
#
#
# Elastic Constant Matrix: (Units=GPa)
#
#
# Indices 1 2 3 4 5 6 
#
# 1 103.4899 38.0286 51.0362 0.0000 0.0000 0.0000
# 2 38.0286 67.7014 34.7267 0.0000 0.0000 0.0000
# 3 51.0362 34.7267 114.1547 0.0000 0.0000 0.0000
# 4 0.0000 0.0000 0.0000 7.8874 0.0000 0.0000
# 5 0.0000 0.0000 0.0000 0.0000 22.6049 0.0000
# 6 0.0000 0.0000 0.0000 0.0000 0.0000 20.2076
#
#
#
# Elastic Compliance Matrix: (Units=1/GPa)
#
#
# Indices 1 2 3 4 5 6 
#
# 1 0.013926 -0.005484 -0.004557 0.000000 0.000000 0.000000
# 2 -0.005484 0.019662 -0.003529 0.000000 0.000000 0.000000
# 3 -0.004557 -0.003529 0.011871 0.000000 0.000000 0.000000
# 4 0.000000 0.000000 0.000000 0.126785 0.000000 0.000000
# 5 0.000000 0.000000 0.000000 0.000000 0.044238 0.000000
# 6 0.000000 0.000000 0.000000 0.000000 0.000000 0.049486
#
#
# Mechanical properties :
#
#
# Convention : Reuss Voigt Hill
#
# Bulk Modulus (GPa) = 54.59641 59.21433 56.90537
# Shear Modulus (GPa) = 16.71034 20.91025 18.81030
#
# Velocity S-wave (km/s) = 2.96852 3.32068 3.14953
# Velocity P-wave (km/s) = 6.36716 6.77710 6.57532
#
# Compressibility (1/GPa) = 0.01831622
#
# Stress axis : x y z
#
# Youngs Moduli (GPa) = 71.81002 50.86021 84.23739
#
# Poissons Ratio (x) = 0.27894 0.38391
# Poissons Ratio (y) = 0.39384 0.29730
# Poissons Ratio (z) = 0.32727 0.17950
#
# Static dielectric constant tensor:
#      x y z
#    x 3.574450 0.000000 0.000000 
#    y 0.000000 3.379310 0.000000 
#    z 0.000000 0.000000 3.381330 
# 
# 
# High freq. dielectric constant tensor:
#      x y z
#    x 1.743280 0.000000 0.000000 
#    y 0.000000 1.725070 0.000000 
#    z 0.000000 0.000000 1.731480 
# 
# From -- ./inp_files/54329.got.cif
#   From: 2010.06.25/outbox.cif.g09.slc.cpg/sg71_28_cif.got.tgz:54329.got - 2010.06.28 04:59:45.
