data_PCOD8290647
_publ_section_title
;
Structure prediction by ZEFSAII (Michael W. Deem and Ramdas Pophale) SiO2 
 PCOD8290647
Probable space group: I M M M
;
_chemical_formula_sum "Si O2"
_cell_formula_units_Z 120
_cell_length_a 16.835304
_cell_length_b 22.834762
_cell_length_c 17.140714
_cell_angle_alpha 90.000000
_cell_angle_beta 90.000000
_cell_angle_gamma 90.000000
_cell_volume 6589.407426
_symmetry_space_group_name_H-M "I M M M"
_symmetry_group_IT_number 71
_symmetry_cell_setting 'orthorhombic'
loop_
_space_group_symop_operation_xyz
x,y,z
-x,-y,z
x,-y,-z
-x,y,-z
-x,-y,-z
x,y,-z
-x,y,z
x,-y,z
1/2+x,1/2+y,1/2+z
1/2-x,1/2-y,1/2+z
1/2+x,1/2-y,1/2-z
1/2-x,1/2+y,1/2-z
1/2-x,1/2-y,1/2-z
1/2+x,1/2+y,1/2-z
1/2-x,1/2+y,1/2+z
1/2+x,1/2-y,1/2+z
loop_
_atom_site_type_symbol
_atom_site_label
_atom_site_fract_x
_atom_site_fract_y
_atom_site_fract_z
Si Si1 0.663489 0.843239 0.304514
Si Si2 0.337267 0.625583 0.591646
Si Si3 0.752592 0.247362 0.907604
Si Si4 0.500000 0.431845 0.592312
Si Si5 0.592636 0.936120 0.585292
Si Si6 0.276749 0.062904 0.802433
Si Si7 0.088564 0.415099 0.413175
Si Si8 0.089350 0.290730 0.654699
O O1 0.707551 0.801025 0.363653
O O2 0.608164 0.886274 0.352575
O O3 0.727192 0.884444 0.259812
O O4 0.608921 0.807698 0.244024
O O5 0.330788 0.619969 0.500000
O O6 0.303099 0.689441 0.616990
O O7 0.425937 0.608603 0.620396
O O8 0.283636 0.575572 0.628319
O O9 0.660972 0.248878 0.878549
O O10 0.756268 0.257544 0.000000
O O11 0.500000 0.500000 0.625253
O O12 0.500000 0.437230 0.500000
O O13 0.629602 0.920604 0.500000
O O14 0.500000 0.941151 0.575506
O O15 0.625894 0.000000 0.613020
O O16 0.362126 0.055879 0.843877
O O17 0.256134 0.000000 0.763533
O O18 0.122408 0.428925 0.500000
O O19 0.089453 0.345545 0.402832
O O20 0.000000 0.440145 0.405803
O O21 0.000000 0.261760 0.652754
#
# Coordination Sequence:
#
# PCOD8290647 Si02
#       8
#    16  16  16   8  16  16  16  16
#     4  11  21  36  53  77 114 144 181 227 281 335
#     4  10  20  36  54  79 108 139 182 227 274 333
#     4  11  22  38  59  81 109 148 188 235 282 333
#     4   9  18  34  56  78 104 140 182 228 274 323
#     4   9  18  34  55  78 106 143 188 232 271 320
#     4  11  22  33  51  75 105 144 180 222 276 331
#     4   9  17  30  48  73 107 144 182 220 259 313
#     4  10  20  34  55  81 111 146 181 221 277 340
#
# _framework density 18.211046
#
# number of rings (size 3 to 8) (size 9 to 14) (size 15 to 20)
#    0.000    1.933    2.667    3.200    0.000    3.200 
#    2.400    0.667    0.000    0.000    0.000    0.000 
#    0.000    0.000    0.000    4.267    0.000    0.000 
#
# Total GULP energy -743311.282120 kJ/mol
# GULP energy per Si atom -12388.521369 kJ/mol
# Density = 1.816960 g / cm^3
# Si number density = 18.211046 Si / 1000 Ang^3
#
#
#
# Elastic Constant Matrix: (Units=GPa)
#
#
# Indices 1 2 3 4 5 6 
#
# 1 99.7339 47.4632 30.3409 0.0000 0.0000 0.0001
# 2 47.4632 83.4059 44.4456 0.0002 0.0000 -0.0005
# 3 30.3409 44.4456 83.7874 0.0003 0.0001 -0.0008
# 4 0.0000 0.0002 0.0003 8.4136 0.0001 -0.0008
# 5 0.0000 0.0000 0.0001 0.0001 20.2435 0.0000
# 6 0.0001 -0.0005 -0.0008 -0.0008 0.0000 159.4260
#
#
#
# Elastic Compliance Matrix: (Units=1/GPa)
#
#
# Indices 1 2 3 4 5 6 
#
# 1 0.013831 -0.007252 -0.001162 0.000000 0.000000 0.000000
# 2 -0.007252 0.020516 -0.008257 0.000000 0.000000 0.000000
# 3 -0.001162 -0.008257 0.016736 0.000000 0.000000 0.000000
# 4 0.000000 0.000000 0.000000 0.118855 0.000000 0.000001
# 5 0.000000 0.000000 0.000000 0.000000 0.049399 0.000000
# 6 0.000000 0.000000 0.000000 0.000001 0.000000 0.006273
#
#
# Mechanical properties :
#
#
# Convention : Reuss Voigt Hill
#
# Bulk Modulus (GPa) = 56.36321 56.82517 56.59419
# Shear Modulus (GPa) = 18.87756 47.26178 33.06967
#
# Velocity S-wave (km/s) = 3.22312 5.09986 4.26598
# Velocity P-wave (km/s) = 6.69840 8.12093 7.44373
#
# Compressibility (1/GPa) = 0.01774207
#
# Stress axis : x y z
#
# Youngs Moduli (GPa) = 72.30025 48.74178 59.75260
#
# Poissons Ratio (x) = 0.35346 0.06942
# Poissons Ratio (y) = 0.52430 0.49338
# Poissons Ratio (z) = 0.08400 0.40246
#
# Static dielectric constant tensor:
#      x y z
#    x 3.558870 0.000000 0.000000 
#    y 0.000000 3.355700 0.000000 
#    z 0.000000 0.000000 3.381120 
# 
# 
# High freq. dielectric constant tensor:
#      x y z
#    x 1.693840 0.000000 0.000000 
#    y 0.000000 1.693790 0.000000 
#    z 0.000000 0.000000 1.700310 
# 
# From -- ./inp_files/46490.got.cif
#   From: 2010.06.25/outbox.cif.g09.slc.cpg/sg71_24_cif.got.tgz:46490.got - 2010.06.28 04:59:45.
