data_PCOD8290663
_publ_section_title
;
Structure prediction by ZEFSAII (Michael W. Deem and Ramdas Pophale) SiO2 
 PCOD8290663
Probable space group: I M M M
;
_chemical_formula_sum "Si O2"
_cell_formula_units_Z 120
_cell_length_a 26.779800
_cell_length_b 19.443111
_cell_length_c 12.829705
_cell_angle_alpha 90.000000
_cell_angle_beta 90.000000
_cell_angle_gamma 90.000000
_cell_volume 6680.204464
_symmetry_space_group_name_H-M "I M M M"
_symmetry_group_IT_number 71
_symmetry_cell_setting 'orthorhombic'
loop_
_space_group_symop_operation_xyz
x,y,z
-x,-y,z
x,-y,-z
-x,y,-z
-x,-y,-z
x,y,-z
-x,y,z
x,-y,z
1/2+x,1/2+y,1/2+z
1/2-x,1/2-y,1/2+z
1/2+x,1/2-y,1/2-z
1/2-x,1/2+y,1/2-z
1/2-x,1/2-y,1/2-z
1/2+x,1/2+y,1/2-z
1/2-x,1/2+y,1/2+z
1/2+x,1/2-y,1/2+z
loop_
_atom_site_type_symbol
_atom_site_label
_atom_site_fract_x
_atom_site_fract_y
_atom_site_fract_z
Si Si1 0.941328 0.076767 0.500000
Si Si2 0.292649 0.695074 0.875912
Si Si3 0.282821 0.160252 0.781858
Si Si4 0.557206 0.198366 0.121253
Si Si5 0.100644 0.838262 0.688747
Si Si6 0.409421 0.577431 0.614581
Si Si7 0.367997 0.079268 0.120453
Si Si8 0.292373 0.573041 0.614455
O O1 0.924980 0.117491 0.600778
O O2 0.000000 0.071637 0.500000
O O3 0.917741 0.000000 0.500000
O O4 0.302997 0.773091 0.840737
O O5 0.236423 0.673120 0.837304
O O6 0.339212 0.652782 0.825465
O O7 0.294392 0.687787 0.000000
O O8 0.323878 0.100917 0.799163
O O9 0.229720 0.138439 0.828528
O O10 0.500000 0.192009 0.157944
O O11 0.585051 0.258459 0.184174
O O12 0.583464 0.125369 0.144602
O O13 0.560629 0.217572 0.000000
O O14 0.077344 0.867475 0.796628
O O15 0.431877 0.597411 0.500000
O O16 0.427486 0.500000 0.644770
O O17 0.350692 0.579732 0.605359
O O18 0.381852 0.000000 0.142360
O O19 0.350928 0.089545 0.000000
O O20 0.268327 0.571801 0.500000
O O21 0.278423 0.500000 0.670075
#
# Coordination Sequence:
#
# PCOD8290663 Si02
#       8
#     8  16  16  16  16  16  16  16
#     4  11  24  38  58  86 109 141 191 239 281 337
#     4  11  22  34  50  77 110 148 189 224 274 333
#     4  11  20  32  49  73 106 148 182 224 267 324
#     4  10  20  35  57  83 111 144 181 231 296 351
#     4  12  19  36  58  80 112 151 186 229 284 342
#     4   9  19  34  52  78 110 145 185 228 273 327
#     4  10  20  34  55  82 112 148 190 235 280 335
#     4   9  16  27  45  68  96 131 174 215 253 302
#
# _framework density 17.963522000000001
#
# number of rings (size 3 to 8) (size 9 to 14) (size 15 to 20)
#    0.000    1.667    4.000    3.200    0.000    1.333 
#    0.000    1.333    0.000    1.600    0.000    4.667 
#    0.000    0.000    0.000    2.400    0.000    0.267 
#
# Total GULP energy -743407.207297 kJ/mol
# GULP energy per Si atom -12390.120122 kJ/mol
# Density = 1.792264 g / cm^3
# Si number density = 17.963522 Si / 1000 Ang^3
#
#
#
# Elastic Constant Matrix: (Units=GPa)
#
#
# Indices 1 2 3 4 5 6 
#
# 1 71.7560 32.4863 25.0927 0.0000 0.0000 0.0000
# 2 32.4863 108.4056 44.8204 0.0000 0.0000 0.0000
# 3 25.0927 44.8204 91.7129 0.0000 0.0000 0.0000
# 4 0.0000 0.0000 0.0000 26.2239 0.0000 0.0000
# 5 0.0000 0.0000 0.0000 0.0000 3.3879 0.0000
# 6 0.0000 0.0000 0.0000 0.0000 0.0000 23.9563
#
#
#
# Elastic Compliance Matrix: (Units=1/GPa)
#
#
# Indices 1 2 3 4 5 6 
#
# 1 0.016622 -0.003886 -0.002649 0.000000 0.000000 0.000000
# 2 -0.003886 0.012469 -0.005030 0.000000 0.000000 0.000000
# 3 -0.002649 -0.005030 0.014087 0.000000 0.000000 0.000000
# 4 0.000000 0.000000 0.000000 0.038133 0.000000 0.000000
# 5 0.000000 0.000000 0.000000 0.000000 0.295172 0.000000
# 6 0.000000 0.000000 0.000000 0.000000 0.000000 0.041743
#
#
# Mechanical properties :
#
#
# Convention : Reuss Voigt Hill
#
# Bulk Modulus (GPa) = 49.88219 52.96369 51.42294
# Shear Modulus (GPa) = 11.15977 22.01195 16.58586
#
# Velocity S-wave (km/s) = 2.49519 3.50433 3.04189
# Velocity P-wave (km/s) = 6.01084 6.77656 6.40515
#
# Compressibility (1/GPa) = 0.02004723
#
# Stress axis : x y z
#
# Youngs Moduli (GPa) = 60.16251 80.19896 70.98928
#
# Poissons Ratio (x) = 0.31165 0.18802
# Poissons Ratio (y) = 0.23379 0.35711
# Poissons Ratio (z) = 0.15935 0.40344
#
# Static dielectric constant tensor:
#      x y z
#    x 3.248280 0.000000 0.000000 
#    y 0.000000 3.526490 0.000000 
#    z 0.000000 0.000000 3.915540 
# 
# 
# High freq. dielectric constant tensor:
#      x y z
#    x 1.688140 0.000000 0.000000 
#    y 0.000000 1.698730 0.000000 
#    z 0.000000 0.000000 1.670040 
# 
# From -- ./inp_files/29145.got.cif
#   From: 2010.06.25/outbox.cif.g09.slc.cpg/sg71_15_cif.got.tgz:29145.got - 2010.06.28 04:59:45.
