data_PCOD8290382
_publ_section_title
;
Structure prediction by ZEFSAII (Michael W. Deem and Ramdas Pophale) SiO2 
 PCOD8290382
Probable space group: I M M M
;
_chemical_formula_sum "Si O2"
_cell_formula_units_Z 80
_cell_length_a 9.106466
_cell_length_b 26.659196
_cell_length_c 18.800020
_cell_angle_alpha 90.000000
_cell_angle_beta 90.000000
_cell_angle_gamma 90.000000
_cell_volume 4564.100820
_symmetry_space_group_name_H-M "I M M M"
_symmetry_group_IT_number 71
_symmetry_cell_setting 'orthorhombic'
loop_
_space_group_symop_operation_xyz
x,y,z
-x,-y,z
x,-y,-z
-x,y,-z
-x,-y,-z
x,y,-z
-x,y,z
x,-y,z
1/2+x,1/2+y,1/2+z
1/2-x,1/2-y,1/2+z
1/2+x,1/2-y,1/2-z
1/2-x,1/2+y,1/2-z
1/2-x,1/2-y,1/2-z
1/2+x,1/2+y,1/2-z
1/2-x,1/2+y,1/2+z
1/2+x,1/2-y,1/2+z
loop_
_atom_site_type_symbol
_atom_site_label
_atom_site_fract_x
_atom_site_fract_y
_atom_site_fract_z
Si Si1 0.672516 0.157360 0.581086
Si Si2 0.325552 0.556505 0.422871
Si Si3 0.671201 0.399712 0.720794
Si Si4 0.672443 0.704850 0.210050
Si Si5 0.670610 0.944526 0.651645
O O1 0.716481 0.169263 0.500000
O O2 0.500000 0.165500 0.593796
O O3 0.759891 0.195786 0.631702
O O4 0.718100 0.099437 0.597014
O O5 0.267985 0.576227 0.500000
O O6 0.500000 0.557032 0.423430
O O7 0.268880 0.500000 0.410243
O O8 0.266897 0.591525 0.359025
O O9 0.500000 0.411505 0.725209
O O10 0.706906 0.342978 0.741327
O O11 0.747419 0.438458 0.773821
O O12 0.500000 0.715484 0.202033
O O13 0.750000 0.750000 0.250000
O O14 0.500000 0.939754 0.668268
O O15 0.707726 0.000000 0.619979
#
# Coordination Sequence:
#
# PCOD8290382 Si02
#       5
#    16  16  16  16  16
#     4   9  18  33  52  73  98 128 161 197 238 285
#     4   8  13  22  39  64  91 116 143 179 222 265
#     4   9  17  29  46  67  90 119 157 197 234 278
#     4  10  20  34  52  72  94 122 158 200 246 292
#     4   9  17  28  44  69  99 129 159 191 231 280
#
# _framework density 17.528096000000001
#
# number of rings (size 3 to 8) (size 9 to 14) (size 15 to 20)
#    0.000    3.000    0.000    1.800    0.000    2.800 
#    0.000    3.000    0.000    4.200    0.000    8.400 
#    0.000    0.000    0.000    0.000    0.000    0.000 
#
# Total GULP energy -495766.689816 kJ/mol
# GULP energy per Si atom -12394.167245 kJ/mol
# Density = 1.748820 g / cm^3
# Si number density = 17.528096 Si / 1000 Ang^3
#
#
#
# Elastic Constant Matrix: (Units=GPa)
#
#
# Indices 1 2 3 4 5 6 
#
# 1 43.9761 38.9999 42.7983 0.0000 0.0000 0.0000
# 2 38.9999 90.0244 60.4908 0.0000 0.0000 0.0000
# 3 42.7983 60.4908 156.9114 0.0002 -0.0001 0.0000
# 4 0.0000 0.0000 0.0002 22.0475 0.0000 0.0000
# 5 0.0000 0.0000 -0.0001 0.0000 24.4692 0.0000
# 6 0.0000 0.0000 0.0000 0.0000 0.0000 21.5108
#
#
#
# Elastic Compliance Matrix: (Units=1/GPa)
#
#
# Indices 1 2 3 4 5 6 
#
# 1 0.040465 -0.013650 -0.005775 0.000000 0.000000 0.000000
# 2 -0.013650 0.019596 -0.003831 0.000000 0.000000 0.000000
# 3 -0.005775 -0.003831 0.009425 0.000000 0.000000 0.000000
# 4 0.000000 0.000000 0.000000 0.045357 0.000000 0.000000
# 5 0.000000 0.000000 0.000000 0.000000 0.040868 0.000000
# 6 0.000000 0.000000 0.000000 0.000000 0.000000 0.046488
#
#
# Mechanical properties :
#
#
# Convention : Reuss Voigt Hill
#
# Bulk Modulus (GPa) = 43.52729 63.94330 53.73529
# Shear Modulus (GPa) = 19.50320 23.51370 21.50845
#
# Velocity S-wave (km/s) = 3.33931 3.66660 3.50678
# Velocity P-wave (km/s) = 6.30514 7.38139 6.86439
#
# Compressibility (1/GPa) = 0.02297410
#
# Stress axis : x y z
#
# Youngs Moduli (GPa) = 24.71273 51.03151 106.09868
#
# Poissons Ratio (x) = 0.69656 0.61271
# Poissons Ratio (y) = 0.33732 0.40650
# Poissons Ratio (z) = 0.14271 0.19552
#
# Static dielectric constant tensor:
#      x y z
#    x 3.068430 0.000000 0.000000 
#    y 0.000000 3.234800 0.000000 
#    z 0.000000 0.000000 3.656950 
# 
# 
# High freq. dielectric constant tensor:
#      x y z
#    x 1.654630 0.000000 0.000000 
#    y 0.000000 1.665010 0.000000 
#    z 0.000000 0.000000 1.681430 
# 
# From -- ./inp_files/8336.got.cif
#   From: 2010.06.25/outbox.cif.g09.slc.cpg/sg71_5_cif.got.tgz:8336.got - 2010.06.28 04:59:45.
