data_PCOD8290194
_publ_section_title
;
Structure prediction by ZEFSAII (Michael W. Deem and Ramdas Pophale) SiO2 
 PCOD8290194
Probable space group: I M M M
;
_chemical_formula_sum "Si O2"
_cell_formula_units_Z 80
_cell_length_a 18.474546
_cell_length_b 25.943855
_cell_length_c 8.681545
_cell_angle_alpha 90.000000
_cell_angle_beta 90.000000
_cell_angle_gamma 90.000000
_cell_volume 4161.072702
_symmetry_space_group_name_H-M "I M M M"
_symmetry_group_IT_number 71
_symmetry_cell_setting 'orthorhombic'
loop_
_space_group_symop_operation_xyz
x,y,z
-x,-y,z
x,-y,-z
-x,y,-z
-x,-y,-z
x,y,-z
-x,y,z
x,-y,z
1/2+x,1/2+y,1/2+z
1/2-x,1/2-y,1/2+z
1/2+x,1/2-y,1/2-z
1/2-x,1/2+y,1/2-z
1/2-x,1/2-y,1/2-z
1/2+x,1/2+y,1/2-z
1/2-x,1/2+y,1/2+z
1/2+x,1/2-y,1/2+z
loop_
_atom_site_type_symbol
_atom_site_label
_atom_site_fract_x
_atom_site_fract_y
_atom_site_fract_z
Si Si1 0.672569 0.057130 0.816867
Si Si2 0.165100 0.943387 0.182868
Si Si3 0.081491 0.652244 0.316243
Si Si4 0.829453 0.249644 0.318267
Si Si5 0.416602 0.343701 0.318334
O O1 0.753806 0.068899 0.757300
O O2 0.618378 0.100201 0.749919
O O3 0.647976 0.000000 0.761496
O O4 0.671686 0.059399 0.000000
O O5 0.110141 0.899629 0.241296
O O6 0.140322 0.000000 0.243680
O O7 0.165762 0.944272 0.000000
O O8 0.080717 0.651662 0.500000
O O9 0.126328 0.701180 0.254598
O O10 0.000000 0.655524 0.251120
O O11 0.823038 0.252286 0.500000
O O12 0.750000 0.250000 0.250000
O O13 0.871022 0.198575 0.270256
O O14 0.403875 0.337425 0.500000
O O15 0.500000 0.337607 0.273145
#
# Coordination Sequence:
#
# PCOD8290194 Si02
#       5
#    16  16  16  16  16
#     4   8  13  22  38  61  91 126 160 195 237 286
#     4   8  14  26  45  70 101 136 172 209 249 294
#     4   9  17  28  43  66  96 127 157 192 240 299
#     4  11  22  36  54  73  97 132 173 214 258 309
#     4  10  20  33  51  77 107 136 169 211 257 307
#
# _framework density 19.225811
#
# number of rings (size 3 to 8) (size 9 to 14) (size 15 to 20)
#    0.000    2.800    0.000    3.600    0.000    5.200 
#    0.000    4.000    0.000    0.600    0.000    1.400 
#    0.000    2.400    0.000   16.200    0.000   15.200 
#
# Total GULP energy -495841.351485 kJ/mol
# GULP energy per Si atom -12396.033787 kJ/mol
# Density = 1.918205 g / cm^3
# Si number density = 19.225811 Si / 1000 Ang^3
#
#
#
# Elastic Constant Matrix: (Units=GPa)
#
#
# Indices 1 2 3 4 5 6 
#
# 1 154.4962 91.5664 25.0858 0.0000 0.0000 0.0000
# 2 91.5664 167.1835 22.3618 0.0000 0.0000 0.0000
# 3 25.0858 22.3618 20.3741 0.0000 0.0000 0.0000
# 4 0.0000 0.0000 0.0000 19.9841 0.0000 0.0000
# 5 0.0000 0.0000 0.0000 0.0000 18.7302 0.0000
# 6 0.0000 0.0000 0.0000 0.0000 0.0000 32.5990
#
#
#
# Elastic Compliance Matrix: (Units=1/GPa)
#
#
# Indices 1 2 3 4 5 6 
#
# 1 0.010541 -0.004732 -0.007785 0.000000 0.000000 0.000000
# 2 -0.004732 0.009135 -0.004200 0.000000 0.000000 0.000000
# 3 -0.007785 -0.004200 0.063277 0.000000 0.000000 0.000000
# 4 0.000000 0.000000 0.000000 0.050040 0.000000 0.000000
# 5 0.000000 0.000000 0.000000 0.000000 0.053390 0.000000
# 6 0.000000 0.000000 0.000000 0.000000 0.000000 0.030676
#
#
# Mechanical properties :
#
#
# Convention : Reuss Voigt Hill
#
# Bulk Modulus (GPa) = 20.19424 68.89797 44.54611
# Shear Modulus (GPa) = 18.72662 27.79864 23.26263
#
# Velocity S-wave (km/s) = 3.12434 3.80663 3.48223
# Velocity P-wave (km/s) = 4.85199 7.43199 6.27600
#
# Compressibility (1/GPa) = 0.04951906
#
# Stress axis : x y z
#
# Youngs Moduli (GPa) = 94.86364 109.46897 15.80352
#
# Poissons Ratio (x) = 0.51803 0.12304
# Poissons Ratio (y) = 0.44891 0.06637
# Poissons Ratio (z) = 0.73855 0.45973
#
# Static dielectric constant tensor:
#      x y z
#    x 3.768380 0.000000 0.000000 
#    y 0.000000 3.947760 0.000000 
#    z 0.000000 0.000000 2.912240 
# 
# 
# High freq. dielectric constant tensor:
#      x y z
#    x 1.754790 0.000000 0.000000 
#    y 0.000000 1.769270 0.000000 
#    z 0.000000 0.000000 1.679970 
# 
# From -- ./inp_files/8302.got.cif
#   From: 2010.06.25/outbox.cif.g09.slc.cpg/sg71_5_cif.got.tgz:8302.got - 2010.06.28 04:59:45.
