data_PCOD8290688
_publ_section_title
;
Structure prediction by ZEFSAII (Michael W. Deem and Ramdas Pophale) SiO2 
 PCOD8290688
Probable space group: I M M M
;
_chemical_formula_sum "Si O2"
_cell_formula_units_Z 104
_cell_length_a 28.626845
_cell_length_b 8.243870
_cell_length_c 22.256371
_cell_angle_alpha 90.000000
_cell_angle_beta 90.000000
_cell_angle_gamma 90.000000
_cell_volume 5252.414279
_symmetry_space_group_name_H-M "I M M M"
_symmetry_group_IT_number 71
_symmetry_cell_setting 'orthorhombic'
loop_
_space_group_symop_operation_xyz
x,y,z
-x,-y,z
x,-y,-z
-x,y,-z
-x,-y,-z
x,y,-z
-x,y,z
x,-y,z
1/2+x,1/2+y,1/2+z
1/2-x,1/2-y,1/2+z
1/2+x,1/2-y,1/2-z
1/2-x,1/2+y,1/2-z
1/2-x,1/2-y,1/2-z
1/2+x,1/2+y,1/2-z
1/2-x,1/2+y,1/2+z
1/2+x,1/2-y,1/2+z
loop_
_atom_site_type_symbol
_atom_site_label
_atom_site_fract_x
_atom_site_fract_y
_atom_site_fract_z
Si Si1 0.218745 0.813879 0.932098
Si Si2 0.098615 0.176593 0.569751
Si Si3 0.803046 0.811097 0.747015
Si Si4 0.553378 0.000000 0.070847
Si Si5 0.640575 0.814663 0.640567
Si Si6 0.184582 0.686013 0.622526
Si Si7 0.947487 0.307206 0.067815
O O1 0.175574 0.698642 0.915876
O O2 0.261604 0.769748 0.888672
O O3 0.203534 0.000000 0.922197
O O4 0.234483 0.781418 0.000000
O O5 0.086566 0.173512 0.500000
O O6 0.073593 0.333387 0.600090
O O7 0.153696 0.199218 0.580085
O O8 0.082939 0.000000 0.596771
O O9 0.750000 0.750000 0.750000
O O10 0.835751 0.783774 0.805037
O O11 0.827794 0.718862 0.691911
O O12 0.801274 0.000000 0.733360
O O13 0.500000 0.000000 0.087130
O O14 0.563866 0.000000 0.000000
O O15 0.590546 0.743024 0.616933
O O16 0.634883 0.000000 0.660790
O O17 0.174180 0.500000 0.605241
O O18 0.944297 0.500000 0.066386
O O19 0.000000 0.252114 0.087047
O O20 0.936780 0.241954 0.000000
#
# Coordination Sequence:
#
# PCOD8290688 Si02
#       7
#    16  16  16   8  16  16  16
#     4  10  21  34  51  77 111 150 184 224 280 336
#     4  10  20  34  55  85 117 150 190 236 289 348
#     4  12  24  39  56  78 108 147 193 237 283 340
#     4   9  18  34  56  82 114 150 186 230 282 340
#     4  11  21  34  55  82 111 147 190 236 283 337
#     4  11  21  36  57  79 109 149 191 235 287 344
#     4   8  15  30  54  85 118 149 185 233 287 341
#
# _framework density 19.800418000000001
#
# number of rings (size 3 to 8) (size 9 to 14) (size 15 to 20)
#    0.000    1.769    2.308    3.692    0.000    2.462 
#    0.000    1.538    0.000    2.769    0.000    5.385 
#    0.000    0.000    0.000    0.000    0.000    0.000 
#
# Total GULP energy -644457.580536 kJ/mol
# GULP energy per Si atom -12393.415010 kJ/mol
# Density = 1.975535 g / cm^3
# Si number density = 19.800418 Si / 1000 Ang^3
#
#
#
# Elastic Constant Matrix: (Units=GPa)
#
#
# Indices 1 2 3 4 5 6 
#
# 1 112.5901 43.9217 35.3144 0.0000 0.0000 0.0000
# 2 43.9217 102.1335 10.0211 0.0000 0.0000 0.0000
# 3 35.3144 10.0211 72.0786 0.0000 0.0000 0.0000
# 4 0.0000 0.0000 0.0000 24.2100 0.0000 0.0000
# 5 0.0000 0.0000 0.0000 0.0000 26.3287 0.0000
# 6 0.0000 0.0000 0.0000 0.0000 0.0000 20.4799
#
#
#
# Elastic Compliance Matrix: (Units=1/GPa)
#
#
# Indices 1 2 3 4 5 6 
#
# 1 0.012472 -0.004830 -0.005439 0.000000 0.000000 0.000000
# 2 -0.004830 0.011797 0.000726 0.000000 0.000000 0.000000
# 3 -0.005439 0.000726 0.016438 0.000000 0.000000 0.000000
# 4 0.000000 0.000000 0.000000 0.041305 0.000000 0.000000
# 5 0.000000 0.000000 0.000000 0.000000 0.037981 0.000000
# 6 0.000000 0.000000 0.000000 0.000000 0.000000 0.048828
#
#
# Mechanical properties :
#
#
# Convention : Reuss Voigt Hill
#
# Bulk Modulus (GPa) = 46.25106 51.70184 48.97645
# Shear Modulus (GPa) = 25.62610 27.37338 26.49974
#
# Velocity S-wave (km/s) = 3.60143 3.72218 3.66231
# Velocity P-wave (km/s) = 6.37990 6.68140 6.53239
#
# Compressibility (1/GPa) = 0.02162112
#
# Stress axis : x y z
#
# Youngs Moduli (GPa) = 80.18054 84.76840 60.83616
#
# Poissons Ratio (x) = 0.40941 0.33089
# Poissons Ratio (y) = 0.38725 -0.04418
# Poissons Ratio (z) = 0.43610 -0.06156
#
# Static dielectric constant tensor:
#      x y z
#    x 3.646870 0.000000 0.000000 
#    y 0.000000 3.953380 0.000000 
#    z 0.000000 0.000000 3.440470 
# 
# 
# High freq. dielectric constant tensor:
#      x y z
#    x 1.761550 0.000000 0.000000 
#    y 0.000000 1.770450 0.000000 
#    z 0.000000 0.000000 1.747450 
# 
# From -- ./inp_files/61964.got.cif
#   From: 2010.06.25/outbox.cif.g09.slc.cpg/sg71_31_cif.got.tgz:61964.got - 2010.06.28 04:59:45.
