data_PCOD8290318
_publ_section_title
;
Structure prediction by ZEFSAII (Michael W. Deem and Ramdas Pophale) SiO2 
 PCOD8290318
Probable space group: I M M M
;
_chemical_formula_sum "Si O2"
_cell_formula_units_Z 112
_cell_length_a 16.027063
_cell_length_b 24.619084
_cell_length_c 13.980347
_cell_angle_alpha 90.000000
_cell_angle_beta 90.000000
_cell_angle_gamma 90.000000
_cell_volume 5516.248028
_symmetry_space_group_name_H-M "I M M M"
_symmetry_group_IT_number 71
_symmetry_cell_setting 'orthorhombic'
loop_
_space_group_symop_operation_xyz
x,y,z
-x,-y,z
x,-y,-z
-x,y,-z
-x,-y,-z
x,y,-z
-x,y,z
x,-y,z
1/2+x,1/2+y,1/2+z
1/2-x,1/2-y,1/2+z
1/2+x,1/2-y,1/2-z
1/2-x,1/2+y,1/2-z
1/2-x,1/2-y,1/2-z
1/2+x,1/2+y,1/2-z
1/2-x,1/2+y,1/2+z
1/2+x,1/2-y,1/2+z
loop_
_atom_site_type_symbol
_atom_site_label
_atom_site_fract_x
_atom_site_fract_y
_atom_site_fract_z
Si Si1 0.823299 0.726226 0.390336
Si Si2 0.808259 0.560631 0.893830
Si Si3 0.591623 0.373541 0.390198
Si Si4 0.652489 0.725617 0.298919
Si Si5 0.905578 0.614199 0.391286
Si Si6 0.243730 0.061429 0.802469
Si Si7 0.093694 0.667909 0.890189
O O1 0.812697 0.747690 0.500000
O O2 0.737325 0.702213 0.346595
O O3 0.848611 0.775335 0.317667
O O4 0.891951 0.678976 0.386832
O O5 0.849147 0.500000 0.887028
O O6 0.736749 0.565639 0.813112
O O7 0.877168 0.606381 0.873371
O O8 0.769038 0.569208 0.000000
O O9 0.615156 0.363971 0.500000
O O10 0.500000 0.401364 0.380298
O O11 0.582472 0.314846 0.338351
O O12 0.663561 0.409144 0.344117
O O13 0.645405 0.788590 0.329561
O O14 0.896877 0.593883 0.500000
O O15 0.834646 0.584129 0.330854
O O16 0.000000 0.601951 0.353498
O O17 0.238905 0.000000 0.839241
O O18 0.000000 0.670721 0.852589
O O19 0.101214 0.685129 0.000000
#
# Coordination Sequence:
#
# PCOD8290318 Si02
#       7
#    16  16  16  16  16  16  16
#     4  10  21  36  56  83 118 160 198 235 287 350
#     4   9  20  38  58  82 116 158 198 237 289 351
#     4  11  24  42  64  89 118 152 193 245 305 360
#     4  11  21  35  58  86 117 155 198 244 295 350
#     4  10  21  38  60  87 122 160 195 236 292 355
#     4  11  23  40  63  89 117 153 198 247 299 354
#     4  10  20  33  54  86 119 153 199 249 293 344
#
# _framework density 20.303656
#
# number of rings (size 3 to 8) (size 9 to 14) (size 15 to 20)
#    0.000    1.714    1.429    3.000    2.000    6.000 
#    0.000    4.286    0.000    1.286    0.000    2.000 
#    0.000    0.000    0.000    0.000    0.000    0.000 
#
# Total GULP energy -693955.575194 kJ/mol
# GULP energy per Si atom -12392.063843 kJ/mol
# Density = 2.025744 g / cm^3
# Si number density = 20.303656 Si / 1000 Ang^3
#
#
#
# Elastic Constant Matrix: (Units=GPa)
#
#
# Indices 1 2 3 4 5 6 
#
# 1 115.8989 51.4746 57.2494 0.0000 0.0000 0.0000
# 2 51.4746 93.7329 55.0977 0.0000 0.0000 0.0000
# 3 57.2494 55.0977 146.3256 0.0000 0.0000 0.0000
# 4 0.0000 0.0000 0.0000 28.1659 0.0000 0.0000
# 5 0.0000 0.0000 0.0000 0.0000 19.0071 0.0000
# 6 0.0000 0.0000 0.0000 0.0000 0.0000 14.2507
#
#
#
# Elastic Compliance Matrix: (Units=1/GPa)
#
#
# Indices 1 2 3 4 5 6 
#
# 1 0.012310 -0.005046 -0.002916 0.000000 0.000000 0.000000
# 2 -0.005046 0.015770 -0.003964 0.000000 0.000000 0.000000
# 3 -0.002916 -0.003964 0.009468 0.000000 0.000000 0.000000
# 4 0.000000 0.000000 0.000000 0.035504 0.000000 0.000000
# 5 0.000000 0.000000 0.000000 0.000000 0.052612 0.000000
# 6 0.000000 0.000000 0.000000 0.000000 0.000000 0.070172
#
#
# Mechanical properties :
#
#
# Convention : Reuss Voigt Hill
#
# Bulk Modulus (GPa) = 73.01775 75.95565 74.48670
# Shear Modulus (GPa) = 22.29645 25.09380 23.69512
#
# Velocity S-wave (km/s) = 3.31743 3.51939 3.41990
# Velocity P-wave (km/s) = 7.12143 7.34887 7.23604
#
# Compressibility (1/GPa) = 0.01369530
#
# Stress axis : x y z
#
# Youngs Moduli (GPa) = 81.23669 63.41335 105.62433
#
# Poissons Ratio (x) = 0.31998 0.30802
# Poissons Ratio (y) = 0.40991 0.41866
# Poissons Ratio (z) = 0.23690 0.25135
#
# Static dielectric constant tensor:
#      x y z
#    x 3.507500 0.000000 0.000000 
#    y 0.000000 3.626950 0.000000 
#    z 0.000000 0.000000 4.076320 
# 
# 
# High freq. dielectric constant tensor:
#      x y z
#    x 1.773200 0.000000 0.000000 
#    y 0.000000 1.781100 0.000000 
#    z 0.000000 0.000000 1.812530 
# 
# From -- ./inp_files/34897.got.cif
#   From: 2010.06.25/outbox.cif.g09.slc.cpg/sg71_18_cif.got.tgz:34897.got - 2010.06.28 04:59:45.
