data_PCOD8290552
_publ_section_title
;
Structure prediction by ZEFSAII (Michael W. Deem and Ramdas Pophale) SiO2 
 PCOD8290552
Probable space group: I M M M
;
_chemical_formula_sum "Si O2"
_cell_formula_units_Z 92
_cell_length_a 7.750701
_cell_length_b 27.634496
_cell_length_c 23.018685
_cell_angle_alpha 90.000000
_cell_angle_beta 90.000000
_cell_angle_gamma 90.000000
_cell_volume 4930.296542
_symmetry_space_group_name_H-M "I M M M"
_symmetry_group_IT_number 71
_symmetry_cell_setting 'orthorhombic'
loop_
_space_group_symop_operation_xyz
x,y,z
-x,-y,z
x,-y,-z
-x,y,-z
-x,-y,-z
x,y,-z
-x,y,z
x,-y,z
1/2+x,1/2+y,1/2+z
1/2-x,1/2-y,1/2+z
1/2+x,1/2-y,1/2-z
1/2-x,1/2+y,1/2-z
1/2-x,1/2-y,1/2-z
1/2+x,1/2+y,1/2-z
1/2-x,1/2+y,1/2+z
1/2+x,1/2-y,1/2+z
loop_
_atom_site_type_symbol
_atom_site_label
_atom_site_fract_x
_atom_site_fract_y
_atom_site_fract_z
Si Si1 0.699584 0.732926 0.932628
Si Si2 0.694203 0.357727 0.141536
Si Si3 0.297918 0.945428 0.566533
Si Si4 0.690529 0.000000 0.766459
Si Si5 0.500000 0.694555 0.567640
Si Si6 0.691762 0.104877 0.757546
Si Si7 0.500000 0.606087 0.652172
Si Si8 0.500000 0.500000 0.647975
O O1 0.500000 0.746831 0.918863
O O2 0.765682 0.686318 0.897046
O O3 0.825940 0.776649 0.915334
O O4 0.721610 0.719526 0.000000
O O5 0.500000 0.346618 0.158884
O O6 0.698585 0.407579 0.106232
O O7 0.794603 0.359696 0.202544
O O8 0.242175 0.937229 0.500000
O O9 0.500000 0.936604 0.574167
O O10 0.249076 0.000000 0.585751
O O11 0.715296 0.050041 0.730825
O O12 0.825283 0.000000 0.817238
O O13 0.500000 0.000000 0.794842
O O14 0.500000 0.681907 0.500000
O O15 0.500000 0.644698 0.601637
O O16 0.500000 0.111656 0.784528
O O17 0.831713 0.114064 0.807583
O O18 0.500000 0.553444 0.618159
#
# Coordination Sequence:
#
# PCOD8290552 Si02
#       8
#    16  16  16   8   8  16   8   4
#     4   9  20  38  58  81 108 143 192 240 282 328
#     4  11  21  33  51  75 108 143 196 245 285 334
#     4   9  19  33  46  67 102 145 194 247 300 342
#     4   8  16  30  48  73 102 148 193 219 252 313
#     4  10  22  40  67  90 109 141 180 225 279 336
#     4  10  20  34  54  78 114 152 188 227 275 324
#     4  10  20  40  59  90 119 142 184 218 261 343
#     4   8  16  32  59  80 116 148 163 210 260 310
#
# _framework density 18.660133999999999
#
# number of rings (size 3 to 8) (size 9 to 14) (size 15 to 20)
#    0.000    2.435    0.870    1.565    3.652    2.087 
#    0.000    1.957    0.000    0.000    0.000    0.000 
#    0.000    9.739    0.000    0.000    0.000    0.000 
#
# Total GULP energy -569942.258979 kJ/mol
# GULP energy per Si atom -12390.049108 kJ/mol
# Density = 1.861766 g / cm^3
# Si number density = 18.660134 Si / 1000 Ang^3
#
#
#
# Elastic Constant Matrix: (Units=GPa)
#
#
# Indices 1 2 3 4 5 6 
#
# 1 99.1507 47.1637 33.9111 0.0000 0.0000 0.0000
# 2 47.1637 132.1405 61.0107 0.0000 0.0000 0.0000
# 3 33.9111 61.0107 59.1313 0.0000 0.0000 0.0000
# 4 0.0000 0.0000 0.0000 33.6031 0.0000 0.0000
# 5 0.0000 0.0000 0.0000 0.0000 16.9065 0.0000
# 6 0.0000 0.0000 0.0000 0.0000 0.0000 22.6232
#
#
#
# Elastic Compliance Matrix: (Units=1/GPa)
#
#
# Indices 1 2 3 4 5 6 
#
# 1 0.012893 -0.002269 -0.005053 0.000000 0.000000 0.000000
# 2 -0.002269 0.014852 -0.014023 0.000000 0.000000 0.000000
# 3 -0.005053 -0.014023 0.034278 0.000000 0.000000 0.000000
# 4 0.000000 0.000000 0.000000 0.029759 0.000000 0.000000
# 5 0.000000 0.000000 0.000000 0.000000 0.059149 0.000000
# 6 0.000000 0.000000 0.000000 0.000000 0.000000 0.044203
#
#
# Mechanical properties :
#
#
# Convention : Reuss Voigt Hill
#
# Bulk Modulus (GPa) = 51.72386 63.84372 57.78379
# Shear Modulus (GPa) = 20.46929 24.51568 22.49248
#
# Velocity S-wave (km/s) = 3.31562 3.62857 3.47562
# Velocity P-wave (km/s) = 6.51436 7.20025 6.86587
#
# Compressibility (1/GPa) = 0.01933344
#
# Stress axis : x y z
#
# Youngs Moduli (GPa) = 77.56076 67.33092 29.17305
#
# Poissons Ratio (x) = 0.15275 0.14742
# Poissons Ratio (y) = 0.17596 0.40909
# Poissons Ratio (z) = 0.39194 0.94418
#
# Static dielectric constant tensor:
#      x y z
#    x 3.588160 0.000000 0.000000 
#    y 0.000000 3.532910 0.000000 
#    z 0.000000 0.000000 2.982620 
# 
# 
# High freq. dielectric constant tensor:
#      x y z
#    x 1.740280 0.000000 0.000000 
#    y 0.000000 1.715950 0.000000 
#    z 0.000000 0.000000 1.681830 
# 
# From -- ./inp_files/50868.got.cif
#   From: 2010.06.25/outbox.cif.g09.slc.cpg/sg71_26_cif.got.tgz:50868.got - 2010.06.28 04:59:45.
