data_PCOD8290639
_publ_section_title
;
Structure prediction by ZEFSAII (Michael W. Deem and Ramdas Pophale) SiO2 
 PCOD8290639
Probable space group: I M M M
;
_chemical_formula_sum "Si O2"
_cell_formula_units_Z 80
_cell_length_a 9.448959
_cell_length_b 23.106039
_cell_length_c 19.532802
_cell_angle_alpha 90.000000
_cell_angle_beta 90.000000
_cell_angle_gamma 90.000000
_cell_volume 4264.557891
_symmetry_space_group_name_H-M "I M M M"
_symmetry_group_IT_number 71
_symmetry_cell_setting 'orthorhombic'
loop_
_space_group_symop_operation_xyz
x,y,z
-x,-y,z
x,-y,-z
-x,y,-z
-x,-y,-z
x,y,-z
-x,y,z
x,-y,z
1/2+x,1/2+y,1/2+z
1/2-x,1/2-y,1/2+z
1/2+x,1/2-y,1/2-z
1/2-x,1/2+y,1/2-z
1/2-x,1/2-y,1/2-z
1/2+x,1/2+y,1/2-z
1/2-x,1/2+y,1/2+z
1/2+x,1/2-y,1/2+z
loop_
_atom_site_type_symbol
_atom_site_label
_atom_site_fract_x
_atom_site_fract_y
_atom_site_fract_z
Si Si1 0.166093 0.339322 0.923675
Si Si2 0.653855 0.067251 0.074437
Si Si3 0.660841 0.613144 0.689478
Si Si4 0.665873 0.933092 0.315635
Si Si5 0.160938 0.755106 0.182127
O O1 0.199869 0.400744 0.887163
O O2 0.225135 0.285683 0.878005
O O3 0.000000 0.330950 0.931610
O O4 0.235327 0.338946 0.000000
O O5 0.500000 0.092784 0.098471
O O6 0.777677 0.075999 0.128205
O O7 0.635158 0.000000 0.065653
O O8 0.694326 0.094084 0.000000
O O9 0.500000 0.594471 0.704719
O O10 0.750589 0.601808 0.757639
O O11 0.668895 0.678243 0.660963
O O12 0.500000 0.929634 0.297970
O O13 0.715265 0.000000 0.320799
O O14 0.250000 0.750000 0.250000
O O15 0.000000 0.735628 0.197853
#
# Coordination Sequence:
#
# PCOD8290639 Si02
#       5
#    16  16  16  16  16
#     4   9  18  34  56  81 108 138 175 224 275 318
#     4   9  19  36  55  75 104 144 186 225 267 317
#     4  11  22  33  52  82 111 142 180 222 270 325
#     4  10  20  34  55  81 107 142 185 225 268 322
#     4  10  20  35  56  79 105 141 178 216 264 320
#
# _framework density 18.759271999999999
#
# number of rings (size 3 to 8) (size 9 to 14) (size 15 to 20)
#    0.000    2.200    2.000    1.800    0.000    5.600 
#    0.000    5.000    0.000    2.400    0.000    1.400 
#    0.000    0.000    0.000    0.000    0.000    0.000 
#
# Total GULP energy -495729.613089 kJ/mol
# GULP energy per Si atom -12393.240327 kJ/mol
# Density = 1.871657 g / cm^3
# Si number density = 18.759272 Si / 1000 Ang^3
#
#
#
# Elastic Constant Matrix: (Units=GPa)
#
#
# Indices 1 2 3 4 5 6 
#
# 1 61.3441 24.2368 44.8173 0.0000 0.0000 0.0000
# 2 24.2368 94.4380 47.9165 0.0000 0.0000 0.0000
# 3 44.8173 47.9165 147.7645 0.0000 0.0000 0.0000
# 4 0.0000 0.0000 0.0000 30.1251 0.0000 0.0000
# 5 0.0000 0.0000 0.0000 0.0000 15.7390 0.0000
# 6 0.0000 0.0000 0.0000 0.0000 0.0000 21.8074
#
#
#
# Elastic Compliance Matrix: (Units=1/GPa)
#
#
# Indices 1 2 3 4 5 6 
#
# 1 0.021479 -0.002642 -0.005658 0.000000 0.000000 0.000000
# 2 -0.002642 0.012999 -0.003414 0.000000 0.000000 0.000000
# 3 -0.005658 -0.003414 0.009591 0.000000 0.000000 0.000000
# 4 0.000000 0.000000 0.000000 0.033195 0.000000 0.000000
# 5 0.000000 0.000000 0.000000 0.000000 0.063536 0.000000
# 6 0.000000 0.000000 0.000000 0.000000 0.000000 0.045856
#
#
# Mechanical properties :
#
#
# Convention : Reuss Voigt Hill
#
# Bulk Modulus (GPa) = 48.44649 59.72087 54.08368
# Shear Modulus (GPa) = 23.04529 25.97268 24.50898
#
# Velocity S-wave (km/s) = 3.50876 3.72496 3.61847
# Velocity P-wave (km/s) = 6.50359 7.09964 6.80814
#
# Compressibility (1/GPa) = 0.02064133
#
# Stress axis : x y z
#
# Youngs Moduli (GPa) = 46.55749 76.92787 104.26756
#
# Poissons Ratio (x) = 0.20321 0.58994
# Poissons Ratio (y) = 0.12299 0.35598
# Poissons Ratio (z) = 0.26342 0.26264
#
# Static dielectric constant tensor:
#      x y z
#    x 3.369140 0.000000 0.000000 
#    y 0.000000 3.684380 0.000000 
#    z 0.000000 0.000000 3.596230 
# 
# 
# High freq. dielectric constant tensor:
#      x y z
#    x 1.703800 0.000000 0.000000 
#    y 0.000000 1.729770 0.000000 
#    z 0.000000 0.000000 1.730130 
# 
# From -- ./inp_files/8628.got.cif
#   From: 2010.06.25/outbox.cif.g09.slc.cpg/sg71_5_cif.got.tgz:8628.got - 2010.06.28 04:59:45.
