data_PCOD8290642
_publ_section_title
;
Structure prediction by ZEFSAII (Michael W. Deem and Ramdas Pophale) SiO2 
 PCOD8290642
Probable space group: I M M M
;
_chemical_formula_sum "Si O2"
_cell_formula_units_Z 88
_cell_length_a 17.931257
_cell_length_b 29.482562
_cell_length_c 8.799395
_cell_angle_alpha 90.000000
_cell_angle_beta 90.000000
_cell_angle_gamma 90.000000
_cell_volume 4651.882848
_symmetry_space_group_name_H-M "I M M M"
_symmetry_group_IT_number 71
_symmetry_cell_setting 'orthorhombic'
loop_
_space_group_symop_operation_xyz
x,y,z
-x,-y,z
x,-y,-z
-x,y,-z
-x,-y,-z
x,y,-z
-x,y,z
x,-y,z
1/2+x,1/2+y,1/2+z
1/2-x,1/2-y,1/2+z
1/2+x,1/2-y,1/2-z
1/2-x,1/2+y,1/2-z
1/2-x,1/2-y,1/2-z
1/2+x,1/2+y,1/2-z
1/2-x,1/2+y,1/2+z
1/2+x,1/2-y,1/2+z
loop_
_atom_site_type_symbol
_atom_site_label
_atom_site_fract_x
_atom_site_fract_y
_atom_site_fract_z
Si Si1 0.000000 0.553952 0.327975
Si Si2 0.717136 0.794464 0.325684
Si Si3 0.085003 0.853775 0.321493
Si Si4 0.772585 0.114813 0.179246
Si Si5 0.917237 0.761904 0.828141
Si Si6 0.651848 0.946289 0.326028
O O1 0.925502 0.572132 0.245290
O O2 0.000000 0.500000 0.322931
O O3 0.000000 0.572125 0.500000
O O4 0.744108 0.800794 0.500000
O O5 0.750000 0.750000 0.250000
O O6 0.734203 0.838610 0.229409
O O7 0.628644 0.784715 0.316071
O O8 0.088950 0.860515 0.500000
O O9 0.142886 0.888824 0.244599
O O10 0.112546 0.802829 0.278914
O O11 0.000000 0.861936 0.262364
O O12 0.723429 0.073429 0.240119
O O13 0.776456 0.112041 0.000000
O O14 0.000000 0.748685 0.777358
O O15 0.913817 0.781144 0.000000
O O16 0.653928 0.930182 0.500000
O O17 0.656819 0.000000 0.310852
#
# Coordination Sequence:
#
# PCOD8290642 Si02
#       6
#     8  16  16  16  16  16
#     4   9  17  33  59  89 119 149 183 225 275 333
#     4  11  21  34  53  77 110 147 185 231 279 328
#     4  10  20  34  55  81 108 141 185 234 279 331
#     4  12  24  37  56  82 114 151 188 230 282 337
#     4   9  18  33  52  73 100 139 185 228 274 325
#     4  10  21  39  63  88 114 147 188 233 280 331
#
# _framework density 18.917071
#
# number of rings (size 3 to 8) (size 9 to 14) (size 15 to 20)
#    0.000    1.727    1.818    3.545    0.000    4.000 
#    1.636    0.000    0.000    0.545    0.000    3.818 
#    0.000    0.000    0.000    0.000    0.000    0.000 
#
# Total GULP energy -545537.831919 kJ/mol
# GULP energy per Si atom -12398.587089 kJ/mol
# Density = 1.887402 g / cm^3
# Si number density = 18.917071 Si / 1000 Ang^3
#
#
#
# Elastic Constant Matrix: (Units=GPa)
#
#
# Indices 1 2 3 4 5 6 
#
# 1 121.0076 30.3470 56.1977 -0.0012 -0.0014 -0.0001
# 2 30.3470 33.8287 27.7494 -0.0003 0.0000 -0.0001
# 3 56.1977 27.7494 137.3104 -0.0024 0.0039 0.0036
# 4 -0.0012 -0.0003 -0.0024 28.4349 0.0005 -0.0001
# 5 -0.0014 0.0000 0.0039 0.0005 33.1187 -0.0009
# 6 -0.0001 -0.0001 0.0036 -0.0001 -0.0009 28.9707
#
#
#
# Elastic Compliance Matrix: (Units=1/GPa)
#
#
# Indices 1 2 3 4 5 6 
#
# 1 0.011733 -0.007895 -0.003206 0.000000 0.000001 0.000000
# 2 -0.007895 0.040748 -0.005003 0.000000 0.000000 0.000001
# 3 -0.003206 -0.005003 0.009606 0.000001 -0.000001 -0.000001
# 4 0.000000 0.000000 0.000001 0.035168 -0.000001 0.000000
# 5 0.000001 0.000000 -0.000001 -0.000001 0.030194 0.000001
# 6 0.000000 0.000001 -0.000001 0.000000 0.000001 0.034518
#
#
# Mechanical properties :
#
#
# Convention : Reuss Voigt Hill
#
# Bulk Modulus (GPa) = 33.47099 57.85943 45.66521
# Shear Modulus (GPa) = 24.49341 29.96169 27.22755
#
# Velocity S-wave (km/s) = 3.60221 3.98407 3.79794
# Velocity P-wave (km/s) = 5.91888 7.19833 6.58973
#
# Compressibility (1/GPa) = 0.02987662
#
# Stress axis : x y z
#
# Youngs Moduli (GPa) = 85.22895 24.54128 104.09874
#
# Poissons Ratio (x) = 0.19376 0.33379
# Poissons Ratio (y) = 0.67291 0.52085
# Poissons Ratio (z) = 0.27329 0.12279
#
# Static dielectric constant tensor:
#      x y z
#    x 3.997860 0.000010 -0.000010 
#    y 0.000010 2.804360 0.000000 
#    z -0.000010 0.000000 3.594790 
# 
# 
# High freq. dielectric constant tensor:
#      x y z
#    x 1.756440 0.000000 0.000000 
#    y 0.000000 1.688160 0.000000 
#    z 0.000000 0.000000 1.748560 
# 
# From -- ./inp_files/8764.got.cif
#   From: 2010.06.25/outbox.cif.g09.slc.cpg/sg71_5_cif.got.tgz:8764.got - 2010.06.28 04:59:45.
