data_PCOD8290354
_publ_section_title
;
Structure prediction by ZEFSAII (Michael W. Deem and Ramdas Pophale) SiO2 
 PCOD8290354
Probable space group: I M M M
;
_chemical_formula_sum "Si O2"
_cell_formula_units_Z 104
_cell_length_a 25.866608
_cell_length_b 23.408997
_cell_length_c 9.098487
_cell_angle_alpha 90.000000
_cell_angle_beta 90.000000
_cell_angle_gamma 90.000000
_cell_volume 5509.237138
_symmetry_space_group_name_H-M "I M M M"
_symmetry_group_IT_number 71
_symmetry_cell_setting 'orthorhombic'
loop_
_space_group_symop_operation_xyz
x,y,z
-x,-y,z
x,-y,-z
-x,y,-z
-x,-y,-z
x,y,-z
-x,y,z
x,-y,z
1/2+x,1/2+y,1/2+z
1/2-x,1/2-y,1/2+z
1/2+x,1/2-y,1/2-z
1/2-x,1/2+y,1/2-z
1/2-x,1/2-y,1/2-z
1/2+x,1/2+y,1/2-z
1/2-x,1/2+y,1/2+z
1/2+x,1/2-y,1/2+z
loop_
_atom_site_type_symbol
_atom_site_label
_atom_site_fract_x
_atom_site_fract_y
_atom_site_fract_z
Si Si1 0.440588 0.434299 0.673664
Si Si2 0.153357 0.721237 0.330153
Si Si3 0.186459 0.438353 0.834602
Si Si4 0.500000 0.064504 0.673525
Si Si5 0.097639 0.392552 0.328347
Si Si6 0.252817 0.172465 0.328329
Si Si7 0.864920 0.843502 0.670442
O O1 0.435424 0.428102 0.500000
O O2 0.500000 0.420221 0.721716
O O3 0.427383 0.500000 0.720243
O O4 0.400096 0.389538 0.744450
O O5 0.168044 0.716676 0.500000
O O6 0.118776 0.668927 0.277962
O O7 0.210226 0.719860 0.251390
O O8 0.117408 0.777691 0.303089
O O9 0.214394 0.500000 0.823611
O O10 0.139141 0.439668 0.720286
O O11 0.226298 0.390126 0.790159
O O12 0.165087 0.428188 0.000000
O O13 0.500000 0.064577 0.500000
O O14 0.452476 0.099366 0.733630
O O15 0.500000 0.000000 0.735412
O O16 0.085451 0.397294 0.500000
O O17 0.253544 0.187619 0.500000
O O18 0.194137 0.164450 0.272462
O O19 0.866859 0.861860 0.500000
#
# Coordination Sequence:
#
# PCOD8290354 Si02
#       7
#    16  16  16   8  16  16  16
#     4   9  20  40  61  80 107 141 177 222 275 328
#     4   9  19  35  52  75 109 144 176 214 263 312
#     4   9  17  30  47  68  99 136 170 209 258 305
#     4  11  23  37  53  73  97 127 168 217 264 309
#     4  10  20  34  51  71  98 133 171 213 259 305
#     4   9  18  31  50  77 108 142 180 218 258 309
#     4  10  20  34  55  84 111 139 177 218 262 315
#
# _framework density 18.877386999999999
#
# number of rings (size 3 to 8) (size 9 to 14) (size 15 to 20)
#    0.000    2.538    0.000    2.077    0.000    5.846 
#    1.385    2.308    0.000    0.000    0.000    0.000 
#    0.000    0.000    0.000    0.000    0.000    0.000 
#
# Total GULP energy -644182.883680 kJ/mol
# GULP energy per Si atom -12388.132378 kJ/mol
# Density = 1.883442 g / cm^3
# Si number density = 18.877387 Si / 1000 Ang^3
#
#
#
# Elastic Constant Matrix: (Units=GPa)
#
#
# Indices 1 2 3 4 5 6 
#
# 1 106.2926 56.4106 41.2494 0.0000 0.0000 0.0000
# 2 56.4106 104.9377 30.8118 0.0000 0.0000 0.0000
# 3 41.2494 30.8118 51.9242 0.0000 0.0000 0.0000
# 4 0.0000 0.0000 0.0000 24.8310 0.0000 0.0000
# 5 0.0000 0.0000 0.0000 0.0000 31.7941 0.0000
# 6 0.0000 0.0000 0.0000 0.0000 0.0000 27.7015
#
#
#
# Elastic Compliance Matrix: (Units=1/GPa)
#
#
# Indices 1 2 3 4 5 6 
#
# 1 0.016193 -0.005967 -0.009323 0.000000 0.000000 0.000000
# 2 -0.005967 0.013739 -0.003412 0.000000 0.000000 0.000000
# 3 -0.009323 -0.003412 0.028690 0.000000 0.000000 0.000000
# 4 0.000000 0.000000 0.000000 0.040272 0.000000 0.000000
# 5 0.000000 0.000000 0.000000 0.000000 0.031452 0.000000
# 6 0.000000 0.000000 0.000000 0.000000 0.000000 0.036099
#
#
# Mechanical properties :
#
#
# Convention : Reuss Voigt Hill
#
# Bulk Modulus (GPa) = 47.13194 57.78869 52.46031
# Shear Modulus (GPa) = 23.70530 25.84415 24.77473
#
# Velocity S-wave (km/s) = 3.54750 3.70409 3.62664
# Velocity P-wave (km/s) = 6.46539 6.99806 6.73699
#
# Compressibility (1/GPa) = 0.02121704
#
# Stress axis : x y z
#
# Youngs Moduli (GPa) = 61.75547 72.78447 34.85536
#
# Poissons Ratio (x) = 0.43433 0.32495
# Poissons Ratio (y) = 0.36851 0.11894
# Poissons Ratio (z) = 0.57574 0.24836
#
# Static dielectric constant tensor:
#      x y z
#    x 3.331240 0.000000 0.000000 
#    y 0.000000 3.791890 0.000000 
#    z 0.000000 0.000000 3.382770 
# 
# 
# High freq. dielectric constant tensor:
#      x y z
#    x 1.721920 0.000000 0.000000 
#    y 0.000000 1.751270 0.000000 
#    z 0.000000 0.000000 1.724040 
# 
# From -- ./inp_files/15264.got.cif
#   From: 2010.06.25/outbox.cif.g09.slc.cpg/sg71_8_cif.got.tgz:15264.got - 2010.06.28 04:59:45.
