data_PCOD8290379
_publ_section_title
;
Structure prediction by ZEFSAII (Michael W. Deem and Ramdas Pophale) SiO2 
 PCOD8290379
Probable space group: I M M M
;
_chemical_formula_sum "Si O2"
_cell_formula_units_Z 88
_cell_length_a 13.453073
_cell_length_b 11.709094
_cell_length_c 29.945568
_cell_angle_alpha 90.000000
_cell_angle_beta 90.000000
_cell_angle_gamma 90.000000
_cell_volume 4717.124582
_symmetry_space_group_name_H-M "I M M M"
_symmetry_group_IT_number 71
_symmetry_cell_setting 'orthorhombic'
loop_
_space_group_symop_operation_xyz
x,y,z
-x,-y,z
x,-y,-z
-x,y,-z
-x,-y,-z
x,y,-z
-x,y,z
x,-y,z
1/2+x,1/2+y,1/2+z
1/2-x,1/2-y,1/2+z
1/2+x,1/2-y,1/2-z
1/2-x,1/2+y,1/2-z
1/2-x,1/2-y,1/2-z
1/2+x,1/2+y,1/2-z
1/2-x,1/2+y,1/2+z
1/2+x,1/2-y,1/2+z
loop_
_atom_site_type_symbol
_atom_site_label
_atom_site_fract_x
_atom_site_fract_y
_atom_site_fract_z
Si Si1 0.613666 0.128288 0.552699
Si Si2 0.294642 0.625425 0.305040
Si Si3 0.388536 0.774493 0.235350
Si Si4 0.383340 0.000000 0.053053
Si Si5 0.113385 0.876131 0.348642
Si Si6 0.263223 0.202558 0.099197
O O1 0.623933 0.134521 0.500000
O O2 0.500000 0.149197 0.567535
O O3 0.678183 0.232071 0.572027
O O4 0.646704 0.000000 0.568658
O O5 0.340668 0.500000 0.297078
O O6 0.364600 0.724085 0.284410
O O7 0.187169 0.627213 0.280086
O O8 0.285755 0.643121 0.357857
O O9 0.500000 0.824777 0.234816
O O10 0.373698 0.670463 0.201210
O O11 0.324241 0.889024 0.070268
O O12 0.500000 0.000000 0.069135
O O13 0.379558 0.000000 0.000000
O O14 0.158890 0.796828 0.386042
O O15 0.000000 0.887231 0.361945
O O16 0.165564 0.000000 0.349774
#
# Coordination Sequence:
#
# PCOD8290379 Si02
#       6
#    16  16  16   8  16  16
#     4   9  19  37  60  83 107 140 185 235 287 341
#     4  10  20  34  51  78 108 141 185 225 269 326
#     4   9  19  34  52  73 105 144 180 221 267 318
#     4  11  24  40  57  79 111 149 188 232 285 347
#     4   9  17  30  51  79 106 138 179 223 273 330
#     4  11  20  35  55  81 110 145 182 230 283 335
#
# _framework density 18.655432999999999
#
# number of rings (size 3 to 8) (size 9 to 14) (size 15 to 20)
#    0.000    2.273    0.909    2.727    0.000    2.909 
#    0.000    1.364    0.000    1.636    0.000    7.636 
#    0.000    0.000    0.000    0.000    0.000    0.000 
#
# Total GULP energy -545335.101711 kJ/mol
# GULP energy per Si atom -12393.979584 kJ/mol
# Density = 1.861297 g / cm^3
# Si number density = 18.655433 Si / 1000 Ang^3
#
#
#
# Elastic Constant Matrix: (Units=GPa)
#
#
# Indices 1 2 3 4 5 6 
#
# 1 82.2234 29.3332 29.3327 0.0000 0.0000 0.0000
# 2 29.3332 94.7509 27.3107 0.0000 0.0000 0.0000
# 3 29.3327 27.3107 77.4932 0.0000 0.0000 0.0000
# 4 0.0000 0.0000 0.0000 8.9899 0.0000 0.0000
# 5 0.0000 0.0000 0.0000 0.0000 28.1717 0.0000
# 6 0.0000 0.0000 0.0000 0.0000 0.0000 32.4902
#
#
#
# Elastic Compliance Matrix: (Units=1/GPa)
#
#
# Indices 1 2 3 4 5 6 
#
# 1 0.014952 -0.003336 -0.004484 0.000000 0.000000 0.000000
# 2 -0.003336 0.012492 -0.003140 0.000000 0.000000 0.000000
# 3 -0.004484 -0.003140 0.015708 0.000000 0.000000 0.000000
# 4 0.000000 0.000000 0.000000 0.111235 0.000000 0.000000
# 5 0.000000 0.000000 0.000000 0.000000 0.035497 0.000000
# 6 0.000000 0.000000 0.000000 0.000000 0.000000 0.030779
#
#
# Mechanical properties :
#
#
# Convention : Reuss Voigt Hill
#
# Bulk Modulus (GPa) = 47.09822 47.38009 47.23916
# Shear Modulus (GPa) = 20.02731 25.16309 22.59520
#
# Velocity S-wave (km/s) = 3.28004 3.67663 3.48399
# Velocity P-wave (km/s) = 6.29651 6.59364 6.44679
#
# Compressibility (1/GPa) = 0.02123223
#
# Stress axis : x y z
#
# Youngs Moduli (GPa) = 66.88161 80.05231 63.66186
#
# Poissons Ratio (x) = 0.26709 0.28544
# Poissons Ratio (y) = 0.22315 0.19987
# Poissons Ratio (z) = 0.29988 0.25133
#
# Static dielectric constant tensor:
#      x y z
#    x 3.514990 0.000000 0.000000 
#    y 0.000000 3.602210 0.000000 
#    z 0.000000 0.000000 3.301570 
# 
# 
# High freq. dielectric constant tensor:
#      x y z
#    x 1.719190 0.000000 0.000000 
#    y 0.000000 1.727680 0.000000 
#    z 0.000000 0.000000 1.717880 
# 
# From -- ./inp_files/65341.got.cif
#   From: 2010.06.25/outbox.cif.g09.slc.cpg/sg71_33_cif.got.tgz:65341.got - 2010.06.28 04:59:45.
