data_PCOD8290895
_publ_section_title
;
Structure prediction by ZEFSAII (Michael W. Deem and Ramdas Pophale) SiO2 
 PCOD8290895
Probable space group: I M M M
;
_chemical_formula_sum "Si O2"
_cell_formula_units_Z 72
_cell_length_a 22.746775
_cell_length_b 8.987075
_cell_length_c 18.758377
_cell_angle_alpha 90.000000
_cell_angle_beta 90.000000
_cell_angle_gamma 90.000000
_cell_volume 3834.718227
_symmetry_space_group_name_H-M "I M M M"
_symmetry_group_IT_number 71
_symmetry_cell_setting 'orthorhombic'
loop_
_space_group_symop_operation_xyz
x,y,z
-x,-y,z
x,-y,-z
-x,y,-z
-x,-y,-z
x,y,-z
-x,y,z
x,-y,z
1/2+x,1/2+y,1/2+z
1/2-x,1/2-y,1/2+z
1/2+x,1/2-y,1/2-z
1/2-x,1/2+y,1/2-z
1/2-x,1/2-y,1/2-z
1/2+x,1/2+y,1/2-z
1/2-x,1/2+y,1/2+z
1/2+x,1/2-y,1/2+z
loop_
_atom_site_type_symbol
_atom_site_label
_atom_site_fract_x
_atom_site_fract_y
_atom_site_fract_z
Si Si1 0.433280 0.323522 0.202352
Si Si2 0.435808 0.500000 0.417012
Si Si3 0.133941 0.673196 0.417961
Si Si4 0.756206 0.325312 0.081222
Si Si5 0.147457 0.165843 0.829725
O O1 0.500000 0.277713 0.223024
O O2 0.428292 0.500000 0.195102
O O3 0.417745 0.247224 0.127596
O O4 0.385686 0.266352 0.260790
O O5 0.500000 0.500000 0.381047
O O6 0.440791 0.500000 0.500000
O O7 0.402209 0.352070 0.390894
O O8 0.117991 0.702566 0.500000
O O9 0.138456 0.500000 0.400404
O O10 0.195872 0.746646 0.397900
O O11 0.747016 0.500000 0.087903
O O12 0.803496 0.275795 0.140077
O O13 0.774980 0.281298 0.000000
O O14 0.174076 0.000000 0.812927
#
# Coordination Sequence:
#
# PCOD8290895 Si02
#       5
#    16   8  16  16  16
#     4  10  21  38  58  81 112 147 186 231 281 334
#     4   9  16  28  52  82 109 143 188 228 261 308
#     4  10  22  39  59  82 108 142 188 238 285 339
#     4  10  20  35  56  83 115 147 183 230 284 336
#     4   9  19  32  54  82 111 146 183 226 266 331
#
# _framework density 18.775824
#
# number of rings (size 3 to 8) (size 9 to 14) (size 15 to 20)
#    0.667    1.667    0.000    2.667    0.000    4.889 
#    0.000    2.222    0.000    2.000    0.000    7.778 
#    0.000    0.000    0.000    0.000    0.000    0.000 
#
# Total GULP energy -446208.314803 kJ/mol
# GULP energy per Si atom -12394.675411 kJ/mol
# Density = 1.873309 g / cm^3
# Si number density = 18.775824 Si / 1000 Ang^3
#
#
#
# Elastic Constant Matrix: (Units=GPa)
#
#
# Indices 1 2 3 4 5 6 
#
# 1 88.1229 41.8034 52.8191 0.0000 0.0000 0.0000
# 2 41.8034 54.0970 34.5515 0.0000 0.0000 0.0000
# 3 52.8191 34.5515 92.6268 0.0000 0.0000 0.0000
# 4 0.0000 0.0000 0.0000 30.9335 0.0000 0.0000
# 5 0.0000 0.0000 0.0000 0.0000 27.0635 0.0000
# 6 0.0000 0.0000 0.0000 0.0000 0.0000 27.4803
#
#
#
# Elastic Compliance Matrix: (Units=1/GPa)
#
#
# Indices 1 2 3 4 5 6 
#
# 1 0.021668 -0.011621 -0.008021 0.000000 0.000000 0.000000
# 2 -0.011621 0.030499 -0.004750 0.000000 0.000000 0.000000
# 3 -0.008021 -0.004750 0.017142 0.000000 0.000000 0.000000
# 4 0.000000 0.000000 0.000000 0.032327 0.000000 0.000000
# 5 0.000000 0.000000 0.000000 0.000000 0.036950 0.000000
# 6 0.000000 0.000000 0.000000 0.000000 0.000000 0.036390
#
#
# Mechanical properties :
#
#
# Convention : Reuss Voigt Hill
#
# Bulk Modulus (GPa) = 48.72142 54.79942 51.76042
# Shear Modulus (GPa) = 21.68230 24.14030 22.91130
#
# Velocity S-wave (km/s) = 3.40192 3.58957 3.49700
# Velocity P-wave (km/s) = 6.43709 6.81392 6.62818
#
# Compressibility (1/GPa) = 0.02052486
#
# Stress axis : x y z
#
# Youngs Moduli (GPa) = 46.15045 32.78765 58.33689
#
# Poissons Ratio (x) = 0.38103 0.46793
# Poissons Ratio (y) = 0.53632 0.27710
# Poissons Ratio (z) = 0.37018 0.15574
#
# Static dielectric constant tensor:
#      x y z
#    x 3.482950 0.000000 0.000000 
#    y 0.000000 3.208030 0.000000 
#    z 0.000000 0.000000 3.478810 
# 
# 
# High freq. dielectric constant tensor:
#      x y z
#    x 1.729660 0.000000 0.000000 
#    y 0.000000 1.708330 0.000000 
#    z 0.000000 0.000000 1.735280 
# 
# From -- ./inp_files/47927.got.cif
#   From: 2010.06.25/outbox.cif.g09.slc.cpg/sg71_24_cif.got.tgz:47927.got - 2010.06.28 04:59:45.
