data_PCOD8290719
_publ_section_title
;
Structure prediction by ZEFSAII (Michael W. Deem and Ramdas Pophale) SiO2 
 PCOD8290719
Probable space group: I M M M
;
_chemical_formula_sum "Si O2"
_cell_formula_units_Z 88
_cell_length_a 22.251557
_cell_length_b 22.623538
_cell_length_c 8.816809
_cell_angle_alpha 90.000000
_cell_angle_beta 90.000000
_cell_angle_gamma 90.000000
_cell_volume 4438.460520
_symmetry_space_group_name_H-M "I M M M"
_symmetry_group_IT_number 71
_symmetry_cell_setting 'orthorhombic'
loop_
_space_group_symop_operation_xyz
x,y,z
-x,-y,z
x,-y,-z
-x,y,-z
-x,-y,-z
x,y,-z
-x,y,z
x,-y,z
1/2+x,1/2+y,1/2+z
1/2-x,1/2-y,1/2+z
1/2+x,1/2-y,1/2-z
1/2-x,1/2+y,1/2-z
1/2-x,1/2-y,1/2-z
1/2+x,1/2+y,1/2-z
1/2-x,1/2+y,1/2+z
1/2+x,1/2-y,1/2+z
loop_
_atom_site_type_symbol
_atom_site_label
_atom_site_fract_x
_atom_site_fract_y
_atom_site_fract_z
Si Si1 0.815733 0.241453 0.321770
Si Si2 0.878836 0.130214 0.826590
Si Si3 0.662472 0.142522 0.674912
Si Si4 0.067065 0.569196 0.330239
Si Si5 0.500000 0.567689 0.680727
Si Si6 0.240431 0.933390 0.827171
O O1 0.807602 0.236811 0.500000
O O2 0.750000 0.250000 0.250000
O O3 0.854381 0.185766 0.266988
O O4 0.852380 0.299719 0.274175
O O5 0.941318 0.103793 0.761112
O O6 0.830612 0.077449 0.815185
O O7 0.887326 0.150918 0.000000
O O8 0.666061 0.160206 0.500000
O O9 0.608958 0.097102 0.703227
O O10 0.725713 0.113139 0.721004
O O11 0.090686 0.583653 0.500000
O O12 0.067485 0.500000 0.302564
O O13 0.000000 0.594287 0.309722
O O14 0.500000 0.500000 0.744089
O O15 0.500000 0.564782 0.500000
O O16 0.254294 0.000000 0.772999
O O17 0.262581 0.924375 0.000000
#
# Coordination Sequence:
#
# PCOD8290719 Si02
#       6
#    16  16  16  16   8  16
#     4  12  24  41  63  86 116 155 198 249 305 366
#     4  10  20  37  62  91 124 162 204 251 300 358
#     4  12  24  37  57  86 119 156 198 247 299 357
#     4   9  19  38  62  86 116 155 196 239 293 355
#     4   9  18  36  65  99 131 165 208 253 300 361
#     4  10  20  34  56  86 120 158 198 242 297 359
#
# _framework density 19.826694
#
# number of rings (size 3 to 8) (size 9 to 14) (size 15 to 20)
#    0.000    1.545    1.818    4.909    0.000    5.455 
#    1.636    1.364    0.000    2.182    0.000    0.000 
#    0.000    0.000    0.000    0.000    0.000    0.000 
#
# Total GULP energy -545605.267512 kJ/mol
# GULP energy per Si atom -12400.119716 kJ/mol
# Density = 1.978157 g / cm^3
# Si number density = 19.826694 Si / 1000 Ang^3
#
#
#
# Elastic Constant Matrix: (Units=GPa)
#
#
# Indices 1 2 3 4 5 6 
#
# 1 126.2200 51.4159 38.7874 0.0000 0.0000 0.0000
# 2 51.4159 115.1813 48.7184 0.0000 0.0000 0.0000
# 3 38.7874 48.7184 103.4648 0.0000 0.0000 0.0000
# 4 0.0000 0.0000 0.0000 30.4544 0.0000 0.0000
# 5 0.0000 0.0000 0.0000 0.0000 18.5937 0.0000
# 6 0.0000 0.0000 0.0000 0.0000 0.0000 30.9661
#
#
#
# Elastic Compliance Matrix: (Units=1/GPa)
#
#
# Indices 1 2 3 4 5 6 
#
# 1 0.010024 -0.003603 -0.002061 0.000000 0.000000 0.000000
# 2 -0.003603 0.012136 -0.004364 0.000000 0.000000 0.000000
# 3 -0.002061 -0.004364 0.012493 0.000000 0.000000 0.000000
# 4 0.000000 0.000000 0.000000 0.032836 0.000000 0.000000
# 5 0.000000 0.000000 0.000000 0.000000 0.053782 0.000000
# 6 0.000000 0.000000 0.000000 0.000000 0.000000 0.032293
#
#
# Mechanical properties :
#
#
# Convention : Reuss Voigt Hill
#
# Bulk Modulus (GPa) = 68.50893 69.18992 68.84942
# Shear Modulus (GPa) = 28.01365 29.73247 28.87306
#
# Velocity S-wave (km/s) = 3.76297 3.87669 3.82025
# Velocity P-wave (km/s) = 7.31497 7.41697 7.36615
#
# Compressibility (1/GPa) = 0.01459664
#
# Stress axis : x y z
#
# Youngs Moduli (GPa) = 99.76410 82.40011 80.04665
#
# Poissons Ratio (x) = 0.29685 0.16501
# Poissons Ratio (y) = 0.35941 0.34931
# Poissons Ratio (z) = 0.20565 0.35958
#
# Static dielectric constant tensor:
#      x y z
#    x 3.709350 0.000000 0.000000 
#    y 0.000000 3.758700 0.000000 
#    z 0.000000 0.000000 3.404590 
# 
# 
# High freq. dielectric constant tensor:
#      x y z
#    x 1.774470 0.000000 0.000000 
#    y 0.000000 1.780230 0.000000 
#    z 0.000000 0.000000 1.752450 
# 
# From -- ./inp_files/10457.got.cif
#   From: 2010.06.25/outbox.cif.g09.slc.cpg/sg71_6_cif.got.tgz:10457.got - 2010.06.28 04:59:45.
