data_PCOD8290411
_publ_section_title
;
Structure prediction by ZEFSAII (Michael W. Deem and Ramdas Pophale) SiO2 
 PCOD8290411
Probable space group: I M M M
;
_chemical_formula_sum "Si O2"
_cell_formula_units_Z 80
_cell_length_a 9.256050
_cell_length_b 21.730349
_cell_length_c 22.418151
_cell_angle_alpha 90.000000
_cell_angle_beta 90.000000
_cell_angle_gamma 90.000000
_cell_volume 4509.124051
_symmetry_space_group_name_H-M "I M M M"
_symmetry_group_IT_number 71
_symmetry_cell_setting 'orthorhombic'
loop_
_space_group_symop_operation_xyz
x,y,z
-x,-y,z
x,-y,-z
-x,y,-z
-x,-y,-z
x,y,-z
-x,y,z
x,-y,z
1/2+x,1/2+y,1/2+z
1/2-x,1/2-y,1/2+z
1/2+x,1/2-y,1/2-z
1/2-x,1/2+y,1/2-z
1/2-x,1/2-y,1/2-z
1/2+x,1/2+y,1/2-z
1/2-x,1/2+y,1/2+z
1/2+x,1/2-y,1/2+z
loop_
_atom_site_type_symbol
_atom_site_label
_atom_site_fract_x
_atom_site_fract_y
_atom_site_fract_z
Si Si1 0.668784 0.072648 0.871292
Si Si2 0.167408 0.428289 0.500000
Si Si3 0.668728 0.662501 0.712577
Si Si4 0.666199 0.202794 0.675085
Si Si5 0.662672 0.500000 0.070869
Si Si6 0.667128 0.118612 0.567647
O O1 0.500000 0.088728 0.864025
O O2 0.728427 0.096749 0.936570
O O3 0.759584 0.105562 0.820616
O O4 0.693155 0.000000 0.864719
O O5 0.195654 0.500000 0.500000
O O6 0.000000 0.413620 0.500000
O O7 0.500000 0.649801 0.718613
O O8 0.702560 0.724824 0.675866
O O9 0.734424 0.666441 0.778526
O O10 0.500000 0.191560 0.693342
O O11 0.699073 0.177754 0.608799
O O12 0.500000 0.500000 0.096044
O O13 0.743518 0.438981 0.093704
O O14 0.665609 0.500000 0.000000
O O15 0.713698 0.135561 0.500000
O O16 0.500000 0.099541 0.569862
#
# Coordination Sequence:
#
# PCOD8290411 Si02
#       6
#    16   8  16  16   8  16
#     4   9  17  32  54  77 102 134 171 209 247 295
#     4   7  12  26  49  73  97 129 167 202 239 286
#     4  10  20  34  52  75 102 134 169 209 254 296
#     4   9  19  36  54  72  97 135 174 205 246 301
#     4   9  17  29  47  73 105 133 155 192 251 302
#     4   9  17  32  54  76  98 128 169 209 244 294
#
# _framework density 17.741803999999998
#
# number of rings (size 3 to 8) (size 9 to 14) (size 15 to 20)
#    0.000    3.000    0.000    2.100    0.000    3.200 
#    3.600    0.500    0.000    1.800    0.000    0.000 
#    0.000    0.000    0.000    0.000    0.000    0.000 
#
# Total GULP energy -495756.580819 kJ/mol
# GULP energy per Si atom -12393.914520 kJ/mol
# Density = 1.770142 g / cm^3
# Si number density = 17.741804 Si / 1000 Ang^3
#
#
#
# Elastic Constant Matrix: (Units=GPa)
#
#
# Indices 1 2 3 4 5 6 
#
# 1 76.3722 40.5160 48.8357 0.0000 0.0000 0.0000
# 2 40.5160 67.2089 52.6466 0.0000 0.0000 0.0000
# 3 48.8357 52.6466 100.6669 0.0000 0.0000 0.0000
# 4 0.0000 0.0000 0.0000 29.4824 0.0000 0.0000
# 5 0.0000 0.0000 0.0000 0.0000 17.4699 0.0000
# 6 0.0000 0.0000 0.0000 0.0000 0.0000 25.5439
#
#
#
# Elastic Compliance Matrix: (Units=1/GPa)
#
#
# Indices 1 2 3 4 5 6 
#
# 1 0.021264 -0.008026 -0.006118 0.000000 0.000000 0.000000
# 2 -0.008026 0.028234 -0.010872 0.000000 0.000000 0.000000
# 3 -0.006118 -0.010872 0.018588 0.000000 0.000000 0.000000
# 4 0.000000 0.000000 0.000000 0.033918 0.000000 0.000000
# 5 0.000000 0.000000 0.000000 0.000000 0.057241 0.000000
# 6 0.000000 0.000000 0.000000 0.000000 0.000000 0.039148
#
#
# Mechanical properties :
#
#
# Convention : Reuss Voigt Hill
#
# Bulk Modulus (GPa) = 55.39314 58.69383 57.04349
# Shear Modulus (GPa) = 19.65074 21.31589 20.48332
#
# Velocity S-wave (km/s) = 3.33167 3.46995 3.40151
# Velocity P-wave (km/s) = 6.78893 7.01485 6.90282
#
# Compressibility (1/GPa) = 0.01805278
#
# Stress axis : x y z
#
# Youngs Moduli (GPa) = 47.02808 35.41855 53.79958
#
# Poissons Ratio (x) = 0.28428 0.32915
# Poissons Ratio (y) = 0.37746 0.58491
# Poissons Ratio (z) = 0.28772 0.38507
#
# Static dielectric constant tensor:
#      x y z
#    x 3.226700 0.000000 0.000000 
#    y 0.000000 3.135870 0.000000 
#    z 0.000000 0.000000 3.402820 
# 
# 
# High freq. dielectric constant tensor:
#      x y z
#    x 1.676570 0.000000 0.000000 
#    y 0.000000 1.670240 0.000000 
#    z 0.000000 0.000000 1.684690 
# 
# From -- ./inp_files/50383.got.cif
#   From: 2010.06.25/outbox.cif.g09.slc.cpg/sg71_26_cif.got.tgz:50383.got - 2010.06.28 04:59:45.
