data_PCOD8290834
_publ_section_title
;
Structure prediction by ZEFSAII (Michael W. Deem and Ramdas Pophale) SiO2 
 PCOD8290834
Probable space group: I M M M
;
_chemical_formula_sum "Si O2"
_cell_formula_units_Z 64
_cell_length_a 15.096099
_cell_length_b 8.793274
_cell_length_c 24.578409
_cell_angle_alpha 90.000000
_cell_angle_beta 90.000000
_cell_angle_gamma 90.000000
_cell_volume 3262.639638
_symmetry_space_group_name_H-M "I M M M"
_symmetry_group_IT_number 71
_symmetry_cell_setting 'orthorhombic'
loop_
_space_group_symop_operation_xyz
x,y,z
-x,-y,z
x,-y,-z
-x,y,-z
-x,-y,-z
x,y,-z
-x,y,z
x,-y,z
1/2+x,1/2+y,1/2+z
1/2-x,1/2-y,1/2+z
1/2+x,1/2-y,1/2-z
1/2-x,1/2+y,1/2-z
1/2-x,1/2-y,1/2-z
1/2+x,1/2+y,1/2-z
1/2-x,1/2+y,1/2+z
1/2+x,1/2-y,1/2+z
loop_
_atom_site_type_symbol
_atom_site_label
_atom_site_fract_x
_atom_site_fract_y
_atom_site_fract_z
Si Si1 0.500000 0.176777 0.563861
Si Si2 0.845972 0.322481 0.363782
Si Si3 0.500000 0.817812 0.061418
Si Si4 0.645427 0.319404 0.363551
Si Si5 0.654792 0.822335 0.255488
O O1 0.500000 0.206122 0.500000
O O2 0.411945 0.253648 0.587501
O O3 0.500000 0.000000 0.578737
O O4 0.836613 0.500000 0.374264
O O5 0.746281 0.256088 0.370012
O O6 0.889362 0.294002 0.303804
O O7 0.912457 0.252180 0.408516
O O8 0.500000 0.000000 0.063708
O O9 0.500000 0.756635 0.000000
O O10 0.640169 0.500000 0.364127
O O11 0.605173 0.260040 0.305698
O O12 0.750000 0.750000 0.250000
O O13 0.660939 0.000000 0.268674
#
# Coordination Sequence:
#
# PCOD8290834 Si02
#       5
#     8  16   8  16  16
#     4  11  25  42  57  76 102 137 184 229 274 335
#     4   8  16  29  47  75 109 143 175 211 259 311
#     4   9  16  27  44  69 102 137 174 211 246 295
#     4  10  20  35  55  80 109 138 173 220 274 328
#     4   9  16  29  50  77 110 143 178 219 265 320
#
# _framework density 19.616018
#
# number of rings (size 3 to 8) (size 9 to 14) (size 15 to 20)
#    0.000    2.750    0.000    3.375    0.000    3.000 
#    0.000    5.000    0.000    0.000    0.000   17.500 
#    0.000   38.000    0.000    0.000    0.000    0.000 
#
# Total GULP energy -396506.997246 kJ/mol
# GULP energy per Si atom -12390.843664 kJ/mol
# Density = 1.957137 g / cm^3
# Si number density = 19.616018 Si / 1000 Ang^3
#
#
#
# Elastic Constant Matrix: (Units=GPa)
#
#
# Indices 1 2 3 4 5 6 
#
# 1 109.1911 28.9110 74.4457 0.0000 0.0000 0.0000
# 2 28.9110 76.9494 53.7580 0.0000 0.0000 0.0000
# 3 74.4457 53.7580 160.3761 0.0000 0.0000 0.0000
# 4 0.0000 0.0000 0.0000 27.4665 0.0000 0.0000
# 5 0.0000 0.0000 0.0000 0.0000 34.6065 0.0000
# 6 0.0000 0.0000 0.0000 0.0000 0.0000 18.2994
#
#
#
# Elastic Compliance Matrix: (Units=1/GPa)
#
#
# Indices 1 2 3 4 5 6 
#
# 1 0.013447 -0.000903 -0.005939 0.000000 0.000000 0.000000
# 2 -0.000903 0.017030 -0.005289 0.000000 0.000000 0.000000
# 3 -0.005939 -0.005289 0.010765 0.000000 0.000000 0.000000
# 4 0.000000 0.000000 0.000000 0.036408 0.000000 0.000000
# 5 0.000000 0.000000 0.000000 0.000000 0.028896 0.000000
# 6 0.000000 0.000000 0.000000 0.000000 0.000000 0.054647
#
#
# Mechanical properties :
#
#
# Convention : Reuss Voigt Hill
#
# Bulk Modulus (GPa) = 58.89609 73.41622 66.15615
# Shear Modulus (GPa) = 26.16222 28.70127 27.43174
#
# Velocity S-wave (km/s) = 3.65597 3.82927 3.74362
# Velocity P-wave (km/s) = 6.92179 7.55374 7.24466
#
# Compressibility (1/GPa) = 0.01697906
#
# Stress axis : x y z
#
# Youngs Moduli (GPa) = 74.36809 58.71997 92.89121
#
# Poissons Ratio (x) = 0.05302 0.55170
# Poissons Ratio (y) = 0.06714 0.49133
# Poissons Ratio (z) = 0.44169 0.31059
#
# Static dielectric constant tensor:
#      x y z
#    x 3.694470 0.000000 0.000000 
#    y 0.000000 3.383520 0.000000 
#    z 0.000000 0.000000 4.058100 
# 
# 
# High freq. dielectric constant tensor:
#      x y z
#    x 1.754170 0.000000 0.000000 
#    y 0.000000 1.733590 0.000000 
#    z 0.000000 0.000000 1.772750 
# 
# From -- ./inp_files/5851.got.cif
#   From: 2010.06.25/outbox.cif.g09.slc.cpg/sg71_3_cif.got.tgz:5851.got - 2010.06.28 04:59:45.
