data_PCOD8290823
_publ_section_title
;
Structure prediction by ZEFSAII (Michael W. Deem and Ramdas Pophale) SiO2 
 PCOD8290823
Probable space group: I M M M
;
_chemical_formula_sum "Si O2"
_cell_formula_units_Z 88
_cell_length_a 24.015932
_cell_length_b 23.842048
_cell_length_c 7.975840
_cell_angle_alpha 90.000000
_cell_angle_beta 90.000000
_cell_angle_gamma 90.000000
_cell_volume 4566.878278
_symmetry_space_group_name_H-M "I M M M"
_symmetry_group_IT_number 71
_symmetry_cell_setting 'orthorhombic'
loop_
_space_group_symop_operation_xyz
x,y,z
-x,-y,z
x,-y,-z
-x,y,-z
-x,-y,-z
x,y,-z
-x,y,z
x,-y,z
1/2+x,1/2+y,1/2+z
1/2-x,1/2-y,1/2+z
1/2+x,1/2-y,1/2-z
1/2-x,1/2+y,1/2-z
1/2-x,1/2-y,1/2-z
1/2+x,1/2+y,1/2-z
1/2-x,1/2+y,1/2+z
1/2+x,1/2-y,1/2+z
loop_
_atom_site_type_symbol
_atom_site_label
_atom_site_fract_x
_atom_site_fract_y
_atom_site_fract_z
Si Si1 0.061079 0.934398 0.000000
Si Si2 0.879945 0.879716 0.691315
Si Si3 0.224349 0.063975 0.806514
Si Si4 0.563002 0.733686 0.194149
Si Si5 0.438517 0.853819 0.693020
Si Si6 0.845657 0.563887 0.802308
O O1 0.090952 0.919018 0.826779
O O2 0.000000 0.906446 0.000000
O O3 0.056557 0.000000 0.000000
O O4 0.901001 0.891262 0.500000
O O5 0.814108 0.893040 0.701418
O O6 0.893848 0.815580 0.741115
O O7 0.288108 0.082263 0.783689
O O8 0.216156 0.000000 0.740919
O O9 0.207144 0.068123 0.000000
O O10 0.500000 0.715820 0.246211
O O11 0.581994 0.789676 0.290395
O O12 0.565636 0.748284 0.000000
O O13 0.443283 0.869844 0.500000
O O14 0.500000 0.860683 0.777365
O O15 0.394041 0.896493 0.774617
O O16 0.860975 0.500000 0.756126
O O17 0.838631 0.571997 0.000000
#
# Coordination Sequence:
#
# PCOD8290823 Si02
#       6
#     8  16  16  16  16  16
#     4  11  24  38  54  82 116 148 186 236 288 336
#     4  11  22  37  58  82 111 149 194 235 285 336
#     4  10  20  35  55  79 107 142 188 236 281 335
#     4   9  19  35  54  77 105 141 185 230 276 331
#     4   9  18  32  53  81 110 143 182 226 279 336
#     4   9  18  33  53  79 111 145 182 225 278 340
#
# _framework density 19.269181
#
# number of rings (size 3 to 8) (size 9 to 14) (size 15 to 20)
#    0.000    2.273    0.909    1.636    1.273    4.364 
#    0.000    3.636    0.000    0.000    0.000    5.091 
#    0.000    0.000    0.000    0.000    0.000    0.000 
#
# Total GULP energy -545469.501335 kJ/mol
# GULP energy per Si atom -12397.034121 kJ/mol
# Density = 1.922532 g / cm^3
# Si number density = 19.269181 Si / 1000 Ang^3
#
#
#
# Elastic Constant Matrix: (Units=GPa)
#
#
# Indices 1 2 3 4 5 6 
#
# 1 130.4755 86.7010 25.2817 0.0000 0.0000 0.0000
# 2 86.7010 113.2866 23.1251 0.0000 0.0000 0.0000
# 3 25.2817 23.1251 59.6791 0.0000 0.0000 0.0000
# 4 0.0000 0.0000 0.0000 21.6494 0.0000 0.0000
# 5 0.0000 0.0000 0.0000 0.0000 22.3485 0.0000
# 6 0.0000 0.0000 0.0000 0.0000 0.0000 40.8021
#
#
#
# Elastic Compliance Matrix: (Units=1/GPa)
#
#
# Indices 1 2 3 4 5 6 
#
# 1 0.015854 -0.011687 -0.002188 0.000000 0.000000 0.000000
# 2 -0.011687 0.018201 -0.002102 0.000000 0.000000 0.000000
# 3 -0.002188 -0.002102 0.018497 0.000000 0.000000 0.000000
# 4 0.000000 0.000000 0.000000 0.046191 0.000000 0.000000
# 5 0.000000 0.000000 0.000000 0.000000 0.044746 0.000000
# 6 0.000000 0.000000 0.000000 0.000000 0.000000 0.024509
#
#
# Mechanical properties :
#
#
# Convention : Reuss Voigt Hill
#
# Bulk Modulus (GPa) = 48.54476 63.73965 56.14220
# Shear Modulus (GPa) = 24.17607 28.18224 26.17915
#
# Velocity S-wave (km/s) = 3.54595 3.82849 3.68992
# Velocity P-wave (km/s) = 6.48171 7.25902 6.88135
#
# Compressibility (1/GPa) = 0.02059954
#
# Stress axis : x y z
#
# Youngs Moduli (GPa) = 63.07464 54.94334 54.06174
#
# Poissons Ratio (x) = 0.64213 0.11827
# Poissons Ratio (y) = 0.73716 0.11361
# Poissons Ratio (z) = 0.13799 0.11547
#
# Static dielectric constant tensor:
#      x y z
#    x 3.743670 0.000000 0.000000 
#    y 0.000000 3.472620 0.000000 
#    z 0.000000 0.000000 3.473990 
# 
# 
# High freq. dielectric constant tensor:
#      x y z
#    x 1.746280 0.000000 0.000000 
#    y 0.000000 1.737880 0.000000 
#    z 0.000000 0.000000 1.745830 
# 
# From -- ./inp_files/12492.got.cif
#   From: 2010.06.25/outbox.cif.g09.slc.cpg/sg71_7_cif.got.tgz:12492.got - 2010.06.28 04:59:45.
