data_PCOD8290558
_publ_section_title
;
Structure prediction by ZEFSAII (Michael W. Deem and Ramdas Pophale) SiO2 
 PCOD8290558
Probable space group: I M M M
;
_chemical_formula_sum "Si O2"
_cell_formula_units_Z 112
_cell_length_a 13.265443
_cell_length_b 13.351175
_cell_length_c 31.978475
_cell_angle_alpha 90.000000
_cell_angle_beta 90.000000
_cell_angle_gamma 90.000000
_cell_volume 5663.683754
_symmetry_space_group_name_H-M "I M M M"
_symmetry_group_IT_number 71
_symmetry_cell_setting 'orthorhombic'
loop_
_space_group_symop_operation_xyz
x,y,z
-x,-y,z
x,-y,-z
-x,y,-z
-x,-y,-z
x,y,-z
-x,y,z
x,-y,z
1/2+x,1/2+y,1/2+z
1/2-x,1/2-y,1/2+z
1/2+x,1/2-y,1/2-z
1/2-x,1/2+y,1/2-z
1/2-x,1/2-y,1/2-z
1/2+x,1/2+y,1/2-z
1/2-x,1/2+y,1/2+z
1/2+x,1/2-y,1/2+z
loop_
_atom_site_type_symbol
_atom_site_label
_atom_site_fract_x
_atom_site_fract_y
_atom_site_fract_z
Si Si1 0.881324 0.109303 0.163661
Si Si2 0.380587 0.112201 0.795653
Si Si3 0.215290 0.615984 0.872565
Si Si4 0.382654 0.226891 0.877159
Si Si5 0.706430 0.115886 0.953580
Si Si6 0.883851 0.220482 0.919665
Si Si7 0.880551 0.698436 0.208432
O O1 0.845192 0.155539 0.119965
O O2 0.851324 0.184648 0.201135
O O3 0.000000 0.098988 0.160841
O O4 0.832246 0.000000 0.171601
O O5 0.500000 0.111774 0.797752
O O6 0.338062 0.164099 0.837627
O O7 0.343201 0.171560 0.754712
O O8 0.338225 0.000000 0.793304
O O9 0.227423 0.500000 0.883467
O O10 0.324159 0.668009 0.878345
O O11 0.137998 0.664434 0.906613
O O12 0.173578 0.627960 0.825524
O O13 0.500000 0.250927 0.870980
O O14 0.368866 0.164074 0.919764
O O15 0.812570 0.177304 0.955903
O O16 0.726187 0.000000 0.942340
O O17 0.658291 0.125189 0.000000
O O18 0.000000 0.206702 0.932307
O O19 0.000000 0.681490 0.202837
#
# Coordination Sequence:
#
# PCOD8290558 Si02
#       7
#    16  16  16  16  16  16  16
#     4   8  13  23  41  66 102 147 182 203 231 281
#     4   9  17  31  52  75 102 139 179 219 266 321
#     4  10  20  34  54  79 107 141 183 229 272 314
#     4  10  22  39  56  75 102 138 183 233 282 329
#     4  10  21  36  57  87 116 140 171 213 264 322
#     4   9  18  32  52  81 117 152 180 206 246 312
#     4   9  17  29  48  78 111 141 178 220 260 312
#
# _framework density 19.775115
#
# number of rings (size 3 to 8) (size 9 to 14) (size 15 to 20)
#    0.000    2.714    0.000    2.571    0.000    4.857 
#    0.000    2.857    0.000    9.429    0.000    8.000 
#    0.000    0.000    0.000    0.000    0.000    0.000 
#
# Total GULP energy -694210.411588 kJ/mol
# GULP energy per Si atom -12396.614493 kJ/mol
# Density = 1.973011 g / cm^3
# Si number density = 19.775115 Si / 1000 Ang^3
#
#
#
# Elastic Constant Matrix: (Units=GPa)
#
#
# Indices 1 2 3 4 5 6 
#
# 1 46.6242 15.2929 22.4002 0.0000 0.0000 0.0000
# 2 15.2929 155.0252 42.1596 0.0000 0.0000 0.0000
# 3 22.4002 42.1596 92.7419 0.0000 0.0000 0.0000
# 4 0.0000 0.0000 0.0000 21.9693 0.0000 0.0000
# 5 0.0000 0.0000 0.0000 0.0000 25.3604 0.0000
# 6 0.0000 0.0000 0.0000 0.0000 0.0000 14.0527
#
#
#
# Elastic Compliance Matrix: (Units=1/GPa)
#
#
# Indices 1 2 3 4 5 6 
#
# 1 0.024377 -0.000917 -0.005471 0.000000 0.000000 0.000000
# 2 -0.000917 0.007395 -0.003140 0.000000 0.000000 0.000000
# 3 -0.005471 -0.003140 0.013532 0.000000 0.000000 0.000000
# 4 0.000000 0.000000 0.000000 0.045518 0.000000 0.000000
# 5 0.000000 0.000000 0.000000 0.000000 0.039432 0.000000
# 6 0.000000 0.000000 0.000000 0.000000 0.000000 0.071161
#
#
# Mechanical properties :
#
#
# Convention : Reuss Voigt Hill
#
# Bulk Modulus (GPa) = 38.09890 50.45518 44.27704
# Shear Modulus (GPa) = 21.81312 26.57905 24.19609
#
# Velocity S-wave (km/s) = 3.32484 3.67013 3.50174
# Velocity P-wave (km/s) = 5.83501 6.59770 6.22804
#
# Compressibility (1/GPa) = 0.02624748
#
# Stress axis : x y z
#
# Youngs Moduli (GPa) = 41.02167 135.22621 73.90114
#
# Poissons Ratio (x) = 0.12399 0.40432
# Poissons Ratio (y) = 0.03761 0.23207
# Poissons Ratio (z) = 0.22443 0.42464
#
# Static dielectric constant tensor:
#      x y z
#    x 3.454260 0.000000 0.000000 
#    y 0.000000 3.779850 0.000000 
#    z 0.000000 0.000000 3.488200 
# 
# 
# High freq. dielectric constant tensor:
#      x y z
#    x 1.777420 0.000000 0.000000 
#    y 0.000000 1.761540 0.000000 
#    z 0.000000 0.000000 1.754620 
# 
# From -- ./inp_files/65513.got.cif
#   From: 2010.06.25/outbox.cif.g09.slc.cpg/sg71_33_cif.got.tgz:65513.got - 2010.06.28 04:59:45.
