data_PCOD8290397
_publ_section_title
;
Structure prediction by ZEFSAII (Michael W. Deem and Ramdas Pophale) SiO2 
 PCOD8290397
Probable space group: I M M M
;
_chemical_formula_sum "Si O2"
_cell_formula_units_Z 104
_cell_length_a 18.867632
_cell_length_b 9.108523
_cell_length_c 32.125557
_cell_angle_alpha 90.000000
_cell_angle_beta 90.000000
_cell_angle_gamma 90.000000
_cell_volume 5520.978077
_symmetry_space_group_name_H-M "I M M M"
_symmetry_group_IT_number 71
_symmetry_cell_setting 'orthorhombic'
loop_
_space_group_symop_operation_xyz
x,y,z
-x,-y,z
x,-y,-z
-x,y,-z
-x,-y,-z
x,y,-z
-x,y,z
x,-y,z
1/2+x,1/2+y,1/2+z
1/2-x,1/2-y,1/2+z
1/2+x,1/2-y,1/2-z
1/2-x,1/2+y,1/2-z
1/2-x,1/2-y,1/2-z
1/2+x,1/2+y,1/2-z
1/2-x,1/2+y,1/2+z
1/2+x,1/2-y,1/2+z
loop_
_atom_site_type_symbol
_atom_site_label
_atom_site_fract_x
_atom_site_fract_y
_atom_site_fract_z
Si Si1 0.579959 0.829939 0.244277
Si Si2 0.308495 0.170075 0.106070
Si Si3 0.804025 0.172918 0.688828
Si Si4 0.147864 0.169448 0.913180
Si Si5 0.923741 0.673257 0.454527
Si Si6 0.353831 0.168763 0.329254
Si Si7 0.918318 0.826243 0.000000
O O1 0.500000 0.776973 0.231739
O O2 0.643857 0.742748 0.222822
O O3 0.586867 0.808134 0.294063
O O4 0.589582 0.000000 0.232430
O O5 0.329068 0.271301 0.144424
O O6 0.231722 0.192139 0.086315
O O7 0.361189 0.237897 0.072494
O O8 0.321885 0.000000 0.117876
O O9 0.721222 0.224286 0.691007
O O10 0.811346 0.000000 0.693653
O O11 0.120165 0.248145 0.871079
O O12 0.125536 0.000000 0.909391
O O13 0.117075 0.234920 0.956915
O O14 0.918912 0.745046 0.500000
O O15 0.914100 0.500000 0.458254
O O16 0.000000 0.710944 0.434218
O O17 0.344505 0.000000 0.342203
O O18 0.000000 0.777735 0.000000
O O19 0.908658 0.000000 0.000000
#
# Coordination Sequence:
#
# PCOD8290397 Si02
#       7
#    16  16  16  16  16  16   8
#     4  10  21  36  54  76 101 131 168 210 256 303
#     4   9  17  29  48  72  97 127 165 206 247 293
#     4  10  20  34  52  74 102 133 166 205 250 303
#     4   9  18  31  50  75  99 129 170 210 249 298
#     4   8  14  24  40  65  93 119 152 197 244 284
#     4   9  19  36  55  75 102 134 167 208 257 305
#     4   9  18  32  49  73 106 138 168 209 261 306
#
# _framework density 18.837243000000001
#
# number of rings (size 3 to 8) (size 9 to 14) (size 15 to 20)
#    0.000    2.846    0.000    1.385    1.077    2.769 
#    0.000    1.923    0.000    0.923    0.000    1.077 
#    0.000    0.000    0.000    0.000    0.000    0.000 
#
# Total GULP energy -644239.874494 kJ/mol
# GULP energy per Si atom -12389.228356 kJ/mol
# Density = 1.879437 g / cm^3
# Si number density = 18.837243 Si / 1000 Ang^3
#
#
#
# Elastic Constant Matrix: (Units=GPa)
#
#
# Indices 1 2 3 4 5 6 
#
# 1 67.0698 23.5102 55.5229 0.0000 0.0000 0.0000
# 2 23.5102 40.2716 33.2774 0.0000 0.0000 0.0000
# 3 55.5229 33.2774 113.5005 0.0000 0.0000 0.0000
# 4 0.0000 0.0000 0.0000 25.6909 0.0000 0.0000
# 5 0.0000 0.0000 0.0000 0.0000 26.6334 0.0000
# 6 0.0000 0.0000 0.0000 0.0000 0.0000 16.4133
#
#
#
# Elastic Compliance Matrix: (Units=1/GPa)
#
#
# Indices 1 2 3 4 5 6 
#
# 1 0.026181 -0.006204 -0.010988 0.000000 0.000000 0.000000
# 2 -0.006204 0.034241 -0.007004 0.000000 0.000000 0.000000
# 3 -0.010988 -0.007004 0.016239 0.000000 0.000000 0.000000
# 4 0.000000 0.000000 0.000000 0.038924 0.000000 0.000000
# 5 0.000000 0.000000 0.000000 0.000000 0.037547 0.000000
# 6 0.000000 0.000000 0.000000 0.000000 0.000000 0.060926
#
#
# Mechanical properties :
#
#
# Convention : Reuss Voigt Hill
#
# Bulk Modulus (GPa) = 35.37567 49.49588 42.43578
# Shear Modulus (GPa) = 18.39073 20.98294 19.68683
#
# Velocity S-wave (km/s) = 3.12796 3.34115 3.23631
# Velocity P-wave (km/s) = 5.64499 6.42004 6.04495
#
# Compressibility (1/GPa) = 0.02826801
#
# Stress axis : x y z
#
# Youngs Moduli (GPa) = 38.19506 29.20463 61.57827
#
# Poissons Ratio (x) = 0.18120 0.67665
# Poissons Ratio (y) = 0.23698 0.43130
# Poissons Ratio (z) = 0.41971 0.20455
#
# Static dielectric constant tensor:
#      x y z
#    x 3.552510 0.000000 0.000000 
#    y 0.000000 3.145310 0.000000 
#    z 0.000000 0.000000 3.728660 
# 
# 
# High freq. dielectric constant tensor:
#      x y z
#    x 1.734630 0.000000 0.000000 
#    y 0.000000 1.692870 0.000000 
#    z 0.000000 0.000000 1.737160 
# 
# From -- ./inp_files/70740.got.cif
#   From: 2010.06.25/outbox.cif.g09.slc.cpg/sg71_36_cif.got.tgz:70740.got - 2010.06.28 04:59:45.
