data_PCOD8290692
_publ_section_title
;
Structure prediction by ZEFSAII (Michael W. Deem and Ramdas Pophale) SiO2 
 PCOD8290692
Probable space group: I M M M
;
_chemical_formula_sum "Si O2"
_cell_formula_units_Z 96
_cell_length_a 22.283038
_cell_length_b 24.581389
_cell_length_c 8.660422
_cell_angle_alpha 90.000000
_cell_angle_beta 90.000000
_cell_angle_gamma 90.000000
_cell_volume 4743.729048
_symmetry_space_group_name_H-M "I M M M"
_symmetry_group_IT_number 71
_symmetry_cell_setting 'orthorhombic'
loop_
_space_group_symop_operation_xyz
x,y,z
-x,-y,z
x,-y,-z
-x,y,-z
-x,-y,-z
x,y,-z
-x,y,z
x,-y,z
1/2+x,1/2+y,1/2+z
1/2-x,1/2-y,1/2+z
1/2+x,1/2-y,1/2-z
1/2-x,1/2+y,1/2-z
1/2-x,1/2-y,1/2-z
1/2+x,1/2+y,1/2-z
1/2-x,1/2+y,1/2+z
1/2+x,1/2-y,1/2+z
loop_
_atom_site_type_symbol
_atom_site_label
_atom_site_fract_x
_atom_site_fract_y
_atom_site_fract_z
Si Si1 0.934516 0.090319 0.683141
Si Si2 0.431192 0.186317 0.318949
Si Si3 0.345387 0.500000 0.815342
Si Si4 0.106355 0.796812 0.325936
Si Si5 0.757111 0.807810 0.673869
Si Si6 0.166364 0.389300 0.318409
Si Si7 0.208837 0.500000 0.182936
O O1 0.927590 0.091673 0.500000
O O2 0.931496 0.152764 0.742487
O O3 0.000000 0.066934 0.730699
O O4 0.881470 0.052464 0.750171
O O5 0.426565 0.176445 0.500000
O O6 0.500000 0.185483 0.262049
O O7 0.401192 0.244333 0.280975
O O8 0.395713 0.138253 0.234181
O O9 0.277323 0.500000 0.751614
O O10 0.345220 0.500000 0.000000
O O11 0.086875 0.780245 0.500000
O O12 0.173091 0.821203 0.327616
O O13 0.730571 0.807757 0.500000
O O14 0.750000 0.750000 0.750000
O O15 0.722947 0.852591 0.773007
O O16 0.165220 0.397004 0.500000
O O17 0.172568 0.447754 0.239906
O O18 0.210567 0.500000 0.000000
#
# Coordination Sequence:
#
# PCOD8290692 Si02
#       7
#    16  16   8  16  16  16   8
#     4   9  16  27  47  78 116 156 199 244 288 342
#     4  11  24  41  62  88 119 156 198 247 306 371
#     4   9  17  31  52  80 113 154 197 242 298 351
#     4  10  20  34  55  85 121 161 203 249 303 362
#     4  11  21  35  58  90 125 162 204 252 306 361
#     4  12  25  42  64  92 124 160 202 251 305 367
#     4  11  23  42  66  89 120 158 197 253 308 367
#
# _framework density 20.237244
#
# number of rings (size 3 to 8) (size 9 to 14) (size 15 to 20)
#    0.000    1.500    1.667    4.500    0.000    6.333 
#    0.000    0.417    0.000    2.500    0.000    0.000 
#    0.000    6.667    0.000    0.000    0.000    0.000 
#
# Total GULP energy -595184.246806 kJ/mol
# GULP energy per Si atom -12399.671808 kJ/mol
# Density = 2.019118 g / cm^3
# Si number density = 20.237244 Si / 1000 Ang^3
#
#
#
# Elastic Constant Matrix: (Units=GPa)
#
#
# Indices 1 2 3 4 5 6 
#
# 1 107.3318 46.8248 25.8124 0.0000 0.0000 0.0000
# 2 46.8248 145.6686 29.8688 0.0000 0.0000 0.0000
# 3 25.8124 29.8688 76.2695 0.0000 0.0000 0.0000
# 4 0.0000 0.0000 0.0000 30.0109 0.0000 0.0000
# 5 0.0000 0.0000 0.0000 0.0000 21.3108 0.0000
# 6 0.0000 0.0000 0.0000 0.0000 0.0000 32.2030
#
#
#
# Elastic Compliance Matrix: (Units=1/GPa)
#
#
# Indices 1 2 3 4 5 6 
#
# 1 0.011295 -0.003096 -0.002610 0.000000 0.000000 0.000000
# 2 -0.003096 0.008313 -0.002208 0.000000 0.000000 0.000000
# 3 -0.002610 -0.002208 0.014859 0.000000 0.000000 0.000000
# 4 0.000000 0.000000 0.000000 0.033321 0.000000 0.000000
# 5 0.000000 0.000000 0.000000 0.000000 0.046925 0.000000
# 6 0.000000 0.000000 0.000000 0.000000 0.000000 0.031053
#
#
# Mechanical properties :
#
#
# Convention : Reuss Voigt Hill
#
# Bulk Modulus (GPa) = 53.64858 59.36465 56.50661
# Shear Modulus (GPa) = 29.79617 31.82253 30.80935
#
# Velocity S-wave (km/s) = 3.84128 3.96974 3.90604
# Velocity P-wave (km/s) = 6.80009 7.09999 6.95166
#
# Compressibility (1/GPa) = 0.01863982
#
# Stress axis : x y z
#
# Youngs Moduli (GPa) = 88.53353 120.29866 67.29717
#
# Poissons Ratio (x) = 0.37239 0.17567
# Poissons Ratio (y) = 0.27406 0.14858
# Poissons Ratio (z) = 0.23111 0.26559
#
# Static dielectric constant tensor:
#      x y z
#    x 4.106730 0.000000 0.000000 
#    y 0.000000 3.708550 0.000000 
#    z 0.000000 0.000000 3.458940 
# 
# 
# High freq. dielectric constant tensor:
#      x y z
#    x 1.798890 0.000000 0.000000 
#    y 0.000000 1.794780 0.000000 
#    z 0.000000 0.000000 1.763610 
# 
# From -- ./inp_files/12891.got.cif
#   From: 2010.06.25/outbox.cif.g09.slc.cpg/sg71_7_cif.got.tgz:12891.got - 2010.06.28 04:59:45.
