data_PCOD8290905
_publ_section_title
;
Structure prediction by ZEFSAII (Michael W. Deem and Ramdas Pophale) SiO2 
 PCOD8290905
Probable space group: I M M M
;
_chemical_formula_sum "Si O2"
_cell_formula_units_Z 104
_cell_length_a 8.334078
_cell_length_b 28.173931
_cell_length_c 22.382552
_cell_angle_alpha 90.000000
_cell_angle_beta 90.000000
_cell_angle_gamma 90.000000
_cell_volume 5255.506887
_symmetry_space_group_name_H-M "I M M M"
_symmetry_group_IT_number 71
_symmetry_cell_setting 'orthorhombic'
loop_
_space_group_symop_operation_xyz
x,y,z
-x,-y,z
x,-y,-z
-x,y,-z
-x,-y,-z
x,y,-z
-x,y,z
x,-y,z
1/2+x,1/2+y,1/2+z
1/2-x,1/2-y,1/2+z
1/2+x,1/2-y,1/2-z
1/2-x,1/2+y,1/2-z
1/2-x,1/2-y,1/2-z
1/2+x,1/2+y,1/2-z
1/2-x,1/2+y,1/2+z
1/2+x,1/2-y,1/2+z
loop_
_atom_site_type_symbol
_atom_site_label
_atom_site_fract_x
_atom_site_fract_y
_atom_site_fract_z
Si Si1 0.316601 0.859415 0.360306
Si Si2 0.824344 0.097769 0.069521
Si Si3 0.684476 0.769889 0.432989
Si Si4 0.310557 0.554027 0.067492
Si Si5 0.500000 0.055377 0.931834
Si Si6 0.317409 0.182735 0.875024
Si Si7 0.312669 0.303750 0.251671
O O1 0.500000 0.862494 0.339542
O O2 0.292847 0.824826 0.416674
O O3 0.260809 0.911256 0.381950
O O4 0.218205 0.836748 0.305639
O O5 0.667636 0.072335 0.099418
O O6 0.799392 0.153644 0.080838
O O7 0.000000 0.082098 0.096181
O O8 0.828997 0.086058 0.000000
O O9 0.747274 0.762615 0.500000
O O10 0.500000 0.754714 0.425979
O O11 0.790607 0.738332 0.388215
O O12 0.500000 0.559063 0.069340
O O13 0.259254 0.500000 0.083464
O O14 0.249446 0.566269 0.000000
O O15 0.500000 0.000000 0.928482
O O16 0.500000 0.074328 0.000000
O O17 0.500000 0.168295 0.888229
O O18 0.275184 0.170629 0.806824
O O19 0.500000 0.301291 0.264191
O O20 0.250000 0.250000 0.250000
#
# Coordination Sequence:
#
# PCOD8290905 Si02
#       7
#    16  16  16  16   8  16  16
#     4  11  22  37  58  85 117 154 196 246 298 352
#     4  10  20  35  56  84 118 154 192 238 295 353
#     4  10  21  35  52  78 115 156 192 234 288 345
#     4   9  19  37  61  89 122 160 201 247 301 360
#     4   9  18  34  56  84 116 148 188 236 282 342
#     4  12  23  36  56  81 113 154 197 240 289 348
#     4  12  24  40  59  82 112 152 199 244 290 348
#
# _framework density 19.788767
#
# number of rings (size 3 to 8) (size 9 to 14) (size 15 to 20)
#    0.000    1.462    2.308    4.615    0.000    4.308 
#    0.000    2.308    0.000    0.923    0.000    0.000 
#    0.000    0.000    0.000    0.000    0.000    0.000 
#
# Total GULP energy -644553.815900 kJ/mol
# GULP energy per Si atom -12395.265690 kJ/mol
# Density = 1.974373 g / cm^3
# Si number density = 19.788767 Si / 1000 Ang^3
#
#
#
# Elastic Constant Matrix: (Units=GPa)
#
#
# Indices 1 2 3 4 5 6 
#
# 1 135.7734 36.5173 21.9915 0.0000 0.0000 0.0000
# 2 36.5173 85.2273 29.5690 0.0000 0.0000 0.0000
# 3 21.9915 29.5690 80.0860 0.0000 0.0000 0.0000
# 4 0.0000 0.0000 0.0000 25.4502 0.0000 0.0000
# 5 0.0000 0.0000 0.0000 0.0000 25.5803 0.0000
# 6 0.0000 0.0000 0.0000 0.0000 0.0000 26.1497
#
#
#
# Elastic Compliance Matrix: (Units=1/GPa)
#
#
# Indices 1 2 3 4 5 6 
#
# 1 0.008412 -0.003215 -0.001123 0.000000 0.000000 0.000000
# 2 -0.003215 0.014686 -0.004539 0.000000 0.000000 0.000000
# 3 -0.001123 -0.004539 0.014471 0.000000 0.000000 0.000000
# 4 0.000000 0.000000 0.000000 0.039292 0.000000 0.000000
# 5 0.000000 0.000000 0.000000 0.000000 0.039093 0.000000
# 6 0.000000 0.000000 0.000000 0.000000 0.000000 0.038241
#
#
# Mechanical properties :
#
#
# Convention : Reuss Voigt Hill
#
# Bulk Modulus (GPa) = 50.46851 53.02692 51.74772
# Shear Modulus (GPa) = 28.00285 29.63664 28.81974
#
# Velocity S-wave (km/s) = 3.76585 3.87415 3.82038
# Velocity P-wave (km/s) = 6.66842 6.84592 6.75775
#
# Compressibility (1/GPa) = 0.01981433
#
# Stress axis : x y z
#
# Youngs Moduli (GPa) = 118.88229 68.09402 69.10385
#
# Poissons Ratio (x) = 0.21889 0.07760
# Poissons Ratio (y) = 0.38215 0.31369
# Poissons Ratio (z) = 0.13350 0.30911
#
# Static dielectric constant tensor:
#      x y z
#    x 3.969960 0.000000 0.000000 
#    y 0.000000 3.494300 0.000000 
#    z 0.000000 0.000000 3.457230 
# 
# 
# High freq. dielectric constant tensor:
#      x y z
#    x 1.785900 0.000000 0.000000 
#    y 0.000000 1.759380 0.000000 
#    z 0.000000 0.000000 1.746770 
# 
# From -- ./inp_files/50939.got.cif
#   From: 2010.06.25/outbox.cif.g09.slc.cpg/sg71_26_cif.got.tgz:50939.got - 2010.06.28 04:59:45.
