data_PCOD8290702
_publ_section_title
;
Structure prediction by ZEFSAII (Michael W. Deem and Ramdas Pophale) SiO2 
 PCOD8290702
Probable space group: I M M M
;
_chemical_formula_sum "Si O2"
_cell_formula_units_Z 80
_cell_length_a 8.054700
_cell_length_b 19.454568
_cell_length_c 26.918912
_cell_angle_alpha 90.000000
_cell_angle_beta 90.000000
_cell_angle_gamma 90.000000
_cell_volume 4218.212592
_symmetry_space_group_name_H-M "I M M M"
_symmetry_group_IT_number 71
_symmetry_cell_setting 'orthorhombic'
loop_
_space_group_symop_operation_xyz
x,y,z
-x,-y,z
x,-y,-z
-x,y,-z
-x,-y,-z
x,y,-z
-x,y,z
x,-y,z
1/2+x,1/2+y,1/2+z
1/2-x,1/2-y,1/2+z
1/2+x,1/2-y,1/2-z
1/2-x,1/2+y,1/2-z
1/2-x,1/2-y,1/2-z
1/2+x,1/2+y,1/2-z
1/2-x,1/2+y,1/2+z
1/2+x,1/2-y,1/2+z
loop_
_atom_site_type_symbol
_atom_site_label
_atom_site_fract_x
_atom_site_fract_y
_atom_site_fract_z
Si Si1 0.697992 0.421715 0.892315
Si Si2 0.815870 0.920177 0.115718
Si Si3 0.192324 0.685744 0.810629
Si Si4 0.681347 0.418680 0.000000
Si Si5 0.500000 0.918162 0.055095
Si Si6 0.811051 0.667477 0.698874
O O1 0.500000 0.416427 0.892667
O O2 0.753280 0.500000 0.880373
O O3 0.773033 0.372509 0.850909
O O4 0.769086 0.398765 0.947311
O O5 0.668949 0.890718 0.080805
O O6 0.808032 0.882786 0.168518
O O7 0.000000 0.907458 0.092284
O O8 0.786241 0.000000 0.125465
O O9 0.245399 0.659792 0.756036
O O10 0.293980 0.754896 0.821912
O O11 0.000000 0.705525 0.810708
O O12 0.659458 0.500000 0.000000
O O13 0.500000 0.383759 0.000000
O O14 0.500000 0.000000 0.053823
O O15 0.500000 0.887276 0.000000
O O16 0.000000 0.643422 0.691646
#
# Coordination Sequence:
#
# PCOD8290702 Si02
#       6
#    16  16  16   8   8  16
#     4   9  17  31  52  76 102 134 175 218 258 309
#     4  10  20  34  56  84 111 142 180 224 271 319
#     4  10  21  34  51  76 104 137 175 218 271 326
#     4   7  12  26  49  73  97 131 172 211 252 299
#     4   9  18  34  56  82 112 144 179 218 268 326
#     4  10  20  36  55  73 102 142 179 220 270 326
#
# _framework density 18.96538
#
# number of rings (size 3 to 8) (size 9 to 14) (size 15 to 20)
#    0.000    2.600    1.000    2.400    0.000    4.000 
#    0.000    6.500    2.200    1.800    0.000    0.000 
#    0.000    0.000    0.000    0.000    0.000    0.000 
#
# Total GULP energy -495712.279095 kJ/mol
# GULP energy per Si atom -12392.806977 kJ/mol
# Density = 1.892221 g / cm^3
# Si number density = 18.965380 Si / 1000 Ang^3
#
#
#
# Elastic Constant Matrix: (Units=GPa)
#
#
# Indices 1 2 3 4 5 6 
#
# 1 90.7680 23.1081 44.0358 0.0000 0.0000 0.0000
# 2 23.1081 52.9344 57.2070 0.0000 0.0000 0.0000
# 3 44.0358 57.2070 140.7264 0.0000 0.0000 0.0000
# 4 0.0000 0.0000 0.0000 9.2585 0.0000 0.0000
# 5 0.0000 0.0000 0.0000 0.0000 21.1433 0.0000
# 6 0.0000 0.0000 0.0000 0.0000 0.0000 24.9270
#
#
#
# Elastic Compliance Matrix: (Units=1/GPa)
#
#
# Indices 1 2 3 4 5 6 
#
# 1 0.013145 -0.002306 -0.003176 0.000000 0.000000 0.000000
# 2 -0.002306 0.034098 -0.013140 0.000000 0.000000 0.000000
# 3 -0.003176 -0.013140 0.013441 0.000000 0.000000 0.000000
# 4 0.000000 0.000000 0.000000 0.108009 0.000000 0.000000
# 5 0.000000 0.000000 0.000000 0.000000 0.047296 0.000000
# 6 0.000000 0.000000 0.000000 0.000000 0.000000 0.040117
#
#
# Mechanical properties :
#
#
# Convention : Reuss Voigt Hill
#
# Bulk Modulus (GPa) = 42.66022 59.23673 50.94848
# Shear Modulus (GPa) = 16.60226 21.73762 19.16994
#
# Velocity S-wave (km/s) = 2.96192 3.38919 3.18273
# Velocity P-wave (km/s) = 5.85148 6.82770 6.35835
#
# Compressibility (1/GPa) = 0.02344104
#
# Stress axis : x y z
#
# Youngs Moduli (GPa) = 76.07485 29.32694 74.39803
#
# Poissons Ratio (x) = 0.06763 0.23627
# Poissons Ratio (y) = 0.17544 0.97757
# Poissons Ratio (z) = 0.24160 0.38535
#
# Static dielectric constant tensor:
#      x y z
#    x 3.492070 0.000000 0.000000 
#    y 0.000000 3.180500 0.000000 
#    z 0.000000 0.000000 3.777790 
# 
# 
# High freq. dielectric constant tensor:
#      x y z
#    x 1.735750 0.000000 0.000000 
#    y 0.000000 1.705620 0.000000 
#    z 0.000000 0.000000 1.739650 
# 
# From -- ./inp_files/57462.got.cif
#   From: 2010.06.25/outbox.cif.g09.slc.cpg/sg71_29_cif.got.tgz:57462.got - 2010.06.28 04:59:45.
