data_PCOD8290901
_publ_section_title
;
Structure prediction by ZEFSAII (Michael W. Deem and Ramdas Pophale) SiO2 
 PCOD8290901
Probable space group: I M M M
;
_chemical_formula_sum "Si O2"
_cell_formula_units_Z 88
_cell_length_a 17.918002
_cell_length_b 8.843651
_cell_length_c 28.712833
_cell_angle_alpha 90.000000
_cell_angle_beta 90.000000
_cell_angle_gamma 90.000000
_cell_volume 4549.851490
_symmetry_space_group_name_H-M "I M M M"
_symmetry_group_IT_number 71
_symmetry_cell_setting 'orthorhombic'
loop_
_space_group_symop_operation_xyz
x,y,z
-x,-y,z
x,-y,-z
-x,y,-z
-x,-y,-z
x,y,-z
-x,y,z
x,-y,z
1/2+x,1/2+y,1/2+z
1/2-x,1/2-y,1/2+z
1/2+x,1/2-y,1/2-z
1/2-x,1/2+y,1/2-z
1/2-x,1/2-y,1/2-z
1/2+x,1/2+y,1/2-z
1/2-x,1/2+y,1/2+z
1/2+x,1/2-y,1/2+z
loop_
_atom_site_type_symbol
_atom_site_label
_atom_site_fract_x
_atom_site_fract_y
_atom_site_fract_z
Si Si1 0.859563 0.820660 0.899415
Si Si2 0.708639 0.179544 0.947819
Si Si3 0.173205 0.323084 0.195382
Si Si4 0.085134 0.325157 0.376439
Si Si5 0.000000 0.329644 0.054933
Si Si6 0.155782 0.176671 0.290273
O O1 0.783474 0.760109 0.923068
O O2 0.866609 0.760495 0.847073
O O3 0.927421 0.758872 0.929015
O O4 0.862276 0.000000 0.898814
O O5 0.637303 0.235503 0.918222
O O6 0.710073 0.000000 0.950428
O O7 0.703168 0.247512 0.000000
O O8 0.158807 0.500000 0.191124
O O9 0.135843 0.263668 0.242812
O O10 0.260596 0.281619 0.194038
O O11 0.103119 0.500000 0.365525
O O12 0.099159 0.230014 0.329909
O O13 0.000000 0.302402 0.392401
O O14 0.000000 0.500000 0.075221
O O15 0.000000 0.332817 0.000000
O O16 0.146289 0.000000 0.281128
#
# Coordination Sequence:
#
# PCOD8290901 Si02
#       6
#    16  16  16  16   8  16
#     4  11  21  37  62  88 118 152 194 244 293 351
#     4   9  18  33  56  86 116 148 190 240 289 339
#     4  10  20  35  59  87 116 149 190 238 292 351
#     4  10  20  35  56  83 118 157 197 242 290 340
#     4  11  25  43  61  85 121 159 195 241 298 357
#     4  10  20  35  57  84 115 151 192 237 289 348
#
# _framework density 19.341290999999998
#
# number of rings (size 3 to 8) (size 9 to 14) (size 15 to 20)
#    0.000    1.909    1.818    2.455    0.000    3.636 
#    1.636    1.818    0.000    1.636    0.000    1.273 
#    0.000    0.000    0.000    0.000    0.000    0.000 
#
# Total GULP energy -545794.286377 kJ/mol
# GULP energy per Si atom -12404.415599 kJ/mol
# Density = 1.929727 g / cm^3
# Si number density = 19.341291 Si / 1000 Ang^3
#
#
#
# Elastic Constant Matrix: (Units=GPa)
#
#
# Indices 1 2 3 4 5 6 
#
# 1 115.8562 33.6329 57.4535 0.0000 0.0000 0.0000
# 2 33.6329 72.8407 38.6994 0.0000 0.0000 0.0000
# 3 57.4535 38.6994 142.0006 0.0000 0.0000 0.0000
# 4 0.0000 0.0000 0.0000 27.9099 0.0000 0.0000
# 5 0.0000 0.0000 0.0000 0.0000 34.0084 0.0000
# 6 0.0000 0.0000 0.0000 0.0000 0.0000 23.8770
#
#
#
# Elastic Compliance Matrix: (Units=1/GPa)
#
#
# Indices 1 2 3 4 5 6 
#
# 1 0.011439 -0.003301 -0.003729 0.000000 0.000000 0.000000
# 2 -0.003301 0.017005 -0.003299 0.000000 0.000000 0.000000
# 3 -0.003729 -0.003299 0.009450 0.000000 0.000000 0.000000
# 4 0.000000 0.000000 0.000000 0.035830 0.000000 0.000000
# 5 0.000000 0.000000 0.000000 0.000000 0.029404 0.000000
# 6 0.000000 0.000000 0.000000 0.000000 0.000000 0.041881
#
#
# Mechanical properties :
#
#
# Convention : Reuss Voigt Hill
#
# Bulk Modulus (GPa) = 58.01340 65.58546 61.79943
# Shear Modulus (GPa) = 29.16960 30.55317 29.86139
#
# Velocity S-wave (km/s) = 3.88771 3.97884 3.93354
# Velocity P-wave (km/s) = 7.08605 7.42236 7.25615
#
# Compressibility (1/GPa) = 0.01723740
#
# Stress axis : x y z
#
# Youngs Moduli (GPa) = 87.42368 58.80507 105.82156
#
# Poissons Ratio (x) = 0.19409 0.39456
# Poissons Ratio (y) = 0.28855 0.34911
# Poissons Ratio (z) = 0.32596 0.19400
#
# Static dielectric constant tensor:
#      x y z
#    x 3.560880 0.000000 0.000000 
#    y 0.000000 3.398300 0.000000 
#    z 0.000000 0.000000 3.669590 
# 
# 
# High freq. dielectric constant tensor:
#      x y z
#    x 1.743670 0.000000 0.000000 
#    y 0.000000 1.740740 0.000000 
#    z 0.000000 0.000000 1.764620 
# 
# From -- ./inp_files/8760.got.cif
#   From: 2010.06.25/outbox.cif.g09.slc.cpg/sg71_5_cif.got.tgz:8760.got - 2010.06.28 04:59:45.
