data_PCOD8290556
_publ_section_title
;
Structure prediction by ZEFSAII (Michael W. Deem and Ramdas Pophale) SiO2 
 PCOD8290556
Probable space group: I M M M
;
_chemical_formula_sum "Si O2"
_cell_formula_units_Z 88
_cell_length_a 8.791060
_cell_length_b 30.535551
_cell_length_c 16.798858
_cell_angle_alpha 90.000000
_cell_angle_beta 90.000000
_cell_angle_gamma 90.000000
_cell_volume 4509.483106
_symmetry_space_group_name_H-M "I M M M"
_symmetry_group_IT_number 71
_symmetry_cell_setting 'orthorhombic'
loop_
_space_group_symop_operation_xyz
x,y,z
-x,-y,z
x,-y,-z
-x,y,-z
-x,-y,-z
x,y,-z
-x,y,z
x,-y,z
1/2+x,1/2+y,1/2+z
1/2-x,1/2-y,1/2+z
1/2+x,1/2-y,1/2-z
1/2-x,1/2+y,1/2-z
1/2-x,1/2-y,1/2-z
1/2+x,1/2+y,1/2-z
1/2-x,1/2+y,1/2+z
1/2+x,1/2-y,1/2+z
loop_
_atom_site_type_symbol
_atom_site_label
_atom_site_fract_x
_atom_site_fract_y
_atom_site_fract_z
Si Si1 0.181948 0.225362 0.672001
Si Si2 0.178602 0.500000 0.589210
Si Si3 0.319029 0.547808 0.910625
Si Si4 0.180087 0.873243 0.307735
Si Si5 0.326089 0.648234 0.500000
Si Si6 0.323014 0.761030 0.000000
Si Si7 0.824032 0.086320 0.855000
O O1 0.250000 0.250000 0.750000
O O2 0.241127 0.175234 0.673664
O O3 0.241744 0.242390 0.584901
O O4 0.000000 0.229221 0.678432
O O5 0.250727 0.500000 0.500000
O O6 0.230210 0.457899 0.637951
O O7 0.000000 0.500000 0.582557
O O8 0.500000 0.550634 0.908102
O O9 0.269276 0.500000 0.875086
O O10 0.248071 0.589186 0.864281
O O11 0.258293 0.551374 0.000000
O O12 0.232232 0.886471 0.220236
O O13 0.000000 0.872759 0.316698
O O14 0.500000 0.665393 0.500000
O O15 0.210246 0.687907 0.500000
O O16 0.288302 0.618482 0.425962
O O17 0.500000 0.751024 0.000000
O O18 0.000000 0.073013 0.849616
#
# Coordination Sequence:
#
# PCOD8290556 Si02
#       7
#    16   8  16  16   8   8  16
#     4  10  21  38  57  82 115 148 188 235 288 340
#     4  11  23  37  53  77 110 147 182 222 271 325
#     4   8  14  24  40  68 104 134 160 200 258 313
#     4   9  18  30  50  76 105 139 175 219 268 320
#     4  10  20  35  55  78 107 143 183 227 277 330
#     4  10  22  36  57  85 113 150 188 233 290 347
#     4  10  20  34  54  79 106 140 181 225 270 319
#
# _framework density 19.514430999999998
#
# number of rings (size 3 to 8) (size 9 to 14) (size 15 to 20)
#    0.000    2.455    0.909    1.909    2.545    3.273 
#    0.000    0.909    0.000    0.000    0.000    0.000 
#    0.000    0.727    0.000    0.000    0.000    0.000 
#
# Total GULP energy -545230.759509 kJ/mol
# GULP energy per Si atom -12391.608171 kJ/mol
# Density = 1.947002 g / cm^3
# Si number density = 19.514431 Si / 1000 Ang^3
#
#
#
# Elastic Constant Matrix: (Units=GPa)
#
#
# Indices 1 2 3 4 5 6 
#
# 1 21.3040 21.2022 19.1898 0.0001 0.0000 0.0000
# 2 21.2022 171.6864 82.3328 0.0006 0.0002 0.0001
# 3 19.1898 82.3328 152.3825 0.0015 0.0005 0.0001
# 4 0.0001 0.0006 0.0015 51.2673 0.0002 0.0001
# 5 0.0000 0.0002 0.0005 0.0002 31.3291 0.0001
# 6 0.0000 0.0001 0.0001 0.0001 0.0001 25.5415
#
#
#
# Elastic Compliance Matrix: (Units=1/GPa)
#
#
# Indices 1 2 3 4 5 6 
#
# 1 0.055665 -0.004741 -0.004448 0.000000 0.000000 0.000000
# 2 -0.004741 0.008265 -0.003869 0.000000 0.000000 0.000000
# 3 -0.004448 -0.003869 0.009213 0.000000 0.000000 0.000000
# 4 0.000000 0.000000 0.000000 0.019506 0.000000 0.000000
# 5 0.000000 0.000000 0.000000 0.000000 0.031919 0.000000
# 6 0.000000 0.000000 0.000000 0.000000 0.000000 0.039152
#
#
# Mechanical properties :
#
#
# Convention : Reuss Voigt Hill
#
# Bulk Modulus (GPa) = 21.26447 65.64692 43.45569
# Shear Modulus (GPa) = 24.32952 36.47079 30.40015
#
# Velocity S-wave (km/s) = 3.53476 4.32778 3.95122
# Velocity P-wave (km/s) = 5.25165 7.66069 6.56757
#
# Compressibility (1/GPa) = 0.04702681
#
# Stress axis : x y z
#
# Youngs Moduli (GPa) = 17.96466 120.98739 108.54323
#
# Poissons Ratio (x) = 0.57360 0.48284
# Poissons Ratio (y) = 0.08517 0.41993
# Poissons Ratio (z) = 0.07991 0.46807
#
# Static dielectric constant tensor:
#      x y z
#    x 3.023440 0.000000 0.000000 
#    y 0.000000 3.889020 0.000000 
#    z 0.000000 0.000000 3.874380 
# 
# 
# High freq. dielectric constant tensor:
#      x y z
#    x 1.702070 0.000000 0.000000 
#    y 0.000000 1.778370 0.000000 
#    z 0.000000 0.000000 1.775370 
# 
# From -- ./inp_files/42544.got.cif
#   From: 2010.06.25/outbox.cif.g09.slc.cpg/sg71_22_cif.got.tgz:42544.got - 2010.06.28 04:59:45.
