data_PCOD8290376
_publ_section_title
;
Structure prediction by ZEFSAII (Michael W. Deem and Ramdas Pophale) SiO2 
 PCOD8290376
Probable space group: I M M M
;
_chemical_formula_sum "Si O2"
_cell_formula_units_Z 120
_cell_length_a 27.137662
_cell_length_b 27.117420
_cell_length_c 8.967466
_cell_angle_alpha 90.000000
_cell_angle_beta 90.000000
_cell_angle_gamma 90.000000
_cell_volume 6599.188524
_symmetry_space_group_name_H-M "I M M M"
_symmetry_group_IT_number 71
_symmetry_cell_setting 'orthorhombic'
loop_
_space_group_symop_operation_xyz
x,y,z
-x,-y,z
x,-y,-z
-x,y,-z
-x,-y,-z
x,y,-z
-x,y,z
x,-y,z
1/2+x,1/2+y,1/2+z
1/2-x,1/2-y,1/2+z
1/2+x,1/2-y,1/2-z
1/2-x,1/2+y,1/2-z
1/2-x,1/2-y,1/2-z
1/2+x,1/2+y,1/2-z
1/2-x,1/2+y,1/2+z
1/2+x,1/2-y,1/2+z
loop_
_atom_site_type_symbol
_atom_site_label
_atom_site_fract_x
_atom_site_fract_y
_atom_site_fract_z
Si Si1 0.286303 0.555772 0.323929
Si Si2 0.411842 0.887722 0.676928
Si Si3 0.055277 0.813297 0.674743
Si Si4 0.355993 0.641419 0.326112
Si Si5 0.813911 0.443938 0.826122
Si Si6 0.500000 0.058289 0.830138
Si Si7 0.802241 0.242050 0.824430
Si Si8 0.607437 0.787769 0.824011
O O1 0.281226 0.559139 0.500000
O O2 0.298278 0.500000 0.270936
O O3 0.329847 0.591589 0.267582
O O4 0.234815 0.574621 0.257490
O O5 0.418443 0.883713 0.500000
O O6 0.358668 0.909128 0.722044
O O7 0.452153 0.924042 0.742688
O O8 0.419098 0.834749 0.752488
O O9 0.056794 0.821811 0.500000
O O10 0.091237 0.853646 0.747145
O O11 0.072807 0.758378 0.715719
O O12 0.000000 0.820709 0.737075
O O13 0.366703 0.638824 0.500000
O O14 0.320493 0.687060 0.286905
O O15 0.826797 0.500000 0.779880
O O16 0.803195 0.440048 0.000000
O O17 0.500000 0.000000 0.828628
O O18 0.500000 0.078413 0.000000
O O19 0.750000 0.250000 0.750000
O O20 0.839406 0.281352 0.752179
O O21 0.798938 0.251986 0.000000
O O22 0.614222 0.794708 0.000000
#
# Coordination Sequence:
#
# PCOD8290376 Si02
#       8
#    16  16  16  16  16   8  16  16
#     4   9  18  33  54  80 110 142 176 216 262 313
#     4  11  23  38  57  82 108 140 180 229 284 335
#     4   9  19  36  57  79 104 137 175 218 268 321
#     4   9  19  34  52  78 107 138 177 218 264 318
#     4   9  19  35  53  75 104 138 176 217 264 319
#     4  11  25  43  61  81 105 141 189 237 286 339
#     4  10  20  34  51  75 109 144 181 222 268 324
#     4  10  21  36  54  78 108 142 179 222 272 325
#
# _framework density 18.184055000000001
#
# number of rings (size 3 to 8) (size 9 to 14) (size 15 to 20)
#    0.000    2.333    0.000    1.800    2.800    4.000 
#    0.000    1.333    0.000    0.400    0.000    2.800 
#    0.000    0.000    0.000    0.000    0.000    0.000 
#
# Total GULP energy -744164.813340 kJ/mol
# GULP energy per Si atom -12402.746889 kJ/mol
# Density = 1.814267 g / cm^3
# Si number density = 18.184055 Si / 1000 Ang^3
#
#
#
# Elastic Constant Matrix: (Units=GPa)
#
#
# Indices 1 2 3 4 5 6 
#
# 1 153.1739 60.1076 53.6529 0.0000 0.0000 0.0000
# 2 60.1076 86.4232 36.2274 0.0000 0.0000 0.0000
# 3 53.6529 36.2274 64.8489 0.0000 0.0000 0.0000
# 4 0.0000 0.0000 0.0000 26.4282 0.0000 0.0000
# 5 0.0000 0.0000 0.0000 0.0000 33.5265 0.0000
# 6 0.0000 0.0000 0.0000 0.0000 0.0000 21.8311
#
#
#
# Elastic Compliance Matrix: (Units=1/GPa)
#
#
# Indices 1 2 3 4 5 6 
#
# 1 0.010519 -0.004790 -0.006028 0.000000 0.000000 0.000000
# 2 -0.004790 0.017290 -0.005696 0.000000 0.000000 0.000000
# 3 -0.006028 -0.005696 0.023590 0.000000 0.000000 0.000000
# 4 0.000000 0.000000 0.000000 0.037838 0.000000 0.000000
# 5 0.000000 0.000000 0.000000 0.000000 0.029827 0.000000
# 6 0.000000 0.000000 0.000000 0.000000 0.000000 0.045806
#
#
# Mechanical properties :
#
#
# Convention : Reuss Voigt Hill
#
# Bulk Modulus (GPa) = 54.43041 67.15800 60.79420
# Shear Modulus (GPa) = 24.50726 26.65436 25.58081
#
# Velocity S-wave (km/s) = 3.67513 3.83274 3.75476
# Velocity P-wave (km/s) = 6.92870 7.52324 7.23208
#
# Compressibility (1/GPa) = 0.01837208
#
# Stress axis : x y z
#
# Youngs Moduli (GPa) = 95.06334 57.83716 42.39174
#
# Poissons Ratio (x) = 0.27701 0.25552
# Poissons Ratio (y) = 0.45531 0.24147
# Poissons Ratio (z) = 0.57300 0.32945
#
# Static dielectric constant tensor:
#      x y z
#    x 3.346470 0.000000 0.000000 
#    y 0.000000 3.441480 0.000000 
#    z 0.000000 0.000000 3.375950 
# 
# 
# High freq. dielectric constant tensor:
#      x y z
#    x 1.705010 0.000000 0.000000 
#    y 0.000000 1.698130 0.000000 
#    z 0.000000 0.000000 1.707900 
# 
# From -- ./inp_files/15610.got.cif
#   From: 2010.06.25/outbox.cif.g09.slc.cpg/sg71_8_cif.got.tgz:15610.got - 2010.06.28 04:59:45.
