data_PCOD8290426
_publ_section_title
;
Structure prediction by ZEFSAII (Michael W. Deem and Ramdas Pophale) SiO2 
 PCOD8290426
Probable space group: I M M M
;
_chemical_formula_sum "Si O2"
_cell_formula_units_Z 72
_cell_length_a 11.958781
_cell_length_b 22.488117
_cell_length_c 14.034125
_cell_angle_alpha 90.000000
_cell_angle_beta 90.000000
_cell_angle_gamma 90.000000
_cell_volume 3774.203780
_symmetry_space_group_name_H-M "I M M M"
_symmetry_group_IT_number 71
_symmetry_cell_setting 'orthorhombic'
loop_
_space_group_symop_operation_xyz
x,y,z
-x,-y,z
x,-y,-z
-x,y,-z
-x,-y,-z
x,y,-z
-x,y,z
x,-y,z
1/2+x,1/2+y,1/2+z
1/2-x,1/2-y,1/2+z
1/2+x,1/2-y,1/2-z
1/2-x,1/2+y,1/2-z
1/2-x,1/2-y,1/2-z
1/2+x,1/2+y,1/2-z
1/2-x,1/2+y,1/2+z
1/2+x,1/2-y,1/2+z
loop_
_atom_site_type_symbol
_atom_site_label
_atom_site_fract_x
_atom_site_fract_y
_atom_site_fract_z
Si Si1 0.128259 0.097901 0.894298
Si Si2 0.500000 0.429408 0.892824
Si Si3 0.725133 0.433648 0.207153
Si Si4 0.246743 0.217286 0.108022
Si Si5 0.369370 0.822188 0.710991
O O1 0.203461 0.061549 0.820310
O O2 0.148874 0.168435 0.884603
O O3 0.000000 0.084591 0.871572
O O4 0.160333 0.075662 0.000000
O O5 0.500000 0.500000 0.890496
O O6 0.387285 0.406708 0.841330
O O7 0.500000 0.404363 0.000000
O O8 0.754996 0.500000 0.168902
O O9 0.827279 0.389074 0.188614
O O10 0.345823 0.198391 0.180263
O O11 0.194133 0.279965 0.136977
O O12 0.294465 0.221337 0.000000
O O13 0.500000 0.820257 0.691208
#
# Coordination Sequence:
#
# PCOD8290426 Si02
#       5
#    16   8  16  16  16
#     4   9  16  28  51  80 106 133 169 218 274 326
#     4   9  18  34  53  71  99 141 186 230 268 303
#     4  10  20  34  52  76 109 146 184 224 267 315
#     4   9  19  36  56  79 107 141 178 219 271 324
#     4  10  21  36  56  82 112 142 179 224 268 326
#
# _framework density 19.076871000000001
#
# number of rings (size 3 to 8) (size 9 to 14) (size 15 to 20)
#    0.000    2.556    1.111    0.667    0.000    3.556 
#    2.000    1.111    0.000    0.000    0.000   10.889 
#    0.000    0.000    0.000    0.000    0.000    0.000 
#
# Total GULP energy -446301.165669 kJ/mol
# GULP energy per Si atom -12397.254602 kJ/mol
# Density = 1.903345 g / cm^3
# Si number density = 19.076871 Si / 1000 Ang^3
#
#
#
# Elastic Constant Matrix: (Units=GPa)
#
#
# Indices 1 2 3 4 5 6 
#
# 1 56.4367 25.6473 0.7830 0.0000 0.0000 0.0000
# 2 25.6473 90.5216 12.0465 0.0003 0.0000 0.0000
# 3 0.7830 12.0465 78.5434 0.0004 0.0000 0.0000
# 4 0.0000 0.0003 0.0004 20.5192 0.0000 0.0000
# 5 0.0000 0.0000 0.0000 0.0000 16.8792 0.0000
# 6 0.0000 0.0000 0.0000 0.0000 0.0000 18.8296
#
#
#
# Elastic Compliance Matrix: (Units=1/GPa)
#
#
# Indices 1 2 3 4 5 6 
#
# 1 0.020375 -0.005865 0.000696 0.000000 0.000000 0.000000
# 2 -0.005865 0.012966 -0.001930 0.000000 0.000000 0.000000
# 3 0.000696 -0.001930 0.013021 0.000000 0.000000 0.000000
# 4 0.000000 0.000000 0.000000 0.048735 0.000000 0.000000
# 5 0.000000 0.000000 0.000000 0.000000 0.059245 0.000000
# 6 0.000000 0.000000 0.000000 0.000000 0.000000 0.053108
#
#
# Mechanical properties :
#
#
# Convention : Reuss Voigt Hill
#
# Bulk Modulus (GPa) = 31.09131 33.60613 32.34872
# Shear Modulus (GPa) = 21.51757 23.71391 22.61574
#
# Velocity S-wave (km/s) = 3.36213 3.52955 3.44685
# Velocity P-wave (km/s) = 5.60403 5.85360 5.73018
#
# Compressibility (1/GPa) = 0.03216333
#
# Stress axis : x y z
#
# Youngs Moduli (GPa) = 49.08017 77.12603 76.79957
#
# Poissons Ratio (x) = 0.45238 -0.05349
# Poissons Ratio (y) = 0.28788 0.14823
# Poissons Ratio (z) = -0.03418 0.14886
#
# Static dielectric constant tensor:
#      x y z
#    x 3.176860 0.000000 0.000000 
#    y 0.000000 3.394870 0.000000 
#    z 0.000000 0.000000 3.696760 
# 
# 
# High freq. dielectric constant tensor:
#      x y z
#    x 1.708340 0.000000 0.000000 
#    y 0.000000 1.737110 0.000000 
#    z 0.000000 0.000000 1.748190 
# 
# From -- ./inp_files/32609.got.cif
#   From: 2010.06.25/outbox.cif.g09.slc.cpg/sg71_17_cif.got.tgz:32609.got - 2010.06.28 04:59:45.
