data_PCOD8290300
_publ_section_title
;
Structure prediction by ZEFSAII (Michael W. Deem and Ramdas Pophale) SiO2 
 PCOD8290300
Probable space group: I M M M
;
_chemical_formula_sum "Si O2"
_cell_formula_units_Z 112
_cell_length_a 24.033346
_cell_length_b 20.552064
_cell_length_c 12.181998
_cell_angle_alpha 90.000000
_cell_angle_beta 90.000000
_cell_angle_gamma 90.000000
_cell_volume 6017.113539
_symmetry_space_group_name_H-M "I M M M"
_symmetry_group_IT_number 71
_symmetry_cell_setting 'orthorhombic'
loop_
_space_group_symop_operation_xyz
x,y,z
-x,-y,z
x,-y,-z
-x,y,-z
-x,-y,-z
x,y,-z
-x,y,z
x,-y,z
1/2+x,1/2+y,1/2+z
1/2-x,1/2-y,1/2+z
1/2+x,1/2-y,1/2-z
1/2-x,1/2+y,1/2-z
1/2-x,1/2-y,1/2-z
1/2+x,1/2+y,1/2-z
1/2-x,1/2+y,1/2+z
1/2+x,1/2-y,1/2+z
loop_
_atom_site_type_symbol
_atom_site_label
_atom_site_fract_x
_atom_site_fract_y
_atom_site_fract_z
Si Si1 0.436547 0.317120 0.876767
Si Si2 0.359388 0.428144 0.128644
Si Si3 0.919159 0.573318 0.622815
Si Si4 0.826521 0.261677 0.126437
Si Si5 0.788466 0.429892 0.377811
Si Si6 0.062145 0.693830 0.228561
Si Si7 0.728069 0.660664 0.778271
O O1 0.500000 0.338145 0.876402
O O2 0.404980 0.378442 0.821698
O O3 0.426151 0.249982 0.815964
O O4 0.413788 0.305992 0.000000
O O5 0.365056 0.500000 0.183116
O O6 0.299429 0.397683 0.154158
O O7 0.367545 0.435536 0.000000
O O8 0.941955 0.589045 0.500000
O O9 0.937831 0.500000 0.656673
O O10 0.853710 0.578550 0.621013
O O11 0.942046 0.624364 0.711101
O O12 0.885081 0.301172 0.145400
O O13 0.770550 0.304536 0.138529
O O14 0.818960 0.205731 0.219552
O O15 0.828278 0.236150 0.000000
O O16 0.764265 0.428599 0.500000
O O17 0.772715 0.500000 0.323800
O O18 0.764420 0.368134 0.318401
O O19 0.000000 0.704237 0.173688
#
# Coordination Sequence:
#
# PCOD8290300 Si02
#       7
#    16  16  16  16  16  16  16
#     4   9  18  33  53  79 110 143 181 221 263 317
#     4  10  20  33  53  83 115 146 178 213 262 325
#     4   9  18  33  54  83 115 142 175 223 277 331
#     4  11  24  38  55  81 105 138 187 231 274 322
#     4   9  17  30  52  80 107 138 173 209 259 324
#     4  11  21  37  57  77 106 146 185 228 277 322
#     4  11  20  37  56  77 110 143 171 224 274 326
#
# _framework density 18.613575999999998
#
# number of rings (size 3 to 8) (size 9 to 14) (size 15 to 20)
#    0.000    2.000    2.857    2.571    0.000    1.714 
#    0.000    2.143    0.000    1.286    0.000    1.000 
#    0.000    2.286    0.000    0.000    0.000    0.000 
#
# Total GULP energy -693766.896100 kJ/mol
# GULP energy per Si atom -12388.694573 kJ/mol
# Density = 1.857121 g / cm^3
# Si number density = 18.613576 Si / 1000 Ang^3
#
#
#
# Elastic Constant Matrix: (Units=GPa)
#
#
# Indices 1 2 3 4 5 6 
#
# 1 76.2855 29.8086 26.8121 0.0000 0.0000 0.0000
# 2 29.8086 110.4080 17.6339 0.0000 0.0000 0.0000
# 3 26.8121 17.6339 38.6298 0.0000 0.0000 0.0000
# 4 0.0000 0.0000 0.0000 24.2028 0.0000 0.0000
# 5 0.0000 0.0000 0.0000 0.0000 51.2625 0.0000
# 6 0.0000 0.0000 0.0000 0.0000 0.0000 18.6128
#
#
#
# Elastic Compliance Matrix: (Units=1/GPa)
#
#
# Indices 1 2 3 4 5 6 
#
# 1 0.018295 -0.003140 -0.011265 0.000000 0.000000 0.000000
# 2 -0.003140 0.010309 -0.002526 0.000000 0.000000 0.000000
# 3 -0.011265 -0.002526 0.034858 0.000000 0.000000 0.000000
# 4 0.000000 0.000000 0.000000 0.041317 0.000000 0.000000
# 5 0.000000 0.000000 0.000000 0.000000 0.019507 0.000000
# 6 0.000000 0.000000 0.000000 0.000000 0.000000 0.053727
#
#
# Mechanical properties :
#
#
# Convention : Reuss Voigt Hill
#
# Bulk Modulus (GPa) = 33.78388 41.53695 37.66042
# Shear Modulus (GPa) = 22.54874 28.88687 25.71780
#
# Velocity S-wave (km/s) = 3.48431 3.94372 3.72111
# Velocity P-wave (km/s) = 5.86317 6.56514 6.22406
#
# Compressibility (1/GPa) = 0.02959991
#
# Stress axis : x y z
#
# Youngs Moduli (GPa) = 54.66017 97.00648 28.68749
#
# Poissons Ratio (x) = 0.30462 0.32315
# Poissons Ratio (y) = 0.17164 0.07247
# Poissons Ratio (z) = 0.61572 0.24505
#
# Static dielectric constant tensor:
#      x y z
#    x 3.532360 0.000000 0.000000 
#    y 0.000000 4.171650 0.000000 
#    z 0.000000 0.000000 3.164620 
# 
# 
# High freq. dielectric constant tensor:
#      x y z
#    x 1.731090 0.000000 0.000000 
#    y 0.000000 1.729830 0.000000 
#    z 0.000000 0.000000 1.683620 
# 
# From -- ./inp_files/26271.got.cif
#   From: 2010.06.25/outbox.cif.g09.slc.cpg/sg71_14_cif.got.tgz:26271.got - 2010.06.28 04:59:45.
