data_PCOD8290072
_publ_section_title
;
Structure prediction by ZEFSAII (Michael W. Deem and Ramdas Pophale) SiO2 
 PCOD8290072
Probable space group: I M M M
;
_chemical_formula_sum "Si O2"
_cell_formula_units_Z 56
_cell_length_a 36.427404
_cell_length_b 9.426524
_cell_length_c 9.221878
_cell_angle_alpha 90.000000
_cell_angle_beta 90.000000
_cell_angle_gamma 90.000000
_cell_volume 3166.643493
_symmetry_space_group_name_H-M "I M M M"
_symmetry_group_IT_number 71
_symmetry_cell_setting 'orthorhombic'
loop_
_space_group_symop_operation_xyz
x,y,z
-x,-y,z
x,-y,-z
-x,y,-z
-x,-y,-z
x,y,-z
-x,y,z
x,-y,z
1/2+x,1/2+y,1/2+z
1/2-x,1/2-y,1/2+z
1/2+x,1/2-y,1/2-z
1/2-x,1/2+y,1/2-z
1/2-x,1/2-y,1/2-z
1/2+x,1/2+y,1/2-z
1/2-x,1/2+y,1/2+z
1/2+x,1/2-y,1/2+z
loop_
_atom_site_type_symbol
_atom_site_label
_atom_site_fract_x
_atom_site_fract_y
_atom_site_fract_z
Si Si1 0.718496 0.833181 0.831815
Si Si2 0.932440 0.658364 0.172632
Si Si3 0.000000 0.840417 0.173205
Si Si4 0.852038 0.331528 0.838853
O O1 0.750000 0.750000 0.750000
O O2 0.679398 0.779191 0.770510
O O3 0.723793 0.000000 0.804233
O O4 0.720078 0.794404 0.000000
O O5 0.939059 0.500000 0.235366
O O6 0.963836 0.761698 0.234326
O O7 0.892189 0.718364 0.218277
O O8 0.934134 0.651758 0.000000
O O9 0.000000 0.000000 0.233545
O O10 0.000000 0.838903 0.000000
O O11 0.852960 0.500000 0.847683
O O12 0.843910 0.269879 0.000000
#
# Coordination Sequence:
#
# PCOD8290072 Si02
#       4
#    16  16   8  16
#     4  10  20  33  50  72  96 123 155 191 233 280
#     4   8  13  22  37  55  76 108 148 182 214 259
#     4   9  15  21  31  53  86 115 136 170 222 267
#     4   8  14  26  44  64  87 117 152 189 227 267
#
# _framework density 17.684339000000001
#
# number of rings (size 3 to 8) (size 9 to 14) (size 15 to 20)
#    0.000    3.286    0.000    3.000    0.000    3.429 
#    0.000    1.429    0.000    5.143    0.000    1.000 
#    0.000    8.000    0.000    0.000    0.000    0.000 
#
# Total GULP energy -347018.826788 kJ/mol
# GULP energy per Si atom -12393.529528 kJ/mol
# Density = 1.764409 g / cm^3
# Si number density = 17.684339 Si / 1000 Ang^3
#
#
#
# Elastic Constant Matrix: (Units=GPa)
#
#
# Indices 1 2 3 4 5 6 
#
# 1 200.7776 69.3581 64.1507 0.0000 0.0000 0.0000
# 2 69.3581 69.3073 30.9136 0.0000 0.0000 0.0000
# 3 64.1507 30.9136 68.5951 0.0000 0.0000 0.0000
# 4 0.0000 0.0000 0.0000 12.8303 0.0000 0.0000
# 5 0.0000 0.0000 0.0000 0.0000 20.4082 0.0000
# 6 0.0000 0.0000 0.0000 0.0000 0.0000 26.3349
#
#
#
# Elastic Compliance Matrix: (Units=1/GPa)
#
#
# Indices 1 2 3 4 5 6 
#
# 1 0.008990 -0.006566 -0.005448 0.000000 0.000000 0.000000
# 2 -0.006566 0.022855 -0.004159 0.000000 0.000000 0.000000
# 3 -0.005448 -0.004159 0.021548 0.000000 0.000000 0.000000
# 4 0.000000 0.000000 0.000000 0.077941 0.000000 0.000000
# 5 0.000000 0.000000 0.000000 0.000000 0.049000 0.000000
# 6 0.000000 0.000000 0.000000 0.000000 0.000000 0.037972
#
#
# Mechanical properties :
#
#
# Convention : Reuss Voigt Hill
#
# Bulk Modulus (GPa) = 47.51642 74.16942 60.84292
# Shear Modulus (GPa) = 19.40494 23.53185 21.46839
#
# Velocity S-wave (km/s) = 3.31614 3.65178 3.48800
# Velocity P-wave (km/s) = 6.44902 7.73385 7.12048
#
# Compressibility (1/GPa) = 0.02104536
#
# Stress axis : x y z
#
# Youngs Moduli (GPa) = 111.23972 43.75486 46.40876
#
# Poissons Ratio (x) = 0.28730 0.25283
# Poissons Ratio (y) = 0.73042 0.19302
# Poissons Ratio (z) = 0.60603 0.18198
#
# Static dielectric constant tensor:
#      x y z
#    x 3.841490 0.000000 0.000000 
#    y 0.000000 3.090920 0.000000 
#    z 0.000000 0.000000 2.931590 
# 
# 
# High freq. dielectric constant tensor:
#      x y z
#    x 1.706400 0.000000 0.000000 
#    y 0.000000 1.649070 0.000000 
#    z 0.000000 0.000000 1.633610 
# 
# From -- ./inp_files/16069.got.cif
#   From: 2010.06.25/outbox.cif.g09.slc.cpg/sg71_9_cif.got.tgz:16069.got - 2010.06.28 04:59:45.
