data_PCOD8290259
_publ_section_title
;
Structure prediction by ZEFSAII (Michael W. Deem and Ramdas Pophale) SiO2 
 PCOD8290259
Probable space group: I M M M
;
_chemical_formula_sum "Si O2"
_cell_formula_units_Z 72
_cell_length_a 13.800834
_cell_length_b 33.433961
_cell_length_c 7.890750
_cell_angle_alpha 90.000000
_cell_angle_beta 90.000000
_cell_angle_gamma 90.000000
_cell_volume 3640.922608
_symmetry_space_group_name_H-M "I M M M"
_symmetry_group_IT_number 71
_symmetry_cell_setting 'orthorhombic'
loop_
_space_group_symop_operation_xyz
x,y,z
-x,-y,z
x,-y,-z
-x,y,-z
-x,-y,-z
x,y,-z
-x,y,z
x,-y,z
1/2+x,1/2+y,1/2+z
1/2-x,1/2-y,1/2+z
1/2+x,1/2-y,1/2-z
1/2-x,1/2+y,1/2-z
1/2-x,1/2-y,1/2-z
1/2+x,1/2+y,1/2-z
1/2-x,1/2+y,1/2+z
1/2+x,1/2-y,1/2+z
loop_
_atom_site_type_symbol
_atom_site_label
_atom_site_fract_x
_atom_site_fract_y
_atom_site_fract_z
Si Si1 0.105575 0.610362 0.305812
Si Si2 0.890642 0.229499 0.798889
Si Si3 0.705338 0.810801 0.304798
Si Si4 0.606505 0.452854 0.000000
Si Si5 0.256673 0.453439 0.696954
O O1 0.085362 0.603018 0.500000
O O2 0.169582 0.649995 0.289222
O O3 0.163812 0.571725 0.239718
O O4 0.000000 0.613896 0.213441
O O5 0.820448 0.195232 0.724779
O O6 0.853408 0.272592 0.732197
O O7 0.000000 0.222158 0.733266
O O8 0.885589 0.228217 0.000000
O O9 0.682245 0.817036 0.500000
O O10 0.658505 0.439701 0.174926
O O11 0.597469 0.500000 0.000000
O O12 0.500000 0.432974 0.000000
O O13 0.285668 0.444129 0.500000
O O14 0.231274 0.500000 0.719255
#
# Coordination Sequence:
#
# PCOD8290259 Si02
#       5
#    16  16  16   8  16
#     4  10  21  36  55  79 108 144 182 221 271 330
#     4   9  18  34  54  75 103 140 179 220 270 325
#     4  10  20  33  52  79 108 137 176 225 271 323
#     4   9  18  34  57  83 109 141 184 230 277 331
#     4   9  19  36  57  83 115 148 186 233 279 328
#
# _framework density 19.775207000000002
#
# number of rings (size 3 to 8) (size 9 to 14) (size 15 to 20)
#    0.000    2.556    0.000    1.333    1.556    3.556 
#    0.000    5.556    0.000    3.333    0.000    0.000 
#    0.000    0.000    0.000    0.000    0.000    0.000 
#
# Total GULP energy -446227.323187 kJ/mol
# GULP energy per Si atom -12395.203422 kJ/mol
# Density = 1.973020 g / cm^3
# Si number density = 19.775207 Si / 1000 Ang^3
#
#
#
# Elastic Constant Matrix: (Units=GPa)
#
#
# Indices 1 2 3 4 5 6 
#
# 1 183.1685 69.8152 37.7169 -0.0179 0.0128 0.0039
# 2 69.8152 89.6212 21.0277 -0.0472 0.0190 0.0121
# 3 37.7169 21.0277 56.6096 -0.1095 0.0437 0.0154
# 4 -0.0179 -0.0472 -0.1095 19.9532 0.0291 0.0156
# 5 0.0128 0.0190 0.0437 0.0291 20.7119 -0.0002
# 6 0.0039 0.0121 0.0154 0.0156 -0.0002 22.2961
#
#
#
# Elastic Compliance Matrix: (Units=1/GPa)
#
#
# Indices 1 2 3 4 5 6 
#
# 1 0.008335 -0.005686 -0.003442 -0.000025 0.000007 0.000004
# 2 -0.005686 0.016102 -0.002193 0.000021 -0.000007 -0.000006
# 3 -0.003442 -0.002193 0.020773 0.000106 -0.000040 -0.000013
# 4 -0.000025 0.000021 0.000106 0.050118 -0.000071 -0.000035
# 5 0.000007 -0.000007 -0.000040 -0.000071 0.048282 0.000001
# 6 0.000004 -0.000006 -0.000013 -0.000035 0.000001 0.044851
#
#
# Mechanical properties :
#
#
# Convention : Reuss Voigt Hill
#
# Bulk Modulus (GPa) = 44.30761 65.16876 54.73819
# Shear Modulus (GPa) = 22.87036 25.98153 24.42595
#
# Velocity S-wave (km/s) = 3.40445 3.62863 3.51833
# Velocity P-wave (km/s) = 6.15695 7.11212 6.65170
#
# Compressibility (1/GPa) = 0.02256949
#
# Stress axis : x y z
#
# Youngs Moduli (GPa) = 119.97259 62.10501 48.14033
#
# Poissons Ratio (x) = 0.35311 0.16568
# Poissons Ratio (y) = 0.68213 0.10556
# Poissons Ratio (z) = 0.41289 0.13618
#
# Static dielectric constant tensor:
#      x y z
#    x 4.217350 0.000010 0.000090 
#    y 0.000010 3.418030 0.000000 
#    z 0.000090 0.000000 3.526090 
# 
# 
# High freq. dielectric constant tensor:
#      x y z
#    x 1.774410 0.000000 0.000000 
#    y 0.000000 1.752560 0.000000 
#    z 0.000000 0.000000 1.766840 
# 
# From -- ./inp_files/6478.got.cif
#   From: 2010.06.25/outbox.cif.g09.slc.cpg/sg71_4_cif.got.tgz:6478.got - 2010.06.28 04:59:45.
