data_PCOD8290554
_publ_section_title
;
Structure prediction by ZEFSAII (Michael W. Deem and Ramdas Pophale) SiO2 
 PCOD8290554
Probable space group: I M M M
;
_chemical_formula_sum "Si O2"
_cell_formula_units_Z 96
_cell_length_a 20.288285
_cell_length_b 8.917568
_cell_length_c 27.908061
_cell_angle_alpha 90.000000
_cell_angle_beta 90.000000
_cell_angle_gamma 90.000000
_cell_volume 5049.186708
_symmetry_space_group_name_H-M "I M M M"
_symmetry_group_IT_number 71
_symmetry_cell_setting 'orthorhombic'
loop_
_space_group_symop_operation_xyz
x,y,z
-x,-y,z
x,-y,-z
-x,y,-z
-x,-y,-z
x,y,-z
-x,y,z
x,-y,z
1/2+x,1/2+y,1/2+z
1/2-x,1/2-y,1/2+z
1/2+x,1/2-y,1/2-z
1/2-x,1/2+y,1/2-z
1/2-x,1/2-y,1/2-z
1/2+x,1/2+y,1/2-z
1/2-x,1/2+y,1/2+z
1/2+x,1/2-y,1/2+z
loop_
_atom_site_type_symbol
_atom_site_label
_atom_site_fract_x
_atom_site_fract_y
_atom_site_fract_z
Si Si1 0.310884 0.176203 0.444832
Si Si2 0.574985 0.825885 0.291801
Si Si3 0.305826 0.178556 0.113972
Si Si4 0.927456 0.321749 0.446345
Si Si5 0.076324 0.825085 0.890617
Si Si6 0.809603 0.323943 0.722629
O O1 0.296584 0.216902 0.500000
O O2 0.257745 0.254435 0.411249
O O3 0.382706 0.237904 0.430877
O O4 0.308907 0.000000 0.435988
O O5 0.500000 0.789060 0.276615
O O6 0.596749 0.730730 0.337873
O O7 0.621330 0.779688 0.247506
O O8 0.583258 0.000000 0.305187
O O9 0.371437 0.242703 0.088439
O O10 0.309917 0.235580 0.168390
O O11 0.301741 0.000000 0.110592
O O12 0.913393 0.262714 0.500000
O O13 0.925651 0.500000 0.445927
O O14 0.000000 0.266711 0.429264
O O15 0.000000 0.790056 0.900677
O O16 0.092399 0.000000 0.893866
O O17 0.798680 0.500000 0.723773
O O18 0.750000 0.250000 0.750000
#
# Coordination Sequence:
#
# PCOD8290554 Si02
#       6
#    16  16  16  16  16  16
#     4  11  24  39  55  77 106 140 177 217 264 321
#     4   9  18  34  55  78 108 145 179 212 257 313
#     4  10  20  34  54  79 106 138 178 222 264 307
#     4   8  14  26  47  76 106 133 163 204 255 306
#     4  10  21  37  58  83 108 135 172 218 264 312
#     4  10  21  34  50  75 104 136 174 215 258 303
#
# _framework density 19.012962000000002
#
# number of rings (size 3 to 8) (size 9 to 14) (size 15 to 20)
#    0.000    2.333    0.000    3.000    0.000    8.000 
#    0.000    5.000    0.000    0.500    0.000    4.667 
#    0.000    0.000    0.000    0.000    0.000    0.000 
#
# Total GULP energy -595259.915893 kJ/mol
# GULP energy per Si atom -12401.248248 kJ/mol
# Density = 1.896969 g / cm^3
# Si number density = 19.012962 Si / 1000 Ang^3
#
#
#
# Elastic Constant Matrix: (Units=GPa)
#
#
# Indices 1 2 3 4 5 6 
#
# 1 121.2394 27.7135 71.8315 0.0000 0.0000 0.0000
# 2 27.7135 32.5904 34.0647 0.0000 0.0000 0.0000
# 3 71.8315 34.0647 127.1668 0.0000 0.0000 0.0000
# 4 0.0000 0.0000 0.0000 25.9936 0.0000 0.0000
# 5 0.0000 0.0000 0.0000 0.0000 43.2641 0.0000
# 6 0.0000 0.0000 0.0000 0.0000 0.0000 22.4890
#
#
#
# Elastic Compliance Matrix: (Units=1/GPa)
#
#
# Indices 1 2 3 4 5 6 
#
# 1 0.012886 -0.004652 -0.006032 0.000000 0.000000 0.000000
# 2 -0.004652 0.044296 -0.009238 0.000000 0.000000 0.000000
# 3 -0.006032 -0.009238 0.013746 0.000000 0.000000 0.000000
# 4 0.000000 0.000000 0.000000 0.038471 0.000000 0.000000
# 5 0.000000 0.000000 0.000000 0.000000 0.023114 0.000000
# 6 0.000000 0.000000 0.000000 0.000000 0.000000 0.044466
#
#
# Mechanical properties :
#
#
# Convention : Reuss Voigt Hill
#
# Bulk Modulus (GPa) = 32.17277 60.91291 46.54284
# Shear Modulus (GPa) = 22.00868 28.17515 25.09191
#
# Velocity S-wave (km/s) = 3.40599 3.85371 3.63675
# Velocity P-wave (km/s) = 5.69437 7.20476 6.49363
#
# Compressibility (1/GPa) = 0.03108218
#
# Stress axis : x y z
#
# Youngs Moduli (GPa) = 77.60605 22.57566 72.74988
#
# Poissons Ratio (x) = 0.10502 0.43886
# Poissons Ratio (y) = 0.36103 0.67205
# Poissons Ratio (z) = 0.46815 0.20855
#
# Static dielectric constant tensor:
#      x y z
#    x 3.619550 0.000000 0.000000 
#    y 0.000000 3.274530 0.000000 
#    z 0.000000 0.000000 3.644880 
# 
# 
# High freq. dielectric constant tensor:
#      x y z
#    x 1.754420 0.000000 0.000000 
#    y 0.000000 1.716130 0.000000 
#    z 0.000000 0.000000 1.741510 
# 
# From -- ./inp_files/10856.got.cif
#   From: 2010.06.25/outbox.cif.g09.slc.cpg/sg71_6_cif.got.tgz:10856.got - 2010.06.28 04:59:45.
