data_PCOD8290076
_publ_section_title
;
Structure prediction by ZEFSAII (Michael W. Deem and Ramdas Pophale) SiO2 
 PCOD8290076
Probable space group: I M M M
;
_chemical_formula_sum "Si O2"
_cell_formula_units_Z 120
_cell_length_a 8.440276
_cell_length_b 29.083454
_cell_length_c 27.217919
_cell_angle_alpha 90.000000
_cell_angle_beta 90.000000
_cell_angle_gamma 90.000000
_cell_volume 6681.247323
_symmetry_space_group_name_H-M "I M M M"
_symmetry_group_IT_number 71
_symmetry_cell_setting 'orthorhombic'
loop_
_space_group_symop_operation_xyz
x,y,z
-x,-y,z
x,-y,-z
-x,y,-z
-x,-y,-z
x,y,-z
-x,y,z
x,-y,z
1/2+x,1/2+y,1/2+z
1/2-x,1/2-y,1/2+z
1/2+x,1/2-y,1/2-z
1/2-x,1/2+y,1/2-z
1/2-x,1/2-y,1/2-z
1/2+x,1/2+y,1/2-z
1/2-x,1/2+y,1/2+z
1/2+x,1/2-y,1/2+z
loop_
_atom_site_type_symbol
_atom_site_label
_atom_site_fract_x
_atom_site_fract_y
_atom_site_fract_z
Si Si1 0.821899 0.307240 0.594758
Si Si2 0.314216 0.867267 0.619058
Si Si3 0.312817 0.551882 0.944988
Si Si4 0.682872 0.283840 0.309155
Si Si5 0.500000 0.446622 0.442818
Si Si6 0.820017 0.716885 0.943973
Si Si7 0.824161 0.405284 0.443639
Si Si8 0.184860 0.186641 0.704086
O O1 0.712228 0.314614 0.642851
O O2 0.778529 0.262977 0.563015
O O3 0.800221 0.350741 0.559648
O O4 0.000000 0.302398 0.613963
O O5 0.500000 0.870780 0.614086
O O6 0.246679 0.914868 0.598274
O O7 0.245863 0.824937 0.587048
O O8 0.267026 0.856069 0.675599
O O9 0.500000 0.553189 0.944774
O O10 0.253456 0.500000 0.933340
O O11 0.252293 0.566301 0.000000
O O12 0.500000 0.272009 0.301548
O O13 0.772878 0.235893 0.319779
O O14 0.745135 0.310917 0.260816
O O15 0.500000 0.500000 0.433496
O O16 0.500000 0.432666 0.500000
O O17 0.666427 0.428087 0.418842
O O18 0.000000 0.726716 0.926955
O O19 0.811731 0.701202 0.000000
O O20 0.828885 0.420566 0.500000
O O21 0.000000 0.418975 0.420705
O O22 0.000000 0.177436 0.700868
#
# Coordination Sequence:
#
# PCOD8290076 Si02
#       8
#    16  16  16  16   8  16  16  16
#     4  11  21  32  48  71 100 138 176 207 248 305
#     4  11  21  33  51  75 103 135 173 215 263 314
#     4   9  19  36  56  77 103 137 176 219 268 320
#     4  10  20  33  50  72  99 133 172 212 255 300
#     4   9  18  32  52  76  98 130 172 210 255 301
#     4  10  21  33  45  66  99 139 176 210 248 293
#     4   9  19  33  48  72 105 137 171 213 255 303
#     4  10  20  34  51  72  99 132 170 213 256 301
#
# _framework density 17.960718
#
# number of rings (size 3 to 8) (size 9 to 14) (size 15 to 20)
#    0.000    2.067    1.333    2.800    1.867    4.267 
#    0.000    2.000    0.000    0.000    0.000    0.933 
#    0.000    2.133    0.000    0.000    0.000    0.000 
#
# Total GULP energy -743636.039422 kJ/mol
# GULP energy per Si atom -12393.933990 kJ/mol
# Density = 1.791984 g / cm^3
# Si number density = 17.960718 Si / 1000 Ang^3
#
#
#
# Elastic Constant Matrix: (Units=GPa)
#
#
# Indices 1 2 3 4 5 6 
#
# 1 76.8077 39.2307 12.8167 0.0000 0.0000 0.0000
# 2 39.2307 87.1435 27.4939 0.0000 0.0000 0.0000
# 3 12.8167 27.4939 64.6647 0.0000 0.0000 0.0000
# 4 0.0000 0.0000 0.0000 24.5386 0.0000 0.0000
# 5 0.0000 0.0000 0.0000 0.0000 21.4091 0.0000
# 6 0.0000 0.0000 0.0000 0.0000 0.0000 26.3952
#
#
#
# Elastic Compliance Matrix: (Units=1/GPa)
#
#
# Indices 1 2 3 4 5 6 
#
# 1 0.016908 -0.007570 -0.000133 0.000000 0.000000 0.000000
# 2 -0.007570 0.016642 -0.005576 0.000000 0.000000 0.000000
# 3 -0.000133 -0.005576 0.017861 0.000000 0.000000 0.000000
# 4 0.000000 0.000000 0.000000 0.040752 0.000000 0.000000
# 5 0.000000 0.000000 0.000000 0.000000 0.046709 0.000000
# 6 0.000000 0.000000 0.000000 0.000000 0.000000 0.037886
#
#
# Mechanical properties :
#
#
# Convention : Reuss Voigt Hill
#
# Bulk Modulus (GPa) = 40.23268 43.07761 41.65514
# Shear Modulus (GPa) = 23.62949 24.40688 24.01819
#
# Velocity S-wave (km/s) = 3.63108 3.69033 3.66083
# Velocity P-wave (km/s) = 6.32682 6.49573 6.41183
#
# Compressibility (1/GPa) = 0.02485542
#
# Stress axis : x y z
#
# Youngs Moduli (GPa) = 59.14319 60.08787 55.98706
#
# Poissons Ratio (x) = 0.45486 0.00743
# Poissons Ratio (y) = 0.44771 0.31216
# Poissons Ratio (z) = 0.00785 0.33502
#
# Static dielectric constant tensor:
#      x y z
#    x 3.546110 0.000000 0.000000 
#    y 0.000000 3.176310 0.000000 
#    z 0.000000 0.000000 3.261060 
# 
# 
# High freq. dielectric constant tensor:
#      x y z
#    x 1.708030 0.000000 0.000000 
#    y 0.000000 1.666980 0.000000 
#    z 0.000000 0.000000 1.674140 
# 
# From -- ./inp_files/63780.got.cif
#   From: 2010.06.25/outbox.cif.g09.slc.cpg/sg71_32_cif.got.tgz:63780.got - 2010.06.28 04:59:45.
