data_PCOD8290826
_publ_section_title
;
Structure prediction by ZEFSAII (Michael W. Deem and Ramdas Pophale) SiO2 
 PCOD8290826
Probable space group: I M M M
;
_chemical_formula_sum "Si O2"
_cell_formula_units_Z 96
_cell_length_a 25.278257
_cell_length_b 23.590750
_cell_length_c 8.720110
_cell_angle_alpha 90.000000
_cell_angle_beta 90.000000
_cell_angle_gamma 90.000000
_cell_volume 5200.089717
_symmetry_space_group_name_H-M "I M M M"
_symmetry_group_IT_number 71
_symmetry_cell_setting 'orthorhombic'
loop_
_space_group_symop_operation_xyz
x,y,z
-x,-y,z
x,-y,-z
-x,y,-z
-x,-y,-z
x,y,-z
-x,y,z
x,-y,z
1/2+x,1/2+y,1/2+z
1/2-x,1/2-y,1/2+z
1/2+x,1/2-y,1/2-z
1/2-x,1/2+y,1/2-z
1/2-x,1/2-y,1/2-z
1/2+x,1/2+y,1/2-z
1/2-x,1/2+y,1/2+z
1/2+x,1/2-y,1/2+z
loop_
_atom_site_type_symbol
_atom_site_label
_atom_site_fract_x
_atom_site_fract_y
_atom_site_fract_z
Si Si1 0.248511 0.688025 0.680253
Si Si2 0.058867 0.187160 0.678438
Si Si3 0.846595 0.616804 0.818032
Si Si4 0.659660 0.620379 0.822593
Si Si5 0.440839 0.804923 0.318911
Si Si6 0.182811 0.500000 0.319370
Si Si7 0.203467 0.000000 0.323575
O O1 0.238285 0.691417 0.500000
O O2 0.250000 0.750000 0.750000
O O3 0.202872 0.651987 0.758665
O O4 0.303857 0.657727 0.713122
O O5 0.058087 0.200837 0.500000
O O6 0.098905 0.135945 0.716013
O O7 0.079062 0.244157 0.759888
O O8 0.000000 0.169929 0.736219
O O9 0.900637 0.646737 0.761818
O O10 0.846557 0.554310 0.748906
O O11 0.842719 0.612934 0.000000
O O12 0.667528 0.554272 0.785785
O O13 0.673351 0.633806 0.000000
O O14 0.440739 0.802338 0.500000
O O15 0.500000 0.818421 0.256481
O O16 0.176410 0.500000 0.500000
O O17 0.244739 0.500000 0.280369
O O18 0.222408 0.000000 0.500000
#
# Coordination Sequence:
#
# PCOD8290826 Si02
#       7
#    16  16  16  16  16   8   8
#     4  12  24  36  53  80 113 144 181 229 281 336
#     4   9  18  33  54  81 113 147 183 227 279 331
#     4  11  22  38  59  82 111 146 184 229 280 332
#     4  10  20  35  55  79 109 146 188 230 277 331
#     4   9  19  36  58  83 109 141 183 227 275 332
#     4  12  24  38  57  82 111 148 189 230 274 333
#     4  10  20  36  57  77 107 150 191 229 274 325
#
# _framework density 18.461220000000001
#
# number of rings (size 3 to 8) (size 9 to 14) (size 15 to 20)
#    0.000    1.667    1.667    3.750    0.000    4.667 
#    0.000    0.833    0.000    5.000    0.000    0.000 
#    0.000    4.667    0.000    0.000    0.000    0.000 
#
# Total GULP energy -595303.341962 kJ/mol
# GULP energy per Si atom -12402.152958 kJ/mol
# Density = 1.841920 g / cm^3
# Si number density = 18.461220 Si / 1000 Ang^3
#
#
#
# Elastic Constant Matrix: (Units=GPa)
#
#
# Indices 1 2 3 4 5 6 
#
# 1 112.0258 61.0071 21.1979 0.0000 0.0000 0.0000
# 2 61.0071 134.0623 18.3610 0.0000 0.0000 0.0000
# 3 21.1979 18.3610 43.1282 0.0000 0.0000 0.0000
# 4 0.0000 0.0000 0.0000 28.7935 0.0000 0.0000
# 5 0.0000 0.0000 0.0000 0.0000 15.9231 0.0000
# 6 0.0000 0.0000 0.0000 0.0000 0.0000 35.9332
#
#
#
# Elastic Compliance Matrix: (Units=1/GPa)
#
#
# Indices 1 2 3 4 5 6 
#
# 1 0.012468 -0.005134 -0.003943 0.000000 0.000000 0.000000
# 2 -0.005134 0.010035 -0.001749 0.000000 0.000000 0.000000
# 3 -0.003943 -0.001749 0.025869 0.000000 0.000000 0.000000
# 4 0.000000 0.000000 0.000000 0.034730 0.000000 0.000000
# 5 0.000000 0.000000 0.000000 0.000000 0.062802 0.000000
# 6 0.000000 0.000000 0.000000 0.000000 0.000000 0.027829
#
#
# Mechanical properties :
#
#
# Convention : Reuss Voigt Hill
#
# Bulk Modulus (GPa) = 37.42292 54.48315 45.95303
# Shear Modulus (GPa) = 24.47481 28.70666 26.59074
#
# Velocity S-wave (km/s) = 3.64502 3.94759 3.79932
# Velocity P-wave (km/s) = 6.16685 7.09607 6.64772
#
# Compressibility (1/GPa) = 0.02672159
#
# Stress axis : x y z
#
# Youngs Moduli (GPa) = 80.20263 99.65098 38.65624
#
# Poissons Ratio (x) = 0.51160 0.15241
# Poissons Ratio (y) = 0.41176 0.06760
# Poissons Ratio (z) = 0.31621 0.17427
#
# Static dielectric constant tensor:
#      x y z
#    x 3.711950 0.000000 0.000000 
#    y 0.000000 3.552510 0.000000 
#    z 0.000000 0.000000 3.403870 
# 
# 
# High freq. dielectric constant tensor:
#      x y z
#    x 1.717840 0.000000 0.000000 
#    y 0.000000 1.718380 0.000000 
#    z 0.000000 0.000000 1.715320 
# 
# From -- ./inp_files/12907.got.cif
#   From: 2010.06.25/outbox.cif.g09.slc.cpg/sg71_7_cif.got.tgz:12907.got - 2010.06.28 04:59:45.
