data_PCOD8290948
_publ_section_title
;
Structure prediction by ZEFSAII (Michael W. Deem and Ramdas Pophale) SiO2 
 PCOD8290948
Probable space group: I M M M
;
_chemical_formula_sum "Si O2"
_cell_formula_units_Z 104
_cell_length_a 22.055095
_cell_length_b 26.654031
_cell_length_c 8.357086
_cell_angle_alpha 90.000000
_cell_angle_beta 90.000000
_cell_angle_gamma 90.000000
_cell_volume 4912.773058
_symmetry_space_group_name_H-M "I M M M"
_symmetry_group_IT_number 71
_symmetry_cell_setting 'orthorhombic'
loop_
_space_group_symop_operation_xyz
x,y,z
-x,-y,z
x,-y,-z
-x,y,-z
-x,-y,-z
x,y,-z
-x,y,z
x,-y,z
1/2+x,1/2+y,1/2+z
1/2-x,1/2-y,1/2+z
1/2+x,1/2-y,1/2-z
1/2-x,1/2+y,1/2-z
1/2-x,1/2-y,1/2-z
1/2+x,1/2+y,1/2-z
1/2-x,1/2+y,1/2+z
1/2+x,1/2-y,1/2+z
loop_
_atom_site_type_symbol
_atom_site_label
_atom_site_fract_x
_atom_site_fract_y
_atom_site_fract_z
Si Si1 0.570042 0.625754 0.679892
Si Si2 0.806805 0.281870 0.688267
Si Si3 0.568287 0.265511 0.188274
Si Si4 0.222468 0.394715 0.684497
Si Si5 0.069829 0.444588 0.500000
Si Si6 0.115904 0.558239 0.826088
Si Si7 0.836032 0.942737 0.685887
O O1 0.596391 0.629432 0.500000
O O2 0.500000 0.613488 0.675362
O O3 0.583616 0.677406 0.770460
O O4 0.598092 0.579553 0.778188
O O5 0.808016 0.274909 0.500000
O O6 0.750000 0.250000 0.750000
O O7 0.873986 0.266411 0.757312
O O8 0.794032 0.338779 0.739460
O O9 0.500000 0.250795 0.257144
O O10 0.565465 0.258377 0.000000
O O11 0.203744 0.403952 0.500000
O O12 0.187336 0.433220 0.801713
O O13 0.292431 0.406818 0.710735
O O14 0.101679 0.500000 0.500000
O O15 0.086145 0.415635 0.332996
O O16 0.000000 0.452545 0.500000
O O17 0.099033 0.500000 0.828337
O O18 0.095123 0.580715 0.000000
O O19 0.820355 0.939016 0.500000
O O20 0.832545 0.000000 0.746129
#
# Coordination Sequence:
#
# PCOD8290948 Si02
#       7
#    16  16  16  16   8  16  16
#     4  10  21  37  58  85 116 150 189 235 291 355
#     4  10  22  37  56  84 117 150 194 243 299 360
#     4   9  18  36  61  85 113 152 197 242 291 351
#     4  11  22  37  57  82 117 152 193 242 302 359
#     4   9  18  34  56  82 112 148 189 235 287 339
#     4  10  20  35  57  84 114 151 195 240 291 353
#     4  11  24  39  56  82 114 151 198 246 293 351
#
# _framework density 21.169307
#
# number of rings (size 3 to 8) (size 9 to 14) (size 15 to 20)
#    0.000    1.923    0.769    2.769    0.000    8.923 
#    0.000    3.846    0.000    0.000    0.000    0.000 
#    0.000    0.000    0.000    0.000    0.000    0.000 
#
# Total GULP energy -644313.063817 kJ/mol
# GULP energy per Si atom -12390.635843 kJ/mol
# Density = 2.112112 g / cm^3
# Si number density = 21.169307 Si / 1000 Ang^3
#
#
#
# Elastic Constant Matrix: (Units=GPa)
#
#
# Indices 1 2 3 4 5 6 
#
# 1 114.5238 58.7912 32.9054 0.0000 0.0000 0.0000
# 2 58.7912 95.8118 22.7130 0.0000 0.0000 0.0000
# 3 32.9054 22.7130 106.1970 0.0000 0.0000 0.0000
# 4 0.0000 0.0000 0.0000 16.3627 0.0000 0.0000
# 5 0.0000 0.0000 0.0000 0.0000 24.8969 0.0000
# 6 0.0000 0.0000 0.0000 0.0000 0.0000 35.1055
#
#
#
# Elastic Compliance Matrix: (Units=1/GPa)
#
#
# Indices 1 2 3 4 5 6 
#
# 1 0.013355 -0.007599 -0.002513 0.000000 0.000000 0.000000
# 2 -0.007599 0.015318 -0.000922 0.000000 0.000000 0.000000
# 3 -0.002513 -0.000922 0.010392 0.000000 0.000000 0.000000
# 4 0.000000 0.000000 0.000000 0.061114 0.000000 0.000000
# 5 0.000000 0.000000 0.000000 0.000000 0.040166 0.000000
# 6 0.000000 0.000000 0.000000 0.000000 0.000000 0.028486
#
#
# Mechanical properties :
#
#
# Convention : Reuss Voigt Hill
#
# Bulk Modulus (GPa) = 58.82860 60.59463 59.71161
# Shear Modulus (GPa) = 25.43699 28.74787 27.09243
#
# Velocity S-wave (km/s) = 3.47017 3.68910 3.58131
# Velocity P-wave (km/s) = 6.62616 6.84338 6.73565
#
# Compressibility (1/GPa) = 0.01699853
#
# Stress axis : x y z
#
# Youngs Moduli (GPa) = 74.87978 65.28081 96.22621
#
# Poissons Ratio (x) = 0.49607 0.24179
# Poissons Ratio (y) = 0.56901 0.08869
# Poissons Ratio (z) = 0.18815 0.06017
#
# Static dielectric constant tensor:
#      x y z
#    x 4.053630 0.000000 0.000000 
#    y 0.000000 3.803270 0.000000 
#    z 0.000000 0.000000 4.060080 
# 
# 
# High freq. dielectric constant tensor:
#      x y z
#    x 1.837850 0.000000 0.000000 
#    y 0.000000 1.804380 0.000000 
#    z 0.000000 0.000000 1.833990 
# 
# From -- ./inp_files/11090.got.cif
#   From: 2010.06.25/outbox.cif.g09.slc.cpg/sg71_6_cif.got.tgz:11090.got - 2010.06.28 04:59:45.
