data_PCOD8290711
_publ_section_title
;
Structure prediction by ZEFSAII (Michael W. Deem and Ramdas Pophale) SiO2 
 PCOD8290711
Probable space group: I M M M
;
_chemical_formula_sum "Si O2"
_cell_formula_units_Z 120
_cell_length_a 28.229340
_cell_length_b 25.761152
_cell_length_c 8.049751
_cell_angle_alpha 90.000000
_cell_angle_beta 90.000000
_cell_angle_gamma 90.000000
_cell_volume 5853.942487
_symmetry_space_group_name_H-M "I M M M"
_symmetry_group_IT_number 71
_symmetry_cell_setting 'orthorhombic'
loop_
_space_group_symop_operation_xyz
x,y,z
-x,-y,z
x,-y,-z
-x,y,-z
-x,-y,-z
x,y,-z
-x,y,z
x,-y,z
1/2+x,1/2+y,1/2+z
1/2-x,1/2-y,1/2+z
1/2+x,1/2-y,1/2-z
1/2-x,1/2+y,1/2-z
1/2-x,1/2-y,1/2-z
1/2+x,1/2+y,1/2-z
1/2-x,1/2+y,1/2+z
1/2+x,1/2-y,1/2+z
loop_
_atom_site_type_symbol
_atom_site_label
_atom_site_fract_x
_atom_site_fract_y
_atom_site_fract_z
Si Si1 0.355481 0.441899 0.191369
Si Si2 0.946917 0.103378 0.807570
Si Si3 0.691413 0.145493 0.690467
Si Si4 0.618081 0.060413 0.306135
Si Si5 0.052327 0.217443 0.691267
Si Si6 0.849940 0.750235 0.807060
Si Si7 0.704636 0.650125 0.310372
Si Si8 0.552586 0.938854 0.000000
O O1 0.337949 0.500000 0.232446
O O2 0.411133 0.439108 0.235401
O O3 0.327102 0.401241 0.302274
O O4 0.346804 0.428447 0.000000
O O5 0.938165 0.156528 0.709926
O O6 0.000000 0.082153 0.779512
O O7 0.936709 0.114559 0.000000
O O8 0.679444 0.152659 0.500000
O O9 0.664230 0.093533 0.748518
O O10 0.671413 0.198081 0.778009
O O11 0.747093 0.139437 0.713890
O O12 0.602438 0.070720 0.500000
O O13 0.578024 0.077858 0.173116
O O14 0.631214 0.000000 0.283424
O O15 0.054122 0.232677 0.500000
O O16 0.093454 0.249424 0.781903
O O17 0.000000 0.231288 0.765237
O O18 0.823718 0.800992 0.729610
O O19 0.838853 0.751665 0.000000
O O20 0.717695 0.661320 0.500000
O O21 0.500000 0.913656 0.000000
O O22 0.548292 0.000000 0.000000
#
# Coordination Sequence:
#
# PCOD8290711 Si02
#       8
#    16  16  16  16  16  16  16   8
#     4  11  24  40  58  82 114 151 192 242 296 350
#     4  10  20  35  57  83 112 149 192 239 293 352
#     4  10  22  39  60  86 118 155 196 241 295 349
#     4   9  19  37  61  89 122 159 199 243 291 349
#     4  10  20  34  56  85 115 152 195 236 287 347
#     4  10  21  38  59  85 117 153 194 240 292 348
#     4  11  23  38  59  86 113 150 197 243 296 351
#     4   9  18  34  60  92 124 160 198 238 288 350
#
# _framework density 20.499005
#
# number of rings (size 3 to 8) (size 9 to 14) (size 15 to 20)
#    0.000    1.933    1.333    2.000    0.933    4.800 
#    0.000    4.667    0.000    2.400    0.000    0.000 
#    0.000    0.000    0.000    0.000    0.000    0.000 
#
# Total GULP energy -743798.373167 kJ/mol
# GULP energy per Si atom -12396.639553 kJ/mol
# Density = 2.045235 g / cm^3
# Si number density = 20.499005 Si / 1000 Ang^3
#
#
#
# Elastic Constant Matrix: (Units=GPa)
#
#
# Indices 1 2 3 4 5 6 
#
# 1 144.6569 62.6814 25.2505 0.0000 0.0000 0.0000
# 2 62.6814 106.1760 24.3207 0.0000 0.0000 0.0000
# 3 25.2505 24.3207 51.6597 0.0000 0.0000 0.0000
# 4 0.0000 0.0000 0.0000 16.7916 0.0000 0.0000
# 5 0.0000 0.0000 0.0000 0.0000 32.7948 0.0000
# 6 0.0000 0.0000 0.0000 0.0000 0.0000 21.0605
#
#
#
# Elastic Compliance Matrix: (Units=1/GPa)
#
#
# Indices 1 2 3 4 5 6 
#
# 1 0.009517 -0.005103 -0.002249 0.000000 0.000000 0.000000
# 2 -0.005103 0.013293 -0.003764 0.000000 0.000000 0.000000
# 3 -0.002249 -0.003764 0.022229 0.000000 0.000000 0.000000
# 4 0.000000 0.000000 0.000000 0.059554 0.000000 0.000000
# 5 0.000000 0.000000 0.000000 0.000000 0.030493 0.000000
# 6 0.000000 0.000000 0.000000 0.000000 0.000000 0.047482
#
#
# Mechanical properties :
#
#
# Convention : Reuss Voigt Hill
#
# Bulk Modulus (GPa) = 43.84748 58.55533 51.20140
# Shear Modulus (GPa) = 23.54031 26.81204 25.17618
#
# Velocity S-wave (km/s) = 3.39243 3.62051 3.50832
# Velocity P-wave (km/s) = 6.06475 6.79002 6.43761
#
# Compressibility (1/GPa) = 0.02280633
#
# Stress axis : x y z
#
# Youngs Moduli (GPa) = 105.07834 75.22714 44.98668
#
# Poissons Ratio (x) = 0.38389 0.10118
# Poissons Ratio (y) = 0.53622 0.16933
# Poissons Ratio (z) = 0.23634 0.28315
#
# Static dielectric constant tensor:
#      x y z
#    x 3.778220 0.000000 0.000000 
#    y 0.000000 3.728730 0.000000 
#    z 0.000000 0.000000 3.651270 
# 
# 
# High freq. dielectric constant tensor:
#      x y z
#    x 1.802750 0.000000 0.000000 
#    y 0.000000 1.788450 0.000000 
#    z 0.000000 0.000000 1.796060 
# 
# From -- ./inp_files/15594.got.cif
#   From: 2010.06.25/outbox.cif.g09.slc.cpg/sg71_8_cif.got.tgz:15594.got - 2010.06.28 04:59:45.
