data_PCOD8290608
_publ_section_title
;
Structure prediction by ZEFSAII (Michael W. Deem and Ramdas Pophale) SiO2 
 PCOD8290608
Probable space group: I M M M
;
_chemical_formula_sum "Si O2"
_cell_formula_units_Z 104
_cell_length_a 8.796388
_cell_length_b 20.130370
_cell_length_c 30.258194
_cell_angle_alpha 90.000000
_cell_angle_beta 90.000000
_cell_angle_gamma 90.000000
_cell_volume 5357.955938
_symmetry_space_group_name_H-M "I M M M"
_symmetry_group_IT_number 71
_symmetry_cell_setting 'orthorhombic'
loop_
_space_group_symop_operation_xyz
x,y,z
-x,-y,z
x,-y,-z
-x,y,-z
-x,-y,-z
x,y,-z
-x,y,z
x,-y,z
1/2+x,1/2+y,1/2+z
1/2-x,1/2-y,1/2+z
1/2+x,1/2-y,1/2-z
1/2-x,1/2+y,1/2-z
1/2-x,1/2-y,1/2-z
1/2+x,1/2+y,1/2-z
1/2-x,1/2+y,1/2+z
1/2+x,1/2-y,1/2+z
loop_
_atom_site_type_symbol
_atom_site_label
_atom_site_fract_x
_atom_site_fract_y
_atom_site_fract_z
Si Si1 0.822349 0.212080 0.791997
Si Si2 0.332340 0.371164 0.448444
Si Si3 0.171339 0.074215 0.686282
Si Si4 0.170605 0.500000 0.447044
Si Si5 0.175410 0.316993 0.866652
Si Si6 0.323852 0.736493 0.050582
Si Si7 0.178207 0.575007 0.721994
O O1 0.750000 0.250000 0.750000
O O2 0.786482 0.253074 0.836463
O O3 0.760033 0.137352 0.801715
O O4 0.000000 0.207385 0.782389
O O5 0.353343 0.383482 0.500000
O O6 0.500000 0.356788 0.427557
O O7 0.259047 0.436798 0.427248
O O8 0.214543 0.312753 0.439471
O O9 0.220601 0.121841 0.647171
O O10 0.287062 0.084029 0.726420
O O11 0.000000 0.091134 0.702243
O O12 0.179818 0.000000 0.667335
O O13 0.166043 0.500000 0.500000
O O14 0.000000 0.500000 0.428064
O O15 0.217595 0.306326 0.917700
O O16 0.000000 0.336570 0.862868
O O17 0.500000 0.724428 0.061097
O O18 0.284560 0.717760 0.000000
O O19 0.232770 0.500000 0.706832
O O20 0.000000 0.582039 0.714000
#
# Coordination Sequence:
#
# PCOD8290608 Si02
#       7
#    16  16  16   8  16  16  16
#     4  11  22  35  55  84 118 154 192 235 283 336
#     4   9  16  27  45  69  96 126 162 209 265 322
#     4  10  20  34  55  84 116 151 190 231 277 332
#     4   9  15  23  39  65  95 125 161 207 261 321
#     4  11  23  37  57  85 115 150 190 234 285 338
#     4  10  21  37  57  80 106 139 182 234 289 342
#     4  10  20  34  54  81 115 155 195 235 281 333
#
# _framework density 19.410387
#
# number of rings (size 3 to 8) (size 9 to 14) (size 15 to 20)
#    0.000    1.923    1.538    3.000    0.000    7.385 
#    0.000    0.000    1.692    0.462    0.000    3.231 
#    0.000    0.000    0.000    0.000    0.000    0.000 
#
# Total GULP energy -644639.921447 kJ/mol
# GULP energy per Si atom -12396.921566 kJ/mol
# Density = 1.936621 g / cm^3
# Si number density = 19.410387 Si / 1000 Ang^3
#
#
#
# Elastic Constant Matrix: (Units=GPa)
#
#
# Indices 1 2 3 4 5 6 
#
# 1 96.6556 41.7824 25.8187 0.0000 0.0000 0.0000
# 2 41.7824 108.1260 28.3916 0.0000 0.0000 0.0000
# 3 25.8187 28.3916 57.6983 0.0000 0.0000 0.0000
# 4 0.0000 0.0000 0.0000 12.8762 0.0000 0.0000
# 5 0.0000 0.0000 0.0000 0.0000 24.3764 0.0000
# 6 0.0000 0.0000 0.0000 0.0000 0.0000 33.0061
#
#
#
# Elastic Compliance Matrix: (Units=1/GPa)
#
#
# Indices 1 2 3 4 5 6 
#
# 1 0.013137 -0.004057 -0.003882 0.000000 0.000000 0.000000
# 2 -0.004057 0.011874 -0.004027 0.000000 0.000000 0.000000
# 3 -0.003882 -0.004027 0.021050 0.000000 0.000000 0.000000
# 4 0.000000 0.000000 0.000000 0.077663 0.000000 0.000000
# 5 0.000000 0.000000 0.000000 0.000000 0.041023 0.000000
# 6 0.000000 0.000000 0.000000 0.000000 0.000000 0.030297
#
#
# Mechanical properties :
#
#
# Convention : Reuss Voigt Hill
#
# Bulk Modulus (GPa) = 45.19135 50.49612 47.84374
# Shear Modulus (GPa) = 22.08941 25.15089 23.62015
#
# Velocity S-wave (km/s) = 3.37712 3.60355 3.49217
# Velocity P-wave (km/s) = 6.20799 6.58677 6.40018
#
# Compressibility (1/GPa) = 0.02212813
#
# Stress axis : x y z
#
# Youngs Moduli (GPa) = 76.12226 84.22002 47.50507
#
# Poissons Ratio (x) = 0.34168 0.18442
# Poissons Ratio (y) = 0.30883 0.19132
# Poissons Ratio (z) = 0.29551 0.33918
#
# Static dielectric constant tensor:
#      x y z
#    x 3.697370 0.000000 0.000000 
#    y 0.000000 3.746230 0.000000 
#    z 0.000000 0.000000 3.190310 
# 
# 
# High freq. dielectric constant tensor:
#      x y z
#    x 1.771600 0.000000 0.000000 
#    y 0.000000 1.755910 0.000000 
#    z 0.000000 0.000000 1.715670 
# 
# From -- ./inp_files/63292.got.cif
#   From: 2010.06.25/outbox.cif.g09.slc.cpg/sg71_32_cif.got.tgz:63292.got - 2010.06.28 04:59:45.
