data_PCOD8290550
_publ_section_title
;
Structure prediction by ZEFSAII (Michael W. Deem and Ramdas Pophale) SiO2 
 PCOD8290550
Probable space group: I M M M
;
_chemical_formula_sum "Si O2"
_cell_formula_units_Z 40
_cell_length_a 7.365570
_cell_length_b 33.212745
_cell_length_c 8.681631
_cell_angle_alpha 90.000000
_cell_angle_beta 90.000000
_cell_angle_gamma 90.000000
_cell_volume 2123.794321
_symmetry_space_group_name_H-M "I M M M"
_symmetry_group_IT_number 71
_symmetry_cell_setting 'orthorhombic'
loop_
_space_group_symop_operation_xyz
x,y,z
-x,-y,z
x,-y,-z
-x,y,-z
-x,-y,-z
x,y,-z
-x,y,z
x,-y,z
1/2+x,1/2+y,1/2+z
1/2-x,1/2-y,1/2+z
1/2+x,1/2-y,1/2-z
1/2-x,1/2+y,1/2-z
1/2-x,1/2-y,1/2-z
1/2+x,1/2+y,1/2-z
1/2-x,1/2+y,1/2+z
1/2+x,1/2-y,1/2+z
loop_
_atom_site_type_symbol
_atom_site_label
_atom_site_fract_x
_atom_site_fract_y
_atom_site_fract_z
Si Si1 0.702521 0.707490 0.320753
Si Si2 0.000000 0.441684 0.181849
Si Si3 0.787895 0.000000 0.183298
Si Si4 0.500000 0.145457 0.817441
O O1 0.732419 0.713278 0.500000
O O2 0.500000 0.694785 0.276445
O O3 0.750000 0.750000 0.250000
O O4 0.827084 0.671195 0.262218
O O5 0.183609 0.460869 0.252112
O O6 0.000000 0.395029 0.221113
O O7 0.000000 0.448826 0.000000
O O8 0.000000 0.000000 0.235648
O O9 0.774528 0.000000 0.000000
O O10 0.500000 0.136202 0.000000
#
# Coordination Sequence:
#
# PCOD8290550 Si02
#       4
#    16   8   8   8
#     4  10  20  34  54  78 105 142 189 237 285 335
#     4  11  23  38  59  90 124 154 188 240 293 341
#     4  10  21  40  67  91 116 154 193 231 282 351
#     4  10  21  37  54  78 115 154 194 239 283 340
#
# _framework density 18.834213999999999
#
# number of rings (size 3 to 8) (size 9 to 14) (size 15 to 20)
#    0.000    1.800    2.000    3.600    0.000    4.800 
#    0.000    4.000    0.000    0.000    0.000    0.000 
#    0.000    0.000    0.000    0.000    0.000    0.000 
#
# Total GULP energy -247983.307883 kJ/mol
# GULP energy per Si atom -12399.165394 kJ/mol
# Density = 1.879135 g / cm^3
# Si number density = 18.834214 Si / 1000 Ang^3
#
#
#
# Elastic Constant Matrix: (Units=GPa)
#
#
# Indices 1 2 3 4 5 6 
#
# 1 186.3933 87.4744 57.1896 0.0045 0.0009 0.0012
# 2 87.4744 164.4237 44.0518 0.0019 0.0011 0.0008
# 3 57.1896 44.0518 69.9027 0.0026 0.0011 0.0006
# 4 0.0045 0.0019 0.0026 33.6893 0.0019 0.0017
# 5 0.0009 0.0011 0.0011 0.0019 21.8895 0.0010
# 6 0.0012 0.0008 0.0006 0.0017 0.0010 25.5978
#
#
#
# Elastic Compliance Matrix: (Units=1/GPa)
#
#
# Indices 1 2 3 4 5 6 
#
# 1 0.008316 -0.003130 -0.004831 -0.000001 0.000000 0.000000
# 2 -0.003130 0.008495 -0.002793 0.000000 0.000000 0.000000
# 3 -0.004831 -0.002793 0.020018 -0.000001 -0.000001 0.000000
# 4 -0.000001 0.000000 -0.000001 0.029683 -0.000003 -0.000002
# 5 0.000000 0.000000 -0.000001 -0.000003 0.045684 -0.000002
# 6 0.000000 0.000000 0.000000 -0.000002 -0.000002 0.039066
#
#
# Mechanical properties :
#
#
# Convention : Reuss Voigt Hill
#
# Bulk Modulus (GPa) = 65.26789 88.68349 76.97569
# Shear Modulus (GPa) = 28.10912 31.70225 29.90568
#
# Velocity S-wave (km/s) = 3.86742 4.10717 3.98909
# Velocity P-wave (km/s) = 7.39403 8.34747 7.88518
#
# Compressibility (1/GPa) = 0.01532147
#
# Stress axis : x y z
#
# Youngs Moduli (GPa) = 120.24699 117.71295 49.95416
#
# Poissons Ratio (x) = 0.36843 0.24135
# Poissons Ratio (y) = 0.37636 0.13952
# Poissons Ratio (z) = 0.58095 0.32877
#
# Static dielectric constant tensor:
#      x y z
#    x 5.494440 0.000010 0.000030 
#    y 0.000010 3.401580 0.000000 
#    z 0.000030 0.000000 3.446710 
# 
# 
# High freq. dielectric constant tensor:
#      x y z
#    x 1.746940 0.000000 0.000000 
#    y 0.000000 1.733720 0.000000 
#    z 0.000000 0.000000 1.728010 
# 
# From -- ./inp_files/1996.got.cif
#   From: 2010.06.25/outbox.cif.g09.slc.cpg/sg71_1_cif.got.tgz:1996.got - 2010.06.28 04:59:45.
