data_PCOD8290544
_publ_section_title
;
Structure prediction by ZEFSAII (Michael W. Deem and Ramdas Pophale) SiO2 
 PCOD8290544
Probable space group: I M M M
;
_chemical_formula_sum "Si O2"
_cell_formula_units_Z 96
_cell_length_a 25.707022
_cell_length_b 8.724853
_cell_length_c 23.408893
_cell_angle_alpha 90.000000
_cell_angle_beta 90.000000
_cell_angle_gamma 90.000000
_cell_volume 5250.380330
_symmetry_space_group_name_H-M "I M M M"
_symmetry_group_IT_number 71
_symmetry_cell_setting 'orthorhombic'
loop_
_space_group_symop_operation_xyz
x,y,z
-x,-y,z
x,-y,-z
-x,y,-z
-x,-y,-z
x,y,-z
-x,y,z
x,-y,z
1/2+x,1/2+y,1/2+z
1/2-x,1/2-y,1/2+z
1/2+x,1/2-y,1/2-z
1/2-x,1/2+y,1/2-z
1/2-x,1/2-y,1/2-z
1/2+x,1/2+y,1/2-z
1/2-x,1/2+y,1/2+z
1/2+x,1/2-y,1/2+z
loop_
_atom_site_type_symbol
_atom_site_label
_atom_site_fract_x
_atom_site_fract_y
_atom_site_fract_z
Si Si1 0.243724 0.677940 0.433552
Si Si2 0.306801 0.821266 0.749910
Si Si3 0.840920 0.320169 0.124099
Si Si4 0.443096 0.818162 0.436079
Si Si5 0.347162 0.319082 0.861684
Si Si6 0.057841 0.817853 0.435969
O O1 0.237091 0.714557 0.500000
O O2 0.234349 0.500000 0.419997
O O3 0.300917 0.725042 0.413929
O O4 0.202756 0.778658 0.399113
O O5 0.250000 0.750000 0.750000
O O6 0.334578 0.782592 0.690561
O O7 0.343219 0.753582 0.799213
O O8 0.300140 0.000000 0.760200
O O9 0.832745 0.500000 0.111514
O O10 0.898298 0.261027 0.106719
O O11 0.431435 0.757038 0.500000
O O12 0.500000 0.757839 0.415607
O O13 0.443743 0.000000 0.436971
O O14 0.349874 0.500000 0.854745
O O15 0.399102 0.252701 0.892259
O O16 0.069763 0.756425 0.500000
O O17 0.000000 0.763736 0.416842
O O18 0.060460 0.000000 0.436710
#
# Coordination Sequence:
#
# PCOD8290544 Si02
#       6
#    16  16  16  16  16  16
#     4  11  23  35  50  76 109 139 168 214 272 322
#     4  11  22  36  53  75 105 144 183 223 267 312
#     4  10  20  34  54  77 101 135 180 219 257 311
#     4   8  14  27  50  79 106 130 162 211 265 311
#     4  11  21  34  55  80 105 139 180 222 267 317
#     4   8  15  30  53  80 107 135 173 222 270 317
#
# _framework density 18.284389000000001
#
# number of rings (size 3 to 8) (size 9 to 14) (size 15 to 20)
#    0.000    2.167    1.667    3.500    0.000    3.333 
#    0.000    0.833    0.000    3.500    0.000    8.167 
#    0.000    0.000    0.000    0.000    0.000    0.000 
#
# Total GULP energy -595147.348428 kJ/mol
# GULP energy per Si atom -12398.903092 kJ/mol
# Density = 1.824277 g / cm^3
# Si number density = 18.284389 Si / 1000 Ang^3
#
#
#
# Elastic Constant Matrix: (Units=GPa)
#
#
# Indices 1 2 3 4 5 6 
#
# 1 145.8576 17.7253 63.5885 0.0000 0.0000 0.0000
# 2 17.7253 41.4795 26.4328 0.0000 0.0000 0.0000
# 3 63.5885 26.4328 105.1432 0.0000 0.0000 0.0000
# 4 0.0000 0.0000 0.0000 26.3565 0.0000 0.0000
# 5 0.0000 0.0000 0.0000 0.0000 28.1586 0.0000
# 6 0.0000 0.0000 0.0000 0.0000 0.0000 10.3747
#
#
#
# Elastic Compliance Matrix: (Units=1/GPa)
#
#
# Indices 1 2 3 4 5 6 
#
# 1 0.009318 -0.000465 -0.005519 0.000000 0.000000 0.000000
# 2 -0.000465 0.028731 -0.006941 0.000000 0.000000 0.000000
# 3 -0.005519 -0.006941 0.014593 0.000000 0.000000 0.000000
# 4 0.000000 0.000000 0.000000 0.037941 0.000000 0.000000
# 5 0.000000 0.000000 0.000000 0.000000 0.035513 0.000000
# 6 0.000000 0.000000 0.000000 0.000000 0.000000 0.096388
#
#
# Mechanical properties :
#
#
# Convention : Reuss Voigt Hill
#
# Bulk Modulus (GPa) = 37.32485 56.44150 46.88317
# Shear Modulus (GPa) = 19.43512 25.29354 22.36433
#
# Velocity S-wave (km/s) = 3.26381 3.72336 3.50113
# Velocity P-wave (km/s) = 5.88736 7.02996 6.48388
#
# Compressibility (1/GPa) = 0.02679180
#
# Stress axis : x y z
#
# Youngs Moduli (GPa) = 107.31367 34.80615 68.52373
#
# Poissons Ratio (x) = 0.01619 0.37816
# Poissons Ratio (y) = 0.04993 0.47565
# Poissons Ratio (z) = 0.59223 0.24160
#
# Static dielectric constant tensor:
#      x y z
#    x 3.747450 0.000000 0.000000 
#    y 0.000000 3.112340 0.000000 
#    z 0.000000 0.000000 3.526440 
# 
# 
# High freq. dielectric constant tensor:
#      x y z
#    x 1.714770 0.000000 0.000000 
#    y 0.000000 1.682660 0.000000 
#    z 0.000000 0.000000 1.711280 
# 
# From -- ./inp_files/12801.got.cif
#   From: 2010.06.25/outbox.cif.g09.slc.cpg/sg71_7_cif.got.tgz:12801.got - 2010.06.28 04:59:45.
