data_PCOD8290828
_publ_section_title
;
Structure prediction by ZEFSAII (Michael W. Deem and Ramdas Pophale) SiO2 
 PCOD8290828
Probable space group: I M M M
;
_chemical_formula_sum "Si O2"
_cell_formula_units_Z 56
_cell_length_a 25.148310
_cell_length_b 14.451516
_cell_length_c 8.707885
_cell_angle_alpha 90.000000
_cell_angle_beta 90.000000
_cell_angle_gamma 90.000000
_cell_volume 3164.717133
_symmetry_space_group_name_H-M "I M M M"
_symmetry_group_IT_number 71
_symmetry_cell_setting 'orthorhombic'
loop_
_space_group_symop_operation_xyz
x,y,z
-x,-y,z
x,-y,-z
-x,y,-z
-x,-y,-z
x,y,-z
-x,y,z
x,-y,z
1/2+x,1/2+y,1/2+z
1/2-x,1/2-y,1/2+z
1/2+x,1/2-y,1/2-z
1/2-x,1/2+y,1/2-z
1/2-x,1/2-y,1/2-z
1/2+x,1/2+y,1/2-z
1/2-x,1/2+y,1/2+z
1/2+x,1/2-y,1/2+z
loop_
_atom_site_type_symbol
_atom_site_label
_atom_site_fract_x
_atom_site_fract_y
_atom_site_fract_z
Si Si1 0.000000 0.604168 0.820678
Si Si2 0.715799 0.500000 0.178331
Si Si3 0.886062 0.339414 0.823180
Si Si4 0.673805 0.000000 0.824977
Si Si5 0.798906 0.806876 0.822863
O O1 0.051798 0.664914 0.774919
O O2 0.000000 0.500000 0.745562
O O3 0.000000 0.588187 0.000000
O O4 0.778456 0.500000 0.205054
O O5 0.691592 0.592676 0.250815
O O6 0.702804 0.500000 0.000000
O O7 0.860711 0.410235 0.704849
O O8 0.855798 0.242701 0.800065
O O9 0.879907 0.373283 0.000000
O O10 0.694629 0.000000 0.000000
O O11 0.750000 0.750000 0.750000
O O12 0.783915 0.818096 0.000000
#
# Coordination Sequence:
#
# PCOD8290828 Si02
#       5
#     8   8  16   8  16
#     4   9  16  30  56  83 108 143 183 220 262 322
#     4  12  24  38  55  76 109 148 188 229 276 325
#     4  10  20  35  55  79 111 147 183 220 267 324
#     4  12  22  31  51  80 114 145 180 223 269 327
#     4  11  22  35  55  82 112 145 183 224 273 329
#
# _framework density 17.695104000000001
#
# number of rings (size 3 to 8) (size 9 to 14) (size 15 to 20)
#    0.000    1.286    4.286    3.429    0.000    1.143 
#    0.000    1.429    0.000    0.857    0.000    6.000 
#    0.000    0.000    0.000    0.000    0.000    0.000 
#
# Total GULP energy -347090.190197 kJ/mol
# GULP energy per Si atom -12396.078221 kJ/mol
# Density = 1.765483 g / cm^3
# Si number density = 17.695104 Si / 1000 Ang^3
#
#
#
# Elastic Constant Matrix: (Units=GPa)
#
#
# Indices 1 2 3 4 5 6 
#
# 1 132.4428 63.1071 28.5906 0.0000 0.0000 0.0000
# 2 63.1071 138.7882 54.0020 0.0000 0.0000 0.0000
# 3 28.5906 54.0020 95.9295 0.0000 0.0000 0.0000
# 4 0.0000 0.0000 0.0000 -17.6910 0.0000 0.0000
# 5 0.0000 0.0000 0.0000 0.0000 18.3595 0.0000
# 6 0.0000 0.0000 0.0000 0.0000 0.0000 31.3667
#
#
#
# Elastic Compliance Matrix: (Units=1/GPa)
#
#
# Indices 1 2 3 4 5 6 
#
# 1 0.009659 -0.004189 -0.000520 0.000000 0.000000 0.000000
# 2 -0.004189 0.011043 -0.004968 0.000000 0.000000 0.000000
# 3 -0.000520 -0.004968 0.013376 0.000000 0.000000 0.000000
# 4 0.000000 0.000000 0.000000 -0.056526 0.000000 0.000000
# 5 0.000000 0.000000 0.000000 0.000000 0.054468 0.000000
# 6 0.000000 0.000000 0.000000 0.000000 0.000000 0.031881
#
#
# Mechanical properties :
#
#
# Convention : Reuss Voigt Hill
#
# Bulk Modulus (GPa) = 67.92259 73.17332 70.54796
# Shear Modulus (GPa) = 56.71242 21.17110 38.94176
#
# Velocity S-wave (km/s) = 5.66739 3.46271 4.69626
# Velocity P-wave (km/s) = 9.01632 7.57821 8.32836
#
# Compressibility (1/GPa) = 0.01472264
#
# Stress axis : x y z
#
# Youngs Moduli (GPa) = 103.53057 90.55346 74.76058
#
# Poissons Ratio (x) = 0.37937 0.03890
# Poissons Ratio (y) = 0.43374 0.37141
# Poissons Ratio (z) = 0.05387 0.44987
#
# Static dielectric constant tensor:
#      x y z
#    x 3.487710 0.000000 0.000000 
#    y 0.000000 3.343360 0.000000 
#    z 0.000000 0.000000 3.235390 
# 
# 
# High freq. dielectric constant tensor:
#      x y z
#    x 1.675030 0.000000 0.000000 
#    y 0.000000 1.674770 0.000000 
#    z 0.000000 0.000000 1.680550 
# 
# From -- ./inp_files/3343.got.cif
#   From: 2010.06.25/outbox.cif.g09.slc.cpg/sg71_2_cif.got.tgz:3343.got - 2010.06.28 04:59:45.
