data_PCOD8290395
_publ_section_title
;
Structure prediction by ZEFSAII (Michael W. Deem and Ramdas Pophale) SiO2 
 PCOD8290395
Probable space group: I M M M
;
_chemical_formula_sum "Si O2"
_cell_formula_units_Z 104
_cell_length_a 9.067740
_cell_length_b 32.002401
_cell_length_c 20.328922
_cell_angle_alpha 90.000000
_cell_angle_beta 90.000000
_cell_angle_gamma 90.000000
_cell_volume 5899.238728
_symmetry_space_group_name_H-M "I M M M"
_symmetry_group_IT_number 71
_symmetry_cell_setting 'orthorhombic'
loop_
_space_group_symop_operation_xyz
x,y,z
-x,-y,z
x,-y,-z
-x,y,-z
-x,-y,-z
x,y,-z
-x,y,z
x,-y,z
1/2+x,1/2+y,1/2+z
1/2-x,1/2-y,1/2+z
1/2+x,1/2-y,1/2-z
1/2-x,1/2+y,1/2-z
1/2-x,1/2-y,1/2-z
1/2+x,1/2+y,1/2-z
1/2-x,1/2+y,1/2+z
1/2+x,1/2-y,1/2+z
loop_
_atom_site_type_symbol
_atom_site_label
_atom_site_fract_x
_atom_site_fract_y
_atom_site_fract_z
Si Si1 0.335570 0.336214 0.828486
Si Si2 0.325544 0.775596 0.426156
Si Si3 0.324141 0.373542 0.692348
Si Si4 0.338089 0.048467 0.500000
Si Si5 0.666534 0.570894 0.870941
Si Si6 0.171883 0.452899 0.258715
Si Si7 0.174992 0.181559 0.072617
O O1 0.500000 0.317297 0.824927
O O2 0.235377 0.304185 0.868155
O O3 0.275351 0.344991 0.754604
O O4 0.335682 0.379488 0.866648
O O5 0.274802 0.789712 0.500000
O O6 0.500000 0.777531 0.422068
O O7 0.268385 0.728459 0.413177
O O8 0.500000 0.380096 0.694061
O O9 0.249965 0.419295 0.693651
O O10 0.264595 0.350535 0.627082
O O11 0.500000 0.070579 0.500000
O O12 0.244645 0.060993 0.437944
O O13 0.365238 0.000000 0.500000
O O14 0.500000 0.553122 0.869834
O O15 0.757229 0.549223 0.813115
O O16 0.194535 0.500000 0.286639
O O17 0.000000 0.441845 0.253052
O O18 0.000000 0.181739 0.075494
O O19 0.228479 0.167041 0.000000
#
# Coordination Sequence:
#
# PCOD8290395 Si02
#       7
#    16  16  16   8  16  16  16
#     4   9  19  32  45  68 100 129 162 206 252 293
#     4   9  18  31  48  71  97 131 173 209 245 294
#     4   9  18  33  53  76 100 129 165 204 249 300
#     4  11  23  35  47  67  95 127 167 215 263 307
#     4  10  21  35  50  69  95 130 170 212 255 299
#     4  10  20  34  52  74 100 128 160 202 250 299
#     4   8  15  31  54  77 101 128 162 205 249 295
#
# _framework density 17.629394000000001
#
# number of rings (size 3 to 8) (size 9 to 14) (size 15 to 20)
#    0.000    2.692    0.000    3.462    1.077    7.692 
#    0.000    0.769    0.000    1.846    0.000    3.231 
#    0.000    0.000    0.000    0.000    0.000    0.000 
#
# Total GULP energy -644551.626112 kJ/mol
# GULP energy per Si atom -12395.223579 kJ/mol
# Density = 1.758927 g / cm^3
# Si number density = 17.629394 Si / 1000 Ang^3
#
#
#
# Elastic Constant Matrix: (Units=GPa)
#
#
# Indices 1 2 3 4 5 6 
#
# 1 70.2262 42.1331 39.7067 0.0000 0.0000 0.0000
# 2 42.1331 98.2969 75.0849 0.0000 0.0000 0.0000
# 3 39.7067 75.0849 121.0488 0.0001 0.0000 0.0000
# 4 0.0000 0.0000 0.0001 12.7457 0.0000 0.0000
# 5 0.0000 0.0000 0.0000 0.0000 16.5460 0.0000
# 6 0.0000 0.0000 0.0000 0.0000 0.0000 25.4607
#
#
#
# Elastic Compliance Matrix: (Units=1/GPa)
#
#
# Indices 1 2 3 4 5 6 
#
# 1 0.019502 -0.006600 -0.002303 0.000000 0.000000 0.000000
# 2 -0.006600 0.021567 -0.011213 0.000000 0.000000 0.000000
# 3 -0.002303 -0.011213 0.015972 0.000000 0.000000 0.000000
# 4 0.000000 0.000000 0.000000 0.078458 0.000000 0.000000
# 5 0.000000 0.000000 0.000000 0.000000 0.060438 0.000000
# 6 0.000000 0.000000 0.000000 0.000000 0.000000 0.039276
#
#
# Mechanical properties :
#
#
# Convention : Reuss Voigt Hill
#
# Bulk Modulus (GPa) = 59.49240 67.04680 63.26960
# Shear Modulus (GPa) = 17.79060 19.79361 18.79211
#
# Velocity S-wave (km/s) = 3.18015 3.35440 3.26844
# Velocity P-wave (km/s) = 6.87778 7.28811 7.08591
#
# Compressibility (1/GPa) = 0.01680887
#
# Stress axis : x y z
#
# Youngs Moduli (GPa) = 51.27810 46.36669 62.60973
#
# Poissons Ratio (x) = 0.30600 0.14421
# Poissons Ratio (y) = 0.33841 0.70205
# Poissons Ratio (z) = 0.11811 0.51991
#
# Static dielectric constant tensor:
#      x y z
#    x 3.259880 0.000000 0.000000 
#    y 0.000000 3.322440 0.000000 
#    z 0.000000 0.000000 3.284860 
# 
# 
# High freq. dielectric constant tensor:
#      x y z
#    x 1.670830 0.000000 0.000000 
#    y 0.000000 1.678190 0.000000 
#    z 0.000000 0.000000 1.672880 
# 
# From -- ./inp_files/11467.got.cif
#   From: 2010.06.25/outbox.cif.g09.slc.cpg/sg71_6_cif.got.tgz:11467.got - 2010.06.28 04:59:45.
