data_PCOD8290441
_publ_section_title
;
Structure prediction by ZEFSAII (Michael W. Deem and Ramdas Pophale) SiO2 
 PCOD8290441
Probable space group: I M M M
;
_chemical_formula_sum "Si O2"
_cell_formula_units_Z 80
_cell_length_a 20.269205
_cell_length_b 17.939606
_cell_length_c 12.526121
_cell_angle_alpha 90.000000
_cell_angle_beta 90.000000
_cell_angle_gamma 90.000000
_cell_volume 4554.767554
_symmetry_space_group_name_H-M "I M M M"
_symmetry_group_IT_number 71
_symmetry_cell_setting 'orthorhombic'
loop_
_space_group_symop_operation_xyz
x,y,z
-x,-y,z
x,-y,-z
-x,y,-z
-x,-y,-z
x,y,-z
-x,y,z
x,-y,z
1/2+x,1/2+y,1/2+z
1/2-x,1/2-y,1/2+z
1/2+x,1/2-y,1/2-z
1/2-x,1/2+y,1/2-z
1/2-x,1/2-y,1/2-z
1/2+x,1/2+y,1/2-z
1/2-x,1/2+y,1/2+z
1/2+x,1/2-y,1/2+z
loop_
_atom_site_type_symbol
_atom_site_label
_atom_site_fract_x
_atom_site_fract_y
_atom_site_fract_z
Si Si1 0.810111 0.802809 0.625205
Si Si2 0.924535 0.299459 0.122708
Si Si3 0.775942 0.500000 0.375738
Si Si4 0.621117 0.500000 0.375476
Si Si5 0.689390 0.851284 0.761575
Si Si6 0.574860 0.351933 0.735710
O O1 0.802769 0.813222 0.500000
O O2 0.750472 0.846175 0.681045
O O3 0.807963 0.715546 0.653239
O O4 0.878381 0.840524 0.662249
O O5 0.878438 0.351188 0.195066
O O6 0.911313 0.213020 0.149813
O O7 0.000000 0.321941 0.145781
O O8 0.905723 0.311784 0.000000
O O9 0.791891 0.500000 0.500000
O O10 0.698479 0.500000 0.353034
O O11 0.809209 0.572204 0.325106
O O12 0.604592 0.500000 0.500000
O O13 0.588209 0.571404 0.323197
O O14 0.500000 0.349603 0.777949
#
# Coordination Sequence:
#
# PCOD8290441 Si02
#       6
#    16  16   8   8  16  16
#     4  10  20  35  55  78 104 142 185 220 259 311
#     4   9  18  34  57  83 108 137 175 221 271 317
#     4  11  22  37  57  81 109 139 174 221 271 315
#     4  11  21  34  53  79 111 145 179 218 266 314
#     4  10  20  36  56  80 106 138 176 225 267 311
#     4  10  20  34  52  79 113 144 179 220 259 310
#
# _framework density 17.564012999999999
#
# number of rings (size 3 to 8) (size 9 to 14) (size 15 to 20)
#    0.000    2.000    2.000    2.100    0.000    2.000 
#    0.000    4.000    0.000    4.800    0.000    0.000 
#    0.000    0.000    0.000    0.000    0.000    0.000 
#
# Total GULP energy -496143.666500 kJ/mol
# GULP energy per Si atom -12403.591662 kJ/mol
# Density = 1.752404 g / cm^3
# Si number density = 17.564013 Si / 1000 Ang^3
#
#
#
# Elastic Constant Matrix: (Units=GPa)
#
#
# Indices 1 2 3 4 5 6 
#
# 1 114.7577 51.6121 59.3797 0.0000 0.0000 0.0000
# 2 51.6121 100.0919 46.2036 0.0000 0.0000 0.0000
# 3 59.3797 46.2036 109.6762 0.0000 0.0000 0.0000
# 4 0.0000 0.0000 0.0000 19.8656 0.0000 0.0000
# 5 0.0000 0.0000 0.0000 0.0000 26.5285 0.0000
# 6 0.0000 0.0000 0.0000 0.0000 0.0000 29.4186
#
#
#
# Elastic Compliance Matrix: (Units=1/GPa)
#
#
# Indices 1 2 3 4 5 6 
#
# 1 0.013544 -0.004468 -0.005451 0.000000 0.000000 0.000000
# 2 -0.004468 0.013876 -0.003427 0.000000 0.000000 0.000000
# 3 -0.005451 -0.003427 0.013512 0.000000 0.000000 0.000000
# 4 0.000000 0.000000 0.000000 0.050338 0.000000 0.000000
# 5 0.000000 0.000000 0.000000 0.000000 0.037695 0.000000
# 6 0.000000 0.000000 0.000000 0.000000 0.000000 0.033992
#
#
# Mechanical properties :
#
#
# Convention : Reuss Voigt Hill
#
# Bulk Modulus (GPa) = 70.21395 70.99074 70.60234
# Shear Modulus (GPa) = 25.72071 26.31791 26.01931
#
# Velocity S-wave (km/s) = 3.83090 3.87512 3.85307
# Velocity P-wave (km/s) = 7.72208 7.77998 7.75108
#
# Compressibility (1/GPa) = 0.01424218
#
# Stress axis : x y z
#
# Youngs Moduli (GPa) = 73.83530 72.06432 74.00621
#
# Poissons Ratio (x) = 0.32196 0.40337
# Poissons Ratio (y) = 0.32988 0.25361
# Poissons Ratio (z) = 0.40244 0.24696
#
# Static dielectric constant tensor:
#      x y z
#    x 3.498700 0.000000 0.000000 
#    y 0.000000 3.141600 0.000000 
#    z 0.000000 0.000000 3.153610 
# 
# 
# High freq. dielectric constant tensor:
#      x y z
#    x 1.690440 0.000000 0.000000 
#    y 0.000000 1.669250 0.000000 
#    z 0.000000 0.000000 1.675140 
# 
# From -- ./inp_files/23860.got.cif
#   From: 2010.06.25/outbox.cif.g09.slc.cpg/sg71_12_cif.got.tgz:23860.got - 2010.06.28 04:59:45.
