data_PCOD8290897
_publ_section_title
;
Structure prediction by ZEFSAII (Michael W. Deem and Ramdas Pophale) SiO2 
 PCOD8290897
Probable space group: I M M M
;
_chemical_formula_sum "Si O2"
_cell_formula_units_Z 104
_cell_length_a 8.688575
_cell_length_b 27.070125
_cell_length_c 21.776709
_cell_angle_alpha 90.000000
_cell_angle_beta 90.000000
_cell_angle_gamma 90.000000
_cell_volume 5121.899625
_symmetry_space_group_name_H-M "I M M M"
_symmetry_group_IT_number 71
_symmetry_cell_setting 'orthorhombic'
loop_
_space_group_symop_operation_xyz
x,y,z
-x,-y,z
x,-y,-z
-x,y,-z
-x,-y,-z
x,y,-z
-x,y,z
x,-y,z
1/2+x,1/2+y,1/2+z
1/2-x,1/2-y,1/2+z
1/2+x,1/2-y,1/2-z
1/2-x,1/2+y,1/2-z
1/2-x,1/2-y,1/2-z
1/2+x,1/2+y,1/2-z
1/2-x,1/2+y,1/2+z
1/2+x,1/2-y,1/2+z
loop_
_atom_site_type_symbol
_atom_site_label
_atom_site_fract_x
_atom_site_fract_y
_atom_site_fract_z
Si Si1 0.817065 0.232723 0.570043
Si Si2 0.327247 0.058872 0.000000
Si Si3 0.671503 0.621048 0.071052
Si Si4 0.172254 0.058430 0.121917
Si Si5 0.319386 0.720776 0.692343
Si Si6 0.680389 0.944922 0.335139
Si Si7 0.178949 0.617690 0.278241
O O1 0.765442 0.248654 0.500000
O O2 0.764135 0.176311 0.582193
O O3 0.744832 0.265064 0.624798
O O4 0.000000 0.236935 0.574010
O O5 0.232922 0.079408 0.942430
O O6 0.500000 0.080827 0.000000
O O7 0.334536 0.000000 0.000000
O O8 0.500000 0.616729 0.099026
O O9 0.779879 0.579515 0.100064
O O10 0.667658 0.608869 0.000000
O O11 0.295988 0.075723 0.171356
O O12 0.000000 0.078937 0.134237
O O13 0.171003 0.000000 0.121582
O O14 0.500000 0.730402 0.691607
O O15 0.250000 0.750000 0.750000
O O16 0.283044 0.663889 0.704129
O O17 0.500000 0.950472 0.327636
O O18 0.742549 0.906658 0.284283
O O19 0.754491 0.000000 0.329284
O O20 0.000000 0.632950 0.274249
#
# Coordination Sequence:
#
# PCOD8290897 Si02
#       7
#    16   8  16  16  16  16  16
#     4   9  19  39  65  91 121 157 199 248 302 361
#     4   9  17  31  53  79 107 145 189 229 275 331
#     4   9  19  36  59  87 117 151 191 234 282 342
#     4  10  20  35  56  83 115 149 188 236 287 340
#     4  12  25  41  62  89 121 155 197 248 304 365
#     4  10  22  38  56  82 116 153 194 242 291 342
#     4  11  23  40  60  83 112 150 197 244 296 352
#
# _framework density 20.304967999999999
#
# number of rings (size 3 to 8) (size 9 to 14) (size 15 to 20)
#    0.000    1.923    0.000    4.846    0.000    8.000 
#    1.385    3.077    0.000    0.000    0.000    0.000 
#    0.000    0.000    0.000    0.000    0.000    0.000 
#
# Total GULP energy -644633.178515 kJ/mol
# GULP energy per Si atom -12396.791895 kJ/mol
# Density = 2.025875 g / cm^3
# Si number density = 20.304968 Si / 1000 Ang^3
#
#
#
# Elastic Constant Matrix: (Units=GPa)
#
#
# Indices 1 2 3 4 5 6 
#
# 1 63.8446 35.9098 37.1999 0.0000 0.0000 0.0000
# 2 35.9098 95.2416 59.4784 0.0000 0.0000 0.0000
# 3 37.1999 59.4784 120.9665 0.0001 0.0000 0.0000
# 4 0.0000 0.0000 0.0001 30.7554 0.0000 0.0000
# 5 0.0000 0.0000 0.0000 0.0000 33.7780 0.0000
# 6 0.0000 0.0000 0.0000 0.0000 0.0000 30.0414
#
#
#
# Elastic Compliance Matrix: (Units=1/GPa)
#
#
# Indices 1 2 3 4 5 6 
#
# 1 0.020964 -0.005597 -0.003695 0.000000 0.000000 0.000000
# 2 -0.005597 0.016646 -0.006464 0.000000 0.000000 0.000000
# 3 -0.003695 -0.006464 0.012581 0.000000 0.000000 0.000000
# 4 0.000000 0.000000 0.000000 0.032515 0.000000 0.000000
# 5 0.000000 0.000000 0.000000 0.000000 0.029605 0.000000
# 6 0.000000 0.000000 0.000000 0.000000 0.000000 0.033287
#
#
# Mechanical properties :
#
#
# Convention : Reuss Voigt Hill
#
# Bulk Modulus (GPa) = 53.53164 60.58100 57.05632
# Shear Modulus (GPa) = 27.27225 28.74592 28.00909
#
# Velocity S-wave (km/s) = 3.66885 3.76667 3.71808
# Velocity P-wave (km/s) = 6.66096 6.98695 6.82590
#
# Compressibility (1/GPa) = 0.01868054
#
# Stress axis : x y z
#
# Youngs Moduli (GPa) = 47.70120 60.07296 79.48319
#
# Poissons Ratio (x) = 0.33621 0.29369
# Poissons Ratio (y) = 0.26697 0.51377
# Poissons Ratio (z) = 0.17626 0.38830
#
# Static dielectric constant tensor:
#      x y z
#    x 3.651940 0.000000 0.000000 
#    y 0.000000 2.265510 0.000000 
#    z 0.000000 0.000000 3.895680 
# 
# 
# High freq. dielectric constant tensor:
#      x y z
#    x 1.787380 0.000000 0.000000 
#    y 0.000000 1.783890 0.000000 
#    z 0.000000 0.000000 1.806800 
# 
# From -- ./inp_files/11052.got.cif
#   From: 2010.06.25/outbox.cif.g09.slc.cpg/sg71_6_cif.got.tgz:11052.got - 2010.06.28 04:59:45.
