data_PCOD8290028
_publ_section_title
;
Structure prediction by ZEFSAII (Michael W. Deem and Ramdas Pophale) SiO2 
 PCOD8290028
Probable space group: I M M M
;
_chemical_formula_sum "Si O2"
_cell_formula_units_Z 72
_cell_length_a 14.393717
_cell_length_b 8.625884
_cell_length_c 31.395855
_cell_angle_alpha 90.000000
_cell_angle_beta 90.000000
_cell_angle_gamma 90.000000
_cell_volume 3898.063304
_symmetry_space_group_name_H-M "I M M M"
_symmetry_group_IT_number 71
_symmetry_cell_setting 'orthorhombic'
loop_
_space_group_symop_operation_xyz
x,y,z
-x,-y,z
x,-y,-z
-x,y,-z
-x,-y,-z
x,y,-z
-x,y,z
x,-y,z
1/2+x,1/2+y,1/2+z
1/2-x,1/2-y,1/2+z
1/2+x,1/2-y,1/2-z
1/2-x,1/2+y,1/2-z
1/2-x,1/2-y,1/2-z
1/2+x,1/2+y,1/2-z
1/2-x,1/2+y,1/2+z
1/2+x,1/2-y,1/2+z
loop_
_atom_site_type_symbol
_atom_site_label
_atom_site_fract_x
_atom_site_fract_y
_atom_site_fract_z
Si Si1 0.500000 0.317044 0.759352
Si Si2 0.000000 0.830713 0.951561
Si Si3 0.000000 0.683516 0.164720
Si Si4 0.312009 0.817237 0.787182
Si Si5 0.307418 0.181980 0.452460
Si Si6 0.691728 0.681400 0.368000
O O1 0.500000 0.500000 0.753789
O O2 0.500000 0.244504 0.712687
O O3 0.588251 0.263104 0.786427
O O4 0.087052 0.723893 0.941140
O O5 0.000000 0.000000 0.927307
O O6 0.000000 0.876153 0.000000
O O7 0.091478 0.740731 0.139985
O O8 0.000000 0.500000 0.166140
O O9 0.250000 0.750000 0.750000
O O10 0.263454 0.772476 0.831326
O O11 0.323072 0.000000 0.781182
O O12 0.278281 0.244184 0.500000
O O13 0.256943 0.262527 0.412174
O O14 0.291538 0.000000 0.451250
O O15 0.674944 0.500000 0.370004
#
# Coordination Sequence:
#
# PCOD8290028 Si02
#       6
#     8   8   8  16  16  16
#     4  12  24  39  59  83 114 149 187 228 276 334
#     4   9  16  27  44  65  94 134 177 220 265 314
#     4  12  23  35  55  79 111 150 190 232 276 327
#     4  11  23  39  60  84 113 147 186 231 279 330
#     4  10  20  33  49  71 102 140 182 226 273 326
#     4  11  23  37  55  80 111 146 188 232 277 331
#
# _framework density 18.470711999999999
#
# number of rings (size 3 to 8) (size 9 to 14) (size 15 to 20)
#    0.000    1.222    2.222    5.000    0.000    5.333 
#    0.000    0.000    0.000    0.000    0.000    0.778 
#    0.000    6.222    0.000    0.000    0.000    0.000 
#
# Total GULP energy -446142.672472 kJ/mol
# GULP energy per Si atom -12392.852013 kJ/mol
# Density = 1.842867 g / cm^3
# Si number density = 18.470712 Si / 1000 Ang^3
#
#
#
# Elastic Constant Matrix: (Units=GPa)
#
#
# Indices 1 2 3 4 5 6 
#
# 1 88.4855 36.2076 53.9404 0.0000 0.0000 0.0000
# 2 36.2076 102.1096 62.9006 0.0000 0.0000 0.0000
# 3 53.9404 62.9006 182.0679 0.0000 0.0000 0.0000
# 4 0.0000 0.0000 0.0000 33.1665 0.0000 0.0000
# 5 0.0000 0.0000 0.0000 0.0000 22.3365 0.0000
# 6 0.0000 0.0000 0.0000 0.0000 0.0000 24.4710
#
#
#
# Elastic Compliance Matrix: (Units=1/GPa)
#
#
# Indices 1 2 3 4 5 6 
#
# 1 0.014564 -0.003184 -0.003215 0.000000 0.000000 0.000000
# 2 -0.003184 0.013137 -0.003595 0.000000 0.000000 0.000000
# 3 -0.003215 -0.003595 0.007687 0.000000 0.000000 0.000000
# 4 0.000000 0.000000 0.000000 0.030151 0.000000 0.000000
# 5 0.000000 0.000000 0.000000 0.000000 0.044770 0.000000
# 6 0.000000 0.000000 0.000000 0.000000 0.000000 0.040865
#
#
# Mechanical properties :
#
#
# Convention : Reuss Voigt Hill
#
# Bulk Modulus (GPa) = 64.93538 75.41779 70.17658
# Shear Modulus (GPa) = 28.36161 30.63578 29.49870
#
# Velocity S-wave (km/s) = 3.92279 4.07703 4.00065
# Velocity P-wave (km/s) = 7.46658 7.94245 7.70819
#
# Compressibility (1/GPa) = 0.01539993
#
# Stress axis : x y z
#
# Youngs Moduli (GPa) = 68.66320 76.11991 130.08998
#
# Poissons Ratio (x) = 0.24236 0.41821
# Poissons Ratio (y) = 0.21862 0.46771
# Poissons Ratio (z) = 0.22074 0.27368
#
# Static dielectric constant tensor:
#      x y z
#    x 1.693180 0.000000 0.000000 
#    y 0.000000 3.504570 0.000000 
#    z 0.000000 0.000000 3.935380 
# 
# 
# High freq. dielectric constant tensor:
#      x y z
#    x 1.665050 0.000000 0.000000 
#    y 0.000000 1.734400 0.000000 
#    z 0.000000 0.000000 1.740830 
# 
# From -- ./inp_files/69727.got.cif
#   From: 2010.06.25/outbox.cif.g09.slc.cpg/sg71_35_cif.got.tgz:69727.got - 2010.06.28 04:59:45.
