data_PCOD8290976
_publ_section_title
;
Structure prediction by ZEFSAII (Michael W. Deem and Ramdas Pophale) SiO2 
 PCOD8290976
Probable space group: I M M M
;
_chemical_formula_sum "Si O2"
_cell_formula_units_Z 120
_cell_length_a 32.612754
_cell_length_b 13.833363
_cell_length_c 14.030973
_cell_angle_alpha 90.000000
_cell_angle_beta 90.000000
_cell_angle_gamma 90.000000
_cell_volume 6329.990188
_symmetry_space_group_name_H-M "I M M M"
_symmetry_group_IT_number 71
_symmetry_cell_setting 'orthorhombic'
loop_
_space_group_symop_operation_xyz
x,y,z
-x,-y,z
x,-y,-z
-x,y,-z
-x,-y,-z
x,y,-z
-x,y,z
x,-y,z
1/2+x,1/2+y,1/2+z
1/2-x,1/2-y,1/2+z
1/2+x,1/2-y,1/2-z
1/2-x,1/2+y,1/2-z
1/2-x,1/2-y,1/2-z
1/2+x,1/2+y,1/2-z
1/2-x,1/2+y,1/2+z
1/2+x,1/2-y,1/2+z
loop_
_atom_site_type_symbol
_atom_site_label
_atom_site_fract_x
_atom_site_fract_y
_atom_site_fract_z
Si Si1 0.322530 0.891109 0.392467
Si Si2 0.673008 0.611371 0.744296
Si Si3 0.168841 0.726562 0.609183
Si Si4 0.117372 0.218231 0.111265
Si Si5 0.048420 0.500000 0.894813
Si Si6 0.412482 0.112718 0.891196
Si Si7 0.266444 0.110503 0.216809
Si Si8 0.047596 0.691108 0.214072
O O1 0.306407 0.873794 0.500000
O O2 0.358916 0.818120 0.367067
O O3 0.284379 0.873190 0.322657
O O4 0.339997 0.000000 0.380220
O O5 0.670130 0.500000 0.775331
O O6 0.658023 0.677016 0.832057
O O7 0.644148 0.630032 0.652780
O O8 0.719143 0.641097 0.717062
O O9 0.172056 0.757936 0.500000
O O10 0.133852 0.646857 0.627114
O O11 0.211414 0.678645 0.640765
O O12 0.074034 0.222282 0.167455
O O13 0.109451 0.200258 0.000000
O O14 0.062475 0.404874 0.840163
O O15 0.000000 0.500000 0.903853
O O16 0.068800 0.500000 0.000000
O O17 0.443313 0.174952 0.825845
O O18 0.415515 0.000000 0.865462
O O19 0.425806 0.131731 0.000000
O O20 0.271559 0.000000 0.183756
O O21 0.000000 0.716049 0.199762
#
# Coordination Sequence:
#
# PCOD8290976 Si02
#       8
#    16  16  16  16   8  16  16  16
#     4   9  18  32  54  84 117 153 189 226 273 332
#     4  11  24  41  59  82 113 150 194 244 293 333
#     4  11  22  37  59  85 116 154 195 235 277 330
#     4  11  23  38  58  82 112 150 190 234 285 341
#     4   9  18  30  47  79 117 149 180 214 265 337
#     4  10  20  35  57  87 122 158 193 227 273 337
#     4  10  20  36  58  85 118 151 187 230 277 338
#     4  11  21  35  56  82 115 153 187 229 282 341
#
# _framework density 18.957374999999999
#
# number of rings (size 3 to 8) (size 9 to 14) (size 15 to 20)
#    0.000    1.667    3.333    1.200    0.933    4.533 
#    0.000    3.333    0.000    0.400    0.000    0.933 
#    0.000    2.133    0.000    0.000    0.000    0.000 
#
# Total GULP energy -744189.485990 kJ/mol
# GULP energy per Si atom -12403.158100 kJ/mol
# Density = 1.891423 g / cm^3
# Si number density = 18.957375 Si / 1000 Ang^3
#
#
#
# Elastic Constant Matrix: (Units=GPa)
#
#
# Indices 1 2 3 4 5 6 
#
# 1 98.8343 23.5413 43.9563 0.0000 0.0000 0.0000
# 2 23.5413 47.3448 30.2685 0.0000 0.0000 0.0000
# 3 43.9563 30.2685 112.2517 0.0000 0.0000 0.0000
# 4 0.0000 0.0000 0.0000 22.4227 0.0000 0.0000
# 5 0.0000 0.0000 0.0000 0.0000 21.8295 0.0000
# 6 0.0000 0.0000 0.0000 0.0000 0.0000 25.3245
#
#
#
# Elastic Compliance Matrix: (Units=1/GPa)
#
#
# Indices 1 2 3 4 5 6 
#
# 1 0.012798 -0.003818 -0.003982 0.000000 0.000000 0.000000
# 2 -0.003818 0.026660 -0.005694 0.000000 0.000000 0.000000
# 3 -0.003982 -0.005694 0.012003 0.000000 0.000000 0.000000
# 4 0.000000 0.000000 0.000000 0.044598 0.000000 0.000000
# 5 0.000000 0.000000 0.000000 0.000000 0.045809 0.000000
# 6 0.000000 0.000000 0.000000 0.000000 0.000000 0.039487
#
#
# Mechanical properties :
#
#
# Convention : Reuss Voigt Hill
#
# Bulk Modulus (GPa) = 40.85963 50.44032 45.64998
# Shear Modulus (GPa) = 23.09446 24.62634 23.86040
#
# Velocity S-wave (km/s) = 3.49410 3.60813 3.55157
# Velocity P-wave (km/s) = 6.15456 6.63499 6.39928
#
# Compressibility (1/GPa) = 0.02447404
#
# Stress axis : x y z
#
# Youngs Moduli (GPa) = 78.13483 37.50908 83.31054
#
# Poissons Ratio (x) = 0.14320 0.33176
# Poissons Ratio (y) = 0.29831 0.47436
# Poissons Ratio (z) = 0.31115 0.21357
#
# Static dielectric constant tensor:
#      x y z
#    x 3.325200 0.000000 0.000000 
#    y 0.000000 3.332280 0.000000 
#    z 0.000000 0.000000 3.593980 
# 
# 
# High freq. dielectric constant tensor:
#      x y z
#    x 1.726680 0.000000 0.000000 
#    y 0.000000 1.711450 0.000000 
#    z 0.000000 0.000000 1.746080 
# 
# From -- ./inp_files/41138.got.cif
#   From: 2010.06.25/outbox.cif.g09.slc.cpg/sg71_21_cif.got.tgz:41138.got - 2010.06.28 04:59:45.
