data_PCOD8290239
_publ_section_title
;
Structure prediction by ZEFSAII (Michael W. Deem and Ramdas Pophale) SiO2 
 PCOD8290239
Probable space group: I M M M
;
_chemical_formula_sum "Si O2"
_cell_formula_units_Z 104
_cell_length_a 9.192021
_cell_length_b 24.203532
_cell_length_c 25.521065
_cell_angle_alpha 90.000000
_cell_angle_beta 90.000000
_cell_angle_gamma 90.000000
_cell_volume 5677.910576
_symmetry_space_group_name_H-M "I M M M"
_symmetry_group_IT_number 71
_symmetry_cell_setting 'orthorhombic'
loop_
_space_group_symop_operation_xyz
x,y,z
-x,-y,z
x,-y,-z
-x,y,-z
-x,-y,-z
x,y,-z
-x,y,z
x,-y,z
1/2+x,1/2+y,1/2+z
1/2-x,1/2-y,1/2+z
1/2+x,1/2-y,1/2-z
1/2-x,1/2+y,1/2-z
1/2-x,1/2-y,1/2-z
1/2+x,1/2+y,1/2-z
1/2-x,1/2+y,1/2+z
1/2+x,1/2-y,1/2+z
loop_
_atom_site_type_symbol
_atom_site_label
_atom_site_fract_x
_atom_site_fract_y
_atom_site_fract_z
Si Si1 0.671610 0.564422 0.768034
Si Si2 0.829323 0.107328 0.560038
Si Si3 0.162044 0.500000 0.938028
Si Si4 0.337713 0.263331 0.699311
Si Si5 0.665024 0.145186 0.348828
Si Si6 0.828172 0.121223 0.839766
Si Si7 0.326921 0.437499 0.557754
O O1 0.500000 0.573077 0.777384
O O2 0.714574 0.500000 0.776443
O O3 0.757132 0.604261 0.807891
O O4 0.716537 0.582218 0.709124
O O5 0.791339 0.120835 0.500000
O O6 0.756084 0.152032 0.597322
O O7 0.000000 0.102091 0.568732
O O8 0.753929 0.051795 0.581195
O O9 0.000000 0.500000 0.913441
O O10 0.151758 0.500000 0.000000
O O11 0.500000 0.280035 0.716756
O O12 0.250000 0.250000 0.750000
O O13 0.337340 0.208837 0.665449
O O14 0.269527 0.316221 0.669093
O O15 0.500000 0.123723 0.357513
O O16 0.759869 0.098701 0.894461
O O17 0.000000 0.121097 0.846118
O O18 0.276663 0.415348 0.500000
O O19 0.500000 0.436517 0.560409
O O20 0.271075 0.500000 0.565186
#
# Coordination Sequence:
#
# PCOD8290239 Si02
#       7
#    16  16   8  16  16  16  16
#     4  10  20  33  52  77 104 137 175 217 267 321
#     4  10  21  37  56  76 100 135 178 217 257 313
#     4   9  17  31  53  79 105 133 165 207 260 309
#     4  10  20  35  54  75 100 137 182 221 266 319
#     4  11  23  36  52  76 106 139 176 218 272 325
#     4   9  16  29  49  72 101 135 176 220 261 311
#     4   8  13  22  40  70 107 141 169 203 256 319
#
# _framework density 18.316597000000002
#
# number of rings (size 3 to 8) (size 9 to 14) (size 15 to 20)
#    0.000    2.385    1.538    2.077    1.077    4.615 
#    0.000    0.769    0.000    2.769    0.000    0.000 
#    0.000    1.846    0.000    8.462    0.000    7.692 
#
# Total GULP energy -644364.345851 kJ/mol
# GULP energy per Si atom -12391.622036 kJ/mol
# Density = 1.827491 g / cm^3
# Si number density = 18.316597 Si / 1000 Ang^3
#
#
#
# Elastic Constant Matrix: (Units=GPa)
#
#
# Indices 1 2 3 4 5 6 
#
# 1 68.8199 28.3833 46.1891 0.0000 0.0000 0.0000
# 2 28.3833 107.7063 55.9094 0.0000 0.0000 0.0000
# 3 46.1891 55.9094 136.9671 0.0000 0.0000 0.0000
# 4 0.0000 0.0000 0.0000 24.6915 0.0000 0.0000
# 5 0.0000 0.0000 0.0000 0.0000 20.8611 0.0000
# 6 0.0000 0.0000 0.0000 0.0000 0.0000 19.1871
#
#
#
# Elastic Compliance Matrix: (Units=1/GPa)
#
#
# Indices 1 2 3 4 5 6 
#
# 1 0.019167 -0.002152 -0.005585 0.000000 0.000000 0.000000
# 2 -0.002152 0.012022 -0.004182 0.000000 0.000000 0.000000
# 3 -0.005585 -0.004182 0.010892 0.000000 0.000000 0.000000
# 4 0.000000 0.000000 0.000000 0.040500 0.000000 0.000000
# 5 0.000000 0.000000 0.000000 0.000000 0.047936 0.000000
# 6 0.000000 0.000000 0.000000 0.000000 0.000000 0.052118
#
#
# Mechanical properties :
#
#
# Convention : Reuss Voigt Hill
#
# Bulk Modulus (GPa) = 54.81551 63.82855 59.32203
# Shear Modulus (GPa) = 23.52355 25.14872 24.33614
#
# Velocity S-wave (km/s) = 3.58757 3.70942 3.64900
# Velocity P-wave (km/s) = 6.86677 7.29859 7.08597
#
# Compressibility (1/GPa) = 0.01824301
#
# Stress axis : x y z
#
# Youngs Moduli (GPa) = 52.17389 83.17889 91.81447
#
# Poissons Ratio (x) = 0.17897 0.51281
# Poissons Ratio (y) = 0.11226 0.38395
# Poissons Ratio (z) = 0.29140 0.34784
#
# Static dielectric constant tensor:
#      x y z
#    x 3.160310 0.000000 0.000000 
#    y 0.000000 3.434580 0.000000 
#    z 0.000000 0.000000 3.551570 
# 
# 
# High freq. dielectric constant tensor:
#      x y z
#    x 1.679040 0.000000 0.000000 
#    y 0.000000 1.707740 0.000000 
#    z 0.000000 0.000000 1.717130 
# 
# From -- ./inp_files/57992.got.cif
#   From: 2010.06.25/outbox.cif.g09.slc.cpg/sg71_29_cif.got.tgz:57992.got - 2010.06.28 04:59:45.
