data_PCOD8290211
_publ_section_title
;
Structure prediction by ZEFSAII (Michael W. Deem and Ramdas Pophale) SiO2 
 PCOD8290211
Probable space group: I M M M
;
_chemical_formula_sum "Si O2"
_cell_formula_units_Z 80
_cell_length_a 12.915851
_cell_length_b 11.538287
_cell_length_c 29.016777
_cell_angle_alpha 90.000000
_cell_angle_beta 90.000000
_cell_angle_gamma 90.000000
_cell_volume 4324.277297
_symmetry_space_group_name_H-M "I M M M"
_symmetry_group_IT_number 71
_symmetry_cell_setting 'orthorhombic'
loop_
_space_group_symop_operation_xyz
x,y,z
-x,-y,z
x,-y,-z
-x,y,-z
-x,-y,-z
x,y,-z
-x,y,z
x,-y,z
1/2+x,1/2+y,1/2+z
1/2-x,1/2-y,1/2+z
1/2+x,1/2-y,1/2-z
1/2-x,1/2+y,1/2-z
1/2-x,1/2-y,1/2-z
1/2+x,1/2+y,1/2-z
1/2-x,1/2+y,1/2+z
1/2+x,1/2-y,1/2+z
loop_
_atom_site_type_symbol
_atom_site_label
_atom_site_fract_x
_atom_site_fract_y
_atom_site_fract_z
Si Si1 0.186644 0.866328 0.303685
Si Si2 0.815011 0.231596 0.401768
Si Si3 0.000000 0.636831 0.552487
Si Si4 0.617485 0.366826 0.381787
Si Si5 0.112632 0.758165 0.213814
Si Si6 0.118404 0.000000 0.554302
O O1 0.158321 0.790188 0.348244
O O2 0.114788 0.827576 0.261728
O O3 0.305490 0.846008 0.288457
O O4 0.168634 0.000000 0.315710
O O5 0.700057 0.285574 0.408304
O O6 0.898144 0.320161 0.421732
O O7 0.818575 0.111334 0.428918
O O8 0.000000 0.500000 0.553331
O O9 0.000000 0.684462 0.500000
O O10 0.500000 0.333863 0.397153
O O11 0.641288 0.500000 0.393789
O O12 0.631273 0.350450 0.326985
O O13 0.000000 0.699911 0.208896
O O14 0.115689 0.000000 0.500000
O O15 0.000000 0.000000 0.573643
#
# Coordination Sequence:
#
# PCOD8290211 Si02
#       6
#    16  16   8  16  16   8
#     4  10  20  33  51  78 111 146 188 231 279 330
#     4  11  21  36  58  87 113 147 190 237 286 347
#     4  11  24  41  61  85 115 150 187 237 297 351
#     4   9  18  35  58  83 112 150 193 235 282 334
#     4   9  19  33  51  74 109 151 191 234 271 322
#     4  11  22  38  59  83 115 151 184 229 291 355
#
# _framework density 18.500201000000001
#
# number of rings (size 3 to 8) (size 9 to 14) (size 15 to 20)
#    0.000    2.000    2.000    1.800    1.400    1.600 
#    0.000    1.500    0.000    3.000    0.000    7.000 
#    0.000    0.000    0.000    0.000    0.000    0.000 
#
# Total GULP energy -495986.187278 kJ/mol
# GULP energy per Si atom -12399.654682 kJ/mol
# Density = 1.845809 g / cm^3
# Si number density = 18.500201 Si / 1000 Ang^3
#
#
#
# Elastic Constant Matrix: (Units=GPa)
#
#
# Indices 1 2 3 4 5 6 
#
# 1 121.8442 47.4983 57.2255 0.0000 0.0000 0.0000
# 2 47.4983 89.1883 41.5311 0.0000 0.0000 0.0000
# 3 57.2255 41.5311 79.7747 0.0000 0.0000 0.0000
# 4 0.0000 0.0000 0.0000 26.2014 0.0000 0.0000
# 5 0.0000 0.0000 0.0000 0.0000 23.9065 0.0000
# 6 0.0000 0.0000 0.0000 0.0000 0.0000 16.9610
#
#
#
# Elastic Compliance Matrix: (Units=1/GPa)
#
#
# Indices 1 2 3 4 5 6 
#
# 1 0.013131 -0.003441 -0.007628 0.000000 0.000000 0.000000
# 2 -0.003441 0.015702 -0.005706 0.000000 0.000000 0.000000
# 3 -0.007628 -0.005706 0.020978 0.000000 0.000000 0.000000
# 4 0.000000 0.000000 0.000000 0.038166 0.000000 0.000000
# 5 0.000000 0.000000 0.000000 0.000000 0.041830 0.000000
# 6 0.000000 0.000000 0.000000 0.000000 0.000000 0.058959
#
#
# Mechanical properties :
#
#
# Convention : Reuss Voigt Hill
#
# Bulk Modulus (GPa) = 61.49887 64.81302 63.15595
# Shear Modulus (GPa) = 21.95527 23.05062 22.50294
#
# Velocity S-wave (km/s) = 3.44867 3.53365 3.49142
# Velocity P-wave (km/s) = 7.01229 7.19435 7.10390
#
# Compressibility (1/GPa) = 0.01626046
#
# Stress axis : x y z
#
# Youngs Moduli (GPa) = 76.15404 63.68656 47.66939
#
# Poissons Ratio (x) = 0.21915 0.36363
# Poissons Ratio (y) = 0.26206 0.27200
# Poissons Ratio (z) = 0.58091 0.36340
#
# Static dielectric constant tensor:
#      x y z
#    x 3.600300 0.000000 0.000000 
#    y 0.000000 3.291300 0.000000 
#    z 0.000000 0.000000 3.405460 
# 
# 
# High freq. dielectric constant tensor:
#      x y z
#    x 1.722930 0.000000 0.000000 
#    y 0.000000 1.711550 0.000000 
#    z 0.000000 0.000000 1.710830 
# 
# From -- ./inp_files/20172.got.cif
#   From: 2010.06.25/outbox.cif.g09.slc.cpg/sg71_11_cif.got.tgz:20172.got - 2010.06.28 04:59:45.
