data_PCOD8290278
_publ_section_title
;
Structure prediction by ZEFSAII (Michael W. Deem and Ramdas Pophale) SiO2 
 PCOD8290278
Probable space group: I M M M
;
_chemical_formula_sum "Si O2"
_cell_formula_units_Z 88
_cell_length_a 23.947329
_cell_length_b 19.869589
_cell_length_c 9.251475
_cell_angle_alpha 90.000000
_cell_angle_beta 90.000000
_cell_angle_gamma 90.000000
_cell_volume 4402.070000
_symmetry_space_group_name_H-M "I M M M"
_symmetry_group_IT_number 71
_symmetry_cell_setting 'orthorhombic'
loop_
_space_group_symop_operation_xyz
x,y,z
-x,-y,z
x,-y,-z
-x,y,-z
-x,-y,-z
x,y,-z
-x,y,z
x,-y,z
1/2+x,1/2+y,1/2+z
1/2-x,1/2-y,1/2+z
1/2+x,1/2-y,1/2-z
1/2-x,1/2+y,1/2-z
1/2-x,1/2-y,1/2-z
1/2+x,1/2+y,1/2-z
1/2-x,1/2+y,1/2+z
1/2+x,1/2-y,1/2+z
loop_
_atom_site_type_symbol
_atom_site_label
_atom_site_fract_x
_atom_site_fract_y
_atom_site_fract_z
Si Si1 0.064290 0.000000 0.328039
Si Si2 0.821640 0.574327 0.334527
Si Si3 0.373089 0.632576 0.832627
Si Si4 0.750621 0.821406 0.669029
Si Si5 0.560952 0.876577 0.838020
Si Si6 0.436890 0.743515 0.664024
O O1 0.098518 0.935273 0.269535
O O2 0.064220 0.000000 0.500000
O O3 0.000000 0.000000 0.270348
O O4 0.805112 0.591387 0.500000
O O5 0.799159 0.500000 0.292050
O O6 0.798197 0.631751 0.230488
O O7 0.888893 0.570951 0.316758
O O8 0.306843 0.635241 0.806090
O O9 0.397119 0.696526 0.753906
O O10 0.388116 0.639002 0.000000
O O11 0.740531 0.807385 0.500000
O O12 0.750000 0.750000 0.750000
O O13 0.500000 0.911501 0.814391
O O14 0.568827 0.818094 0.722914
O O15 0.563758 0.845577 0.000000
O O16 0.416015 0.743649 0.500000
O O17 0.500000 0.716731 0.677222
#
# Coordination Sequence:
#
# PCOD8290278 Si02
#       6
#     8  16  16  16  16  16
#     4   9  18  34  57  83 109 139 182 235 286 340
#     4  10  22  39  59  85 118 152 190 236 289 349
#     4  10  21  36  57  81 107 145 191 237 284 341
#     4  11  24  40  61  86 116 153 198 248 294 349
#     4   9  18  34  57  83 111 146 189 234 280 334
#     4  10  20  33  52  81 115 147 182 230 286 341
#
# _framework density 19.990596
#
# number of rings (size 3 to 8) (size 9 to 14) (size 15 to 20)
#    0.000    2.091    0.000    2.727    1.273    9.091 
#    0.000    2.273    0.000    1.636    0.000    3.818 
#    0.000    0.000    0.000    0.000    0.000    0.000 
#
# Total GULP energy -545465.451645 kJ/mol
# GULP energy per Si atom -12396.942083 kJ/mol
# Density = 1.994510 g / cm^3
# Si number density = 19.990596 Si / 1000 Ang^3
#
#
#
# Elastic Constant Matrix: (Units=GPa)
#
#
# Indices 1 2 3 4 5 6 
#
# 1 103.1155 47.7731 45.8990 0.0000 0.0000 0.0000
# 2 47.7731 96.9459 39.8893 0.0000 0.0000 0.0000
# 3 45.8990 39.8893 68.6171 0.0000 0.0000 0.0000
# 4 0.0000 0.0000 0.0000 10.3981 0.0000 0.0000
# 5 0.0000 0.0000 0.0000 0.0000 28.6654 0.0000
# 6 0.0000 0.0000 0.0000 0.0000 0.0000 34.7513
#
#
#
# Elastic Compliance Matrix: (Units=1/GPa)
#
#
# Indices 1 2 3 4 5 6 
#
# 1 0.015064 -0.004308 -0.007573 0.000000 0.000000 0.000000
# 2 -0.004308 0.014790 -0.005716 0.000000 0.000000 0.000000
# 3 -0.007573 -0.005716 0.022962 0.000000 0.000000 0.000000
# 4 0.000000 0.000000 0.000000 0.096172 0.000000 0.000000
# 5 0.000000 0.000000 0.000000 0.000000 0.034885 0.000000
# 6 0.000000 0.000000 0.000000 0.000000 0.000000 0.028776
#
#
# Mechanical properties :
#
#
# Convention : Reuss Voigt Hill
#
# Bulk Modulus (GPa) = 56.74355 59.53346 58.13850
# Shear Modulus (GPa) = 19.70703 23.77077 21.73890
#
# Velocity S-wave (km/s) = 3.14318 3.45207 3.30124
# Velocity P-wave (km/s) = 6.45132 6.76272 6.60885
#
# Compressibility (1/GPa) = 0.01762315
#
# Stress axis : x y z
#
# Youngs Moduli (GPa) = 66.38220 67.61431 43.54990
#
# Poissons Ratio (x) = 0.29125 0.32979
# Poissons Ratio (y) = 0.28595 0.24895
# Poissons Ratio (z) = 0.50269 0.38651
#
# Static dielectric constant tensor:
#      x y z
#    x 3.953260 0.000000 0.000000 
#    y 0.000000 3.531440 0.000000 
#    z 0.000000 0.000000 3.560580 
# 
# 
# High freq. dielectric constant tensor:
#      x y z
#    x 1.793120 0.000000 0.000000 
#    y 0.000000 1.772280 0.000000 
#    z 0.000000 0.000000 1.767290 
# 
# From -- ./inp_files/10391.got.cif
#   From: 2010.06.25/outbox.cif.g09.slc.cpg/sg71_6_cif.got.tgz:10391.got - 2010.06.28 04:59:45.
