data_PCOD8290212
_publ_section_title
;
Structure prediction by ZEFSAII (Michael W. Deem and Ramdas Pophale) SiO2 
 PCOD8290212
Probable space group: I M M M
;
_chemical_formula_sum "Si O2"
_cell_formula_units_Z 104
_cell_length_a 8.648050
_cell_length_b 20.150294
_cell_length_c 31.907359
_cell_angle_alpha 90.000000
_cell_angle_beta 90.000000
_cell_angle_gamma 90.000000
_cell_volume 5560.200311
_symmetry_space_group_name_H-M "I M M M"
_symmetry_group_IT_number 71
_symmetry_cell_setting 'orthorhombic'
loop_
_space_group_symop_operation_xyz
x,y,z
-x,-y,z
x,-y,-z
-x,y,-z
-x,-y,-z
x,y,-z
-x,y,z
x,-y,z
1/2+x,1/2+y,1/2+z
1/2-x,1/2-y,1/2+z
1/2+x,1/2-y,1/2-z
1/2-x,1/2+y,1/2-z
1/2-x,1/2-y,1/2-z
1/2+x,1/2+y,1/2-z
1/2-x,1/2+y,1/2+z
1/2+x,1/2-y,1/2+z
loop_
_atom_site_type_symbol
_atom_site_label
_atom_site_fract_x
_atom_site_fract_y
_atom_site_fract_z
Si Si1 0.182401 0.425757 0.172504
Si Si2 0.681209 0.500000 0.453651
Si Si3 0.682809 0.641306 0.573911
Si Si4 0.179908 0.636462 0.000000
Si Si5 0.679586 0.222200 0.000000
Si Si6 0.679799 0.206288 0.286823
Si Si7 0.821310 0.260598 0.368682
Si Si8 0.822645 0.125297 0.587586
O O1 0.229453 0.500000 0.187836
O O2 0.242050 0.370312 0.206505
O O3 0.248626 0.414422 0.126078
O O4 0.000000 0.418436 0.168172
O O5 0.500000 0.500000 0.460842
O O6 0.759220 0.500000 0.500000
O O7 0.729554 0.435813 0.427116
O O8 0.500000 0.652793 0.567028
O O9 0.783919 0.677744 0.539555
O O10 0.743740 0.670426 0.617471
O O11 0.248714 0.605076 0.957138
O O12 0.211720 0.714263 0.000000
O O13 0.000000 0.621546 0.000000
O O14 0.500000 0.244459 0.000000
O O15 0.500000 0.204248 0.277991
O O16 0.750000 0.250000 0.250000
O O17 0.718047 0.242753 0.329421
O O18 0.804163 0.204541 0.404783
O O19 0.000000 0.270087 0.355842
O O20 0.000000 0.104510 0.585707
#
# Coordination Sequence:
#
# PCOD8290212 Si02
#       8
#    16   8  16   8   8  16  16  16
#     4   9  19  37  60  85 114 148 185 222 266 326
#     4   9  18  32  48  70  98 136 186 234 276 326
#     4  11  20  33  52  72  99 138 183 229 279 332
#     4  12  22  32  50  74 104 144 188 231 277 324
#     4  12  22  31  45  71 104 136 177 232 283 327
#     4  10  20  36  61  90 116 142 178 221 274 329
#     4  10  20  34  53  78 109 138 173 222 275 327
#     4  10  20  33  51  78 112 143 179 227 274 319
#
# _framework density 18.704360999999999
#
# number of rings (size 3 to 8) (size 9 to 14) (size 15 to 20)
#    0.000    1.769    2.308    3.231    0.000    2.154 
#    0.000    2.308    1.692    2.308    0.000    0.000 
#    0.000    0.000    0.000    0.000    0.000    0.000 
#
# Total GULP energy -644488.414706 kJ/mol
# GULP energy per Si atom -12394.007975 kJ/mol
# Density = 1.866179 g / cm^3
# Si number density = 18.704361 Si / 1000 Ang^3
#
#
#
# Elastic Constant Matrix: (Units=GPa)
#
#
# Indices 1 2 3 4 5 6 
#
# 1 45.6336 31.0316 23.9387 0.0000 0.0000 0.0000
# 2 31.0316 133.1384 54.3871 0.0000 0.0000 0.0000
# 3 23.9387 54.3871 91.7417 0.0000 0.0000 0.0000
# 4 0.0000 0.0000 0.0000 21.5460 0.0000 0.0000
# 5 0.0000 0.0000 0.0000 0.0000 32.3137 0.0000
# 6 0.0000 0.0000 0.0000 0.0000 0.0000 19.4245
#
#
#
# Elastic Compliance Matrix: (Units=1/GPa)
#
#
# Indices 1 2 3 4 5 6 
#
# 1 0.027340 -0.004563 -0.004429 0.000000 0.000000 0.000000
# 2 -0.004563 0.010673 -0.005136 0.000000 0.000000 0.000000
# 3 -0.004429 -0.005136 0.015101 0.000000 0.000000 0.000000
# 4 0.000000 0.000000 0.000000 0.046412 0.000000 0.000000
# 5 0.000000 0.000000 0.000000 0.000000 0.030947 0.000000
# 6 0.000000 0.000000 0.000000 0.000000 0.000000 0.051481
#
#
# Mechanical properties :
#
#
# Convention : Reuss Voigt Hill
#
# Bulk Modulus (GPa) = 40.23047 54.35871 47.29459
# Shear Modulus (GPa) = 22.88366 25.40058 24.14212
#
# Velocity S-wave (km/s) = 3.50157 3.68911 3.59656
# Velocity P-wave (km/s) = 6.15656 6.87540 6.52589
#
# Compressibility (1/GPa) = 0.02485678
#
# Stress axis : x y z
#
# Youngs Moduli (GPa) = 36.57648 93.69615 66.22148
#
# Poissons Ratio (x) = 0.42755 0.29328
# Poissons Ratio (y) = 0.16690 0.34014
# Poissons Ratio (z) = 0.16199 0.48127
#
# Static dielectric constant tensor:
#      x y z
#    x 3.399520 0.000000 0.000000 
#    y 0.000000 3.704180 0.000000 
#    z 0.000000 0.000000 3.137100 
# 
# 
# High freq. dielectric constant tensor:
#      x y z
#    x 1.728010 0.000000 0.000000 
#    y 0.000000 1.721360 0.000000 
#    z 0.000000 0.000000 1.707300 
# 
# From -- ./inp_files/68318.got.cif
#   From: 2010.06.25/outbox.cif.g09.slc.cpg/sg71_35_cif.got.tgz:68318.got - 2010.06.28 04:59:45.
