data_PCOD8290483
_publ_section_title
;
Structure prediction by ZEFSAII (Michael W. Deem and Ramdas Pophale) SiO2 
 PCOD8290483
Probable space group: I M M M
;
_chemical_formula_sum "Si O2"
_cell_formula_units_Z 104
_cell_length_a 9.499572
_cell_length_b 26.885400
_cell_length_c 21.584406
_cell_angle_alpha 90.000000
_cell_angle_beta 90.000000
_cell_angle_gamma 90.000000
_cell_volume 5512.652825
_symmetry_space_group_name_H-M "I M M M"
_symmetry_group_IT_number 71
_symmetry_cell_setting 'orthorhombic'
loop_
_space_group_symop_operation_xyz
x,y,z
-x,-y,z
x,-y,-z
-x,y,-z
-x,-y,-z
x,y,-z
-x,y,z
x,-y,z
1/2+x,1/2+y,1/2+z
1/2-x,1/2-y,1/2+z
1/2+x,1/2-y,1/2-z
1/2-x,1/2+y,1/2-z
1/2-x,1/2-y,1/2-z
1/2+x,1/2+y,1/2-z
1/2-x,1/2+y,1/2+z
1/2+x,1/2-y,1/2+z
loop_
_atom_site_type_symbol
_atom_site_label
_atom_site_fract_x
_atom_site_fract_y
_atom_site_fract_z
Si Si1 0.832674 0.227006 0.568808
Si Si2 0.341127 0.059353 0.000000
Si Si3 0.656859 0.615806 0.071496
Si Si4 0.158331 0.058839 0.113305
Si Si5 0.164599 0.723293 0.695631
Si Si6 0.660060 0.943974 0.339433
Si Si7 0.160072 0.607914 0.287016
O O1 0.778331 0.245423 0.500000
O O2 0.777804 0.170951 0.581145
O O3 0.781141 0.260747 0.626704
O O4 0.000000 0.226301 0.566059
O O5 0.257128 0.080312 0.941015
O O6 0.500000 0.081093 0.000000
O O7 0.346179 0.000000 0.000000
O O8 0.500000 0.614253 0.099821
O O9 0.747730 0.573537 0.103482
O O10 0.653240 0.601886 0.000000
O O11 0.228264 0.074537 0.177127
O O12 0.000000 0.080546 0.107509
O O13 0.152013 0.000000 0.109236
O O14 0.250000 0.750000 0.750000
O O15 0.193754 0.665164 0.701519
O O16 0.000000 0.736220 0.703955
O O17 0.500000 0.942882 0.361819
O O18 0.684215 0.905202 0.284187
O O19 0.702855 0.000000 0.319256
O O20 0.000000 0.594665 0.307417
#
# Coordination Sequence:
#
# PCOD8290483 Si02
#       7
#    16   8  16  16  16  16  16
#     4   8  15  31  54  78 105 136 170 210 260 317
#     4   9  17  31  53  77 101 135 175 213 257 309
#     4   9  18  33  54  78 102 131 168 211 260 315
#     4  10  20  34  53  77 105 138 177 220 266 315
#     4  10  20  34  55  81 106 137 178 222 269 321
#     4  10  21  35  50  70 102 142 176 213 262 313
#     4  10  21  36  52  76 106 138 179 221 266 319
#
# _framework density 18.865690000000001
#
# number of rings (size 3 to 8) (size 9 to 14) (size 15 to 20)
#    0.000    2.538    0.000    3.000    0.000    4.615 
#    1.385    1.538    0.000    1.385    0.000    0.000 
#    0.000    0.000    0.000    0.000    0.000    0.000 
#
# Total GULP energy -644636.322725 kJ/mol
# GULP energy per Si atom -12396.852360 kJ/mol
# Density = 1.882275 g / cm^3
# Si number density = 18.865690 Si / 1000 Ang^3
#
#
#
# Elastic Constant Matrix: (Units=GPa)
#
#
# Indices 1 2 3 4 5 6 
#
# 1 88.1651 30.3802 46.6869 0.0000 0.0000 0.0000
# 2 30.3802 72.7438 49.7019 0.0000 0.0000 0.0000
# 3 46.6869 49.7019 109.0128 0.0002 0.0001 0.0000
# 4 0.0000 0.0000 0.0002 36.0236 0.0000 0.0000
# 5 0.0000 0.0000 0.0001 0.0000 33.8745 0.0000
# 6 0.0000 0.0000 0.0000 0.0000 0.0000 23.4271
#
#
#
# Elastic Compliance Matrix: (Units=1/GPa)
#
#
# Indices 1 2 3 4 5 6 
#
# 1 0.015033 -0.002730 -0.005194 0.000000 0.000000 0.000000
# 2 -0.002730 0.020462 -0.008160 0.000000 0.000000 0.000000
# 3 -0.005194 -0.008160 0.015118 0.000000 0.000000 0.000000
# 4 0.000000 0.000000 0.000000 0.027760 0.000000 0.000000
# 5 0.000000 0.000000 0.000000 0.000000 0.029521 0.000000
# 6 0.000000 0.000000 0.000000 0.000000 0.000000 0.042686
#
#
# Mechanical properties :
#
#
# Convention : Reuss Voigt Hill
#
# Bulk Modulus (GPa) = 54.21188 58.16219 56.18703
# Shear Modulus (GPa) = 26.46960 28.20854 27.33907
#
# Velocity S-wave (km/s) = 3.74980 3.87102 3.81089
# Velocity P-wave (km/s) = 6.89537 7.13276 7.01507
#
# Compressibility (1/GPa) = 0.01844614
#
# Stress axis : x y z
#
# Youngs Moduli (GPa) = 66.51908 48.87016 66.14618
#
# Poissons Ratio (x) = 0.13341 0.34354
# Poissons Ratio (y) = 0.18158 0.53977
# Poissons Ratio (z) = 0.34548 0.39879
#
# Static dielectric constant tensor:
#      x y z
#    x 3.425890 0.000000 0.000000 
#    y 0.000000 3.380060 0.000000 
#    z 0.000000 0.000000 3.588370 
# 
# 
# High freq. dielectric constant tensor:
#      x y z
#    x 1.717040 0.000000 0.000000 
#    y 0.000000 1.719280 0.000000 
#    z 0.000000 0.000000 1.740340 
# 
# From -- ./inp_files/50928.got.cif
#   From: 2010.06.25/outbox.cif.g09.slc.cpg/sg71_26_cif.got.tgz:50928.got - 2010.06.28 04:59:45.
