data_PCOD8290290
_publ_section_title
;
Structure prediction by ZEFSAII (Michael W. Deem and Ramdas Pophale) SiO2 
 PCOD8290290
Probable space group: I M M M
;
_chemical_formula_sum "Si O2"
_cell_formula_units_Z 72
_cell_length_a 31.763276
_cell_length_b 9.708552
_cell_length_c 13.061023
_cell_angle_alpha 90.000000
_cell_angle_beta 90.000000
_cell_angle_gamma 90.000000
_cell_volume 4027.698411
_symmetry_space_group_name_H-M "I M M M"
_symmetry_group_IT_number 71
_symmetry_cell_setting 'orthorhombic'
loop_
_space_group_symop_operation_xyz
x,y,z
-x,-y,z
x,-y,-z
-x,y,-z
-x,-y,-z
x,y,-z
-x,y,z
x,-y,z
1/2+x,1/2+y,1/2+z
1/2-x,1/2-y,1/2+z
1/2+x,1/2-y,1/2-z
1/2-x,1/2+y,1/2-z
1/2-x,1/2-y,1/2-z
1/2+x,1/2+y,1/2-z
1/2-x,1/2+y,1/2+z
1/2+x,1/2-y,1/2+z
loop_
_atom_site_type_symbol
_atom_site_label
_atom_site_fract_x
_atom_site_fract_y
_atom_site_fract_z
Si Si1 0.813744 0.657785 0.260879
Si Si2 0.452385 0.836496 0.000000
Si Si3 0.232035 0.844959 0.881004
Si Si4 0.590941 0.838652 0.792409
Si Si5 0.049214 0.841137 0.117511
O O1 0.809991 0.500000 0.227021
O O2 0.805125 0.749396 0.161266
O O3 0.778634 0.698989 0.344361
O O4 0.859520 0.688509 0.306588
O O5 0.430180 0.781584 0.103322
O O6 0.500000 0.781468 0.000000
O O7 0.450269 0.000000 0.000000
O O8 0.222009 0.000000 0.846207
O O9 0.231735 0.826990 0.000000
O O10 0.574621 0.757015 0.693710
O O11 0.580815 0.000000 0.775580
O O12 0.000000 0.815261 0.135279
O O13 0.060591 0.000000 0.140499
O O14 0.061274 0.804997 0.000000
#
# Coordination Sequence:
#
# PCOD8290290 Si02
#       5
#    16   8  16  16  16
#     4   9  19  33  49  74 102 129 165 208 253 299
#     4   9  18  32  51  77 107 137 169 209 259 309
#     4   9  18  33  53  72  96 133 171 206 248 302
#     4  10  20  33  53  79 106 135 170 214 259 308
#     4   9  19  36  55  74 100 136 173 210 256 307
#
# _framework density 17.876214999999998
#
# number of rings (size 3 to 8) (size 9 to 14) (size 15 to 20)
#    0.000    2.778    0.000    1.333    1.556    4.000 
#    0.000    6.111    0.000    2.000    0.000    0.000 
#    0.000    0.000    0.000    0.000    0.000    0.000 
#
# Total GULP energy -446343.545316 kJ/mol
# GULP energy per Si atom -12398.431814 kJ/mol
# Density = 1.783553 g / cm^3
# Si number density = 17.876215 Si / 1000 Ang^3
#
#
#
# Elastic Constant Matrix: (Units=GPa)
#
#
# Indices 1 2 3 4 5 6 
#
# 1 109.2893 48.3886 61.4035 0.0000 0.0000 0.0000
# 2 48.3886 55.1225 46.9286 0.0000 0.0000 0.0000
# 3 61.4035 46.9286 88.7117 0.0000 0.0000 0.0000
# 4 0.0000 0.0000 0.0000 27.8618 0.0000 0.0000
# 5 0.0000 0.0000 0.0000 0.0000 23.4400 0.0000
# 6 0.0000 0.0000 0.0000 0.0000 0.0000 30.9425
#
#
#
# Elastic Compliance Matrix: (Units=1/GPa)
#
#
# Indices 1 2 3 4 5 6 
#
# 1 0.017112 -0.008984 -0.007092 0.000000 0.000000 0.000000
# 2 -0.008984 0.037723 -0.013737 0.000000 0.000000 0.000000
# 3 -0.007092 -0.013737 0.023448 0.000000 0.000000 0.000000
# 4 0.000000 0.000000 0.000000 0.035891 0.000000 0.000000
# 5 0.000000 0.000000 0.000000 0.000000 0.042662 0.000000
# 6 0.000000 0.000000 0.000000 0.000000 0.000000 0.032318
#
#
# Mechanical properties :
#
#
# Convention : Reuss Voigt Hill
#
# Bulk Modulus (GPa) = 53.59817 62.95167 58.27492
# Shear Modulus (GPa) = 19.60778 22.87573 21.24175
#
# Velocity S-wave (km/s) = 3.31549 3.58113 3.45087
# Velocity P-wave (km/s) = 6.68615 7.23817 6.96763
#
# Compressibility (1/GPa) = 0.01865735
#
# Stress axis : x y z
#
# Youngs Moduli (GPa) = 58.43696 26.50899 42.64701
#
# Poissons Ratio (x) = 0.23816 0.30246
# Poissons Ratio (y) = 0.52500 0.58584
# Poissons Ratio (z) = 0.41444 0.36415
#
# Static dielectric constant tensor:
#      x y z
#    x 3.435010 0.000000 0.000000 
#    y 0.000000 3.260560 0.000000 
#    z 0.000000 0.000000 3.345180 
# 
# 
# High freq. dielectric constant tensor:
#      x y z
#    x 1.696280 0.000000 0.000000 
#    y 0.000000 1.676820 0.000000 
#    z 0.000000 0.000000 1.693450 
# 
# From -- ./inp_files/19855.got.cif
#   From: 2010.06.25/outbox.cif.g09.slc.cpg/sg71_10_cif.got.tgz:19855.got - 2010.06.28 04:59:45.
