data_PCOD8290445
_publ_section_title
;
Structure prediction by ZEFSAII (Michael W. Deem and Ramdas Pophale) SiO2 
 PCOD8290445
Probable space group: I M M M
;
_chemical_formula_sum "Si O2"
_cell_formula_units_Z 88
_cell_length_a 13.223124
_cell_length_b 18.901025
_cell_length_c 18.626210
_cell_angle_alpha 90.000000
_cell_angle_beta 90.000000
_cell_angle_gamma 90.000000
_cell_volume 4655.259791
_symmetry_space_group_name_H-M "I M M M"
_symmetry_group_IT_number 71
_symmetry_cell_setting 'orthorhombic'
loop_
_space_group_symop_operation_xyz
x,y,z
-x,-y,z
x,-y,-z
-x,y,-z
-x,-y,-z
x,y,-z
-x,y,z
x,-y,z
1/2+x,1/2+y,1/2+z
1/2-x,1/2-y,1/2+z
1/2+x,1/2-y,1/2-z
1/2-x,1/2+y,1/2-z
1/2-x,1/2-y,1/2-z
1/2+x,1/2+y,1/2-z
1/2-x,1/2+y,1/2+z
1/2+x,1/2-y,1/2+z
loop_
_atom_site_type_symbol
_atom_site_label
_atom_site_fract_x
_atom_site_fract_y
_atom_site_fract_z
Si Si1 0.801257 0.337875 0.295743
Si Si2 0.307622 0.417810 0.083013
Si Si3 0.500000 0.423408 0.415690
Si Si4 0.217235 0.915971 0.919749
Si Si5 0.616384 0.314166 0.199602
Si Si6 0.887875 0.580040 0.832419
O O1 0.801865 0.386756 0.366090
O O2 0.686549 0.338429 0.265518
O O3 0.842310 0.262721 0.322955
O O4 0.874901 0.368462 0.235199
O O5 0.336931 0.500000 0.096077
O O6 0.377242 0.368018 0.132326
O O7 0.190745 0.403500 0.103968
O O8 0.323271 0.397241 0.000000
O O9 0.500000 0.500000 0.376441
O O10 0.500000 0.437075 0.500000
O O11 0.605911 0.384168 0.397054
O O12 0.213145 0.000000 0.915113
O O13 0.246452 0.891457 0.000000
O O14 0.500000 0.311416 0.225147
O O15 0.872678 0.500000 0.804533
O O16 0.000000 0.591622 0.864255
#
# Coordination Sequence:
#
# PCOD8290445 Si02
#       6
#    16  16   8  16  16  16
#     4  10  20  34  53  74 104 140 172 217 252 302
#     4   9  19  36  56  79 105 130 166 218 268 315
#     4   7  12  24  42  68 100 130 160 194 238 291
#     4   9  17  30  50  77 107 136 167 205 250 299
#     4  10  22  37  52  74 101 136 177 213 259 312
#     4   9  17  31  54  81 106 135 171 208 252 306
#
# _framework density 18.903348999999999
#
# number of rings (size 3 to 8) (size 9 to 14) (size 15 to 20)
#    0.000    2.818    0.000    2.182    1.273    2.545 
#    0.000    2.727    0.000    1.636    0.000    6.364 
#    0.000    0.000    0.000    0.000    0.000    0.000 
#
# Total GULP energy -545242.954510 kJ/mol
# GULP energy per Si atom -12391.885330 kJ/mol
# Density = 1.886032 g / cm^3
# Si number density = 18.903349 Si / 1000 Ang^3
#
#
#
# Elastic Constant Matrix: (Units=GPa)
#
#
# Indices 1 2 3 4 5 6 
#
# 1 81.2223 14.8899 19.9829 0.0000 0.0000 0.0000
# 2 14.8899 66.1645 37.8001 0.0000 0.0000 0.0000
# 3 19.9829 37.8001 70.6587 0.0000 0.0000 0.0000
# 4 0.0000 0.0000 0.0000 22.4784 0.0000 0.0000
# 5 0.0000 0.0000 0.0000 0.0000 17.3437 0.0000
# 6 0.0000 0.0000 0.0000 0.0000 0.0000 16.4379
#
#
#
# Elastic Compliance Matrix: (Units=1/GPa)
#
#
# Indices 1 2 3 4 5 6 
#
# 1 0.013300 -0.001216 -0.003111 0.000000 0.000000 0.000000
# 2 -0.001216 0.021877 -0.011360 0.000000 0.000000 0.000000
# 3 -0.003111 -0.011360 0.021110 0.000000 0.000000 0.000000
# 4 0.000000 0.000000 0.000000 0.044487 0.000000 0.000000
# 5 0.000000 0.000000 0.000000 0.000000 0.057658 0.000000
# 6 0.000000 0.000000 0.000000 0.000000 0.000000 0.060835
#
#
# Mechanical properties :
#
#
# Convention : Reuss Voigt Hill
#
# Bulk Modulus (GPa) = 40.13843 40.37681 40.25762
# Shear Modulus (GPa) = 19.30914 20.94352 20.12633
#
# Velocity S-wave (km/s) = 3.19951 3.33216 3.26651
# Velocity P-wave (km/s) = 5.91005 6.01751 5.96402
#
# Compressibility (1/GPa) = 0.02491378
#
# Stress axis : x y z
#
# Youngs Moduli (GPa) = 75.18704 45.70933 47.37200
#
# Poissons Ratio (x) = 0.05557 0.14737
# Poissons Ratio (y) = 0.09141 0.53814
# Poissons Ratio (z) = 0.23391 0.51925
#
# Static dielectric constant tensor:
#      x y z
#    x 3.480100 0.000000 0.000000 
#    y 0.000000 3.366080 0.000000 
#    z 0.000000 0.000000 3.246860 
# 
# 
# High freq. dielectric constant tensor:
#      x y z
#    x 1.729110 0.000000 0.000000 
#    y 0.000000 1.721670 0.000000 
#    z 0.000000 0.000000 1.719180 
# 
# From -- ./inp_files/43344.got.cif
#   From: 2010.06.25/outbox.cif.g09.slc.cpg/sg71_22_cif.got.tgz:43344.got - 2010.06.28 04:59:45.
