data_PCOD8290039
_publ_section_title
;
Structure prediction by ZEFSAII (Michael W. Deem and Ramdas Pophale) SiO2 
 PCOD8290039
Probable space group: I M M M
;
_chemical_formula_sum "Si O2"
_cell_formula_units_Z 72
_cell_length_a 36.287391
_cell_length_b 14.554783
_cell_length_c 7.864020
_cell_angle_alpha 90.000000
_cell_angle_beta 90.000000
_cell_angle_gamma 90.000000
_cell_volume 4153.422282
_symmetry_space_group_name_H-M "I M M M"
_symmetry_group_IT_number 71
_symmetry_cell_setting 'orthorhombic'
loop_
_space_group_symop_operation_xyz
x,y,z
-x,-y,z
x,-y,-z
-x,y,-z
-x,-y,-z
x,y,-z
-x,y,z
x,-y,z
1/2+x,1/2+y,1/2+z
1/2-x,1/2-y,1/2+z
1/2+x,1/2-y,1/2-z
1/2-x,1/2+y,1/2-z
1/2-x,1/2-y,1/2-z
1/2+x,1/2+y,1/2-z
1/2-x,1/2+y,1/2+z
1/2+x,1/2-y,1/2+z
loop_
_atom_site_type_symbol
_atom_site_label
_atom_site_fract_x
_atom_site_fract_y
_atom_site_fract_z
Si Si1 0.224850 0.606189 0.694907
Si Si2 0.041059 0.391070 0.000000
Si Si3 0.342173 0.783295 0.307441
Si Si4 0.090808 0.605756 0.689756
Si Si5 0.692723 0.600813 0.702445
O O1 0.221616 0.638328 0.500000
O O2 0.214086 0.500000 0.712025
O O3 0.196718 0.664605 0.806904
O O4 0.265991 0.622734 0.768295
O O5 0.061791 0.357308 0.170832
O O6 0.038442 0.500000 0.000000
O O7 0.000000 0.348242 0.000000
O O8 0.356982 0.781008 0.500000
O O9 0.372157 0.834200 0.192670
O O10 0.335695 0.679480 0.236292
O O11 0.073667 0.614682 0.500000
O O12 0.101298 0.500000 0.729380
O O13 0.694797 0.599338 0.500000
O O14 0.679806 0.500000 0.769215
#
# Coordination Sequence:
#
# PCOD8290039 Si02
#       5
#    16   8  16  16  16
#     4   9  17  29  43  59  83 119 161 202 247 296
#     4   9  18  34  54  76 103 131 161 193 224 276
#     4  11  19  27  44  66  90 122 160 204 246 285
#     4  10  20  33  49  72 103 133 159 191 232 278
#     4   8  16  30  44  59  83 119 164 209 252 294
#
# _framework density 17.335101000000002
#
# number of rings (size 3 to 8) (size 9 to 14) (size 15 to 20)
#    0.000    2.556    1.111    3.333    0.000    3.556 
#    0.000    3.333    0.000    5.333    0.000    0.000 
#    0.000    1.778    0.000    2.000    0.000    0.222 
#
# Total GULP energy -446259.549611 kJ/mol
# GULP energy per Si atom -12396.098600 kJ/mol
# Density = 1.729565 g / cm^3
# Si number density = 17.335101 Si / 1000 Ang^3
#
#
#
# Elastic Constant Matrix: (Units=GPa)
#
#
# Indices 1 2 3 4 5 6 
#
# 1 87.4785 50.4832 33.5617 0.0000 0.0000 0.0000
# 2 50.4832 78.2950 25.8377 0.0000 0.0000 0.0000
# 3 33.5617 25.8377 72.6868 -0.0001 -0.0001 0.0000
# 4 0.0000 0.0000 -0.0001 12.1133 0.0000 0.0000
# 5 0.0000 0.0000 -0.0001 0.0000 18.6840 0.0000
# 6 0.0000 0.0000 0.0000 0.0000 0.0000 13.3001
#
#
#
# Elastic Compliance Matrix: (Units=1/GPa)
#
#
# Indices 1 2 3 4 5 6 
#
# 1 0.019812 -0.011052 -0.005219 0.000000 0.000000 0.000000
# 2 -0.011052 0.020635 -0.002232 0.000000 0.000000 0.000000
# 3 -0.005219 -0.002232 0.016961 0.000000 0.000000 0.000000
# 4 0.000000 0.000000 0.000000 0.082554 0.000000 0.000000
# 5 0.000000 0.000000 0.000000 0.000000 0.053522 0.000000
# 6 0.000000 0.000000 0.000000 0.000000 0.000000 0.075187
#
#
# Mechanical properties :
#
#
# Convention : Reuss Voigt Hill
#
# Bulk Modulus (GPa) = 49.01613 50.91395 49.96504
# Shear Modulus (GPa) = 16.00122 17.39134 16.69628
#
# Velocity S-wave (km/s) = 3.04147 3.17084 3.10683
# Velocity P-wave (km/s) = 6.37739 6.54521 6.46185
#
# Compressibility (1/GPa) = 0.02040145
#
# Stress axis : x y z
#
# Youngs Moduli (GPa) = 50.47529 48.46178 58.95924
#
# Poissons Ratio (x) = 0.53559 0.30771
# Poissons Ratio (y) = 0.55785 0.13160
# Poissons Ratio (z) = 0.26343 0.10817
#
# Static dielectric constant tensor:
#      x y z
#    x 3.019280 0.000000 0.000000 
#    y 0.000000 3.381410 0.000000 
#    z 0.000000 0.000000 3.102600 
# 
# 
# High freq. dielectric constant tensor:
#      x y z
#    x 1.628960 0.000000 0.000000 
#    y 0.000000 1.651960 0.000000 
#    z 0.000000 0.000000 1.666090 
# 
# From -- ./inp_files/6421.got.cif
#   From: 2010.06.25/outbox.cif.g09.slc.cpg/sg71_4_cif.got.tgz:6421.got - 2010.06.28 04:59:45.
