data_PCOD8290971
_publ_section_title
;
Structure prediction by ZEFSAII (Michael W. Deem and Ramdas Pophale) SiO2 
 PCOD8290971
Probable space group: I M M M
;
_chemical_formula_sum "Si O2"
_cell_formula_units_Z 104
_cell_length_a 28.950888
_cell_length_b 21.061992
_cell_length_c 8.713714
_cell_angle_alpha 90.000000
_cell_angle_beta 90.000000
_cell_angle_gamma 90.000000
_cell_volume 5313.303626
_symmetry_space_group_name_H-M "I M M M"
_symmetry_group_IT_number 71
_symmetry_cell_setting 'orthorhombic'
loop_
_space_group_symop_operation_xyz
x,y,z
-x,-y,z
x,-y,-z
-x,y,-z
-x,-y,-z
x,y,-z
-x,y,z
x,-y,z
1/2+x,1/2+y,1/2+z
1/2-x,1/2-y,1/2+z
1/2+x,1/2-y,1/2-z
1/2-x,1/2+y,1/2-z
1/2-x,1/2-y,1/2-z
1/2+x,1/2+y,1/2-z
1/2-x,1/2+y,1/2+z
1/2+x,1/2-y,1/2+z
loop_
_atom_site_type_symbol
_atom_site_label
_atom_site_fract_x
_atom_site_fract_y
_atom_site_fract_z
Si Si1 0.191575 0.571725 0.319699
Si Si2 0.915440 0.428913 0.329413
Si Si3 0.054279 0.000000 0.329807
Si Si4 0.946948 0.130034 0.818631
Si Si5 0.118405 0.234844 0.676878
Si Si6 0.709888 0.793249 0.682149
Si Si7 0.551420 0.819250 0.330157
O O1 0.200697 0.578935 0.500000
O O2 0.209210 0.500000 0.267950
O O3 0.137832 0.576107 0.280188
O O4 0.215088 0.632844 0.237416
O O5 0.922058 0.400576 0.500000
O O6 0.933101 0.500000 0.326896
O O7 0.947254 0.394010 0.203721
O O8 0.069843 0.061011 0.234163
O O9 0.077026 0.000000 0.500000
O O10 0.000000 0.000000 0.348194
O O11 0.907912 0.175280 0.749901
O O12 0.000000 0.144598 0.762206
O O13 0.945373 0.135087 0.000000
O O14 0.130429 0.221803 0.500000
O O15 0.163680 0.257017 0.766003
O O16 0.082120 0.291578 0.693673
O O17 0.712713 0.793798 0.500000
O O18 0.750000 0.750000 0.750000
O O19 0.571293 0.804009 0.500000
O O20 0.500000 0.791633 0.320753
#
# Coordination Sequence:
#
# PCOD8290971 Si02
#       7
#    16  16   8  16  16  16  16
#     4   9  18  36  63  93 123 155 194 242 295 352
#     4   9  18  33  54  79 109 149 195 240 287 340
#     4   9  17  31  53  83 117 155 201 245 287 345
#     4  10  20  35  57  86 120 158 200 245 295 351
#     4  12  24  39  59  84 116 153 196 243 295 350
#     4  12  25  42  66  94 123 155 196 243 299 359
#     4  11  23  36  51  77 114 154 196 242 291 342
#
# _framework density 19.573509000000001
#
# number of rings (size 3 to 8) (size 9 to 14) (size 15 to 20)
#    0.000    1.615    1.538    5.308    0.000    5.846 
#    0.000    3.077    1.692    0.000    0.000    0.000 
#    0.000    0.000    0.000    0.000    0.000    0.000 
#
# Total GULP energy -644242.878461 kJ/mol
# GULP energy per Si atom -12389.286124 kJ/mol
# Density = 1.952896 g / cm^3
# Si number density = 19.573509 Si / 1000 Ang^3
#
#
#
# Elastic Constant Matrix: (Units=GPa)
#
#
# Indices 1 2 3 4 5 6 
#
# 1 74.3829 58.8121 39.8847 0.0000 0.0000 0.0000
# 2 58.8121 153.4431 60.4415 0.0000 0.0000 0.0000
# 3 39.8847 60.4415 111.5215 0.0000 0.0000 0.0000
# 4 0.0000 0.0000 0.0000 35.6030 0.0000 0.0000
# 5 0.0000 0.0000 0.0000 0.0000 26.9535 0.0000
# 6 0.0000 0.0000 0.0000 0.0000 0.0000 34.6905
#
#
#
# Elastic Compliance Matrix: (Units=1/GPa)
#
#
# Indices 1 2 3 4 5 6 
#
# 1 0.020553 -0.006335 -0.003917 0.000000 0.000000 0.000000
# 2 -0.006335 0.010238 -0.003283 0.000000 0.000000 0.000000
# 3 -0.003917 -0.003283 0.012147 0.000000 0.000000 0.000000
# 4 0.000000 0.000000 0.000000 0.028088 0.000000 0.000000
# 5 0.000000 0.000000 0.000000 0.000000 0.037101 0.000000
# 6 0.000000 0.000000 0.000000 0.000000 0.000000 0.028826
#
#
# Mechanical properties :
#
#
# Convention : Reuss Voigt Hill
#
# Bulk Modulus (GPa) = 63.01989 73.06933 68.04461
# Shear Modulus (GPa) = 29.53097 31.46333 30.49715
#
# Velocity S-wave (km/s) = 3.88844 4.01364 3.95154
# Velocity P-wave (km/s) = 7.24061 7.67404 7.46047
#
# Compressibility (1/GPa) = 0.01586801
#
# Stress axis : x y z
#
# Youngs Moduli (GPa) = 48.65464 97.67224 82.32183
#
# Poissons Ratio (x) = 0.61871 0.32249
# Poissons Ratio (y) = 0.30820 0.27030
# Poissons Ratio (z) = 0.19060 0.32070
#
# Static dielectric constant tensor:
#      x y z
#    x 3.055190 0.000000 0.000000 
#    y 0.000000 3.915120 0.000000 
#    z 0.000000 0.000000 3.619420 
# 
# 
# High freq. dielectric constant tensor:
#      x y z
#    x 1.726000 0.000000 0.000000 
#    y 0.000000 1.781300 0.000000 
#    z 0.000000 0.000000 1.767670 
# 
# From -- ./inp_files/14990.got.cif
#   From: 2010.06.25/outbox.cif.g09.slc.cpg/sg71_8_cif.got.tgz:14990.got - 2010.06.28 04:59:45.
