data_PCOD8290960
_publ_section_title
;
Structure prediction by ZEFSAII (Michael W. Deem and Ramdas Pophale) SiO2 
 PCOD8290960
Probable space group: I M M M
;
_chemical_formula_sum "Si O2"
_cell_formula_units_Z 96
_cell_length_a 27.797846
_cell_length_b 13.850186
_cell_length_c 13.434393
_cell_angle_alpha 90.000000
_cell_angle_beta 90.000000
_cell_angle_gamma 90.000000
_cell_volume 5172.313011
_symmetry_space_group_name_H-M "I M M M"
_symmetry_group_IT_number 71
_symmetry_cell_setting 'orthorhombic'
loop_
_space_group_symop_operation_xyz
x,y,z
-x,-y,z
x,-y,-z
-x,y,-z
-x,-y,-z
x,y,-z
-x,y,z
x,-y,z
1/2+x,1/2+y,1/2+z
1/2-x,1/2-y,1/2+z
1/2+x,1/2-y,1/2-z
1/2-x,1/2+y,1/2-z
1/2-x,1/2-y,1/2-z
1/2+x,1/2+y,1/2-z
1/2-x,1/2+y,1/2+z
1/2+x,1/2-y,1/2+z
loop_
_atom_site_type_symbol
_atom_site_label
_atom_site_fract_x
_atom_site_fract_y
_atom_site_fract_z
Si Si1 0.283272 0.605667 0.500000
Si Si2 0.555771 0.707510 0.111507
Si Si3 0.445348 0.109184 0.232697
Si Si4 0.206098 0.226852 0.818826
Si Si5 0.897031 0.895487 0.000000
Si Si6 0.613812 0.385510 0.284668
Si Si7 0.136686 0.388669 0.113120
O O1 0.258343 0.500000 0.500000
O O2 0.267733 0.665763 0.595681
O O3 0.340133 0.593407 0.500000
O O4 0.500000 0.680913 0.112124
O O5 0.564157 0.819476 0.140338
O O6 0.579821 0.637143 0.191910
O O7 0.576873 0.691310 0.000000
O O8 0.500000 0.120460 0.272478
O O9 0.409623 0.138762 0.321148
O O10 0.435834 0.000000 0.195449
O O11 0.250000 0.250000 0.750000
O O12 0.165280 0.163515 0.763601
O O13 0.182876 0.325894 0.858258
O O14 0.908423 0.845006 0.107974
O O15 0.922846 0.000000 0.000000
O O16 0.621024 0.500000 0.294560
O O17 0.151325 0.500000 0.127721
O O18 0.121803 0.365984 0.000000
#
# Coordination Sequence:
#
# PCOD8290960 Si02
#       7
#     8  16  16  16   8  16  16
#     4   9  18  36  59  80 103 142 187 229 283 346
#     4  10  21  37  57  81 113 154 196 235 278 335
#     4   9  18  34  57  85 114 145 184 231 283 341
#     4  11  21  36  58  83 111 145 190 239 284 334
#     4   7  14  30  57  81 100 131 175 221 271 329
#     4  10  20  37  59  84 111 145 188 236 287 342
#     4  10  20  35  57  85 116 148 180 225 291 355
#
# _framework density 18.560361
#
# number of rings (size 3 to 8) (size 9 to 14) (size 15 to 20)
#    0.000    2.333    2.500    1.500    0.000    2.667 
#    1.500    4.583    0.000    1.500    0.000    0.000 
#    0.000    0.667    0.000    0.000    0.000    0.000 
#
# Total GULP energy -594813.960916 kJ/mol
# GULP energy per Si atom -12391.957519 kJ/mol
# Density = 1.851812 g / cm^3
# Si number density = 18.560361 Si / 1000 Ang^3
#
#
#
# Elastic Constant Matrix: (Units=GPa)
#
#
# Indices 1 2 3 4 5 6 
#
# 1 61.8314 38.6492 62.5525 0.0000 0.0000 0.0000
# 2 38.6492 84.9294 57.4243 0.0000 0.0000 0.0000
# 3 62.5525 57.4243 165.1749 0.0000 0.0000 0.0000
# 4 0.0000 0.0000 0.0000 25.3141 0.0000 0.0000
# 5 0.0000 0.0000 0.0000 0.0000 29.5152 0.0000
# 6 0.0000 0.0000 0.0000 0.0000 0.0000 16.5834
#
#
#
# Elastic Compliance Matrix: (Units=1/GPa)
#
#
# Indices 1 2 3 4 5 6 
#
# 1 0.029634 -0.007710 -0.008542 0.000000 0.000000 0.000000
# 2 -0.007710 0.017399 -0.003129 0.000000 0.000000 0.000000
# 3 -0.008542 -0.003129 0.010377 0.000000 0.000000 0.000000
# 4 0.000000 0.000000 0.000000 0.039504 0.000000 0.000000
# 5 0.000000 0.000000 0.000000 0.000000 0.033881 0.000000
# 6 0.000000 0.000000 0.000000 0.000000 0.000000 0.060301
#
#
# Mechanical properties :
#
#
# Convention : Reuss Voigt Hill
#
# Bulk Modulus (GPa) = 53.62643 69.90976 61.76809
# Shear Modulus (GPa) = 21.17980 24.50318 22.84149
#
# Velocity S-wave (km/s) = 3.38173 3.63738 3.51188
# Velocity P-wave (km/s) = 6.64860 7.44236 7.05665
#
# Compressibility (1/GPa) = 0.01864752
#
# Stress axis : x y z
#
# Youngs Moduli (GPa) = 33.74487 57.47528 96.36747
#
# Poissons Ratio (x) = 0.44314 0.82318
# Poissons Ratio (y) = 0.26018 0.30153
# Poissons Ratio (z) = 0.28825 0.17984
#
# Static dielectric constant tensor:
#      x y z
#    x 3.074890 0.000000 0.000000 
#    y 0.000000 3.856960 0.000000 
#    z 0.000000 0.000000 3.800510 
# 
# 
# High freq. dielectric constant tensor:
#      x y z
#    x 1.682560 0.000000 0.000000 
#    y 0.000000 1.736010 0.000000 
#    z 0.000000 0.000000 1.720530 
# 
# From -- ./inp_files/29981.got.cif
#   From: 2010.06.25/outbox.cif.g09.slc.cpg/sg71_15_cif.got.tgz:29981.got - 2010.06.28 04:59:45.
