data_PCOD8290241
_publ_section_title
;
Structure prediction by ZEFSAII (Michael W. Deem and Ramdas Pophale) SiO2 
 PCOD8290241
Probable space group: I M M M
;
_chemical_formula_sum "Si O2"
_cell_formula_units_Z 112
_cell_length_a 15.238688
_cell_length_b 15.786111
_cell_length_c 23.646204
_cell_angle_alpha 90.000000
_cell_angle_beta 90.000000
_cell_angle_gamma 90.000000
_cell_volume 5688.321855
_symmetry_space_group_name_H-M "I M M M"
_symmetry_group_IT_number 71
_symmetry_cell_setting 'orthorhombic'
loop_
_space_group_symop_operation_xyz
x,y,z
-x,-y,z
x,-y,-z
-x,y,-z
-x,-y,-z
x,y,-z
-x,y,z
x,-y,z
1/2+x,1/2+y,1/2+z
1/2-x,1/2-y,1/2+z
1/2+x,1/2-y,1/2-z
1/2-x,1/2+y,1/2-z
1/2-x,1/2-y,1/2-z
1/2+x,1/2+y,1/2-z
1/2-x,1/2+y,1/2+z
1/2+x,1/2-y,1/2+z
loop_
_atom_site_type_symbol
_atom_site_label
_atom_site_fract_x
_atom_site_fract_y
_atom_site_fract_z
Si Si1 0.597100 0.261667 0.612880
Si Si2 0.402388 0.161384 0.721130
Si Si3 0.902417 0.229028 0.674417
Si Si4 0.829537 0.404842 0.063832
Si Si5 0.220672 0.094483 0.934815
Si Si6 0.733721 0.408784 0.173600
Si Si7 0.598256 0.173465 0.936381
O O1 0.500000 0.297624 0.599588
O O2 0.608260 0.242540 0.679519
O O3 0.605329 0.172590 0.578680
O O4 0.668855 0.332609 0.598419
O O5 0.500000 0.121506 0.712949
O O6 0.389659 0.189129 0.785989
O O7 0.327591 0.094394 0.705435
O O8 0.833260 0.160481 0.695937
O O9 0.886577 0.252279 0.608999
O O10 0.000000 0.191631 0.682456
O O11 0.872632 0.500000 0.070612
O O12 0.747131 0.397706 0.106178
O O13 0.795254 0.392691 0.000000
O O14 0.325861 0.103950 0.927054
O O15 0.195853 0.000000 0.912892
O O16 0.194064 0.103885 0.000000
O O17 0.692347 0.500000 0.186937
O O18 0.500000 0.133756 0.927733
O O19 0.606234 0.211544 0.000000
#
# Coordination Sequence:
#
# PCOD8290241 Si02
#       7
#    16  16  16  16  16  16  16
#     4  10  20  34  52  73 102 141 178 212 254 305
#     4   9  19  36  55  74  99 133 172 214 259 303
#     4  10  20  35  55  77 103 135 171 211 255 307
#     4   9  18  32  51  77 106 135 171 215 261 306
#     4  10  21  35  51  74 105 139 174 215 261 308
#     4  10  20  33  52  77 105 138 170 206 255 307
#     4   9  18  34  57  80  99 126 167 213 260 307
#
# _framework density 19.689464000000001
#
# number of rings (size 3 to 8) (size 9 to 14) (size 15 to 20)
#    0.000    2.429    0.000    2.571    0.000    4.286 
#    0.000    8.571    0.000    5.143    0.000    4.000 
#    0.000    0.000    0.000    0.000    0.000    0.000 
#
# Total GULP energy -693893.559427 kJ/mol
# GULP energy per Si atom -12390.956418 kJ/mol
# Density = 1.964465 g / cm^3
# Si number density = 19.689464 Si / 1000 Ang^3
#
#
#
# Elastic Constant Matrix: (Units=GPa)
#
#
# Indices 1 2 3 4 5 6 
#
# 1 82.2270 39.5456 22.6734 0.0000 0.0000 0.0000
# 2 39.5456 86.3674 21.5301 0.0000 0.0000 0.0000
# 3 22.6734 21.5301 83.2962 0.0000 0.0000 0.0000
# 4 0.0000 0.0000 0.0000 14.3878 0.0000 0.0000
# 5 0.0000 0.0000 0.0000 0.0000 21.1397 0.0000
# 6 0.0000 0.0000 0.0000 0.0000 0.0000 11.1526
#
#
#
# Elastic Compliance Matrix: (Units=1/GPa)
#
#
# Indices 1 2 3 4 5 6 
#
# 1 0.016126 -0.006723 -0.002652 0.000000 0.000000 0.000000
# 2 -0.006723 0.015178 -0.002093 0.000000 0.000000 0.000000
# 3 -0.002652 -0.002093 0.013268 0.000000 0.000000 0.000000
# 4 0.000000 0.000000 0.000000 0.069503 0.000000 0.000000
# 5 0.000000 0.000000 0.000000 0.000000 0.047304 0.000000
# 6 0.000000 0.000000 0.000000 0.000000 0.000000 0.089666
#
#
# Mechanical properties :
#
#
# Convention : Reuss Voigt Hill
#
# Bulk Modulus (GPa) = 46.21731 46.59874 46.40802
# Shear Modulus (GPa) = 17.78135 20.54544 19.16339
#
# Velocity S-wave (km/s) = 3.00840 3.23379 3.12313
# Velocity P-wave (km/s) = 5.96585 6.13689 6.05198
#
# Compressibility (1/GPa) = 0.02163692
#
# Stress axis : x y z
#
# Youngs Moduli (GPa) = 62.01251 65.88321 75.36771
#
# Poissons Ratio (x) = 0.44290 0.19987
# Poissons Ratio (y) = 0.41688 0.15777
# Poissons Ratio (z) = 0.16445 0.13792
#
# Static dielectric constant tensor:
#      x y z
#    x 3.584300 0.000000 0.000000 
#    y 0.000000 3.314780 0.000000 
#    z 0.000000 0.000000 3.712780 
# 
# 
# High freq. dielectric constant tensor:
#      x y z
#    x 1.762250 0.000000 0.000000 
#    y 0.000000 1.738540 0.000000 
#    z 0.000000 0.000000 1.770890 
# 
# From -- ./inp_files/59932.got.cif
#   From: 2010.06.25/outbox.cif.g09.slc.cpg/sg71_30_cif.got.tgz:59932.got - 2010.06.28 04:59:45.
