data_PCOD8290208
_publ_section_title
;
Structure prediction by ZEFSAII (Michael W. Deem and Ramdas Pophale) SiO2 
 PCOD8290208
Probable space group: I M M M
;
_chemical_formula_sum "Si O2"
_cell_formula_units_Z 104
_cell_length_a 9.044357
_cell_length_b 21.275171
_cell_length_c 27.993855
_cell_angle_alpha 90.000000
_cell_angle_beta 90.000000
_cell_angle_gamma 90.000000
_cell_volume 5386.584347
_symmetry_space_group_name_H-M "I M M M"
_symmetry_group_IT_number 71
_symmetry_cell_setting 'orthorhombic'
loop_
_space_group_symop_operation_xyz
x,y,z
-x,-y,z
x,-y,-z
-x,y,-z
-x,-y,-z
x,y,-z
-x,y,z
x,-y,z
1/2+x,1/2+y,1/2+z
1/2-x,1/2-y,1/2+z
1/2+x,1/2-y,1/2-z
1/2-x,1/2+y,1/2-z
1/2-x,1/2-y,1/2-z
1/2+x,1/2+y,1/2-z
1/2-x,1/2+y,1/2+z
1/2+x,1/2-y,1/2+z
loop_
_atom_site_type_symbol
_atom_site_label
_atom_site_fract_x
_atom_site_fract_y
_atom_site_fract_z
Si Si1 0.173366 0.679275 0.799949
Si Si2 0.828802 0.695317 0.691552
Si Si3 0.675857 0.500000 0.444333
Si Si4 0.168923 0.143798 0.446290
Si Si5 0.835763 0.234263 0.943753
Si Si6 0.170223 0.929226 0.355230
Si Si7 0.172763 0.620428 0.599972
O O1 0.219979 0.674720 0.744358
O O2 0.241240 0.741879 0.824129
O O3 0.231775 0.616321 0.823611
O O4 0.000000 0.682876 0.806831
O O5 0.794267 0.637805 0.655429
O O6 0.000000 0.713622 0.689467
O O7 0.500000 0.500000 0.441578
O O8 0.727247 0.500000 0.500000
O O9 0.736125 0.560020 0.416194
O O10 0.214876 0.123662 0.500000
O O11 0.269681 0.199887 0.425497
O O12 0.191777 0.084620 0.411575
O O13 0.000000 0.167609 0.445436
O O14 0.724411 0.178804 0.931362
O O15 0.000000 0.224014 0.921594
O O16 0.847288 0.237076 0.000000
O O17 0.000000 0.920250 0.340453
O O18 0.223896 0.000000 0.345727
O O19 0.000000 0.607553 0.591219
#
# Coordination Sequence:
#
# PCOD8290208 Si02
#       7
#    16  16   8  16  16  16  16
#     4  10  20  36  59  85 111 143 181 223 273 330
#     4   9  20  38  59  84 112 140 175 225 279 325
#     4  11  25  43  59  79 113 151 187 231 282 337
#     4   9  18  33  53  77 105 140 183 227 269 317
#     4  10  20  33  51  78 111 142 174 220 275 324
#     4  10  21  36  53  76 109 146 182 222 268 317
#     4  11  22  37  58  82 108 143 185 228 274 327
#
# _framework density 19.307224999999999
#
# number of rings (size 3 to 8) (size 9 to 14) (size 15 to 20)
#    0.000    2.077    0.000    3.000    0.000   10.154 
#    1.385    1.538    0.000    0.000    0.000    3.231 
#    0.000    0.000    0.000    0.000    0.000    0.000 
#
# Total GULP energy -644837.228299 kJ/mol
# GULP energy per Si atom -12400.715929 kJ/mol
# Density = 1.926328 g / cm^3
# Si number density = 19.307225 Si / 1000 Ang^3
#
#
#
# Elastic Constant Matrix: (Units=GPa)
#
#
# Indices 1 2 3 4 5 6 
#
# 1 75.8652 44.5041 46.4233 0.0000 0.0000 0.0000
# 2 44.5041 120.6982 64.6904 0.0000 0.0000 0.0000
# 3 46.4233 64.6904 78.9776 0.0000 0.0000 0.0000
# 4 0.0000 0.0000 0.0000 26.6757 0.0000 0.0000
# 5 0.0000 0.0000 0.0000 0.0000 28.6204 0.0000
# 6 0.0000 0.0000 0.0000 0.0000 0.0000 28.2281
#
#
#
# Elastic Compliance Matrix: (Units=1/GPa)
#
#
# Indices 1 2 3 4 5 6 
#
# 1 0.020852 -0.001995 -0.010622 0.000000 0.000000 0.000000
# 2 -0.001995 0.014960 -0.011081 0.000000 0.000000 0.000000
# 3 -0.010622 -0.011081 0.027982 0.000000 0.000000 0.000000
# 4 0.000000 0.000000 0.000000 0.037487 0.000000 0.000000
# 5 0.000000 0.000000 0.000000 0.000000 0.034940 0.000000
# 6 0.000000 0.000000 0.000000 0.000000 0.000000 0.035426
#
#
# Mechanical properties :
#
#
# Convention : Reuss Voigt Hill
#
# Bulk Modulus (GPa) = 60.98796 65.19737 63.09267
# Shear Modulus (GPa) = 22.27085 24.69972 23.48529
#
# Velocity S-wave (km/s) = 3.40000 3.58061 3.49147
# Velocity P-wave (km/s) = 6.86076 7.13695 7.00022
#
# Compressibility (1/GPa) = 0.01639668
#
# Stress axis : x y z
#
# Youngs Moduli (GPa) = 47.95748 66.84638 35.73741
#
# Poissons Ratio (x) = 0.13337 0.37962
# Poissons Ratio (y) = 0.09568 0.39599
# Poissons Ratio (z) = 0.50943 0.74070
#
# Static dielectric constant tensor:
#      x y z
#    x 3.693230 0.000000 0.000000 
#    y 0.000000 3.517180 0.000000 
#    z 0.000000 0.000000 3.706490 
# 
# 
# High freq. dielectric constant tensor:
#      x y z
#    x 1.755820 0.000000 0.000000 
#    y 0.000000 1.739910 0.000000 
#    z 0.000000 0.000000 1.759260 
# 
# From -- ./inp_files/16982.got.cif
#   From: 2010.06.25/outbox.cif.g09.slc.cpg/sg71_9_cif.got.tgz:16982.got - 2010.06.28 04:59:45.
