data_PCOD8290713
_publ_section_title
;
Structure prediction by ZEFSAII (Michael W. Deem and Ramdas Pophale) SiO2 
 PCOD8290713
Probable space group: I M M M
;
_chemical_formula_sum "Si O2"
_cell_formula_units_Z 88
_cell_length_a 20.110958
_cell_length_b 9.076997
_cell_length_c 24.028194
_cell_angle_alpha 90.000000
_cell_angle_beta 90.000000
_cell_angle_gamma 90.000000
_cell_volume 4386.277263
_symmetry_space_group_name_H-M "I M M M"
_symmetry_group_IT_number 71
_symmetry_cell_setting 'orthorhombic'
loop_
_space_group_symop_operation_xyz
x,y,z
-x,-y,z
x,-y,-z
-x,y,-z
-x,-y,-z
x,y,-z
-x,y,z
x,-y,z
1/2+x,1/2+y,1/2+z
1/2-x,1/2-y,1/2+z
1/2+x,1/2-y,1/2-z
1/2-x,1/2+y,1/2-z
1/2-x,1/2-y,1/2-z
1/2+x,1/2+y,1/2-z
1/2-x,1/2+y,1/2+z
1/2+x,1/2-y,1/2+z
loop_
_atom_site_type_symbol
_atom_site_label
_atom_site_fract_x
_atom_site_fract_y
_atom_site_fract_z
Si Si1 0.572589 0.831554 0.165482
Si Si2 0.384003 0.672895 0.937809
Si Si3 0.677759 0.824304 0.743298
Si Si4 0.874339 0.172094 0.864119
Si Si5 0.248018 0.664715 0.437132
Si Si6 0.000000 0.825159 0.063753
O O1 0.500000 0.810658 0.194600
O O2 0.568364 0.743304 0.107747
O O3 0.632652 0.776321 0.204257
O O4 0.585135 0.000000 0.150162
O O5 0.390436 0.500000 0.933798
O O6 0.308856 0.718823 0.923736
O O7 0.403552 0.727764 0.000000
O O8 0.750000 0.750000 0.750000
O O9 0.634806 0.766759 0.691403
O O10 0.686716 0.000000 0.739322
O O11 0.809006 0.203905 0.898832
O O12 0.936063 0.229280 0.901209
O O13 0.882783 0.000000 0.848864
O O14 0.273697 0.677154 0.500000
O O15 0.220990 0.500000 0.424706
O O16 0.000000 0.000000 0.059414
O O17 0.000000 0.761452 0.000000
#
# Coordination Sequence:
#
# PCOD8290713 Si02
#       6
#    16  16  16  16  16   8
#     4  10  23  42  61  81 109 149 193 232 275 335
#     4  10  21  36  56  85 117 145 178 227 287 342
#     4  11  24  41  62  86 116 152 195 247 298 351
#     4  10  20  34  56  85 116 152 197 244 293 349
#     4   9  17  31  53  80 111 149 192 235 278 331
#     4   9  18  34  57  87 123 161 202 249 298 355
#
# _framework density 20.062570000000001
#
# number of rings (size 3 to 8) (size 9 to 14) (size 15 to 20)
#    0.000    2.091    0.000    2.727    1.273   10.545 
#    0.000    1.818    0.000    2.182    0.000    0.000 
#    0.000    0.000    0.000    0.000    0.000    0.000 
#
# Total GULP energy -545474.722022 kJ/mol
# GULP energy per Si atom -12397.152773 kJ/mol
# Density = 2.001691 g / cm^3
# Si number density = 20.062570 Si / 1000 Ang^3
#
#
#
# Elastic Constant Matrix: (Units=GPa)
#
#
# Indices 1 2 3 4 5 6 
#
# 1 112.4898 39.9734 70.2840 0.0000 0.0000 0.0000
# 2 39.9734 54.3149 47.4635 0.0000 0.0000 0.0000
# 3 70.2840 47.4635 134.3518 0.0000 0.0000 0.0000
# 4 0.0000 0.0000 0.0000 34.4295 0.0000 0.0000
# 5 0.0000 0.0000 0.0000 0.0000 30.4561 0.0000
# 6 0.0000 0.0000 0.0000 0.0000 0.0000 20.6686
#
#
#
# Elastic Compliance Matrix: (Units=1/GPa)
#
#
# Indices 1 2 3 4 5 6 
#
# 1 0.014365 -0.005794 -0.005468 0.000000 0.000000 0.000000
# 2 -0.005794 0.028970 -0.007204 0.000000 0.000000 0.000000
# 3 -0.005468 -0.007204 0.012848 0.000000 0.000000 0.000000
# 4 0.000000 0.000000 0.000000 0.029045 0.000000 0.000000
# 5 0.000000 0.000000 0.000000 0.000000 0.032834 0.000000
# 6 0.000000 0.000000 0.000000 0.000000 0.000000 0.048383
#
#
# Mechanical properties :
#
#
# Convention : Reuss Voigt Hill
#
# Bulk Modulus (GPa) = 51.94034 68.51092 60.22563
# Shear Modulus (GPa) = 23.83301 26.67321 25.25311
#
# Velocity S-wave (km/s) = 3.45038 3.65019 3.55169
# Velocity P-wave (km/s) = 6.46675 7.21027 6.84861
#
# Compressibility (1/GPa) = 0.01925286
#
# Stress axis : x y z
#
# Youngs Moduli (GPa) = 69.61403 34.51852 77.83020
#
# Poissons Ratio (x) = 0.19999 0.42557
# Poissons Ratio (y) = 0.40332 0.56065
# Poissons Ratio (z) = 0.38065 0.24866
#
# Static dielectric constant tensor:
#      x y z
#    x 3.729760 0.000000 0.000000 
#    y 0.000000 3.499040 0.000000 
#    z 0.000000 0.000000 3.959650 
# 
# 
# High freq. dielectric constant tensor:
#      x y z
#    x 1.791800 0.000000 0.000000 
#    y 0.000000 1.763210 0.000000 
#    z 0.000000 0.000000 1.793140 
# 
# From -- ./inp_files/10447.got.cif
#   From: 2010.06.25/outbox.cif.g09.slc.cpg/sg71_6_cif.got.tgz:10447.got - 2010.06.28 04:59:45.
