data_PCOD8290490
_publ_section_title
;
Structure prediction by ZEFSAII (Michael W. Deem and Ramdas Pophale) SiO2 
 PCOD8290490
Probable space group: I M M M
;
_chemical_formula_sum "Si O2"
_cell_formula_units_Z 96
_cell_length_a 24.850501
_cell_length_b 24.431568
_cell_length_c 8.841017
_cell_angle_alpha 90.000000
_cell_angle_beta 90.000000
_cell_angle_gamma 90.000000
_cell_volume 5367.705930
_symmetry_space_group_name_H-M "I M M M"
_symmetry_group_IT_number 71
_symmetry_cell_setting 'orthorhombic'
loop_
_space_group_symop_operation_xyz
x,y,z
-x,-y,z
x,-y,-z
-x,y,-z
-x,-y,-z
x,y,-z
-x,y,z
x,-y,z
1/2+x,1/2+y,1/2+z
1/2-x,1/2-y,1/2+z
1/2+x,1/2-y,1/2-z
1/2-x,1/2+y,1/2-z
1/2-x,1/2-y,1/2-z
1/2+x,1/2+y,1/2-z
1/2-x,1/2+y,1/2+z
1/2+x,1/2-y,1/2+z
loop_
_atom_site_type_symbol
_atom_site_label
_atom_site_fract_x
_atom_site_fract_y
_atom_site_fract_z
Si Si1 0.728016 0.500000 0.164969
Si Si2 0.640598 0.408905 0.828331
Si Si3 0.832449 0.500000 0.325360
Si Si4 0.315758 0.805334 0.176637
Si Si5 0.560727 0.500000 0.819486
Si Si6 0.193275 0.809647 0.176466
Si Si7 0.613882 0.103458 0.321056
Si Si8 0.500000 0.937896 0.678937
O O1 0.692948 0.554008 0.176885
O O2 0.768423 0.500000 0.305174
O O3 0.757283 0.500000 0.000000
O O4 0.590452 0.444575 0.763166
O O5 0.651602 0.357045 0.722163
O O6 0.629114 0.389174 0.000000
O O7 0.848204 0.500000 0.500000
O O8 0.853588 0.553428 0.245129
O O9 0.255147 0.826031 0.215027
O O10 0.323299 0.743313 0.229022
O O11 0.360731 0.840660 0.261191
O O12 0.327273 0.809651 0.000000
O O13 0.500000 0.500000 0.757394
O O14 0.563909 0.500000 0.000000
O O15 0.187248 0.796456 0.000000
O O16 0.618418 0.102646 0.500000
O O17 0.552045 0.096348 0.266917
O O18 0.500000 0.943630 0.500000
O O19 0.500000 0.000000 0.747374
#
# Coordination Sequence:
#
# PCOD8290490 Si02
#       8
#     8  16   8  16   8  16  16   8
#     4   9  18  31  47  72 105 140 173 206 257 316
#     4   9  17  30  51  77 104 135 172 214 255 306
#     4  12  23  32  46  74 108 137 171 214 258 307
#     4  10  21  36  54  79 108 136 172 217 259 307
#     4   8  15  30  53  79 104 133 170 212 262 309
#     4  10  20  34  53  77 107 143 175 207 256 313
#     4  11  21  36  57  77 101 136 176 216 262 313
#     4   9  18  36  58  78 100 134 178 215 256 309
#
# _framework density 17.884736
#
# number of rings (size 3 to 8) (size 9 to 14) (size 15 to 20)
#    0.000    2.167    0.833    4.250    0.000    5.333 
#    0.000    3.333    1.833    1.000    0.000    0.000 
#    0.000    0.000    0.000    0.000    0.000    0.000 
#
# Total GULP energy -595115.728719 kJ/mol
# GULP energy per Si atom -12398.244348 kJ/mol
# Density = 1.784403 g / cm^3
# Si number density = 17.884736 Si / 1000 Ang^3
#
#
#
# Elastic Constant Matrix: (Units=GPa)
#
#
# Indices 1 2 3 4 5 6 
#
# 1 124.2394 57.5886 36.4453 0.0000 0.0000 0.0000
# 2 57.5886 92.2935 33.3008 0.0000 0.0000 0.0000
# 3 36.4453 33.3008 66.4301 0.0000 0.0000 0.0000
# 4 0.0000 0.0000 0.0000 26.6350 0.0000 0.0000
# 5 0.0000 0.0000 0.0000 0.0000 16.0965 0.0000
# 6 0.0000 0.0000 0.0000 0.0000 0.0000 43.9824
#
#
#
# Elastic Compliance Matrix: (Units=1/GPa)
#
#
# Indices 1 2 3 4 5 6 
#
# 1 0.011934 -0.006207 -0.003436 0.000000 0.000000 0.000000
# 2 -0.006207 0.016456 -0.004844 0.000000 0.000000 0.000000
# 3 -0.003436 -0.004844 0.019367 0.000000 0.000000 0.000000
# 4 0.000000 0.000000 0.000000 0.037545 0.000000 0.000000
# 5 0.000000 0.000000 0.000000 0.000000 0.062125 0.000000
# 6 0.000000 0.000000 0.000000 0.000000 0.000000 0.022736
#
#
# Mechanical properties :
#
#
# Convention : Reuss Voigt Hill
#
# Bulk Modulus (GPa) = 53.23915 59.73692 56.48803
# Shear Modulus (GPa) = 24.34319 27.71798 26.03059
#
# Velocity S-wave (km/s) = 3.69333 3.94104 3.81919
# Velocity P-wave (km/s) = 6.92966 7.36088 7.14852
#
# Compressibility (1/GPa) = 0.01878317
#
# Stress axis : x y z
#
# Youngs Moduli (GPa) = 83.79507 60.76982 51.63527
#
# Poissons Ratio (x) = 0.37718 0.17741
# Poissons Ratio (y) = 0.52009 0.25011
# Poissons Ratio (z) = 0.28791 0.29436
#
# Static dielectric constant tensor:
#      x y z
#    x 3.437290 0.000000 0.000000 
#    y 0.000000 3.241470 0.000000 
#    z 0.000000 0.000000 3.212030 
# 
# 
# High freq. dielectric constant tensor:
#      x y z
#    x 1.680190 0.000000 0.000000 
#    y 0.000000 1.691490 0.000000 
#    z 0.000000 0.000000 1.683250 
# 
# From -- ./inp_files/12989.got.cif
#   From: 2010.06.25/outbox.cif.g09.slc.cpg/sg71_7_cif.got.tgz:12989.got - 2010.06.28 04:59:45.
