data_PCOD8290979
_publ_section_title
;
Structure prediction by ZEFSAII (Michael W. Deem and Ramdas Pophale) SiO2 
 PCOD8290979
Probable space group: I M M M
;
_chemical_formula_sum "Si O2"
_cell_formula_units_Z 120
_cell_length_a 14.080254
_cell_length_b 15.165196
_cell_length_c 28.776229
_cell_angle_alpha 90.000000
_cell_angle_beta 90.000000
_cell_angle_gamma 90.000000
_cell_volume 6144.582758
_symmetry_space_group_name_H-M "I M M M"
_symmetry_group_IT_number 71
_symmetry_cell_setting 'orthorhombic'
loop_
_space_group_symop_operation_xyz
x,y,z
-x,-y,z
x,-y,-z
-x,y,-z
-x,-y,-z
x,y,-z
-x,y,z
x,-y,z
1/2+x,1/2+y,1/2+z
1/2-x,1/2-y,1/2+z
1/2+x,1/2-y,1/2-z
1/2-x,1/2+y,1/2-z
1/2-x,1/2-y,1/2-z
1/2+x,1/2+y,1/2-z
1/2-x,1/2+y,1/2+z
1/2+x,1/2-y,1/2+z
loop_
_atom_site_type_symbol
_atom_site_label
_atom_site_fract_x
_atom_site_fract_y
_atom_site_fract_z
Si Si1 0.201396 0.395188 0.315001
Si Si2 0.769896 0.166371 0.445350
Si Si3 0.394384 0.500000 0.054470
Si Si4 0.611904 0.761243 0.881175
Si Si5 0.112030 0.097540 0.319900
Si Si6 0.610792 0.896880 0.618613
Si Si7 0.604720 0.895924 0.278254
Si Si8 0.102965 0.897101 0.784612
O O1 0.188458 0.500000 0.319883
O O2 0.139679 0.350991 0.355270
O O3 0.166782 0.360651 0.264513
O O4 0.312718 0.366177 0.319246
O O5 0.749973 0.169930 0.500000
O O6 0.837563 0.085787 0.429833
O O7 0.828144 0.253866 0.429239
O O8 0.669110 0.158653 0.419383
O O9 0.500000 0.500000 0.078056
O O10 0.407778 0.500000 0.000000
O O11 0.500000 0.761332 0.891294
O O12 0.648765 0.676445 0.852055
O O13 0.141351 0.120752 0.267318
O O14 0.000000 0.092617 0.321924
O O15 0.153255 0.000000 0.334792
O O16 0.500000 0.872297 0.613668
O O17 0.647291 0.871284 0.670864
O O18 0.625729 0.000000 0.608656
O O19 0.500000 0.853827 0.272995
O O20 0.595934 0.000000 0.275752
O O21 0.000000 0.850783 0.794921
O O22 0.087740 0.000000 0.790760
#
# Coordination Sequence:
#
# PCOD8290979 Si02
#       8
#    16  16   8  16  16  16  16  16
#     4  10  20  35  58  83 110 148 190 237 287 339
#     4  11  23  38  55  78 107 143 188 235 285 338
#     4   9  18  34  55  77 101 133 174 222 277 333
#     4  11  24  37  54  82 110 145 191 238 290 343
#     4   8  16  31  48  70 105 145 182 217 257 316
#     4   9  18  34  56  83 114 150 192 232 276 335
#     4   8  15  29  50  76 108 145 180 221 274 330
#     4   8  15  30  51  76 109 149 186 223 273 327
#
# _framework density 19.529396999999999
#
# number of rings (size 3 to 8) (size 9 to 14) (size 15 to 20)
#    0.000    2.733    0.667    2.400    2.800    2.400 
#    0.000    1.333    0.000    0.400    0.000    0.933 
#    0.000    0.000    0.000    4.533    0.000    0.000 
#
# Total GULP energy -743501.119030 kJ/mol
# GULP energy per Si atom -12391.685317 kJ/mol
# Density = 1.948495 g / cm^3
# Si number density = 19.529397 Si / 1000 Ang^3
#
#
#
# Elastic Constant Matrix: (Units=GPa)
#
#
# Indices 1 2 3 4 5 6 
#
# 1 80.1745 20.2352 48.7070 0.0000 0.0000 0.0000
# 2 20.2352 44.8072 30.8900 0.0000 0.0000 0.0000
# 3 48.7070 30.8900 90.0812 0.0000 0.0000 0.0000
# 4 0.0000 0.0000 0.0000 17.7496 0.0000 0.0000
# 5 0.0000 0.0000 0.0000 0.0000 23.0165 0.0000
# 6 0.0000 0.0000 0.0000 0.0000 0.0000 22.2906
#
#
#
# Elastic Compliance Matrix: (Units=1/GPa)
#
#
# Indices 1 2 3 4 5 6 
#
# 1 0.018701 -0.001931 -0.009449 0.000000 0.000000 0.000000
# 2 -0.001931 0.029427 -0.009047 0.000000 0.000000 0.000000
# 3 -0.009449 -0.009047 0.019313 0.000000 0.000000 0.000000
# 4 0.000000 0.000000 0.000000 0.056339 0.000000 0.000000
# 5 0.000000 0.000000 0.000000 0.000000 0.043447 0.000000
# 6 0.000000 0.000000 0.000000 0.000000 0.000000 0.044862
#
#
# Mechanical properties :
#
#
# Convention : Reuss Voigt Hill
#
# Bulk Modulus (GPa) = 37.61390 46.08081 41.84735
# Shear Modulus (GPa) = 19.09823 20.29338 19.69580
#
# Velocity S-wave (km/s) = 3.13057 3.22703 3.17917
# Velocity P-wave (km/s) = 5.68940 6.12632 5.91190
#
# Compressibility (1/GPa) = 0.02658592
#
# Stress axis : x y z
#
# Youngs Moduli (GPa) = 53.47373 33.98281 51.77973
#
# Poissons Ratio (x) = 0.06562 0.48928
# Poissons Ratio (y) = 0.10326 0.46843
# Poissons Ratio (z) = 0.50529 0.30743
#
# Static dielectric constant tensor:
#      x y z
#    x 5.363830 0.000000 0.000000 
#    y 0.000000 3.333710 0.000000 
#    z 0.000000 0.000000 3.410330 
# 
# 
# High freq. dielectric constant tensor:
#      x y z
#    x 1.778430 0.000000 0.000000 
#    y 0.000000 1.716200 0.000000 
#    z 0.000000 0.000000 1.730240 
# 
# From -- ./inp_files/70148.got.cif
#   From: 2010.06.25/outbox.cif.g09.slc.cpg/sg71_36_cif.got.tgz:70148.got - 2010.06.28 04:59:45.
