data_PCOD8290417
_publ_section_title
;
Structure prediction by ZEFSAII (Michael W. Deem and Ramdas Pophale) SiO2 
 PCOD8290417
Probable space group: I M M M
;
_chemical_formula_sum "Si O2"
_cell_formula_units_Z 88
_cell_length_a 22.883483
_cell_length_b 8.997724
_cell_length_c 24.075607
_cell_angle_alpha 90.000000
_cell_angle_beta 90.000000
_cell_angle_gamma 90.000000
_cell_volume 4957.149766
_symmetry_space_group_name_H-M "I M M M"
_symmetry_group_IT_number 71
_symmetry_cell_setting 'orthorhombic'
loop_
_space_group_symop_operation_xyz
x,y,z
-x,-y,z
x,-y,-z
-x,y,-z
-x,-y,-z
x,y,-z
-x,y,z
x,-y,z
1/2+x,1/2+y,1/2+z
1/2-x,1/2-y,1/2+z
1/2+x,1/2-y,1/2-z
1/2-x,1/2+y,1/2-z
1/2-x,1/2-y,1/2-z
1/2+x,1/2+y,1/2-z
1/2-x,1/2+y,1/2+z
1/2+x,1/2-y,1/2+z
loop_
_atom_site_type_symbol
_atom_site_label
_atom_site_fract_x
_atom_site_fract_y
_atom_site_fract_z
Si Si1 0.931707 0.172127 0.766131
Si Si2 0.659771 0.824869 0.062638
Si Si3 0.722609 0.826494 0.563318
Si Si4 0.566860 0.172958 0.152532
Si Si5 0.893784 0.675880 0.126103
Si Si6 0.000000 0.170819 0.934308
O O1 0.914172 0.233340 0.706025
O O2 0.895409 0.263552 0.811391
O O3 0.000000 0.197869 0.778151
O O4 0.914691 0.000000 0.769390
O O5 0.719754 0.755713 0.085596
O O6 0.606296 0.773080 0.101211
O O7 0.666848 0.000000 0.064005
O O8 0.646939 0.768451 0.000000
O O9 0.708820 0.779374 0.500000
O O10 0.668513 0.777697 0.601150
O O11 0.734559 0.000000 0.567910
O O12 0.500000 0.205835 0.136048
O O13 0.576271 0.000000 0.166219
O O14 0.903526 0.500000 0.125645
O O15 0.942827 0.750232 0.088534
O O16 0.000000 0.000000 0.914227
O O17 0.000000 0.184397 0.000000
#
# Coordination Sequence:
#
# PCOD8290417 Si02
#       6
#    16  16  16  16  16   8
#     4  10  20  34  52  75 105 137 173 217 265 313
#     4   9  18  33  54  80 107 136 170 210 259 313
#     4   9  19  35  53  74 102 137 175 214 258 310
#     4   9  18  33  54  79 107 137 171 210 256 313
#     4  11  21  34  54  76 101 137 180 220 262 312
#     4  11  23  35  49  75 109 139 172 219 268 309
#
# _framework density 17.752136
#
# number of rings (size 3 to 8) (size 9 to 14) (size 15 to 20)
#    0.000    2.273    0.909    1.909    0.000    4.727 
#    0.000    4.545    0.000    0.000    0.000    5.091 
#    0.000    0.000    0.000    0.000    0.000    0.000 
#
# Total GULP energy -545739.187394 kJ/mol
# GULP energy per Si atom -12403.163350 kJ/mol
# Density = 1.771173 g / cm^3
# Si number density = 17.752136 Si / 1000 Ang^3
#
#
#
# Elastic Constant Matrix: (Units=GPa)
#
#
# Indices 1 2 3 4 5 6 
#
# 1 129.8441 53.9063 86.0979 0.0000 0.0000 0.0000
# 2 53.9063 70.8714 53.3912 0.0000 0.0000 0.0000
# 3 86.0979 53.3912 117.9159 0.0000 0.0000 0.0000
# 4 0.0000 0.0000 0.0000 27.4983 0.0000 0.0000
# 5 0.0000 0.0000 0.0000 0.0000 28.4877 0.0000
# 6 0.0000 0.0000 0.0000 0.0000 0.0000 29.4192
#
#
#
# Elastic Compliance Matrix: (Units=1/GPa)
#
#
# Indices 1 2 3 4 5 6 
#
# 1 0.016075 -0.005137 -0.009411 0.000000 0.000000 0.000000
# 2 -0.005137 0.023056 -0.006689 0.000000 0.000000 0.000000
# 3 -0.009411 -0.006689 0.018381 0.000000 0.000000 0.000000
# 4 0.000000 0.000000 0.000000 0.036366 0.000000 0.000000
# 5 0.000000 0.000000 0.000000 0.000000 0.035103 0.000000
# 6 0.000000 0.000000 0.000000 0.000000 0.000000 0.033991
#
#
# Mechanical properties :
#
#
# Convention : Reuss Voigt Hill
#
# Bulk Modulus (GPa) = 66.49793 78.38027 72.43910
# Shear Modulus (GPa) = 23.75761 25.43010 24.59386
#
# Velocity S-wave (km/s) = 3.66224 3.78896 3.72614
# Velocity P-wave (km/s) = 7.44467 7.96179 7.70757
#
# Compressibility (1/GPa) = 0.01503806
#
# Stress axis : x y z
#
# Youngs Moduli (GPa) = 62.21015 43.37193 54.40366
#
# Poissons Ratio (x) = 0.22279 0.51200
# Poissons Ratio (y) = 0.31955 0.36391
# Poissons Ratio (z) = 0.58547 0.29012
#
# Static dielectric constant tensor:
#      x y z
#    x 3.297570 0.000000 0.000000 
#    y 0.000000 3.313120 0.000000 
#    z 0.000000 0.000000 3.393960 
# 
# 
# High freq. dielectric constant tensor:
#      x y z
#    x 1.678460 0.000000 0.000000 
#    y 0.000000 1.690280 0.000000 
#    z 0.000000 0.000000 1.689180 
# 
# From -- ./inp_files/10424.got.cif
#   From: 2010.06.25/outbox.cif.g09.slc.cpg/sg71_6_cif.got.tgz:10424.got - 2010.06.28 04:59:45.
