data_PCOD8290462
_publ_section_title
;
Structure prediction by ZEFSAII (Michael W. Deem and Ramdas Pophale) SiO2 
 PCOD8290462
Probable space group: I M M M
;
_chemical_formula_sum "Si O2"
_cell_formula_units_Z 96
_cell_length_a 26.903945
_cell_length_b 8.877612
_cell_length_c 22.505505
_cell_angle_alpha 90.000000
_cell_angle_beta 90.000000
_cell_angle_gamma 90.000000
_cell_volume 5375.277492
_symmetry_space_group_name_H-M "I M M M"
_symmetry_group_IT_number 71
_symmetry_cell_setting 'orthorhombic'
loop_
_space_group_symop_operation_xyz
x,y,z
-x,-y,z
x,-y,-z
-x,y,-z
-x,-y,-z
x,y,-z
-x,y,z
x,-y,z
1/2+x,1/2+y,1/2+z
1/2-x,1/2-y,1/2+z
1/2+x,1/2-y,1/2-z
1/2-x,1/2+y,1/2-z
1/2-x,1/2-y,1/2-z
1/2+x,1/2+y,1/2-z
1/2-x,1/2+y,1/2+z
1/2+x,1/2-y,1/2+z
loop_
_atom_site_type_symbol
_atom_site_label
_atom_site_fract_x
_atom_site_fract_y
_atom_site_fract_z
Si Si1 0.103862 0.669949 0.116194
Si Si2 0.360813 0.174366 0.205140
Si Si3 0.260031 0.176999 0.500000
Si Si4 0.368697 0.677879 0.500000
Si Si5 0.717529 0.173347 0.886963
Si Si6 0.703093 0.831096 0.684908
Si Si7 0.442967 0.326290 0.272256
O O1 0.085782 0.500000 0.103389
O O2 0.099631 0.768485 0.056746
O O3 0.161318 0.670392 0.134294
O O4 0.069562 0.737338 0.167770
O O5 0.338259 0.199688 0.139149
O O6 0.319720 0.226287 0.253209
O O7 0.410909 0.269003 0.215707
O O8 0.373688 0.000000 0.216868
O O9 0.313003 0.257272 0.500000
O O10 0.226986 0.220815 0.556916
O O11 0.269579 0.000000 0.500000
O O12 0.364392 0.500000 0.500000
O O13 0.755016 0.212816 0.833643
O O14 0.725035 0.000000 0.905529
O O15 0.725285 0.000000 0.690534
O O16 0.500000 0.299242 0.255274
O O17 0.430946 0.500000 0.283739
#
# Coordination Sequence:
#
# PCOD8290462 Si02
#       7
#    16  16   8   8  16  16  16
#     4  10  20  34  53  76 104 139 179 220 263 313
#     4   9  20  35  52  76 105 136 172 214 264 318
#     4  12  24  36  50  71 106 151 186 216 254 303
#     4  12  22  34  53  75 102 141 185 223 260 303
#     4  11  21  33  50  75 105 139 179 218 255 303
#     4   9  17  30  48  72 104 138 170 209 255 309
#     4  10  21  37  57  81 106 133 171 219 268 317
#
# _framework density 17.859542999999999
#
# number of rings (size 3 to 8) (size 9 to 14) (size 15 to 20)
#    0.000    1.833    1.667    4.500    0.000    5.333 
#    0.000    0.417    0.000    2.500    0.000    0.583 
#    0.000    4.667    0.000    0.000    0.000    0.000 
#
# Total GULP energy -595224.914329 kJ/mol
# GULP energy per Si atom -12400.519049 kJ/mol
# Density = 1.781889 g / cm^3
# Si number density = 17.859543 Si / 1000 Ang^3
#
#
#
# Elastic Constant Matrix: (Units=GPa)
#
#
# Indices 1 2 3 4 5 6 
#
# 1 75.7282 44.8024 32.4941 0.0000 0.0000 0.0000
# 2 44.8024 117.4630 30.0789 0.0000 0.0000 0.0000
# 3 32.4941 30.0789 46.6183 0.0000 0.0000 0.0000
# 4 0.0000 0.0000 0.0000 29.6992 0.0000 0.0000
# 5 0.0000 0.0000 0.0000 0.0000 12.8238 0.0000
# 6 0.0000 0.0000 0.0000 0.0000 0.0000 25.7454
#
#
#
# Elastic Compliance Matrix: (Units=1/GPa)
#
#
# Indices 1 2 3 4 5 6 
#
# 1 0.021149 -0.005141 -0.011424 0.000000 0.000000 0.000000
# 2 -0.005141 0.011448 -0.003803 0.000000 0.000000 0.000000
# 3 -0.011424 -0.003803 0.031867 0.000000 0.000000 0.000000
# 4 0.000000 0.000000 0.000000 0.033671 0.000000 0.000000
# 5 0.000000 0.000000 0.000000 0.000000 0.077980 0.000000
# 6 0.000000 0.000000 0.000000 0.000000 0.000000 0.038842
#
#
# Mechanical properties :
#
#
# Convention : Reuss Voigt Hill
#
# Bulk Modulus (GPa) = 42.14455 50.50672 46.32563
# Shear Modulus (GPa) = 18.96794 22.48260 20.72527
#
# Velocity S-wave (km/s) = 3.26246 3.55189 3.41025
# Velocity P-wave (km/s) = 6.15147 6.72031 6.44217
#
# Compressibility (1/GPa) = 0.02372786
#
# Stress axis : x y z
#
# Youngs Moduli (GPa) = 47.28441 87.35106 31.38005
#
# Poissons Ratio (x) = 0.44908 0.35849
# Poissons Ratio (y) = 0.24309 0.11934
# Poissons Ratio (z) = 0.54018 0.33220
#
# Static dielectric constant tensor:
#      x y z
#    x 3.083580 0.000000 0.000000 
#    y 0.000000 3.379260 0.000000 
#    z 0.000000 0.000000 3.301700 
# 
# 
# High freq. dielectric constant tensor:
#      x y z
#    x 1.659070 0.000000 0.000000 
#    y 0.000000 1.703240 0.000000 
#    z 0.000000 0.000000 1.679670 
# 
# From -- ./inp_files/61892.got.cif
#   From: 2010.06.25/outbox.cif.g09.slc.cpg/sg71_31_cif.got.tgz:61892.got - 2010.06.28 04:59:45.
