data_PCOD8290427
_publ_section_title
;
Structure prediction by ZEFSAII (Michael W. Deem and Ramdas Pophale) SiO2 
 PCOD8290427
Probable space group: I M M M
;
_chemical_formula_sum "Si O2"
_cell_formula_units_Z 104
_cell_length_a 30.303151
_cell_length_b 8.773486
_cell_length_c 20.910277
_cell_angle_alpha 90.000000
_cell_angle_beta 90.000000
_cell_angle_gamma 90.000000
_cell_volume 5559.295552
_symmetry_space_group_name_H-M "I M M M"
_symmetry_group_IT_number 71
_symmetry_cell_setting 'orthorhombic'
loop_
_space_group_symop_operation_xyz
x,y,z
-x,-y,z
x,-y,-z
-x,y,-z
-x,-y,-z
x,y,-z
-x,y,z
x,-y,z
1/2+x,1/2+y,1/2+z
1/2-x,1/2-y,1/2+z
1/2+x,1/2-y,1/2-z
1/2-x,1/2+y,1/2-z
1/2-x,1/2-y,1/2-z
1/2+x,1/2+y,1/2-z
1/2-x,1/2+y,1/2+z
1/2+x,1/2-y,1/2+z
loop_
_atom_site_type_symbol
_atom_site_label
_atom_site_fract_x
_atom_site_fract_y
_atom_site_fract_z
Si Si1 0.367086 0.180756 0.286251
Si Si2 0.717281 0.180841 0.928375
Si Si3 0.868808 0.318349 0.642030
Si Si4 0.050088 0.679883 0.869300
Si Si5 0.452178 0.181163 0.071315
Si Si6 0.447812 0.669438 0.500000
Si Si7 0.224061 0.180730 0.810686
O O1 0.364597 0.240684 0.213929
O O2 0.414237 0.231899 0.316140
O O3 0.325804 0.261455 0.319824
O O4 0.361291 0.000000 0.291750
O O5 0.670519 0.243570 0.902388
O O6 0.753742 0.233761 0.877313
O O7 0.715600 0.000000 0.932027
O O8 0.726490 0.246758 0.000000
O O9 0.869308 0.500000 0.641914
O O10 0.914346 0.248680 0.615538
O O11 0.048893 0.500000 0.875294
O O12 0.067983 0.744196 0.936493
O O13 0.000000 0.738700 0.852650
O O14 0.500000 0.229347 0.099073
O O15 0.448214 0.000000 0.069520
O O16 0.446448 0.245953 0.000000
O O17 0.427394 0.500000 0.500000
O O18 0.500000 0.663193 0.500000
O O19 0.250000 0.250000 0.750000
O O20 0.225804 0.000000 0.802533
#
# Coordination Sequence:
#
# PCOD8290427 Si02
#       7
#    16  16  16  16  16   8  16
#     4  10  20  34  52  77 106 136 174 212 257 314
#     4   9  17  30  50  74  97 125 167 215 258 303
#     4   9  15  25  43  66  94 130 167 203 244 296
#     4   9  18  33  53  76 106 142 176 213 263 325
#     4   8  13  20  32  57  95 132 161 195 243 291
#     4   9  17  31  53  77 101 133 177 225 267 311
#     4  11  21  36  57  78 105 140 177 218 267 318
#
# _framework density 18.707407
#
# number of rings (size 3 to 8) (size 9 to 14) (size 15 to 20)
#    0.000    2.692    1.538    1.615    0.000    4.000 
#    1.385    3.077    0.000    1.385    0.000    0.000 
#    0.000    0.000    0.000    1.692    0.000    1.538 
#
# Total GULP energy -644421.828813 kJ/mol
# GULP energy per Si atom -12392.727477 kJ/mol
# Density = 1.866483 g / cm^3
# Si number density = 18.707407 Si / 1000 Ang^3
#
#
#
# Elastic Constant Matrix: (Units=GPa)
#
#
# Indices 1 2 3 4 5 6 
#
# 1 159.5457 23.4950 85.0372 0.0000 0.0000 0.0000
# 2 23.4950 21.1234 20.2898 0.0000 0.0000 0.0000
# 3 85.0372 20.2898 155.6752 0.0000 0.0000 0.0000
# 4 0.0000 0.0000 0.0000 14.6074 0.0000 0.0000
# 5 0.0000 0.0000 0.0000 0.0000 38.9617 0.0000
# 6 0.0000 0.0000 0.0000 0.0000 0.0000 20.8190
#
#
#
# Elastic Compliance Matrix: (Units=1/GPa)
#
#
# Indices 1 2 3 4 5 6 
#
# 1 0.009546 -0.006412 -0.004379 0.000000 0.000000 0.000000
# 2 -0.006412 0.058422 -0.004112 0.000000 0.000000 0.000000
# 3 -0.004379 -0.004112 0.009351 0.000000 0.000000 0.000000
# 4 0.000000 0.000000 0.000000 0.068459 0.000000 0.000000
# 5 0.000000 0.000000 0.000000 0.000000 0.025666 0.000000
# 6 0.000000 0.000000 0.000000 0.000000 0.000000 0.048033
#
#
# Mechanical properties :
#
#
# Convention : Reuss Voigt Hill
#
# Bulk Modulus (GPa) = 21.04622 65.99870 43.52246
# Shear Modulus (GPa) = 18.85938 28.71244 23.78591
#
# Velocity S-wave (km/s) = 3.17854 3.92192 3.56964
# Velocity P-wave (km/s) = 4.97448 7.47427 6.34863
#
# Compressibility (1/GPa) = 0.04751447
#
# Stress axis : x y z
#
# Youngs Moduli (GPa) = 104.75787 17.11684 106.93537
#
# Poissons Ratio (x) = 0.10975 0.46824
# Poissons Ratio (y) = 0.67167 0.43973
# Poissons Ratio (z) = 0.45871 0.07039
#
# Static dielectric constant tensor:
#      x y z
#    x 3.694580 0.000000 0.000000 
#    y 0.000000 2.974240 0.000000 
#    z 0.000000 0.000000 3.693650 
# 
# 
# High freq. dielectric constant tensor:
#      x y z
#    x 1.733160 0.000000 0.000000 
#    y 0.000000 1.672540 0.000000 
#    z 0.000000 0.000000 1.730080 
# 
# From -- ./inp_files/56732.got.cif
#   From: 2010.06.25/outbox.cif.g09.slc.cpg/sg71_29_cif.got.tgz:56732.got - 2010.06.28 04:59:45.
