data_PCOD8290195
_publ_section_title
;
Structure prediction by ZEFSAII (Michael W. Deem and Ramdas Pophale) SiO2 
 PCOD8290195
Probable space group: I M M M
;
_chemical_formula_sum "Si O2"
_cell_formula_units_Z 120
_cell_length_a 25.685239
_cell_length_b 9.308311
_cell_length_c 26.938673
_cell_angle_alpha 90.000000
_cell_angle_beta 90.000000
_cell_angle_gamma 90.000000
_cell_volume 6440.664765
_symmetry_space_group_name_H-M "I M M M"
_symmetry_group_IT_number 71
_symmetry_cell_setting 'orthorhombic'
loop_
_space_group_symop_operation_xyz
x,y,z
-x,-y,z
x,-y,-z
-x,y,-z
-x,-y,-z
x,y,-z
-x,y,z
x,-y,z
1/2+x,1/2+y,1/2+z
1/2-x,1/2-y,1/2+z
1/2+x,1/2-y,1/2-z
1/2-x,1/2+y,1/2-z
1/2-x,1/2-y,1/2-z
1/2+x,1/2+y,1/2-z
1/2-x,1/2+y,1/2+z
1/2+x,1/2-y,1/2+z
loop_
_atom_site_type_symbol
_atom_site_label
_atom_site_fract_x
_atom_site_fract_y
_atom_site_fract_z
Si Si1 0.753574 0.169337 0.654868
Si Si2 0.697647 0.665355 0.945449
Si Si3 0.560441 0.832198 0.402376
Si Si4 0.140321 0.670317 0.184073
Si Si5 0.938310 0.162879 0.000000
Si Si6 0.591967 0.835904 0.055329
Si Si7 0.556543 0.337714 0.858413
Si Si8 0.853438 0.829794 0.284725
O O1 0.763507 0.215882 0.597890
O O2 0.696837 0.230139 0.667611
O O3 0.798151 0.226390 0.692941
O O4 0.753473 0.000000 0.659406
O O5 0.681056 0.500000 0.937002
O O6 0.647465 0.761775 0.941046
O O7 0.723960 0.684984 0.000000
O O8 0.500000 0.797078 0.389831
O O9 0.596175 0.785949 0.355798
O O10 0.580675 0.745180 0.450489
O O11 0.567509 0.000000 0.414434
O O12 0.140462 0.500000 0.192266
O O13 0.129179 0.748828 0.235355
O O14 0.000000 0.162285 0.000000
O O15 0.916318 0.000000 0.000000
O O16 0.552787 0.759463 0.092682
O O17 0.598962 0.000000 0.071159
O O18 0.568782 0.822493 0.000000
O O19 0.500000 0.327242 0.831760
O O20 0.568592 0.500000 0.875004
O O21 0.601983 0.282894 0.822939
O O22 0.852829 0.000000 0.275050
#
# Coordination Sequence:
#
# PCOD8290195 Si02
#       8
#    16  16  16  16   8  16  16  16
#     4   9  17  33  54  78 105 133 173 221 261 305
#     4   9  16  30  54  78 102 137 175 213 259 310
#     4   9  18  34  54  77 109 144 173 208 257 310
#     4  10  21  35  53  80 107 136 179 219 256 309
#     4   9  17  31  55  83 107 137 177 213 250 305
#     4  10  20  33  51  77 108 139 171 212 263 318
#     4  10  21  37  56  77 101 134 178 222 263 311
#     4  10  20  36  55  74 102 137 172 219 271 310
#
# _framework density 18.631616999999999
#
# number of rings (size 3 to 8) (size 9 to 14) (size 15 to 20)
#    0.000    2.467    1.333    1.000    0.000    3.733 
#    1.200    2.000    0.000    0.000    0.000    0.000 
#    0.000    0.000    0.000    0.000    0.000    0.000 
#
# Total GULP energy -743747.463599 kJ/mol
# GULP energy per Si atom -12395.791060 kJ/mol
# Density = 1.858921 g / cm^3
# Si number density = 18.631617 Si / 1000 Ang^3
#
#
#
# Elastic Constant Matrix: (Units=GPa)
#
#
# Indices 1 2 3 4 5 6 
#
# 1 105.0511 32.0783 61.9511 0.0000 0.0000 0.0000
# 2 32.0783 61.9200 56.2459 0.0000 0.0000 0.0000
# 3 61.9511 56.2459 147.5615 0.0000 0.0000 0.0000
# 4 0.0000 0.0000 0.0000 34.0602 0.0000 0.0000
# 5 0.0000 0.0000 0.0000 0.0000 18.6803 0.0000
# 6 0.0000 0.0000 0.0000 0.0000 0.0000 7.6460
#
#
#
# Elastic Compliance Matrix: (Units=1/GPa)
#
#
# Indices 1 2 3 4 5 6 
#
# 1 0.012941 -0.002706 -0.004402 0.000000 0.000000 0.000000
# 2 -0.002706 0.025269 -0.008496 0.000000 0.000000 0.000000
# 3 -0.004402 -0.008496 0.011863 0.000000 0.000000 0.000000
# 4 0.000000 0.000000 0.000000 0.029360 0.000000 0.000000
# 5 0.000000 0.000000 0.000000 0.000000 0.053532 0.000000
# 6 0.000000 0.000000 0.000000 0.000000 0.000000 0.130788
#
#
# Mechanical properties :
#
#
# Convention : Reuss Voigt Hill
#
# Bulk Modulus (GPa) = 53.00396 68.34260 60.67328
# Shear Modulus (GPa) = 16.59756 23.02777 19.81266
#
# Velocity S-wave (km/s) = 2.98791 3.51942 3.26450
# Velocity P-wave (km/s) = 6.35717 7.29902 6.84432
#
# Compressibility (1/GPa) = 0.01886651
#
# Stress axis : x y z
#
# Youngs Moduli (GPa) = 77.27211 39.57431 84.29492
#
# Poissons Ratio (x) = 0.10709 0.37104
# Poissons Ratio (y) = 0.20910 0.71614
# Poissons Ratio (z) = 0.34013 0.33621
#
# Static dielectric constant tensor:
#      x y z
#    x 3.484320 0.000000 0.000000 
#    y 0.000000 3.309880 0.000000 
#    z 0.000000 0.000000 3.607650 
# 
# 
# High freq. dielectric constant tensor:
#      x y z
#    x 1.713480 0.000000 0.000000 
#    y 0.000000 1.704770 0.000000 
#    z 0.000000 0.000000 1.729020 
# 
# From -- ./inp_files/67177.got.cif
#   From: 2010.06.25/outbox.cif.g09.slc.cpg/sg71_34_cif.got.tgz:67177.got - 2010.06.28 04:59:45.
