data_PCOD8290492
_publ_section_title
;
Structure prediction by ZEFSAII (Michael W. Deem and Ramdas Pophale) SiO2 
 PCOD8290492
Probable space group: I M M M
;
_chemical_formula_sum "Si O2"
_cell_formula_units_Z 112
_cell_length_a 14.357766
_cell_length_b 29.471166
_cell_length_c 14.373776
_cell_angle_alpha 90.000000
_cell_angle_beta 90.000000
_cell_angle_gamma 90.000000
_cell_volume 6082.121088
_symmetry_space_group_name_H-M "I M M M"
_symmetry_group_IT_number 71
_symmetry_cell_setting 'orthorhombic'
loop_
_space_group_symop_operation_xyz
x,y,z
-x,-y,z
x,-y,-z
-x,y,-z
-x,-y,-z
x,y,-z
-x,y,z
x,-y,z
1/2+x,1/2+y,1/2+z
1/2-x,1/2-y,1/2+z
1/2+x,1/2-y,1/2-z
1/2-x,1/2+y,1/2-z
1/2-x,1/2-y,1/2-z
1/2+x,1/2+y,1/2-z
1/2-x,1/2+y,1/2+z
1/2+x,1/2-y,1/2+z
loop_
_atom_site_type_symbol
_atom_site_label
_atom_site_fract_x
_atom_site_fract_y
_atom_site_fract_z
Si Si1 0.703800 0.381796 0.607041
Si Si2 0.102335 0.656982 0.395781
Si Si3 0.394296 0.786199 0.281329
Si Si4 0.255590 0.849377 0.608809
Si Si5 0.399494 0.449190 0.721705
Si Si6 0.279981 0.550226 0.105315
Si Si7 0.889343 0.184371 0.245884
O O1 0.675752 0.380839 0.500000
O O2 0.814997 0.378521 0.623011
O O3 0.676958 0.429134 0.652838
O O4 0.644073 0.342798 0.655858
O O5 0.112263 0.677108 0.500000
O O6 0.113172 0.698244 0.325297
O O7 0.000000 0.633543 0.383336
O O8 0.500000 0.787151 0.317861
O O9 0.338477 0.819142 0.349993
O O10 0.355333 0.735196 0.277819
O O11 0.243045 0.838067 0.500000
O O12 0.280672 0.903547 0.623125
O O13 0.160525 0.836251 0.662664
O O14 0.500000 0.424091 0.713680
O O15 0.411047 0.500000 0.688047
O O16 0.369137 0.446252 0.828758
O O17 0.229932 0.500000 0.122442
O O18 0.316991 0.551797 0.000000
O O19 0.000000 0.181860 0.261550
#
# Coordination Sequence:
#
# PCOD8290492 Si02
#       7
#    16  16  16  16  16  16  16
#     4  11  22  36  56  78 106 143 180 226 280 333
#     4   9  18  34  58  83 104 135 181 228 275 326
#     4  10  21  38  58  80 112 147 185 235 282 333
#     4  11  22  36  57  83 113 150 190 233 283 336
#     4  10  20  34  53  77 108 145 185 228 272 328
#     4   9  18  33  54  80 109 145 188 231 279 332
#     4  11  23  38  54  79 113 148 190 230 274 330
#
# _framework density 18.414628
#
# number of rings (size 3 to 8) (size 9 to 14) (size 15 to 20)
#    0.000    1.857    2.857    0.857    0.000    3.429 
#    0.000    6.429    0.000    0.857    0.000    8.000 
#    0.000    0.000    0.000    0.000    0.000    0.286 
#
# Total GULP energy -693799.632883 kJ/mol
# GULP energy per Si atom -12389.279159 kJ/mol
# Density = 1.837272 g / cm^3
# Si number density = 18.414628 Si / 1000 Ang^3
#
#
#
# Elastic Constant Matrix: (Units=GPa)
#
#
# Indices 1 2 3 4 5 6 
#
# 1 74.5527 48.9119 41.9531 0.0000 0.0000 0.0000
# 2 48.9119 137.2660 53.9092 -0.0002 -0.0001 0.0000
# 3 41.9531 53.9092 116.6273 0.0007 0.0002 0.0001
# 4 0.0000 -0.0002 0.0007 22.5574 -0.0002 0.0000
# 5 0.0000 -0.0001 0.0002 -0.0002 22.3177 0.0000
# 6 0.0000 0.0000 0.0001 0.0000 0.0000 22.1965
#
#
#
# Elastic Compliance Matrix: (Units=1/GPa)
#
#
# Indices 1 2 3 4 5 6 
#
# 1 0.019340 -0.005082 -0.004608 0.000000 0.000000 0.000000
# 2 -0.005082 0.010236 -0.002904 0.000000 0.000000 0.000000
# 3 -0.004608 -0.002904 0.011574 0.000000 0.000000 0.000000
# 4 0.000000 0.000000 0.000000 0.044331 0.000000 0.000000
# 5 0.000000 0.000000 0.000000 0.000000 0.044808 0.000000
# 6 0.000000 0.000000 0.000000 0.000000 0.000000 0.045052
#
#
# Mechanical properties :
#
#
# Convention : Reuss Voigt Hill
#
# Bulk Modulus (GPa) = 62.64159 68.66606 65.65382
# Shear Modulus (GPa) = 24.28952 25.65911 24.97431
#
# Velocity S-wave (km/s) = 3.63579 3.73689 3.68669
# Velocity P-wave (km/s) = 7.19141 7.48258 7.33844
#
# Compressibility (1/GPa) = 0.01596383
#
# Stress axis : x y z
#
# Youngs Moduli (GPa) = 51.70498 97.69224 86.39997
#
# Poissons Ratio (x) = 0.49645 0.39815
# Poissons Ratio (y) = 0.26275 0.25086
# Poissons Ratio (z) = 0.23827 0.28365
#
# Static dielectric constant tensor:
#      x y z
#    x 3.533340 0.000000 0.000000 
#    y 0.000000 3.675180 0.000000 
#    z 0.000000 0.000000 3.478260 
# 
# 
# High freq. dielectric constant tensor:
#      x y z
#    x 1.701090 0.000000 0.000000 
#    y 0.000000 1.716520 0.000000 
#    z 0.000000 0.000000 1.721980 
# 
# From -- ./inp_files/35342.got.cif
#   From: 2010.06.25/outbox.cif.g09.slc.cpg/sg71_18_cif.got.tgz:35342.got - 2010.06.28 04:59:45.
