data_PCOD8290416
_publ_section_title
;
Structure prediction by ZEFSAII (Michael W. Deem and Ramdas Pophale) SiO2 
 PCOD8290416
Probable space group: I M M M
;
_chemical_formula_sum "Si O2"
_cell_formula_units_Z 104
_cell_length_a 19.494517
_cell_length_b 8.978347
_cell_length_c 31.459778
_cell_angle_alpha 90.000000
_cell_angle_beta 90.000000
_cell_angle_gamma 90.000000
_cell_volume 5506.358956
_symmetry_space_group_name_H-M "I M M M"
_symmetry_group_IT_number 71
_symmetry_cell_setting 'orthorhombic'
loop_
_space_group_symop_operation_xyz
x,y,z
-x,-y,z
x,-y,-z
-x,y,-z
-x,-y,-z
x,y,-z
-x,y,z
x,-y,z
1/2+x,1/2+y,1/2+z
1/2-x,1/2-y,1/2+z
1/2+x,1/2-y,1/2-z
1/2-x,1/2+y,1/2-z
1/2-x,1/2-y,1/2-z
1/2+x,1/2+y,1/2-z
1/2-x,1/2+y,1/2+z
1/2+x,1/2-y,1/2+z
loop_
_atom_site_type_symbol
_atom_site_label
_atom_site_fract_x
_atom_site_fract_y
_atom_site_fract_z
Si Si1 0.718101 0.676199 0.709061
Si Si2 0.802046 0.676266 0.374182
Si Si3 0.918774 0.666813 0.500000
Si Si4 0.920917 0.824903 0.414156
Si Si5 0.074867 0.823148 0.177111
Si Si6 0.574296 0.322829 0.581336
Si Si7 0.714231 0.323071 0.546611
O O1 0.720487 0.500000 0.714362
O O2 0.750000 0.750000 0.750000
O O3 0.761561 0.725619 0.667856
O O4 0.639362 0.734816 0.704792
O O5 0.812743 0.500000 0.375495
O O6 0.876252 0.756763 0.375517
O O7 0.761388 0.737607 0.415474
O O8 0.886781 0.500000 0.500000
O O9 0.893829 0.751881 0.457992
O O10 0.000000 0.659230 0.500000
O O11 0.000000 0.784175 0.405267
O O12 0.910329 0.000000 0.417558
O O13 0.083539 0.762528 0.129309
O O14 0.000000 0.771291 0.195511
O O15 0.077848 0.000000 0.176098
O O16 0.500000 0.269693 0.563283
O O17 0.576532 0.500000 0.582355
O O18 0.636515 0.261229 0.552723
O O19 0.740990 0.270582 0.500000
O O20 0.712880 0.500000 0.549287
#
# Coordination Sequence:
#
# PCOD8290416 Si02
#       7
#    16  16   8  16  16  16  16
#     4  10  20  35  55  79 105 134 173 220 271 322
#     4  10  20  34  52  75 104 138 175 217 266 321
#     4   9  17  31  53  79 105 137 178 219 262 317
#     4  10  21  36  53  75 105 140 179 224 270 317
#     4   8  13  25  47  71  96 129 167 205 247 300
#     4   8  12  20  37  62  95 133 167 200 241 287
#     4   9  16  25  39  65 102 138 170 205 248 299
#
# _framework density 18.887253999999999
#
# number of rings (size 3 to 8) (size 9 to 14) (size 15 to 20)
#    0.000    2.846    1.538    1.615    1.077    2.769 
#    0.000    2.308    0.000    3.231    0.000    0.000 
#    0.000    0.615    0.000    1.385    0.000    1.538 
#
# Total GULP energy -644375.981866 kJ/mol
# GULP energy per Si atom -12391.845805 kJ/mol
# Density = 1.884427 g / cm^3
# Si number density = 18.887254 Si / 1000 Ang^3
#
#
#
# Elastic Constant Matrix: (Units=GPa)
#
#
# Indices 1 2 3 4 5 6 
#
# 1 128.1864 33.5425 72.2031 0.0000 0.0000 0.0000
# 2 33.5425 34.1104 27.3311 0.0000 0.0000 0.0000
# 3 72.2031 27.3311 121.3907 0.0000 0.0000 0.0000
# 4 0.0000 0.0000 0.0000 23.2880 0.0000 0.0000
# 5 0.0000 0.0000 0.0000 0.0000 31.8681 0.0000
# 6 0.0000 0.0000 0.0000 0.0000 0.0000 15.3826
#
#
#
# Elastic Compliance Matrix: (Units=1/GPa)
#
#
# Indices 1 2 3 4 5 6 
#
# 1 0.013413 -0.008294 -0.006111 0.000000 0.000000 0.000000
# 2 -0.008294 0.040898 -0.004275 0.000000 0.000000 0.000000
# 3 -0.006111 -0.004275 0.012835 0.000000 0.000000 0.000000
# 4 0.000000 0.000000 0.000000 0.042940 0.000000 0.000000
# 5 0.000000 0.000000 0.000000 0.000000 0.031379 0.000000
# 6 0.000000 0.000000 0.000000 0.000000 0.000000 0.065009
#
#
# Mechanical properties :
#
#
# Convention : Reuss Voigt Hill
#
# Bulk Modulus (GPa) = 33.57189 61.09343 47.33266
# Shear Modulus (GPa) = 19.70343 24.14847 21.92595
#
# Velocity S-wave (km/s) = 3.23339 3.57957 3.41087
# Velocity P-wave (km/s) = 5.63500 7.03570 6.37394
#
# Compressibility (1/GPa) = 0.02978682
#
# Stress axis : x y z
#
# Youngs Moduli (GPa) = 74.55195 24.45137 77.91084
#
# Poissons Ratio (x) = 0.20279 0.47611
# Poissons Ratio (y) = 0.61831 0.33307
# Poissons Ratio (z) = 0.45559 0.10453
#
# Static dielectric constant tensor:
#      x y z
#    x 3.925640 0.000000 0.000000 
#    y 0.000000 2.899390 0.000000 
#    z 0.000000 0.000000 3.368000 
# 
# 
# High freq. dielectric constant tensor:
#      x y z
#    x 1.756650 0.000000 0.000000 
#    y 0.000000 1.673190 0.000000 
#    z 0.000000 0.000000 1.711020 
# 
# From -- ./inp_files/70769.got.cif
#   From: 2010.06.25/outbox.cif.g09.slc.cpg/sg71_36_cif.got.tgz:70769.got - 2010.06.28 04:59:45.
