data_PCOD8290167
_publ_section_title
;
Structure prediction by ZEFSAII (Michael W. Deem and Ramdas Pophale) SiO2 
 PCOD8290167
Probable space group: I M M M
;
_chemical_formula_sum "Si O2"
_cell_formula_units_Z 104
_cell_length_a 29.680300
_cell_length_b 9.160939
_cell_length_c 22.590990
_cell_angle_alpha 90.000000
_cell_angle_beta 90.000000
_cell_angle_gamma 90.000000
_cell_volume 6142.477029
_symmetry_space_group_name_H-M "I M M M"
_symmetry_group_IT_number 71
_symmetry_cell_setting 'orthorhombic'
loop_
_space_group_symop_operation_xyz
x,y,z
-x,-y,z
x,-y,-z
-x,y,-z
-x,-y,-z
x,y,-z
-x,y,z
x,-y,z
1/2+x,1/2+y,1/2+z
1/2-x,1/2-y,1/2+z
1/2+x,1/2-y,1/2-z
1/2-x,1/2+y,1/2-z
1/2-x,1/2-y,1/2-z
1/2+x,1/2+y,1/2-z
1/2-x,1/2+y,1/2+z
1/2+x,1/2-y,1/2+z
loop_
_atom_site_type_symbol
_atom_site_label
_atom_site_fract_x
_atom_site_fract_y
_atom_site_fract_z
Si Si1 0.706018 0.336905 0.570506
Si Si2 0.052206 0.670128 0.270802
Si Si3 0.949216 0.325850 0.500000
Si Si4 0.552451 0.330233 0.651761
Si Si5 0.603360 0.173585 0.885871
Si Si6 0.195951 0.326366 0.433916
Si Si7 0.880678 0.667315 0.070030
O O1 0.707008 0.341599 0.500000
O O2 0.696689 0.500000 0.595194
O O3 0.755164 0.277192 0.591839
O O4 0.666949 0.230118 0.593673
O O5 0.061333 0.500000 0.258946
O O6 0.067748 0.758366 0.213269
O O7 0.081789 0.732270 0.325132
O O8 0.000000 0.698213 0.286046
O O9 0.948211 0.500000 0.500000
O O10 0.924435 0.264571 0.441696
O O11 0.000000 0.266382 0.500000
O O12 0.500000 0.301813 0.640148
O O13 0.564252 0.500000 0.654069
O O14 0.578483 0.256656 0.597802
O O15 0.655375 0.227059 0.891342
O O16 0.600220 0.000000 0.886163
O O17 0.187954 0.262668 0.500000
O O18 0.195928 0.500000 0.438234
O O19 0.883837 0.500000 0.089821
O O20 0.884606 0.685667 0.000000
#
# Coordination Sequence:
#
# PCOD8290167 Si02
#       7
#    16  16   8  16  16  16  16
#     4   8  14  25  43  66  93 125 158 189 223 270
#     4   9  17  29  45  66  93 126 163 200 238 278
#     4   9  14  18  28  54  95 133 159 193 244 291
#     4  10  21  36  53  71  92 122 158 191 222 264
#     4   9  14  21  36  61  94 128 161 199 241 283
#     4   8  12  20  36  61  92 125 160 197 236 276
#     4  10  20  33  51  76 102 123 143 175 227 281
#
# _framework density 16.931280000000001
#
# number of rings (size 3 to 8) (size 9 to 14) (size 15 to 20)
#    0.000    3.000    0.769    2.308    0.000    4.000 
#    0.000    1.538    0.000    1.846    0.000    0.538 
#    0.000    3.077    0.000    0.000    0.000    0.000 
#
# Total GULP energy -644559.634922 kJ/mol
# GULP energy per Si atom -12395.377595 kJ/mol
# Density = 1.689274 g / cm^3
# Si number density = 16.931280 Si / 1000 Ang^3
#
#
#
# Elastic Constant Matrix: (Units=GPa)
#
#
# Indices 1 2 3 4 5 6 
#
# 1 117.6130 45.2653 52.3340 0.0000 0.0000 0.0000
# 2 45.2653 59.2344 33.2882 0.0000 0.0000 0.0000
# 3 52.3340 33.2882 60.8272 0.0000 0.0000 0.0000
# 4 0.0000 0.0000 0.0000 11.4430 0.0000 0.0000
# 5 0.0000 0.0000 0.0000 0.0000 19.7227 0.0000
# 6 0.0000 0.0000 0.0000 0.0000 0.0000 13.0257
#
#
#
# Elastic Compliance Matrix: (Units=1/GPa)
#
#
# Indices 1 2 3 4 5 6 
#
# 1 0.015187 -0.006155 -0.009697 0.000000 0.000000 0.000000
# 2 -0.006155 0.026875 -0.009412 0.000000 0.000000 0.000000
# 3 -0.009697 -0.009412 0.029934 0.000000 0.000000 0.000000
# 4 0.000000 0.000000 0.000000 0.087390 0.000000 0.000000
# 5 0.000000 0.000000 0.000000 0.000000 0.050703 0.000000
# 6 0.000000 0.000000 0.000000 0.000000 0.000000 0.076771
#
#
# Mechanical properties :
#
#
# Convention : Reuss Voigt Hill
#
# Bulk Modulus (GPa) = 46.58412 55.49443 51.03927
# Shear Modulus (GPa) = 14.51192 15.95740 15.23466
#
# Velocity S-wave (km/s) = 2.93082 3.07331 3.00291
# Velocity P-wave (km/s) = 6.24710 6.74100 6.49875
#
# Compressibility (1/GPa) = 0.02146654
#
# Stress axis : x y z
#
# Youngs Moduli (GPa) = 65.84779 37.20928 33.40677
#
# Poissons Ratio (x) = 0.22904 0.32396
# Poissons Ratio (y) = 0.40532 0.31441
# Poissons Ratio (z) = 0.63856 0.35020
#
# Static dielectric constant tensor:
#      x y z
#    x 3.518900 0.000000 0.000000 
#    y 0.000000 2.869720 0.000000 
#    z 0.000000 0.000000 2.995560 
# 
# 
# High freq. dielectric constant tensor:
#      x y z
#    x 1.664990 0.000000 0.000000 
#    y 0.000000 1.613680 0.000000 
#    z 0.000000 0.000000 1.624850 
# 
# From -- ./inp_files/62299.got.cif
#   From: 2010.06.25/outbox.cif.g09.slc.cpg/sg71_32_cif.got.tgz:62299.got - 2010.06.28 04:59:45.
