data_PCOD8290593
_publ_section_title
;
Structure prediction by ZEFSAII (Michael W. Deem and Ramdas Pophale) SiO2 
 PCOD8290593
Probable space group: I M M M
;
_chemical_formula_sum "Si O2"
_cell_formula_units_Z 104
_cell_length_a 9.174290
_cell_length_b 26.740510
_cell_length_c 21.001760
_cell_angle_alpha 90.000000
_cell_angle_beta 90.000000
_cell_angle_gamma 90.000000
_cell_volume 5152.260836
_symmetry_space_group_name_H-M "I M M M"
_symmetry_group_IT_number 71
_symmetry_cell_setting 'orthorhombic'
loop_
_space_group_symop_operation_xyz
x,y,z
-x,-y,z
x,-y,-z
-x,y,-z
-x,-y,-z
x,y,-z
-x,y,z
x,-y,z
1/2+x,1/2+y,1/2+z
1/2-x,1/2-y,1/2+z
1/2+x,1/2-y,1/2-z
1/2-x,1/2+y,1/2-z
1/2-x,1/2-y,1/2-z
1/2+x,1/2+y,1/2-z
1/2-x,1/2+y,1/2+z
1/2+x,1/2-y,1/2+z
loop_
_atom_site_type_symbol
_atom_site_label
_atom_site_fract_x
_atom_site_fract_y
_atom_site_fract_z
Si Si1 0.827945 0.279384 0.807073
Si Si2 0.339220 0.633788 0.425847
Si Si3 0.159864 0.941295 0.617323
Si Si4 0.663716 0.894104 0.277312
Si Si5 0.827057 0.732965 0.574660
Si Si6 0.166297 0.443008 0.644330
Si Si7 0.661551 0.940144 0.500000
O O1 0.750000 0.250000 0.750000
O O2 0.801674 0.336873 0.790591
O O3 0.753980 0.270367 0.876393
O O4 0.000000 0.266026 0.809722
O O5 0.361019 0.635016 0.500000
O O6 0.500000 0.640337 0.393809
O O7 0.230513 0.678193 0.405403
O O8 0.270234 0.580074 0.409168
O O9 0.227591 0.929596 0.685029
O O10 0.258126 0.917959 0.561600
O O11 0.000000 0.917010 0.612465
O O12 0.149016 0.000000 0.607995
O O13 0.500000 0.908036 0.298161
O O14 0.688907 0.906879 0.204186
O O15 0.790818 0.745633 0.500000
O O16 0.000000 0.734780 0.586313
O O17 0.213130 0.500000 0.659478
O O18 0.000000 0.441629 0.620372
O O19 0.500000 0.917903 0.500000
O O20 0.659224 0.000000 0.500000
#
# Coordination Sequence:
#
# PCOD8290593 Si02
#       7
#    16  16  16  16  16  16   8
#     4  11  23  39  62  90 119 153 196 247 298 356
#     4  10  21  37  59  87 118 153 193 239 292 352
#     4  10  20  34  54  81 111 143 183 231 279 328
#     4  10  22  39  57  81 111 148 191 234 285 342
#     4  10  21  39  63  89 119 157 200 247 301 362
#     4  10  21  37  58  84 116 155 199 246 292 346
#     4   9  17  31  53  77 103 141 183 221 267 323
#
# _framework density 20.185314999999999
#
# number of rings (size 3 to 8) (size 9 to 14) (size 15 to 20)
#    0.000    1.923    0.000    3.462    0.000    8.000 
#    1.385    1.538    0.000    0.000    0.000    0.000 
#    0.000    0.000    0.000    0.000    0.000    0.000 
#
# Total GULP energy -644726.510304 kJ/mol
# GULP energy per Si atom -12398.586737 kJ/mol
# Density = 2.013937 g / cm^3
# Si number density = 20.185315 Si / 1000 Ang^3
#
#
#
# Elastic Constant Matrix: (Units=GPa)
#
#
# Indices 1 2 3 4 5 6 
#
# 1 121.7552 28.8328 23.3635 0.0000 0.0000 0.0000
# 2 28.8328 76.0255 15.5962 0.0000 0.0000 0.0000
# 3 23.3635 15.5962 34.0968 0.0002 -0.0002 0.0000
# 4 0.0000 0.0000 0.0002 35.7921 -0.0001 0.0000
# 5 0.0000 0.0000 -0.0002 -0.0001 34.2283 0.0000
# 6 0.0000 0.0000 0.0000 0.0000 0.0000 30.3550
#
#
#
# Elastic Compliance Matrix: (Units=1/GPa)
#
#
# Indices 1 2 3 4 5 6 
#
# 1 0.009904 -0.002609 -0.005593 0.000000 0.000000 0.000000
# 2 -0.002609 0.015203 -0.005166 0.000000 0.000000 0.000000
# 3 -0.005593 -0.005166 0.035524 0.000000 0.000000 0.000000
# 4 0.000000 0.000000 0.000000 0.027939 0.000000 0.000000
# 5 0.000000 0.000000 0.000000 0.000000 0.029216 0.000000
# 6 0.000000 0.000000 0.000000 0.000000 0.000000 0.032944
#
#
# Mechanical properties :
#
#
# Convention : Reuss Voigt Hill
#
# Bulk Modulus (GPa) = 29.50353 40.82917 35.16635
# Shear Modulus (GPa) = 26.48813 31.01407 28.75110
#
# Velocity S-wave (km/s) = 3.62643 3.92403 3.77816
# Velocity P-wave (km/s) = 5.67298 6.38763 6.04088
#
# Compressibility (1/GPa) = 0.03389425
#
# Stress axis : x y z
#
# Youngs Moduli (GPa) = 100.96654 65.77781 28.15008
#
# Poissons Ratio (x) = 0.17160 0.15745
# Poissons Ratio (y) = 0.26340 0.14543
# Poissons Ratio (z) = 0.56473 0.33983
#
# Static dielectric constant tensor:
#      x y z
#    x 3.029840 -0.000010 -0.000010 
#    y -0.000010 3.575570 0.000000 
#    z -0.000010 0.000000 3.710480 
# 
# 
# High freq. dielectric constant tensor:
#      x y z
#    x 1.802460 0.000000 0.000000 
#    y 0.000000 1.772180 0.000000 
#    z 0.000000 0.000000 1.790270 
# 
# From -- ./inp_files/11054.got.cif
#   From: 2010.06.25/outbox.cif.g09.slc.cpg/sg71_6_cif.got.tgz:11054.got - 2010.06.28 04:59:45.
