data_PCOD8290623
_publ_section_title
;
Structure prediction by ZEFSAII (Michael W. Deem and Ramdas Pophale) SiO2 
 PCOD8290623
Probable space group: I M M M
;
_chemical_formula_sum "Si O2"
_cell_formula_units_Z 96
_cell_length_a 22.141395
_cell_length_b 26.631153
_cell_length_c 9.174716
_cell_angle_alpha 90.000000
_cell_angle_beta 90.000000
_cell_angle_gamma 90.000000
_cell_volume 5409.879344
_symmetry_space_group_name_H-M "I M M M"
_symmetry_group_IT_number 71
_symmetry_cell_setting 'orthorhombic'
loop_
_space_group_symop_operation_xyz
x,y,z
-x,-y,z
x,-y,-z
-x,y,-z
-x,-y,-z
x,y,-z
-x,y,z
x,-y,z
1/2+x,1/2+y,1/2+z
1/2-x,1/2-y,1/2+z
1/2+x,1/2-y,1/2-z
1/2-x,1/2+y,1/2-z
1/2-x,1/2-y,1/2-z
1/2+x,1/2+y,1/2-z
1/2-x,1/2+y,1/2+z
1/2+x,1/2-y,1/2+z
loop_
_atom_site_type_symbol
_atom_site_label
_atom_site_fract_x
_atom_site_fract_y
_atom_site_fract_z
Si Si1 0.785869 0.208409 0.164925
Si Si2 0.000000 0.239603 0.671974
Si Si3 0.500000 0.375430 0.826977
Si Si4 0.763695 0.941954 0.834310
Si Si5 0.610428 0.220813 0.335948
Si Si6 0.612121 0.557628 0.830599
Si Si7 0.790590 0.361223 0.171842
O O1 0.750000 0.250000 0.250000
O O2 0.855221 0.225606 0.165895
O O3 0.772653 0.157952 0.254728
O O4 0.761630 0.203746 0.000000
O O5 0.943739 0.272664 0.724881
O O6 0.000000 0.238415 0.500000
O O7 0.000000 0.182224 0.733180
O O8 0.440562 0.405239 0.772453
O O9 0.500000 0.374997 0.000000
O O10 0.828204 0.931088 0.761210
O O11 0.707670 0.916313 0.744366
O O12 0.747592 0.000000 0.829963
O O13 0.765942 0.921810 0.000000
O O14 0.587037 0.210012 0.500000
O O15 0.652758 0.174034 0.285104
O O16 0.590716 0.500000 0.808102
O O17 0.626688 0.567772 0.000000
O O18 0.782978 0.363534 0.000000
#
# Coordination Sequence:
#
# PCOD8290623 Si02
#       7
#    16   8   8  16  16  16  16
#     4   9  17  30  49  74 101 131 167 208 253 302
#     4  11  23  34  49  74 105 137 174 219 257 301
#     4   9  19  33  48  72  98 131 179 225 260 293
#     4  10  21  35  51  77 110 136 164 209 262 316
#     4   9  20  37  52  71 100 134 171 211 256 305
#     4   9  17  32  53  72  96 134 178 221 261 302
#     4  10  20  34  55  77  99 133 173 213 258 310
#
# _framework density 17.745312999999999
#
# number of rings (size 3 to 8) (size 9 to 14) (size 15 to 20)
#    0.000    2.500    0.000    3.000    2.333    6.000 
#    0.000    1.250    0.000    2.000    0.000    0.583 
#    0.000    4.667    0.000    0.000    0.000    0.000 
#
# Total GULP energy -594785.659536 kJ/mol
# GULP energy per Si atom -12391.367907 kJ/mol
# Density = 1.770492 g / cm^3
# Si number density = 17.745313 Si / 1000 Ang^3
#
#
#
# Elastic Constant Matrix: (Units=GPa)
#
#
# Indices 1 2 3 4 5 6 
#
# 1 82.3084 55.4302 53.1637 0.0000 0.0000 0.0000
# 2 55.4302 88.4795 49.1058 0.0000 0.0000 0.0000
# 3 53.1637 49.1058 106.1018 0.0000 0.0000 0.0000
# 4 0.0000 0.0000 0.0000 28.2083 0.0000 0.0000
# 5 0.0000 0.0000 0.0000 0.0000 26.3768 0.0000
# 6 0.0000 0.0000 0.0000 0.0000 0.0000 28.9410
#
#
#
# Elastic Compliance Matrix: (Units=1/GPa)
#
#
# Indices 1 2 3 4 5 6 
#
# 1 0.024261 -0.011373 -0.006892 0.000000 0.000000 0.000000
# 2 -0.011373 0.020541 -0.003808 0.000000 0.000000 0.000000
# 3 -0.006892 -0.003808 0.014641 0.000000 0.000000 0.000000
# 4 0.000000 0.000000 0.000000 0.035451 0.000000 0.000000
# 5 0.000000 0.000000 0.000000 0.000000 0.037912 0.000000
# 6 0.000000 0.000000 0.000000 0.000000 0.000000 0.034553
#
#
# Mechanical properties :
#
#
# Convention : Reuss Voigt Hill
#
# Bulk Modulus (GPa) = 65.38117 65.80987 65.59552
# Shear Modulus (GPa) = 23.08375 24.65122 23.86748
#
# Velocity S-wave (km/s) = 3.61062 3.73120 3.67141
# Velocity P-wave (km/s) = 7.36928 7.46517 7.41738
#
# Compressibility (1/GPa) = 0.01529492
#
# Stress axis : x y z
#
# Youngs Moduli (GPa) = 41.21908 48.68426 68.30314
#
# Poissons Ratio (x) = 0.55371 0.47076
# Poissons Ratio (y) = 0.46881 0.26008
# Poissons Ratio (z) = 0.28409 0.18537
#
# Static dielectric constant tensor:
#      x y z
#    x 3.054160 0.000000 0.000000 
#    y 0.000000 3.479120 0.000000 
#    z 0.000000 0.000000 3.440450 
# 
# 
# High freq. dielectric constant tensor:
#      x y z
#    x 1.654240 0.000000 0.000000 
#    y 0.000000 1.687200 0.000000 
#    z 0.000000 0.000000 1.689810 
# 
# From -- ./inp_files/13182.got.cif
#   From: 2010.06.25/outbox.cif.g09.slc.cpg/sg71_7_cif.got.tgz:13182.got - 2010.06.28 04:59:45.
