data_PCOD8290691
_publ_section_title
;
Structure prediction by ZEFSAII (Michael W. Deem and Ramdas Pophale) SiO2 
 PCOD8290691
Probable space group: I M M M
;
_chemical_formula_sum "Si O2"
_cell_formula_units_Z 64
_cell_length_a 10.638241
_cell_length_b 23.642002
_cell_length_c 12.482455
_cell_angle_alpha 90.000000
_cell_angle_beta 90.000000
_cell_angle_gamma 90.000000
_cell_volume 3139.453707
_symmetry_space_group_name_H-M "I M M M"
_symmetry_group_IT_number 71
_symmetry_cell_setting 'orthorhombic'
loop_
_space_group_symop_operation_xyz
x,y,z
-x,-y,z
x,-y,-z
-x,y,-z
-x,-y,-z
x,y,-z
-x,y,z
x,-y,z
1/2+x,1/2+y,1/2+z
1/2-x,1/2-y,1/2+z
1/2+x,1/2-y,1/2-z
1/2-x,1/2+y,1/2-z
1/2-x,1/2-y,1/2-z
1/2+x,1/2+y,1/2-z
1/2-x,1/2+y,1/2+z
1/2+x,1/2-y,1/2+z
loop_
_atom_site_type_symbol
_atom_site_label
_atom_site_fract_x
_atom_site_fract_y
_atom_site_fract_z
Si Si1 0.000000 0.566312 0.621076
Si Si2 0.764938 0.433950 0.768603
Si Si3 0.138084 0.736977 0.381300
Si Si4 0.637629 0.933529 0.500000
Si Si5 0.139927 0.171903 0.796638
O O1 0.879762 0.583290 0.691438
O O2 0.000000 0.500000 0.604591
O O3 0.000000 0.594147 0.500000
O O4 0.728897 0.500000 0.758159
O O5 0.649657 0.394772 0.730844
O O6 0.791314 0.416233 0.891510
O O7 0.137222 0.761738 0.500000
O O8 0.163222 0.791322 0.309088
O O9 0.248784 0.690377 0.376321
O O10 0.000000 0.709407 0.354115
O O11 0.500000 0.904483 0.500000
O O12 0.618428 0.000000 0.500000
O O13 0.000000 0.182336 0.844872
#
# Coordination Sequence:
#
# PCOD8290691 Si02
#       5
#     8  16  16   8  16
#     4   9  18  33  53  79 113 152 195 239 278 327
#     4  10  20  34  55  85 120 156 193 234 287 350
#     4   9  20  40  63  83 109 149 196 245 292 341
#     4   9  16  30  51  79 117 155 193 241 282 327
#     4  10  22  38  58  86 119 150 189 238 292 353
#
# _framework density 20.385712000000002
#
# number of rings (size 3 to 8) (size 9 to 14) (size 15 to 20)
#    0.000    2.500    1.250    0.000    3.500    2.000 
#    0.000    0.000    0.000    2.250    0.000    5.250 
#    0.000    0.000    0.000    0.000    0.000    0.000 
#
# Total GULP energy -396479.920455 kJ/mol
# GULP energy per Si atom -12389.997514 kJ/mol
# Density = 2.033931 g / cm^3
# Si number density = 20.385712 Si / 1000 Ang^3
#
#
#
# Elastic Constant Matrix: (Units=GPa)
#
#
# Indices 1 2 3 4 5 6 
#
# 1 117.3411 46.8553 26.5009 0.0000 0.0000 0.0000
# 2 46.8553 76.2321 10.6676 0.0002 0.0001 0.0000
# 3 26.5009 10.6676 108.1061 0.0001 0.0007 0.0002
# 4 0.0000 0.0002 0.0001 10.8319 0.0001 0.0000
# 5 0.0000 0.0001 0.0007 0.0001 18.9105 0.0000
# 6 0.0000 0.0000 0.0002 0.0000 0.0000 31.0853
#
#
#
# Elastic Compliance Matrix: (Units=1/GPa)
#
#
# Indices 1 2 3 4 5 6 
#
# 1 0.011791 -0.006939 -0.002206 0.000000 0.000000 0.000000
# 2 -0.006939 0.017385 -0.000015 0.000000 0.000000 0.000000
# 3 -0.002206 -0.000015 0.009792 0.000000 0.000000 0.000000
# 4 0.000000 0.000000 0.000000 0.092320 0.000000 0.000000
# 5 0.000000 0.000000 0.000000 0.000000 0.052881 0.000000
# 6 0.000000 0.000000 0.000000 0.000000 0.000000 0.032170
#
#
# Mechanical properties :
#
#
# Convention : Reuss Voigt Hill
#
# Bulk Modulus (GPa) = 48.42575 52.19191 50.30883
# Shear Modulus (GPa) = 20.70063 26.67592 23.68827
#
# Velocity S-wave (km/s) = 3.19007 3.62133 3.41252
# Velocity P-wave (km/s) = 6.11351 6.56834 6.34500
#
# Compressibility (1/GPa) = 0.02065017
#
# Stress axis : x y z
#
# Youngs Moduli (GPa) = 84.81094 57.52225 102.12090
#
# Poissons Ratio (x) = 0.39912 0.22525
# Poissons Ratio (y) = 0.58846 0.00149
# Poissons Ratio (z) = 0.18707 0.00084
#
# Static dielectric constant tensor:
#      x y z
#    x 3.737730 0.000000 0.000000 
#    y 0.000000 3.388140 0.000000 
#    z 0.000000 0.000000 3.881160 
# 
# 
# High freq. dielectric constant tensor:
#      x y z
#    x 1.787700 0.000000 0.000000 
#    y 0.000000 1.780870 0.000000 
#    z 0.000000 0.000000 1.794990 
# 
# From -- ./inp_files/19626.got.cif
#   From: 2010.06.25/outbox.cif.g09.slc.cpg/sg71_10_cif.got.tgz:19626.got - 2010.06.28 04:59:45.
