data_PCOD8290595
_publ_section_title
;
Structure prediction by ZEFSAII (Michael W. Deem and Ramdas Pophale) SiO2 
 PCOD8290595
Probable space group: I M M M
;
_chemical_formula_sum "Si O2"
_cell_formula_units_Z 104
_cell_length_a 27.828069
_cell_length_b 8.850476
_cell_length_c 22.564156
_cell_angle_alpha 90.000000
_cell_angle_beta 90.000000
_cell_angle_gamma 90.000000
_cell_volume 5557.363366
_symmetry_space_group_name_H-M "I M M M"
_symmetry_group_IT_number 71
_symmetry_cell_setting 'orthorhombic'
loop_
_space_group_symop_operation_xyz
x,y,z
-x,-y,z
x,-y,-z
-x,y,-z
-x,-y,-z
x,y,-z
-x,y,z
x,-y,z
1/2+x,1/2+y,1/2+z
1/2-x,1/2-y,1/2+z
1/2+x,1/2-y,1/2-z
1/2-x,1/2+y,1/2-z
1/2-x,1/2-y,1/2-z
1/2+x,1/2+y,1/2-z
1/2-x,1/2+y,1/2+z
1/2+x,1/2-y,1/2+z
loop_
_atom_site_type_symbol
_atom_site_label
_atom_site_fract_x
_atom_site_fract_y
_atom_site_fract_z
Si Si1 0.853352 0.178585 0.133418
Si Si2 0.053470 0.179385 0.066631
Si Si3 0.728975 0.174721 0.432768
Si Si4 0.500000 0.829866 0.070688
Si Si5 0.816488 0.328209 0.374732
Si Si6 0.905186 0.168880 0.570154
Si Si7 0.198542 0.327383 0.242733
O O1 0.906542 0.236577 0.113845
O O2 0.817972 0.227170 0.080653
O O3 0.836350 0.250925 0.194998
O O4 0.851915 0.000000 0.141321
O O5 0.000000 0.233764 0.086666
O O6 0.055165 0.000000 0.064619
O O7 0.064388 0.240700 0.000000
O O8 0.745456 0.204307 0.500000
O O9 0.771094 0.223705 0.388803
O O10 0.717200 0.000000 0.421425
O O11 0.453745 0.742167 0.095604
O O12 0.500000 0.000000 0.095759
O O13 0.500000 0.832129 0.000000
O O14 0.804189 0.500000 0.392840
O O15 0.861624 0.274156 0.411759
O O16 0.828791 0.316128 0.305348
O O17 0.907450 0.161528 0.500000
O O18 0.899129 0.000000 0.596347
O O19 0.207263 0.500000 0.223626
O O20 0.250000 0.250000 0.250000
#
# Coordination Sequence:
#
# PCOD8290595 Si02
#       7
#    16  16  16   8  16  16  16
#     4  11  21  34  57  85 111 146 188 230 278 333
#     4   8  15  30  54  85 118 148 182 229 281 332
#     4  11  23  36  52  78 113 148 179 220 276 332
#     4   9  17  31  53  79 107 141 179 217 260 317
#     4  11  23  37  55  78 104 141 186 230 277 328
#     4  10  20  34  54  81 112 143 176 220 277 333
#     4  11  23  39  58  79 106 144 189 231 275 325
#
# _framework density 18.713911
#
# number of rings (size 3 to 8) (size 9 to 14) (size 15 to 20)
#    0.000    1.769    1.538    3.923    0.000    7.385 
#    0.000    0.000    1.692    1.846    0.000    5.385 
#    0.000    0.000    0.000    0.000    0.000    0.000 
#
# Total GULP energy -644770.748087 kJ/mol
# GULP energy per Si atom -12399.437463 kJ/mol
# Density = 1.867132 g / cm^3
# Si number density = 18.713911 Si / 1000 Ang^3
#
#
#
# Elastic Constant Matrix: (Units=GPa)
#
#
# Indices 1 2 3 4 5 6 
#
# 1 142.0492 36.9227 44.8558 0.0000 0.0000 0.0000
# 2 36.9227 87.4765 40.2717 0.0000 0.0000 0.0000
# 3 44.8558 40.2717 77.6757 0.0000 0.0000 0.0000
# 4 0.0000 0.0000 0.0000 28.2921 0.0000 0.0000
# 5 0.0000 0.0000 0.0000 0.0000 22.3650 0.0000
# 6 0.0000 0.0000 0.0000 0.0000 0.0000 22.4348
#
#
#
# Elastic Compliance Matrix: (Units=1/GPa)
#
#
# Indices 1 2 3 4 5 6 
#
# 1 0.008823 -0.001811 -0.004156 0.000000 0.000000 0.000000
# 2 -0.001811 0.015387 -0.006932 0.000000 0.000000 0.000000
# 3 -0.004156 -0.006932 0.018868 0.000000 0.000000 0.000000
# 4 0.000000 0.000000 0.000000 0.035346 0.000000 0.000000
# 5 0.000000 0.000000 0.000000 0.000000 0.044713 0.000000
# 6 0.000000 0.000000 0.000000 0.000000 0.000000 0.044574
#
#
# Mechanical properties :
#
#
# Convention : Reuss Voigt Hill
#
# Bulk Modulus (GPa) = 57.86907 61.25576 59.56242
# Shear Modulus (GPa) = 25.09181 26.96179 26.02680
#
# Velocity S-wave (km/s) = 3.66568 3.79982 3.73335
# Velocity P-wave (km/s) = 6.99331 7.21494 7.10499
#
# Compressibility (1/GPa) = 0.01728039
#
# Stress axis : x y z
#
# Youngs Moduli (GPa) = 113.34139 64.98908 52.99926
#
# Poissons Ratio (x) = 0.11767 0.22028
# Poissons Ratio (y) = 0.20522 0.36739
# Poissons Ratio (z) = 0.47108 0.45051
#
# Static dielectric constant tensor:
#      x y z
#    x 3.739420 0.000000 0.000000 
#    y 0.000000 3.518500 0.000000 
#    z 0.000000 0.000000 3.399460 
# 
# 
# High freq. dielectric constant tensor:
#      x y z
#    x 1.727220 0.000000 0.000000 
#    y 0.000000 1.729260 0.000000 
#    z 0.000000 0.000000 1.710450 
# 
# From -- ./inp_files/13327.got.cif
#   From: 2010.06.25/outbox.cif.g09.slc.cpg/sg71_7_cif.got.tgz:13327.got - 2010.06.28 04:59:45.
