data_PCOD8290584
_publ_section_title
;
Structure prediction by ZEFSAII (Michael W. Deem and Ramdas Pophale) SiO2 
 PCOD8290584
Probable space group: I M M M
;
_chemical_formula_sum "Si O2"
_cell_formula_units_Z 112
_cell_length_a 14.219985
_cell_length_b 25.568703
_cell_length_c 15.515412
_cell_angle_alpha 90.000000
_cell_angle_beta 90.000000
_cell_angle_gamma 90.000000
_cell_volume 5641.195480
_symmetry_space_group_name_H-M "I M M M"
_symmetry_group_IT_number 71
_symmetry_cell_setting 'orthorhombic'
loop_
_space_group_symop_operation_xyz
x,y,z
-x,-y,z
x,-y,-z
-x,y,-z
-x,-y,-z
x,y,-z
-x,y,z
x,-y,z
1/2+x,1/2+y,1/2+z
1/2-x,1/2-y,1/2+z
1/2+x,1/2-y,1/2-z
1/2-x,1/2+y,1/2-z
1/2-x,1/2-y,1/2-z
1/2+x,1/2+y,1/2-z
1/2-x,1/2+y,1/2+z
1/2+x,1/2-y,1/2+z
loop_
_atom_site_type_symbol
_atom_site_label
_atom_site_fract_x
_atom_site_fract_y
_atom_site_fract_z
Si Si1 0.610114 0.904511 0.599984
Si Si2 0.599643 0.211412 0.597311
Si Si3 0.395356 0.559258 0.215075
Si Si4 0.892228 0.845084 0.405067
Si Si5 0.196653 0.441396 0.272678
Si Si6 0.610435 0.856936 0.099781
Si Si7 0.281216 0.246776 0.846298
O O1 0.643823 0.914706 0.500000
O O2 0.500000 0.918182 0.606538
O O3 0.629816 0.845277 0.633745
O O4 0.666759 0.937573 0.671560
O O5 0.575372 0.199624 0.500000
O O6 0.500000 0.230638 0.640815
O O7 0.682412 0.253725 0.602668
O O8 0.500000 0.569293 0.256586
O O9 0.390338 0.500000 0.178960
O O10 0.377875 0.598621 0.136952
O O11 0.309788 0.568296 0.282181
O O12 0.848566 0.849524 0.500000
O O13 0.839601 0.799147 0.357206
O O14 0.000000 0.828533 0.407870
O O15 0.172218 0.500000 0.303226
O O16 0.143822 0.403077 0.337910
O O17 0.500000 0.848821 0.112324
O O18 0.659958 0.803328 0.127178
O O19 0.634435 0.870005 0.000000
O O20 0.250000 0.250000 0.750000
#
# Coordination Sequence:
#
# PCOD8290584 Si02
#       7
#    16  16  16  16  16  16  16
#     4   9  18  33  54  84 123 160 192 235 297 365
#     4   9  18  33  53  77 108 146 182 215 259 324
#     4   9  19  36  57  84 119 154 188 231 283 339
#     4  10  20  34  54  80 111 149 191 231 276 340
#     4  11  23  39  61  86 112 150 201 251 301 360
#     4  11  25  44  64  87 118 155 197 249 305 354
#     4  12  23  35  56  83 113 148 185 234 291 348
#
# _framework density 19.853947000000002
#
# number of rings (size 3 to 8) (size 9 to 14) (size 15 to 20)
#    0.000    1.857    0.000    5.571    0.000    7.143 
#    0.000    5.000    0.000    1.286    0.000    2.000 
#    0.000    0.000    0.000    0.000    0.000    0.000 
#
# Total GULP energy -693797.921630 kJ/mol
# GULP energy per Si atom -12389.248601 kJ/mol
# Density = 1.980876 g / cm^3
# Si number density = 19.853947 Si / 1000 Ang^3
#
#
#
# Elastic Constant Matrix: (Units=GPa)
#
#
# Indices 1 2 3 4 5 6 
#
# 1 102.9181 73.3658 43.7886 0.0000 0.0000 0.0000
# 2 73.3658 114.4100 47.8143 0.0000 0.0000 0.0000
# 3 43.7886 47.8143 93.2414 0.0001 0.0000 0.0000
# 4 0.0000 0.0000 0.0001 17.8335 0.0000 0.0000
# 5 0.0000 0.0000 0.0000 0.0000 26.6002 0.0000
# 6 0.0000 0.0000 0.0000 0.0000 0.0000 32.7603
#
#
#
# Elastic Compliance Matrix: (Units=1/GPa)
#
#
# Indices 1 2 3 4 5 6 
#
# 1 0.018685 -0.010582 -0.003348 0.000000 0.000000 0.000000
# 2 -0.010582 0.017118 -0.003808 0.000000 0.000000 0.000000
# 3 -0.003348 -0.003808 0.014250 0.000000 0.000000 0.000000
# 4 0.000000 0.000000 0.000000 0.056074 0.000000 0.000000
# 5 0.000000 0.000000 0.000000 0.000000 0.037594 0.000000
# 6 0.000000 0.000000 0.000000 0.000000 0.000000 0.030525
#
#
# Mechanical properties :
#
#
# Convention : Reuss Voigt Hill
#
# Bulk Modulus (GPa) = 68.61027 71.16744 69.88885
# Shear Modulus (GPa) = 23.30114 25.14555 24.22334
#
# Velocity S-wave (km/s) = 3.42954 3.56269 3.49675
# Velocity P-wave (km/s) = 7.09330 7.26959 7.18199
#
# Compressibility (1/GPa) = 0.01457508
#
# Stress axis : x y z
#
# Youngs Moduli (GPa) = 53.51964 58.41777 70.17446
#
# Poissons Ratio (x) = 0.61820 0.23496
# Poissons Ratio (y) = 0.56636 0.26725
# Poissons Ratio (z) = 0.17919 0.22248
#
# Static dielectric constant tensor:
#      x y z
#    x 4.030980 0.000000 0.000000 
#    y 0.000000 3.595990 0.000000 
#    z 0.000000 0.000000 3.476190 
# 
# 
# High freq. dielectric constant tensor:
#      x y z
#    x 1.802040 0.000000 0.000000 
#    y 0.000000 1.768340 0.000000 
#    z 0.000000 0.000000 1.749340 
# 
# From -- ./inp_files/34884.got.cif
#   From: 2010.06.25/outbox.cif.g09.slc.cpg/sg71_18_cif.got.tgz:34884.got - 2010.06.28 04:59:45.
