data_PCOD8290004
_publ_section_title
;
Structure prediction by ZEFSAII (Michael W. Deem and Ramdas Pophale) SiO2 
 PCOD8290004
Probable space group: I M M M
;
_chemical_formula_sum "Si O2"
_cell_formula_units_Z 104
_cell_length_a 33.314849
_cell_length_b 18.918611
_cell_length_c 9.181357
_cell_angle_alpha 90.000000
_cell_angle_beta 90.000000
_cell_angle_gamma 90.000000
_cell_volume 5786.740016
_symmetry_space_group_name_H-M "I M M M"
_symmetry_group_IT_number 71
_symmetry_cell_setting 'orthorhombic'
loop_
_space_group_symop_operation_xyz
x,y,z
-x,-y,z
x,-y,-z
-x,y,-z
-x,-y,-z
x,y,-z
-x,y,z
x,-y,z
1/2+x,1/2+y,1/2+z
1/2-x,1/2-y,1/2+z
1/2+x,1/2-y,1/2-z
1/2-x,1/2+y,1/2-z
1/2-x,1/2-y,1/2-z
1/2+x,1/2+y,1/2-z
1/2-x,1/2+y,1/2+z
1/2+x,1/2-y,1/2+z
loop_
_atom_site_type_symbol
_atom_site_label
_atom_site_fract_x
_atom_site_fract_y
_atom_site_fract_z
Si Si1 0.211886 0.668776 0.331580
Si Si2 0.500000 0.915728 0.335803
Si Si3 0.303987 0.691023 0.330965
Si Si4 0.042796 0.916103 0.163023
Si Si5 0.576991 0.915631 0.835803
Si Si6 0.629612 0.420161 0.325920
Si Si7 0.846844 0.416825 0.837493
O O1 0.200224 0.666304 0.500000
O O2 0.259272 0.661828 0.307788
O O3 0.191667 0.738511 0.263455
O O4 0.193666 0.601920 0.247901
O O5 0.500000 0.885728 0.500000
O O6 0.461437 0.886641 0.250611
O O7 0.500000 0.000000 0.339110
O O8 0.311756 0.709087 0.500000
O O9 0.335528 0.632807 0.271704
O O10 0.085665 0.892935 0.235125
O O11 0.000000 0.892649 0.240887
O O12 0.044329 0.000000 0.156844
O O13 0.041327 0.885324 0.000000
O O14 0.615660 0.885454 0.752082
O O15 0.577078 0.000000 0.838346
O O16 0.576451 0.885800 0.000000
O O17 0.628049 0.421009 0.500000
O O18 0.639115 0.500000 0.269786
O O19 0.850410 0.500000 0.847468
O O20 0.846715 0.384164 0.000000
#
# Coordination Sequence:
#
# PCOD8290004 Si02
#       7
#    16   8  16  16  16  16  16
#     4  10  20  33  49  67  89 120 158 199 239 286
#     4   9  15  23  37  59  89 123 155 187 226 271
#     4   9  18  32  49  68  91 121 158 197 236 281
#     4   7   9  14  27  52  88 123 148 173 211 260
#     4   9  16  26  41  63  91 120 151 187 228 277
#     4   8  13  22  39  65  94 122 153 188 227 273
#     4  10  20  33  49  70  95 121 151 192 243 294
#
# _framework density 17.972123
#
# number of rings (size 3 to 8) (size 9 to 14) (size 15 to 20)
#    0.000    3.154    0.000    3.000    0.000    4.923 
#    0.000    1.538    0.000    0.462    2.000    0.000 
#    0.000    0.000    0.000    3.846    0.000    3.077 
#
# Total GULP energy -644227.558032 kJ/mol
# GULP energy per Si atom -12388.991501 kJ/mol
# Density = 1.793122 g / cm^3
# Si number density = 17.972123 Si / 1000 Ang^3
#
#
#
# Elastic Constant Matrix: (Units=GPa)
#
#
# Indices 1 2 3 4 5 6 
#
# 1 141.0823 42.0391 50.7122 0.0000 0.0000 0.0000
# 2 42.0391 29.2171 15.0661 0.0000 0.0000 0.0000
# 3 50.7122 15.0661 101.8022 0.0000 0.0000 0.0000
# 4 0.0000 0.0000 0.0000 18.4311 0.0000 0.0000
# 5 0.0000 0.0000 0.0000 0.0000 24.1263 0.0000
# 6 0.0000 0.0000 0.0000 0.0000 0.0000 11.8857
#
#
#
# Elastic Compliance Matrix: (Units=1/GPa)
#
#
# Indices 1 2 3 4 5 6 
#
# 1 0.013961 -0.017865 -0.004311 0.000000 0.000000 0.000000
# 2 -0.017865 0.059915 0.000032 0.000000 0.000000 0.000000
# 3 -0.004311 0.000032 0.011966 0.000000 0.000000 0.000000
# 4 0.000000 0.000000 0.000000 0.054256 0.000000 0.000000
# 5 0.000000 0.000000 0.000000 0.000000 0.041449 0.000000
# 6 0.000000 0.000000 0.000000 0.000000 0.000000 0.084135
#
#
# Mechanical properties :
#
#
# Convention : Reuss Voigt Hill
#
# Bulk Modulus (GPa) = 24.06468 54.19294 39.12881
# Shear Modulus (GPa) = 15.44075 21.84088 18.64082
#
# Velocity S-wave (km/s) = 2.93431 3.48985 3.22406
# Velocity P-wave (km/s) = 4.98992 6.81601 5.97316
#
# Compressibility (1/GPa) = 0.04155467
#
# Stress axis : x y z
#
# Youngs Moduli (GPa) = 71.62942 16.69043 83.57358
#
# Poissons Ratio (x) = 0.29817 0.36025
# Poissons Ratio (y) = 1.27964 -0.00269
# Poissons Ratio (z) = 0.30877 -0.00054
#
# Static dielectric constant tensor:
#      x y z
#    x 3.801740 0.000000 0.000000 
#    y 0.000000 2.866820 0.000000 
#    z 0.000000 0.000000 3.195670 
# 
# 
# High freq. dielectric constant tensor:
#      x y z
#    x 1.717300 0.000000 0.000000 
#    y 0.000000 1.640800 0.000000 
#    z 0.000000 0.000000 1.668890 
# 
# From -- ./inp_files/17006.got.cif
#   From: 2010.06.25/outbox.cif.g09.slc.cpg/sg71_9_cif.got.tgz:17006.got - 2010.06.28 04:59:45.
