data_PCOD8290929
_publ_section_title
;
Structure prediction by ZEFSAII (Michael W. Deem and Ramdas Pophale) SiO2 
 PCOD8290929
Probable space group: I M M M
;
_chemical_formula_sum "Si O2"
_cell_formula_units_Z 96
_cell_length_a 14.398066
_cell_length_b 13.900138
_cell_length_c 24.140068
_cell_angle_alpha 90.000000
_cell_angle_beta 90.000000
_cell_angle_gamma 90.000000
_cell_volume 4831.275028
_symmetry_space_group_name_H-M "I M M M"
_symmetry_group_IT_number 71
_symmetry_cell_setting 'orthorhombic'
loop_
_space_group_symop_operation_xyz
x,y,z
-x,-y,z
x,-y,-z
-x,y,-z
-x,-y,-z
x,y,-z
-x,y,z
x,-y,z
1/2+x,1/2+y,1/2+z
1/2-x,1/2-y,1/2+z
1/2+x,1/2-y,1/2-z
1/2-x,1/2+y,1/2-z
1/2-x,1/2-y,1/2-z
1/2+x,1/2+y,1/2-z
1/2-x,1/2+y,1/2+z
1/2+x,1/2-y,1/2+z
loop_
_atom_site_type_symbol
_atom_site_label
_atom_site_fract_x
_atom_site_fract_y
_atom_site_fract_z
Si Si1 0.393906 0.394591 0.146786
Si Si2 0.396322 0.263952 0.351656
Si Si3 0.110190 0.606915 0.938215
Si Si4 0.215148 0.613087 0.641535
Si Si5 0.146323 0.259681 0.732858
Si Si6 0.390983 0.763778 0.936208
O O1 0.500000 0.411680 0.132057
O O2 0.344531 0.500000 0.149537
O O3 0.386379 0.340335 0.205440
O O4 0.351670 0.328695 0.097705
O O5 0.500000 0.298239 0.371070
O O6 0.354390 0.181956 0.392087
O O7 0.321548 0.350037 0.352163
O O8 0.410099 0.221049 0.289365
O O9 0.149431 0.500000 0.925005
O O10 0.000000 0.603461 0.935910
O O11 0.142455 0.639293 0.000000
O O12 0.218894 0.500000 0.646097
O O13 0.143392 0.653424 0.688455
O O14 0.169532 0.644230 0.583050
O O15 0.250000 0.250000 0.750000
O O16 0.500000 0.782584 0.924458
O O17 0.371493 0.743710 0.000000
#
# Coordination Sequence:
#
# PCOD8290929 Si02
#       6
#    16  16  16  16  16  16
#     4   9  17  31  54  82 109 135 165 212 276 336
#     4  10  20  35  57  83 111 145 184 225 272 330
#     4   8  15  30  52  77 105 137 175 222 274 324
#     4  10  22  38  54  77 111 147 185 231 276 319
#     4   9  19  34  49  71 105 141 179 221 262 311
#     4   9  19  37  59  82 109 142 183 229 275 326
#
# _framework density 19.870531
#
# number of rings (size 3 to 8) (size 9 to 14) (size 15 to 20)
#    0.000    2.833    0.000    1.000    0.000    6.000 
#    0.000    9.167    0.000    0.000    0.000    3.500 
#    0.000    0.000    0.000    0.000    0.000    0.000 
#
# Total GULP energy -594742.348339 kJ/mol
# GULP energy per Si atom -12390.465590 kJ/mol
# Density = 1.982530 g / cm^3
# Si number density = 19.870531 Si / 1000 Ang^3
#
#
#
# Elastic Constant Matrix: (Units=GPa)
#
#
# Indices 1 2 3 4 5 6 
#
# 1 57.6718 28.7783 17.0206 0.0000 0.0000 0.0000
# 2 28.7783 162.7161 67.8243 0.0000 0.0000 0.0000
# 3 17.0206 67.8243 141.1596 0.0000 0.0000 0.0000
# 4 0.0000 0.0000 0.0000 17.0879 0.0000 0.0000
# 5 0.0000 0.0000 0.0000 0.0000 18.1086 0.0000
# 6 0.0000 0.0000 0.0000 0.0000 0.0000 23.7103
#
#
#
# Elastic Compliance Matrix: (Units=1/GPa)
#
#
# Indices 1 2 3 4 5 6 
#
# 1 0.019099 -0.003024 -0.000850 0.000000 0.000000 0.000000
# 2 -0.003024 0.008163 -0.003558 0.000000 0.000000 0.000000
# 3 -0.000850 -0.003558 0.008896 0.000000 0.000000 0.000000
# 4 0.000000 0.000000 0.000000 0.058521 0.000000 0.000000
# 5 0.000000 0.000000 0.000000 0.000000 0.055222 0.000000
# 6 0.000000 0.000000 0.000000 0.000000 0.000000 0.042176
#
#
# Mechanical properties :
#
#
# Convention : Reuss Voigt Hill
#
# Bulk Modulus (GPa) = 46.95782 65.42155 56.18969
# Shear Modulus (GPa) = 23.36019 28.30964 25.83491
#
# Velocity S-wave (km/s) = 3.43245 3.77862 3.60969
# Velocity P-wave (km/s) = 6.27632 7.21337 6.76110
#
# Compressibility (1/GPa) = 0.02129571
#
# Stress axis : x y z
#
# Youngs Moduli (GPa) = 52.35828 122.49801 112.40848
#
# Poissons Ratio (x) = 0.37038 0.09557
# Poissons Ratio (y) = 0.15831 0.39992
# Poissons Ratio (z) = 0.04451 0.43582
#
# Static dielectric constant tensor:
#      x y z
#    x 3.795120 0.000000 0.000000 
#    y 0.000000 3.622390 0.000000 
#    z 0.000000 0.000000 4.578600 
# 
# 
# High freq. dielectric constant tensor:
#      x y z
#    x 1.771400 0.000000 0.000000 
#    y 0.000000 1.750000 0.000000 
#    z 0.000000 0.000000 1.780250 
# 
# From -- ./inp_files/60542.got.cif
#   From: 2010.06.25/outbox.cif.g09.slc.cpg/sg71_31_cif.got.tgz:60542.got - 2010.06.28 04:59:45.
