data_PCOD8290597
_publ_section_title
;
Structure prediction by ZEFSAII (Michael W. Deem and Ramdas Pophale) SiO2 
 PCOD8290597
Probable space group: I M M M
;
_chemical_formula_sum "Si O2"
_cell_formula_units_Z 104
_cell_length_a 8.947163
_cell_length_b 28.756693
_cell_length_c 20.839000
_cell_angle_alpha 90.000000
_cell_angle_beta 90.000000
_cell_angle_gamma 90.000000
_cell_volume 5361.683390
_symmetry_space_group_name_H-M "I M M M"
_symmetry_group_IT_number 71
_symmetry_cell_setting 'orthorhombic'
loop_
_space_group_symop_operation_xyz
x,y,z
-x,-y,z
x,-y,-z
-x,y,-z
-x,-y,-z
x,y,-z
-x,y,z
x,-y,z
1/2+x,1/2+y,1/2+z
1/2-x,1/2-y,1/2+z
1/2+x,1/2-y,1/2-z
1/2-x,1/2+y,1/2-z
1/2-x,1/2-y,1/2-z
1/2+x,1/2+y,1/2-z
1/2-x,1/2+y,1/2+z
1/2+x,1/2-y,1/2+z
loop_
_atom_site_type_symbol
_atom_site_label
_atom_site_fract_x
_atom_site_fract_y
_atom_site_fract_z
Si Si1 0.327823 0.947106 0.366660
Si Si2 0.176371 0.391774 0.374790
Si Si3 0.168443 0.054318 0.235336
Si Si4 0.828517 0.132260 0.428410
Si Si5 0.674217 0.706637 0.824157
Si Si6 0.825585 0.803543 0.178514
Si Si7 0.822280 0.553192 0.500000
O O1 0.500000 0.938171 0.349434
O O2 0.226905 0.934371 0.305793
O O3 0.273020 0.913802 0.423535
O O4 0.302233 0.000000 0.388952
O O5 0.220579 0.422283 0.314154
O O6 0.248030 0.340853 0.368049
O O7 0.236124 0.418466 0.438024
O O8 0.000000 0.385744 0.377578
O O9 0.000000 0.074534 0.228600
O O10 0.170430 0.000000 0.221359
O O11 0.808817 0.152725 0.500000
O O12 0.772307 0.169844 0.377007
O O13 0.000000 0.118726 0.414986
O O14 0.500000 0.718789 0.830400
O O15 0.766081 0.752853 0.839032
O O16 0.710317 0.685986 0.753534
O O17 0.000000 0.805200 0.164564
O O18 0.758946 0.500000 0.500000
O O19 0.000000 0.550848 0.500000
#
# Coordination Sequence:
#
# PCOD8290597 Si02
#       7
#    16  16  16  16  16  16   8
#     4  10  21  36  55  81 112 147 188 232 275 325
#     4  11  21  35  57  83 111 148 191 235 283 337
#     4  10  20  34  54  81 112 144 181 230 285 335
#     4  10  21  37  57  81 110 148 189 229 277 333
#     4   9  19  37  58  81 110 144 184 229 279 338
#     4  10  20  35  58  85 112 142 181 232 287 337
#     4   9  20  38  57  79 111 153 199 241 280 333
#
# _framework density 19.396894
#
# number of rings (size 3 to 8) (size 9 to 14) (size 15 to 20)
#    0.000    2.077    0.000    3.231    0.000    5.538 
#    1.385    3.077    0.000    2.769    0.000    0.000 
#    0.000    0.000    0.000    0.000    0.000    0.000 
#
# Total GULP energy -644933.266738 kJ/mol
# GULP energy per Si atom -12402.562822 kJ/mol
# Density = 1.935275 g / cm^3
# Si number density = 19.396894 Si / 1000 Ang^3
#
#
#
# Elastic Constant Matrix: (Units=GPa)
#
#
# Indices 1 2 3 4 5 6 
#
# 1 75.0199 55.4675 32.2536 0.0000 0.0000 0.0000
# 2 55.4675 118.2819 77.2085 0.0000 0.0000 0.0000
# 3 32.2536 77.2085 84.4375 0.0000 0.0000 0.0000
# 4 0.0000 0.0000 0.0000 31.3034 0.0000 0.0000
# 5 0.0000 0.0000 0.0000 0.0000 25.2055 0.0000
# 6 0.0000 0.0000 0.0000 0.0000 0.0000 36.6052
#
#
#
# Elastic Compliance Matrix: (Units=1/GPa)
#
#
# Indices 1 2 3 4 5 6 
#
# 1 0.020597 -0.011220 0.002392 0.000000 0.000000 0.000000
# 2 -0.011220 0.027084 -0.020479 0.000000 0.000000 0.000000
# 3 0.002392 -0.020479 0.029655 0.000000 0.000000 0.000000
# 4 0.000000 0.000000 0.000000 0.031945 0.000000 0.000000
# 5 0.000000 0.000000 0.000000 0.000000 0.039674 0.000000
# 6 0.000000 0.000000 0.000000 0.000000 0.000000 0.027319
#
#
# Mechanical properties :
#
#
# Convention : Reuss Voigt Hill
#
# Bulk Modulus (GPa) = 53.41491 67.51093 60.46292
# Shear Modulus (GPa) = 20.73571 26.14347 23.43959
#
# Velocity S-wave (km/s) = 3.27314 3.67525 3.48000
# Velocity P-wave (km/s) = 6.47165 7.27259 6.88378
#
# Compressibility (1/GPa) = 0.01872136
#
# Stress axis : x y z
#
# Youngs Moduli (GPa) = 48.54969 36.92242 33.72084
#
# Poissons Ratio (x) = 0.41428 -0.08066
# Poissons Ratio (y) = 0.54474 0.69057
# Poissons Ratio (z) = -0.11612 0.75614
#
# Static dielectric constant tensor:
#      x y z
#    x 3.486090 0.000000 0.000000 
#    y 0.000000 3.598730 0.000000 
#    z 0.000000 0.000000 3.529520 
# 
# 
# High freq. dielectric constant tensor:
#      x y z
#    x 1.752930 0.000000 0.000000 
#    y 0.000000 1.761550 0.000000 
#    z 0.000000 0.000000 1.745950 
# 
# From -- ./inp_files/11124.got.cif
#   From: 2010.06.25/outbox.cif.g09.slc.cpg/sg71_6_cif.got.tgz:11124.got - 2010.06.28 04:59:45.
