data_PCOD8290418
_publ_section_title
;
Structure prediction by ZEFSAII (Michael W. Deem and Ramdas Pophale) SiO2 
 PCOD8290418
Probable space group: I M M M
;
_chemical_formula_sum "Si O2"
_cell_formula_units_Z 88
_cell_length_a 11.971620
_cell_length_b 18.722972
_cell_length_c 21.541347
_cell_angle_alpha 90.000000
_cell_angle_beta 90.000000
_cell_angle_gamma 90.000000
_cell_volume 4828.370275
_symmetry_space_group_name_H-M "I M M M"
_symmetry_group_IT_number 71
_symmetry_cell_setting 'orthorhombic'
loop_
_space_group_symop_operation_xyz
x,y,z
-x,-y,z
x,-y,-z
-x,y,-z
-x,-y,-z
x,y,-z
-x,y,z
x,-y,z
1/2+x,1/2+y,1/2+z
1/2-x,1/2-y,1/2+z
1/2+x,1/2-y,1/2-z
1/2-x,1/2+y,1/2-z
1/2-x,1/2-y,1/2-z
1/2+x,1/2+y,1/2-z
1/2-x,1/2+y,1/2+z
1/2+x,1/2-y,1/2+z
loop_
_atom_site_type_symbol
_atom_site_label
_atom_site_fract_x
_atom_site_fract_y
_atom_site_fract_z
Si Si1 0.500000 0.415388 0.431601
Si Si2 0.869204 0.417520 0.928829
Si Si3 0.244435 0.296711 0.150854
Si Si4 0.221846 0.916236 0.861731
Si Si5 0.872753 0.685338 0.573027
Si Si6 0.372254 0.682989 0.729851
O O1 0.500000 0.500000 0.435076
O O2 0.500000 0.381299 0.500000
O O3 0.611669 0.389168 0.398076
O O4 0.840664 0.500000 0.913853
O O5 0.802787 0.368452 0.880180
O O6 0.000000 0.403050 0.920152
O O7 0.834582 0.399974 0.000000
O O8 0.291966 0.248084 0.095746
O O9 0.347251 0.311590 0.197164
O O10 0.149901 0.256294 0.191628
O O11 0.331940 0.889491 0.897337
O O12 0.210706 0.879233 0.794725
O O13 0.229999 0.000000 0.853338
O O14 0.862322 0.678954 0.500000
O O15 0.000000 0.699185 0.593760
O O16 0.500000 0.660476 0.721374
#
# Coordination Sequence:
#
# PCOD8290418 Si02
#       6
#     8  16  16  16  16  16
#     4   9  16  28  48  72 100 132 166 214 268 309
#     4   9  18  34  57  84 111 136 167 217 279 332
#     4  10  20  34  55  78 105 140 180 221 262 318
#     4  10  20  34  52  76 106 141 180 223 267 317
#     4  10  21  36  54  77 106 142 181 221 268 321
#     4  10  20  34  52  75 105 143 183 222 263 310
#
# _framework density 18.225611000000001
#
# number of rings (size 3 to 8) (size 9 to 14) (size 15 to 20)
#    0.000    2.273    0.909    2.727    0.000    2.182 
#    0.000    1.818    0.000    1.636    0.000    6.364 
#    0.000    0.000    0.000    0.000    0.000    0.000 
#
# Total GULP energy -545534.859450 kJ/mol
# GULP energy per Si atom -12398.519533 kJ/mol
# Density = 1.818413 g / cm^3
# Si number density = 18.225611 Si / 1000 Ang^3
#
#
#
# Elastic Constant Matrix: (Units=GPa)
#
#
# Indices 1 2 3 4 5 6 
#
# 1 74.6233 34.1750 31.4801 0.0000 0.0000 0.0000
# 2 34.1750 109.8941 48.8102 0.0000 0.0000 0.0000
# 3 31.4801 48.8102 83.9058 0.0000 0.0000 0.0000
# 4 0.0000 0.0000 0.0000 28.2754 0.0000 0.0000
# 5 0.0000 0.0000 0.0000 0.0000 24.8766 0.0000
# 6 0.0000 0.0000 0.0000 0.0000 0.0000 25.8409
#
#
#
# Elastic Compliance Matrix: (Units=1/GPa)
#
#
# Indices 1 2 3 4 5 6 
#
# 1 0.016743 -0.003259 -0.004386 0.000000 0.000000 0.000000
# 2 -0.003259 0.012904 -0.006284 0.000000 0.000000 0.000000
# 3 -0.004386 -0.006284 0.017219 0.000000 0.000000 0.000000
# 4 0.000000 0.000000 0.000000 0.035366 0.000000 0.000000
# 5 0.000000 0.000000 0.000000 0.000000 0.040198 0.000000
# 6 0.000000 0.000000 0.000000 0.000000 0.000000 0.038698
#
#
# Mechanical properties :
#
#
# Convention : Reuss Voigt Hill
#
# Bulk Modulus (GPa) = 52.60672 55.26152 53.93412
# Shear Modulus (GPa) = 25.59844 26.06243 25.83043
#
# Velocity S-wave (km/s) = 3.75177 3.78562 3.76874
# Velocity P-wave (km/s) = 6.90613 7.03524 6.97098
#
# Compressibility (1/GPa) = 0.01900898
#
# Stress axis : x y z
#
# Youngs Moduli (GPa) = 59.72528 77.49420 58.07416
#
# Poissons Ratio (x) = 0.25253 0.25472
# Poissons Ratio (y) = 0.19463 0.36494
# Poissons Ratio (z) = 0.26196 0.48698
#
# Static dielectric constant tensor:
#      x y z
#    x 3.287710 0.000000 0.000000 
#    y 0.000000 3.205520 0.000000 
#    z 0.000000 0.000000 3.399860 
# 
# 
# High freq. dielectric constant tensor:
#      x y z
#    x 1.699330 0.000000 0.000000 
#    y 0.000000 1.697630 0.000000 
#    z 0.000000 0.000000 1.713390 
# 
# From -- ./inp_files/23940.got.cif
#   From: 2010.06.25/outbox.cif.g09.slc.cpg/sg71_12_cif.got.tgz:23940.got - 2010.06.28 04:59:45.
