data_PCOD8290665
_publ_section_title
;
Structure prediction by ZEFSAII (Michael W. Deem and Ramdas Pophale) SiO2 
 PCOD8290665
Probable space group: I M M M
;
_chemical_formula_sum "Si O2"
_cell_formula_units_Z 104
_cell_length_a 11.743103
_cell_length_b 25.252023
_cell_length_c 18.185856
_cell_angle_alpha 90.000000
_cell_angle_beta 90.000000
_cell_angle_gamma 90.000000
_cell_volume 5392.781127
_symmetry_space_group_name_H-M "I M M M"
_symmetry_group_IT_number 71
_symmetry_cell_setting 'orthorhombic'
loop_
_space_group_symop_operation_xyz
x,y,z
-x,-y,z
x,-y,-z
-x,y,-z
-x,-y,-z
x,y,-z
-x,y,z
x,-y,z
1/2+x,1/2+y,1/2+z
1/2-x,1/2-y,1/2+z
1/2+x,1/2-y,1/2-z
1/2-x,1/2+y,1/2-z
1/2-x,1/2-y,1/2-z
1/2+x,1/2+y,1/2-z
1/2-x,1/2+y,1/2+z
1/2+x,1/2-y,1/2+z
loop_
_atom_site_type_symbol
_atom_site_label
_atom_site_fract_x
_atom_site_fract_y
_atom_site_fract_z
Si Si1 0.721043 0.060400 0.832414
Si Si2 0.228531 0.251676 0.087519
Si Si3 0.226690 0.557286 0.163492
Si Si4 0.869749 0.840305 0.662182
Si Si5 0.000000 0.694603 0.913021
Si Si6 0.000000 0.422698 0.912978
Si Si7 0.000000 0.562901 0.582494
Si Si8 0.868897 0.843271 0.165803
O O1 0.688662 0.065706 0.747243
O O2 0.613166 0.083204 0.876884
O O3 0.831744 0.096138 0.849669
O O4 0.750560 0.000000 0.854825
O O5 0.329376 0.287754 0.119371
O O6 0.221431 0.192819 0.121005
O O7 0.111431 0.276875 0.116548
O O8 0.240678 0.248810 0.000000
O O9 0.291910 0.500000 0.156505
O O10 0.303030 0.606653 0.136073
O O11 0.113857 0.550026 0.115352
O O12 0.856264 0.829675 0.748480
O O13 0.000000 0.850183 0.640659
O O14 0.000000 0.636260 0.880528
O O15 0.000000 0.693674 0.000000
O O16 0.000000 0.425533 0.000000
O O17 0.000000 0.500000 0.583377
O O18 0.000000 0.585767 0.500000
O O19 0.000000 0.836383 0.139195
#
# Coordination Sequence:
#
# PCOD8290665 Si02
#       8
#    16  16  16  16   8   8   8  16
#     4   9  19  36  56  81 113 149 186 223 273 331
#     4  11  21  38  60  81 109 144 184 227 277 333
#     4  10  20  34  55  82 113 147 184 229 276 327
#     4  10  22  39  57  81 113 148 185 225 274 331
#     4   9  18  32  55  80 102 141 181 218 274 326
#     4  11  20  33  54  83 113 141 184 236 280 320
#     4   9  17  32  54  76 106 149 187 220 264 323
#     4  10  21  37  59  86 112 142 184 231 278 329
#
# _framework density 19.285041
#
# number of rings (size 3 to 8) (size 9 to 14) (size 15 to 20)
#    0.000    2.077    2.308    1.154    0.000    3.385 
#    1.385    3.077    0.000    0.000    0.000    5.385 
#    0.000    0.000    0.000    0.000    0.000    0.000 
#
# Total GULP energy -644631.817210 kJ/mol
# GULP energy per Si atom -12396.765716 kJ/mol
# Density = 1.924115 g / cm^3
# Si number density = 19.285041 Si / 1000 Ang^3
#
#
#
# Elastic Constant Matrix: (Units=GPa)
#
#
# Indices 1 2 3 4 5 6 
#
# 1 109.8704 50.8886 45.4787 0.0000 0.0000 0.0000
# 2 50.8886 120.8296 44.7721 0.0000 0.0000 0.0000
# 3 45.4787 44.7721 73.7178 0.0001 0.0000 0.0000
# 4 0.0000 0.0000 0.0001 20.6511 0.0000 0.0000
# 5 0.0000 0.0000 0.0000 0.0000 20.5277 0.0000
# 6 0.0000 0.0000 0.0000 0.0000 0.0000 1.5092
#
#
#
# Elastic Compliance Matrix: (Units=1/GPa)
#
#
# Indices 1 2 3 4 5 6 
#
# 1 0.013152 -0.003268 -0.006129 0.000000 0.000000 0.000000
# 2 -0.003268 0.011492 -0.004963 0.000000 0.000000 0.000000
# 3 -0.006129 -0.004963 0.020361 0.000000 0.000000 0.000001
# 4 0.000000 0.000000 0.000000 0.048424 0.000000 0.000000
# 5 0.000000 0.000000 0.000000 0.000000 0.048715 0.000001
# 6 0.000000 0.000000 0.000001 0.000000 0.000001 0.662616
#
#
# Mechanical properties :
#
#
# Convention : Reuss Voigt Hill
#
# Bulk Modulus (GPa) = 61.41049 65.18849 63.29949
# Shear Modulus (GPa) = 5.96013 19.42283 12.69148
#
# Velocity S-wave (km/s) = 1.75990 3.17700 2.56813
# Velocity P-wave (km/s) = 6.00353 6.87995 6.45663
#
# Compressibility (1/GPa) = 0.01628386
#
# Stress axis : x y z
#
# Youngs Moduli (GPa) = 76.03171 87.02035 49.11389
#
# Poissons Ratio (x) = 0.28440 0.30103
# Poissons Ratio (y) = 0.24848 0.24376
# Poissons Ratio (z) = 0.46601 0.43189
#
# Static dielectric constant tensor:
#      x y z
#    x 3.465450 0.000000 0.000000 
#    y 0.000000 3.672970 0.000000 
#    z 0.000000 0.000000 3.358110 
# 
# 
# High freq. dielectric constant tensor:
#      x y z
#    x 1.738520 0.000000 0.000000 
#    y 0.000000 1.758630 0.000000 
#    z 0.000000 0.000000 1.737690 
# 
# From -- ./inp_files/43835.got.cif
#   From: 2010.06.25/outbox.cif.g09.slc.cpg/sg71_22_cif.got.tgz:43835.got - 2010.06.28 04:59:45.
