data_PCOD8290793
_publ_section_title
;
Structure prediction by ZEFSAII (Michael W. Deem and Ramdas Pophale) SiO2 
 PCOD8290793
Probable space group: I M M M
;
_chemical_formula_sum "Si O2"
_cell_formula_units_Z 80
_cell_length_a 9.097124
_cell_length_b 25.521133
_cell_length_c 18.276621
_cell_angle_alpha 90.000000
_cell_angle_beta 90.000000
_cell_angle_gamma 90.000000
_cell_volume 4243.263204
_symmetry_space_group_name_H-M "I M M M"
_symmetry_group_IT_number 71
_symmetry_cell_setting 'orthorhombic'
loop_
_space_group_symop_operation_xyz
x,y,z
-x,-y,z
x,-y,-z
-x,y,-z
-x,-y,-z
x,y,-z
-x,y,z
x,-y,z
1/2+x,1/2+y,1/2+z
1/2-x,1/2-y,1/2+z
1/2+x,1/2-y,1/2-z
1/2-x,1/2+y,1/2-z
1/2-x,1/2-y,1/2-z
1/2+x,1/2+y,1/2-z
1/2-x,1/2+y,1/2+z
1/2+x,1/2-y,1/2+z
loop_
_atom_site_type_symbol
_atom_site_label
_atom_site_fract_x
_atom_site_fract_y
_atom_site_fract_z
Si Si1 0.674891 0.558072 0.417645
Si Si2 0.326173 0.650751 0.160339
Si Si3 0.325243 0.345156 0.325976
Si Si4 0.331713 0.939757 0.415696
Si Si5 0.829182 0.745275 0.915209
O O1 0.730445 0.569802 0.500000
O O2 0.500000 0.560001 0.416551
O O3 0.728402 0.500000 0.392788
O O4 0.740147 0.602083 0.363166
O O5 0.500000 0.654466 0.155821
O O6 0.269060 0.659238 0.242976
O O7 0.276031 0.593578 0.134766
O O8 0.258034 0.693773 0.107263
O O9 0.500000 0.347286 0.329492
O O10 0.267345 0.294577 0.369739
O O11 0.290359 0.930267 0.500000
O O12 0.500000 0.922899 0.401955
O O13 0.308003 0.000000 0.394287
O O14 0.000000 0.735475 0.898718
O O15 0.801675 0.757235 0.000000
#
# Coordination Sequence:
#
# PCOD8290793 Si02
#       5
#    16  16  16  16  16
#     4   8  13  23  42  67  94 125 161 201 243 287
#     4  11  22  33  49  76 108 135 159 200 259 311
#     4   9  18  31  46  69 101 133 165 202 247 299
#     4   9  19  37  58  76  97 131 174 212 243 285
#     4  10  20  35  55  73  93 130 177 216 247 289
#
# _framework density 18.853414999999998
#
# number of rings (size 3 to 8) (size 9 to 14) (size 15 to 20)
#    0.000    2.600    0.000    3.600    0.000    6.800 
#    0.000    4.000    0.000    0.000    0.000    0.000 
#    0.000    0.000    0.000   17.200    0.000   15.200 
#
# Total GULP energy -495999.733925 kJ/mol
# GULP energy per Si atom -12399.993348 kJ/mol
# Density = 1.881050 g / cm^3
# Si number density = 18.853415 Si / 1000 Ang^3
#
#
#
# Elastic Constant Matrix: (Units=GPa)
#
#
# Indices 1 2 3 4 5 6 
#
# 1 39.0308 33.2240 37.4502 0.0000 0.0000 0.0000
# 2 33.2240 118.2052 55.5591 0.0000 0.0000 0.0000
# 3 37.4502 55.5591 106.9298 -0.0001 0.0000 0.0000
# 4 0.0000 0.0000 -0.0001 31.8944 0.0000 0.0000
# 5 0.0000 0.0000 0.0000 0.0000 19.6368 0.0000
# 6 0.0000 0.0000 0.0000 0.0000 0.0000 18.7770
#
#
#
# Elastic Compliance Matrix: (Units=1/GPa)
#
#
# Indices 1 2 3 4 5 6 
#
# 1 0.042028 -0.006476 -0.011355 0.000000 0.000000 0.000000
# 2 -0.006476 0.012191 -0.004066 0.000000 0.000000 0.000000
# 3 -0.011355 -0.004066 0.015442 0.000000 0.000000 0.000000
# 4 0.000000 0.000000 0.000000 0.031353 0.000000 0.000000
# 5 0.000000 0.000000 0.000000 0.000000 0.050925 0.000000
# 6 0.000000 0.000000 0.000000 0.000000 0.000000 0.053257
#
#
# Mechanical properties :
#
#
# Convention : Reuss Voigt Hill
#
# Bulk Modulus (GPa) = 38.65933 57.40358 48.03145
# Shear Modulus (GPa) = 19.40898 23.25714 21.33306
#
# Velocity S-wave (km/s) = 3.21201 3.51604 3.36746
# Velocity P-wave (km/s) = 5.85711 6.85542 6.37584
#
# Compressibility (1/GPa) = 0.02586698
#
# Stress axis : x y z
#
# Youngs Moduli (GPa) = 23.79351 82.02550 64.76021
#
# Poissons Ratio (x) = 0.53119 0.73534
# Poissons Ratio (y) = 0.15408 0.26334
# Poissons Ratio (z) = 0.27017 0.33355
#
# Static dielectric constant tensor:
#      x y z
#    x 2.983680 0.000000 0.000000 
#    y 0.000000 3.683450 0.000000 
#    z 0.000000 0.000000 3.582990 
# 
# 
# High freq. dielectric constant tensor:
#      x y z
#    x 1.682510 0.000000 0.000000 
#    y 0.000000 1.749370 0.000000 
#    z 0.000000 0.000000 1.737820 
# 
# From -- ./inp_files/14542.got.cif
#   From: 2010.06.25/outbox.cif.g09.slc.cpg/sg71_8_cif.got.tgz:14542.got - 2010.06.28 04:59:45.
