data_PCOD8290224
_publ_section_title
;
Structure prediction by ZEFSAII (Michael W. Deem and Ramdas Pophale) SiO2 
 PCOD8290224
Probable space group: I M M M
;
_chemical_formula_sum "Si O2"
_cell_formula_units_Z 88
_cell_length_a 8.751641
_cell_length_b 22.736287
_cell_length_c 22.505182
_cell_angle_alpha 90.000000
_cell_angle_beta 90.000000
_cell_angle_gamma 90.000000
_cell_volume 4478.077097
_symmetry_space_group_name_H-M "I M M M"
_symmetry_group_IT_number 71
_symmetry_cell_setting 'orthorhombic'
loop_
_space_group_symop_operation_xyz
x,y,z
-x,-y,z
x,-y,-z
-x,y,-z
-x,-y,-z
x,y,-z
-x,y,z
x,-y,z
1/2+x,1/2+y,1/2+z
1/2-x,1/2-y,1/2+z
1/2+x,1/2-y,1/2-z
1/2-x,1/2+y,1/2-z
1/2-x,1/2-y,1/2-z
1/2+x,1/2+y,1/2-z
1/2-x,1/2+y,1/2+z
1/2+x,1/2-y,1/2+z
loop_
_atom_site_type_symbol
_atom_site_label
_atom_site_fract_x
_atom_site_fract_y
_atom_site_fract_z
Si Si1 0.179848 0.284777 0.935026
Si Si2 0.318781 0.120134 0.655901
Si Si3 0.671209 0.500000 0.290039
Si Si4 0.180820 0.844006 0.906002
Si Si5 0.330984 0.500000 0.850312
Si Si6 0.818794 0.431166 0.500000
Si Si7 0.319984 0.119289 0.208910
O O1 0.250016 0.327454 0.884602
O O2 0.239719 0.217971 0.932153
O O3 0.000000 0.283582 0.924919
O O4 0.222437 0.310250 0.000000
O O5 0.500000 0.115986 0.653214
O O6 0.256741 0.058751 0.629566
O O7 0.265439 0.132367 0.723691
O O8 0.500000 0.500000 0.318028
O O9 0.658173 0.500000 0.219932
O O10 0.769218 0.445201 0.311902
O O11 0.256683 0.898170 0.941252
O O12 0.232175 0.839051 0.837130
O O13 0.000000 0.851326 0.911245
O O14 0.500000 0.500000 0.878693
O O15 0.766267 0.500000 0.500000
O O16 0.000000 0.427152 0.500000
O O17 0.500000 0.126871 0.202189
#
# Coordination Sequence:
#
# PCOD8290224 Si02
#       7
#    16  16   8  16   8   8  16
#     4   9  18  36  60  83 107 143 191 237 277 328
#     4   9  18  34  58  83 111 148 188 228 278 336
#     4   9  17  31  51  75 105 145 186 223 270 331
#     4  11  22  38  60  84 112 149 191 234 278 331
#     4   9  17  31  52  80 114 143 176 225 278 327
#     4  11  25  43  61  83 115 152 191 238 282 326
#     4  10  20  33  51  81 115 146 181 230 283 334
#
# _framework density 19.651291000000001
#
# number of rings (size 3 to 8) (size 9 to 14) (size 15 to 20)
#    0.000    2.273    0.909    1.909    1.273    4.364 
#    0.000    2.273    0.000    2.727    0.000    0.000 
#    0.000    0.000    0.000    0.000    0.000    0.000 
#
# Total GULP energy -545384.076567 kJ/mol
# GULP energy per Si atom -12395.092649 kJ/mol
# Density = 1.960656 g / cm^3
# Si number density = 19.651291 Si / 1000 Ang^3
#
#
#
# Elastic Constant Matrix: (Units=GPa)
#
#
# Indices 1 2 3 4 5 6 
#
# 1 54.5833 33.5463 26.7842 0.0000 0.0000 0.0000
# 2 33.5463 127.7528 71.0994 0.0000 0.0000 0.0000
# 3 26.7842 71.0994 116.8767 0.0000 0.0000 0.0000
# 4 0.0000 0.0000 0.0000 72.1416 0.0000 0.0000
# 5 0.0000 0.0000 0.0000 0.0000 22.0180 0.0000
# 6 0.0000 0.0000 0.0000 0.0000 0.0000 16.8068
#
#
#
# Elastic Compliance Matrix: (Units=1/GPa)
#
#
# Indices 1 2 3 4 5 6 
#
# 1 0.022260 -0.004545 -0.002337 0.000000 0.000000 0.000000
# 2 -0.004545 0.012762 -0.006722 0.000000 0.000000 0.000000
# 3 -0.002337 -0.006722 0.013181 0.000000 0.000000 0.000000
# 4 0.000000 0.000000 0.000000 0.013862 0.000000 0.000000
# 5 0.000000 0.000000 0.000000 0.000000 0.045417 0.000000
# 6 0.000000 0.000000 0.000000 0.000000 0.000000 0.059500
#
#
# Mechanical properties :
#
#
# Convention : Reuss Voigt Hill
#
# Bulk Modulus (GPa) = 47.62751 62.45250 55.04001
# Shear Modulus (GPa) = 24.85241 33.37880 29.11561
#
# Velocity S-wave (km/s) = 3.56008 4.12582 3.85335
# Velocity P-wave (km/s) = 6.41777 7.38552 6.91859
#
# Compressibility (1/GPa) = 0.02099627
#
# Stress axis : x y z
#
# Youngs Moduli (GPa) = 44.92278 78.35689 75.86875
#
# Poissons Ratio (x) = 0.35613 0.17727
# Poissons Ratio (y) = 0.20417 0.50999
# Poissons Ratio (z) = 0.10496 0.52672
#
# Static dielectric constant tensor:
#      x y z
#    x 3.433080 0.000000 0.000000 
#    y 0.000000 4.762980 0.000000 
#    z 0.000000 0.000000 3.611310 
# 
# 
# High freq. dielectric constant tensor:
#      x y z
#    x 1.749660 0.000000 0.000000 
#    y 0.000000 1.764220 0.000000 
#    z 0.000000 0.000000 1.760440 
# 
# From -- ./inp_files/57606.got.cif
#   From: 2010.06.25/outbox.cif.g09.slc.cpg/sg71_29_cif.got.tgz:57606.got - 2010.06.28 04:59:45.
