data_PCOD8290972
_publ_section_title
;
Structure prediction by ZEFSAII (Michael W. Deem and Ramdas Pophale) SiO2 
 PCOD8290972
Probable space group: I M M M
;
_chemical_formula_sum "Si O2"
_cell_formula_units_Z 72
_cell_length_a 8.565051
_cell_length_b 16.315595
_cell_length_c 24.995375
_cell_angle_alpha 90.000000
_cell_angle_beta 90.000000
_cell_angle_gamma 90.000000
_cell_volume 3492.951266
_symmetry_space_group_name_H-M "I M M M"
_symmetry_group_IT_number 71
_symmetry_cell_setting 'orthorhombic'
loop_
_space_group_symop_operation_xyz
x,y,z
-x,-y,z
x,-y,-z
-x,y,-z
-x,-y,-z
x,y,-z
-x,y,z
x,-y,z
1/2+x,1/2+y,1/2+z
1/2-x,1/2-y,1/2+z
1/2+x,1/2-y,1/2-z
1/2-x,1/2+y,1/2-z
1/2-x,1/2-y,1/2-z
1/2+x,1/2+y,1/2-z
1/2-x,1/2+y,1/2+z
1/2+x,1/2-y,1/2+z
loop_
_atom_site_type_symbol
_atom_site_label
_atom_site_fract_x
_atom_site_fract_y
_atom_site_fract_z
Si Si1 0.186039 0.593093 0.000000
Si Si2 0.819117 0.000000 0.774419
Si Si3 0.320264 0.168431 0.060496
Si Si4 0.818907 0.319497 0.105372
Si Si5 0.177449 0.500000 0.385790
Si Si6 0.314120 0.165642 0.275537
O O1 0.257405 0.633286 0.054353
O O2 0.240500 0.500000 0.000000
O O3 0.000000 0.602898 0.000000
O O4 0.740305 0.916451 0.753940
O O5 0.799909 0.000000 0.837942
O O6 0.000000 0.000000 0.758604
O O7 0.500000 0.193547 0.068069
O O8 0.214108 0.223363 0.098952
O O9 0.290769 0.075640 0.075869
O O10 0.264689 0.181909 0.000000
O O11 0.751990 0.344981 0.163353
O O12 0.000000 0.338957 0.105410
O O13 0.000000 0.500000 0.363087
O O14 0.500000 0.171533 0.273055
O O15 0.250000 0.250000 0.250000
#
# Coordination Sequence:
#
# PCOD8290972 Si02
#       6
#     8   8  16  16   8  16
#     4   9  18  34  59  86 111 142 186 237 287 347
#     4  12  26  43  63  90 123 162 209 260 315 371
#     4  10  20  35  57  86 121 157 194 237 294 358
#     4  10  21  37  61  88 116 151 196 244 295 356
#     4  10  21  38  60  84 115 159 204 247 293 354
#     4  11  24  42  65  93 125 164 209 257 310 370
#
# _framework density 20.612942
#
# number of rings (size 3 to 8) (size 9 to 14) (size 15 to 20)
#    0.000    1.667    1.111    3.333    1.556    7.556 
#    0.000    0.000    0.000    2.667    0.000    0.000 
#    0.000    0.000    0.000    0.000    0.000    0.000 
#
# Total GULP energy -446305.973804 kJ/mol
# GULP energy per Si atom -12397.388161 kJ/mol
# Density = 2.056603 g / cm^3
# Si number density = 20.612942 Si / 1000 Ang^3
#
#
#
# Elastic Constant Matrix: (Units=GPa)
#
#
# Indices 1 2 3 4 5 6 
#
# 1 38.0515 20.3062 29.0038 0.0000 0.0000 0.0000
# 2 20.3062 121.4600 27.8425 0.0000 0.0000 0.0000
# 3 29.0038 27.8425 119.5567 -0.0001 0.0000 0.0000
# 4 0.0000 0.0000 -0.0001 617.4529 0.0000 0.0000
# 5 0.0000 0.0000 0.0000 0.0000 25.7978 0.0000
# 6 0.0000 0.0000 0.0000 0.0000 0.0000 26.0851
#
#
#
# Elastic Compliance Matrix: (Units=1/GPa)
#
#
# Indices 1 2 3 4 5 6 
#
# 1 0.033993 -0.004007 -0.007313 0.000000 0.000000 0.000000
# 2 -0.004007 0.009170 -0.001163 0.000000 0.000000 0.000000
# 3 -0.007313 -0.001163 0.010409 0.000000 0.000000 0.000000
# 4 0.000000 0.000000 0.000000 0.001620 0.000000 0.000000
# 5 0.000000 0.000000 0.000000 0.000000 0.038763 0.000000
# 6 0.000000 0.000000 0.000000 0.000000 0.000000 0.038336
#
#
# Mechanical properties :
#
#
# Convention : Reuss Voigt Hill
#
# Bulk Modulus (GPa) = 34.95902 48.15256 41.55579
# Shear Modulus (GPa) = 29.97738 147.32819 88.65279
#
# Velocity S-wave (km/s) = 3.81766 8.46338 6.56519
# Velocity P-wave (km/s) = 6.03567 10.90487 8.81321
#
# Compressibility (1/GPa) = 0.02860492
#
# Stress axis : x y z
#
# Youngs Moduli (GPa) = 29.41801 109.05475 96.06718
#
# Poissons Ratio (x) = 0.43694 0.70258
# Poissons Ratio (y) = 0.11787 0.11177
# Poissons Ratio (z) = 0.21515 0.12688
#
# Static dielectric constant tensor:
#      x y z
#    x 3.516130 0.000000 0.000000 
#    y 0.000000 3.770680 0.000000 
#    z 0.000000 0.000000 4.116410 
# 
# 
# High freq. dielectric constant tensor:
#      x y z
#    x 1.779940 0.000000 0.000000 
#    y 0.000000 1.817590 0.000000 
#    z 0.000000 0.000000 1.825270 
# 
# From -- ./inp_files/62886.got.cif
#   From: 2010.06.25/outbox.cif.g09.slc.cpg/sg71_32_cif.got.tgz:62886.got - 2010.06.28 04:59:45.
