data_PCOD8290264
_publ_section_title
;
Structure prediction by ZEFSAII (Michael W. Deem and Ramdas Pophale) SiO2 
 PCOD8290264
Probable space group: I M M M
;
_chemical_formula_sum "Si O2"
_cell_formula_units_Z 96
_cell_length_a 29.335523
_cell_length_b 8.816064
_cell_length_c 18.880082
_cell_angle_alpha 90.000000
_cell_angle_beta 90.000000
_cell_angle_gamma 90.000000
_cell_volume 4882.839462
_symmetry_space_group_name_H-M "I M M M"
_symmetry_group_IT_number 71
_symmetry_cell_setting 'orthorhombic'
loop_
_space_group_symop_operation_xyz
x,y,z
-x,-y,z
x,-y,-z
-x,y,-z
-x,-y,-z
x,y,-z
-x,y,z
x,-y,z
1/2+x,1/2+y,1/2+z
1/2-x,1/2-y,1/2+z
1/2+x,1/2-y,1/2-z
1/2-x,1/2+y,1/2-z
1/2-x,1/2-y,1/2-z
1/2+x,1/2+y,1/2-z
1/2-x,1/2+y,1/2+z
1/2+x,1/2-y,1/2+z
loop_
_atom_site_type_symbol
_atom_site_label
_atom_site_fract_x
_atom_site_fract_y
_atom_site_fract_z
Si Si1 0.448313 0.676808 0.582067
Si Si2 0.333933 0.673245 0.922016
Si Si3 0.071545 0.671749 0.421514
Si Si4 0.450335 0.668364 0.791121
Si Si5 0.616909 0.823421 0.694978
Si Si6 0.297460 0.322529 0.769652
O O1 0.438012 0.706612 0.500000
O O2 0.500000 0.735211 0.599985
O O3 0.445672 0.500000 0.600784
O O4 0.407941 0.758779 0.625001
O O5 0.351585 0.500000 0.914989
O O6 0.375336 0.788869 0.918994
O O7 0.303242 0.712663 0.853717
O O8 0.309290 0.693056 0.000000
O O9 0.051764 0.690733 0.500000
O O10 0.064988 0.500000 0.394902
O O11 0.043553 0.787799 0.372951
O O12 0.500000 0.670234 0.754403
O O13 0.428780 0.500000 0.782913
O O14 0.417902 0.795039 0.758814
O O15 0.664219 0.745075 0.716912
O O16 0.626144 0.000000 0.683927
O O17 0.296243 0.500000 0.754959
O O18 0.250000 0.250000 0.750000
#
# Coordination Sequence:
#
# PCOD8290264 Si02
#       6
#    16  16  16  16  16  16
#     4   9  19  38  64  92 123 161 203 246 298 365
#     4   9  18  35  60  85 110 147 193 237 286 346
#     4  10  20  33  52  79 111 147 188 236 286 335
#     4  11  23  37  54  78 111 154 200 241 285 341
#     4  12  24  38  59  87 120 155 194 244 299 355
#     4  11  23  40  63  89 119 154 196 249 306 363
#
# _framework density 19.660691
#
# number of rings (size 3 to 8) (size 9 to 14) (size 15 to 20)
#    0.000    1.667    1.667    4.000    0.000    6.000 
#    0.000    3.333    0.000    3.000    0.000    0.000 
#    0.000    0.000    0.000    0.000    0.000    0.000 
#
# Total GULP energy -594781.800355 kJ/mol
# GULP energy per Si atom -12391.287507 kJ/mol
# Density = 1.961594 g / cm^3
# Si number density = 19.660691 Si / 1000 Ang^3
#
#
#
# Elastic Constant Matrix: (Units=GPa)
#
#
# Indices 1 2 3 4 5 6 
#
# 1 123.4239 49.4780 58.0694 0.0000 0.0000 0.0000
# 2 49.4780 97.2867 51.0629 0.0000 0.0000 0.0000
# 3 58.0694 51.0629 124.5079 0.0000 0.0000 0.0000
# 4 0.0000 0.0000 0.0000 30.1406 0.0000 0.0000
# 5 0.0000 0.0000 0.0000 0.0000 73.5779 0.0000
# 6 0.0000 0.0000 0.0000 0.0000 0.0000 28.4280
#
#
#
# Elastic Compliance Matrix: (Units=1/GPa)
#
#
# Indices 1 2 3 4 5 6 
#
# 1 0.011401 -0.003832 -0.003745 0.000000 0.000000 0.000000
# 2 -0.003832 0.014387 -0.004113 0.000000 0.000000 0.000000
# 3 -0.003745 -0.004113 0.011465 0.000000 0.000000 0.000000
# 4 0.000000 0.000000 0.000000 0.033178 0.000000 0.000000
# 5 0.000000 0.000000 0.000000 0.000000 0.013591 0.000000
# 6 0.000000 0.000000 0.000000 0.000000 0.000000 0.035177
#
#
# Mechanical properties :
#
#
# Convention : Reuss Voigt Hill
#
# Bulk Modulus (GPa) = 72.09136 73.60434 72.84785
# Shear Modulus (GPa) = 33.96670 38.86983 36.41827
#
# Velocity S-wave (km/s) = 4.16100 4.45121 4.30855
# Velocity P-wave (km/s) = 7.73516 7.99601 7.86667
#
# Compressibility (1/GPa) = 0.01387129
#
# Stress axis : x y z
#
# Youngs Moduli (GPa) = 87.71458 69.50899 87.22009
#
# Poissons Ratio (x) = 0.26637 0.32668
# Poissons Ratio (y) = 0.33614 0.35873
# Poissons Ratio (z) = 0.32853 0.28588
#
# Static dielectric constant tensor:
#      x y z
#    x 3.366880 0.000000 0.000000 
#    y 0.000000 3.549420 0.000000 
#    z 0.000000 0.000000 3.939690 
# 
# 
# High freq. dielectric constant tensor:
#      x y z
#    x 1.741030 0.000000 0.000000 
#    y 0.000000 1.768180 0.000000 
#    z 0.000000 0.000000 1.780190 
# 
# From -- ./inp_files/14854.got.cif
#   From: 2010.06.25/outbox.cif.g09.slc.cpg/sg71_8_cif.got.tgz:14854.got - 2010.06.28 04:59:45.
