data_PCOD8290307
_publ_section_title
;
Structure prediction by ZEFSAII (Michael W. Deem and Ramdas Pophale) SiO2 
 PCOD8290307
Probable space group: I M M M
;
_chemical_formula_sum "Si O2"
_cell_formula_units_Z 80
_cell_length_a 7.598869
_cell_length_b 18.304968
_cell_length_c 31.334439
_cell_angle_alpha 90.000000
_cell_angle_beta 90.000000
_cell_angle_gamma 90.000000
_cell_volume 4358.528150
_symmetry_space_group_name_H-M "I M M M"
_symmetry_group_IT_number 71
_symmetry_cell_setting 'orthorhombic'
loop_
_space_group_symop_operation_xyz
x,y,z
-x,-y,z
x,-y,-z
-x,y,-z
-x,-y,-z
x,y,-z
-x,y,z
x,-y,z
1/2+x,1/2+y,1/2+z
1/2-x,1/2-y,1/2+z
1/2+x,1/2-y,1/2-z
1/2-x,1/2+y,1/2-z
1/2-x,1/2-y,1/2-z
1/2+x,1/2+y,1/2-z
1/2-x,1/2+y,1/2+z
1/2+x,1/2-y,1/2+z
loop_
_atom_site_type_symbol
_atom_site_label
_atom_site_fract_x
_atom_site_fract_y
_atom_site_fract_z
Si Si1 0.298214 0.640976 0.157354
Si Si2 0.500000 0.918232 0.599976
Si Si3 0.700557 0.080477 0.161237
Si Si4 0.794248 0.082019 0.746204
Si Si5 0.704025 0.785675 0.892101
Si Si6 0.000000 0.726139 0.949885
O O1 0.500000 0.614046 0.151424
O O2 0.175080 0.590872 0.128184
O O3 0.238275 0.633242 0.206676
O O4 0.275918 0.725207 0.144813
O O5 0.500000 0.859694 0.561677
O O6 0.500000 0.000000 0.580612
O O7 0.500000 0.072389 0.148133
O O8 0.710131 0.110363 0.209712
O O9 0.780640 0.139343 0.128290
O O10 0.792954 0.000000 0.157243
O O11 0.000000 0.083453 0.753431
O O12 0.727677 0.000000 0.736162
O O13 0.500000 0.791377 0.906940
O O14 0.824251 0.765047 0.932269
O O15 0.000000 0.735619 0.000000
#
# Coordination Sequence:
#
# PCOD8290307 Si02
#       6
#    16   8  16  16  16   8
#     4   9  18  32  48  71 104 142 180 213 241 286
#     4  10  20  33  54  79 105 140 170 203 254 298
#     4   9  18  31  48  72 101 135 173 213 255 300
#     4   9  17  27  41  66 100 138 177 213 247 285
#     4   9  19  36  55  75 101 133 169 208 259 311
#     4  10  22  39  59  82 102 125 165 212 260 320
#
# _framework density 18.35482
#
# number of rings (size 3 to 8) (size 9 to 14) (size 15 to 20)
#    0.000    2.800    0.000    0.600    2.800    2.600 
#    0.000    0.000    0.000    1.200    0.000    8.400 
#    0.000    0.000    0.000    0.000    0.000    0.000 
#
# Total GULP energy -495774.273861 kJ/mol
# GULP energy per Si atom -12394.356847 kJ/mol
# Density = 1.831304 g / cm^3
# Si number density = 18.354820 Si / 1000 Ang^3
#
#
#
# Elastic Constant Matrix: (Units=GPa)
#
#
# Indices 1 2 3 4 5 6 
#
# 1 70.4658 37.6543 44.8731 0.0000 0.0000 0.0000
# 2 37.6543 101.5374 78.8434 0.0000 0.0000 0.0000
# 3 44.8731 78.8434 131.6435 0.0000 0.0000 0.0000
# 4 0.0000 0.0000 0.0000 15.1971 0.0000 0.0000
# 5 0.0000 0.0000 0.0000 0.0000 22.0785 0.0000
# 6 0.0000 0.0000 0.0000 0.0000 0.0000 16.6755
#
#
#
# Elastic Compliance Matrix: (Units=1/GPa)
#
#
# Indices 1 2 3 4 5 6 
#
# 1 0.018857 -0.003742 -0.004186 0.000000 0.000000 0.000000
# 2 -0.003742 0.019153 -0.010196 0.000000 0.000000 0.000000
# 3 -0.004186 -0.010196 0.015130 0.000000 0.000000 0.000000
# 4 0.000000 0.000000 0.000000 0.065802 0.000000 0.000000
# 5 0.000000 0.000000 0.000000 0.000000 0.045293 0.000000
# 6 0.000000 0.000000 0.000000 0.000000 0.000000 0.059968
#
#
# Mechanical properties :
#
#
# Convention : Reuss Voigt Hill
#
# Bulk Modulus (GPa) = 59.20209 69.59871 64.40040
# Shear Modulus (GPa) = 18.79122 20.27528 19.53325
#
# Velocity S-wave (km/s) = 3.20312 3.32720 3.26575
# Velocity P-wave (km/s) = 6.78264 7.26369 7.02728
#
# Compressibility (1/GPa) = 0.01689129
#
# Stress axis : x y z
#
# Youngs Moduli (GPa) = 53.03089 52.21078 66.09564
#
# Poissons Ratio (x) = 0.19538 0.27671
# Poissons Ratio (y) = 0.19845 0.67388
# Poissons Ratio (z) = 0.22201 0.53232
#
# Static dielectric constant tensor:
#      x y z
#    x 3.459620 0.000000 0.000000 
#    y 0.000000 3.617880 0.000000 
#    z 0.000000 0.000000 3.018280 
# 
# 
# High freq. dielectric constant tensor:
#      x y z
#    x 1.716810 0.000000 0.000000 
#    y 0.000000 1.707650 0.000000 
#    z 0.000000 0.000000 1.674240 
# 
# From -- ./inp_files/8424.got.cif
#   From: 2010.06.25/outbox.cif.g09.slc.cpg/sg71_5_cif.got.tgz:8424.got - 2010.06.28 04:59:45.
