data_PCOD8290175
_publ_section_title
;
Structure prediction by ZEFSAII (Michael W. Deem and Ramdas Pophale) SiO2 
 PCOD8290175
Probable space group: I M M M
;
_chemical_formula_sum "Si O2"
_cell_formula_units_Z 88
_cell_length_a 27.562189
_cell_length_b 18.331875
_cell_length_c 9.329648
_cell_angle_alpha 90.000000
_cell_angle_beta 90.000000
_cell_angle_gamma 90.000000
_cell_volume 4713.959557
_symmetry_space_group_name_H-M "I M M M"
_symmetry_group_IT_number 71
_symmetry_cell_setting 'orthorhombic'
loop_
_space_group_symop_operation_xyz
x,y,z
-x,-y,z
x,-y,-z
-x,y,-z
-x,-y,-z
x,y,-z
-x,y,z
x,-y,z
1/2+x,1/2+y,1/2+z
1/2-x,1/2-y,1/2+z
1/2+x,1/2-y,1/2-z
1/2-x,1/2+y,1/2-z
1/2-x,1/2-y,1/2-z
1/2+x,1/2+y,1/2-z
1/2-x,1/2+y,1/2+z
1/2+x,1/2-y,1/2+z
loop_
_atom_site_type_symbol
_atom_site_label
_atom_site_fract_x
_atom_site_fract_y
_atom_site_fract_z
Si Si1 0.907815 0.630278 0.164347
Si Si2 0.181847 0.673413 0.335699
Si Si3 0.852724 0.165994 0.333825
Si Si4 0.055215 0.790363 0.164514
Si Si5 0.055053 0.500000 0.345443
Si Si6 0.223595 0.083249 0.164567
O O1 0.853932 0.634506 0.226365
O O2 0.937679 0.704298 0.183417
O O3 0.935549 0.570707 0.253144
O O4 0.904099 0.606355 0.000000
O O5 0.167728 0.655010 0.500000
O O6 0.178291 0.760114 0.309378
O O7 0.234355 0.641125 0.297934
O O8 0.859939 0.148679 0.500000
O O9 0.906274 0.168213 0.264275
O O10 0.822882 0.100647 0.261820
O O11 0.000000 0.810286 0.210156
O O12 0.064656 0.813086 0.000000
O O13 0.083467 0.500000 0.500000
O O14 0.000000 0.500000 0.386567
O O15 0.240695 0.000000 0.194808
O O16 0.207875 0.092601 0.000000
#
# Coordination Sequence:
#
# PCOD8290175 Si02
#       6
#    16  16  16  16   8  16
#     4  10  20  33  51  76 104 135 176 224 269 314
#     4   9  19  35  54  78 107 142 181 218 263 317
#     4  10  20  34  54  81 111 141 175 221 269 317
#     4   9  18  34  56  79 104 136 174 217 265 320
#     4  11  23  35  47  65  97 143 185 223 270 319
#     4  10  21  36  55  78 106 144 184 221 264 317
#
# _framework density 18.667957000000001
#
# number of rings (size 3 to 8) (size 9 to 14) (size 15 to 20)
#    0.000    2.273    0.000    2.455    1.273    4.364 
#    0.000    0.000    0.000    0.545    0.000    3.818 
#    0.000    0.000    0.000    0.000    0.000    0.000 
#
# Total GULP energy -545544.330068 kJ/mol
# GULP energy per Si atom -12398.734774 kJ/mol
# Density = 1.862547 g / cm^3
# Si number density = 18.667957 Si / 1000 Ang^3
#
#
#
# Elastic Constant Matrix: (Units=GPa)
#
#
# Indices 1 2 3 4 5 6 
#
# 1 114.4576 33.2314 60.1034 0.0000 0.0000 0.0000
# 2 33.2314 41.8019 27.4466 0.0000 0.0000 0.0000
# 3 60.1034 27.4466 108.8040 0.0000 0.0000 0.0000
# 4 0.0000 0.0000 0.0000 28.7949 0.0000 0.0000
# 5 0.0000 0.0000 0.0000 0.0000 27.6985 0.0000
# 6 0.0000 0.0000 0.0000 0.0000 0.0000 20.0079
#
#
#
# Elastic Compliance Matrix: (Units=1/GPa)
#
#
# Indices 1 2 3 4 5 6 
#
# 1 0.013909 -0.007206 -0.005866 0.000000 0.000000 0.000000
# 2 -0.007206 0.032404 -0.004194 0.000000 0.000000 0.000000
# 3 -0.005866 -0.004194 0.013489 0.000000 0.000000 0.000000
# 4 0.000000 0.000000 0.000000 0.034728 0.000000 0.000000
# 5 0.000000 0.000000 0.000000 0.000000 0.036103 0.000000
# 6 0.000000 0.000000 0.000000 0.000000 0.000000 0.049980
#
#
# Mechanical properties :
#
#
# Convention : Reuss Voigt Hill
#
# Bulk Modulus (GPa) = 39.56977 56.29184 47.93081
# Shear Modulus (GPa) = 22.36446 24.91907 23.64177
#
# Velocity S-wave (km/s) = 3.46499 3.65753 3.56256
# Velocity P-wave (km/s) = 6.10335 6.93228 6.53098
#
# Compressibility (1/GPa) = 0.02527181
#
# Stress axis : x y z
#
# Youngs Moduli (GPa) = 71.89469 30.85993 74.13504
#
# Poissons Ratio (x) = 0.22238 0.43485
# Poissons Ratio (y) = 0.51808 0.31089
# Poissons Ratio (z) = 0.42171 0.12941
#
# Static dielectric constant tensor:
#      x y z
#    x 3.341150 0.000000 0.000000 
#    y 0.000000 3.283400 0.000000 
#    z 0.000000 0.000000 3.564880 
# 
# 
# High freq. dielectric constant tensor:
#      x y z
#    x 1.721340 0.000000 0.000000 
#    y 0.000000 1.701430 0.000000 
#    z 0.000000 0.000000 1.734720 
# 
# From -- ./inp_files/10407.got.cif
#   From: 2010.06.25/outbox.cif.g09.slc.cpg/sg71_6_cif.got.tgz:10407.got - 2010.06.28 04:59:45.
