data_PCOD8290319
_publ_section_title
;
Structure prediction by ZEFSAII (Michael W. Deem and Ramdas Pophale) SiO2 
 PCOD8290319
Probable space group: I M M M
;
_chemical_formula_sum "Si O2"
_cell_formula_units_Z 88
_cell_length_a 8.932621
_cell_length_b 22.140038
_cell_length_c 22.620973
_cell_angle_alpha 90.000000
_cell_angle_beta 90.000000
_cell_angle_gamma 90.000000
_cell_volume 4473.717446
_symmetry_space_group_name_H-M "I M M M"
_symmetry_group_IT_number 71
_symmetry_cell_setting 'orthorhombic'
loop_
_space_group_symop_operation_xyz
x,y,z
-x,-y,z
x,-y,-z
-x,y,-z
-x,-y,-z
x,y,-z
-x,y,z
x,-y,z
1/2+x,1/2+y,1/2+z
1/2-x,1/2-y,1/2+z
1/2+x,1/2-y,1/2-z
1/2-x,1/2+y,1/2-z
1/2-x,1/2-y,1/2-z
1/2+x,1/2+y,1/2-z
1/2-x,1/2+y,1/2+z
1/2+x,1/2-y,1/2+z
loop_
_atom_site_type_symbol
_atom_site_label
_atom_site_fract_x
_atom_site_fract_y
_atom_site_fract_z
Si Si1 0.178654 0.343924 0.126828
Si Si2 0.828613 0.407875 0.335441
Si Si3 0.164383 0.211233 0.000000
Si Si4 0.837979 0.646455 0.000000
Si Si5 0.824303 0.500000 0.566232
Si Si6 0.170140 0.931848 0.716317
Si Si7 0.828566 0.280695 0.616445
O O1 0.242997 0.368678 0.062764
O O2 0.223735 0.389988 0.177287
O O3 0.243276 0.277785 0.141672
O O4 0.000000 0.338254 0.123335
O O5 0.776597 0.440301 0.396438
O O6 0.722718 0.431125 0.283702
O O7 0.814809 0.335297 0.337261
O O8 0.000000 0.426466 0.321616
O O9 0.257425 0.192085 0.942879
O O10 0.141597 0.282290 0.000000
O O11 0.000000 0.180139 0.000000
O O12 0.000000 0.614028 0.000000
O O13 0.749700 0.500000 0.500000
O O14 0.000000 0.500000 0.556823
O O15 0.000000 0.908180 0.712416
O O16 0.181534 0.000000 0.692102
O O17 0.000000 0.262659 0.604465
#
# Coordination Sequence:
#
# PCOD8290319 Si02
#       7
#    16  16   8   8   8  16  16
#     4  10  20  37  62  87 116 152 190 233 288 352
#     4  10  21  37  60  85 114 154 199 241 290 348
#     4   9  17  31  51  77 115 159 194 226 279 347
#     4   7  14  31  54  82 110 139 179 224 268 322
#     4   9  18  34  59  87 117 152 197 248 285 333
#     4  11  24  41  60  82 113 151 193 241 294 346
#     4  10  20  33  54  87 119 149 191 244 297 344
#
# _framework density 19.670442000000001
#
# number of rings (size 3 to 8) (size 9 to 14) (size 15 to 20)
#    0.000    2.273    0.909    3.000    1.273    3.273 
#    0.000    1.818    0.000    3.273    0.000    0.000 
#    0.000    0.000    0.000    0.000    0.000    0.000 
#
# Total GULP energy -545317.027600 kJ/mol
# GULP energy per Si atom -12393.568809 kJ/mol
# Density = 1.962567 g / cm^3
# Si number density = 19.670442 Si / 1000 Ang^3
#
#
#
# Elastic Constant Matrix: (Units=GPa)
#
#
# Indices 1 2 3 4 5 6 
#
# 1 93.1991 36.1694 27.8663 0.0000 0.0000 0.0000
# 2 36.1694 90.5858 44.2265 0.0000 0.0000 0.0000
# 3 27.8663 44.2265 102.7877 0.0000 0.0000 0.0000
# 4 0.0000 0.0000 0.0000 27.3816 0.0000 0.0000
# 5 0.0000 0.0000 0.0000 0.0000 27.9609 0.0000
# 6 0.0000 0.0000 0.0000 0.0000 0.0000 18.7459
#
#
#
# Elastic Compliance Matrix: (Units=1/GPa)
#
#
# Indices 1 2 3 4 5 6 
#
# 1 0.012908 -0.004362 -0.001623 0.000000 0.000000 0.000000
# 2 -0.004362 0.015449 -0.005465 0.000000 0.000000 0.000000
# 3 -0.001623 -0.005465 0.012520 0.000000 0.000000 0.000000
# 4 0.000000 0.000000 0.000000 0.036521 0.000000 0.000000
# 5 0.000000 0.000000 0.000000 0.000000 0.035764 0.000000
# 6 0.000000 0.000000 0.000000 0.000000 0.000000 0.053345
#
#
# Mechanical properties :
#
#
# Convention : Reuss Voigt Hill
#
# Bulk Modulus (GPa) = 55.62202 55.89968 55.76085
# Shear Modulus (GPa) = 25.58891 26.70504 26.14698
#
# Velocity S-wave (km/s) = 3.61069 3.68859 3.64985
# Velocity P-wave (km/s) = 6.76174 6.82794 6.79492
#
# Compressibility (1/GPa) = 0.01797849
#
# Stress axis : x y z
#
# Youngs Moduli (GPa) = 77.47404 64.73011 79.87220
#
# Poissons Ratio (x) = 0.28232 0.12961
# Poissons Ratio (y) = 0.33791 0.43648
# Poissons Ratio (z) = 0.12571 0.35373
#
# Static dielectric constant tensor:
#      x y z
#    x 3.515700 0.000000 0.000000 
#    y 0.000000 3.404380 0.000000 
#    z 0.000000 0.000000 3.835610 
# 
# 
# High freq. dielectric constant tensor:
#      x y z
#    x 1.755160 0.000000 0.000000 
#    y 0.000000 1.752920 0.000000 
#    z 0.000000 0.000000 1.766680 
# 
# From -- ./inp_files/50600.got.cif
#   From: 2010.06.25/outbox.cif.g09.slc.cpg/sg71_26_cif.got.tgz:50600.got - 2010.06.28 04:59:45.
