data_PCOD8290638
_publ_section_title
;
Structure prediction by ZEFSAII (Michael W. Deem and Ramdas Pophale) SiO2 
 PCOD8290638
Probable space group: I M M M
;
_chemical_formula_sum "Si O2"
_cell_formula_units_Z 96
_cell_length_a 8.839955
_cell_length_b 23.255892
_cell_length_c 25.345881
_cell_angle_alpha 90.000000
_cell_angle_beta 90.000000
_cell_angle_gamma 90.000000
_cell_volume 5210.632544
_symmetry_space_group_name_H-M "I M M M"
_symmetry_group_IT_number 71
_symmetry_cell_setting 'orthorhombic'
loop_
_space_group_symop_operation_xyz
x,y,z
-x,-y,z
x,-y,-z
-x,y,-z
-x,-y,-z
x,y,-z
-x,y,z
x,-y,z
1/2+x,1/2+y,1/2+z
1/2-x,1/2-y,1/2+z
1/2+x,1/2-y,1/2-z
1/2-x,1/2+y,1/2-z
1/2-x,1/2-y,1/2-z
1/2+x,1/2+y,1/2-z
1/2-x,1/2+y,1/2+z
1/2+x,1/2-y,1/2+z
loop_
_atom_site_type_symbol
_atom_site_label
_atom_site_fract_x
_atom_site_fract_y
_atom_site_fract_z
Si Si1 0.674613 0.742135 0.806417
Si Si2 0.179519 0.435475 0.558099
Si Si3 0.677575 0.871096 0.347052
Si Si4 0.823594 0.065648 0.252347
Si Si5 0.325005 0.867619 0.158321
Si Si6 0.174100 0.933893 0.560702
O O1 0.500000 0.727554 0.796867
O O2 0.750000 0.750000 0.750000
O O3 0.750162 0.691060 0.838585
O O4 0.695149 0.799183 0.841545
O O5 0.241012 0.417153 0.500000
O O6 0.236077 0.500000 0.571694
O O7 0.238728 0.391555 0.602639
O O8 0.000000 0.434463 0.556867
O O9 0.500000 0.864818 0.340806
O O10 0.736666 0.917277 0.305152
O O11 0.719162 0.892912 0.405188
O O12 0.772923 0.105710 0.204770
O O13 0.000000 0.074745 0.262641
O O14 0.784468 0.000000 0.238360
O O15 0.500000 0.885071 0.167003
O O16 0.200114 0.917347 0.500000
O O17 0.000000 0.923952 0.576789
O O18 0.218975 0.000000 0.570619
#
# Coordination Sequence:
#
# PCOD8290638 Si02
#       6
#    16  16  16  16  16  16
#     4  11  22  37  56  79 109 149 191 234 282 332
#     4   8  14  27  50  80 111 139 168 211 267 321
#     4  12  24  37  56  82 112 149 189 232 280 333
#     4  11  23  36  53  79 111 144 178 225 284 340
#     4  10  20  34  55  81 107 139 184 229 273 327
#     4   9  19  38  63  88 115 148 185 230 287 345
#
# _framework density 18.423867000000001
#
# number of rings (size 3 to 8) (size 9 to 14) (size 15 to 20)
#    0.000    1.833    1.667    4.500    0.000    5.333 
#    0.000    1.667    0.000    3.500    0.000    2.333 
#    0.000    0.000    0.000    0.000    0.000    0.000 
#
# Total GULP energy -595295.027420 kJ/mol
# GULP energy per Si atom -12401.979738 kJ/mol
# Density = 1.838193 g / cm^3
# Si number density = 18.423867 Si / 1000 Ang^3
#
#
#
# Elastic Constant Matrix: (Units=GPa)
#
#
# Indices 1 2 3 4 5 6 
#
# 1 99.4965 51.5654 40.1796 0.0000 0.0000 0.0000
# 2 51.5654 103.8839 49.8861 0.0000 0.0000 0.0000
# 3 40.1796 49.8861 112.8300 0.0000 0.0000 0.0000
# 4 0.0000 0.0000 0.0000 26.9539 0.0000 0.0000
# 5 0.0000 0.0000 0.0000 0.0000 26.2262 0.0000
# 6 0.0000 0.0000 0.0000 0.0000 0.0000 25.3727
#
#
#
# Elastic Compliance Matrix: (Units=1/GPa)
#
#
# Indices 1 2 3 4 5 6 
#
# 1 0.014040 -0.005799 -0.002436 0.000000 0.000000 0.000000
# 2 -0.005799 0.014616 -0.004397 0.000000 0.000000 0.000000
# 3 -0.002436 -0.004397 0.011674 0.000000 0.000000 0.000000
# 4 0.000000 0.000000 0.000000 0.037100 0.000000 0.000000
# 5 0.000000 0.000000 0.000000 0.000000 0.038130 0.000000
# 6 0.000000 0.000000 0.000000 0.000000 0.000000 0.039412
#
#
# Mechanical properties :
#
#
# Convention : Reuss Voigt Hill
#
# Bulk Modulus (GPa) = 66.37372 66.60806 66.49089
# Shear Modulus (GPa) = 26.98913 27.34916 27.16915
#
# Velocity S-wave (km/s) = 3.83155 3.85703 3.84431
# Velocity P-wave (km/s) = 7.46181 7.48780 7.47481
#
# Compressibility (1/GPa) = 0.01506620
#
# Stress axis : x y z
#
# Youngs Moduli (GPa) = 71.22618 68.41624 85.65777
#
# Poissons Ratio (x) = 0.39678 0.20862
# Poissons Ratio (y) = 0.41307 0.37666
# Poissons Ratio (z) = 0.17347 0.30084
#
# Static dielectric constant tensor:
#      x y z
#    x 3.292120 0.000000 0.000000 
#    y 0.000000 3.465460 0.000000 
#    z 0.000000 0.000000 3.569110 
# 
# 
# High freq. dielectric constant tensor:
#      x y z
#    x 1.701980 0.000000 0.000000 
#    y 0.000000 1.717280 0.000000 
#    z 0.000000 0.000000 1.716830 
# 
# From -- ./inp_files/12812.got.cif
#   From: 2010.06.25/outbox.cif.g09.slc.cpg/sg71_7_cif.got.tgz:12812.got - 2010.06.28 04:59:45.
