data_PCOD8290436
_publ_section_title
;
Structure prediction by ZEFSAII (Michael W. Deem and Ramdas Pophale) SiO2 
 PCOD8290436
Probable space group: I M M M
;
_chemical_formula_sum "Si O2"
_cell_formula_units_Z 120
_cell_length_a 24.881377
_cell_length_b 28.121060
_cell_length_c 8.904461
_cell_angle_alpha 90.000000
_cell_angle_beta 90.000000
_cell_angle_gamma 90.000000
_cell_volume 6230.368510
_symmetry_space_group_name_H-M "I M M M"
_symmetry_group_IT_number 71
_symmetry_cell_setting 'orthorhombic'
loop_
_space_group_symop_operation_xyz
x,y,z
-x,-y,z
x,-y,-z
-x,y,-z
-x,-y,-z
x,y,-z
-x,y,z
x,-y,z
1/2+x,1/2+y,1/2+z
1/2-x,1/2-y,1/2+z
1/2+x,1/2-y,1/2-z
1/2-x,1/2+y,1/2-z
1/2-x,1/2-y,1/2-z
1/2+x,1/2+y,1/2-z
1/2-x,1/2+y,1/2+z
1/2+x,1/2-y,1/2+z
loop_
_atom_site_type_symbol
_atom_site_label
_atom_site_fract_x
_atom_site_fract_y
_atom_site_fract_z
Si Si1 0.937112 0.283474 0.666529
Si Si2 0.278638 0.706616 0.672930
Si Si3 0.374862 0.591767 0.321177
Si Si4 0.888905 0.813362 0.676918
Si Si5 0.147824 0.555013 0.322626
Si Si6 0.754573 0.102490 0.829514
Si Si7 0.939255 0.000000 0.821544
Si Si8 0.937530 0.377961 0.175970
O O1 0.911022 0.288120 0.500000
O O2 0.923533 0.231689 0.735017
O O3 0.915463 0.326613 0.768526
O O4 0.000000 0.288069 0.655070
O O5 0.294248 0.717973 0.500000
O O6 0.250000 0.750000 0.750000
O O7 0.328872 0.697546 0.777137
O O8 0.242570 0.658971 0.679698
O O9 0.374110 0.596382 0.500000
O O10 0.406611 0.637686 0.257173
O O11 0.313179 0.589644 0.258280
O O12 0.407198 0.546004 0.263283
O O13 0.895126 0.820353 0.500000
O O14 0.145626 0.563765 0.500000
O O15 0.144230 0.500000 0.279769
O O16 0.204065 0.575454 0.253580
O O17 0.096548 0.580427 0.251141
O O18 0.757536 0.084698 0.000000
O O19 0.000000 0.000000 0.756898
O O20 0.940866 0.000000 0.000000
O O21 0.000000 0.385520 0.219647
O O22 0.928860 0.380148 0.000000
#
# Coordination Sequence:
#
# PCOD8290436 Si02
#       8
#    16  16  16  16  16  16   8  16
#     4   9  19  36  57  79 105 142 185 225 268 322
#     4  10  20  34  52  78 112 146 181 220 268 327
#     4   9  18  34  55  78 110 150 187 228 277 330
#     4  10  20  34  53  78 109 143 182 226 276 329
#     4  10  21  36  57  83 106 134 182 233 273 323
#     4   8  17  33  52  77 106 139 179 222 267 314
#     4   9  18  32  55  87 115 145 190 237 282 332
#     4  10  22  39  57  79 109 142 175 217 275 336
#
# _framework density 19.260497999999998
#
# number of rings (size 3 to 8) (size 9 to 14) (size 15 to 20)
#    0.000    2.600    0.000    2.000    2.800    2.933 
#    0.000    4.333    0.000    0.400    0.000    0.000 
#    0.000    0.000    0.000    0.000    0.000    0.000 
#
# Total GULP energy -743672.097304 kJ/mol
# GULP energy per Si atom -12394.534955 kJ/mol
# Density = 1.921666 g / cm^3
# Si number density = 19.260498 Si / 1000 Ang^3
#
#
#
# Elastic Constant Matrix: (Units=GPa)
#
#
# Indices 1 2 3 4 5 6 
#
# 1 84.3489 75.0074 30.2630 0.0000 0.0000 0.0000
# 2 75.0074 175.9323 46.9086 0.0000 0.0000 0.0000
# 3 30.2630 46.9086 40.6450 0.0000 0.0000 0.0000
# 4 0.0000 0.0000 0.0000 28.3673 0.0000 0.0000
# 5 0.0000 0.0000 0.0000 0.0000 20.2910 0.0000
# 6 0.0000 0.0000 0.0000 0.0000 0.0000 39.1454
#
#
#
# Elastic Compliance Matrix: (Units=1/GPa)
#
#
# Indices 1 2 3 4 5 6 
#
# 1 0.020565 -0.006768 -0.007502 0.000000 0.000000 0.000000
# 2 -0.006768 0.010438 -0.007007 0.000000 0.000000 0.000000
# 3 -0.007502 -0.007007 0.038276 0.000000 0.000000 0.000000
# 4 0.000000 0.000000 0.000000 0.035252 0.000000 0.000000
# 5 0.000000 0.000000 0.000000 0.000000 0.049283 0.000000
# 6 0.000000 0.000000 0.000000 0.000000 0.000000 0.025546
#
#
# Mechanical properties :
#
#
# Convention : Reuss Voigt Hill
#
# Bulk Modulus (GPa) = 37.41719 67.25380 52.33550
# Shear Modulus (GPa) = 21.66188 27.47723 24.56956
#
# Velocity S-wave (km/s) = 3.35726 3.78115 3.57549
# Velocity P-wave (km/s) = 5.87345 7.35232 6.65409
#
# Compressibility (1/GPa) = 0.02672568
#
# Stress axis : x y z
#
# Youngs Moduli (GPa) = 48.62605 95.80708 26.12626
#
# Poissons Ratio (x) = 0.64839 0.19599
# Poissons Ratio (y) = 0.32908 0.18307
# Poissons Ratio (z) = 0.36477 0.67133
#
# Static dielectric constant tensor:
#      x y z
#    x 3.587770 0.000000 0.000000 
#    y 0.000000 4.072330 0.000000 
#    z 0.000000 0.000000 3.392640 
# 
# 
# High freq. dielectric constant tensor:
#      x y z
#    x 1.743020 0.000000 0.000000 
#    y 0.000000 1.762520 0.000000 
#    z 0.000000 0.000000 1.721890 
# 
# From -- ./inp_files/15625.got.cif
#   From: 2010.06.25/outbox.cif.g09.slc.cpg/sg71_8_cif.got.tgz:15625.got - 2010.06.28 04:59:45.
