data_PCOD8290064
_publ_section_title
;
Structure prediction by ZEFSAII (Michael W. Deem and Ramdas Pophale) SiO2 
 PCOD8290064
Probable space group: I M M M
;
_chemical_formula_sum "Si O2"
_cell_formula_units_Z 96
_cell_length_a 25.435350
_cell_length_b 11.844334
_cell_length_c 18.676687
_cell_angle_alpha 90.000000
_cell_angle_beta 90.000000
_cell_angle_gamma 90.000000
_cell_volume 5626.628015
_symmetry_space_group_name_H-M "I M M M"
_symmetry_group_IT_number 71
_symmetry_cell_setting 'orthorhombic'
loop_
_space_group_symop_operation_xyz
x,y,z
-x,-y,z
x,-y,-z
-x,y,-z
-x,-y,-z
x,y,-z
-x,y,z
x,-y,z
1/2+x,1/2+y,1/2+z
1/2-x,1/2-y,1/2+z
1/2+x,1/2-y,1/2-z
1/2-x,1/2+y,1/2-z
1/2-x,1/2-y,1/2-z
1/2+x,1/2+y,1/2-z
1/2-x,1/2+y,1/2+z
1/2+x,1/2-y,1/2+z
loop_
_atom_site_type_symbol
_atom_site_label
_atom_site_fract_x
_atom_site_fract_y
_atom_site_fract_z
Si Si1 0.059734 0.869668 0.308156
Si Si2 0.597364 0.500000 0.415156
Si Si3 0.560013 0.724297 0.655976
Si Si4 0.148574 0.131592 0.417673
Si Si5 0.250744 0.741183 0.585036
Si Si6 0.854138 0.368159 0.916741
Si Si7 0.783633 0.000000 0.085048
O O1 0.073728 0.795598 0.239079
O O2 0.097183 0.833456 0.373264
O O3 0.000000 0.848706 0.333526
O O4 0.068271 0.000000 0.287026
O O5 0.596911 0.500000 0.500000
O O6 0.567627 0.389814 0.388350
O O7 0.656989 0.500000 0.385199
O O8 0.500000 0.763432 0.647130
O O9 0.595941 0.824738 0.627009
O O10 0.137290 0.163361 0.500000
O O11 0.197880 0.200876 0.385495
O O12 0.162122 0.000000 0.409879
O O13 0.250107 0.749042 0.500000
O O14 0.302018 0.807016 0.613223
O O15 0.253265 0.611637 0.612394
O O16 0.847298 0.500000 0.903628
O O17 0.863001 0.339200 0.000000
O O18 0.785850 0.000000 0.000000
#
# Coordination Sequence:
#
# PCOD8290064 Si02
#       7
#    16   8  16  16  16  16   8
#     4   9  18  33  51  73 102 133 161 197 252 298
#     4  11  19  30  49  74  97 125 168 210 244 282
#     4  11  21  33  49  69  98 133 167 206 249 293
#     4   9  17  30  52  79 102 127 161 198 238 296
#     4   9  16  29  49  74 101 128 160 199 246 292
#     4  10  20  33  50  71  99 134 168 204 243 286
#     4   9  16  27  48  73  99 129 159 199 247 288
#
# _framework density 17.061729
#
# number of rings (size 3 to 8) (size 9 to 14) (size 15 to 20)
#    0.000    2.333    2.500    1.250    0.000    4.333 
#    0.000    3.333    1.833    0.000    0.000    0.000 
#    0.000    3.333    0.000    0.000    0.000    0.000 
#
# Total GULP energy -595220.560405 kJ/mol
# GULP energy per Si atom -12400.428342 kJ/mol
# Density = 1.702290 g / cm^3
# Si number density = 17.061729 Si / 1000 Ang^3
#
#
#
# Elastic Constant Matrix: (Units=GPa)
#
#
# Indices 1 2 3 4 5 6 
#
# 1 136.1578 59.6962 57.2653 0.0000 0.0000 0.0000
# 2 59.6962 93.2254 34.0667 0.0000 0.0000 0.0000
# 3 57.2653 34.0667 59.4588 0.0000 0.0000 0.0000
# 4 0.0000 0.0000 0.0000 17.4430 0.0000 0.0000
# 5 0.0000 0.0000 0.0000 0.0000 10.7956 0.0000
# 6 0.0000 0.0000 0.0000 0.0000 0.0000 29.1720
#
#
#
# Elastic Compliance Matrix: (Units=1/GPa)
#
#
# Indices 1 2 3 4 5 6 
#
# 1 0.014045 -0.005123 -0.010592 0.000000 0.000000 0.000000
# 2 -0.005123 0.015436 -0.003910 0.000000 0.000000 0.000000
# 3 -0.010592 -0.003910 0.029259 0.000000 0.000000 0.000000
# 4 0.000000 0.000000 0.000000 0.057330 0.000000 0.000000
# 5 0.000000 0.000000 0.000000 0.000000 0.092630 0.000000
# 6 0.000000 0.000000 0.000000 0.000000 0.000000 0.034279
#
#
# Mechanical properties :
#
#
# Convention : Reuss Voigt Hill
#
# Bulk Modulus (GPa) = 51.30522 65.65540 58.48031
# Shear Modulus (GPa) = 17.31739 20.66971 18.99355
#
# Velocity S-wave (km/s) = 3.18934 3.48439 3.34012
# Velocity P-wave (km/s) = 6.61046 7.39950 7.01608
#
# Compressibility (1/GPa) = 0.01949120
#
# Stress axis : x y z
#
# Youngs Moduli (GPa) = 71.19779 64.78324 34.17699
#
# Poissons Ratio (x) = 0.33191 0.36200
# Poissons Ratio (y) = 0.36477 0.13362
# Poissons Ratio (z) = 0.75411 0.25328
#
# Static dielectric constant tensor:
#      x y z
#    x 3.320960 0.000000 0.000000 
#    y 0.000000 3.123980 0.000000 
#    z 0.000000 0.000000 2.947830 
# 
# 
# High freq. dielectric constant tensor:
#      x y z
#    x 1.665050 0.000000 0.000000 
#    y 0.000000 1.647280 0.000000 
#    z 0.000000 0.000000 1.628940 
# 
# From -- ./inp_files/24269.got.cif
#   From: 2010.06.25/outbox.cif.g09.slc.cpg/sg71_13_cif.got.tgz:24269.got - 2010.06.28 04:59:45.
