data_PCOD8290678
_publ_section_title
;
Structure prediction by ZEFSAII (Michael W. Deem and Ramdas Pophale) SiO2 
 PCOD8290678
Probable space group: I M M M
;
_chemical_formula_sum "Si O2"
_cell_formula_units_Z 88
_cell_length_a 21.595344
_cell_length_b 11.387901
_cell_length_c 17.898795
_cell_angle_alpha 90.000000
_cell_angle_beta 90.000000
_cell_angle_gamma 90.000000
_cell_volume 4401.772607
_symmetry_space_group_name_H-M "I M M M"
_symmetry_group_IT_number 71
_symmetry_cell_setting 'orthorhombic'
loop_
_space_group_symop_operation_xyz
x,y,z
-x,-y,z
x,-y,-z
-x,y,-z
-x,-y,-z
x,y,-z
-x,y,z
x,-y,z
1/2+x,1/2+y,1/2+z
1/2-x,1/2-y,1/2+z
1/2+x,1/2-y,1/2-z
1/2-x,1/2+y,1/2-z
1/2-x,1/2-y,1/2-z
1/2+x,1/2+y,1/2-z
1/2-x,1/2+y,1/2+z
1/2+x,1/2-y,1/2+z
loop_
_atom_site_type_symbol
_atom_site_label
_atom_site_fract_x
_atom_site_fract_y
_atom_site_fract_z
Si Si1 0.927824 0.000000 0.712020
Si Si2 0.841548 0.635918 0.194582
Si Si3 0.618768 0.741328 0.155307
Si Si4 0.000000 0.638789 0.415031
Si Si5 0.573800 0.500000 0.377070
Si Si6 0.928441 0.748020 0.917653
Si Si7 0.231471 0.136528 0.584364
O O1 0.908495 0.113730 0.667654
O O2 0.897891 0.000000 0.793964
O O3 0.000000 0.000000 0.723037
O O4 0.839112 0.500000 0.215939
O O5 0.848710 0.708073 0.270634
O O6 0.900240 0.660519 0.142523
O O7 0.781723 0.674285 0.146458
O O8 0.562821 0.821685 0.126259
O O9 0.672617 0.722654 0.094108
O O10 0.000000 0.500000 0.414034
O O11 0.000000 0.687323 0.500000
O O12 0.500000 0.500000 0.381178
O O13 0.599118 0.618998 0.415467
O O14 0.000000 0.753959 0.896867
O O15 0.916852 0.695828 0.000000
O O16 0.257349 0.155137 0.500000
O O17 0.213119 0.000000 0.596411
#
# Coordination Sequence:
#
# PCOD8290678 Si02
#       7
#     8  16  16   8   8  16  16
#     4  11  20  35  60  99 126 150 201 264 316 359
#     4  11  24  39  59  88 123 167 211 253 307 375
#     4  12  22  41  66  95 123 161 210 258 312 375
#     4  11  26  45  67  97 134 170 200 244 310 382
#     4   9  17  32  53  80 116 152 192 250 311 368
#     4  10  20  34  55  83 117 159 207 259 313 368
#     4  10  22  41  64  90 122 161 207 263 320 368
#
# _framework density 19.991945999999999
#
# number of rings (size 3 to 8) (size 9 to 14) (size 15 to 20)
#    0.000    1.364    3.636    2.455    1.273    2.545 
#    0.000    1.364    2.000    0.000    0.000    0.000 
#    0.000    0.000    0.000    0.000    0.000    0.000 
#
# Total GULP energy -545456.939252 kJ/mol
# GULP energy per Si atom -12396.748619 kJ/mol
# Density = 1.994644 g / cm^3
# Si number density = 19.991946 Si / 1000 Ang^3
#
#
#
# Elastic Constant Matrix: (Units=GPa)
#
#
# Indices 1 2 3 4 5 6 
#
# 1 89.1405 30.1638 50.3265 0.0000 0.0000 0.0000
# 2 30.1638 68.4308 26.8915 0.0000 0.0000 0.0000
# 3 50.3265 26.8915 113.1701 0.0000 0.0000 0.0000
# 4 0.0000 0.0000 0.0000 18.9381 0.0000 0.0000
# 5 0.0000 0.0000 0.0000 0.0000 36.5739 0.0000
# 6 0.0000 0.0000 0.0000 0.0000 0.0000 22.2478
#
#
#
# Elastic Compliance Matrix: (Units=1/GPa)
#
#
# Indices 1 2 3 4 5 6 
#
# 1 0.016282 -0.004778 -0.006105 0.000000 0.000000 0.000000
# 2 -0.004778 0.017520 -0.002039 0.000000 0.000000 0.000000
# 3 -0.006105 -0.002039 0.012036 0.000000 0.000000 0.000000
# 4 0.000000 0.000000 0.000000 0.052804 0.000000 0.000000
# 5 0.000000 0.000000 0.000000 0.000000 0.027342 0.000000
# 6 0.000000 0.000000 0.000000 0.000000 0.000000 0.044948
#
#
# Mechanical properties :
#
#
# Convention : Reuss Voigt Hill
#
# Bulk Modulus (GPa) = 50.01283 53.94498 51.97891
# Shear Modulus (GPa) = 24.57736 26.44262 25.50999
#
# Velocity S-wave (km/s) = 3.51003 3.64079 3.57601
# Velocity P-wave (km/s) = 6.44189 6.68698 6.56558
#
# Compressibility (1/GPa) = 0.01999487
#
# Stress axis : x y z
#
# Youngs Moduli (GPa) = 61.41826 57.07638 83.08666
#
# Poissons Ratio (x) = 0.27269 0.50726
# Poissons Ratio (y) = 0.29344 0.16938
# Poissons Ratio (z) = 0.37497 0.11635
#
# Static dielectric constant tensor:
#      x y z
#    x 3.572480 0.000000 0.000000 
#    y 0.000000 3.634510 0.000000 
#    z 0.000000 0.000000 3.747940 
# 
# 
# High freq. dielectric constant tensor:
#      x y z
#    x 1.768990 0.000000 0.000000 
#    y 0.000000 1.777210 0.000000 
#    z 0.000000 0.000000 1.788740 
# 
# From -- ./inp_files/47128.got.cif
#   From: 2010.06.25/outbox.cif.g09.slc.cpg/sg71_24_cif.got.tgz:47128.got - 2010.06.28 04:59:45.
