data_PCOD8290637
_publ_section_title
;
Structure prediction by ZEFSAII (Michael W. Deem and Ramdas Pophale) SiO2 
 PCOD8290637
Probable space group: I M M M
;
_chemical_formula_sum "Si O2"
_cell_formula_units_Z 104
_cell_length_a 19.943997
_cell_length_b 28.567785
_cell_length_c 9.485867
_cell_angle_alpha 90.000000
_cell_angle_beta 90.000000
_cell_angle_gamma 90.000000
_cell_volume 5404.627915
_symmetry_space_group_name_H-M "I M M M"
_symmetry_group_IT_number 71
_symmetry_cell_setting 'orthorhombic'
loop_
_space_group_symop_operation_xyz
x,y,z
-x,-y,z
x,-y,-z
-x,y,-z
-x,-y,-z
x,y,-z
-x,y,z
x,-y,z
1/2+x,1/2+y,1/2+z
1/2-x,1/2-y,1/2+z
1/2+x,1/2-y,1/2-z
1/2-x,1/2+y,1/2-z
1/2-x,1/2-y,1/2-z
1/2+x,1/2+y,1/2-z
1/2-x,1/2+y,1/2+z
1/2+x,1/2-y,1/2+z
loop_
_atom_site_type_symbol
_atom_site_label
_atom_site_fract_x
_atom_site_fract_y
_atom_site_fract_z
Si Si1 0.195239 0.727536 0.656808
Si Si2 0.922793 0.588315 0.164456
Si Si3 0.072980 0.785737 0.333381
Si Si4 0.688808 0.445343 0.334948
Si Si5 0.078352 0.891189 0.335458
Si Si6 0.078880 0.500000 0.343802
Si Si7 0.187929 0.379514 0.657800
O O1 0.200720 0.748373 0.500000
O O2 0.250000 0.750000 0.750000
O O3 0.123112 0.744594 0.717797
O O4 0.212930 0.673189 0.654570
O O5 0.897940 0.543830 0.253446
O O6 0.873172 0.626288 0.229885
O O7 0.000000 0.601585 0.193441
O O8 0.910564 0.579378 0.000000
O O9 0.065114 0.785832 0.500000
O O10 0.096447 0.838027 0.287648
O O11 0.000000 0.774644 0.265961
O O12 0.674841 0.438306 0.500000
O O13 0.702032 0.500000 0.298881
O O14 0.623750 0.427376 0.251799
O O15 0.754053 0.414859 0.289684
O O16 0.094103 0.898659 0.500000
O O17 0.000000 0.901592 0.304512
O O18 0.112559 0.500000 0.500000
O O19 0.000000 0.500000 0.360668
O O20 0.163100 0.394164 0.500000
#
# Coordination Sequence:
#
# PCOD8290637 Si02
#       7
#    16  16  16  16  16   8  16
#     4  10  20  34  55  81 107 138 179 224 270 327
#     4  10  21  36  54  79 110 142 181 229 277 325
#     4   8  15  30  53  80 108 137 169 210 263 320
#     4  10  22  38  53  73 106 145 182 223 270 318
#     4   9  18  34  57  83 108 135 171 215 266 329
#     4   9  17  31  53  77 101 135 176 217 264 317
#     4  10  22  37  54  79 108 144 190 232 272 325
#
# _framework density 19.242768000000002
#
# number of rings (size 3 to 8) (size 9 to 14) (size 15 to 20)
#    0.000    2.538    0.000    2.538    1.077    4.615 
#    0.000    3.077    0.000    1.385    0.000    0.000 
#    0.000    0.000    0.000    0.000    0.000    0.000 
#
# Total GULP energy -644370.763643 kJ/mol
# GULP energy per Si atom -12391.745455 kJ/mol
# Density = 1.919897 g / cm^3
# Si number density = 19.242768 Si / 1000 Ang^3
#
#
#
# Elastic Constant Matrix: (Units=GPa)
#
#
# Indices 1 2 3 4 5 6 
#
# 1 122.4503 61.2283 57.8198 0.0000 0.0000 0.0000
# 2 61.2283 104.1375 34.1800 0.0000 0.0000 0.0000
# 3 57.8198 34.1800 83.9857 0.0000 0.0000 0.0000
# 4 0.0000 0.0000 0.0000 21.4405 0.0000 0.0000
# 5 0.0000 0.0000 0.0000 0.0000 35.4172 0.0000
# 6 0.0000 0.0000 0.0000 0.0000 0.0000 36.3521
#
#
#
# Elastic Compliance Matrix: (Units=1/GPa)
#
#
# Indices 1 2 3 4 5 6 
#
# 1 0.014949 -0.006246 -0.007750 0.000000 0.000000 0.000000
# 2 -0.006246 0.013693 -0.001273 0.000000 0.000000 0.000000
# 3 -0.007750 -0.001273 0.017760 0.000000 0.000000 0.000000
# 4 0.000000 0.000000 0.000000 0.046641 0.000000 0.000000
# 5 0.000000 0.000000 0.000000 0.000000 0.028235 0.000000
# 6 0.000000 0.000000 0.000000 0.000000 0.000000 0.027509
#
#
# Mechanical properties :
#
#
# Convention : Reuss Voigt Hill
#
# Bulk Modulus (GPa) = 63.03054 68.55886 65.79470
# Shear Modulus (GPa) = 27.08404 29.13166 28.10785
#
# Velocity S-wave (km/s) = 3.75573 3.89511 3.82605
# Velocity P-wave (km/s) = 7.18567 7.47896 7.33378
#
# Compressibility (1/GPa) = 0.01586532
#
# Stress axis : x y z
#
# Youngs Moduli (GPa) = 66.89438 73.03203 56.30621
#
# Poissons Ratio (x) = 0.45614 0.43636
# Poissons Ratio (y) = 0.41780 0.07166
# Poissons Ratio (z) = 0.51841 0.09295
#
# Static dielectric constant tensor:
#      x y z
#    x 3.305590 0.000000 0.000000 
#    y 0.000000 2.970810 0.000000 
#    z 0.000000 0.000000 3.435930 
# 
# 
# High freq. dielectric constant tensor:
#      x y z
#    x 1.749940 0.000000 0.000000 
#    y 0.000000 1.747090 0.000000 
#    z 0.000000 0.000000 1.730600 
# 
# From -- ./inp_files/11058.got.cif
#   From: 2010.06.25/outbox.cif.g09.slc.cpg/sg71_6_cif.got.tgz:11058.got - 2010.06.28 04:59:45.
