data_PCOD8290981
_publ_section_title
;
Structure prediction by ZEFSAII (Michael W. Deem and Ramdas Pophale) SiO2 
 PCOD8290981
Probable space group: I M M M
;
_chemical_formula_sum "Si O2"
_cell_formula_units_Z 104
_cell_length_a 9.069936
_cell_length_b 24.107012
_cell_length_c 25.470361
_cell_angle_alpha 90.000000
_cell_angle_beta 90.000000
_cell_angle_gamma 90.000000
_cell_volume 5569.070388
_symmetry_space_group_name_H-M "I M M M"
_symmetry_group_IT_number 71
_symmetry_cell_setting 'orthorhombic'
loop_
_space_group_symop_operation_xyz
x,y,z
-x,-y,z
x,-y,-z
-x,y,-z
-x,-y,-z
x,y,-z
-x,y,z
x,-y,z
1/2+x,1/2+y,1/2+z
1/2-x,1/2-y,1/2+z
1/2+x,1/2-y,1/2-z
1/2-x,1/2+y,1/2-z
1/2-x,1/2-y,1/2-z
1/2+x,1/2+y,1/2-z
1/2-x,1/2+y,1/2+z
1/2+x,1/2-y,1/2+z
loop_
_atom_site_type_symbol
_atom_site_label
_atom_site_fract_x
_atom_site_fract_y
_atom_site_fract_z
Si Si1 0.825247 0.564999 0.764917
Si Si2 0.837817 0.101560 0.557332
Si Si3 0.839823 0.500000 0.937372
Si Si4 0.327219 0.259652 0.695518
Si Si5 0.832452 0.155728 0.337970
Si Si6 0.825855 0.115700 0.834807
Si Si7 0.325151 0.437420 0.557779
O O1 0.792590 0.500000 0.777873
O O2 0.745245 0.605233 0.806952
O O3 0.762096 0.578794 0.707271
O O4 0.000000 0.576726 0.765892
O O5 0.779270 0.122147 0.500000
O O6 0.838896 0.149603 0.599470
O O7 0.000000 0.076058 0.550108
O O8 0.737969 0.054510 0.583387
O O9 0.000000 0.500000 0.911944
O O10 0.839686 0.500000 0.000000
O O11 0.500000 0.251500 0.701448
O O12 0.250000 0.250000 0.750000
O O13 0.260557 0.211701 0.660084
O O14 0.287525 0.319791 0.672858
O O15 0.000000 0.162105 0.315142
O O16 0.769394 0.100004 0.893498
O O17 0.000000 0.104214 0.827823
O O18 0.269893 0.415664 0.500000
O O19 0.500000 0.437121 0.557708
O O20 0.267098 0.500000 0.566393
#
# Coordination Sequence:
#
# PCOD8290981 Si02
#       7
#    16  16   8  16  16  16  16
#     4  11  24  38  54  81 115 147 178 225 285 337
#     4   9  19  36  55  75 102 138 181 225 270 326
#     4   9  17  29  49  77 105 135 171 213 266 323
#     4  11  22  37  57  81 110 147 189 235 280 327
#     4  11  23  38  58  81 106 144 188 231 279 331
#     4  10  20  35  58  84 110 145 189 230 273 331
#     4   8  14  27  51  84 118 148 180 223 274 327
#
# _framework density 18.674572000000001
#
# number of rings (size 3 to 8) (size 9 to 14) (size 15 to 20)
#    0.000    2.077    1.538    2.538    1.077    4.615 
#    0.000    0.769    0.000    1.385    0.000    2.154 
#    0.000    0.000    0.000    0.000    0.000    0.000 
#
# Total GULP energy -644281.079397 kJ/mol
# GULP energy per Si atom -12390.020758 kJ/mol
# Density = 1.863207 g / cm^3
# Si number density = 18.674572 Si / 1000 Ang^3
#
#
#
# Elastic Constant Matrix: (Units=GPa)
#
#
# Indices 1 2 3 4 5 6 
#
# 1 84.3536 48.4435 32.0579 0.0000 0.0000 0.0000
# 2 48.4435 115.4597 49.2880 0.0000 0.0000 0.0000
# 3 32.0579 49.2880 120.4042 0.0000 0.0000 0.0000
# 4 0.0000 0.0000 0.0000 27.6725 0.0000 0.0000
# 5 0.0000 0.0000 0.0000 0.0000 17.0940 0.0000
# 6 0.0000 0.0000 0.0000 0.0000 0.0000 29.2327
#
#
#
# Elastic Compliance Matrix: (Units=1/GPa)
#
#
# Indices 1 2 3 4 5 6 
#
# 1 0.015943 -0.005910 -0.001826 0.000000 0.000000 0.000000
# 2 -0.005910 0.012686 -0.003619 0.000000 0.000000 0.000000
# 3 -0.001826 -0.003619 0.010273 0.000000 0.000000 0.000000
# 4 0.000000 0.000000 0.000000 0.036137 0.000000 0.000000
# 5 0.000000 0.000000 0.000000 0.000000 0.058500 0.000000
# 6 0.000000 0.000000 0.000000 0.000000 0.000000 0.034208
#
#
# Mechanical properties :
#
#
# Convention : Reuss Voigt Hill
#
# Bulk Modulus (GPa) = 61.75971 64.42180 63.09075
# Shear Modulus (GPa) = 25.52930 27.49504 26.51217
#
# Velocity S-wave (km/s) = 3.70139 3.84125 3.77197
# Velocity P-wave (km/s) = 7.17011 7.36516 7.26829
#
# Compressibility (1/GPa) = 0.01619179
#
# Stress axis : x y z
#
# Youngs Moduli (GPa) = 62.72524 78.82918 97.34198
#
# Poissons Ratio (x) = 0.46586 0.17771
# Poissons Ratio (y) = 0.37069 0.35232
# Poissons Ratio (z) = 0.11451 0.28532
#
# Static dielectric constant tensor:
#      x y z
#    x 3.213420 0.000000 0.000000 
#    y 0.000000 3.291070 0.000000 
#    z 0.000000 0.000000 3.604070 
# 
# 
# High freq. dielectric constant tensor:
#      x y z
#    x 1.716720 0.000000 0.000000 
#    y 0.000000 1.714620 0.000000 
#    z 0.000000 0.000000 1.733880 
# 
# From -- ./inp_files/63559.got.cif
#   From: 2010.06.25/outbox.cif.g09.slc.cpg/sg71_32_cif.got.tgz:63559.got - 2010.06.28 04:59:45.
