data_PCOD8290332
_publ_section_title
;
Structure prediction by ZEFSAII (Michael W. Deem and Ramdas Pophale) SiO2 
 PCOD8290332
Probable space group: I M M M
;
_chemical_formula_sum "Si O2"
_cell_formula_units_Z 72
_cell_length_a 14.190593
_cell_length_b 26.119781
_cell_length_c 10.224457
_cell_angle_alpha 90.000000
_cell_angle_beta 90.000000
_cell_angle_gamma 90.000000
_cell_volume 3789.747964
_symmetry_space_group_name_H-M "I M M M"
_symmetry_group_IT_number 71
_symmetry_cell_setting 'orthorhombic'
loop_
_space_group_symop_operation_xyz
x,y,z
-x,-y,z
x,-y,-z
-x,y,-z
-x,-y,-z
x,y,-z
-x,y,z
x,-y,z
1/2+x,1/2+y,1/2+z
1/2-x,1/2-y,1/2+z
1/2+x,1/2-y,1/2-z
1/2-x,1/2+y,1/2-z
1/2-x,1/2-y,1/2-z
1/2+x,1/2+y,1/2-z
1/2-x,1/2+y,1/2+z
1/2+x,1/2-y,1/2+z
loop_
_atom_site_type_symbol
_atom_site_label
_atom_site_fract_x
_atom_site_fract_y
_atom_site_fract_z
Si Si1 0.805692 0.611695 0.150730
Si Si2 0.500000 0.382092 0.349681
Si Si3 0.296461 0.284569 0.858242
Si Si4 0.000000 0.774483 0.728492
Si Si5 0.682199 0.440806 0.349454
Si Si6 0.000000 0.662002 0.153190
O O1 0.731299 0.657247 0.165414
O O2 0.771499 0.568647 0.253172
O O3 0.908108 0.630861 0.198792
O O4 0.808974 0.591373 0.000000
O O5 0.500000 0.396468 0.500000
O O6 0.500000 0.320846 0.332619
O O7 0.594362 0.408145 0.291919
O O8 0.250000 0.250000 0.750000
O O9 0.408646 0.279796 0.861264
O O10 0.258075 0.266427 0.000000
O O11 0.000000 0.719434 0.794948
O O12 0.707767 0.425404 0.500000
O O13 0.654500 0.500000 0.342393
O O14 0.000000 0.668043 0.000000
#
# Coordination Sequence:
#
# PCOD8290332 Si02
#       6
#    16   8  16   8  16   8
#     4  10  21  39  59  82 114 151 193 237 283 339
#     4  10  20  33  57  89 118 155 190 226 280 350
#     4  11  23  37  56  83 118 158 195 235 280 336
#     4  12  20  35  56  88 123 155 185 234 280 344
#     4  10  21  39  61  86 115 147 190 243 293 341
#     4  10  21  37  57  85 117 153 192 233 277 336
#
# _framework density 18.998624
#
# number of rings (size 3 to 8) (size 9 to 14) (size 15 to 20)
#    0.000    1.556    4.444    1.000    0.000    3.556 
#    0.000    1.667    0.000    4.667    0.000    0.000 
#    0.000    0.000    0.000    0.000    0.000    0.000 
#
# Total GULP energy -446294.598901 kJ/mol
# GULP energy per Si atom -12397.072192 kJ/mol
# Density = 1.895538 g / cm^3
# Si number density = 18.998624 Si / 1000 Ang^3
#
#
#
# Elastic Constant Matrix: (Units=GPa)
#
#
# Indices 1 2 3 4 5 6 
#
# 1 120.6551 32.8896 39.5663 0.0008 0.0001 -0.0001
# 2 32.8896 64.7271 42.3298 0.0003 0.0001 0.0002
# 3 39.5663 42.3298 83.9187 -0.0041 -0.0019 -0.0006
# 4 0.0008 0.0003 -0.0041 31.1928 -0.0003 0.0003
# 5 0.0001 0.0001 -0.0019 -0.0003 26.3836 -0.0002
# 6 -0.0001 0.0002 -0.0006 0.0003 -0.0002 21.8659
#
#
#
# Elastic Compliance Matrix: (Units=1/GPa)
#
#
# Indices 1 2 3 4 5 6 
#
# 1 0.010189 -0.003038 -0.003272 -0.000001 0.000000 0.000000
# 2 -0.003038 0.023960 -0.010654 -0.000002 -0.000001 0.000000
# 3 -0.003272 -0.010654 0.018833 0.000003 0.000001 0.000001
# 4 -0.000001 -0.000002 0.000003 0.032059 0.000000 0.000000
# 5 0.000000 -0.000001 0.000001 0.000000 0.037902 0.000000
# 6 0.000000 0.000000 0.000001 0.000000 0.000000 0.045733
#
#
# Mechanical properties :
#
#
# Convention : Reuss Voigt Hill
#
# Bulk Modulus (GPa) = 52.47737 55.43025 53.95381
# Shear Modulus (GPa) = 23.92868 26.18947 25.05908
#
# Velocity S-wave (km/s) = 3.55279 3.71683 3.63574
# Velocity P-wave (km/s) = 6.67168 6.90356 6.78861
#
# Compressibility (1/GPa) = 0.01905583
#
# Stress axis : x y z
#
# Youngs Moduli (GPa) = 98.14481 41.73588 53.09920
#
# Poissons Ratio (x) = 0.12678 0.17372
# Poissons Ratio (y) = 0.29814 0.56570
# Poissons Ratio (z) = 0.32110 0.44464
#
# Static dielectric constant tensor:
#      x y z
#    x 3.889120 0.000000 0.000000 
#    y 0.000000 3.276720 0.000000 
#    z 0.000000 0.000000 3.433880 
# 
# 
# High freq. dielectric constant tensor:
#      x y z
#    x 1.748090 0.000000 0.000000 
#    y 0.000000 1.724330 0.000000 
#    z 0.000000 0.000000 1.731490 
# 
# From -- ./inp_files/6190.got.cif
#   From: 2010.06.25/outbox.cif.g09.slc.cpg/sg71_4_cif.got.tgz:6190.got - 2010.06.28 04:59:45.
