data_PCOD8290592
_publ_section_title
;
Structure prediction by ZEFSAII (Michael W. Deem and Ramdas Pophale) SiO2 
 PCOD8290592
Probable space group: I M M M
;
_chemical_formula_sum "Si O2"
_cell_formula_units_Z 120
_cell_length_a 9.061499
_cell_length_b 26.542356
_cell_length_c 27.630567
_cell_angle_alpha 90.000000
_cell_angle_beta 90.000000
_cell_angle_gamma 90.000000
_cell_volume 6645.525270
_symmetry_space_group_name_H-M "I M M M"
_symmetry_group_IT_number 71
_symmetry_cell_setting 'orthorhombic'
loop_
_space_group_symop_operation_xyz
x,y,z
-x,-y,z
x,-y,-z
-x,y,-z
-x,-y,-z
x,y,-z
-x,y,z
x,-y,z
1/2+x,1/2+y,1/2+z
1/2-x,1/2-y,1/2+z
1/2+x,1/2-y,1/2-z
1/2-x,1/2+y,1/2-z
1/2-x,1/2-y,1/2-z
1/2+x,1/2+y,1/2-z
1/2-x,1/2+y,1/2+z
1/2+x,1/2-y,1/2+z
loop_
_atom_site_type_symbol
_atom_site_label
_atom_site_fract_x
_atom_site_fract_y
_atom_site_fract_z
Si Si1 0.172356 0.911520 0.385766
Si Si2 0.827823 0.788120 0.053555
Si Si3 0.174252 0.735816 0.299708
Si Si4 0.170754 0.796683 0.606821
Si Si5 0.665099 0.058850 0.705882
Si Si6 0.673876 0.000000 0.556545
Si Si7 0.171995 0.557589 0.683838
Si Si8 0.173830 0.850665 0.855276
O O1 0.209247 0.854924 0.402205
O O2 0.219912 0.914878 0.329821
O O3 0.260389 0.949834 0.419634
O O4 0.000000 0.923953 0.389697
O O5 0.755415 0.734922 0.066525
O O6 0.782590 0.831882 0.091017
O O7 0.000000 0.778242 0.055565
O O8 0.776534 0.805001 0.000000
O O9 0.250000 0.750000 0.250000
O O10 0.215431 0.778585 0.339174
O O11 0.239666 0.682318 0.315948
O O12 0.000000 0.730375 0.292138
O O13 0.000000 0.785960 0.598933
O O14 0.500000 0.080243 0.697226
O O15 0.715574 0.069131 0.760661
O O16 0.665002 0.000000 0.694475
O O17 0.500000 0.000000 0.565696
O O18 0.713870 0.000000 0.500000
O O19 0.208723 0.500000 0.670835
O O20 0.271269 0.592021 0.649114
O O21 0.000000 0.568750 0.675414
O O22 0.000000 0.846876 0.845605
#
# Coordination Sequence:
#
# PCOD8290592 Si02
#       8
#    16  16  16  16  16   8  16  16
#     4  11  22  36  55  79 106 136 172 223 278 324
#     4   9  19  37  59  81 105 136 178 224 269 321
#     4  10  20  35  52  75 109 146 182 220 267 323
#     4   9  21  37  52  77 109 137 172 220 271 322
#     4   9  18  33  52  74 102 139 179 215 256 309
#     4  11  25  43  59  75  99 137 183 229 276 327
#     4   9  19  35  54  80 113 149 185 221 262 312
#     4  10  20  34  54  81 111 143 180 223 270 321
#
# _framework density 18.057264
#
# number of rings (size 3 to 8) (size 9 to 14) (size 15 to 20)
#    0.000    2.333    0.667    2.200    1.867    4.267 
#    0.000    4.000    0.000    0.400    0.000    2.800 
#    0.000    0.000    0.000    0.000    0.000    0.000 
#
# Total GULP energy -744061.310484 kJ/mol
# GULP energy per Si atom -12401.021841 kJ/mol
# Density = 1.801616 g / cm^3
# Si number density = 18.057264 Si / 1000 Ang^3
#
#
#
# Elastic Constant Matrix: (Units=GPa)
#
#
# Indices 1 2 3 4 5 6 
#
# 1 75.2621 54.9858 51.7167 0.0000 0.0000 0.0000
# 2 54.9858 110.0860 64.3740 0.0000 0.0000 0.0000
# 3 51.7167 64.3740 114.6029 0.0000 0.0000 0.0000
# 4 0.0000 0.0000 0.0000 19.4202 0.0000 0.0000
# 5 0.0000 0.0000 0.0000 0.0000 24.9632 0.0000
# 6 0.0000 0.0000 0.0000 0.0000 0.0000 30.5585
#
#
#
# Elastic Compliance Matrix: (Units=1/GPa)
#
#
# Indices 1 2 3 4 5 6 
#
# 1 0.023351 -0.008192 -0.005936 0.000000 0.000000 0.000000
# 2 -0.008192 0.016401 -0.005516 0.000000 0.000000 0.000000
# 3 -0.005936 -0.005516 0.014503 0.000000 0.000000 0.000000
# 4 0.000000 0.000000 0.000000 0.051493 0.000000 0.000000
# 5 0.000000 0.000000 0.000000 0.000000 0.040059 0.000000
# 6 0.000000 0.000000 0.000000 0.000000 0.000000 0.032724
#
#
# Mechanical properties :
#
#
# Convention : Reuss Voigt Hill
#
# Bulk Modulus (GPa) = 66.81386 71.34487 69.07937
# Shear Modulus (GPa) = 22.44088 23.58000 23.01044
#
# Velocity S-wave (km/s) = 3.52911 3.61757 3.57361
# Velocity P-wave (km/s) = 7.32718 7.55283 7.44086
#
# Compressibility (1/GPa) = 0.01496695
#
# Stress axis : x y z
#
# Youngs Moduli (GPa) = 42.82481 60.97135 68.95250
#
# Poissons Ratio (x) = 0.49950 0.40929
# Poissons Ratio (y) = 0.35083 0.38033
# Poissons Ratio (z) = 0.25420 0.33631
#
# Static dielectric constant tensor:
#      x y z
#    x 3.347750 0.000000 0.000000 
#    y 0.000000 3.348690 0.000000 
#    z 0.000000 0.000000 3.462270 
# 
# 
# High freq. dielectric constant tensor:
#      x y z
#    x 1.704030 0.000000 0.000000 
#    y 0.000000 1.695700 0.000000 
#    z 0.000000 0.000000 1.691010 
# 
# From -- ./inp_files/63811.got.cif
#   From: 2010.06.25/outbox.cif.g09.slc.cpg/sg71_32_cif.got.tgz:63811.got - 2010.06.28 04:59:45.
