data_PCOD8290464
_publ_section_title
;
Structure prediction by ZEFSAII (Michael W. Deem and Ramdas Pophale) SiO2 
 PCOD8290464
Probable space group: I M M M
;
_chemical_formula_sum "Si O2"
_cell_formula_units_Z 88
_cell_length_a 17.994331
_cell_length_b 8.816253
_cell_length_c 29.925670
_cell_angle_alpha 90.000000
_cell_angle_beta 90.000000
_cell_angle_gamma 90.000000
_cell_volume 4747.485337
_symmetry_space_group_name_H-M "I M M M"
_symmetry_group_IT_number 71
_symmetry_cell_setting 'orthorhombic'
loop_
_space_group_symop_operation_xyz
x,y,z
-x,-y,z
x,-y,-z
-x,y,-z
-x,-y,-z
x,y,-z
-x,y,z
x,-y,z
1/2+x,1/2+y,1/2+z
1/2-x,1/2-y,1/2+z
1/2+x,1/2-y,1/2-z
1/2-x,1/2+y,1/2-z
1/2-x,1/2-y,1/2-z
1/2+x,1/2+y,1/2-z
1/2-x,1/2+y,1/2+z
1/2+x,1/2-y,1/2+z
loop_
_atom_site_type_symbol
_atom_site_label
_atom_site_fract_x
_atom_site_fract_y
_atom_site_fract_z
Si Si1 0.348656 0.822764 0.448067
Si Si2 0.763274 0.676600 0.617409
Si Si3 0.914340 0.170812 0.745863
Si Si4 0.792034 0.321735 0.791835
Si Si5 0.917004 0.674542 0.652834
Si Si6 0.500000 0.327737 0.446908
O O1 0.339619 0.783422 0.500000
O O2 0.275796 0.756924 0.424238
O O3 0.425109 0.751782 0.428586
O O4 0.353028 0.000000 0.439002
O O5 0.744250 0.500000 0.615249
O O6 0.732322 0.743843 0.662895
O O7 0.853096 0.704625 0.615605
O O8 0.877871 0.281078 0.782613
O O9 0.897604 0.224077 0.695531
O O10 0.000000 0.176760 0.756994
O O11 0.882799 0.000000 0.749997
O O12 0.779047 0.500000 0.795184
O O13 0.750000 0.250000 0.750000
O O14 0.913895 0.500000 0.668506
O O15 0.000000 0.713557 0.633999
O O16 0.500000 0.500000 0.430004
O O17 0.500000 0.315308 0.500000
#
# Coordination Sequence:
#
# PCOD8290464 Si02
#       6
#    16  16  16  16  16   8
#     4  10  21  38  60  85 114 147 184 227 275 330
#     4  11  22  36  57  84 112 144 184 230 280 333
#     4  10  20  34  53  76 104 141 185 229 272 322
#     4  12  23  36  54  77 110 148 185 227 275 327
#     4   9  18  33  54  79 107 142 184 228 274 326
#     4   9  17  33  59  87 113 143 181 225 273 327
#
# _framework density 18.536128999999999
#
# number of rings (size 3 to 8) (size 9 to 14) (size 15 to 20)
#    0.000    1.727    1.818    3.545    0.000    4.000 
#    1.636    0.000    0.000    0.545    0.000    3.818 
#    0.000    0.000    0.000    0.000    0.000    0.000 
#
# Total GULP energy -545503.407431 kJ/mol
# GULP energy per Si atom -12397.804714 kJ/mol
# Density = 1.849394 g / cm^3
# Si number density = 18.536129 Si / 1000 Ang^3
#
#
#
# Elastic Constant Matrix: (Units=GPa)
#
#
# Indices 1 2 3 4 5 6 
#
# 1 133.5963 44.9661 53.5407 0.0000 0.0000 0.0000
# 2 44.9661 67.4858 46.3133 0.0000 0.0000 0.0000
# 3 53.5407 46.3133 63.8272 0.0000 0.0000 0.0000
# 4 0.0000 0.0000 0.0000 29.5845 0.0000 0.0000
# 5 0.0000 0.0000 0.0000 0.0000 29.9578 0.0000
# 6 0.0000 0.0000 0.0000 0.0000 0.0000 28.7941
#
#
#
# Elastic Compliance Matrix: (Units=1/GPa)
#
#
# Indices 1 2 3 4 5 6 
#
# 1 0.011418 -0.002061 -0.008082 0.000000 0.000000 0.000000
# 2 -0.002061 0.029887 -0.019957 0.000000 0.000000 0.000000
# 3 -0.008082 -0.019957 0.036928 0.000000 0.000000 0.000000
# 4 0.000000 0.000000 0.000000 0.033802 0.000000 0.000000
# 5 0.000000 0.000000 0.000000 0.000000 0.033380 0.000000
# 6 0.000000 0.000000 0.000000 0.000000 0.000000 0.034729
#
#
# Mechanical properties :
#
#
# Convention : Reuss Voigt Hill
#
# Bulk Modulus (GPa) = 55.45736 61.61660 58.53698
# Shear Modulus (GPa) = 20.29573 25.67322 22.98447
#
# Velocity S-wave (km/s) = 3.31256 3.72565 3.52516
# Velocity P-wave (km/s) = 6.67939 7.19866 6.94388
#
# Compressibility (1/GPa) = 0.01803187
#
# Stress axis : x y z
#
# Youngs Moduli (GPa) = 87.58007 33.45883 27.07968
#
# Poissons Ratio (x) = 0.06897 0.21886
# Poissons Ratio (y) = 0.18054 0.54044
# Poissons Ratio (z) = 0.70784 0.66775
#
# Static dielectric constant tensor:
#      x y z
#    x 3.944970 0.000000 0.000000 
#    y 0.000000 3.749530 0.000000 
#    z 0.000000 0.000000 3.168500 
# 
# 
# High freq. dielectric constant tensor:
#      x y z
#    x 1.739160 0.000000 0.000000 
#    y 0.000000 1.735520 0.000000 
#    z 0.000000 0.000000 1.674010 
# 
# From -- ./inp_files/49208.got.cif
#   From: 2010.06.25/outbox.cif.g09.slc.cpg/sg71_25_cif.got.tgz:49208.got - 2010.06.28 04:59:45.
