data_PCOD8290536
_publ_section_title
;
Structure prediction by ZEFSAII (Michael W. Deem and Ramdas Pophale) SiO2 
 PCOD8290536
Probable space group: I M M M
;
_chemical_formula_sum "Si O2"
_cell_formula_units_Z 96
_cell_length_a 13.886058
_cell_length_b 17.518990
_cell_length_c 21.820835
_cell_angle_alpha 90.000000
_cell_angle_beta 90.000000
_cell_angle_gamma 90.000000
_cell_volume 5308.348229
_symmetry_space_group_name_H-M "I M M M"
_symmetry_group_IT_number 71
_symmetry_cell_setting 'orthorhombic'
loop_
_space_group_symop_operation_xyz
x,y,z
-x,-y,z
x,-y,-z
-x,y,-z
-x,-y,-z
x,y,-z
-x,y,z
x,-y,z
1/2+x,1/2+y,1/2+z
1/2-x,1/2-y,1/2+z
1/2+x,1/2-y,1/2-z
1/2-x,1/2+y,1/2-z
1/2-x,1/2-y,1/2-z
1/2+x,1/2+y,1/2-z
1/2-x,1/2+y,1/2+z
1/2+x,1/2-y,1/2+z
loop_
_atom_site_type_symbol
_atom_site_label
_atom_site_fract_x
_atom_site_fract_y
_atom_site_fract_z
Si Si1 0.885644 0.853054 0.639518
Si Si2 0.613771 0.797196 0.931181
Si Si3 0.385976 0.500000 0.933029
Si Si4 0.225606 0.162677 0.761089
Si Si5 0.390245 0.088683 0.826968
Si Si6 0.395016 0.409929 0.500000
Si Si7 0.885132 0.087605 0.132423
O O1 0.848377 0.777578 0.604647
O O2 0.833569 0.867056 0.703587
O O3 0.000000 0.850642 0.650866
O O4 0.850613 0.924233 0.600051
O O5 0.500000 0.790481 0.938134
O O6 0.641863 0.870428 0.890245
O O7 0.658853 0.803406 0.000000
O O8 0.500000 0.500000 0.937262
O O9 0.339051 0.500000 0.000000
O O10 0.250000 0.250000 0.750000
O O11 0.325774 0.117049 0.770046
O O12 0.160292 0.147766 0.820781
O O13 0.500000 0.109188 0.810033
O O14 0.375293 0.000000 0.838847
O O15 0.409720 0.500000 0.500000
O O16 0.500000 0.370587 0.500000
O O17 0.343896 0.388101 0.435393
O O18 0.000000 0.094286 0.133668
O O19 0.854589 0.000000 0.148567
#
# Coordination Sequence:
#
# PCOD8290536 Si02
#       7
#    16  16   8  16  16   8  16
#     4  10  20  34  53  81 114 143 174 217 269 326
#     4   9  17  33  56  77 103 141 178 217 268 322
#     4   9  18  32  54  84 113 142 172 211 269 332
#     4  12  23  35  51  76 108 143 183 219 266 318
#     4  10  22  39  55  74 104 142 186 231 266 310
#     4   7  12  28  52  78 107 135 162 197 255 317
#     4   9  18  33  56  83 109 136 167 212 264 319
#
# _framework density 18.084720999999998
#
# number of rings (size 3 to 8) (size 9 to 14) (size 15 to 20)
#    0.000    2.333    1.667    2.500    2.333    3.000 
#    1.500    1.667    0.000    0.000    0.000    0.000 
#    0.000    0.667    0.000    0.000    0.000    1.000 
#
# Total GULP energy -594882.820672 kJ/mol
# GULP energy per Si atom -12393.392097 kJ/mol
# Density = 1.804356 g / cm^3
# Si number density = 18.084721 Si / 1000 Ang^3
#
#
#
# Elastic Constant Matrix: (Units=GPa)
#
#
# Indices 1 2 3 4 5 6 
#
# 1 57.7632 27.7438 46.9308 0.0000 0.0000 0.0000
# 2 27.7438 125.8386 73.0256 0.0000 0.0000 0.0000
# 3 46.9308 73.0256 169.7036 0.0000 0.0000 0.0000
# 4 0.0000 0.0000 0.0000 31.8087 0.0000 0.0000
# 5 0.0000 0.0000 0.0000 0.0000 17.7585 0.0000
# 6 0.0000 0.0000 0.0000 0.0000 0.0000 17.9449
#
#
#
# Elastic Compliance Matrix: (Units=1/GPa)
#
#
# Indices 1 2 3 4 5 6 
#
# 1 0.022634 -0.001810 -0.005481 0.000000 0.000000 0.000000
# 2 -0.001810 0.010736 -0.004119 0.000000 0.000000 0.000000
# 3 -0.005481 -0.004119 0.009181 0.000000 0.000000 0.000000
# 4 0.000000 0.000000 0.000000 0.031438 0.000000 0.000000
# 5 0.000000 0.000000 0.000000 0.000000 0.056311 0.000000
# 6 0.000000 0.000000 0.000000 0.000000 0.000000 0.055726
#
#
# Mechanical properties :
#
#
# Convention : Reuss Voigt Hill
#
# Bulk Modulus (GPa) = 50.67992 72.07842 61.37917
# Shear Modulus (GPa) = 23.21014 27.20945 25.20980
#
# Velocity S-wave (km/s) = 3.58636 3.88307 3.73766
# Velocity P-wave (km/s) = 6.72560 7.74899 7.25536
#
# Compressibility (1/GPa) = 0.01973168
#
# Stress axis : x y z
#
# Youngs Moduli (GPa) = 44.18114 93.14236 108.92143
#
# Poissons Ratio (x) = 0.16856 0.59696
# Poissons Ratio (y) = 0.07995 0.44870
# Poissons Ratio (z) = 0.24214 0.38370
#
# Static dielectric constant tensor:
#      x y z
#    x 3.223640 0.000000 0.000000 
#    y 0.000000 3.280030 0.000000 
#    z 0.000000 0.000000 3.778130 
# 
# 
# High freq. dielectric constant tensor:
#      x y z
#    x 1.678360 0.000000 0.000000 
#    y 0.000000 1.692950 0.000000 
#    z 0.000000 0.000000 1.709230 
# 
# From -- ./inp_files/34549.got.cif
#   From: 2010.06.25/outbox.cif.g09.slc.cpg/sg71_18_cif.got.tgz:34549.got - 2010.06.28 04:59:45.
