data_PCOD8290601
_publ_section_title
;
Structure prediction by ZEFSAII (Michael W. Deem and Ramdas Pophale) SiO2 
 PCOD8290601
Probable space group: I M M M
;
_chemical_formula_sum "Si O2"
_cell_formula_units_Z 104
_cell_length_a 20.984902
_cell_length_b 8.765686
_cell_length_c 28.366020
_cell_angle_alpha 90.000000
_cell_angle_beta 90.000000
_cell_angle_gamma 90.000000
_cell_volume 5217.846030
_symmetry_space_group_name_H-M "I M M M"
_symmetry_group_IT_number 71
_symmetry_cell_setting 'orthorhombic'
loop_
_space_group_symop_operation_xyz
x,y,z
-x,-y,z
x,-y,-z
-x,y,-z
-x,-y,-z
x,y,-z
-x,y,z
x,-y,z
1/2+x,1/2+y,1/2+z
1/2-x,1/2-y,1/2+z
1/2+x,1/2-y,1/2-z
1/2-x,1/2+y,1/2-z
1/2-x,1/2-y,1/2-z
1/2+x,1/2+y,1/2-z
1/2-x,1/2+y,1/2+z
1/2+x,1/2-y,1/2+z
loop_
_atom_site_type_symbol
_atom_site_label
_atom_site_fract_x
_atom_site_fract_y
_atom_site_fract_z
Si Si1 0.374848 0.819950 0.946165
Si Si2 0.257212 0.172334 0.555589
Si Si3 0.571922 0.324945 0.859803
Si Si4 0.625879 0.680474 0.393261
Si Si5 0.818743 0.320744 0.300298
Si Si6 0.687007 0.820719 0.307353
Si Si7 0.500000 0.318509 0.446286
O O1 0.306446 0.759632 0.928976
O O2 0.426767 0.739235 0.913170
O O3 0.377190 0.000000 0.939283
O O4 0.389348 0.773336 0.000000
O O5 0.263464 0.169831 0.500000
O O6 0.315923 0.265715 0.575179
O O7 0.256394 0.000000 0.575976
O O8 0.500000 0.308057 0.840850
O O9 0.594072 0.500000 0.859159
O O10 0.617487 0.225792 0.826964
O O11 0.625070 0.500000 0.390056
O O12 0.632903 0.747340 0.340572
O O13 0.561565 0.742001 0.417889
O O14 0.807660 0.500000 0.304939
O O15 0.757096 0.238237 0.322664
O O16 0.827413 0.270106 0.246031
O O17 0.684881 0.000000 0.313846
O O18 0.500000 0.500000 0.448283
O O19 0.500000 0.253927 0.500000
#
# Coordination Sequence:
#
# PCOD8290601 Si02
#       7
#    16  16  16  16  16  16   8
#     4  10  21  37  58  84 113 147 189 235 279 328
#     4  10  20  34  54  81 113 147 185 233 287 338
#     4  11  24  40  58  82 114 153 190 228 278 334
#     4  11  21  35  57  83 112 149 192 238 287 343
#     4  10  21  39  63  88 114 148 189 235 284 338
#     4  10  21  38  61  88 117 146 182 233 290 344
#     4   9  20  38  57  79 111 153 199 243 286 339
#
# _framework density 19.931597
#
# number of rings (size 3 to 8) (size 9 to 14) (size 15 to 20)
#    0.000    1.769    0.000    4.154    0.000    5.846 
#    1.385    3.077    0.000    2.769    0.000    0.000 
#    0.000    0.000    0.000    0.000    0.000    0.000 
#
# Total GULP energy -644989.623905 kJ/mol
# GULP energy per Si atom -12403.646614 kJ/mol
# Density = 1.988623 g / cm^3
# Si number density = 19.931597 Si / 1000 Ang^3
#
#
#
# Elastic Constant Matrix: (Units=GPa)
#
#
# Indices 1 2 3 4 5 6 
#
# 1 81.4781 13.3684 36.6628 0.0000 0.0000 0.0000
# 2 13.3684 62.6571 12.2781 0.0000 0.0000 0.0000
# 3 36.6628 12.2781 65.5851 0.0000 0.0000 0.0000
# 4 0.0000 0.0000 0.0000 34.6994 0.0000 0.0000
# 5 0.0000 0.0000 0.0000 0.0000 35.0154 0.0000
# 6 0.0000 0.0000 0.0000 0.0000 0.0000 28.7671
#
#
#
# Elastic Compliance Matrix: (Units=1/GPa)
#
#
# Indices 1 2 3 4 5 6 
#
# 1 0.016589 -0.001788 -0.008939 0.000000 0.000000 0.000000
# 2 -0.001788 0.016760 -0.002138 0.000000 0.000000 0.000000
# 3 -0.008939 -0.002138 0.020644 0.000000 0.000000 0.000000
# 4 0.000000 0.000000 0.000000 0.028819 0.000000 0.000000
# 5 0.000000 0.000000 0.000000 0.000000 0.028559 0.000000
# 6 0.000000 0.000000 0.000000 0.000000 0.000000 0.034762
#
#
# Mechanical properties :
#
#
# Convention : Reuss Voigt Hill
#
# Bulk Modulus (GPa) = 35.38048 37.14877 36.26462
# Shear Modulus (GPa) = 27.58107 29.52378 28.55243
#
# Velocity S-wave (km/s) = 3.72396 3.85288 3.78897
# Velocity P-wave (km/s) = 6.02329 6.20254 6.11357
#
# Compressibility (1/GPa) = 0.02826418
#
# Stress axis : x y z
#
# Youngs Moduli (GPa) = 60.28220 59.66468 48.43923
#
# Poissons Ratio (x) = 0.10666 0.43298
# Poissons Ratio (y) = 0.10777 0.10358
# Poissons Ratio (z) = 0.53884 0.12758
#
# Static dielectric constant tensor:
#      x y z
#    x 3.586140 0.000000 0.000000 
#    y 0.000000 3.639480 0.000000 
#    z 0.000000 0.000000 3.891060 
# 
# 
# High freq. dielectric constant tensor:
#      x y z
#    x 1.768320 0.000000 0.000000 
#    y 0.000000 1.783340 0.000000 
#    z 0.000000 0.000000 1.789140 
# 
# From -- ./inp_files/17004.got.cif
#   From: 2010.06.25/outbox.cif.g09.slc.cpg/sg71_9_cif.got.tgz:17004.got - 2010.06.28 04:59:45.
