data_PCOD8290314
_publ_section_title
;
Structure prediction by ZEFSAII (Michael W. Deem and Ramdas Pophale) SiO2 
 PCOD8290314
Probable space group: I M M M
;
_chemical_formula_sum "Si O2"
_cell_formula_units_Z 72
_cell_length_a 9.529513
_cell_length_b 11.736265
_cell_length_c 35.242868
_cell_angle_alpha 90.000000
_cell_angle_beta 90.000000
_cell_angle_gamma 90.000000
_cell_volume 3941.593719
_symmetry_space_group_name_H-M "I M M M"
_symmetry_group_IT_number 71
_symmetry_cell_setting 'orthorhombic'
loop_
_space_group_symop_operation_xyz
x,y,z
-x,-y,z
x,-y,-z
-x,y,-z
-x,-y,-z
x,y,-z
-x,y,z
x,-y,z
1/2+x,1/2+y,1/2+z
1/2-x,1/2-y,1/2+z
1/2+x,1/2-y,1/2-z
1/2-x,1/2+y,1/2-z
1/2-x,1/2-y,1/2-z
1/2+x,1/2+y,1/2-z
1/2-x,1/2+y,1/2+z
1/2+x,1/2-y,1/2+z
loop_
_atom_site_type_symbol
_atom_site_label
_atom_site_fract_x
_atom_site_fract_y
_atom_site_fract_z
Si Si1 0.837247 0.131218 0.860461
Si Si2 0.837227 0.751719 0.424804
Si Si3 0.337620 0.229521 0.287328
Si Si4 0.158634 0.000000 0.403120
Si Si5 0.664477 0.000000 0.671916
Si Si6 0.833148 0.370868 0.500000
O O1 0.745933 0.206170 0.888717
O O2 0.807163 0.170705 0.817534
O O3 0.000000 0.150533 0.870584
O O4 0.793206 0.000000 0.864171
O O5 0.815803 0.887797 0.428701
O O6 0.776033 0.693428 0.462746
O O7 0.000000 0.719829 0.419095
O O8 0.500000 0.225954 0.275859
O O9 0.250000 0.250000 0.250000
O O10 0.288207 0.110066 0.304773
O O11 0.262904 0.000000 0.368363
O O12 0.000000 0.000000 0.387115
O O13 0.500000 0.000000 0.663621
O O14 0.775777 0.500000 0.500000
O O15 0.000000 0.368303 0.500000
#
# Coordination Sequence:
#
# PCOD8290314 Si02
#       6
#    16  16  16   8   8   8
#     4  10  21  37  56  79 108 142 179 220 269 324
#     4  10  20  35  56  82 110 143 182 223 270 324
#     4  10  22  37  55  79 106 140 180 223 271 321
#     4  10  20  33  54  84 110 140 186 230 271 319
#     4  10  20  38  59  77 105 148 188 221 271 332
#     4   9  18  33  54  80 111 145 180 221 272 326
#
# _framework density 18.266721
#
# number of rings (size 3 to 8) (size 9 to 14) (size 15 to 20)
#    0.000    2.111    2.222    0.667    1.556    3.556 
#    0.000    2.778    0.000    2.000    0.000    2.333 
#    0.000    0.000    0.000    0.000    0.000    0.000 
#
# Total GULP energy -446479.273608 kJ/mol
# GULP energy per Si atom -12402.202045 kJ/mol
# Density = 1.822515 g / cm^3
# Si number density = 18.266721 Si / 1000 Ang^3
#
#
#
# Elastic Constant Matrix: (Units=GPa)
#
#
# Indices 1 2 3 4 5 6 
#
# 1 40.5781 33.3061 39.6422 0.0000 0.0000 0.0000
# 2 33.3061 140.1002 50.7310 0.0000 0.0000 0.0000
# 3 39.6422 50.7310 111.9182 0.0000 0.0000 0.0000
# 4 0.0000 0.0000 0.0000 35.9236 0.0000 0.0000
# 5 0.0000 0.0000 0.0000 0.0000 24.7323 0.0000
# 6 0.0000 0.0000 0.0000 0.0000 0.0000 20.5063
#
#
#
# Elastic Compliance Matrix: (Units=1/GPa)
#
#
# Indices 1 2 3 4 5 6 
#
# 1 0.040770 -0.005339 -0.012021 0.000000 0.000000 0.000000
# 2 -0.005339 0.009239 -0.002296 0.000000 0.000000 0.000000
# 3 -0.012021 -0.002296 0.014234 0.000000 0.000000 0.000000
# 4 0.000000 0.000000 0.000000 0.027837 0.000000 0.000000
# 5 0.000000 0.000000 0.000000 0.000000 0.040433 0.000000
# 6 0.000000 0.000000 0.000000 0.000000 0.000000 0.048765
#
#
# Mechanical properties :
#
#
# Convention : Reuss Voigt Hill
#
# Bulk Modulus (GPa) = 40.11373 59.99499 50.05436
# Shear Modulus (GPa) = 21.84356 27.49358 24.66857
#
# Velocity S-wave (km/s) = 3.46180 3.88379 3.67885
# Velocity P-wave (km/s) = 6.16331 7.28196 6.74587
#
# Compressibility (1/GPa) = 0.02492912
#
# Stress axis : x y z
#
# Youngs Moduli (GPa) = 24.52799 108.24063 70.25514
#
# Poissons Ratio (x) = 0.57795 0.84451
# Poissons Ratio (y) = 0.13097 0.16134
# Poissons Ratio (z) = 0.29484 0.24857
#
# Static dielectric constant tensor:
#      x y z
#    x 3.223980 0.000000 0.000000 
#    y 0.000000 4.038010 0.000000 
#    z 0.000000 0.000000 3.292520 
# 
# 
# High freq. dielectric constant tensor:
#      x y z
#    x 1.690680 0.000000 0.000000 
#    y 0.000000 1.729230 0.000000 
#    z 0.000000 0.000000 1.704380 
# 
# From -- ./inp_files/64278.got.cif
#   From: 2010.06.25/outbox.cif.g09.slc.cpg/sg71_33_cif.got.tgz:64278.got - 2010.06.28 04:59:45.
