data_PCOD8290735
_publ_section_title
;
Structure prediction by ZEFSAII (Michael W. Deem and Ramdas Pophale) SiO2 
 PCOD8290735
Probable space group: I M M M
;
_chemical_formula_sum "Si O2"
_cell_formula_units_Z 96
_cell_length_a 20.622061
_cell_length_b 13.682608
_cell_length_c 17.379626
_cell_angle_alpha 90.000000
_cell_angle_beta 90.000000
_cell_angle_gamma 90.000000
_cell_volume 4903.897436
_symmetry_space_group_name_H-M "I M M M"
_symmetry_group_IT_number 71
_symmetry_cell_setting 'orthorhombic'
loop_
_space_group_symop_operation_xyz
x,y,z
-x,-y,z
x,-y,-z
-x,y,-z
-x,-y,-z
x,y,-z
-x,y,z
x,-y,z
1/2+x,1/2+y,1/2+z
1/2-x,1/2-y,1/2+z
1/2+x,1/2-y,1/2-z
1/2-x,1/2+y,1/2-z
1/2-x,1/2-y,1/2-z
1/2+x,1/2+y,1/2-z
1/2-x,1/2+y,1/2+z
1/2+x,1/2-y,1/2+z
loop_
_atom_site_type_symbol
_atom_site_label
_atom_site_fract_x
_atom_site_fract_y
_atom_site_fract_z
Si Si1 0.573417 0.247059 0.410972
Si Si2 0.428480 0.115274 0.085048
Si Si3 0.339280 0.110644 0.326708
Si Si4 0.287953 0.390620 0.911911
Si Si5 0.311874 0.796644 0.828770
Si Si6 0.311226 0.610575 0.410157
O O1 0.578618 0.217009 0.500000
O O2 0.500000 0.277536 0.389811
O O3 0.593519 0.154240 0.358758
O O4 0.620574 0.337598 0.391646
O O5 0.500000 0.153524 0.109549
O O6 0.376194 0.147382 0.146463
O O7 0.429000 0.000000 0.081961
O O8 0.410913 0.156172 0.000000
O O9 0.289193 0.110724 0.397548
O O10 0.307536 0.182519 0.262275
O O11 0.350555 0.000000 0.295546
O O12 0.315394 0.500000 0.897019
O O13 0.322558 0.316843 0.852080
O O14 0.300347 0.358255 0.000000
O O15 0.247321 0.835328 0.868764
O O16 0.295498 0.612882 0.500000
O O17 0.316205 0.500000 0.379503
#
# Coordination Sequence:
#
# PCOD8290735 Si02
#       6
#    16  16  16  16  16  16
#     4  10  22  40  59  81 115 162 211 252 292 342
#     4   9  18  32  51  78 113 151 187 226 281 350
#     4  11  23  37  56  85 118 150 189 243 303 357
#     4  10  21  37  58  83 113 152 195 238 284 341
#     4  12  21  35  58  88 117 151 188 241 301 357
#     4  10  20  34  57  88 118 153 199 248 295 349
#
# _framework density 19.576264999999999
#
# number of rings (size 3 to 8) (size 9 to 14) (size 15 to 20)
#    0.000    1.667    1.667    4.500    0.000    3.667 
#    0.000    2.500    0.000    0.500    0.000    2.333 
#    0.000    0.000    0.000    0.000    0.000    0.000 
#
# Total GULP energy -595138.746554 kJ/mol
# GULP energy per Si atom -12398.723887 kJ/mol
# Density = 1.953171 g / cm^3
# Si number density = 19.576265 Si / 1000 Ang^3
#
#
#
# Elastic Constant Matrix: (Units=GPa)
#
#
# Indices 1 2 3 4 5 6 
#
# 1 98.5379 31.4497 23.2673 0.0000 0.0000 0.0000
# 2 31.4497 121.9993 47.2479 0.0000 0.0000 0.0000
# 3 23.2673 47.2479 64.7006 0.0000 0.0000 0.0000
# 4 0.0000 0.0000 0.0000 31.6084 0.0000 0.0000
# 5 0.0000 0.0000 0.0000 0.0000 7.9004 0.0000
# 6 0.0000 0.0000 0.0000 0.0000 0.0000 25.0309
#
#
#
# Elastic Compliance Matrix: (Units=1/GPa)
#
#
# Indices 1 2 3 4 5 6 
#
# 1 0.011392 -0.001883 -0.002722 0.000000 0.000000 0.000000
# 2 -0.001883 0.011740 -0.007896 0.000000 0.000000 0.000000
# 3 -0.002722 -0.007896 0.022201 0.000000 0.000000 0.000000
# 4 0.000000 0.000000 0.000000 0.031637 0.000000 0.000000
# 5 0.000000 0.000000 0.000000 0.000000 0.126577 0.000000
# 6 0.000000 0.000000 0.000000 0.000000 0.000000 0.039951
#
#
# Mechanical properties :
#
#
# Convention : Reuss Voigt Hill
#
# Bulk Modulus (GPa) = 49.18489 54.35195 51.76842
# Shear Modulus (GPa) = 18.16357 25.12613 21.64485
#
# Velocity S-wave (km/s) = 3.04935 3.58648 3.32877
# Velocity P-wave (km/s) = 6.13003 6.70634 6.42465
#
# Compressibility (1/GPa) = 0.02033145
#
# Stress axis : x y z
#
# Youngs Moduli (GPa) = 87.78138 85.17789 45.04302
#
# Poissons Ratio (x) = 0.16035 0.12261
# Poissons Ratio (y) = 0.16525 0.35567
# Poissons Ratio (z) = 0.23894 0.67259
#
# Static dielectric constant tensor:
#      x y z
#    x 3.555170 0.000000 0.000000 
#    y 0.000000 3.763560 0.000000 
#    z 0.000000 0.000000 3.612620 
# 
# 
# High freq. dielectric constant tensor:
#      x y z
#    x 1.746680 0.000000 0.000000 
#    y 0.000000 1.762490 0.000000 
#    z 0.000000 0.000000 1.760200 
# 
# From -- ./inp_files/34524.got.cif
#   From: 2010.06.25/outbox.cif.g09.slc.cpg/sg71_18_cif.got.tgz:34524.got - 2010.06.28 04:59:45.
