data_PCOD8290466
_publ_section_title
;
Structure prediction by ZEFSAII (Michael W. Deem and Ramdas Pophale) SiO2 
 PCOD8290466
Probable space group: I M M M
;
_chemical_formula_sum "Si O2"
_cell_formula_units_Z 104
_cell_length_a 27.082980
_cell_length_b 23.573597
_cell_length_c 8.276445
_cell_angle_alpha 90.000000
_cell_angle_beta 90.000000
_cell_angle_gamma 90.000000
_cell_volume 5284.040495
_symmetry_space_group_name_H-M "I M M M"
_symmetry_group_IT_number 71
_symmetry_cell_setting 'orthorhombic'
loop_
_space_group_symop_operation_xyz
x,y,z
-x,-y,z
x,-y,-z
-x,y,-z
-x,-y,-z
x,y,-z
-x,y,z
x,-y,z
1/2+x,1/2+y,1/2+z
1/2-x,1/2-y,1/2+z
1/2+x,1/2-y,1/2-z
1/2-x,1/2+y,1/2-z
1/2-x,1/2-y,1/2-z
1/2+x,1/2+y,1/2-z
1/2-x,1/2+y,1/2+z
1/2+x,1/2-y,1/2+z
loop_
_atom_site_type_symbol
_atom_site_label
_atom_site_fract_x
_atom_site_fract_y
_atom_site_fract_z
Si Si1 0.624622 0.936371 0.689971
Si Si2 0.891038 0.933539 0.820519
Si Si3 0.204360 0.347808 0.815455
Si Si4 0.690911 0.348710 0.320777
Si Si5 0.055644 0.659365 0.308736
Si Si6 0.861791 0.256018 0.685431
Si Si7 0.554835 0.567575 0.000000
O O1 0.618165 0.940004 0.500000
O O2 0.676606 0.906012 0.735933
O O3 0.578479 0.900950 0.758245
O O4 0.624644 0.000000 0.764510
O O5 0.836106 0.908885 0.811084
O O6 0.921398 0.908993 0.667083
O O7 0.885837 0.000000 0.800062
O O8 0.914309 0.919106 0.000000
O O9 0.263184 0.352013 0.800014
O O10 0.185396 0.297053 0.702995
O O11 0.191336 0.333030 0.000000
O O12 0.711424 0.336907 0.500000
O O13 0.649606 0.301643 0.279450
O O14 0.054932 0.661993 0.500000
O O15 0.089753 0.711421 0.243248
O O16 0.000000 0.665100 0.238685
O O17 0.869887 0.240239 0.500000
O O18 0.555580 0.500000 0.000000
O O19 0.500000 0.592016 0.000000
#
# Coordination Sequence:
#
# PCOD8290466 Si02
#       7
#    16  16  16  16  16  16   8
#     4   9  19  35  53  78 111 143 180 224 268 320
#     4   9  20  37  55  80 114 145 178 225 275 329
#     4  10  20  34  53  76 105 141 182 224 271 324
#     4  11  22  35  54  78 108 142 179 221 273 330
#     4   9  19  36  56  78 105 140 181 225 275 324
#     4  10  20  35  55  76 104 138 180 228 274 326
#     4   9  18  34  58  82 104 138 180 218 262 320
#
# _framework density 19.681906999999999
#
# number of rings (size 3 to 8) (size 9 to 14) (size 15 to 20)
#    0.000    2.385    0.000    1.846    2.154    3.077 
#    0.000    3.846    0.000    0.923    0.000    0.000 
#    0.000    0.000    0.000    0.000    0.000    0.000 
#
# Total GULP energy -644556.477882 kJ/mol
# GULP energy per Si atom -12395.316882 kJ/mol
# Density = 1.963711 g / cm^3
# Si number density = 19.681907 Si / 1000 Ang^3
#
#
#
# Elastic Constant Matrix: (Units=GPa)
#
#
# Indices 1 2 3 4 5 6 
#
# 1 125.8791 47.4012 32.1158 0.0000 0.0000 0.0000
# 2 47.4012 44.7457 21.8186 0.0000 0.0000 0.0000
# 3 32.1158 21.8186 75.7751 0.0000 0.0000 0.0000
# 4 0.0000 0.0000 0.0000 23.2311 0.0000 0.0000
# 5 0.0000 0.0000 0.0000 0.0000 27.1030 0.0000
# 6 0.0000 0.0000 0.0000 0.0000 0.0000 18.8738
#
#
#
# Elastic Compliance Matrix: (Units=1/GPa)
#
#
# Indices 1 2 3 4 5 6 
#
# 1 0.013437 -0.013329 -0.001857 0.000000 0.000000 0.000000
# 2 -0.013329 0.039221 -0.005644 0.000000 0.000000 0.000000
# 3 -0.001857 -0.005644 0.015609 0.000000 0.000000 0.000000
# 4 0.000000 0.000000 0.000000 0.043046 0.000000 0.000000
# 5 0.000000 0.000000 0.000000 0.000000 0.036896 0.000000
# 6 0.000000 0.000000 0.000000 0.000000 0.000000 0.052984
#
#
# Mechanical properties :
#
#
# Convention : Reuss Voigt Hill
#
# Bulk Modulus (GPa) = 37.58434 49.89679 43.74057
# Shear Modulus (GPa) = 19.86321 23.51253 21.68787
#
# Velocity S-wave (km/s) = 3.18026 3.46009 3.32312
# Velocity P-wave (km/s) = 5.71163 6.43192 6.08245
#
# Compressibility (1/GPa) = 0.02660682
#
# Stress axis : x y z
#
# Youngs Moduli (GPa) = 74.42052 25.49673 64.06499
#
# Poissons Ratio (x) = 0.33985 0.11898
# Poissons Ratio (y) = 0.99196 0.36158
# Poissons Ratio (z) = 0.13821 0.14390
#
# Static dielectric constant tensor:
#      x y z
#    x 3.586120 0.000000 0.000000 
#    y 0.000000 3.615270 0.000000 
#    z 0.000000 0.000000 3.696920 
# 
# 
# High freq. dielectric constant tensor:
#      x y z
#    x 1.755510 0.000000 0.000000 
#    y 0.000000 1.757810 0.000000 
#    z 0.000000 0.000000 1.771350 
# 
# From -- ./inp_files/15286.got.cif
#   From: 2010.06.25/outbox.cif.g09.slc.cpg/sg71_8_cif.got.tgz:15286.got - 2010.06.28 04:59:45.
