data_PCOD8290802
_publ_section_title
;
Structure prediction by ZEFSAII (Michael W. Deem and Ramdas Pophale) SiO2 
 PCOD8290802
Probable space group: I M M M
;
_chemical_formula_sum "Si O2"
_cell_formula_units_Z 104
_cell_length_a 8.984965
_cell_length_b 23.837065
_cell_length_c 26.220117
_cell_angle_alpha 90.000000
_cell_angle_beta 90.000000
_cell_angle_gamma 90.000000
_cell_volume 5615.698664
_symmetry_space_group_name_H-M "I M M M"
_symmetry_group_IT_number 71
_symmetry_cell_setting 'orthorhombic'
loop_
_space_group_symop_operation_xyz
x,y,z
-x,-y,z
x,-y,-z
-x,y,-z
-x,-y,-z
x,y,-z
-x,y,z
x,-y,z
1/2+x,1/2+y,1/2+z
1/2-x,1/2-y,1/2+z
1/2+x,1/2-y,1/2-z
1/2-x,1/2+y,1/2-z
1/2-x,1/2-y,1/2-z
1/2+x,1/2+y,1/2-z
1/2-x,1/2+y,1/2+z
1/2+x,1/2-y,1/2+z
loop_
_atom_site_type_symbol
_atom_site_label
_atom_site_fract_x
_atom_site_fract_y
_atom_site_fract_z
Si Si1 0.174854 0.847728 0.786106
Si Si2 0.325215 0.850832 0.058016
Si Si3 0.672644 0.845088 0.678814
Si Si4 0.669920 0.937293 0.402192
Si Si5 0.166875 0.066872 0.500000
Si Si6 0.673839 0.436365 0.629655
Si Si7 0.324254 0.762258 0.858194
O O1 0.230030 0.854108 0.728898
O O2 0.209768 0.904616 0.817367
O O3 0.267735 0.796862 0.809647
O O4 0.000000 0.833357 0.787146
O O5 0.500000 0.860821 0.060320
O O6 0.251046 0.905849 0.082111
O O7 0.281529 0.795134 0.089855
O O8 0.269319 0.842909 0.000000
O O9 0.500000 0.832820 0.691774
O O10 0.692904 0.902742 0.648953
O O11 0.738106 0.796433 0.642694
O O12 0.500000 0.938349 0.419578
O O13 0.758013 0.908953 0.449017
O O14 0.728824 0.000000 0.390683
O O15 0.000000 0.088726 0.500000
O O16 0.182115 0.000000 0.500000
O O17 0.500000 0.435729 0.618217
O O18 0.734079 0.500000 0.634174
O O19 0.500000 0.752397 0.853469
#
# Coordination Sequence:
#
# PCOD8290802 Si02
#       7
#    16  16  16  16   8  16  16
#     4  10  20  35  55  76 104 140 177 216 263 311
#     4   9  19  36  56  78 106 140 178 220 266 313
#     4  11  22  35  53  79 107 134 174 219 261 313
#     4   9  19  36  55  74 102 139 172 206 254 312
#     4   9  17  31  53  77  99 127 165 207 248 293
#     4   9  19  35  54  79 110 143 179 217 261 314
#     4  10  20  36  56  76 103 138 177 217 265 316
#
# _framework density 18.519511999999999
#
# number of rings (size 3 to 8) (size 9 to 14) (size 15 to 20)
#    0.000    2.385    0.000    2.077    0.000    4.923 
#    1.385    1.538    0.000    0.000    0.000    0.000 
#    0.000    0.000    0.000    0.000    0.000    0.000 
#
# Total GULP energy -644845.285876 kJ/mol
# GULP energy per Si atom -12400.870882 kJ/mol
# Density = 1.847736 g / cm^3
# Si number density = 18.519512 Si / 1000 Ang^3
#
#
#
# Elastic Constant Matrix: (Units=GPa)
#
#
# Indices 1 2 3 4 5 6 
#
# 1 54.4453 31.0942 29.7865 0.0000 0.0000 0.0000
# 2 31.0942 97.8790 46.1710 0.0000 0.0000 0.0000
# 3 29.7865 46.1710 104.2983 0.0000 0.0000 0.0000
# 4 0.0000 0.0000 0.0000 16.0146 0.0000 0.0000
# 5 0.0000 0.0000 0.0000 0.0000 29.8196 0.0000
# 6 0.0000 0.0000 0.0000 0.0000 0.0000 26.1707
#
#
#
# Elastic Compliance Matrix: (Units=1/GPa)
#
#
# Indices 1 2 3 4 5 6 
#
# 1 0.023925 -0.005533 -0.004383 0.000000 0.000000 0.000000
# 2 -0.005533 0.014193 -0.004703 0.000000 0.000000 0.000000
# 3 -0.004383 -0.004703 0.012922 0.000000 0.000000 0.000000
# 4 0.000000 0.000000 0.000000 0.062443 0.000000 0.000000
# 5 0.000000 0.000000 0.000000 0.000000 0.033535 0.000000
# 6 0.000000 0.000000 0.000000 0.000000 0.000000 0.038211
#
#
# Mechanical properties :
#
#
# Convention : Reuss Voigt Hill
#
# Bulk Modulus (GPa) = 45.86878 52.30288 49.08583
# Shear Modulus (GPa) = 22.54966 24.37239 23.46102
#
# Velocity S-wave (km/s) = 3.49322 3.63166 3.56311
# Velocity P-wave (km/s) = 6.41028 6.77411 6.59471
#
# Compressibility (1/GPa) = 0.02180132
#
# Stress axis : x y z
#
# Youngs Moduli (GPa) = 41.79728 70.45872 77.38987
#
# Poissons Ratio (x) = 0.38983 0.33924
# Poissons Ratio (y) = 0.23125 0.36395
# Poissons Ratio (z) = 0.18322 0.33135
#
# Static dielectric constant tensor:
#      x y z
#    x 3.450770 0.000000 0.000000 
#    y 0.000000 3.482910 0.000000 
#    z 0.000000 0.000000 3.414910 
# 
# 
# High freq. dielectric constant tensor:
#      x y z
#    x 1.723810 0.000000 0.000000 
#    y 0.000000 1.710940 0.000000 
#    z 0.000000 0.000000 1.720410 
# 
# From -- ./inp_files/63536.got.cif
#   From: 2010.06.25/outbox.cif.g09.slc.cpg/sg71_32_cif.got.tgz:63536.got - 2010.06.28 04:59:45.
