data_PCOD8290068
_publ_section_title
;
Structure prediction by ZEFSAII (Michael W. Deem and Ramdas Pophale) SiO2 
 PCOD8290068
Probable space group: I M M M
;
_chemical_formula_sum "Si O2"
_cell_formula_units_Z 80
_cell_length_a 14.718578
_cell_length_b 32.092618
_cell_length_c 9.123184
_cell_angle_alpha 90.000000
_cell_angle_beta 90.000000
_cell_angle_gamma 90.000000
_cell_volume 4309.406222
_symmetry_space_group_name_H-M "I M M M"
_symmetry_group_IT_number 71
_symmetry_cell_setting 'orthorhombic'
loop_
_space_group_symop_operation_xyz
x,y,z
-x,-y,z
x,-y,-z
-x,y,-z
-x,-y,-z
x,y,-z
-x,y,z
x,-y,z
1/2+x,1/2+y,1/2+z
1/2-x,1/2-y,1/2+z
1/2+x,1/2-y,1/2-z
1/2-x,1/2+y,1/2-z
1/2-x,1/2-y,1/2-z
1/2+x,1/2+y,1/2-z
1/2-x,1/2+y,1/2+z
1/2+x,1/2-y,1/2+z
loop_
_atom_site_type_symbol
_atom_site_label
_atom_site_fract_x
_atom_site_fract_y
_atom_site_fract_z
Si Si1 0.773517 0.887109 0.673928
Si Si2 0.132628 0.724058 0.161083
Si Si3 0.399125 0.141832 0.830979
Si Si4 0.396180 0.548544 0.668040
Si Si5 0.161246 0.798909 0.660491
O O1 0.759968 0.887763 0.500000
O O2 0.673388 0.886876 0.745961
O O3 0.828481 0.927234 0.725562
O O4 0.829976 0.845974 0.722770
O O5 0.095168 0.688065 0.265158
O O6 0.105128 0.769117 0.229892
O O7 0.239771 0.720708 0.143355
O O8 0.087391 0.720748 0.000000
O O9 0.500000 0.121731 0.816665
O O10 0.369201 0.145119 0.000000
O O11 0.376906 0.560982 0.500000
O O12 0.500000 0.559349 0.709432
O O13 0.377536 0.500000 0.692319
O O14 0.114088 0.799701 0.500000
#
# Coordination Sequence:
#
# PCOD8290068 Si02
#       5
#    16  16  16  16  16
#     4  10  20  33  53  80 107 137 172 215 264 308
#     4   9  16  26  43  66  92 127 171 217 260 297
#     4  10  20  33  50  72 101 141 184 221 259 306
#     4   9  19  37  60  84 109 136 165 200 248 310
#     4   8  15  27  42  64  95 130 167 206 252 303
#
# _framework density 18.564042000000001
#
# number of rings (size 3 to 8) (size 9 to 14) (size 15 to 20)
#    0.000    2.800    0.000    3.600    0.000    8.000 
#    0.000    2.000    0.000    1.800    0.000    4.200 
#    0.000    0.000    0.000    0.000    0.000    0.000 
#
# Total GULP energy -495784.490391 kJ/mol
# GULP energy per Si atom -12394.612260 kJ/mol
# Density = 1.852179 g / cm^3
# Si number density = 18.564042 Si / 1000 Ang^3
#
#
#
# Elastic Constant Matrix: (Units=GPa)
#
#
# Indices 1 2 3 4 5 6 
#
# 1 82.9505 44.0407 50.1863 0.0012 0.0039 -0.0002
# 2 44.0407 79.5883 47.0791 -0.0021 0.0013 -0.0002
# 3 50.1863 47.0791 119.8035 0.0074 0.0241 -0.0031
# 4 0.0012 -0.0021 0.0074 30.9643 -0.0016 -0.0014
# 5 0.0039 0.0013 0.0241 -0.0016 1.6903 0.0020
# 6 -0.0002 -0.0002 -0.0031 -0.0014 0.0020 8.4109
#
#
#
# Elastic Compliance Matrix: (Units=1/GPa)
#
#
# Indices 1 2 3 4 5 6 
#
# 1 0.019140 -0.007620 -0.005024 0.000000 0.000034 -0.000002
# 2 -0.007620 0.019403 -0.004433 0.000003 0.000066 -0.000001
# 3 -0.005024 -0.004433 0.012193 -0.000003 -0.000159 0.000004
# 4 0.000000 0.000003 -0.000003 0.032295 0.000030 0.000005
# 5 0.000034 0.000066 -0.000159 0.000030 0.591627 -0.000142
# 6 -0.000002 -0.000001 0.000004 0.000005 -0.000142 0.118893
#
#
# Mechanical properties :
#
#
# Convention : Reuss Voigt Hill
#
# Bulk Modulus (GPa) = 60.29772 62.77273 61.53523
# Shear Modulus (GPa) = 6.00072 17.61551 11.80811
#
# Velocity S-wave (km/s) = 1.79985 3.08377 2.52479
# Velocity P-wave (km/s) = 6.07213 6.82401 6.45902
#
# Compressibility (1/GPa) = 0.01658437
#
# Stress axis : x y z
#
# Youngs Moduli (GPa) = 52.24569 51.53744 82.01101
#
# Poissons Ratio (x) = 0.39270 0.41199
# Poissons Ratio (y) = 0.39810 0.36355
# Poissons Ratio (z) = 0.26246 0.22846
#
# Static dielectric constant tensor:
#      x y z
#    x 3.231470 0.000000 0.000000 
#    y 0.000000 3.207800 -0.000010 
#    z 0.000000 -0.000010 3.676800 
# 
# 
# High freq. dielectric constant tensor:
#      x y z
#    x 1.704800 0.000000 0.000000 
#    y 0.000000 1.691520 0.000000 
#    z 0.000000 0.000000 1.731810 
# 
# From -- ./inp_files/8619.got.cif
#   From: 2010.06.25/outbox.cif.g09.slc.cpg/sg71_5_cif.got.tgz:8619.got - 2010.06.28 04:59:45.
