data_PCOD8290909
_publ_section_title
;
Structure prediction by ZEFSAII (Michael W. Deem and Ramdas Pophale) SiO2 
 PCOD8290909
Probable space group: I M M M
;
_chemical_formula_sum "Si O2"
_cell_formula_units_Z 80
_cell_length_a 19.002807
_cell_length_b 20.198698
_cell_length_c 10.515662
_cell_angle_alpha 90.000000
_cell_angle_beta 90.000000
_cell_angle_gamma 90.000000
_cell_volume 4036.247153
_symmetry_space_group_name_H-M "I M M M"
_symmetry_group_IT_number 71
_symmetry_cell_setting 'orthorhombic'
loop_
_space_group_symop_operation_xyz
x,y,z
-x,-y,z
x,-y,-z
-x,y,-z
-x,-y,-z
x,y,-z
-x,y,z
x,-y,z
1/2+x,1/2+y,1/2+z
1/2-x,1/2-y,1/2+z
1/2+x,1/2-y,1/2-z
1/2-x,1/2+y,1/2-z
1/2-x,1/2-y,1/2-z
1/2+x,1/2+y,1/2-z
1/2-x,1/2+y,1/2+z
1/2+x,1/2-y,1/2+z
loop_
_atom_site_type_symbol
_atom_site_label
_atom_site_fract_x
_atom_site_fract_y
_atom_site_fract_z
Si Si1 0.277618 0.299762 0.858586
Si Si2 0.920915 0.185471 0.000000
Si Si3 0.078475 0.616025 0.648474
Si Si4 0.804398 0.924112 0.000000
Si Si5 0.781623 0.426435 0.751290
Si Si6 0.079004 0.233929 0.726552
O O1 0.250000 0.250000 0.750000
O O2 0.240585 0.371359 0.853081
O O3 0.361831 0.310860 0.841707
O O4 0.262128 0.270776 0.000000
O O5 0.907916 0.231897 0.121997
O O6 0.872795 0.121061 0.000000
O O7 0.000000 0.157385 0.000000
O O8 0.089031 0.602412 0.500000
O O9 0.134530 0.573736 0.727546
O O10 0.091259 0.692595 0.677382
O O11 0.000000 0.594692 0.691143
O O12 0.757422 0.907560 0.121473
O O13 0.829691 0.000000 0.000000
O O14 0.761042 0.500000 0.799839
O O15 0.000000 0.208890 0.691506
#
# Coordination Sequence:
#
# PCOD8290909 Si02
#       6
#    16   8  16   8  16  16
#     4  12  26  40  66  94 123 162 207 261 309 365
#     4  10  20  35  58  89 122 156 196 251 307 369
#     4  10  20  35  56  85 121 159 201 249 304 364
#     4  10  20  35  57  84 116 160 206 253 295 357
#     4  11  23  39  60  87 125 164 206 252 306 365
#     4  10  21  36  59  90 125 158 198 250 309 365
#
# _framework density 19.820391000000001
#
# number of rings (size 3 to 8) (size 9 to 14) (size 15 to 20)
#    0.000    1.400    5.000    0.600    2.800    2.200 
#    0.000    1.000    0.000    0.600    0.000    2.800 
#    0.000    0.000    0.000    0.000    0.000    0.000 
#
# Total GULP energy -495944.927283 kJ/mol
# GULP energy per Si atom -12398.623182 kJ/mol
# Density = 1.977528 g / cm^3
# Si number density = 19.820391 Si / 1000 Ang^3
#
#
#
# Elastic Constant Matrix: (Units=GPa)
#
#
# Indices 1 2 3 4 5 6 
#
# 1 115.8708 35.4259 33.9623 0.0000 0.0000 0.0000
# 2 35.4259 73.7488 23.4319 0.0000 0.0000 0.0000
# 3 33.9623 23.4319 95.2546 0.0000 0.0000 0.0000
# 4 0.0000 0.0000 0.0000 22.8362 0.0000 0.0000
# 5 0.0000 0.0000 0.0000 0.0000 23.4315 0.0000
# 6 0.0000 0.0000 0.0000 0.0000 0.0000 16.1203
#
#
#
# Elastic Compliance Matrix: (Units=1/GPa)
#
#
# Indices 1 2 3 4 5 6 
#
# 1 0.010755 -0.004283 -0.002781 0.000000 0.000000 0.000000
# 2 -0.004283 0.016414 -0.002511 0.000000 0.000000 0.000000
# 3 -0.002781 -0.002511 0.012107 0.000000 0.000000 0.000000
# 4 0.000000 0.000000 0.000000 0.043790 0.000000 0.000000
# 5 0.000000 0.000000 0.000000 0.000000 0.042678 0.000000
# 6 0.000000 0.000000 0.000000 0.000000 0.000000 0.062033
#
#
# Mechanical properties :
#
#
# Convention : Reuss Voigt Hill
#
# Bulk Modulus (GPa) = 49.68299 52.27938 50.98118
# Shear Modulus (GPa) = 23.40429 25.28122 24.34276
#
# Velocity S-wave (km/s) = 3.44003 3.57531 3.50832
# Velocity P-wave (km/s) = 6.39527 6.59376 6.49527
#
# Compressibility (1/GPa) = 0.02012761
#
# Stress axis : x y z
#
# Youngs Moduli (GPa) = 92.98195 60.92178 82.59398
#
# Poissons Ratio (x) = 0.26090 0.22970
# Poissons Ratio (y) = 0.39820 0.20739
# Poissons Ratio (z) = 0.25859 0.15297
#
# Static dielectric constant tensor:
#      x y z
#    x 4.069860 0.000000 0.000000 
#    y 0.000000 3.352190 0.000000 
#    z 0.000000 0.000000 3.573390 
# 
# 
# High freq. dielectric constant tensor:
#      x y z
#    x 1.792640 0.000000 0.000000 
#    y 0.000000 1.750030 0.000000 
#    z 0.000000 0.000000 1.761480 
# 
# From -- ./inp_files/23827.got.cif
#   From: 2010.06.25/outbox.cif.g09.slc.cpg/sg71_12_cif.got.tgz:23827.got - 2010.06.28 04:59:45.
