data_PCOD8290716
_publ_section_title
;
Structure prediction by ZEFSAII (Michael W. Deem and Ramdas Pophale) SiO2 
 PCOD8290716
Probable space group: I M M M
;
_chemical_formula_sum "Si O2"
_cell_formula_units_Z 104
_cell_length_a 20.271304
_cell_length_b 14.378834
_cell_length_c 18.054264
_cell_angle_alpha 90.000000
_cell_angle_beta 90.000000
_cell_angle_gamma 90.000000
_cell_volume 5262.415620
_symmetry_space_group_name_H-M "I M M M"
_symmetry_group_IT_number 71
_symmetry_cell_setting 'orthorhombic'
loop_
_space_group_symop_operation_xyz
x,y,z
-x,-y,z
x,-y,-z
-x,y,-z
-x,-y,-z
x,y,-z
-x,y,z
x,-y,z
1/2+x,1/2+y,1/2+z
1/2-x,1/2-y,1/2+z
1/2+x,1/2-y,1/2-z
1/2-x,1/2+y,1/2-z
1/2-x,1/2-y,1/2-z
1/2+x,1/2+y,1/2-z
1/2-x,1/2+y,1/2+z
1/2+x,1/2-y,1/2+z
loop_
_atom_site_type_symbol
_atom_site_label
_atom_site_fract_x
_atom_site_fract_y
_atom_site_fract_z
Si Si1 0.355202 0.602516 0.330623
Si Si2 0.075880 0.713554 0.175039
Si Si3 0.728429 0.107358 0.916595
Si Si4 0.883837 0.709414 0.659114
Si Si5 0.000000 0.396246 0.585986
Si Si6 0.815242 0.391704 0.085363
Si Si7 0.680678 0.605160 0.166436
O O1 0.387076 0.500000 0.337541
O O2 0.414533 0.675689 0.333837
O O3 0.305202 0.621988 0.397802
O O4 0.312338 0.609528 0.255133
O O5 0.095414 0.683947 0.257729
O O6 0.121152 0.660604 0.116558
O O7 0.000000 0.688314 0.159341
O O8 0.686624 0.164526 0.857392
O O9 0.708054 0.000000 0.909769
O O10 0.716308 0.143698 0.000000
O O11 0.936598 0.664523 0.605060
O O12 0.876775 0.820942 0.644306
O O13 0.000000 0.500000 0.623652
O O14 0.000000 0.412937 0.500000
O O15 0.829523 0.500000 0.094408
O O16 0.749763 0.363128 0.130418
O O17 0.804542 0.363691 0.000000
O O18 0.661435 0.500000 0.140144
#
# Coordination Sequence:
#
# PCOD8290716 Si02
#       7
#    16  16  16  16   8  16  16
#     4   9  19  36  58  84 113 143 182 233 284 336
#     4  11  23  38  55  81 112 150 195 232 273 330
#     4  10  20  34  56  86 115 144 181 229 288 344
#     4  11  21  37  57  83 114 149 188 229 277 330
#     4  11  24  40  57  81 116 154 189 224 269 333
#     4  10  22  39  58  83 114 147 187 237 289 336
#     4   9  19  37  61  85 110 143 185 233 285 336
#
# _framework density 19.762786999999999
#
# number of rings (size 3 to 8) (size 9 to 14) (size 15 to 20)
#    0.000    1.923    0.769    2.769    0.000   10.154 
#    0.000    1.154    0.000    0.462    0.000    3.231 
#    0.000    0.000    0.000    0.000    0.000    0.000 
#
# Total GULP energy -644762.135819 kJ/mol
# GULP energy per Si atom -12399.271843 kJ/mol
# Density = 1.971781 g / cm^3
# Si number density = 19.762787 Si / 1000 Ang^3
#
#
#
# Elastic Constant Matrix: (Units=GPa)
#
#
# Indices 1 2 3 4 5 6 
#
# 1 76.5949 52.6599 28.4577 0.0000 0.0000 0.0000
# 2 52.6599 95.3222 35.2743 0.0000 0.0000 0.0000
# 3 28.4577 35.2743 63.0154 0.0000 0.0000 0.0000
# 4 0.0000 0.0000 0.0000 25.3962 0.0000 0.0000
# 5 0.0000 0.0000 0.0000 0.0000 25.7182 0.0000
# 6 0.0000 0.0000 0.0000 0.0000 0.0000 35.4498
#
#
#
# Elastic Compliance Matrix: (Units=1/GPa)
#
#
# Indices 1 2 3 4 5 6 
#
# 1 0.021790 -0.010590 -0.003912 0.000000 0.000000 0.000000
# 2 -0.010590 0.018378 -0.005505 0.000000 0.000000 0.000000
# 3 -0.003912 -0.005505 0.020718 0.000000 0.000000 0.000000
# 4 0.000000 0.000000 0.000000 0.039376 0.000000 0.000000
# 5 0.000000 0.000000 0.000000 0.000000 0.038883 0.000000
# 6 0.000000 0.000000 0.000000 0.000000 0.000000 0.028209
#
#
# Mechanical properties :
#
#
# Convention : Reuss Voigt Hill
#
# Bulk Modulus (GPa) = 47.91385 51.96849 49.94117
# Shear Modulus (GPa) = 23.32897 25.21555 24.27226
#
# Velocity S-wave (km/s) = 3.43949 3.57586 3.50834
# Velocity P-wave (km/s) = 6.33014 6.58804 6.46038
#
# Compressibility (1/GPa) = 0.02087079
#
# Stress axis : x y z
#
# Youngs Moduli (GPa) = 45.89262 54.41211 48.26802
#
# Poissons Ratio (x) = 0.57622 0.18884
# Poissons Ratio (y) = 0.48600 0.26573
# Poissons Ratio (z) = 0.17955 0.29955
#
# Static dielectric constant tensor:
#      x y z
#    x 3.380250 0.000000 0.000000 
#    y 0.000000 3.892420 0.000000 
#    z 0.000000 0.000000 3.610090 
# 
# 
# High freq. dielectric constant tensor:
#      x y z
#    x 1.747840 0.000000 0.000000 
#    y 0.000000 1.786490 0.000000 
#    z 0.000000 0.000000 1.767830 
# 
# From -- ./inp_files/47335.got.cif
#   From: 2010.06.25/outbox.cif.g09.slc.cpg/sg71_24_cif.got.tgz:47335.got - 2010.06.28 04:59:45.
