data_PCOD8290037
_publ_section_title
;
Structure prediction by ZEFSAII (Michael W. Deem and Ramdas Pophale) SiO2 
 PCOD8290037
Probable space group: I M M M
;
_chemical_formula_sum "Si O2"
_cell_formula_units_Z 104
_cell_length_a 23.755531
_cell_length_b 8.990138
_cell_length_c 28.094670
_cell_angle_alpha 90.000000
_cell_angle_beta 90.000000
_cell_angle_gamma 90.000000
_cell_volume 6000.052301
_symmetry_space_group_name_H-M "I M M M"
_symmetry_group_IT_number 71
_symmetry_cell_setting 'orthorhombic'
loop_
_space_group_symop_operation_xyz
x,y,z
-x,-y,z
x,-y,-z
-x,y,-z
-x,-y,-z
x,y,-z
-x,y,z
x,-y,z
1/2+x,1/2+y,1/2+z
1/2-x,1/2-y,1/2+z
1/2+x,1/2-y,1/2-z
1/2-x,1/2+y,1/2-z
1/2-x,1/2-y,1/2-z
1/2+x,1/2+y,1/2-z
1/2-x,1/2+y,1/2+z
1/2+x,1/2-y,1/2+z
loop_
_atom_site_type_symbol
_atom_site_label
_atom_site_fract_x
_atom_site_fract_y
_atom_site_fract_z
Si Si1 0.360727 0.670526 0.944685
Si Si2 0.936891 0.823314 0.000000
Si Si3 0.434495 0.825407 0.679647
Si Si4 0.267844 0.172227 0.554632
Si Si5 0.871669 0.823857 0.093026
Si Si6 0.935027 0.673449 0.369324
Si Si7 0.933148 0.832518 0.274965
O O1 0.376678 0.500000 0.933720
O O2 0.296314 0.701275 0.929990
O O3 0.400827 0.778969 0.915648
O O4 0.369722 0.705951 0.000000
O O5 0.905312 0.764816 0.046859
O O6 0.000000 0.758067 0.000000
O O7 0.937952 0.000000 0.000000
O O8 0.500000 0.786870 0.671717
O O9 0.398838 0.748630 0.638904
O O10 0.412194 0.761139 0.729681
O O11 0.423584 0.000000 0.679243
O O12 0.276598 0.220772 0.500000
O O13 0.307105 0.272261 0.588278
O O14 0.283616 0.000000 0.561233
O O15 0.874610 0.000000 0.098166
O O16 0.927312 0.500000 0.360077
O O17 0.910225 0.757936 0.323233
O O18 0.000000 0.714959 0.378103
O O19 0.000000 0.830872 0.276238
O O20 0.909553 0.000000 0.271361
#
# Coordination Sequence:
#
# PCOD8290037 Si02
#       7
#    16   8  16  16  16  16  16
#     4   9  19  35  54  76 102 136 174 210 248 294
#     4   9  18  30  43  65  99 133 164 205 254 299
#     4  10  20  33  49  72 102 134 169 211 258 304
#     4   9  18  34  53  71  96 130 171 216 257 298
#     4  11  20  31  49  72  99 133 172 213 256 304
#     4  10  20  33  51  78 110 139 165 200 249 300
#     4   9  17  31  52  75  99 131 170 208 246 297
#
# _framework density 17.333182999999998
#
# number of rings (size 3 to 8) (size 9 to 14) (size 15 to 20)
#    0.000    2.385    0.769    3.231    0.000    5.538 
#    0.000    3.077    0.000    2.769    0.000    0.000 
#    0.000    0.000    0.000    0.000    0.000    0.000 
#
# Total GULP energy -644894.199176 kJ/mol
# GULP energy per Si atom -12401.811523 kJ/mol
# Density = 1.729373 g / cm^3
# Si number density = 17.333183 Si / 1000 Ang^3
#
#
#
# Elastic Constant Matrix: (Units=GPa)
#
#
# Indices 1 2 3 4 5 6 
#
# 1 71.6812 43.5789 52.1099 0.0000 0.0000 0.0000
# 2 43.5789 89.1805 52.8732 0.0000 0.0000 0.0000
# 3 52.1099 52.8732 113.0563 0.0000 0.0000 0.0000
# 4 0.0000 0.0000 0.0000 33.1866 0.0000 0.0000
# 5 0.0000 0.0000 0.0000 0.0000 9.1717 0.0000
# 6 0.0000 0.0000 0.0000 0.0000 0.0000 26.6568
#
#
#
# Elastic Compliance Matrix: (Units=1/GPa)
#
#
# Indices 1 2 3 4 5 6 
#
# 1 0.023845 -0.007106 -0.007667 0.000000 0.000000 0.000000
# 2 -0.007106 0.017633 -0.004971 0.000000 0.000000 0.000000
# 3 -0.007667 -0.004971 0.014704 0.000000 0.000000 0.000000
# 4 0.000000 0.000000 0.000000 0.030133 0.000000 0.000000
# 5 0.000000 0.000000 0.000000 0.000000 0.109031 0.000000
# 6 0.000000 0.000000 0.000000 0.000000 0.000000 0.037514
#
#
# Mechanical properties :
#
#
# Convention : Reuss Voigt Hill
#
# Bulk Modulus (GPa) = 59.90619 63.44910 61.67764
# Shear Modulus (GPa) = 17.99128 22.16007 20.07567
#
# Velocity S-wave (km/s) = 3.22525 3.57946 3.40696
# Velocity P-wave (km/s) = 6.96464 7.33269 7.15103
#
# Compressibility (1/GPa) = 0.01669277
#
# Stress axis : x y z
#
# Youngs Moduli (GPa) = 41.93805 56.71199 68.00930
#
# Poissons Ratio (x) = 0.40301 0.52143
# Poissons Ratio (y) = 0.29802 0.33807
# Poissons Ratio (z) = 0.32154 0.28192
#
# Static dielectric constant tensor:
#      x y z
#    x 3.046580 0.000000 0.000000 
#    y 0.000000 3.215230 0.000000 
#    z 0.000000 0.000000 3.245820 
# 
# 
# High freq. dielectric constant tensor:
#      x y z
#    x 1.645620 0.000000 0.000000 
#    y 0.000000 1.673550 0.000000 
#    z 0.000000 0.000000 1.669470 
# 
# From -- ./inp_files/15003.got.cif
#   From: 2010.06.25/outbox.cif.g09.slc.cpg/sg71_8_cif.got.tgz:15003.got - 2010.06.28 04:59:45.
