data_PCOD8290479
_publ_section_title
;
Structure prediction by ZEFSAII (Michael W. Deem and Ramdas Pophale) SiO2 
 PCOD8290479
Probable space group: I M M M
;
_chemical_formula_sum "Si O2"
_cell_formula_units_Z 112
_cell_length_a 14.507920
_cell_length_b 28.631088
_cell_length_c 14.269940
_cell_angle_alpha 90.000000
_cell_angle_beta 90.000000
_cell_angle_gamma 90.000000
_cell_volume 5927.412491
_symmetry_space_group_name_H-M "I M M M"
_symmetry_group_IT_number 71
_symmetry_cell_setting 'orthorhombic'
loop_
_space_group_symop_operation_xyz
x,y,z
-x,-y,z
x,-y,-z
-x,y,-z
-x,-y,-z
x,y,-z
-x,y,z
x,-y,z
1/2+x,1/2+y,1/2+z
1/2-x,1/2-y,1/2+z
1/2+x,1/2-y,1/2-z
1/2-x,1/2+y,1/2-z
1/2-x,1/2-y,1/2-z
1/2+x,1/2+y,1/2-z
1/2-x,1/2+y,1/2+z
1/2+x,1/2-y,1/2+z
loop_
_atom_site_type_symbol
_atom_site_label
_atom_site_fract_x
_atom_site_fract_y
_atom_site_fract_z
Si Si1 0.106457 0.614654 0.211754
Si Si2 0.605634 0.552986 0.741823
Si Si3 0.604397 0.160414 0.896114
Si Si4 0.750862 0.445136 0.894132
Si Si5 0.102786 0.296329 0.898210
Si Si6 0.892805 0.863027 0.890461
Si Si7 0.731025 0.280471 0.658856
O O1 0.126152 0.618088 0.323467
O O2 0.160939 0.573828 0.161392
O O3 0.139460 0.665390 0.174856
O O4 0.000000 0.605749 0.188108
O O5 0.500000 0.556755 0.772248
O O6 0.631704 0.500000 0.712165
O O7 0.661012 0.568877 0.834500
O O8 0.626760 0.585862 0.652891
O O9 0.500000 0.178590 0.879013
O O10 0.670880 0.205152 0.884918
O O11 0.616102 0.139213 0.000000
O O12 0.763674 0.500000 0.899999
O O13 0.743139 0.424472 0.000000
O O14 0.171605 0.252864 0.908006
O O15 0.000000 0.278976 0.869058
O O16 0.098882 0.320549 0.000000
O O17 0.830891 0.827224 0.829628
O O18 0.000000 0.849433 0.880486
O O19 0.862872 0.863206 0.000000
O O20 0.750000 0.250000 0.750000
#
# Coordination Sequence:
#
# PCOD8290479 Si02
#       7
#    16  16  16  16  16  16  16
#     4  10  20  36  56  79 106 138 179 228 278 327
#     4   9  19  36  59  87 117 151 189 229 279 340
#     4  10  21  37  56  77 104 142 185 222 264 325
#     4  10  21  36  56  82 111 144 182 225 275 333
#     4  10  20  34  53  77 104 136 178 226 274 326
#     4  10  21  37  59  87 117 148 187 238 291 342
#     4  12  22  33  53  78 108 149 185 228 279 327
#
# _framework density 18.895258999999999
#
# number of rings (size 3 to 8) (size 9 to 14) (size 15 to 20)
#    0.000    1.857    1.429    3.000    0.000    3.429 
#    0.000    3.571    0.000    1.286    0.000    2.000 
#    0.000    0.000    0.000    0.000    0.000    0.000 
#
# Total GULP energy -694119.985805 kJ/mol
# GULP energy per Si atom -12394.999747 kJ/mol
# Density = 1.885225 g / cm^3
# Si number density = 18.895259 Si / 1000 Ang^3
#
#
#
# Elastic Constant Matrix: (Units=GPa)
#
#
# Indices 1 2 3 4 5 6 
#
# 1 98.4365 41.1551 49.3142 0.0000 0.0000 0.0000
# 2 41.1551 60.1606 48.1991 0.0003 0.0000 0.0000
# 3 49.3142 48.1991 135.4776 0.0015 -0.0001 0.0000
# 4 0.0000 0.0003 0.0015 28.4806 0.0000 0.0000
# 5 0.0000 0.0000 -0.0001 0.0000 21.7893 0.0000
# 6 0.0000 0.0000 0.0000 0.0000 0.0000 36.0917
#
#
#
# Elastic Compliance Matrix: (Units=1/GPa)
#
#
# Indices 1 2 3 4 5 6 
#
# 1 0.014809 -0.008129 -0.002498 0.000000 0.000000 0.000000
# 2 -0.008129 0.027711 -0.006900 0.000000 0.000000 0.000000
# 3 -0.002498 -0.006900 0.010746 -0.000001 0.000000 0.000000
# 4 0.000000 0.000000 -0.000001 0.035112 0.000000 0.000000
# 5 0.000000 0.000000 0.000000 0.000000 0.045894 0.000000
# 6 0.000000 0.000000 0.000000 0.000000 0.000000 0.027707
#
#
# Mechanical properties :
#
#
# Convention : Reuss Voigt Hill
#
# Bulk Modulus (GPa) = 54.91166 63.49016 59.20091
# Shear Modulus (GPa) = 24.61795 27.63273 26.12534
#
# Velocity S-wave (km/s) = 3.61344 3.82830 3.72242
# Velocity P-wave (km/s) = 6.82154 7.29488 7.06218
#
# Compressibility (1/GPa) = 0.01821107
#
# Stress axis : x y z
#
# Youngs Moduli (GPa) = 67.52576 36.08659 93.06201
#
# Poissons Ratio (x) = 0.29335 0.23252
# Poissons Ratio (y) = 0.54892 0.64211
# Poissons Ratio (z) = 0.16871 0.24899
#
# Static dielectric constant tensor:
#      x y z
#    x 3.666860 0.000000 0.000000 
#    y 0.000000 3.334070 0.000000 
#    z 0.000000 0.000000 3.667690 
# 
# 
# High freq. dielectric constant tensor:
#      x y z
#    x 1.745370 0.000000 0.000000 
#    y 0.000000 1.710450 0.000000 
#    z 0.000000 0.000000 1.741010 
# 
# From -- ./inp_files/35085.got.cif
#   From: 2010.06.25/outbox.cif.g09.slc.cpg/sg71_18_cif.got.tgz:35085.got - 2010.06.28 04:59:45.
