data_PCOD8290862
_publ_section_title
;
Structure prediction by ZEFSAII (Michael W. Deem and Ramdas Pophale) SiO2 
 PCOD8290862
Probable space group: I M M M
;
_chemical_formula_sum "Si O2"
_cell_formula_units_Z 64
_cell_length_a 8.778473
_cell_length_b 27.955357
_cell_length_c 14.170387
_cell_angle_alpha 90.000000
_cell_angle_beta 90.000000
_cell_angle_gamma 90.000000
_cell_volume 3477.488734
_symmetry_space_group_name_H-M "I M M M"
_symmetry_group_IT_number 71
_symmetry_cell_setting 'orthorhombic'
loop_
_space_group_symop_operation_xyz
x,y,z
-x,-y,z
x,-y,-z
-x,y,-z
-x,-y,-z
x,y,-z
-x,y,z
x,-y,z
1/2+x,1/2+y,1/2+z
1/2-x,1/2-y,1/2+z
1/2+x,1/2-y,1/2-z
1/2-x,1/2+y,1/2-z
1/2-x,1/2-y,1/2-z
1/2+x,1/2+y,1/2-z
1/2-x,1/2+y,1/2+z
1/2+x,1/2-y,1/2+z
loop_
_atom_site_type_symbol
_atom_site_label
_atom_site_fract_x
_atom_site_fract_y
_atom_site_fract_z
Si Si1 0.677142 0.056199 0.000000
Si Si2 0.822960 0.878001 0.149765
Si Si3 0.179910 0.447185 0.000000
Si Si4 0.672669 0.702399 0.500000
Si Si5 0.821801 0.801963 0.500000
Si Si6 0.180192 0.369918 0.853036
O O1 0.753668 0.077270 0.093804
O O2 0.500000 0.069653 0.000000
O O3 0.704836 0.000000 0.000000
O O4 0.737531 0.872387 0.247505
O O5 0.000000 0.888220 0.166779
O O6 0.797172 0.829326 0.092335
O O7 0.232111 0.418243 0.907055
O O8 0.255885 0.500000 0.000000
O O9 0.000000 0.452428 0.000000
O O10 0.500000 0.722033 0.500000
O O11 0.790465 0.745610 0.500000
O O12 0.750720 0.824241 0.405426
O O13 0.000000 0.811550 0.500000
O O14 0.000000 0.363896 0.855046
#
# Coordination Sequence:
#
# PCOD8290862 Si02
#       6
#     8  16   8   8   8  16
#     4  10  21  37  57  81 110 146 186 224 266 321
#     4  10  21  37  57  81 110 142 178 225 275 322
#     4   8  16  32  53  77 104 136 176 218 258 305
#     4   9  20  38  56  76 105 140 178 220 271 328
#     4  11  22  36  56  80 107 140 180 226 271 317
#     4  10  20  35  56  80 109 144 179 220 270 324
#
# _framework density 18.404087000000001
#
# number of rings (size 3 to 8) (size 9 to 14) (size 15 to 20)
#    0.000    2.250    0.000    4.500    0.000    6.000 
#    0.000    2.500    0.000   12.750    0.000    0.000 
#    0.000    0.000    0.000    0.000    0.000    0.000 
#
# Total GULP energy -396869.765518 kJ/mol
# GULP energy per Si atom -12402.180172 kJ/mol
# Density = 1.836220 g / cm^3
# Si number density = 18.404087 Si / 1000 Ang^3
#
#
#
# Elastic Constant Matrix: (Units=GPa)
#
#
# Indices 1 2 3 4 5 6 
#
# 1 115.5581 51.4241 52.7419 0.0001 0.0000 0.0000
# 2 51.4241 113.4849 47.5943 0.0003 0.0001 0.0000
# 3 52.7419 47.5943 149.2372 0.0010 0.0002 0.0000
# 4 0.0001 0.0003 0.0010 11.8128 0.0002 0.0000
# 5 0.0000 0.0001 0.0002 0.0002 36.4490 0.0001
# 6 0.0000 0.0000 0.0000 0.0000 0.0001 26.9112
#
#
#
# Elastic Compliance Matrix: (Units=1/GPa)
#
#
# Indices 1 2 3 4 5 6 
#
# 1 0.011801 -0.004154 -0.002846 0.000000 0.000000 0.000000
# 2 -0.004154 0.011634 -0.002242 0.000000 0.000000 0.000000
# 3 -0.002846 -0.002242 0.008422 -0.000001 0.000000 0.000000
# 4 0.000000 0.000000 -0.000001 0.084654 0.000000 0.000000
# 5 0.000000 0.000000 0.000000 0.000000 0.027436 0.000000
# 6 0.000000 0.000000 0.000000 0.000000 0.000000 0.037159
#
#
# Mechanical properties :
#
#
# Convention : Reuss Voigt Hill
#
# Bulk Modulus (GPa) = 74.77875 75.75567 75.26721
# Shear Modulus (GPa) = 24.50407 30.13593 27.32000
#
# Velocity S-wave (km/s) = 3.65286 4.05094 3.85704
# Velocity P-wave (km/s) = 7.64925 7.94556 7.79881
#
# Compressibility (1/GPa) = 0.01337278
#
# Stress axis : x y z
#
# Youngs Moduli (GPa) = 84.73798 85.95132 118.74192
#
# Poissons Ratio (x) = 0.35704 0.33792
# Poissons Ratio (y) = 0.35200 0.26626
# Poissons Ratio (z) = 0.24115 0.19274
#
# Static dielectric constant tensor:
#      x y z
#    x 3.409130 0.000000 0.000000 
#    y 0.000000 3.469840 0.000000 
#    z 0.000000 0.000000 3.438780 
# 
# 
# High freq. dielectric constant tensor:
#      x y z
#    x 1.717670 0.000000 0.000000 
#    y 0.000000 1.715020 0.000000 
#    z 0.000000 0.000000 1.719180 
# 
# From -- ./inp_files/18512.got.cif
#   From: 2010.06.25/outbox.cif.g09.slc.cpg/sg71_10_cif.got.tgz:18512.got - 2010.06.28 04:59:45.
