data_PCOD8290886
_publ_section_title
;
Structure prediction by ZEFSAII (Michael W. Deem and Ramdas Pophale) SiO2 
 PCOD8290886
Probable space group: I M M M
;
_chemical_formula_sum "Si O2"
_cell_formula_units_Z 104
_cell_length_a 27.492098
_cell_length_b 8.841733
_cell_length_c 22.356879
_cell_angle_alpha 90.000000
_cell_angle_beta 90.000000
_cell_angle_gamma 90.000000
_cell_volume 5434.460741
_symmetry_space_group_name_H-M "I M M M"
_symmetry_group_IT_number 71
_symmetry_cell_setting 'orthorhombic'
loop_
_space_group_symop_operation_xyz
x,y,z
-x,-y,z
x,-y,-z
-x,y,-z
-x,-y,-z
x,y,-z
-x,y,z
x,-y,z
1/2+x,1/2+y,1/2+z
1/2-x,1/2-y,1/2+z
1/2+x,1/2-y,1/2-z
1/2-x,1/2+y,1/2-z
1/2-x,1/2-y,1/2-z
1/2+x,1/2+y,1/2-z
1/2-x,1/2+y,1/2+z
1/2+x,1/2-y,1/2+z
loop_
_atom_site_type_symbol
_atom_site_label
_atom_site_fract_x
_atom_site_fract_y
_atom_site_fract_z
Si Si1 0.680293 0.177690 0.134123
Si Si2 0.555623 0.176878 0.431195
Si Si3 0.904470 0.168552 0.429516
Si Si4 0.353989 0.321973 0.376373
Si Si5 0.000000 0.670203 0.428552
Si Si6 0.196758 0.178161 0.247124
Si Si7 0.233307 0.325599 0.068269
O O1 0.641092 0.226815 0.085355
O O2 0.666897 0.259374 0.196194
O O3 0.733444 0.225892 0.111674
O O4 0.679875 0.000000 0.143619
O O5 0.565741 0.223047 0.500000
O O6 0.500000 0.216767 0.414286
O O7 0.590516 0.269627 0.386427
O O8 0.565418 0.000000 0.422312
O O9 0.909085 0.159119 0.500000
O O10 0.953059 0.243444 0.402731
O O11 0.897883 0.000000 0.402707
O O12 0.349967 0.500000 0.386596
O O13 0.334313 0.274664 0.310951
O O14 0.321486 0.234717 0.425356
O O15 0.000000 0.500000 0.403466
O O16 0.000000 0.669009 0.500000
O O17 0.250000 0.250000 0.250000
O O18 0.203022 0.000000 0.250970
O O19 0.236830 0.500000 0.087939
O O20 0.250387 0.306396 0.000000
#
# Coordination Sequence:
#
# PCOD8290886 Si02
#       7
#    16  16  16  16   8  16  16
#     4  12  24  37  56  82 111 147 189 238 287 334
#     4   9  19  37  61  89 121 157 195 235 286 349
#     4  10  20  35  56  82 113 149 186 227 282 343
#     4  11  23  37  58  87 116 149 191 239 289 341
#     4   9  17  31  53  81 111 143 181 225 272 327
#     4  11  23  40  60  82 110 149 194 236 281 337
#     4  11  23  37  55  81 115 153 188 227 280 343
#
# _framework density 19.137132000000001
#
# number of rings (size 3 to 8) (size 9 to 14) (size 15 to 20)
#    0.000    1.462    1.538    4.846    0.000    9.231 
#    0.000    0.769    1.692    0.000    0.000    0.000 
#    0.000    0.000    0.000    0.000    0.000    0.000 
#
# Total GULP energy -644974.007811 kJ/mol
# GULP energy per Si atom -12403.346304 kJ/mol
# Density = 1.909358 g / cm^3
# Si number density = 19.137132 Si / 1000 Ang^3
#
#
#
# Elastic Constant Matrix: (Units=GPa)
#
#
# Indices 1 2 3 4 5 6 
#
# 1 116.8299 47.0391 37.0197 0.0000 0.0000 0.0000
# 2 47.0391 115.7577 48.5320 0.0000 0.0000 0.0000
# 3 37.0197 48.5320 73.4825 0.0000 0.0000 0.0000
# 4 0.0000 0.0000 0.0000 28.7805 0.0000 0.0000
# 5 0.0000 0.0000 0.0000 0.0000 23.3505 0.0000
# 6 0.0000 0.0000 0.0000 0.0000 0.0000 36.9985
#
#
#
# Elastic Compliance Matrix: (Units=1/GPa)
#
#
# Indices 1 2 3 4 5 6 
#
# 1 0.010860 -0.002931 -0.003535 0.000000 0.000000 0.000000
# 2 -0.002931 0.012738 -0.006936 0.000000 0.000000 0.000000
# 3 -0.003535 -0.006936 0.019971 0.000000 0.000000 0.000000
# 4 0.000000 0.000000 0.000000 0.034746 0.000000 0.000000
# 5 0.000000 0.000000 0.000000 0.000000 0.042826 0.000000
# 6 0.000000 0.000000 0.000000 0.000000 0.000000 0.027028
#
#
# Mechanical properties :
#
#
# Convention : Reuss Voigt Hill
#
# Bulk Modulus (GPa) = 59.65309 63.47239 61.56274
# Shear Modulus (GPa) = 27.69160 29.39120 28.54140
#
# Velocity S-wave (km/s) = 3.80808 3.92321 3.86607
# Velocity P-wave (km/s) = 7.11157 7.33220 7.22273
#
# Compressibility (1/GPa) = 0.01676359
#
# Stress axis : x y z
#
# Youngs Moduli (GPa) = 92.08360 78.50713 50.07293
#
# Poissons Ratio (x) = 0.23008 0.17703
# Poissons Ratio (y) = 0.26987 0.34732
# Poissons Ratio (z) = 0.32555 0.54454
#
# Static dielectric constant tensor:
#      x y z
#    x 3.538700 0.000000 0.000000 
#    y 0.000000 3.597590 0.000000 
#    z 0.000000 0.000000 3.499510 
# 
# 
# High freq. dielectric constant tensor:
#      x y z
#    x 1.745040 0.000000 0.000000 
#    y 0.000000 1.757650 0.000000 
#    z 0.000000 0.000000 1.724220 
# 
# From -- ./inp_files/56251.got.cif
#   From: 2010.06.25/outbox.cif.g09.slc.cpg/sg71_29_cif.got.tgz:56251.got - 2010.06.28 04:59:45.
