data_PCOD8290352
_publ_section_title
;
Structure prediction by ZEFSAII (Michael W. Deem and Ramdas Pophale) SiO2 
 PCOD8290352
Probable space group: I M M M
;
_chemical_formula_sum "Si O2"
_cell_formula_units_Z 104
_cell_length_a 27.658457
_cell_length_b 8.815953
_cell_length_c 23.771503
_cell_angle_alpha 90.000000
_cell_angle_beta 90.000000
_cell_angle_gamma 90.000000
_cell_volume 5796.340051
_symmetry_space_group_name_H-M "I M M M"
_symmetry_group_IT_number 71
_symmetry_cell_setting 'orthorhombic'
loop_
_space_group_symop_operation_xyz
x,y,z
-x,-y,z
x,-y,-z
-x,y,-z
-x,-y,-z
x,y,-z
-x,y,z
x,-y,z
1/2+x,1/2+y,1/2+z
1/2-x,1/2-y,1/2+z
1/2+x,1/2-y,1/2-z
1/2-x,1/2+y,1/2-z
1/2-x,1/2-y,1/2-z
1/2+x,1/2+y,1/2-z
1/2-x,1/2+y,1/2+z
1/2+x,1/2-y,1/2+z
loop_
_atom_site_type_symbol
_atom_site_label
_atom_site_fract_x
_atom_site_fract_y
_atom_site_fract_z
Si Si1 0.365279 0.823944 0.833714
Si Si2 0.801956 0.178670 0.758169
Si Si3 0.000000 0.330388 0.433749
Si Si4 0.445491 0.179146 0.564053
Si Si5 0.598669 0.321924 0.064400
Si Si6 0.884416 0.173843 0.840327
Si Si7 0.555461 0.673270 0.231091
O O1 0.329181 0.721352 0.798518
O O2 0.361896 0.768197 0.898421
O O3 0.418993 0.790460 0.810889
O O4 0.351811 0.000000 0.828841
O O5 0.750000 0.250000 0.750000
O O6 0.833342 0.235442 0.812935
O O7 0.796685 0.000000 0.762295
O O8 0.953690 0.234431 0.414875
O O9 0.000000 0.500000 0.406986
O O10 0.000000 0.346928 0.500000
O O11 0.434062 0.230408 0.500000
O O12 0.500000 0.236735 0.580498
O O13 0.402621 0.240384 0.604046
O O14 0.444489 0.000000 0.568667
O O15 0.602347 0.500000 0.074862
O O16 0.608933 0.279218 0.000000
O O17 0.925979 0.194942 0.794289
O O18 0.877322 0.000000 0.857426
O O19 0.500000 0.717643 0.230184
O O20 0.565032 0.500000 0.211375
#
# Coordination Sequence:
#
# PCOD8290352 Si02
#       7
#    16  16   8  16  16  16  16
#     4  11  22  34  51  76 104 133 170 212 258 311
#     4  10  21  39  60  81 104 129 165 213 268 324
#     4   9  17  29  45  67  95 129 171 213 248 287
#     4   9  18  31  47  72 109 150 186 217 250 295
#     4  10  20  34  51  70  97 136 176 212 254 302
#     4   9  18  32  51  76 103 132 169 213 258 306
#     4   9  18  32  48  68 100 138 172 211 258 306
#
# _framework density 17.942357000000001
#
# number of rings (size 3 to 8) (size 9 to 14) (size 15 to 20)
#    0.000    2.385    0.000    4.385    1.077    6.462 
#    0.000    0.769    0.000    0.923    0.000    4.308 
#    0.000    0.000    0.000    0.000    0.000    0.000 
#
# Total GULP energy -644454.258529 kJ/mol
# GULP energy per Si atom -12393.351126 kJ/mol
# Density = 1.790152 g / cm^3
# Si number density = 17.942357 Si / 1000 Ang^3
#
#
#
# Elastic Constant Matrix: (Units=GPa)
#
#
# Indices 1 2 3 4 5 6 
#
# 1 113.5873 26.3800 53.1818 0.0000 0.0000 0.0000
# 2 26.3800 60.0722 30.6118 0.0000 0.0000 0.0000
# 3 53.1818 30.6118 105.2702 0.0000 0.0000 0.0000
# 4 0.0000 0.0000 0.0000 30.1589 0.0000 0.0000
# 5 0.0000 0.0000 0.0000 0.0000 16.7763 0.0000
# 6 0.0000 0.0000 0.0000 0.0000 0.0000 28.7882
#
#
#
# Elastic Compliance Matrix: (Units=1/GPa)
#
#
# Indices 1 2 3 4 5 6 
#
# 1 0.011849 -0.002528 -0.005251 0.000000 0.000000 0.000000
# 2 -0.002528 0.020082 -0.004563 0.000000 0.000000 0.000000
# 3 -0.005251 -0.004563 0.013479 0.000000 0.000000 0.000000
# 4 0.000000 0.000000 0.000000 0.033158 0.000000 0.000000
# 5 0.000000 0.000000 0.000000 0.000000 0.059608 0.000000
# 6 0.000000 0.000000 0.000000 0.000000 0.000000 0.034736
#
#
# Mechanical properties :
#
#
# Convention : Reuss Voigt Hill
#
# Bulk Modulus (GPa) = 48.24598 55.47521 51.86060
# Shear Modulus (GPa) = 24.44934 26.39509 25.42222
#
# Velocity S-wave (km/s) = 3.69543 3.83966 3.76823
# Velocity P-wave (km/s) = 6.71983 7.11639 6.92095
#
# Compressibility (1/GPa) = 0.02072711
#
# Stress axis : x y z
#
# Youngs Moduli (GPa) = 84.39196 49.79666 74.18913
#
# Poissons Ratio (x) = 0.12587 0.38959
# Poissons Ratio (y) = 0.21331 0.33850
# Poissons Ratio (z) = 0.44316 0.22721
#
# Static dielectric constant tensor:
#      x y z
#    x 3.227960 0.000000 0.000000 
#    y 0.000000 3.397040 0.000000 
#    z 0.000000 0.000000 3.373300 
# 
# 
# High freq. dielectric constant tensor:
#      x y z
#    x 1.667550 0.000000 0.000000 
#    y 0.000000 1.694780 0.000000 
#    z 0.000000 0.000000 1.695700 
# 
# From -- ./inp_files/15290.got.cif
#   From: 2010.06.25/outbox.cif.g09.slc.cpg/sg71_8_cif.got.tgz:15290.got - 2010.06.28 04:59:45.
