data_PCOD8290024
_publ_section_title
;
Structure prediction by ZEFSAII (Michael W. Deem and Ramdas Pophale) SiO2 
 PCOD8290024
Probable space group: I M M M
;
_chemical_formula_sum "Si O2"
_cell_formula_units_Z 104
_cell_length_a 8.862917
_cell_length_b 20.451283
_cell_length_c 32.525832
_cell_angle_alpha 90.000000
_cell_angle_beta 90.000000
_cell_angle_gamma 90.000000
_cell_volume 5895.568030
_symmetry_space_group_name_H-M "I M M M"
_symmetry_group_IT_number 71
_symmetry_cell_setting 'orthorhombic'
loop_
_space_group_symop_operation_xyz
x,y,z
-x,-y,z
x,-y,-z
-x,y,-z
-x,-y,-z
x,y,-z
-x,y,z
x,-y,z
1/2+x,1/2+y,1/2+z
1/2-x,1/2-y,1/2+z
1/2+x,1/2-y,1/2-z
1/2-x,1/2+y,1/2-z
1/2-x,1/2-y,1/2-z
1/2+x,1/2+y,1/2-z
1/2-x,1/2+y,1/2+z
1/2+x,1/2-y,1/2+z
loop_
_atom_site_type_symbol
_atom_site_label
_atom_site_fract_x
_atom_site_fract_y
_atom_site_fract_z
Si Si1 0.174556 0.222920 0.454736
Si Si2 0.322467 0.645621 0.431026
Si Si3 0.177278 0.813671 0.633260
Si Si4 0.164639 0.574666 0.500000
Si Si5 0.679197 0.571858 0.188889
Si Si6 0.677060 0.425360 0.282615
Si Si7 0.321298 0.831567 0.847540
O O1 0.201091 0.189505 0.500000
O O2 0.276967 0.286634 0.452459
O O3 0.217820 0.177395 0.415509
O O4 0.000000 0.243899 0.449879
O O5 0.500000 0.641980 0.425669
O O6 0.263371 0.588786 0.459976
O O7 0.246019 0.633148 0.387227
O O8 0.251810 0.873356 0.658767
O O9 0.235840 0.744175 0.651322
O O10 0.000000 0.816756 0.639849
O O11 0.127277 0.500000 0.500000
O O12 0.000000 0.611603 0.500000
O O13 0.500000 0.571415 0.185463
O O14 0.740765 0.500000 0.176012
O O15 0.725632 0.587135 0.235618
O O16 0.500000 0.414497 0.288938
O O17 0.720261 0.500000 0.295446
O O18 0.765297 0.370478 0.307895
O O19 0.500000 0.834402 0.849297
#
# Coordination Sequence:
#
# PCOD8290024 Si02
#       7
#    16  16  16   8  16  16  16
#     4   9  16  28  48  69  96 130 159 193 239 290
#     4  11  21  33  50  70  93 122 158 203 243 280
#     4   8  15  27  44  70  97 126 166 202 241 295
#     4  11  23  37  51  67  91 125 162 197 240 293
#     4   8  14  27  48  71  97 129 163 201 246 296
#     4   9  18  32  49  69  93 125 165 207 250 295
#     4  10  20  33  49  70  98 129 160 201 249 296
#
# _framework density 17.640370000000001
#
# number of rings (size 3 to 8) (size 9 to 14) (size 15 to 20)
#    0.000    2.692    0.769    3.923    0.000    2.154 
#    0.000    0.000    0.000    4.154    0.000    3.231 
#    0.000    0.000    0.000    5.538    0.000    6.154 
#
# Total GULP energy -644360.339799 kJ/mol
# GULP energy per Si atom -12391.544996 kJ/mol
# Density = 1.760022 g / cm^3
# Si number density = 17.640370 Si / 1000 Ang^3
#
#
#
# Elastic Constant Matrix: (Units=GPa)
#
#
# Indices 1 2 3 4 5 6 
#
# 1 54.6588 30.6180 35.1684 0.0000 0.0000 0.0000
# 2 30.6180 103.8316 85.1316 0.0000 0.0000 0.0000
# 3 35.1684 85.1316 145.7401 0.0000 0.0000 0.0000
# 4 0.0000 0.0000 0.0000 11.1644 0.0000 0.0000
# 5 0.0000 0.0000 0.0000 0.0000 20.7388 0.0000
# 6 0.0000 0.0000 0.0000 0.0000 0.0000 11.6002
#
#
#
# Elastic Compliance Matrix: (Units=1/GPa)
#
#
# Indices 1 2 3 4 5 6 
#
# 1 0.022575 -0.004204 -0.002992 0.000000 0.000000 0.000000
# 2 -0.004204 0.019266 -0.010239 0.000000 0.000000 0.000000
# 3 -0.002992 -0.010239 0.013565 0.000000 0.000000 0.000000
# 4 0.000000 0.000000 0.000000 0.089571 0.000000 0.000000
# 5 0.000000 0.000000 0.000000 0.000000 0.048219 0.000000
# 6 0.000000 0.000000 0.000000 0.000000 0.000000 0.086206
#
#
# Mechanical properties :
#
#
# Convention : Reuss Voigt Hill
#
# Bulk Modulus (GPa) = 48.69660 67.34070 58.01865
# Shear Modulus (GPa) = 15.57066 18.92150 17.24608
#
# Velocity S-wave (km/s) = 2.97420 3.27865 3.13013
# Velocity P-wave (km/s) = 6.28169 7.25188 6.78415
#
# Compressibility (1/GPa) = 0.02053531
#
# Stress axis : x y z
#
# Youngs Moduli (GPa) = 44.29622 51.90505 73.72076
#
# Poissons Ratio (x) = 0.21820 0.22057
# Poissons Ratio (y) = 0.18622 0.75486
# Poissons Ratio (z) = 0.13253 0.53148
#
# Static dielectric constant tensor:
#      x y z
#    x 3.007170 0.000000 0.000000 
#    y 0.000000 3.395380 0.000000 
#    z 0.000000 0.000000 3.551680 
# 
# 
# High freq. dielectric constant tensor:
#      x y z
#    x 1.655620 0.000000 0.000000 
#    y 0.000000 1.658230 0.000000 
#    z 0.000000 0.000000 1.692460 
# 
# From -- ./inp_files/68263.got.cif
#   From: 2010.06.25/outbox.cif.g09.slc.cpg/sg71_35_cif.got.tgz:68263.got - 2010.06.28 04:59:45.
