data_PCOD8290130
_publ_section_title
;
Structure prediction by ZEFSAII (Michael W. Deem and Ramdas Pophale) SiO2 
 PCOD8290130
Probable space group: I M M M
;
_chemical_formula_sum "Si O2"
_cell_formula_units_Z 104
_cell_length_a 9.009204
_cell_length_b 28.350447
_cell_length_c 20.758443
_cell_angle_alpha 90.000000
_cell_angle_beta 90.000000
_cell_angle_gamma 90.000000
_cell_volume 5302.016899
_symmetry_space_group_name_H-M "I M M M"
_symmetry_group_IT_number 71
_symmetry_cell_setting 'orthorhombic'
loop_
_space_group_symop_operation_xyz
x,y,z
-x,-y,z
x,-y,-z
-x,y,-z
-x,-y,-z
x,y,-z
-x,y,z
x,-y,z
1/2+x,1/2+y,1/2+z
1/2-x,1/2-y,1/2+z
1/2+x,1/2-y,1/2-z
1/2-x,1/2+y,1/2-z
1/2-x,1/2-y,1/2-z
1/2+x,1/2+y,1/2-z
1/2-x,1/2+y,1/2+z
1/2+x,1/2-y,1/2+z
loop_
_atom_site_type_symbol
_atom_site_label
_atom_site_fract_x
_atom_site_fract_y
_atom_site_fract_z
Si Si1 0.830444 0.134507 0.265551
Si Si2 0.829321 0.225282 0.428667
Si Si3 0.667930 0.447105 0.332103
Si Si4 0.325897 0.695253 0.645072
Si Si5 0.169026 0.613456 0.425633
Si Si6 0.675162 0.868974 0.600511
Si Si7 0.324787 0.053402 0.500000
O O1 0.807427 0.085407 0.229477
O O2 0.787325 0.177861 0.217647
O O3 0.720348 0.131601 0.325077
O O4 0.000000 0.140574 0.289178
O O5 0.814998 0.248983 0.500000
O O6 0.754192 0.255868 0.372130
O O7 0.753648 0.174589 0.434029
O O8 0.000000 0.219076 0.409095
O O9 0.500000 0.441128 0.358100
O O10 0.701700 0.500000 0.309747
O O11 0.780862 0.433614 0.388739
O O12 0.500000 0.702430 0.636801
O O13 0.273523 0.656520 0.594030
O O14 0.187868 0.602453 0.500000
O O15 0.000000 0.626436 0.407765
O O16 0.500000 0.862188 0.594624
O O17 0.724863 0.917236 0.563914
O O18 0.500000 0.048281 0.500000
O O19 0.255079 0.000000 0.500000
#
# Coordination Sequence:
#
# PCOD8290130 Si02
#       7
#    16  16  16  16  16  16   8
#     4   9  20  38  57  81 115 149 186 237 290 342
#     4  11  23  38  59  86 119 154 189 236 288 338
#     4   9  19  36  56  77 105 145 191 238 287 340
#     4  10  21  37  58  83 113 153 196 236 281 339
#     4  10  20  33  50  76 112 149 188 237 289 338
#     4  11  22  38  62  88 115 150 189 231 283 344
#     4   9  20  40  63  89 121 151 187 239 292 345
#
# _framework density 19.615178
#
# number of rings (size 3 to 8) (size 9 to 14) (size 15 to 20)
#    0.000    2.077    0.769    3.231    0.000    8.923 
#    0.000    1.538    0.000    3.231    0.000    0.000 
#    0.000    0.000    0.000    0.000    0.000    0.000 
#
# Total GULP energy -644725.817658 kJ/mol
# GULP energy per Si atom -12398.573416 kJ/mol
# Density = 1.957053 g / cm^3
# Si number density = 19.615178 Si / 1000 Ang^3
#
#
#
# Elastic Constant Matrix: (Units=GPa)
#
#
# Indices 1 2 3 4 5 6 
#
# 1 98.8151 44.6516 55.4559 0.0000 0.0000 0.0000
# 2 44.6516 129.3400 51.3847 0.0000 0.0000 0.0000
# 3 55.4559 51.3847 113.4649 -0.0002 0.0001 0.0001
# 4 0.0000 0.0000 -0.0002 23.1453 0.0000 0.0001
# 5 0.0000 0.0000 0.0001 0.0000 30.2033 0.0000
# 6 0.0000 0.0000 0.0001 0.0001 0.0000 19.0923
#
#
#
# Elastic Compliance Matrix: (Units=1/GPa)
#
#
# Indices 1 2 3 4 5 6 
#
# 1 0.014682 -0.002704 -0.005951 0.000000 0.000000 0.000000
# 2 -0.002704 0.009926 -0.003173 0.000000 0.000000 0.000000
# 3 -0.005951 -0.003173 0.013159 0.000000 0.000000 0.000000
# 4 0.000000 0.000000 0.000000 0.043205 0.000000 0.000000
# 5 0.000000 0.000000 0.000000 0.000000 0.033109 0.000000
# 6 0.000000 0.000000 0.000000 0.000000 0.000000 0.052377
#
#
# Mechanical properties :
#
#
# Convention : Reuss Voigt Hill
#
# Bulk Modulus (GPa) = 70.87575 71.62271 71.24923
# Shear Modulus (GPa) = 25.66494 27.16336 26.41415
#
# Velocity S-wave (km/s) = 3.62114 3.72535 3.67361
# Velocity P-wave (km/s) = 7.32769 7.42277 7.37538
#
# Compressibility (1/GPa) = 0.01410920
#
# Stress axis : x y z
#
# Youngs Moduli (GPa) = 68.11240 100.74660 75.99381
#
# Poissons Ratio (x) = 0.27245 0.45224
# Poissons Ratio (y) = 0.18419 0.24116
# Poissons Ratio (z) = 0.40533 0.31971
#
# Static dielectric constant tensor:
#      x y z
#    x 3.628360 0.000000 0.000000 
#    y 0.000000 3.759780 0.000000 
#    z 0.000000 0.000000 3.533900 
# 
# 
# High freq. dielectric constant tensor:
#      x y z
#    x 1.762940 0.000000 0.000000 
#    y 0.000000 1.763970 0.000000 
#    z 0.000000 0.000000 1.764160 
# 
# From -- ./inp_files/11064.got.cif
#   From: 2010.06.25/outbox.cif.g09.slc.cpg/sg71_6_cif.got.tgz:11064.got - 2010.06.28 04:59:45.
