data_PCOD8290841
_publ_section_title
;
Structure prediction by ZEFSAII (Michael W. Deem and Ramdas Pophale) SiO2 
 PCOD8290841
Probable space group: I M M M
;
_chemical_formula_sum "Si O2"
_cell_formula_units_Z 72
_cell_length_a 10.574007
_cell_length_b 32.271349
_cell_length_c 10.787270
_cell_angle_alpha 90.000000
_cell_angle_beta 90.000000
_cell_angle_gamma 90.000000
_cell_volume 3681.020725
_symmetry_space_group_name_H-M "I M M M"
_symmetry_group_IT_number 71
_symmetry_cell_setting 'orthorhombic'
loop_
_space_group_symop_operation_xyz
x,y,z
-x,-y,z
x,-y,-z
-x,y,-z
-x,-y,-z
x,y,-z
-x,y,z
x,-y,z
1/2+x,1/2+y,1/2+z
1/2-x,1/2-y,1/2+z
1/2+x,1/2-y,1/2-z
1/2-x,1/2+y,1/2-z
1/2-x,1/2-y,1/2-z
1/2+x,1/2+y,1/2-z
1/2-x,1/2+y,1/2+z
1/2+x,1/2-y,1/2+z
loop_
_atom_site_type_symbol
_atom_site_label
_atom_site_fract_x
_atom_site_fract_y
_atom_site_fract_z
Si Si1 0.641323 0.221518 0.500000
Si Si2 0.722323 0.310715 0.500000
Si Si3 0.854382 0.679894 0.757042
Si Si4 0.356930 0.596312 0.500000
Si Si5 0.645360 0.547983 0.264996
Si Si6 0.358741 0.908317 0.359123
O O1 0.500000 0.202813 0.500000
O O2 0.630508 0.271307 0.500000
O O3 0.709389 0.204562 0.626110
O O4 0.802682 0.306389 0.375388
O O5 0.648961 0.354129 0.500000
O O6 0.830977 0.631033 0.772516
O O7 0.000000 0.691781 0.753852
O O8 0.500000 0.581277 0.500000
O O9 0.298611 0.575363 0.622060
O O10 0.500000 0.560041 0.227035
O O11 0.650890 0.500000 0.300657
O O12 0.747121 0.557666 0.157162
O O13 0.354920 0.892696 0.500000
O O14 0.500000 0.926518 0.329513
#
# Coordination Sequence:
#
# PCOD8290841 Si02
#       6
#     8   8  16   8  16  16
#     4  10  21  37  56  80 113 152 189 228 286 353
#     4  12  20  33  58  87 109 141 191 247 279 329
#     4  10  20  36  56  80 113 150 188 233 289 349
#     4  10  20  35  55  81 113 149 187 229 285 352
#     4  10  21  38  59  83 115 153 191 237 295 352
#     4  10  20  37  61  84 111 153 197 237 288 349
#
# _framework density 19.559792000000002
#
# number of rings (size 3 to 8) (size 9 to 14) (size 15 to 20)
#    0.000    1.778    3.333    1.667    0.000    2.667 
#    0.000    2.778    0.000    2.667    0.000    0.000 
#    0.000    0.000    0.000    0.000    0.000    0.000 
#
# Total GULP energy -446108.746219 kJ/mol
# GULP energy per Si atom -12391.909617 kJ/mol
# Density = 1.951527 g / cm^3
# Si number density = 19.559792 Si / 1000 Ang^3
#
#
#
# Elastic Constant Matrix: (Units=GPa)
#
#
# Indices 1 2 3 4 5 6 
#
# 1 82.8342 34.3019 38.8807 -0.0003 0.0005 0.0000
# 2 34.3019 88.9251 32.5950 0.0008 -0.0005 -0.0001
# 3 38.8807 32.5950 129.7874 -0.0008 -0.0020 0.0002
# 4 -0.0003 0.0008 -0.0008 28.1804 -0.0017 0.0000
# 5 0.0005 -0.0005 -0.0020 -0.0017 33.4959 0.0001
# 6 0.0000 -0.0001 0.0002 0.0000 0.0001 28.1981
#
#
#
# Elastic Compliance Matrix: (Units=1/GPa)
#
#
# Indices 1 2 3 4 5 6 
#
# 1 0.015691 -0.004769 -0.003503 0.000000 -0.000001 0.000000
# 2 -0.004769 0.013835 -0.002046 0.000000 0.000000 0.000000
# 3 -0.003503 -0.002046 0.009268 0.000000 0.000001 0.000000
# 4 0.000000 0.000000 0.000000 0.035486 0.000002 0.000000
# 5 -0.000001 0.000000 0.000001 0.000002 0.029854 0.000000
# 6 0.000000 0.000000 0.000000 0.000000 0.000000 0.035463
#
#
# Mechanical properties :
#
#
# Convention : Reuss Voigt Hill
#
# Bulk Modulus (GPa) = 55.06951 57.01133 56.04042
# Shear Modulus (GPa) = 30.06867 31.02617 30.54742
#
# Velocity S-wave (km/s) = 3.92506 3.98706 3.95618
# Velocity P-wave (km/s) = 6.98262 7.09972 7.04141
#
# Compressibility (1/GPa) = 0.01815887
#
# Stress axis : x y z
#
# Youngs Moduli (GPa) = 63.72953 72.28140 107.89650
#
# Poissons Ratio (x) = 0.34469 0.37797
# Poissons Ratio (y) = 0.30391 0.22075
# Poissons Ratio (z) = 0.22325 0.14788
#
# Static dielectric constant tensor:
#      x y z
#    x 3.345350 0.000000 0.000000 
#    y 0.000000 3.363170 0.000000 
#    z 0.000000 0.000000 3.760730 
# 
# 
# High freq. dielectric constant tensor:
#      x y z
#    x 1.738110 0.000000 0.000000 
#    y 0.000000 1.759660 0.000000 
#    z 0.000000 0.000000 1.771450 
# 
# From -- ./inp_files/19902.got.cif
#   From: 2010.06.25/outbox.cif.g09.slc.cpg/sg71_10_cif.got.tgz:19902.got - 2010.06.28 04:59:45.
