data_PCOD8290551
_publ_section_title
;
Structure prediction by ZEFSAII (Michael W. Deem and Ramdas Pophale) SiO2 
 PCOD8290551
Probable space group: I M M M
;
_chemical_formula_sum "Si O2"
_cell_formula_units_Z 80
_cell_length_a 10.017117
_cell_length_b 15.198402
_cell_length_c 27.743731
_cell_angle_alpha 90.000000
_cell_angle_beta 90.000000
_cell_angle_gamma 90.000000
_cell_volume 4223.821328
_symmetry_space_group_name_H-M "I M M M"
_symmetry_group_IT_number 71
_symmetry_cell_setting 'orthorhombic'
loop_
_space_group_symop_operation_xyz
x,y,z
-x,-y,z
x,-y,-z
-x,y,-z
-x,-y,-z
x,y,-z
-x,y,z
x,-y,z
1/2+x,1/2+y,1/2+z
1/2-x,1/2-y,1/2+z
1/2+x,1/2-y,1/2-z
1/2-x,1/2+y,1/2-z
1/2-x,1/2-y,1/2-z
1/2+x,1/2+y,1/2-z
1/2-x,1/2+y,1/2+z
1/2+x,1/2-y,1/2+z
loop_
_atom_site_type_symbol
_atom_site_label
_atom_site_fract_x
_atom_site_fract_y
_atom_site_fract_z
Si Si1 0.850103 0.000000 0.942975
Si Si2 0.271180 0.687739 0.444396
Si Si3 0.790222 0.896558 0.723141
Si Si4 0.000000 0.215927 0.554442
Si Si5 0.000000 0.749718 0.118434
Si Si6 0.000000 0.895747 0.352991
Si Si7 0.000000 0.395807 0.195337
Si Si8 0.500000 0.395556 0.698406
O O1 0.776055 0.087570 0.924282
O O2 0.000000 0.000000 0.922389
O O3 0.851336 0.000000 0.000000
O O4 0.316060 0.690932 0.500000
O O5 0.123449 0.720924 0.436545
O O6 0.369998 0.749988 0.414927
O O7 0.634227 0.867196 0.724533
O O8 0.868537 0.860515 0.675798
O O9 0.867292 0.867499 0.771549
O O10 0.799351 0.000000 0.719939
O O11 0.000000 0.176554 0.500000
O O12 0.000000 0.137088 0.592291
O O13 0.000000 0.836731 0.151242
O O14 0.000000 0.656966 0.145617
O O15 0.000000 0.000000 0.355764
O O16 0.000000 0.500000 0.183889
O O17 0.500000 0.500000 0.685996
#
# Coordination Sequence:
#
# PCOD8290551 Si02
#       8
#     8  16  16   8   8   8   8   8
#     4   9  16  31  55  75  93 133 181 211 249 319
#     4  10  21  36  54  77 107 141 176 216 267 319
#     4   8  16  34  55  75 104 140 174 214 260 313
#     4  10  21  35  50  76 111 138 174 230 271 305
#     4  12  22  32  57  84 103 138 179 226 263 304
#     4   9  16  31  56  76 103 147 184 215 258 314
#     4  10  20  34  54  78 106 140 179 216 258 315
#     4   9  20  35  53  80 106 130 169 220 266 315
#
# _framework density 18.940194999999999
#
# number of rings (size 3 to 8) (size 9 to 14) (size 15 to 20)
#    0.000    2.500    1.000    2.700    1.400    1.400 
#    0.000    3.000    0.000    2.400    0.000    0.000 
#    0.000    0.000    0.000    0.000    0.000    0.000 
#
# Total GULP energy -495769.774346 kJ/mol
# GULP energy per Si atom -12394.244359 kJ/mol
# Density = 1.889709 g / cm^3
# Si number density = 18.940195 Si / 1000 Ang^3
#
#
#
# Elastic Constant Matrix: (Units=GPa)
#
#
# Indices 1 2 3 4 5 6 
#
# 1 156.3626 24.9875 46.7319 0.0000 0.0000 0.0000
# 2 24.9875 45.7871 17.7013 0.0000 0.0000 0.0000
# 3 46.7319 17.7013 69.5655 0.0000 0.0000 0.0000
# 4 0.0000 0.0000 0.0000 27.7164 0.0000 0.0000
# 5 0.0000 0.0000 0.0000 0.0000 11.3092 0.0000
# 6 0.0000 0.0000 0.0000 0.0000 0.0000 13.6941
#
#
#
# Elastic Compliance Matrix: (Units=1/GPa)
#
#
# Indices 1 2 3 4 5 6 
#
# 1 0.008277 -0.002626 -0.004892 0.000000 0.000000 0.000000
# 2 -0.002626 0.025056 -0.004612 0.000000 0.000000 0.000000
# 3 -0.004892 -0.004612 0.018835 0.000000 0.000000 0.000000
# 4 0.000000 0.000000 0.000000 0.036080 0.000000 0.000000
# 5 0.000000 0.000000 0.000000 0.000000 0.088424 0.000000
# 6 0.000000 0.000000 0.000000 0.000000 0.000000 0.073024
#
#
# Mechanical properties :
#
#
# Convention : Reuss Voigt Hill
#
# Bulk Modulus (GPa) = 35.83117 50.06185 42.94651
# Shear Modulus (GPa) = 17.65176 22.69690 20.17433
#
# Velocity S-wave (km/s) = 3.05614 3.46547 3.26722
# Velocity P-wave (km/s) = 5.60468 6.51932 6.07923
#
# Compressibility (1/GPa) = 0.02790866
#
# Stress axis : x y z
#
# Youngs Moduli (GPa) = 120.81502 39.91045 53.09314
#
# Poissons Ratio (x) = 0.10480 0.25974
# Poissons Ratio (y) = 0.31723 0.24485
# Poissons Ratio (z) = 0.59105 0.18406
#
# Static dielectric constant tensor:
#      x y z
#    x 4.031550 0.000000 0.000000 
#    y 0.000000 3.300430 0.000000 
#    z 0.000000 0.000000 3.422800 
# 
# 
# High freq. dielectric constant tensor:
#      x y z
#    x 1.745310 0.000000 0.000000 
#    y 0.000000 1.719660 0.000000 
#    z 0.000000 0.000000 1.725580 
# 
# From -- ./inp_files/67983.got.cif
#   From: 2010.06.25/outbox.cif.g09.slc.cpg/sg71_34_cif.got.tgz:67983.got - 2010.06.28 04:59:45.
