data_PCOD8290680
_publ_section_title
;
Structure prediction by ZEFSAII (Michael W. Deem and Ramdas Pophale) SiO2 
 PCOD8290680
Probable space group: I M M M
;
_chemical_formula_sum "Si O2"
_cell_formula_units_Z 120
_cell_length_a 27.547192
_cell_length_b 27.090137
_cell_length_c 8.743799
_cell_angle_alpha 90.000000
_cell_angle_beta 90.000000
_cell_angle_gamma 90.000000
_cell_volume 6525.123005
_symmetry_space_group_name_H-M "I M M M"
_symmetry_group_IT_number 71
_symmetry_cell_setting 'orthorhombic'
loop_
_space_group_symop_operation_xyz
x,y,z
-x,-y,z
x,-y,-z
-x,y,-z
-x,-y,-z
x,y,-z
-x,y,z
x,-y,z
1/2+x,1/2+y,1/2+z
1/2-x,1/2-y,1/2+z
1/2+x,1/2-y,1/2-z
1/2-x,1/2+y,1/2-z
1/2-x,1/2-y,1/2-z
1/2+x,1/2+y,1/2-z
1/2-x,1/2+y,1/2+z
1/2+x,1/2-y,1/2+z
loop_
_atom_site_type_symbol
_atom_site_label
_atom_site_fract_x
_atom_site_fract_y
_atom_site_fract_z
Si Si1 0.716761 0.107656 0.820183
Si Si2 0.554140 0.000000 0.318492
Si Si3 0.233999 0.198963 0.680569
Si Si4 0.313259 0.446250 0.680016
Si Si5 0.555931 0.820876 0.177701
Si Si6 0.615130 0.906634 0.679966
Si Si7 0.055681 0.792285 0.677392
Si Si8 0.641204 0.652809 0.680162
O O1 0.727129 0.158751 0.734951
O O2 0.758380 0.068541 0.775144
O O3 0.665788 0.086231 0.765689
O O4 0.716087 0.118082 0.000000
O O5 0.581316 0.048953 0.260448
O O6 0.500000 0.000000 0.248381
O O7 0.551606 0.000000 0.500000
O O8 0.234124 0.202162 0.500000
O O9 0.250000 0.250000 0.750000
O O10 0.179802 0.187616 0.736955
O O11 0.317569 0.450957 0.500000
O O12 0.325276 0.500000 0.754445
O O13 0.350699 0.403912 0.736756
O O14 0.500000 0.832539 0.216327
O O15 0.590253 0.854733 0.280101
O O16 0.567960 0.764269 0.219161
O O17 0.566534 0.830974 0.000000
O O18 0.624150 0.909304 0.500000
O O19 0.066325 0.801872 0.500000
O O20 0.087463 0.829610 0.777758
O O21 0.000000 0.803830 0.716762
O O22 0.650219 0.656626 0.500000
#
# Coordination Sequence:
#
# PCOD8290680 Si02
#       8
#    16   8  16  16  16  16  16  16
#     4  10  21  36  54  79 109 140 179 225 273 323
#     4   9  20  38  55  73 103 143 185 233 290 341
#     4  11  22  37  56  78 110 147 183 221 267 322
#     4   8  16  33  56  79 105 139 177 221 270 322
#     4   9  19  36  55  75 101 135 178 227 275 324
#     4  11  22  35  54  78 105 140 180 228 281 335
#     4   9  19  36  57  80 110 148 185 223 270 321
#     4  10  20  34  55  84 114 143 181 225 272 327
#
# _framework density 18.390457999999999
#
# number of rings (size 3 to 8) (size 9 to 14) (size 15 to 20)
#    0.000    2.333    0.000    4.400    2.800    1.600 
#    0.000    2.333    0.000   10.800    0.000    2.800 
#    0.000    0.000    0.000    0.000    0.000    0.000 
#
# Total GULP energy -744018.184873 kJ/mol
# GULP energy per Si atom -12400.303081 kJ/mol
# Density = 1.834860 g / cm^3
# Si number density = 18.390458 Si / 1000 Ang^3
#
#
#
# Elastic Constant Matrix: (Units=GPa)
#
#
# Indices 1 2 3 4 5 6 
#
# 1 106.4013 65.4762 33.9276 0.0000 0.0000 0.0000
# 2 65.4762 142.2728 41.8802 0.0000 0.0000 0.0000
# 3 33.9276 41.8802 80.5670 0.0000 0.0000 0.0000
# 4 0.0000 0.0000 0.0000 20.2017 0.0000 0.0000
# 5 0.0000 0.0000 0.0000 0.0000 32.1761 0.0000
# 6 0.0000 0.0000 0.0000 0.0000 0.0000 31.4923
#
#
#
# Elastic Compliance Matrix: (Units=1/GPa)
#
#
# Indices 1 2 3 4 5 6 
#
# 1 0.013676 -0.005429 -0.002937 0.000000 0.000000 0.000000
# 2 -0.005429 0.010454 -0.003148 0.000000 0.000000 0.000000
# 3 -0.002937 -0.003148 0.015285 0.000000 0.000000 0.000000
# 4 0.000000 0.000000 0.000000 0.049501 0.000000 0.000000
# 5 0.000000 0.000000 0.000000 0.000000 0.031079 0.000000
# 6 0.000000 0.000000 0.000000 0.000000 0.000000 0.031754
#
#
# Mechanical properties :
#
#
# Convention : Reuss Voigt Hill
#
# Bulk Modulus (GPa) = 61.02396 67.97879 64.50137
# Shear Modulus (GPa) = 27.74096 29.30449 28.52273
#
# Velocity S-wave (km/s) = 3.88808 3.99615 3.94249
# Velocity P-wave (km/s) = 7.30826 7.63785 7.47487
#
# Compressibility (1/GPa) = 0.01638701
#
# Stress axis : x y z
#
# Youngs Moduli (GPa) = 73.12149 95.65674 65.42348
#
# Poissons Ratio (x) = 0.51936 0.19213
# Poissons Ratio (y) = 0.39700 0.20594
# Poissons Ratio (z) = 0.21474 0.30111
#
# Static dielectric constant tensor:
#      x y z
#    x 3.202640 0.000000 0.000000 
#    y 0.000000 3.593190 0.000000 
#    z 0.000000 0.000000 3.226720 
# 
# 
# High freq. dielectric constant tensor:
#      x y z
#    x 1.709420 0.000000 0.000000 
#    y 0.000000 1.715870 0.000000 
#    z 0.000000 0.000000 1.701780 
# 
# From -- ./inp_files/15605.got.cif
#   From: 2010.06.25/outbox.cif.g09.slc.cpg/sg71_8_cif.got.tgz:15605.got - 2010.06.28 04:59:45.
