data_PCOD8290453
_publ_section_title
;
Structure prediction by ZEFSAII (Michael W. Deem and Ramdas Pophale) SiO2 
 PCOD8290453
Probable space group: I M M M
;
_chemical_formula_sum "Si O2"
_cell_formula_units_Z 84
_cell_length_a 12.080462
_cell_length_b 13.962077
_cell_length_c 28.196958
_cell_angle_alpha 90.000000
_cell_angle_beta 90.000000
_cell_angle_gamma 90.000000
_cell_volume 4755.934117
_symmetry_space_group_name_H-M "I M M M"
_symmetry_group_IT_number 71
_symmetry_cell_setting 'orthorhombic'
loop_
_space_group_symop_operation_xyz
x,y,z
-x,-y,z
x,-y,-z
-x,y,-z
-x,-y,-z
x,y,-z
-x,y,z
x,-y,z
1/2+x,1/2+y,1/2+z
1/2-x,1/2-y,1/2+z
1/2+x,1/2-y,1/2-z
1/2-x,1/2+y,1/2-z
1/2-x,1/2-y,1/2-z
1/2+x,1/2+y,1/2-z
1/2-x,1/2+y,1/2+z
1/2+x,1/2-y,1/2+z
loop_
_atom_site_type_symbol
_atom_site_label
_atom_site_fract_x
_atom_site_fract_y
_atom_site_fract_z
Si Si1 0.226930 0.500000 0.264429
Si Si2 0.500000 0.208243 0.660786
Si Si3 0.258258 0.104833 0.553061
Si Si4 0.000000 0.671054 0.053151
Si Si5 0.375793 0.301033 0.872830
Si Si6 0.000000 0.500000 0.788815
Si Si7 0.618014 0.500000 0.178463
Si Si8 0.725440 0.703044 0.699931
O O1 0.281896 0.500000 0.213566
O O2 0.268578 0.589205 0.295283
O O3 0.099008 0.500000 0.249473
O O4 0.500000 0.228321 0.603659
O O5 0.500000 0.095256 0.677103
O O6 0.392756 0.260556 0.681813
O O7 0.214922 0.116446 0.500000
O O8 0.390837 0.107135 0.555394
O O9 0.201431 0.192791 0.580780
O O10 0.223402 0.000000 0.572827
O O11 0.000000 0.725188 0.000000
O O12 0.500000 0.266449 0.885272
O O13 0.374849 0.407333 0.853396
O O14 0.323637 0.227924 0.835941
O O15 0.500000 0.500000 0.206004
O O16 0.750000 0.750000 0.750000
#
# Coordination Sequence:
#
# PCOD8290453 Si02
#       8
#     8   8  16   8  16   4   8  16
#     4  12  26  40  56  82 116 160 198 247 294 350
#     4  12  24  39  65  91 118 164 205 247 297 358
#     4  10  20  34  54  83 117 153 192 235 288 356
#     4  10  21  36  55  85 120 153 196 248 298 347
#     4  11  22  36  55  80 114 154 192 235 286 346
#     4  12  24  36  61  90 124 160 205 240 290 362
#     4  10  20  34  53  75 112 151 189 229 286 337
#     4  12  25  39  58  83 117 154 201 246 293 350
#
# _framework density 17.662146
#
# number of rings (size 3 to 8) (size 9 to 14) (size 15 to 20)
#    0.000    0.952    6.667    0.286    5.333    1.524 
#    0.000    0.952    0.000    0.000    0.000    3.333 
#    0.000    1.524    0.000    0.000    0.000    0.000 
#
# Total GULP energy -520372.255752 kJ/mol
# GULP energy per Si atom -12389.815613 kJ/mol
# Density = 1.762195 g / cm^3
# Si number density = 17.662146 Si / 1000 Ang^3
#
#
#
# Elastic Constant Matrix: (Units=GPa)
#
#
# Indices 1 2 3 4 5 6 
#
# 1 124.4669 31.6322 50.1779 0.0000 0.0000 0.0000
# 2 31.6322 95.0302 36.3547 0.0000 0.0000 0.0000
# 3 50.1779 36.3547 108.2335 0.0000 0.0000 0.0000
# 4 0.0000 0.0000 0.0000 30.7255 0.0000 0.0000
# 5 0.0000 0.0000 0.0000 0.0000 26.1852 0.0000
# 6 0.0000 0.0000 0.0000 0.0000 0.0000 21.1126
#
#
#
# Elastic Compliance Matrix: (Units=1/GPa)
#
#
# Indices 1 2 3 4 5 6 
#
# 1 0.010145 -0.001810 -0.004095 0.000000 0.000000 0.000000
# 2 -0.001810 0.012398 -0.003325 0.000000 0.000000 0.000000
# 3 -0.004095 -0.003325 0.012255 0.000000 0.000000 0.000000
# 4 0.000000 0.000000 0.000000 0.032546 0.000000 0.000000
# 5 0.000000 0.000000 0.000000 0.000000 0.038190 0.000000
# 6 0.000000 0.000000 0.000000 0.000000 0.000000 0.047365
#
#
# Mechanical properties :
#
#
# Convention : Reuss Voigt Hill
#
# Bulk Modulus (GPa) = 61.21318 62.67337 61.94328
# Shear Modulus (GPa) = 28.27970 29.57572 28.92771
#
# Velocity S-wave (km/s) = 4.00577 4.09654 4.05141
# Velocity P-wave (km/s) = 7.49187 7.61164 7.55199
#
# Compressibility (1/GPa) = 0.01633635
#
# Stress axis : x y z
#
# Youngs Moduli (GPa) = 98.56712 80.66111 81.60091
#
# Poissons Ratio (x) = 0.14602 0.33419
# Poissons Ratio (y) = 0.17844 0.27132
# Poissons Ratio (z) = 0.40367 0.26819
#
# Static dielectric constant tensor:
#      x y z
#    x 3.741910 0.000000 0.000000 
#    y 0.000000 3.162100 0.000000 
#    z 0.000000 0.000000 3.470190 
# 
# 
# High freq. dielectric constant tensor:
#      x y z
#    x 1.705840 0.000000 0.000000 
#    y 0.000000 1.643210 0.000000 
#    z 0.000000 0.000000 1.685020 
# 
# From -- ./inp_files/58780.got.cif
#   From: 2010.06.25/outbox.cif.g09.slc.cpg/sg71_30_cif.got.tgz:58780.got - 2010.06.28 04:59:45.
