data_PCOD8290420
_publ_section_title
;
Structure prediction by ZEFSAII (Michael W. Deem and Ramdas Pophale) SiO2 
 PCOD8290420
Probable space group: I M M M
;
_chemical_formula_sum "Si O2"
_cell_formula_units_Z 64
_cell_length_a 8.677222
_cell_length_b 27.813046
_cell_length_c 14.306272
_cell_angle_alpha 90.000000
_cell_angle_beta 90.000000
_cell_angle_gamma 90.000000
_cell_volume 3452.675322
_symmetry_space_group_name_H-M "I M M M"
_symmetry_group_IT_number 71
_symmetry_cell_setting 'orthorhombic'
loop_
_space_group_symop_operation_xyz
x,y,z
-x,-y,z
x,-y,-z
-x,y,-z
-x,-y,-z
x,y,-z
-x,y,z
x,-y,z
1/2+x,1/2+y,1/2+z
1/2-x,1/2-y,1/2+z
1/2+x,1/2-y,1/2-z
1/2-x,1/2+y,1/2-z
1/2-x,1/2-y,1/2-z
1/2+x,1/2+y,1/2-z
1/2-x,1/2+y,1/2+z
1/2+x,1/2-y,1/2+z
loop_
_atom_site_type_symbol
_atom_site_label
_atom_site_fract_x
_atom_site_fract_y
_atom_site_fract_z
Si Si1 0.678877 0.638062 0.281065
Si Si2 0.177981 0.444503 0.607114
Si Si3 0.822494 0.275817 0.607321
Si Si4 0.180396 0.324289 0.106503
O O1 0.500000 0.649387 0.292411
O O2 0.715527 0.586242 0.324367
O O3 0.777734 0.678445 0.332468
O O4 0.727929 0.638346 0.172087
O O5 0.222473 0.433311 0.500000
O O6 0.208954 0.500000 0.630287
O O7 0.000000 0.431325 0.624277
O O8 0.791773 0.289481 0.500000
O O9 0.720748 0.230094 0.637244
O O10 0.000000 0.262675 0.625384
O O11 0.000000 0.332732 0.118516
O O12 0.234050 0.333396 0.000000
#
# Coordination Sequence:
#
# PCOD8290420 Si02
#       4
#    16  16  16  16
#     4  12  23  33  51  78 108 140 173 211 256 309
#     4   9  19  37  59  81 106 136 170 210 256 305
#     4  10  20  34  52  75 106 141 176 215 257 303
#     4  10  21  37  55  74 100 136 178 221 261 303
#
# _framework density 18.536349999999999
#
# number of rings (size 3 to 8) (size 9 to 14) (size 15 to 20)
#    0.000    1.750    0.000    6.000    0.000    7.000 
#    0.000    1.250    0.000    0.750    0.000    5.250 
#    0.000    0.000    0.000    0.000    0.000    0.000 
#
# Total GULP energy -396962.168643 kJ/mol
# GULP energy per Si atom -12405.067770 kJ/mol
# Density = 1.849416 g / cm^3
# Si number density = 18.536350 Si / 1000 Ang^3
#
#
#
# Elastic Constant Matrix: (Units=GPa)
#
#
# Indices 1 2 3 4 5 6 
#
# 1 63.7484 21.9897 31.2805 0.0000 0.0000 0.0000
# 2 21.9897 73.0834 52.9382 0.0001 0.0000 0.0000
# 3 31.2805 52.9382 91.9766 0.0001 0.0000 0.0000
# 4 0.0000 0.0001 0.0001 31.9302 0.0000 0.0000
# 5 0.0000 0.0000 0.0000 0.0000 27.8139 0.0000
# 6 0.0000 0.0000 0.0000 0.0000 0.0000 31.1693
#
#
#
# Elastic Compliance Matrix: (Units=1/GPa)
#
#
# Indices 1 2 3 4 5 6 
#
# 1 0.018962 -0.001774 -0.005428 0.000000 0.000000 0.000000
# 2 -0.001774 0.023632 -0.012999 0.000000 0.000000 0.000000
# 3 -0.005428 -0.012999 0.020200 0.000000 0.000000 0.000000
# 4 0.000000 0.000000 0.000000 0.031318 0.000000 0.000000
# 5 0.000000 0.000000 0.000000 0.000000 0.035953 0.000000
# 6 0.000000 0.000000 0.000000 0.000000 0.000000 0.032083
#
#
# Mechanical properties :
#
#
# Convention : Reuss Voigt Hill
#
# Bulk Modulus (GPa) = 44.65559 49.02501 46.84030
# Shear Modulus (GPa) = 23.80801 26.35601 25.08201
#
# Velocity S-wave (km/s) = 3.58773 3.77484 3.68248
# Velocity P-wave (km/s) = 6.42694 6.74572 6.58826
#
# Compressibility (1/GPa) = 0.02239361
#
# Stress axis : x y z
#
# Youngs Moduli (GPa) = 52.73742 42.31507 49.50529
#
# Poissons Ratio (x) = 0.07505 0.26871
# Poissons Ratio (y) = 0.09353 0.64350
# Poissons Ratio (z) = 0.28626 0.55004
#
# Static dielectric constant tensor:
#      x y z
#    x 3.362860 0.000000 0.000000 
#    y 0.000000 3.202520 0.000000 
#    z 0.000000 0.000000 3.649960 
# 
# 
# High freq. dielectric constant tensor:
#      x y z
#    x 1.725250 0.000000 0.000000 
#    y 0.000000 1.694400 0.000000 
#    z 0.000000 0.000000 1.724490 
# 
# From -- ./inp_files/5443.got.cif
#   From: 2010.06.25/outbox.cif.g09.slc.cpg/sg71_3_cif.got.tgz:5443.got - 2010.06.28 04:59:45.
