data_PCOD8290649
_publ_section_title
;
Structure prediction by ZEFSAII (Michael W. Deem and Ramdas Pophale) SiO2 
 PCOD8290649
Probable space group: I M M M
;
_chemical_formula_sum "Si O2"
_cell_formula_units_Z 88
_cell_length_a 17.560319
_cell_length_b 7.814677
_cell_length_c 31.424567
_cell_angle_alpha 90.000000
_cell_angle_beta 90.000000
_cell_angle_gamma 90.000000
_cell_volume 4312.337425
_symmetry_space_group_name_H-M "I M M M"
_symmetry_group_IT_number 71
_symmetry_cell_setting 'orthorhombic'
loop_
_space_group_symop_operation_xyz
x,y,z
-x,-y,z
x,-y,-z
-x,y,-z
-x,-y,-z
x,y,-z
-x,y,z
x,-y,z
1/2+x,1/2+y,1/2+z
1/2-x,1/2-y,1/2+z
1/2+x,1/2-y,1/2-z
1/2-x,1/2+y,1/2-z
1/2-x,1/2-y,1/2-z
1/2+x,1/2+y,1/2-z
1/2-x,1/2+y,1/2+z
1/2+x,1/2-y,1/2+z
loop_
_atom_site_type_symbol
_atom_site_label
_atom_site_fract_x
_atom_site_fract_y
_atom_site_fract_z
Si Si1 0.286222 0.301016 0.187916
Si Si2 0.089354 0.500000 0.449762
Si Si3 0.186855 0.202033 0.591274
Si Si4 0.843280 0.702304 0.952590
Si Si5 0.000000 0.294837 0.086785
Si Si6 0.000000 0.315070 0.821692
Si Si7 0.362926 0.690620 0.272351
O O1 0.265325 0.500000 0.193009
O O2 0.319701 0.261301 0.141616
O O3 0.346515 0.245964 0.224235
O O4 0.210138 0.195380 0.196952
O O5 0.102748 0.500000 0.500000
O O6 0.125795 0.674922 0.431254
O O7 0.000000 0.500000 0.438293
O O8 0.271582 0.256257 0.576512
O O9 0.170134 0.000000 0.581104
O O10 0.848682 0.500000 0.953387
O O11 0.923017 0.777682 0.935130
O O12 0.829529 0.774957 0.000000
O O13 0.000000 0.500000 0.083274
O O14 0.000000 0.208501 0.134346
O O15 0.072814 0.305610 0.792166
O O16 0.000000 0.500000 0.842459
O O17 0.395491 0.500000 0.271214
#
# Coordination Sequence:
#
# PCOD8290649 Si02
#       7
#    16   8  16  16   8   8  16
#     4   9  19  37  58  83 114 149 192 240 299 359
#     4  11  26  46  66  93 123 153 197 258 324 384
#     4  10  21  40  65  92 122 160 202 249 305 375
#     4   9  16  28  52  85 116 152 196 241 290 346
#     4   9  17  29  48  77 119 159 197 241 282 337
#     4  11  21  34  49  74 112 158 200 238 287 342
#     4  10  20  34  55  81 113 153 196 245 294 350
#
# _framework density 20.406566999999999
#
# number of rings (size 3 to 8) (size 9 to 14) (size 15 to 20)
#    0.000    2.273    0.000    2.727    1.273    6.182 
#    1.636    0.909    0.000    0.000    0.000    1.909 
#    0.000    0.000    0.000    0.000    0.000    0.000 
#
# Total GULP energy -545324.003731 kJ/mol
# GULP energy per Si atom -12393.727358 kJ/mol
# Density = 2.036012 g / cm^3
# Si number density = 20.406567 Si / 1000 Ang^3
#
#
#
# Elastic Constant Matrix: (Units=GPa)
#
#
# Indices 1 2 3 4 5 6 
#
# 1 116.8593 35.3186 70.8609 0.0000 0.0000 0.0000
# 2 35.3186 56.0373 33.5271 0.0000 0.0000 0.0000
# 3 70.8609 33.5271 158.8439 0.0000 0.0000 0.0000
# 4 0.0000 0.0000 0.0000 23.1796 0.0000 0.0000
# 5 0.0000 0.0000 0.0000 0.0000 26.1793 0.0000
# 6 0.0000 0.0000 0.0000 0.0000 0.0000 27.7762
#
#
#
# Elastic Compliance Matrix: (Units=1/GPa)
#
#
# Indices 1 2 3 4 5 6 
#
# 1 0.013024 -0.005417 -0.004667 0.000000 0.000000 0.000000
# 2 -0.005417 0.022677 -0.002370 0.000000 0.000000 0.000000
# 3 -0.004667 -0.002370 0.008878 0.000000 0.000000 0.000000
# 4 0.000000 0.000000 0.000000 0.043141 0.000000 0.000000
# 5 0.000000 0.000000 0.000000 0.000000 0.038198 0.000000
# 6 0.000000 0.000000 0.000000 0.000000 0.000000 0.036002
#
#
# Mechanical properties :
#
#
# Convention : Reuss Voigt Hill
#
# Bulk Modulus (GPa) = 50.83381 67.90597 59.36989
# Shear Modulus (GPa) = 25.85513 28.22928 27.04221
#
# Velocity S-wave (km/s) = 3.56336 3.72337 3.64424
# Velocity P-wave (km/s) = 6.47260 7.19954 6.84573
#
# Compressibility (1/GPa) = 0.01967195
#
# Stress axis : x y z
#
# Youngs Moduli (GPa) = 76.77972 44.09712 112.64229
#
# Poissons Ratio (x) = 0.23886 0.52569
# Poissons Ratio (y) = 0.41589 0.26697
# Poissons Ratio (z) = 0.35832 0.10451
#
# Static dielectric constant tensor:
#      x y z
#    x 3.695500 0.000000 0.000000 
#    y 0.000000 3.483910 0.000000 
#    z 0.000000 0.000000 3.905340 
# 
# 
# High freq. dielectric constant tensor:
#      x y z
#    x 1.784880 0.000000 0.000000 
#    y 0.000000 1.779460 0.000000 
#    z 0.000000 0.000000 1.813170 
# 
# From -- ./inp_files/70391.got.cif
#   From: 2010.06.25/outbox.cif.g09.slc.cpg/sg71_36_cif.got.tgz:70391.got - 2010.06.28 04:59:45.
