data_PCOD8290029
_publ_section_title
;
Structure prediction by ZEFSAII (Michael W. Deem and Ramdas Pophale) SiO2 
 PCOD8290029
Probable space group: I M M M
;
_chemical_formula_sum "Si O2"
_cell_formula_units_Z 104
_cell_length_a 28.130301
_cell_length_b 21.123872
_cell_length_c 9.033175
_cell_angle_alpha 90.000000
_cell_angle_beta 90.000000
_cell_angle_gamma 90.000000
_cell_volume 5367.701176
_symmetry_space_group_name_H-M "I M M M"
_symmetry_group_IT_number 71
_symmetry_cell_setting 'orthorhombic'
loop_
_space_group_symop_operation_xyz
x,y,z
-x,-y,z
x,-y,-z
-x,y,-z
-x,-y,-z
x,y,-z
-x,y,z
x,-y,z
1/2+x,1/2+y,1/2+z
1/2-x,1/2-y,1/2+z
1/2+x,1/2-y,1/2-z
1/2-x,1/2+y,1/2-z
1/2-x,1/2-y,1/2-z
1/2+x,1/2+y,1/2-z
1/2-x,1/2+y,1/2+z
1/2+x,1/2-y,1/2+z
loop_
_atom_site_type_symbol
_atom_site_label
_atom_site_fract_x
_atom_site_fract_y
_atom_site_fract_z
Si Si1 0.055952 0.000000 0.324789
Si Si2 0.122312 0.900275 0.173213
Si Si3 0.384445 0.073527 0.169088
Si Si4 0.865262 0.760306 0.172378
Si Si5 0.446428 0.835021 0.669865
Si Si6 0.271614 0.569829 0.330079
Si Si7 0.196546 0.646925 0.175526
O O1 0.080630 0.062840 0.258396
O O2 0.063213 0.000000 0.500000
O O3 0.000000 0.000000 0.283064
O O4 0.129759 0.829888 0.243078
O O5 0.172283 0.934840 0.198514
O O6 0.108235 0.898603 0.000000
O O7 0.432476 0.106697 0.225708
O O8 0.340144 0.094426 0.268065
O O9 0.392954 0.000000 0.187888
O O10 0.374123 0.092484 0.000000
O O11 0.914302 0.725206 0.208029
O O12 0.821010 0.716801 0.231870
O O13 0.856612 0.770434 0.000000
O O14 0.438917 0.855888 0.500000
O O15 0.500000 0.814639 0.703127
O O16 0.260818 0.586135 0.500000
O O17 0.250744 0.500000 0.289906
O O18 0.248199 0.626737 0.235928
O O19 0.197245 0.645391 0.000000
#
# Coordination Sequence:
#
# PCOD8290029 Si02
#       7
#     8  16  16  16  16  16  16
#     4  11  25  43  61  87 123 151 179 233 294 341
#     4  10  20  39  64  86 109 146 188 225 271 330
#     4  10  20  33  49  71 102 140 183 231 274 316
#     4   8  17  34  56  81 110 140 182 233 272 323
#     4   9  18  33  52  75 104 137 174 222 279 332
#     4  10  20  34  53  81 115 147 184 230 273 319
#     4  10  20  34  53  80 110 146 186 224 272 329
#
# _framework density 19.375146999999998
#
# number of rings (size 3 to 8) (size 9 to 14) (size 15 to 20)
#    0.000    2.385    0.769    2.538    0.000    6.462 
#    0.000    6.923    0.000    0.000    0.000    0.000 
#    0.000    0.000    0.000    0.000    0.000    0.000 
#
# Total GULP energy -644555.345408 kJ/mol
# GULP energy per Si atom -12395.295104 kJ/mol
# Density = 1.933105 g / cm^3
# Si number density = 19.375147 Si / 1000 Ang^3
#
#
#
# Elastic Constant Matrix: (Units=GPa)
#
#
# Indices 1 2 3 4 5 6 
#
# 1 101.8268 53.2710 39.7976 0.0000 0.0000 0.0000
# 2 53.2710 142.1514 51.9551 0.0000 0.0000 0.0000
# 3 39.7976 51.9551 68.0570 0.0000 0.0000 0.0000
# 4 0.0000 0.0000 0.0000 18.8749 0.0000 0.0000
# 5 0.0000 0.0000 0.0000 0.0000 27.3406 0.0000
# 6 0.0000 0.0000 0.0000 0.0000 0.0000 24.0272
#
#
#
# Elastic Compliance Matrix: (Units=1/GPa)
#
#
# Indices 1 2 3 4 5 6 
#
# 1 0.013616 -0.003041 -0.005641 0.000000 0.000000 0.000000
# 2 -0.003041 0.010436 -0.006189 0.000000 0.000000 0.000000
# 3 -0.005641 -0.006189 0.022717 0.000000 0.000000 0.000000
# 4 0.000000 0.000000 0.000000 0.052980 0.000000 0.000000
# 5 0.000000 0.000000 0.000000 0.000000 0.036576 0.000000
# 6 0.000000 0.000000 0.000000 0.000000 0.000000 0.041619
#
#
# Mechanical properties :
#
#
# Convention : Reuss Voigt Hill
#
# Bulk Modulus (GPa) = 58.72713 66.89808 62.81261
# Shear Modulus (GPa) = 23.43436 25.18265 24.30851
#
# Velocity S-wave (km/s) = 3.48157 3.60910 3.54591
# Velocity P-wave (km/s) = 6.82188 7.20904 7.01813
#
# Compressibility (1/GPa) = 0.01702790
#
# Stress axis : x y z
#
# Youngs Moduli (GPa) = 73.44240 95.81908 44.02038
#
# Poissons Ratio (x) = 0.29138 0.24831
# Poissons Ratio (y) = 0.22334 0.27244
# Poissons Ratio (z) = 0.41427 0.59301
#
# Static dielectric constant tensor:
#      x y z
#    x 3.623020 0.000000 0.000000 
#    y 0.000000 3.776470 0.000000 
#    z 0.000000 0.000000 3.457710 
# 
# 
# High freq. dielectric constant tensor:
#      x y z
#    x 1.751770 0.000000 0.000000 
#    y 0.000000 1.761140 0.000000 
#    z 0.000000 0.000000 1.732270 
# 
# From -- ./inp_files/15022.got.cif
#   From: 2010.06.25/outbox.cif.g09.slc.cpg/sg71_8_cif.got.tgz:15022.got - 2010.06.28 04:59:45.
