data_PCOD8290729
_publ_section_title
;
Structure prediction by ZEFSAII (Michael W. Deem and Ramdas Pophale) SiO2 
 PCOD8290729
Probable space group: I M M M
;
_chemical_formula_sum "Si O2"
_cell_formula_units_Z 104
_cell_length_a 16.405031
_cell_length_b 23.655531
_cell_length_c 14.570086
_cell_angle_alpha 90.000000
_cell_angle_beta 90.000000
_cell_angle_gamma 90.000000
_cell_volume 5654.209185
_symmetry_space_group_name_H-M "I M M M"
_symmetry_group_IT_number 71
_symmetry_cell_setting 'orthorhombic'
loop_
_space_group_symop_operation_xyz
x,y,z
-x,-y,z
x,-y,-z
-x,y,-z
-x,-y,-z
x,y,-z
-x,y,z
x,-y,z
1/2+x,1/2+y,1/2+z
1/2-x,1/2-y,1/2+z
1/2+x,1/2-y,1/2-z
1/2-x,1/2+y,1/2-z
1/2-x,1/2-y,1/2-z
1/2+x,1/2+y,1/2-z
1/2-x,1/2+y,1/2+z
1/2+x,1/2-y,1/2+z
loop_
_atom_site_type_symbol
_atom_site_label
_atom_site_fract_x
_atom_site_fract_y
_atom_site_fract_z
Si Si1 0.343133 0.740844 0.225877
Si Si2 0.661730 0.614524 0.178841
Si Si3 0.678815 0.097726 0.400859
Si Si4 0.404755 0.845676 0.892283
Si Si5 0.000000 0.934050 0.397179
Si Si6 0.908193 0.286209 0.100268
Si Si7 0.200146 0.563760 0.712018
O O1 0.250000 0.750000 0.250000
O O2 0.358783 0.680641 0.180883
O O3 0.375640 0.789092 0.158159
O O4 0.392604 0.740156 0.321609
O O5 0.722545 0.601949 0.093788
O O6 0.578090 0.582266 0.162936
O O7 0.710145 0.592464 0.271151
O O8 0.647019 0.074342 0.500000
O O9 0.648275 0.160473 0.380251
O O10 0.653823 0.060344 0.312265
O O11 0.500000 0.856508 0.871277
O O12 0.352872 0.899596 0.858441
O O13 0.389047 0.837807 0.000000
O O14 0.000000 0.906170 0.500000
O O15 0.000000 0.000000 0.410011
O O16 0.000000 0.308523 0.104404
O O17 0.889029 0.259551 0.000000
O O18 0.209018 0.500000 0.673432
#
# Coordination Sequence:
#
# PCOD8290729 Si02
#       7
#    16  16  16  16   8  16  16
#     4  12  20  39  59  86 120 155 195 246 299 361
#     4  10  22  37  56  88 118 159 201 246 302 360
#     4   9  18  34  56  83 115 150 190 237 295 357
#     4  11  25  42  62  91 127 164 203 254 310 362
#     4  11  24  40  58  86 125 165 208 256 306 367
#     4  10  20  34  57  84 114 152 188 230 290 356
#     4  10  21  40  62  85 117 159 207 254 302 361
#
# _framework density 18.393377999999998
#
# number of rings (size 3 to 8) (size 9 to 14) (size 15 to 20)
#    0.923    0.692    4.615    1.385    2.154    2.769 
#    0.000    0.769    0.000    0.000    0.000    3.231 
#    0.000    2.462    0.000    0.000    0.000    0.000 
#
# Total GULP energy -644208.891215 kJ/mol
# GULP energy per Si atom -12388.632523 kJ/mol
# Density = 1.835151 g / cm^3
# Si number density = 18.393378 Si / 1000 Ang^3
#
#
#
# Elastic Constant Matrix: (Units=GPa)
#
#
# Indices 1 2 3 4 5 6 
#
# 1 107.9938 31.8124 40.8068 0.0000 0.0000 0.0000
# 2 31.8124 109.0055 35.8189 0.0000 0.0000 0.0000
# 3 40.8068 35.8189 102.3367 0.0000 0.0000 0.0000
# 4 0.0000 0.0000 0.0000 12.7201 0.0000 0.0000
# 5 0.0000 0.0000 0.0000 0.0000 28.0842 0.0000
# 6 0.0000 0.0000 0.0000 0.0000 0.0000 20.6001
#
#
#
# Elastic Compliance Matrix: (Units=1/GPa)
#
#
# Indices 1 2 3 4 5 6 
#
# 1 0.011295 -0.002052 -0.003785 0.000000 0.000000 0.000000
# 2 -0.002052 0.010739 -0.002940 0.000000 0.000000 0.000000
# 3 -0.003785 -0.002940 0.012310 0.000000 0.000000 0.000000
# 4 0.000000 0.000000 0.000000 0.078616 0.000000 0.000000
# 5 0.000000 0.000000 0.000000 0.000000 0.035607 0.000000
# 6 0.000000 0.000000 0.000000 0.000000 0.000000 0.048544
#
#
# Mechanical properties :
#
#
# Convention : Reuss Voigt Hill
#
# Bulk Modulus (GPa) = 59.56765 59.57914 59.57340
# Shear Modulus (GPa) = 22.70017 26.34073 24.52045
#
# Velocity S-wave (km/s) = 3.51686 3.78838 3.65514
# Velocity P-wave (km/s) = 6.99619 7.18316 7.09029
#
# Compressibility (1/GPa) = 0.01678764
#
# Stress axis : x y z
#
# Youngs Moduli (GPa) = 88.53669 93.11830 81.23300
#
# Poissons Ratio (x) = 0.19112 0.30750
# Poissons Ratio (y) = 0.18171 0.23886
# Poissons Ratio (z) = 0.33515 0.27380
#
# Static dielectric constant tensor:
#      x y z
#    x 3.427750 0.000000 0.000000 
#    y 0.000000 10.824590 -0.000030 
#    z 0.000000 -0.000030 3.303360 
# 
# 
# High freq. dielectric constant tensor:
#      x y z
#    x 1.712780 0.000000 0.000000 
#    y 0.000000 1.697890 0.000000 
#    z 0.000000 0.000000 1.708410 
# 
# From -- ./inp_files/36923.got.cif
#   From: 2010.06.25/outbox.cif.g09.slc.cpg/sg71_19_cif.got.tgz:36923.got - 2010.06.28 04:59:45.
