data_PCOD8290226
_publ_section_title
;
Structure prediction by ZEFSAII (Michael W. Deem and Ramdas Pophale) SiO2 
 PCOD8290226
Probable space group: I M M M
;
_chemical_formula_sum "Si O2"
_cell_formula_units_Z 96
_cell_length_a 23.376987
_cell_length_b 22.660894
_cell_length_c 10.265780
_cell_angle_alpha 90.000000
_cell_angle_beta 90.000000
_cell_angle_gamma 90.000000
_cell_volume 5438.229452
_symmetry_space_group_name_H-M "I M M M"
_symmetry_group_IT_number 71
_symmetry_cell_setting 'orthorhombic'
loop_
_space_group_symop_operation_xyz
x,y,z
-x,-y,z
x,-y,-z
-x,y,-z
-x,-y,-z
x,y,-z
-x,y,z
x,-y,z
1/2+x,1/2+y,1/2+z
1/2-x,1/2-y,1/2+z
1/2+x,1/2-y,1/2-z
1/2-x,1/2+y,1/2-z
1/2-x,1/2-y,1/2-z
1/2+x,1/2+y,1/2-z
1/2-x,1/2+y,1/2+z
1/2+x,1/2-y,1/2+z
loop_
_atom_site_type_symbol
_atom_site_label
_atom_site_fract_x
_atom_site_fract_y
_atom_site_fract_z
Si Si1 0.935517 0.500000 0.344286
Si Si2 0.065095 0.172839 0.856655
Si Si3 0.871784 0.068183 0.759514
Si Si4 0.435998 0.430790 0.000000
Si Si5 0.067014 0.269367 0.650863
Si Si6 0.630305 0.887046 0.154120
Si Si7 0.750988 0.567411 0.351161
O O1 0.933697 0.500000 0.500000
O O2 0.904964 0.441776 0.286429
O O3 0.000000 0.500000 0.292393
O O4 0.100496 0.111972 0.863845
O O5 0.087904 0.216647 0.744420
O O6 0.000000 0.156023 0.825167
O O7 0.070623 0.202576 0.000000
O O8 0.899073 0.088800 0.623389
O O9 0.803417 0.077753 0.757777
O O10 0.886149 0.000000 0.794261
O O11 0.444362 0.500000 0.000000
O O12 0.500000 0.401299 0.000000
O O13 0.080207 0.253204 0.500000
O O14 0.102615 0.325877 0.699797
O O15 0.000000 0.283207 0.669613
O O16 0.696916 0.891178 0.197494
O O17 0.626974 0.891963 0.000000
O O18 0.733150 0.582057 0.500000
O O19 0.772527 0.500000 0.342605
#
# Coordination Sequence:
#
# PCOD8290226 Si02
#       7
#     8  16  16   8  16  16  16
#     4   9  14  20  38  72 109 133 157 208 264 304
#     4  10  21  35  51  73 101 132 168 212 260 308
#     4  10  20  33  52  75 100 130 165 208 255 312
#     4   9  18  32  50  74 100 126 158 203 259 309
#     4   9  18  32  51  74 102 137 174 213 258 310
#     4   9  15  26  45  72 103 134 170 209 254 305
#     4   9  16  28  47  72 103 137 168 204 254 306
#
# _framework density 17.652805000000001
#
# number of rings (size 3 to 8) (size 9 to 14) (size 15 to 20)
#    0.000    2.667    0.833    1.500    1.167    4.000 
#    0.000    1.667    1.833    0.000    0.000    0.583 
#    0.000    3.333    0.000    0.000    0.000    0.000 
#
# Total GULP energy -594969.653130 kJ/mol
# GULP energy per Si atom -12395.201107 kJ/mol
# Density = 1.761263 g / cm^3
# Si number density = 17.652805 Si / 1000 Ang^3
#
#
#
# Elastic Constant Matrix: (Units=GPa)
#
#
# Indices 1 2 3 4 5 6 
#
# 1 111.9786 57.5107 37.8876 0.0000 0.0000 0.0000
# 2 57.5107 110.5522 38.6442 0.0000 0.0000 0.0000
# 3 37.8876 38.6442 63.3577 0.0000 0.0000 0.0000
# 4 0.0000 0.0000 0.0000 14.8004 0.0000 0.0000
# 5 0.0000 0.0000 0.0000 0.0000 19.4486 0.0000
# 6 0.0000 0.0000 0.0000 0.0000 0.0000 27.2913
#
#
#
# Elastic Compliance Matrix: (Units=1/GPa)
#
#
# Indices 1 2 3 4 5 6 
#
# 1 0.013207 -0.005224 -0.004712 0.000000 0.000000 0.000000
# 2 -0.005224 0.013563 -0.005149 0.000000 0.000000 0.000000
# 3 -0.004712 -0.005149 0.021741 0.000000 0.000000 0.000000
# 4 0.000000 0.000000 0.000000 0.067566 0.000000 0.000000
# 5 0.000000 0.000000 0.000000 0.000000 0.051418 0.000000
# 6 0.000000 0.000000 0.000000 0.000000 0.000000 0.036642
#
#
# Mechanical properties :
#
#
# Convention : Reuss Voigt Hill
#
# Bulk Modulus (GPa) = 54.51623 61.55261 58.03442
# Shear Modulus (GPa) = 20.79704 22.43114 21.61409
#
# Velocity S-wave (km/s) = 3.43609 3.56853 3.50294
# Velocity P-wave (km/s) = 6.83314 7.20579 7.02194
#
# Compressibility (1/GPa) = 0.01834316
#
# Stress axis : x y z
#
# Youngs Moduli (GPa) = 75.71599 73.73217 45.99517
#
# Poissons Ratio (x) = 0.38514 0.21672
# Poissons Ratio (y) = 0.39551 0.23681
# Poissons Ratio (z) = 0.35676 0.37962
#
# Static dielectric constant tensor:
#      x y z
#    x 3.322770 0.000000 0.000000 
#    y 0.000000 3.260210 0.000000 
#    z 0.000000 0.000000 3.001790 
# 
# 
# High freq. dielectric constant tensor:
#      x y z
#    x 1.683660 0.000000 0.000000 
#    y 0.000000 1.673000 0.000000 
#    z 0.000000 0.000000 1.643760 
# 
# From -- ./inp_files/26181.got.cif
#   From: 2010.06.25/outbox.cif.g09.slc.cpg/sg71_14_cif.got.tgz:26181.got - 2010.06.28 04:59:45.
