data_PCOD8290944
_publ_section_title
;
Structure prediction by ZEFSAII (Michael W. Deem and Ramdas Pophale) SiO2 
 PCOD8290944
Probable space group: I M M M
;
_chemical_formula_sum "Si O2"
_cell_formula_units_Z 88
_cell_length_a 8.822695
_cell_length_b 18.090627
_cell_length_c 28.688006
_cell_angle_alpha 90.000000
_cell_angle_beta 90.000000
_cell_angle_gamma 90.000000
_cell_volume 4578.837682
_symmetry_space_group_name_H-M "I M M M"
_symmetry_group_IT_number 71
_symmetry_cell_setting 'orthorhombic'
loop_
_space_group_symop_operation_xyz
x,y,z
-x,-y,z
x,-y,-z
-x,y,-z
-x,-y,-z
x,y,-z
-x,y,z
x,-y,z
1/2+x,1/2+y,1/2+z
1/2-x,1/2-y,1/2+z
1/2+x,1/2-y,1/2-z
1/2-x,1/2+y,1/2-z
1/2-x,1/2-y,1/2-z
1/2+x,1/2+y,1/2-z
1/2-x,1/2+y,1/2+z
1/2+x,1/2-y,1/2+z
loop_
_atom_site_type_symbol
_atom_site_label
_atom_site_fract_x
_atom_site_fract_y
_atom_site_fract_z
Si Si1 0.821550 0.353647 0.398766
Si Si2 0.324056 0.083871 0.377267
Si Si3 0.319581 0.000000 0.948001
Si Si4 0.821191 0.288377 0.053023
Si Si5 0.326113 0.679494 0.692623
Si Si6 0.675282 0.334625 0.203048
O O1 0.756518 0.426522 0.423570
O O2 0.750444 0.281562 0.421747
O O3 0.776689 0.362676 0.344742
O O4 0.000000 0.347317 0.404006
O O5 0.500000 0.095567 0.365186
O O6 0.272766 0.137580 0.419290
O O7 0.227162 0.099444 0.330636
O O8 0.291348 0.000000 0.393226
O O9 0.500000 0.000000 0.946763
O O10 0.255631 0.000000 0.000000
O O11 0.000000 0.278312 0.053461
O O12 0.760553 0.294729 0.000000
O O13 0.500000 0.674947 0.676878
O O14 0.301245 0.641724 0.743063
O O15 0.280262 0.764989 0.692514
O O16 0.500000 0.313936 0.193903
#
# Coordination Sequence:
#
# PCOD8290944 Si02
#       6
#    16  16   8  16  16  16
#     4  11  21  36  60  86 113 148 191 234 283 341
#     4  10  21  37  57  82 116 157 195 235 283 336
#     4   9  20  38  57  81 115 151 187 233 286 339
#     4  10  21  37  58  84 114 148 189 236 286 339
#     4  10  20  35  57  84 115 147 184 231 283 342
#     4  10  20  35  57  84 112 148 189 232 282 335
#
# _framework density 19.21885
#
# number of rings (size 3 to 8) (size 9 to 14) (size 15 to 20)
#    0.000    1.909    1.818    2.182    0.000    4.000 
#    1.636    3.636    0.000    3.273    0.000    2.545 
#    0.000    0.000    0.000    0.000    0.000    0.000 
#
# Total GULP energy -545669.010576 kJ/mol
# GULP energy per Si atom -12401.568422 kJ/mol
# Density = 1.917511 g / cm^3
# Si number density = 19.218850 Si / 1000 Ang^3
#
#
#
# Elastic Constant Matrix: (Units=GPa)
#
#
# Indices 1 2 3 4 5 6 
#
# 1 23.1624 27.5593 30.2646 0.0000 0.0000 0.0000
# 2 27.5593 126.4617 66.7240 0.0000 0.0000 0.0000
# 3 30.2646 66.7240 147.0221 0.0000 0.0000 0.0000
# 4 0.0000 0.0000 0.0000 25.4714 0.0000 0.0000
# 5 0.0000 0.0000 0.0000 0.0000 28.3537 0.0000
# 6 0.0000 0.0000 0.0000 0.0000 0.0000 23.1037
#
#
#
# Elastic Compliance Matrix: (Units=1/GPa)
#
#
# Indices 1 2 3 4 5 6 
#
# 1 0.066910 -0.009617 -0.009409 0.000000 0.000000 0.000000
# 2 -0.009617 0.011779 -0.003366 0.000000 0.000000 0.000000
# 3 -0.009409 -0.003366 0.010266 0.000000 0.000000 0.000000
# 4 0.000000 0.000000 0.000000 0.039260 0.000000 0.000000
# 5 0.000000 0.000000 0.000000 0.000000 0.035269 0.000000
# 6 0.000000 0.000000 0.000000 0.000000 0.000000 0.043283
#
#
# Mechanical properties :
#
#
# Convention : Reuss Voigt Hill
#
# Bulk Modulus (GPa) = 22.63913 60.63799 41.63856
# Shear Modulus (GPa) = 18.77752 26.85897 22.81825
#
# Velocity S-wave (km/s) = 3.12915 3.74241 3.44944
# Velocity P-wave (km/s) = 4.98605 7.09183 6.13004
#
# Compressibility (1/GPa) = 0.04417132
#
# Stress axis : x y z
#
# Youngs Moduli (GPa) = 14.94541 84.89344 97.40650
#
# Poissons Ratio (x) = 0.81643 0.91649
# Poissons Ratio (y) = 0.14373 0.32790
# Poissons Ratio (z) = 0.14062 0.28577
#
# Static dielectric constant tensor:
#      x y z
#    x 3.414810 0.000000 0.000000 
#    y 0.000000 3.413400 0.000000 
#    z 0.000000 0.000000 3.885660 
# 
# 
# High freq. dielectric constant tensor:
#      x y z
#    x 1.740850 0.000000 0.000000 
#    y 0.000000 1.733760 0.000000 
#    z 0.000000 0.000000 1.762180 
# 
# From -- ./inp_files/16700.got.cif
#   From: 2010.06.25/outbox.cif.g09.slc.cpg/sg71_9_cif.got.tgz:16700.got - 2010.06.28 04:59:45.
