data_PCOD8290168
_publ_section_title
;
Structure prediction by ZEFSAII (Michael W. Deem and Ramdas Pophale) SiO2 
 PCOD8290168
Probable space group: I M M M
;
_chemical_formula_sum "Si O2"
_cell_formula_units_Z 96
_cell_length_a 9.096248
_cell_length_b 19.551140
_cell_length_c 30.315267
_cell_angle_alpha 90.000000
_cell_angle_beta 90.000000
_cell_angle_gamma 90.000000
_cell_volume 5391.328263
_symmetry_space_group_name_H-M "I M M M"
_symmetry_group_IT_number 71
_symmetry_cell_setting 'orthorhombic'
loop_
_space_group_symop_operation_xyz
x,y,z
-x,-y,z
x,-y,-z
-x,y,-z
-x,-y,-z
x,y,-z
-x,y,z
x,-y,z
1/2+x,1/2+y,1/2+z
1/2-x,1/2-y,1/2+z
1/2+x,1/2-y,1/2-z
1/2-x,1/2+y,1/2-z
1/2-x,1/2-y,1/2-z
1/2+x,1/2+y,1/2-z
1/2-x,1/2+y,1/2+z
1/2+x,1/2-y,1/2+z
loop_
_atom_site_type_symbol
_atom_site_label
_atom_site_fract_x
_atom_site_fract_y
_atom_site_fract_z
Si Si1 0.665982 0.918542 0.294677
Si Si2 0.329682 0.824686 0.551569
Si Si3 0.171238 0.578010 0.377632
Si Si4 0.829808 0.919518 0.617984
Si Si5 0.165798 0.081455 0.209314
Si Si6 0.829717 0.312760 0.449622
O O1 0.500000 0.890175 0.296182
O O2 0.752733 0.892287 0.337569
O O3 0.745935 0.888961 0.251243
O O4 0.666595 0.000000 0.293352
O O5 0.303677 0.836784 0.500000
O O6 0.500000 0.827359 0.564429
O O7 0.244268 0.884751 0.576034
O O8 0.265999 0.751480 0.566091
O O9 0.216173 0.500000 0.388247
O O10 0.258376 0.607187 0.335542
O O11 0.214356 0.622352 0.420139
O O12 0.000000 0.583388 0.366210
O O13 0.000000 0.899423 0.620542
O O14 0.807431 0.000000 0.612332
O O15 0.000000 0.109620 0.211088
O O16 0.168263 0.000000 0.210798
O O17 0.794059 0.332744 0.500000
O O18 0.000000 0.293161 0.443736
#
# Coordination Sequence:
#
# PCOD8290168 Si02
#       6
#    16  16  16  16  16  16
#     4   9  16  27  45  69  98 130 162 197 238 285
#     4  10  21  36  53  72  96 129 167 204 243 291
#     4   9  17  29  47  73 102 130 163 204 248 291
#     4  10  20  33  51  76 103 129 160 200 244 289
#     4   9  16  26  42  66  97 131 165 200 239 285
#     4   9  18  33  52  72  96 129 167 205 246 294
#
# _framework density 17.806373000000001
#
# number of rings (size 3 to 8) (size 9 to 14) (size 15 to 20)
#    0.000    2.667    0.000    2.000    0.000    7.333 
#    0.000    3.333    0.000    1.000    0.000    4.667 
#    0.000    0.000    0.000    0.000    0.000    0.000 
#
# Total GULP energy -595272.663971 kJ/mol
# GULP energy per Si atom -12401.513833 kJ/mol
# Density = 1.776584 g / cm^3
# Si number density = 17.806373 Si / 1000 Ang^3
#
#
#
# Elastic Constant Matrix: (Units=GPa)
#
#
# Indices 1 2 3 4 5 6 
#
# 1 131.9277 45.4572 72.9959 0.0000 0.0000 0.0000
# 2 45.4572 48.0485 50.3089 0.0000 0.0000 0.0000
# 3 72.9959 50.3089 116.2759 0.0000 0.0000 0.0000
# 4 0.0000 0.0000 0.0000 5.4461 0.0000 0.0000
# 5 0.0000 0.0000 0.0000 0.0000 32.7538 0.0000
# 6 0.0000 0.0000 0.0000 0.0000 0.0000 20.2284
#
#
#
# Elastic Compliance Matrix: (Units=1/GPa)
#
#
# Indices 1 2 3 4 5 6 
#
# 1 0.012694 -0.006701 -0.005070 0.000000 0.000000 0.000000
# 2 -0.006701 0.041587 -0.013787 0.000000 0.000000 0.000000
# 3 -0.005070 -0.013787 0.017748 0.000000 0.000000 0.000000
# 4 0.000000 0.000000 0.000000 0.183618 0.000000 0.000000
# 5 0.000000 0.000000 0.000000 0.000000 0.030531 0.000000
# 6 0.000000 0.000000 0.000000 0.000000 0.000000 0.049436
#
#
# Mechanical properties :
#
#
# Convention : Reuss Voigt Hill
#
# Bulk Modulus (GPa) = 47.81432 70.41957 59.11694
# Shear Modulus (GPa) = 12.70005 20.18499 16.44252
#
# Velocity S-wave (km/s) = 2.67353 3.37052 3.04206
# Velocity P-wave (km/s) = 6.03664 7.40138 6.75357
#
# Compressibility (1/GPa) = 0.02091424
#
# Stress axis : x y z
#
# Youngs Moduli (GPa) = 78.77787 24.04580 56.34483
#
# Poissons Ratio (x) = 0.16114 0.28565
# Poissons Ratio (y) = 0.52791 0.77680
# Poissons Ratio (z) = 0.39937 0.33151
#
# Static dielectric constant tensor:
#      x y z
#    x 3.466040 0.000000 0.000000 
#    y 0.000000 2.926070 0.000000 
#    z 0.000000 0.000000 3.408340 
# 
# 
# High freq. dielectric constant tensor:
#      x y z
#    x 1.700770 0.000000 0.000000 
#    y 0.000000 1.644200 0.000000 
#    z 0.000000 0.000000 1.698390 
# 
# From -- ./inp_files/10833.got.cif
#   From: 2010.06.25/outbox.cif.g09.slc.cpg/sg71_6_cif.got.tgz:10833.got - 2010.06.28 04:59:45.
