data_PCOD8290394
_publ_section_title
;
Structure prediction by ZEFSAII (Michael W. Deem and Ramdas Pophale) SiO2 
 PCOD8290394
Probable space group: I M M M
;
_chemical_formula_sum "Si O2"
_cell_formula_units_Z 88
_cell_length_a 30.023734
_cell_length_b 9.001452
_cell_length_c 18.106360
_cell_angle_alpha 90.000000
_cell_angle_beta 90.000000
_cell_angle_gamma 90.000000
_cell_volume 4893.374164
_symmetry_space_group_name_H-M "I M M M"
_symmetry_group_IT_number 71
_symmetry_cell_setting 'orthorhombic'
loop_
_space_group_symop_operation_xyz
x,y,z
-x,-y,z
x,-y,-z
-x,y,-z
-x,-y,-z
x,y,-z
-x,y,z
x,-y,z
1/2+x,1/2+y,1/2+z
1/2-x,1/2-y,1/2+z
1/2+x,1/2-y,1/2-z
1/2-x,1/2+y,1/2-z
1/2-x,1/2-y,1/2-z
1/2+x,1/2+y,1/2-z
1/2-x,1/2+y,1/2+z
1/2+x,1/2-y,1/2+z
loop_
_atom_site_type_symbol
_atom_site_label
_atom_site_fract_x
_atom_site_fract_y
_atom_site_fract_z
Si Si1 0.289923 0.324778 0.294312
Si Si2 0.876584 0.671425 0.736657
Si Si3 0.846214 0.670442 0.418168
Si Si4 0.949476 0.673840 0.147216
Si Si5 0.254609 0.667258 0.084981
Si Si6 0.052920 0.168730 0.000000
O O1 0.286087 0.500000 0.289697
O O2 0.250000 0.250000 0.250000
O O3 0.337487 0.275145 0.265181
O O4 0.283483 0.267877 0.377891
O O5 0.864559 0.500000 0.753062
O O6 0.882333 0.696418 0.647582
O O7 0.921541 0.716965 0.779600
O O8 0.865902 0.710955 0.500000
O O9 0.830180 0.500000 0.417843
O O10 0.803690 0.769907 0.399467
O O11 0.947524 0.500000 0.130957
O O12 0.000000 0.726544 0.162541
O O13 0.929045 0.753352 0.074600
O O14 0.253726 0.500000 0.117022
O O15 0.242559 0.668922 0.000000
O O16 0.000000 0.181900 0.000000
O O17 0.069719 0.000000 0.000000
#
# Coordination Sequence:
#
# PCOD8290394 Si02
#       6
#    16  16  16  16  16   8
#     4  12  23  35  52  74 104 139 174 215 262 310
#     4  10  20  34  53  77 104 136 174 217 262 310
#     4   9  17  30  50  74 100 134 175 216 256 302
#     4   9  18  34  56  79 104 137 175 213 258 313
#     4  10  20  34  52  73  99 134 175 216 256 304
#     4   9  17  31  53  79 105 133 169 215 263 309
#
# _framework density 17.983501
#
# number of rings (size 3 to 8) (size 9 to 14) (size 15 to 20)
#    0.000    2.091    1.818    2.455    0.000    2.909 
#    1.636    0.000    0.000    0.545    0.000    3.818 
#    0.000    0.000    0.000   10.727    0.000   11.273 
#
# Total GULP energy -545409.721798 kJ/mol
# GULP energy per Si atom -12395.675495 kJ/mol
# Density = 1.794257 g / cm^3
# Si number density = 17.983501 Si / 1000 Ang^3
#
#
#
# Elastic Constant Matrix: (Units=GPa)
#
#
# Indices 1 2 3 4 5 6 
#
# 1 70.7516 38.9768 60.9324 0.0000 0.0000 0.0000
# 2 38.9768 99.8141 52.2638 0.0000 0.0000 0.0000
# 3 60.9324 52.2638 152.3301 0.0000 0.0000 0.0000
# 4 0.0000 0.0000 0.0000 21.2564 0.0000 0.0000
# 5 0.0000 0.0000 0.0000 0.0000 30.6687 0.0000
# 6 0.0000 0.0000 0.0000 0.0000 0.0000 19.7199
#
#
#
# Elastic Compliance Matrix: (Units=1/GPa)
#
#
# Indices 1 2 3 4 5 6 
#
# 1 0.023590 -0.005206 -0.007650 0.000000 0.000000 0.000000
# 2 -0.005206 0.013362 -0.002502 0.000000 0.000000 0.000000
# 3 -0.007650 -0.002502 0.010483 0.000000 0.000000 0.000000
# 4 0.000000 0.000000 0.000000 0.047045 0.000000 0.000000
# 5 0.000000 0.000000 0.000000 0.000000 0.032607 0.000000
# 6 0.000000 0.000000 0.000000 0.000000 0.000000 0.050710
#
#
# Mechanical properties :
#
#
# Convention : Reuss Voigt Hill
#
# Bulk Modulus (GPa) = 59.81229 69.69350 64.75290
# Shear Modulus (GPa) = 23.35519 25.71053 24.53286
#
# Velocity S-wave (km/s) = 3.60766 3.78520 3.69750
# Velocity P-wave (km/s) = 7.11936 7.61196 7.36978
#
# Compressibility (1/GPa) = 0.01671897
#
# Stress axis : x y z
#
# Youngs Moduli (GPa) = 42.39027 74.84129 95.39225
#
# Poissons Ratio (x) = 0.38964 0.72974
# Poissons Ratio (y) = 0.22070 0.23865
# Poissons Ratio (z) = 0.32428 0.18724
#
# Static dielectric constant tensor:
#      x y z
#    x 3.108450 0.000000 0.000000 
#    y 0.000000 3.483510 0.000000 
#    z 0.000000 0.000000 3.883290 
# 
# 
# High freq. dielectric constant tensor:
#      x y z
#    x 1.647310 0.000000 0.000000 
#    y 0.000000 1.700850 0.000000 
#    z 0.000000 0.000000 1.716350 
# 
# From -- ./inp_files/8766.got.cif
#   From: 2010.06.25/outbox.cif.g09.slc.cpg/sg71_5_cif.got.tgz:8766.got - 2010.06.28 04:59:45.
