data_PCOD8290398
_publ_section_title
;
Structure prediction by ZEFSAII (Michael W. Deem and Ramdas Pophale) SiO2 
 PCOD8290398
Probable space group: I M M M
;
_chemical_formula_sum "Si O2"
_cell_formula_units_Z 104
_cell_length_a 23.901956
_cell_length_b 28.104748
_cell_length_c 8.871348
_cell_angle_alpha 90.000000
_cell_angle_beta 90.000000
_cell_angle_gamma 90.000000
_cell_volume 5959.402983
_symmetry_space_group_name_H-M "I M M M"
_symmetry_group_IT_number 71
_symmetry_cell_setting 'orthorhombic'
loop_
_space_group_symop_operation_xyz
x,y,z
-x,-y,z
x,-y,-z
-x,y,-z
-x,-y,-z
x,y,-z
-x,y,z
x,-y,z
1/2+x,1/2+y,1/2+z
1/2-x,1/2-y,1/2+z
1/2+x,1/2-y,1/2-z
1/2-x,1/2+y,1/2-z
1/2-x,1/2-y,1/2-z
1/2+x,1/2+y,1/2-z
1/2-x,1/2+y,1/2+z
1/2+x,1/2-y,1/2+z
loop_
_atom_site_type_symbol
_atom_site_label
_atom_site_fract_x
_atom_site_fract_y
_atom_site_fract_z
Si Si1 0.566421 0.272426 0.830617
Si Si2 0.433811 0.000000 0.328841
Si Si3 0.436233 0.367731 0.676495
Si Si4 0.152154 0.054183 0.175222
Si Si5 0.375957 0.088673 0.177968
Si Si6 0.732705 0.944583 0.675066
Si Si7 0.934150 0.676708 0.825287
O O1 0.500000 0.273915 0.829863
O O2 0.588849 0.321586 0.760240
O O3 0.586928 0.228356 0.729340
O O4 0.589802 0.266777 0.000000
O O5 0.412519 0.046864 0.247995
O O6 0.500000 0.000000 0.325057
O O7 0.411016 0.000000 0.500000
O O8 0.432618 0.357323 0.500000
O O9 0.500000 0.378364 0.725533
O O10 0.399884 0.413292 0.723985
O O11 0.206000 0.070335 0.269464
O O12 0.135422 0.000000 0.213374
O O13 0.166735 0.060157 0.000000
O O14 0.312267 0.086201 0.234182
O O15 0.401695 0.138537 0.226579
O O16 0.377635 0.083878 0.000000
O O17 0.727452 0.932644 0.500000
O O18 0.721217 0.000000 0.708687
O O19 0.000000 0.670285 0.797179
O O20 0.918987 0.670259 0.000000
#
# Coordination Sequence:
#
# PCOD8290398 Si02
#       7
#    16   8  16  16  16  16  16
#     4   9  17  30  49  73 101 133 171 213 252 298
#     4  11  23  37  51  71 103 139 172 209 258 311
#     4   9  17  30  50  77 108 141 172 204 251 307
#     4   9  18  32  51  76 106 137 173 215 253 297
#     4  12  23  34  52  75 101 133 171 216 260 306
#     4  10  20  35  54  72  96 132 176 218 257 306
#     4  10  20  34  52  74 102 135 170 210 257 309
#
# _framework density 17.451412999999999
#
# number of rings (size 3 to 8) (size 9 to 14) (size 15 to 20)
#    0.000    2.077    0.769    3.462    0.000    6.769 
#    0.000    1.538    0.000    0.923    0.000    4.308 
#    0.000    0.000    0.000    0.000    0.000    0.000 
#
# Total GULP energy -644951.131665 kJ/mol
# GULP energy per Si atom -12402.906378 kJ/mol
# Density = 1.741169 g / cm^3
# Si number density = 17.451413 Si / 1000 Ang^3
#
#
#
# Elastic Constant Matrix: (Units=GPa)
#
#
# Indices 1 2 3 4 5 6 
#
# 1 80.1228 56.8201 50.7759 0.0000 0.0000 0.0000
# 2 56.8201 116.9248 53.0779 0.0000 0.0000 0.0000
# 3 50.7759 53.0779 112.6615 0.0000 0.0000 0.0000
# 4 0.0000 0.0000 0.0000 20.7706 0.0000 0.0000
# 5 0.0000 0.0000 0.0000 0.0000 24.7074 0.0000
# 6 0.0000 0.0000 0.0000 0.0000 0.0000 18.0827
#
#
#
# Elastic Compliance Matrix: (Units=1/GPa)
#
#
# Indices 1 2 3 4 5 6 
#
# 1 0.021995 -0.007872 -0.006204 0.000000 0.000000 0.000000
# 2 -0.007872 0.013697 -0.002905 0.000000 0.000000 0.000000
# 3 -0.006204 -0.002905 0.013041 0.000000 0.000000 0.000000
# 4 0.000000 0.000000 0.000000 0.048145 0.000000 0.000000
# 5 0.000000 0.000000 0.000000 0.000000 0.040474 0.000000
# 6 0.000000 0.000000 0.000000 0.000000 0.000000 0.055301
#
#
# Mechanical properties :
#
#
# Convention : Reuss Voigt Hill
#
# Bulk Modulus (GPa) = 67.70464 70.11746 68.91105
# Shear Modulus (GPa) = 21.59454 22.64781 22.12118
#
# Velocity S-wave (km/s) = 3.52150 3.60636 3.56418
# Velocity P-wave (km/s) = 7.44412 7.58993 7.51738
#
# Compressibility (1/GPa) = 0.01477004
#
# Stress axis : x y z
#
# Youngs Moduli (GPa) = 45.46389 73.00986 76.68119
#
# Poissons Ratio (x) = 0.57476 0.47576
# Poissons Ratio (y) = 0.35791 0.22275
# Poissons Ratio (z) = 0.28207 0.21209
#
# Static dielectric constant tensor:
#      x y z
#    x 3.122310 0.000000 0.000000 
#    y 0.000000 3.448630 0.000000 
#    z 0.000000 0.000000 3.376740 
# 
# 
# High freq. dielectric constant tensor:
#      x y z
#    x 1.651630 0.000000 0.000000 
#    y 0.000000 1.672570 0.000000 
#    z 0.000000 0.000000 1.685970 
# 
# From -- ./inp_files/13270.got.cif
#   From: 2010.06.25/outbox.cif.g09.slc.cpg/sg71_7_cif.got.tgz:13270.got - 2010.06.28 04:59:45.
