data_PCOD8290693
_publ_section_title
;
Structure prediction by ZEFSAII (Michael W. Deem and Ramdas Pophale) SiO2 
 PCOD8290693
Probable space group: I M M M
;
_chemical_formula_sum "Si O2"
_cell_formula_units_Z 88
_cell_length_a 12.394529
_cell_length_b 16.108876
_cell_length_c 19.970734
_cell_angle_alpha 90.000000
_cell_angle_beta 90.000000
_cell_angle_gamma 90.000000
_cell_volume 3987.395309
_symmetry_space_group_name_H-M "I M M M"
_symmetry_group_IT_number 71
_symmetry_cell_setting 'orthorhombic'
loop_
_space_group_symop_operation_xyz
x,y,z
-x,-y,z
x,-y,-z
-x,y,-z
-x,-y,-z
x,y,-z
-x,y,z
x,-y,z
1/2+x,1/2+y,1/2+z
1/2-x,1/2-y,1/2+z
1/2+x,1/2-y,1/2-z
1/2-x,1/2+y,1/2-z
1/2-x,1/2-y,1/2-z
1/2+x,1/2+y,1/2-z
1/2-x,1/2+y,1/2+z
1/2+x,1/2-y,1/2+z
loop_
_atom_site_type_symbol
_atom_site_label
_atom_site_fract_x
_atom_site_fract_y
_atom_site_fract_z
Si Si1 0.228171 0.405597 0.075832
Si Si2 0.500000 0.335280 0.393742
Si Si3 0.500000 0.843014 0.426063
Si Si4 0.620221 0.904736 0.813268
Si Si5 0.000000 0.904831 0.752670
Si Si6 0.222751 0.095244 0.926614
Si Si7 0.726267 0.335726 0.787671
O O1 0.267629 0.500000 0.090760
O O2 0.099842 0.404095 0.082692
O O3 0.269775 0.339307 0.131152
O O4 0.264577 0.379489 0.000000
O O5 0.500000 0.236494 0.375705
O O6 0.500000 0.396761 0.331572
O O7 0.389390 0.354920 0.432383
O O8 0.500000 0.801408 0.500000
O O9 0.500000 0.862936 0.810144
O O10 0.694769 0.864539 0.872167
O O11 0.683537 0.897687 0.742718
O O12 0.603528 0.000000 0.830805
O O13 0.895058 0.860001 0.726195
O O14 0.000000 0.000000 0.730024
O O15 0.197728 0.000000 0.906652
O O16 0.277529 0.100494 0.000000
O O17 0.750000 0.250000 0.750000
#
# Coordination Sequence:
#
# PCOD8290693 Si02
#       7
#    16   8   8  16   8  16  16
#     4  10  22  42  66  93 129 174 225 276 330 397
#     4  12  20  34  56  91 131 171 217 271 337 395
#     4  10  21  36  58  93 129 165 208 269 337 384
#     4  10  22  40  62  87 121 166 215 267 330 403
#     4  12  24  42  68  94 132 178 223 273 336 418
#     4  10  20  34  55  85 123 170 221 269 319 388
#     4  12  26  43  67  99 133 168 217 277 342 405
#
# _framework density 22.069544
#
# number of rings (size 3 to 8) (size 9 to 14) (size 15 to 20)
#    0.000    1.273    1.818    4.636    2.545    2.182 
#    0.000    2.273    0.000    1.636    0.000    0.000 
#    0.000    0.000    0.000    0.000    0.000    0.000 
#
# Total GULP energy -545212.797014 kJ/mol
# GULP energy per Si atom -12391.199932 kJ/mol
# Density = 2.201931 g / cm^3
# Si number density = 22.069544 Si / 1000 Ang^3
#
#
#
# Elastic Constant Matrix: (Units=GPa)
#
#
# Indices 1 2 3 4 5 6 
#
# 1 154.1822 24.3190 51.9302 0.0000 0.0000 0.0000
# 2 24.3190 84.7813 36.7617 0.0000 0.0000 0.0000
# 3 51.9302 36.7617 158.5938 0.0000 0.0000 0.0000
# 4 0.0000 0.0000 0.0000 26.8646 0.0000 0.0000
# 5 0.0000 0.0000 0.0000 0.0000 24.9681 0.0000
# 6 0.0000 0.0000 0.0000 0.0000 0.0000 26.8792
#
#
#
# Elastic Compliance Matrix: (Units=1/GPa)
#
#
# Indices 1 2 3 4 5 6 
#
# 1 0.007396 -0.001191 -0.002146 0.000000 0.000000 0.000000
# 2 -0.001191 0.013305 -0.002694 0.000000 0.000000 0.000000
# 3 -0.002146 -0.002694 0.007632 0.000000 0.000000 0.000000
# 4 0.000000 0.000000 0.000000 0.037224 0.000000 0.000000
# 5 0.000000 0.000000 0.000000 0.000000 0.040051 0.000000
# 6 0.000000 0.000000 0.000000 0.000000 0.000000 0.037204
#
#
# Mechanical properties :
#
#
# Convention : Reuss Voigt Hill
#
# Bulk Modulus (GPa) = 61.45578 69.28656 65.37117
# Shear Modulus (GPa) = 31.19188 34.71213 32.95201
#
# Velocity S-wave (km/s) = 3.76353 3.97022 3.86826
# Velocity P-wave (km/s) = 6.84050 7.24429 7.04528
#
# Compressibility (1/GPa) = 0.01627186
#
# Stress axis : x y z
#
# Youngs Moduli (GPa) = 135.20015 75.16040 131.01872
#
# Poissons Ratio (x) = 0.08953 0.28114
# Poissons Ratio (y) = 0.16105 0.35296
# Poissons Ratio (z) = 0.29011 0.20248
#
# Static dielectric constant tensor:
#      x y z
#    x 3.858710 0.000000 0.000000 
#    y 0.000000 3.777880 0.000000 
#    z 0.000000 0.000000 4.235500 
# 
# 
# High freq. dielectric constant tensor:
#      x y z
#    x 1.858970 0.000000 0.000000 
#    y 0.000000 1.854680 0.000000 
#    z 0.000000 0.000000 1.871700 
# 
# From -- ./inp_files/51818.got.cif
#   From: 2010.06.25/outbox.cif.g09.slc.cpg/sg71_26_cif.got.tgz:51818.got - 2010.06.28 04:59:45.
