data_PCOD8290586
_publ_section_title
;
Structure prediction by ZEFSAII (Michael W. Deem and Ramdas Pophale) SiO2 
 PCOD8290586
Probable space group: I M M M
;
_chemical_formula_sum "Si O2"
_cell_formula_units_Z 88
_cell_length_a 19.474066
_cell_length_b 8.728894
_cell_length_c 27.545218
_cell_angle_alpha 90.000000
_cell_angle_beta 90.000000
_cell_angle_gamma 90.000000
_cell_volume 4682.330566
_symmetry_space_group_name_H-M "I M M M"
_symmetry_group_IT_number 71
_symmetry_cell_setting 'orthorhombic'
loop_
_space_group_symop_operation_xyz
x,y,z
-x,-y,z
x,-y,-z
-x,y,-z
-x,-y,-z
x,y,-z
-x,y,z
x,-y,z
1/2+x,1/2+y,1/2+z
1/2-x,1/2-y,1/2+z
1/2+x,1/2-y,1/2-z
1/2-x,1/2+y,1/2-z
1/2-x,1/2-y,1/2-z
1/2+x,1/2+y,1/2-z
1/2-x,1/2+y,1/2+z
1/2+x,1/2-y,1/2+z
loop_
_atom_site_type_symbol
_atom_site_label
_atom_site_fract_x
_atom_site_fract_y
_atom_site_fract_z
Si Si1 0.669147 0.681389 0.916095
Si Si2 0.181118 0.317973 0.053597
Si Si3 0.840855 0.179090 0.782826
Si Si4 0.309804 0.820567 0.184444
Si Si5 0.921319 0.678223 0.134936
Si Si6 0.579823 0.820133 0.000000
O O1 0.664519 0.500000 0.919789
O O2 0.743900 0.743501 0.931863
O O3 0.656239 0.733979 0.860973
O O4 0.612399 0.751219 0.951358
O O5 0.181347 0.500000 0.054001
O O6 0.124041 0.255612 0.090697
O O7 0.162740 0.256022 0.000000
O O8 0.770074 0.226790 0.809592
O O9 0.850120 0.269164 0.732531
O O10 0.903829 0.227481 0.816782
O O11 0.842337 0.000000 0.771475
O O12 0.318815 0.000000 0.176494
O O13 0.905402 0.500000 0.144471
O O14 0.000000 0.705786 0.121050
O O15 0.500000 0.776915 0.000000
O O16 0.592213 0.000000 0.000000
#
# Coordination Sequence:
#
# PCOD8290586 Si02
#       6
#    16  16  16  16  16   8
#     4  11  20  35  61  89 116 148 190 239 283 335
#     4   9  17  31  53  83 113 145 189 236 279 324
#     4  10  20  34  54  81 112 148 190 237 286 340
#     4  10  20  34  56  85 114 145 185 236 290 342
#     4  10  20  34  54  80 115 157 195 236 286 338
#     4  11  25  43  61  85 120 155 186 228 286 350
#
# _framework density 18.794059000000001
#
# number of rings (size 3 to 8) (size 9 to 14) (size 15 to 20)
#    0.000    1.909    2.727    1.909    0.000    2.909 
#    0.000    2.727    0.000    5.455    0.000    1.273 
#    0.000    0.000    0.000    0.000    0.000    0.000 
#
# Total GULP energy -545751.424843 kJ/mol
# GULP energy per Si atom -12403.441474 kJ/mol
# Density = 1.875128 g / cm^3
# Si number density = 18.794059 Si / 1000 Ang^3
#
#
#
# Elastic Constant Matrix: (Units=GPa)
#
#
# Indices 1 2 3 4 5 6 
#
# 1 106.8795 39.9488 67.9213 0.0000 0.0000 0.0000
# 2 39.9488 55.5445 36.3220 0.0000 0.0000 0.0000
# 3 67.9213 36.3220 155.6778 0.0000 0.0000 0.0000
# 4 0.0000 0.0000 0.0000 30.2934 0.0000 0.0000
# 5 0.0000 0.0000 0.0000 0.0000 30.3714 0.0000
# 6 0.0000 0.0000 0.0000 0.0000 0.0000 23.8440
#
#
#
# Elastic Compliance Matrix: (Units=1/GPa)
#
#
# Indices 1 2 3 4 5 6 
#
# 1 0.015407 -0.007889 -0.004881 0.000000 0.000000 0.000000
# 2 -0.007889 0.025284 -0.002457 0.000000 0.000000 0.000000
# 3 -0.004881 -0.002457 0.009127 0.000000 0.000000 0.000000
# 4 0.000000 0.000000 0.000000 0.033011 0.000000 0.000000
# 5 0.000000 0.000000 0.000000 0.000000 0.032926 0.000000
# 6 0.000000 0.000000 0.000000 0.000000 0.000000 0.041939
#
#
# Mechanical properties :
#
#
# Convention : Reuss Voigt Hill
#
# Bulk Modulus (GPa) = 51.64584 67.38732 59.51658
# Shear Modulus (GPa) = 25.69327 28.49574 27.09450
#
# Velocity S-wave (km/s) = 3.70144 3.89808 3.80103
# Velocity P-wave (km/s) = 6.76809 7.49623 7.14145
#
# Compressibility (1/GPa) = 0.01936264
#
# Stress axis : x y z
#
# Youngs Moduli (GPa) = 64.90482 39.54996 109.57009
#
# Poissons Ratio (x) = 0.31201 0.53486
# Poissons Ratio (y) = 0.51204 0.26925
# Poissons Ratio (z) = 0.31683 0.09719
#
# Static dielectric constant tensor:
#      x y z
#    x 3.291710 0.000000 0.000000 
#    y 0.000000 3.254990 0.000000 
#    z 0.000000 0.000000 3.601460 
# 
# 
# High freq. dielectric constant tensor:
#      x y z
#    x 1.707020 0.000000 0.000000 
#    y 0.000000 1.718770 0.000000 
#    z 0.000000 0.000000 1.745020 
# 
# From -- ./inp_files/12566.got.cif
#   From: 2010.06.25/outbox.cif.g09.slc.cpg/sg71_7_cif.got.tgz:12566.got - 2010.06.28 04:59:45.
