data_PCOD8290807
_publ_section_title
;
Structure prediction by ZEFSAII (Michael W. Deem and Ramdas Pophale) SiO2 
 PCOD8290807
Probable space group: I M M M
;
_chemical_formula_sum "Si O2"
_cell_formula_units_Z 88
_cell_length_a 9.161974
_cell_length_b 28.513124
_cell_length_c 18.651838
_cell_angle_alpha 90.000000
_cell_angle_beta 90.000000
_cell_angle_gamma 90.000000
_cell_volume 4872.540892
_symmetry_space_group_name_H-M "I M M M"
_symmetry_group_IT_number 71
_symmetry_cell_setting 'orthorhombic'
loop_
_space_group_symop_operation_xyz
x,y,z
-x,-y,z
x,-y,-z
-x,y,-z
-x,-y,-z
x,y,-z
-x,y,z
x,-y,z
1/2+x,1/2+y,1/2+z
1/2-x,1/2-y,1/2+z
1/2+x,1/2-y,1/2-z
1/2-x,1/2+y,1/2-z
1/2-x,1/2-y,1/2-z
1/2+x,1/2+y,1/2-z
1/2-x,1/2+y,1/2+z
1/2+x,1/2-y,1/2+z
loop_
_atom_site_type_symbol
_atom_site_label
_atom_site_fract_x
_atom_site_fract_y
_atom_site_fract_z
Si Si1 0.326006 0.000000 0.269762
Si Si2 0.170303 0.813549 0.294887
Si Si3 0.828666 0.052266 0.500000
Si Si4 0.827513 0.500000 0.608846
Si Si5 0.828056 0.915511 0.653161
Si Si6 0.829009 0.772116 0.855989
Si Si7 0.172854 0.176228 0.000000
Si Si8 0.672777 0.077179 0.000000
O O1 0.266604 0.000000 0.188774
O O2 0.263807 0.046096 0.305686
O O3 0.500000 0.000000 0.274609
O O4 0.219939 0.865504 0.315972
O O5 0.212308 0.805078 0.211706
O O6 0.251579 0.777821 0.347585
O O7 0.000000 0.806191 0.307983
O O8 0.781596 0.081634 0.430208
O O9 0.000000 0.045251 0.500000
O O10 0.756791 0.000000 0.500000
O O11 0.775323 0.452642 0.569188
O O12 0.000000 0.500000 0.606679
O O13 0.000000 0.924984 0.663909
O O14 0.000000 0.762580 0.859227
O O15 0.773977 0.796186 0.929145
O O16 0.244583 0.125773 0.000000
O O17 0.000000 0.169696 0.000000
O O18 0.500000 0.086458 0.000000
#
# Coordination Sequence:
#
# PCOD8290807 Si02
#       8
#     8  16   8   8  16  16   8   8
#     4  11  22  34  51  80 110 137 172 214 262 319
#     4   9  19  35  56  79 101 133 178 220 254 300
#     4   9  16  31  52  72  98 133 168 207 255 300
#     4   8  18  36  53  73 107 141 176 219 262 305
#     4  10  20  35  55  77 103 136 175 217 262 307
#     4   9  19  36  53  74 109 142 167 207 264 315
#     4  10  21  34  52  81 115 142 168 212 269 319
#     4   9  18  36  57  75 101 144 184 216 254 304
#
# _framework density 18.060393000000001
#
# number of rings (size 3 to 8) (size 9 to 14) (size 15 to 20)
#    0.000    2.636    0.909    0.818    2.545    2.182 
#    0.000    3.636    0.000    0.000    0.000    0.000 
#    0.000    0.000    0.000    0.000    0.000    0.000 
#
# Total GULP energy -545562.865833 kJ/mol
# GULP energy per Si atom -12399.156042 kJ/mol
# Density = 1.801929 g / cm^3
# Si number density = 18.060393 Si / 1000 Ang^3
#
#
#
# Elastic Constant Matrix: (Units=GPa)
#
#
# Indices 1 2 3 4 5 6 
#
# 1 35.8748 49.6047 40.6974 0.0000 0.0000 0.0000
# 2 49.6047 175.1215 97.2069 0.0001 0.0000 0.0000
# 3 40.6974 97.2069 167.1793 -0.0003 0.0000 -0.0001
# 4 0.0000 0.0001 -0.0003 54.0135 0.0000 0.0000
# 5 0.0000 0.0000 0.0000 0.0000 20.0233 0.0000
# 6 0.0000 0.0000 -0.0001 0.0000 0.0000 36.5323
#
#
#
# Elastic Compliance Matrix: (Units=1/GPa)
#
#
# Indices 1 2 3 4 5 6 
#
# 1 0.049276 -0.010778 -0.005729 0.000000 0.000000 0.000000
# 2 -0.010778 0.010789 -0.003650 0.000000 0.000000 0.000000
# 3 -0.005729 -0.003650 0.009498 0.000000 0.000000 0.000000
# 4 0.000000 0.000000 0.000000 0.018514 0.000000 0.000000
# 5 0.000000 0.000000 0.000000 0.000000 0.049942 0.000000
# 6 0.000000 0.000000 0.000000 0.000000 0.000000 0.027373
#
#
# Mechanical properties :
#
#
# Convention : Reuss Voigt Hill
#
# Bulk Modulus (GPa) = 34.18675 83.68816 58.93745
# Shear Modulus (GPa) = 23.20661 34.82494 29.01578
#
# Velocity S-wave (km/s) = 3.58850 4.39595 4.01259
# Velocity P-wave (km/s) = 6.01166 8.49731 7.36018
#
# Compressibility (1/GPa) = 0.02925110
#
# Stress axis : x y z
#
# Youngs Moduli (GPa) = 20.29365 92.68579 105.28266
#
# Poissons Ratio (x) = 0.99898 0.60313
# Poissons Ratio (y) = 0.21873 0.38424
# Poissons Ratio (z) = 0.11626 0.33827
#
# Static dielectric constant tensor:
#      x y z
#    x 3.078810 0.000000 0.000000 
#    y 0.000000 3.391540 0.000000 
#    z 0.000000 0.000000 3.849000 
# 
# 
# High freq. dielectric constant tensor:
#      x y z
#    x 1.675440 0.000000 0.000000 
#    y 0.000000 1.704260 0.000000 
#    z 0.000000 0.000000 1.711760 
# 
# From -- ./inp_files/42574.got.cif
#   From: 2010.06.25/outbox.cif.g09.slc.cpg/sg71_22_cif.got.tgz:42574.got - 2010.06.28 04:59:45.
