data_PCOD8290570
_publ_section_title
;
Structure prediction by ZEFSAII (Michael W. Deem and Ramdas Pophale) SiO2 
 PCOD8290570
Probable space group: I M M M
;
_chemical_formula_sum "Si O2"
_cell_formula_units_Z 80
_cell_length_a 25.281247
_cell_length_b 8.947307
_cell_length_c 19.529551
_cell_angle_alpha 90.000000
_cell_angle_beta 90.000000
_cell_angle_gamma 90.000000
_cell_volume 4417.566435
_symmetry_space_group_name_H-M "I M M M"
_symmetry_group_IT_number 71
_symmetry_cell_setting 'orthorhombic'
loop_
_space_group_symop_operation_xyz
x,y,z
-x,-y,z
x,-y,-z
-x,y,-z
-x,-y,-z
x,y,-z
-x,y,z
x,-y,z
1/2+x,1/2+y,1/2+z
1/2-x,1/2-y,1/2+z
1/2+x,1/2-y,1/2-z
1/2-x,1/2+y,1/2-z
1/2-x,1/2-y,1/2-z
1/2+x,1/2+y,1/2-z
1/2-x,1/2+y,1/2+z
1/2+x,1/2-y,1/2+z
loop_
_atom_site_type_symbol
_atom_site_label
_atom_site_fract_x
_atom_site_fract_y
_atom_site_fract_z
Si Si1 0.000000 0.168817 0.581378
Si Si2 0.809588 0.326221 0.182026
Si Si3 0.312969 0.674277 0.821506
Si Si4 0.106192 0.674833 0.420133
Si Si5 0.500000 0.672473 0.419955
Si Si6 0.885896 0.174469 0.080832
O O1 0.052264 0.251999 0.608690
O O2 0.000000 0.172787 0.500000
O O3 0.000000 0.000000 0.609569
O O4 0.818850 0.500000 0.195972
O O5 0.748568 0.290943 0.166757
O O6 0.830618 0.236557 0.247833
O O7 0.841424 0.273395 0.115983
O O8 0.326090 0.500000 0.824555
O O9 0.343916 0.757092 0.881482
O O10 0.113884 0.710710 0.500000
O O11 0.102787 0.500000 0.405937
O O12 0.500000 0.500000 0.402135
O O13 0.500000 0.698364 0.500000
O O14 0.556235 0.735675 0.392244
O O15 0.878543 0.000000 0.099206
O O16 0.880525 0.198250 0.000000
#
# Coordination Sequence:
#
# PCOD8290570 Si02
#       6
#     8  16  16  16   8  16
#     4   9  17  31  52  77 106 139 172 206 250 305
#     4  10  21  36  53  74 102 134 169 213 263 311
#     4  10  21  37  55  73  98 135 175 213 256 309
#     4  10  20  34  54  80 108 136 169 212 258 303
#     4   7  12  26  48  73 100 131 166 202 240 285
#     4   9  17  31  53  78 103 133 170 209 248 297
#
# _framework density 18.109517
#
# number of rings (size 3 to 8) (size 9 to 14) (size 15 to 20)
#    0.000    2.600    0.000    3.300    0.000    6.000 
#    0.000    5.500    0.000    3.000    0.000    0.000 
#    0.000    0.000    0.000    0.000    0.000    0.000 
#
# Total GULP energy -495858.965953 kJ/mol
# GULP energy per Si atom -12396.474149 kJ/mol
# Density = 1.806830 g / cm^3
# Si number density = 18.109517 Si / 1000 Ang^3
#
#
#
# Elastic Constant Matrix: (Units=GPa)
#
#
# Indices 1 2 3 4 5 6 
#
# 1 108.8175 58.9940 55.8712 0.0000 0.0000 0.0000
# 2 58.9940 96.5145 45.7233 0.0000 0.0000 0.0000
# 3 55.8712 45.7233 65.3399 0.0000 0.0000 0.0000
# 4 0.0000 0.0000 0.0000 31.3900 0.0000 0.0000
# 5 0.0000 0.0000 0.0000 0.0000 8.4119 0.0000
# 6 0.0000 0.0000 0.0000 0.0000 0.0000 33.3701
#
#
#
# Elastic Compliance Matrix: (Units=1/GPa)
#
#
# Indices 1 2 3 4 5 6 
#
# 1 0.018213 -0.005617 -0.011643 0.000000 0.000000 0.000000
# 2 -0.005617 0.017232 -0.007256 0.000000 0.000000 0.000000
# 3 -0.011643 -0.007256 0.030338 0.000000 0.000000 0.000000
# 4 0.000000 0.000000 0.000000 0.031857 0.000000 0.000000
# 5 0.000000 0.000000 0.000000 0.000000 0.118879 0.000000
# 6 0.000000 0.000000 0.000000 0.000000 0.000000 0.029967
#
#
# Mechanical properties :
#
#
# Convention : Reuss Voigt Hill
#
# Bulk Modulus (GPa) = 59.69618 65.76100 62.72859
# Shear Modulus (GPa) = 16.60585 21.97330 19.28958
#
# Velocity S-wave (km/s) = 3.03143 3.48711 3.26722
# Velocity P-wave (km/s) = 6.72966 7.25293 6.99619
#
# Compressibility (1/GPa) = 0.01675149
#
# Stress axis : x y z
#
# Youngs Moduli (GPa) = 54.90697 58.03319 32.96234
#
# Poissons Ratio (x) = 0.32595 0.38378
# Poissons Ratio (y) = 0.30839 0.23916
# Poissons Ratio (z) = 0.63928 0.42106
#
# Static dielectric constant tensor:
#      x y z
#    x 3.600800 0.000000 0.000000 
#    y 0.000000 3.324530 0.000000 
#    z 0.000000 0.000000 3.079360 
# 
# 
# High freq. dielectric constant tensor:
#      x y z
#    x 1.714780 0.000000 0.000000 
#    y 0.000000 1.700970 0.000000 
#    z 0.000000 0.000000 1.676260 
# 
# From -- ./inp_files/48611.got.cif
#   From: 2010.06.25/outbox.cif.g09.slc.cpg/sg71_25_cif.got.tgz:48611.got - 2010.06.28 04:59:45.
