data_PCOD8290261
_publ_section_title
;
Structure prediction by ZEFSAII (Michael W. Deem and Ramdas Pophale) SiO2 
 PCOD8290261
Probable space group: I M M M
;
_chemical_formula_sum "Si O2"
_cell_formula_units_Z 120
_cell_length_a 9.324112
_cell_length_b 25.786875
_cell_length_c 26.769423
_cell_angle_alpha 90.000000
_cell_angle_beta 90.000000
_cell_angle_gamma 90.000000
_cell_volume 6436.432320
_symmetry_space_group_name_H-M "I M M M"
_symmetry_group_IT_number 71
_symmetry_cell_setting 'orthorhombic'
loop_
_space_group_symop_operation_xyz
x,y,z
-x,-y,z
x,-y,-z
-x,y,-z
-x,-y,-z
x,y,-z
-x,y,z
x,-y,z
1/2+x,1/2+y,1/2+z
1/2-x,1/2-y,1/2+z
1/2+x,1/2-y,1/2-z
1/2-x,1/2+y,1/2-z
1/2-x,1/2-y,1/2-z
1/2+x,1/2+y,1/2-z
1/2-x,1/2+y,1/2+z
1/2+x,1/2-y,1/2+z
loop_
_atom_site_type_symbol
_atom_site_label
_atom_site_fract_x
_atom_site_fract_y
_atom_site_fract_z
Si Si1 0.338137 0.641125 0.183346
Si Si2 0.832350 0.444781 0.343617
Si Si3 0.162670 0.561413 0.000000
Si Si4 0.837174 0.400699 0.554683
Si Si5 0.167756 0.939725 0.401540
Si Si6 0.834176 0.203024 0.056151
Si Si7 0.161857 0.255884 0.356257
Si Si8 0.329900 0.153046 0.215713
O O1 0.500000 0.628863 0.201193
O O2 0.285822 0.595841 0.145557
O O3 0.331840 0.696304 0.157274
O O4 0.234069 0.645617 0.229932
O O5 0.766847 0.500000 0.324773
O O6 0.802576 0.442627 0.402995
O O7 0.765991 0.395091 0.316164
O O8 0.000000 0.444642 0.332444
O O9 0.244994 0.580091 0.049917
O O10 0.160594 0.500000 0.000000
O O11 0.000000 0.583617 0.000000
O O12 0.815824 0.426336 0.500000
O O13 0.730389 0.353595 0.562290
O O14 0.000000 0.379753 0.560917
O O15 0.000000 0.932335 0.413438
O O16 0.202384 0.000000 0.388976
O O17 0.757942 0.241204 0.094538
O O18 0.000000 0.199846 0.069865
O O19 0.810079 0.224264 0.000000
O O20 0.219477 0.293541 0.311559
O O21 0.000000 0.273488 0.368974
O O22 0.500000 0.152114 0.221125
#
# Coordination Sequence:
#
# PCOD8290261 Si02
#       8
#    16  16   8  16  16  16  16  16
#     4  10  22  37  55  81 106 134 178 222 259 307
#     4   9  17  30  49  76 107 136 174 222 266 310
#     4   9  17  31  55  85 111 139 175 211 252 307
#     4   9  16  29  51  75 102 139 179 219 264 313
#     4   9  18  35  57  79 108 143 174 209 257 313
#     4  10  20  33  52  79 109 140 174 213 263 318
#     4  10  20  37  57  77 103 137 179 220 260 312
#     4  10  20  35  54  75 103 140 177 218 270 315
#
# _framework density 18.643868000000001
#
# number of rings (size 3 to 8) (size 9 to 14) (size 15 to 20)
#    0.000    2.467    1.333    1.000    0.000    4.000 
#    1.200    1.333    0.000    1.200    0.000    1.867 
#    0.000    0.000    0.000    0.000    0.000    0.000 
#
# Total GULP energy -743665.387420 kJ/mol
# GULP energy per Si atom -12394.423124 kJ/mol
# Density = 1.860143 g / cm^3
# Si number density = 18.643868 Si / 1000 Ang^3
#
#
#
# Elastic Constant Matrix: (Units=GPa)
#
#
# Indices 1 2 3 4 5 6 
#
# 1 69.0293 27.9844 56.1431 0.0000 0.0000 0.0000
# 2 27.9844 90.0618 42.8080 0.0000 0.0000 0.0000
# 3 56.1431 42.8080 112.1715 0.0000 0.0000 0.0000
# 4 0.0000 0.0000 0.0000 14.0273 0.0000 0.0000
# 5 0.0000 0.0000 0.0000 0.0000 31.7188 0.0000
# 6 0.0000 0.0000 0.0000 0.0000 0.0000 10.2029
#
#
#
# Elastic Compliance Matrix: (Units=1/GPa)
#
#
# Indices 1 2 3 4 5 6 
#
# 1 0.024786 -0.002205 -0.011564 0.000000 0.000000 0.000000
# 2 -0.002205 0.013760 -0.004148 0.000000 0.000000 0.000000
# 3 -0.011564 -0.004148 0.016286 0.000000 0.000000 0.000000
# 4 0.000000 0.000000 0.000000 0.071289 0.000000 0.000000
# 5 0.000000 0.000000 0.000000 0.000000 0.031527 0.000000
# 6 0.000000 0.000000 0.000000 0.000000 0.000000 0.098012
#
#
# Mechanical properties :
#
#
# Convention : Reuss Voigt Hill
#
# Bulk Modulus (GPa) = 52.63642 58.34816 55.49229
# Shear Modulus (GPa) = 16.78833 20.81161 18.79997
#
# Velocity S-wave (km/s) = 3.00405 3.34469 3.17893
# Velocity P-wave (km/s) = 6.35030 6.80294 6.58051
#
# Compressibility (1/GPa) = 0.01899825
#
# Stress axis : x y z
#
# Youngs Moduli (GPa) = 40.34561 72.67401 61.40338
#
# Poissons Ratio (x) = 0.16024 0.71008
# Poissons Ratio (y) = 0.08896 0.25468
# Poissons Ratio (z) = 0.46656 0.30143
#
# Static dielectric constant tensor:
#      x y z
#    x 3.374210 0.000000 0.000000 
#    y 0.000000 3.472900 0.000000 
#    z 0.000000 0.000000 3.563070 
# 
# 
# High freq. dielectric constant tensor:
#      x y z
#    x 1.703350 0.000000 0.000000 
#    y 0.000000 1.715450 0.000000 
#    z 0.000000 0.000000 1.728860 
# 
# From -- ./inp_files/63761.got.cif
#   From: 2010.06.25/outbox.cif.g09.slc.cpg/sg71_32_cif.got.tgz:63761.got - 2010.06.28 04:59:45.
