data_PCOD8290907
_publ_section_title
;
Structure prediction by ZEFSAII (Michael W. Deem and Ramdas Pophale) SiO2 
 PCOD8290907
Probable space group: I M M M
;
_chemical_formula_sum "Si O2"
_cell_formula_units_Z 104
_cell_length_a 26.401231
_cell_length_b 21.737240
_cell_length_c 8.869614
_cell_angle_alpha 90.000000
_cell_angle_beta 90.000000
_cell_angle_gamma 90.000000
_cell_volume 5090.181843
_symmetry_space_group_name_H-M "I M M M"
_symmetry_group_IT_number 71
_symmetry_cell_setting 'orthorhombic'
loop_
_space_group_symop_operation_xyz
x,y,z
-x,-y,z
x,-y,-z
-x,y,-z
-x,-y,-z
x,y,-z
-x,y,z
x,-y,z
1/2+x,1/2+y,1/2+z
1/2-x,1/2-y,1/2+z
1/2+x,1/2-y,1/2-z
1/2-x,1/2+y,1/2-z
1/2-x,1/2-y,1/2-z
1/2+x,1/2+y,1/2-z
1/2-x,1/2+y,1/2+z
1/2+x,1/2-y,1/2+z
loop_
_atom_site_type_symbol
_atom_site_label
_atom_site_fract_x
_atom_site_fract_y
_atom_site_fract_z
Si Si1 0.232247 0.685359 0.680587
Si Si2 0.878647 0.341624 0.670831
Si Si3 0.445105 0.071687 0.666582
Si Si4 0.000000 0.070188 0.175045
Si Si5 0.294292 0.571489 0.821437
Si Si6 0.105451 0.119026 0.178877
Si Si7 0.058069 0.225078 0.673867
O O1 0.239047 0.688098 0.500000
O O2 0.250000 0.750000 0.750000
O O3 0.174509 0.680890 0.738734
O O4 0.260613 0.623869 0.740526
O O5 0.866830 0.356292 0.500000
O O6 0.896935 0.404596 0.743127
O O7 0.925386 0.295259 0.692898
O O8 0.443934 0.100849 0.500000
O O9 0.500000 0.087177 0.741684
O O10 0.437587 0.000000 0.655766
O O11 0.051461 0.096189 0.245220
O O12 0.000000 0.000000 0.211476
O O13 0.000000 0.086283 0.000000
O O14 0.278533 0.500000 0.782815
O O15 0.351392 0.581459 0.763937
O O16 0.291710 0.582168 0.000000
O O17 0.101184 0.190218 0.227045
O O18 0.112643 0.110451 0.000000
O O19 0.062104 0.204457 0.500000
O O20 0.000000 0.217040 0.733175
#
# Coordination Sequence:
#
# PCOD8290907 Si02
#       7
#    16  16  16   8  16  16  16
#     4  11  24  43  67  94 125 161 206 261 318 378
#     4  10  22  38  58  86 116 150 194 244 297 354
#     4   9  19  36  57  84 119 156 193 236 288 348
#     4   9  18  32  51  79 115 149 184 231 284 343
#     4  11  25  44  65  90 123 164 212 264 316 373
#     4  11  21  36  59  87 120 157 199 246 300 360
#     4  10  20  35  56  84 123 163 197 241 297 358
#
# _framework density 20.43149
#
# number of rings (size 3 to 8) (size 9 to 14) (size 15 to 20)
#    0.000    1.769    0.769    3.692    0.000    6.769 
#    0.000    3.846    0.000    1.846    0.000    0.000 
#    0.000    0.000    0.000    0.000    0.000    0.000 
#
# Total GULP energy -644332.187508 kJ/mol
# GULP energy per Si atom -12391.003606 kJ/mol
# Density = 2.038499 g / cm^3
# Si number density = 20.431490 Si / 1000 Ang^3
#
#
#
# Elastic Constant Matrix: (Units=GPa)
#
#
# Indices 1 2 3 4 5 6 
#
# 1 124.1322 64.8312 41.0626 0.0000 0.0000 0.0000
# 2 64.8312 106.7633 49.8783 0.0000 0.0000 0.0000
# 3 41.0626 49.8783 58.1393 0.0000 0.0000 0.0000
# 4 0.0000 0.0000 0.0000 33.3911 0.0000 0.0000
# 5 0.0000 0.0000 0.0000 0.0000 33.1049 0.0000
# 6 0.0000 0.0000 0.0000 0.0000 0.0000 38.2842
#
#
#
# Elastic Compliance Matrix: (Units=1/GPa)
#
#
# Indices 1 2 3 4 5 6 
#
# 1 0.012280 -0.005683 -0.003798 0.000000 0.000000 0.000000
# 2 -0.005683 0.018261 -0.011653 0.000000 0.000000 0.000000
# 3 -0.003798 -0.011653 0.029880 0.000000 0.000000 0.000000
# 4 0.000000 0.000000 0.000000 0.029948 0.000000 0.000000
# 5 0.000000 0.000000 0.000000 0.000000 0.030207 0.000000
# 6 0.000000 0.000000 0.000000 0.000000 0.000000 0.026120
#
#
# Mechanical properties :
#
#
# Convention : Reuss Voigt Hill
#
# Bulk Modulus (GPa) = 55.08468 66.73101 60.90785
# Shear Modulus (GPa) = 25.63888 29.84021 27.73955
#
# Velocity S-wave (km/s) = 3.54626 3.82580 3.68868
# Velocity P-wave (km/s) = 6.61719 7.22824 6.92945
#
# Compressibility (1/GPa) = 0.01815387
#
# Stress axis : x y z
#
# Youngs Moduli (GPa) = 81.43170 54.76010 33.46726
#
# Poissons Ratio (x) = 0.31118 0.12711
# Poissons Ratio (y) = 0.46275 0.39000
# Poissons Ratio (z) = 0.30928 0.63813
#
# Static dielectric constant tensor:
#      x y z
#    x 3.952980 0.000000 0.000000 
#    y 0.000000 3.761760 0.000000 
#    z 0.000000 0.000000 3.695880 
# 
# 
# High freq. dielectric constant tensor:
#      x y z
#    x 1.807280 0.000000 0.000000 
#    y 0.000000 1.805890 0.000000 
#    z 0.000000 0.000000 1.788210 
# 
# From -- ./inp_files/15042.got.cif
#   From: 2010.06.25/outbox.cif.g09.slc.cpg/sg71_8_cif.got.tgz:15042.got - 2010.06.28 04:59:45.
