data_PCOD8290497
_publ_section_title
;
Structure prediction by ZEFSAII (Michael W. Deem and Ramdas Pophale) SiO2 
 PCOD8290497
Probable space group: I M M M
;
_chemical_formula_sum "Si O2"
_cell_formula_units_Z 80
_cell_length_a 9.084416
_cell_length_b 18.183465
_cell_length_c 26.153302
_cell_angle_alpha 90.000000
_cell_angle_beta 90.000000
_cell_angle_gamma 90.000000
_cell_volume 4320.163539
_symmetry_space_group_name_H-M "I M M M"
_symmetry_group_IT_number 71
_symmetry_cell_setting 'orthorhombic'
loop_
_space_group_symop_operation_xyz
x,y,z
-x,-y,z
x,-y,-z
-x,y,-z
-x,-y,-z
x,y,-z
-x,y,z
x,-y,z
1/2+x,1/2+y,1/2+z
1/2-x,1/2-y,1/2+z
1/2+x,1/2-y,1/2-z
1/2-x,1/2+y,1/2-z
1/2-x,1/2-y,1/2-z
1/2+x,1/2+y,1/2-z
1/2-x,1/2+y,1/2+z
1/2+x,1/2-y,1/2+z
loop_
_atom_site_type_symbol
_atom_site_label
_atom_site_fract_x
_atom_site_fract_y
_atom_site_fract_z
Si Si1 0.831215 0.913326 0.500000
Si Si2 0.831993 0.182547 0.801377
Si Si3 0.326447 0.082974 0.000000
Si Si4 0.167956 0.830831 0.691788
Si Si5 0.834176 0.165900 0.087894
Si Si6 0.170171 0.660536 0.093356
O O1 0.755296 0.882170 0.449979
O O2 0.000000 0.888332 0.500000
O O3 0.813821 0.000000 0.500000
O O4 0.811748 0.134111 0.749204
O O5 0.709640 0.245641 0.801628
O O6 0.811519 0.135890 0.853827
O O7 0.000000 0.215725 0.802247
O O8 0.275316 0.124162 0.949167
O O9 0.500000 0.083159 0.000000
O O10 0.264150 0.000000 0.000000
O O11 0.270076 0.867730 0.648551
O O12 0.000000 0.837808 0.673254
O O13 0.800801 0.252824 0.086967
O O14 0.000000 0.151116 0.068765
O O15 0.000000 0.640280 0.089409
#
# Coordination Sequence:
#
# PCOD8290497 Si02
#       6
#     8  16   8  16  16  16
#     4  11  24  39  54  74 100 131 170 213 254 298
#     4   8  15  27  44  71 104 131 161 203 247 293
#     4  11  24  37  48  68  98 129 164 209 256 298
#     4   9  15  25  45  73 104 134 162 198 246 294
#     4   9  18  33  53  76 100 129 166 204 242 291
#     4  10  20  34  53  78 106 133 165 205 247 297
#
# _framework density 18.517817999999998
#
# number of rings (size 3 to 8) (size 9 to 14) (size 15 to 20)
#    0.000    2.600    0.000    3.600    0.000    8.800 
#    0.000    0.000    0.000    1.200    0.000    2.800 
#    0.000    0.000    0.000    0.000    0.000    0.000 
#
# Total GULP energy -495646.691495 kJ/mol
# GULP energy per Si atom -12391.167287 kJ/mol
# Density = 1.847567 g / cm^3
# Si number density = 18.517818 Si / 1000 Ang^3
#
#
#
# Elastic Constant Matrix: (Units=GPa)
#
#
# Indices 1 2 3 4 5 6 
#
# 1 107.8198 36.2852 74.4683 0.0000 0.0000 0.0000
# 2 36.2852 34.8167 40.5726 0.0000 0.0000 0.0000
# 3 74.4683 40.5726 186.6972 0.0000 0.0000 0.0000
# 4 0.0000 0.0000 0.0000 -7.8738 0.0000 0.0000
# 5 0.0000 0.0000 0.0000 0.0000 32.9276 0.0000
# 6 0.0000 0.0000 0.0000 0.0000 0.0000 18.2783
#
#
#
# Elastic Compliance Matrix: (Units=1/GPa)
#
#
# Indices 1 2 3 4 5 6 
#
# 1 0.015981 -0.012356 -0.003689 0.000000 0.000000 0.000000
# 2 -0.012356 0.048015 -0.005506 0.000000 0.000000 0.000000
# 3 -0.003689 -0.005506 0.008024 0.000000 0.000000 0.000000
# 4 0.000000 0.000000 0.000000 -0.127003 0.000000 0.000000
# 5 0.000000 0.000000 0.000000 0.000000 0.030370 0.000000
# 6 0.000000 0.000000 0.000000 0.000000 0.000000 0.054710
#
#
# Mechanical properties :
#
#
# Convention : Reuss Voigt Hill
#
# Bulk Modulus (GPa) = 34.58042 70.22066 52.40054
# Shear Modulus (GPa) = 60.35822 20.53360 40.44591
#
# Velocity S-wave (km/s) = 5.71537 3.33356 4.67857
# Velocity P-wave (km/s) = 7.89104 7.26772 7.58579
#
# Compressibility (1/GPa) = 0.02891810
#
# Stress axis : x y z
#
# Youngs Moduli (GPa) = 62.57450 20.82674 124.62034
#
# Poissons Ratio (x) = 0.25733 0.45975
# Poissons Ratio (y) = 0.77316 0.68618
# Poissons Ratio (z) = 0.23085 0.11468
#
# Static dielectric constant tensor:
#      x y z
#    x 3.496830 0.000000 0.000000 
#    y 0.000000 2.865280 0.000000 
#    z 0.000000 0.000000 4.016080 
# 
# 
# High freq. dielectric constant tensor:
#      x y z
#    x 1.729400 0.000000 0.000000 
#    y 0.000000 1.645040 0.000000 
#    z 0.000000 0.000000 1.752770 
# 
# From -- ./inp_files/63062.got.cif
#   From: 2010.06.25/outbox.cif.g09.slc.cpg/sg71_32_cif.got.tgz:63062.got - 2010.06.28 04:59:45.
