data_PCOD8290012
_publ_section_title
;
Structure prediction by ZEFSAII (Michael W. Deem and Ramdas Pophale) SiO2 
 PCOD8290012
Probable space group: I M M M
;
_chemical_formula_sum "Si O2"
_cell_formula_units_Z 96
_cell_length_a 32.766990
_cell_length_b 18.789478
_cell_length_c 8.875107
_cell_angle_alpha 90.000000
_cell_angle_beta 90.000000
_cell_angle_gamma 90.000000
_cell_volume 5464.178287
_symmetry_space_group_name_H-M "I M M M"
_symmetry_group_IT_number 71
_symmetry_cell_setting 'orthorhombic'
loop_
_space_group_symop_operation_xyz
x,y,z
-x,-y,z
x,-y,-z
-x,y,-z
-x,-y,-z
x,y,-z
-x,y,z
x,-y,z
1/2+x,1/2+y,1/2+z
1/2-x,1/2-y,1/2+z
1/2+x,1/2-y,1/2-z
1/2-x,1/2+y,1/2-z
1/2-x,1/2-y,1/2-z
1/2+x,1/2+y,1/2-z
1/2-x,1/2+y,1/2+z
1/2+x,1/2-y,1/2+z
loop_
_atom_site_type_symbol
_atom_site_label
_atom_site_fract_x
_atom_site_fract_y
_atom_site_fract_z
Si Si1 0.741437 0.418087 0.824332
Si Si2 0.125214 0.285011 0.676603
Si Si3 0.544591 0.285836 0.822435
Si Si4 0.594163 0.420289 0.824597
Si Si5 0.332856 0.654942 0.677815
Si Si6 0.825857 0.579978 0.673875
O O1 0.731274 0.500000 0.785527
O O2 0.711916 0.366555 0.732614
O O3 0.787449 0.400042 0.776222
O O4 0.736453 0.402418 0.000000
O O5 0.127757 0.267685 0.500000
O O6 0.078812 0.270449 0.734733
O O7 0.156605 0.232632 0.758417
O O8 0.137187 0.366293 0.713015
O O9 0.500000 0.270482 0.748502
O O10 0.558559 0.365632 0.776982
O O11 0.540195 0.279835 0.000000
O O12 0.579119 0.500000 0.787376
O O13 0.635213 0.404175 0.733609
O O14 0.605030 0.411397 0.000000
O O15 0.333416 0.658354 0.500000
O O16 0.812621 0.587609 0.500000
O O17 0.841428 0.500000 0.708500
#
# Coordination Sequence:
#
# PCOD8290012 Si02
#       6
#    16  16  16  16  16  16
#     4  10  20  33  49  69  95 127 161 196 233 272
#     4   9  18  33  51  70  94 123 154 191 235 280
#     4   8  14  26  46  71  95 121 156 193 228 272
#     4   9  17  29  45  66  94 128 164 200 236 271
#     4  11  21  31  46  68  95 128 164 198 231 270
#     4   9  18  33  52  72  93 119 153 192 235 282
#
# _framework density 17.568973
#
# number of rings (size 3 to 8) (size 9 to 14) (size 15 to 20)
#    0.000    2.667    0.000    3.500    0.000    5.000 
#    0.000    1.667    0.000    8.500    0.000    8.167 
#    0.000    0.000    0.000   10.167    0.000   11.000 
#
# Total GULP energy -595075.100842 kJ/mol
# GULP energy per Si atom -12397.397934 kJ/mol
# Density = 1.752899 g / cm^3
# Si number density = 17.568973 Si / 1000 Ang^3
#
#
#
# Elastic Constant Matrix: (Units=GPa)
#
#
# Indices 1 2 3 4 5 6 
#
# 1 122.4895 85.2503 32.9576 0.0000 0.0000 0.0000
# 2 85.2503 117.0118 33.6703 0.0000 0.0000 0.0000
# 3 32.9576 33.6703 59.4400 0.0000 0.0000 0.0000
# 4 0.0000 0.0000 0.0000 16.3251 0.0000 0.0000
# 5 0.0000 0.0000 0.0000 0.0000 14.9351 0.0000
# 6 0.0000 0.0000 0.0000 0.0000 0.0000 17.8819
#
#
#
# Elastic Compliance Matrix: (Units=1/GPa)
#
#
# Indices 1 2 3 4 5 6 
#
# 1 0.016963 -0.011532 -0.002873 0.000000 0.000000 0.000000
# 2 -0.011532 0.018050 -0.003831 0.000000 0.000000 0.000000
# 3 -0.002873 -0.003831 0.020587 0.000000 0.000000 0.000000
# 4 0.000000 0.000000 0.000000 0.061255 0.000000 0.000000
# 5 0.000000 0.000000 0.000000 0.000000 0.066956 0.000000
# 6 0.000000 0.000000 0.000000 0.000000 0.000000 0.055922
#
#
# Mechanical properties :
#
#
# Convention : Reuss Voigt Hill
#
# Bulk Modulus (GPa) = 52.27785 66.96643 59.62214
# Shear Modulus (GPa) = 17.69404 19.63262 18.66333
#
# Velocity S-wave (km/s) = 3.17696 3.34647 3.26281
# Velocity P-wave (km/s) = 6.57858 7.28909 6.94293
#
# Compressibility (1/GPa) = 0.01912856
#
# Stress axis : x y z
#
# Youngs Moduli (GPa) = 58.95213 55.40166 48.57528
#
# Poissons Ratio (x) = 0.63888 0.13956
# Poissons Ratio (y) = 0.67982 0.18607
# Poissons Ratio (z) = 0.16938 0.21222
#
# Static dielectric constant tensor:
#      x y z
#    x 3.391310 0.000000 0.000000 
#    y 0.000000 3.321010 0.000000 
#    z 0.000000 0.000000 3.095200 
# 
# 
# High freq. dielectric constant tensor:
#      x y z
#    x 1.668520 0.000000 0.000000 
#    y 0.000000 1.671830 0.000000 
#    z 0.000000 0.000000 1.659820 
# 
# From -- ./inp_files/14831.got.cif
#   From: 2010.06.25/outbox.cif.g09.slc.cpg/sg71_8_cif.got.tgz:14831.got - 2010.06.28 04:59:45.
