data_PCOD8290699
_publ_section_title
;
Structure prediction by ZEFSAII (Michael W. Deem and Ramdas Pophale) SiO2 
 PCOD8290699
Probable space group: I M M M
;
_chemical_formula_sum "Si O2"
_cell_formula_units_Z 88
_cell_length_a 30.520863
_cell_length_b 16.583167
_cell_length_c 8.772675
_cell_angle_alpha 90.000000
_cell_angle_beta 90.000000
_cell_angle_gamma 90.000000
_cell_volume 4440.136527
_symmetry_space_group_name_H-M "I M M M"
_symmetry_group_IT_number 71
_symmetry_cell_setting 'orthorhombic'
loop_
_space_group_symop_operation_xyz
x,y,z
-x,-y,z
x,-y,-z
-x,y,-z
-x,-y,-z
x,y,-z
-x,y,z
x,-y,z
1/2+x,1/2+y,1/2+z
1/2-x,1/2-y,1/2+z
1/2+x,1/2-y,1/2-z
1/2-x,1/2+y,1/2-z
1/2-x,1/2-y,1/2-z
1/2+x,1/2+y,1/2-z
1/2-x,1/2+y,1/2+z
1/2+x,1/2-y,1/2+z
loop_
_atom_site_type_symbol
_atom_site_label
_atom_site_fract_x
_atom_site_fract_y
_atom_site_fract_z
Si Si1 0.500000 0.908737 0.821198
Si Si2 0.756466 0.500000 0.181211
Si Si3 0.222234 0.824771 0.680186
Si Si4 0.870871 0.189286 0.826870
Si Si5 0.913984 0.639294 0.828634
Si Si6 0.047709 0.908534 0.818933
Si Si7 0.853789 0.500000 0.181577
O O1 0.457983 0.858319 0.768742
O O2 0.500000 0.000000 0.752771
O O3 0.500000 0.913389 0.000000
O O4 0.735298 0.415168 0.239643
O O5 0.805269 0.500000 0.249903
O O6 0.754988 0.500000 0.000000
O O7 0.229013 0.819333 0.500000
O O8 0.250000 0.750000 0.750000
O O9 0.171536 0.815448 0.721944
O O10 0.888534 0.278416 0.827415
O O11 0.910158 0.137065 0.751142
O O12 0.859334 0.161678 0.000000
O O13 0.879947 0.576654 0.756002
O O14 0.927143 0.614137 0.000000
O O15 0.000000 0.874003 0.763715
O O16 0.051496 0.000000 0.764616
O O17 0.049521 0.900742 0.000000
O O18 0.850127 0.500000 0.000000
#
# Coordination Sequence:
#
# PCOD8290699 Si02
#       7
#     8   8  16  16  16  16   8
#     4  11  23  37  53  79 118 155 190 242 294 342
#     4   9  20  38  62  88 116 155 196 239 296 362
#     4  11  23  41  63  88 123 160 200 250 303 362
#     4  10  21  35  58  88 116 149 195 244 290 346
#     4  10  20  34  56  82 110 148 195 239 279 342
#     4   8  15  29  50  79 114 148 183 229 281 329
#     4   9  16  31  54  77 102 137 187 234 275 327
#
# _framework density 19.819210000000002
#
# number of rings (size 3 to 8) (size 9 to 14) (size 15 to 20)
#    0.000    2.273    0.909    2.455    2.545    4.000 
#    0.000    1.364    0.000    1.091    0.000    1.273 
#    0.000    0.000    0.000    0.000    0.000    0.000 
#
# Total GULP energy -545269.631918 kJ/mol
# GULP energy per Si atom -12392.491635 kJ/mol
# Density = 1.977410 g / cm^3
# Si number density = 19.819210 Si / 1000 Ang^3
#
#
#
# Elastic Constant Matrix: (Units=GPa)
#
#
# Indices 1 2 3 4 5 6 
#
# 1 171.7958 61.8909 31.1047 0.0000 0.0000 0.0000
# 2 61.8909 112.4714 24.6249 0.0000 0.0000 0.0000
# 3 31.1047 24.6249 42.1586 0.0000 0.0000 0.0000
# 4 0.0000 0.0000 0.0000 41.8144 0.0000 0.0000
# 5 0.0000 0.0000 0.0000 0.0000 28.0090 0.0000
# 6 0.0000 0.0000 0.0000 0.0000 0.0000 55.7003
#
#
#
# Elastic Compliance Matrix: (Units=1/GPa)
#
#
# Indices 1 2 3 4 5 6 
#
# 1 0.007731 -0.003446 -0.003691 0.000000 0.000000 0.000000
# 2 -0.003446 0.011731 -0.004310 0.000000 0.000000 0.000000
# 3 -0.003691 -0.004310 0.028960 0.000000 0.000000 0.000000
# 4 0.000000 0.000000 0.000000 0.023915 0.000000 0.000000
# 5 0.000000 0.000000 0.000000 0.000000 0.035703 0.000000
# 6 0.000000 0.000000 0.000000 0.000000 0.000000 0.017953
#
#
# Mechanical properties :
#
#
# Convention : Reuss Voigt Hill
#
# Bulk Modulus (GPa) = 39.17113 62.40743 50.78928
# Shear Modulus (GPa) = 31.76709 39.02508 35.39608
#
# Velocity S-wave (km/s) = 4.00790 4.44222 4.23063
# Velocity P-wave (km/s) = 6.42065 7.60709 7.03891
#
# Compressibility (1/GPa) = 0.02552901
#
# Stress axis : x y z
#
# Youngs Moduli (GPa) = 129.35736 85.24481 34.52992
#
# Poissons Ratio (x) = 0.29374 0.12745
# Poissons Ratio (y) = 0.44575 0.14881
# Poissons Ratio (z) = 0.47744 0.36738
#
# Static dielectric constant tensor:
#      x y z
#    x 3.960100 0.000000 0.000000 
#    y 0.000000 3.816240 0.000000 
#    z 0.000000 0.000000 3.221680 
# 
# 
# High freq. dielectric constant tensor:
#      x y z
#    x 1.791430 0.000000 0.000000 
#    y 0.000000 1.783750 0.000000 
#    z 0.000000 0.000000 1.722940 
# 
# From -- ./inp_files/16723.got.cif
#   From: 2010.06.25/outbox.cif.g09.slc.cpg/sg71_9_cif.got.tgz:16723.got - 2010.06.28 04:59:45.
