data_PCOD8290814
_publ_section_title
;
Structure prediction by ZEFSAII (Michael W. Deem and Ramdas Pophale) SiO2 
 PCOD8290814
Probable space group: I M M M
;
_chemical_formula_sum "Si O2"
_cell_formula_units_Z 104
_cell_length_a 29.656584
_cell_length_b 9.050897
_cell_length_c 20.600006
_cell_angle_alpha 90.000000
_cell_angle_beta 90.000000
_cell_angle_gamma 90.000000
_cell_volume 5529.426566
_symmetry_space_group_name_H-M "I M M M"
_symmetry_group_IT_number 71
_symmetry_cell_setting 'orthorhombic'
loop_
_space_group_symop_operation_xyz
x,y,z
-x,-y,z
x,-y,-z
-x,y,-z
-x,-y,-z
x,y,-z
-x,y,z
x,-y,z
1/2+x,1/2+y,1/2+z
1/2-x,1/2-y,1/2+z
1/2+x,1/2-y,1/2-z
1/2-x,1/2+y,1/2-z
1/2-x,1/2-y,1/2-z
1/2+x,1/2+y,1/2-z
1/2-x,1/2+y,1/2+z
1/2+x,1/2-y,1/2+z
loop_
_atom_site_type_symbol
_atom_site_label
_atom_site_fract_x
_atom_site_fract_y
_atom_site_fract_z
Si Si1 0.449891 0.673655 0.072263
Si Si2 0.946764 0.826781 0.858495
Si Si3 0.126902 0.333389 0.637505
Si Si4 0.131909 0.668620 0.211067
Si Si5 0.783660 0.324647 0.572310
Si Si6 0.276923 0.676090 0.690758
Si Si7 0.549111 0.674143 0.500000
O O1 0.500000 0.735428 0.084664
O O2 0.449825 0.500000 0.080358
O O3 0.417826 0.740800 0.126097
O O4 0.433694 0.718652 0.000000
O O5 0.916809 0.734687 0.808096
O O6 0.927968 0.782184 0.931193
O O7 0.000000 0.787341 0.850806
O O8 0.939570 0.000000 0.845312
O O9 0.117663 0.500000 0.614872
O O10 0.138904 0.325873 0.712432
O O11 0.168097 0.263283 0.596672
O O12 0.135122 0.500000 0.186056
O O13 0.172179 0.766827 0.182375
O O14 0.773073 0.262605 0.500000
O O15 0.786115 0.500000 0.571367
O O16 0.745724 0.274381 0.623011
O O17 0.276169 0.500000 0.700959
O O18 0.250000 0.750000 0.750000
O O19 0.542685 0.500000 0.500000
O O20 0.500000 0.749094 0.500000
#
# Coordination Sequence:
#
# PCOD8290814 Si02
#       7
#    16  16  16  16  16  16   8
#     4   9  19  35  52  74 108 144 177 220 274 326
#     4   9  18  35  59  85 111 144 188 233 280 335
#     4  10  20  35  55  78 105 141 185 227 267 321
#     4  11  23  38  55  81 115 149 188 227 273 331
#     4   9  18  35  59  84 108 137 180 231 276 322
#     4  11  21  38  62  85 113 149 187 229 282 337
#     4   7  12  28  55  81 105 137 183 233 273 325
#
# _framework density 18.80846
#
# number of rings (size 3 to 8) (size 9 to 14) (size 15 to 20)
#    0.000    2.385    1.538    2.769    0.000    3.385 
#    1.385    4.231    0.000    3.692    0.000    0.000 
#    0.000    0.000    0.000    0.000    0.000    0.000 
#
# Total GULP energy -644490.816312 kJ/mol
# GULP energy per Si atom -12394.054160 kJ/mol
# Density = 1.876565 g / cm^3
# Si number density = 18.808460 Si / 1000 Ang^3
#
#
#
# Elastic Constant Matrix: (Units=GPa)
#
#
# Indices 1 2 3 4 5 6 
#
# 1 116.8785 45.6038 49.4803 0.0000 0.0000 0.0000
# 2 45.6038 62.4353 33.4241 0.0000 0.0000 0.0000
# 3 49.4803 33.4241 101.7456 0.0000 0.0000 0.0000
# 4 0.0000 0.0000 0.0000 24.9967 0.0000 0.0000
# 5 0.0000 0.0000 0.0000 0.0000 35.8793 0.0000
# 6 0.0000 0.0000 0.0000 0.0000 0.0000 30.6956
#
#
#
# Elastic Compliance Matrix: (Units=1/GPa)
#
#
# Indices 1 2 3 4 5 6 
#
# 1 0.013145 -0.007498 -0.003930 0.000000 0.000000 0.000000
# 2 -0.007498 0.023711 -0.004143 0.000000 0.000000 0.000000
# 3 -0.003930 -0.004143 0.013100 0.000000 0.000000 0.000000
# 4 0.000000 0.000000 0.000000 0.040005 0.000000 0.000000
# 5 0.000000 0.000000 0.000000 0.000000 0.027871 0.000000
# 6 0.000000 0.000000 0.000000 0.000000 0.000000 0.032578
#
#
# Mechanical properties :
#
#
# Convention : Reuss Voigt Hill
#
# Bulk Modulus (GPa) = 53.14646 59.78619 56.46633
# Shear Modulus (GPa) = 26.62083 28.48440 27.55261
#
# Velocity S-wave (km/s) = 3.76621 3.89581 3.83156
# Velocity P-wave (km/s) = 6.87245 7.21750 7.04709
#
# Compressibility (1/GPa) = 0.01881593
#
# Stress axis : x y z
#
# Youngs Moduli (GPa) = 76.07535 42.17479 76.33353
#
# Poissons Ratio (x) = 0.31621 0.29995
# Poissons Ratio (y) = 0.57038 0.31625
# Poissons Ratio (z) = 0.29894 0.17473
#
# Static dielectric constant tensor:
#      x y z
#    x 3.434420 0.000000 0.000000 
#    y 0.000000 3.214740 0.000000 
#    z 0.000000 0.000000 3.638260 
# 
# 
# High freq. dielectric constant tensor:
#      x y z
#    x 1.729150 0.000000 0.000000 
#    y 0.000000 1.705380 0.000000 
#    z 0.000000 0.000000 1.735420 
# 
# From -- ./inp_files/56279.got.cif
#   From: 2010.06.25/outbox.cif.g09.slc.cpg/sg71_29_cif.got.tgz:56279.got - 2010.06.28 04:59:45.
