data_PCOD8290125
_publ_section_title
;
Structure prediction by ZEFSAII (Michael W. Deem and Ramdas Pophale) SiO2 
 PCOD8290125
Probable space group: I M M M
;
_chemical_formula_sum "Si O2"
_cell_formula_units_Z 96
_cell_length_a 8.940340
_cell_length_b 24.271349
_cell_length_c 24.793839
_cell_angle_alpha 90.000000
_cell_angle_beta 90.000000
_cell_angle_gamma 90.000000
_cell_volume 5380.117085
_symmetry_space_group_name_H-M "I M M M"
_symmetry_group_IT_number 71
_symmetry_cell_setting 'orthorhombic'
loop_
_space_group_symop_operation_xyz
x,y,z
-x,-y,z
x,-y,-z
-x,y,-z
-x,-y,-z
x,y,-z
-x,y,z
x,-y,z
1/2+x,1/2+y,1/2+z
1/2-x,1/2-y,1/2+z
1/2+x,1/2-y,1/2-z
1/2-x,1/2+y,1/2-z
1/2-x,1/2-y,1/2-z
1/2+x,1/2+y,1/2-z
1/2-x,1/2+y,1/2+z
1/2+x,1/2-y,1/2+z
loop_
_atom_site_type_symbol
_atom_site_label
_atom_site_fract_x
_atom_site_fract_y
_atom_site_fract_z
Si Si1 0.174730 0.062482 0.259663
Si Si2 0.176012 0.765280 0.151566
Si Si3 0.669981 0.341252 0.835408
Si Si4 0.822508 0.561657 0.440639
Si Si5 0.171049 0.788610 0.560034
Si Si6 0.677260 0.122531 0.164270
O O1 0.225221 0.101617 0.309513
O O2 0.271410 0.077604 0.207658
O O3 0.000000 0.069752 0.246205
O O4 0.211460 0.000000 0.276719
O O5 0.268898 0.788952 0.315089
O O6 0.232856 0.759677 0.089093
O O7 0.246778 0.819372 0.178354
O O8 0.000000 0.769973 0.153915
O O9 0.500000 0.329293 0.817630
O O10 0.682195 0.343273 0.901432
O O11 0.770699 0.582794 0.500000
O O12 0.759430 0.500000 0.430709
O O13 0.763248 0.602300 0.394184
O O14 0.000000 0.559402 0.437958
O O15 0.232985 0.801402 0.500000
O O16 0.000000 0.767955 0.556886
O O17 0.500000 0.128912 0.166065
#
# Coordination Sequence:
#
# PCOD8290125 Si02
#       6
#    16  16  16  16  16  16
#     4  10  21  37  57  78 104 138 174 218 269 320
#     4  10  20  33  50  76 106 136 171 214 263 312
#     4   8  17  35  54  76 104 138 176 212 261 320
#     4   8  15  29  48  69  94 127 169 215 257 297
#     4   8  15  31  54  77 103 137 175 212 255 312
#     4  11  21  33  51  77 106 137 177 220 264 316
#
# _framework density 17.843478999999999
#
# number of rings (size 3 to 8) (size 9 to 14) (size 15 to 20)
#    1.000    1.833    0.000    2.500    0.000    3.333 
#    0.000    1.667    0.000    2.000    0.000    9.333 
#    0.000    1.333    0.000    0.000    0.000    0.000 
#
# Total GULP energy -594645.893549 kJ/mol
# GULP energy per Si atom -12388.456116 kJ/mol
# Density = 1.780287 g / cm^3
# Si number density = 17.843479 Si / 1000 Ang^3
#
#
#
# Elastic Constant Matrix: (Units=GPa)
#
#
# Indices 1 2 3 4 5 6 
#
# 1 68.9062 39.6613 21.5850 0.0000 0.0000 0.0000
# 2 39.6613 120.5649 37.6878 0.0000 0.0000 0.0000
# 3 21.5850 37.6878 45.9252 0.0000 0.0000 0.0000
# 4 0.0000 0.0000 0.0000 29.7419 0.0000 0.0000
# 5 0.0000 0.0000 0.0000 0.0000 20.1391 0.0000
# 6 0.0000 0.0000 0.0000 0.0000 0.0000 19.1338
#
#
#
# Elastic Compliance Matrix: (Units=1/GPa)
#
#
# Indices 1 2 3 4 5 6 
#
# 1 0.018731 -0.004586 -0.005040 0.000000 0.000000 0.000000
# 2 -0.004586 0.012279 -0.007921 0.000000 0.000000 0.000000
# 3 -0.005040 -0.007921 0.030644 0.000000 0.000000 0.000000
# 4 0.000000 0.000000 0.000000 0.033623 0.000000 0.000000
# 5 0.000000 0.000000 0.000000 0.000000 0.049655 0.000000
# 6 0.000000 0.000000 0.000000 0.000000 0.000000 0.052263
#
#
# Mechanical properties :
#
#
# Convention : Reuss Voigt Hill
#
# Bulk Modulus (GPa) = 37.65189 48.14049 42.89619
# Shear Modulus (GPa) = 20.73465 22.90045 21.81755
#
# Velocity S-wave (km/s) = 3.41255 3.58635 3.50053
# Velocity P-wave (km/s) = 6.05594 6.64734 6.35852
#
# Compressibility (1/GPa) = 0.02655909
#
# Stress axis : x y z
#
# Youngs Moduli (GPa) = 53.38709 81.43921 32.63321
#
# Poissons Ratio (x) = 0.37351 0.16447
# Poissons Ratio (y) = 0.24485 0.25849
# Poissons Ratio (z) = 0.26907 0.64508
#
# Static dielectric constant tensor:
#      x y z
#    x 3.037750 0.000000 0.000000 
#    y 0.000000 3.245680 0.000000 
#    z 0.000000 0.000000 3.447620 
# 
# 
# High freq. dielectric constant tensor:
#      x y z
#    x 1.670260 0.000000 0.000000 
#    y 0.000000 1.673630 0.000000 
#    z 0.000000 0.000000 1.684520 
# 
# From -- ./inp_files/50807.got.cif
#   From: 2010.06.25/outbox.cif.g09.slc.cpg/sg71_26_cif.got.tgz:50807.got - 2010.06.28 04:59:45.
