data_PCOD8290361
_publ_section_title
;
Structure prediction by ZEFSAII (Michael W. Deem and Ramdas Pophale) SiO2 
 PCOD8290361
Probable space group: I M M M
;
_chemical_formula_sum "Si O2"
_cell_formula_units_Z 128
_cell_length_a 22.342086
_cell_length_b 17.349660
_cell_length_c 18.014967
_cell_angle_alpha 90.000000
_cell_angle_beta 90.000000
_cell_angle_gamma 90.000000
_cell_volume 6983.098346
_symmetry_space_group_name_H-M "I M M M"
_symmetry_group_IT_number 71
_symmetry_cell_setting 'orthorhombic'
loop_
_space_group_symop_operation_xyz
x,y,z
-x,-y,z
x,-y,-z
-x,y,-z
-x,-y,-z
x,y,-z
-x,y,z
x,-y,z
1/2+x,1/2+y,1/2+z
1/2-x,1/2-y,1/2+z
1/2+x,1/2-y,1/2-z
1/2-x,1/2+y,1/2-z
1/2-x,1/2-y,1/2-z
1/2+x,1/2+y,1/2-z
1/2-x,1/2+y,1/2+z
1/2+x,1/2-y,1/2+z
loop_
_atom_site_type_symbol
_atom_site_label
_atom_site_fract_x
_atom_site_fract_y
_atom_site_fract_z
Si Si1 0.931823 0.590068 0.915091
Si Si2 0.736353 0.590052 0.265976
Si Si3 0.815859 0.090575 0.081096
Si Si4 0.128673 0.815102 0.719769
Si Si5 0.430068 0.241558 0.083554
Si Si6 0.929861 0.416077 0.646230
Si Si7 0.135927 0.352496 0.780411
Si Si8 0.566627 0.589402 0.663066
O O1 0.924132 0.500000 0.898996
O O2 0.884862 0.637144 0.865083
O O3 0.000000 0.615522 0.897845
O O4 0.915813 0.609087 0.000000
O O5 0.721170 0.500000 0.260205
O O6 0.728372 0.618165 0.352370
O O7 0.689438 0.635702 0.214648
O O8 0.801751 0.605908 0.235885
O O9 0.884299 0.113428 0.101665
O O10 0.810356 0.000000 0.073028
O O11 0.800066 0.127828 0.000000
O O12 0.106768 0.798060 0.636569
O O13 0.142147 0.737327 0.764489
O O14 0.077162 0.862553 0.761835
O O15 0.500000 0.246062 0.104422
O O16 0.407497 0.152592 0.092306
O O17 0.417893 0.268636 0.000000
O O18 0.901054 0.500000 0.624961
O O19 0.914037 0.393431 0.730142
O O20 0.000000 0.424746 0.640274
O O21 0.500000 0.607082 0.632332
O O22 0.573843 0.500000 0.684001
#
# Coordination Sequence:
#
# PCOD8290361 Si02
#       8
#    16  16  16  16  16  16  16  16
#     4   9  18  33  53  77 106 138 169 207 257 304
#     4  10  20  35  54  73  95 131 176 213 247 293
#     4   8  15  29  48  71 101 132 161 201 249 289
#     4  10  20  34  51  72 101 134 165 208 260 300
#     4   9  18  32  50  72  99 132 165 200 250 306
#     4   9  17  29  48  75 103 130 161 198 240 290
#     4  11  20  32  52  76 101 130 170 209 245 298
#     4   9  17  30  51  77 102 134 175 209 242 295
#
# _framework density 18.329972000000001
#
# number of rings (size 3 to 8) (size 9 to 14) (size 15 to 20)
#    0.000    2.625    0.000    3.750    0.000    3.000 
#    0.000    8.125    0.000    5.250    0.000    4.375 
#    0.000    0.000    0.000    0.000    0.000    0.000 
#
# Total GULP energy -793274.618457 kJ/mol
# GULP energy per Si atom -12394.915913 kJ/mol
# Density = 1.828825 g / cm^3
# Si number density = 18.329972 Si / 1000 Ang^3
#
#
#
# Elastic Constant Matrix: (Units=GPa)
#
#
# Indices 1 2 3 4 5 6 
#
# 1 61.1136 21.0106 49.1936 0.0000 0.0000 0.0000
# 2 21.0106 74.2385 41.2523 0.0000 0.0000 0.0000
# 3 49.1936 41.2523 126.2214 0.0000 0.0000 0.0000
# 4 0.0000 0.0000 0.0000 18.5267 0.0000 0.0000
# 5 0.0000 0.0000 0.0000 0.0000 21.4728 0.0000
# 6 0.0000 0.0000 0.0000 0.0000 0.0000 22.1146
#
#
#
# Elastic Compliance Matrix: (Units=1/GPa)
#
#
# Indices 1 2 3 4 5 6 
#
# 1 0.024073 -0.001955 -0.008743 0.000000 0.000000 0.000000
# 2 -0.001955 0.016618 -0.004669 0.000000 0.000000 0.000000
# 3 -0.008743 -0.004669 0.012856 0.000000 0.000000 0.000000
# 4 0.000000 0.000000 0.000000 0.053976 0.000000 0.000000
# 5 0.000000 0.000000 0.000000 0.000000 0.046570 0.000000
# 6 0.000000 0.000000 0.000000 0.000000 0.000000 0.045219
#
#
# Mechanical properties :
#
#
# Convention : Reuss Voigt Hill
#
# Bulk Modulus (GPa) = 43.83559 53.83185 48.83372
# Shear Modulus (GPa) = 21.03921 22.43065 21.73493
#
# Velocity S-wave (km/s) = 3.39160 3.50196 3.44722
# Velocity P-wave (km/s) = 6.26928 6.76636 6.52256
#
# Compressibility (1/GPa) = 0.02281251
#
# Stress axis : x y z
#
# Youngs Moduli (GPa) = 41.54037 60.17605 77.78270
#
# Poissons Ratio (x) = 0.11762 0.68009
# Poissons Ratio (y) = 0.08119 0.36320
# Poissons Ratio (z) = 0.36321 0.28099
#
# Static dielectric constant tensor:
#      x y z
#    x 3.293390 0.000000 0.000000 
#    y 0.000000 3.444070 0.000000 
#    z 0.000000 0.000000 3.386390 
# 
# 
# High freq. dielectric constant tensor:
#      x y z
#    x 1.702180 0.000000 0.000000 
#    y 0.000000 1.701380 0.000000 
#    z 0.000000 0.000000 1.697330 
# 
# From -- ./inp_files/48424.got.cif
#   From: 2010.06.25/outbox.cif.g09.slc.cpg/sg71_25_cif.got.tgz:48424.got - 2010.06.28 04:59:45.
