data_PCOD8290941
_publ_section_title
;
Structure prediction by ZEFSAII (Michael W. Deem and Ramdas Pophale) SiO2 
 PCOD8290941
Probable space group: I M M M
;
_chemical_formula_sum "Si O2"
_cell_formula_units_Z 64
_cell_length_a 7.814330
_cell_length_b 22.462412
_cell_length_c 18.473021
_cell_angle_alpha 90.000000
_cell_angle_beta 90.000000
_cell_angle_gamma 90.000000
_cell_volume 3242.545361
_symmetry_space_group_name_H-M "I M M M"
_symmetry_group_IT_number 71
_symmetry_cell_setting 'orthorhombic'
loop_
_space_group_symop_operation_xyz
x,y,z
-x,-y,z
x,-y,-z
-x,y,-z
-x,-y,-z
x,y,-z
-x,y,z
x,-y,z
1/2+x,1/2+y,1/2+z
1/2-x,1/2-y,1/2+z
1/2+x,1/2-y,1/2-z
1/2-x,1/2+y,1/2-z
1/2-x,1/2-y,1/2-z
1/2+x,1/2+y,1/2-z
1/2-x,1/2+y,1/2+z
1/2+x,1/2-y,1/2+z
loop_
_atom_site_type_symbol
_atom_site_label
_atom_site_fract_x
_atom_site_fract_y
_atom_site_fract_z
Si Si1 0.312732 0.000000 0.585845
Si Si2 0.298804 0.242346 0.667384
Si Si3 0.704171 0.127921 0.581424
Si Si4 0.309392 0.854655 0.916556
Si Si5 0.500000 0.566113 0.413776
O O1 0.220125 0.937126 0.607042
O O2 0.500000 0.000000 0.622560
O O3 0.332770 0.000000 0.500000
O O4 0.500000 0.249858 0.654720
O O5 0.250000 0.250000 0.750000
O O6 0.234098 0.178432 0.637514
O O7 0.199250 0.292325 0.623719
O O8 0.768301 0.143697 0.500000
O O9 0.500000 0.123234 0.580944
O O10 0.500000 0.881707 0.906154
O O11 0.170218 0.900759 0.884992
O O12 0.268682 0.841922 0.000000
O O13 0.500000 0.500000 0.380553
O O14 0.500000 0.562965 0.500000
#
# Coordination Sequence:
#
# PCOD8290941 Si02
#       5
#     8  16  16  16   8
#     4   7  10  20  40  70 101 123 156 208 262 321
#     4  11  21  33  50  73 108 147 187 231 276 328
#     4   8  14  25  46  73  99 131 169 214 271 328
#     4  10  20  35  57  84 112 143 185 231 277 334
#     4   9  18  34  58  86 114 143 176 224 282 332
#
# _framework density 19.737580999999999
#
# number of rings (size 3 to 8) (size 9 to 14) (size 15 to 20)
#    0.000    2.750    1.250    3.000    0.000    1.500 
#    0.000    2.500    2.750    0.000    0.000    2.625 
#    0.000   14.000    0.000    0.000    0.000    0.000 
#
# Total GULP energy -396518.337463 kJ/mol
# GULP energy per Si atom -12391.198046 kJ/mol
# Density = 1.969266 g / cm^3
# Si number density = 19.737581 Si / 1000 Ang^3
#
#
#
# Elastic Constant Matrix: (Units=GPa)
#
#
# Indices 1 2 3 4 5 6 
#
# 1 84.3037 43.7393 20.2378 0.0000 0.0000 0.0000
# 2 43.7393 194.4682 66.2028 0.0000 0.0000 0.0000
# 3 20.2378 66.2028 78.2171 -0.0001 0.0000 0.0000
# 4 0.0000 0.0000 -0.0001 8.0293 0.0000 0.0000
# 5 0.0000 0.0000 0.0000 0.0000 19.6052 0.0000
# 6 0.0000 0.0000 0.0000 0.0000 0.0000 9.8460
#
#
#
# Elastic Compliance Matrix: (Units=1/GPa)
#
#
# Indices 1 2 3 4 5 6 
#
# 1 0.013522 -0.002599 -0.001299 0.000000 0.000000 0.000000
# 2 -0.002599 0.007723 -0.005864 0.000000 0.000000 0.000000
# 3 -0.001299 -0.005864 0.018085 0.000000 0.000000 0.000000
# 4 0.000000 0.000000 0.000000 0.124544 0.000000 0.000000
# 5 0.000000 0.000000 0.000000 0.000000 0.051007 0.000000
# 6 0.000000 0.000000 0.000000 0.000000 0.000000 0.101564
#
#
# Mechanical properties :
#
#
# Convention : Reuss Voigt Hill
#
# Bulk Modulus (GPa) = 50.49160 68.59432 59.54296
# Shear Modulus (GPa) = 14.59547 22.61670 18.60608
#
# Velocity S-wave (km/s) = 2.72228 3.38874 3.07363
# Velocity P-wave (km/s) = 5.95970 7.08096 6.54439
#
# Compressibility (1/GPa) = 0.01980527
#
# Stress axis : x y z
#
# Youngs Moduli (GPa) = 73.95235 129.47872 55.29565
#
# Poissons Ratio (x) = 0.33655 0.07181
# Poissons Ratio (y) = 0.19222 0.32428
# Poissons Ratio (z) = 0.09604 0.75932
#
# Static dielectric constant tensor:
#      x y z
#    x 3.458870 0.000000 0.000000 
#    y 0.000000 4.078160 0.000000 
#    z 0.000000 0.000000 3.177440 
# 
# 
# High freq. dielectric constant tensor:
#      x y z
#    x 1.751140 0.000000 0.000000 
#    y 0.000000 1.781740 0.000000 
#    z 0.000000 0.000000 1.725130 
# 
# From -- ./inp_files/50172.got.cif
#   From: 2010.06.25/outbox.cif.g09.slc.cpg/sg71_26_cif.got.tgz:50172.got - 2010.06.28 04:59:45.
