data_PCOD8290698
_publ_section_title
;
Structure prediction by ZEFSAII (Michael W. Deem and Ramdas Pophale) SiO2 
 PCOD8290698
Probable space group: I M M M
;
_chemical_formula_sum "Si O2"
_cell_formula_units_Z 96
_cell_length_a 8.958773
_cell_length_b 20.023472
_cell_length_c 28.678557
_cell_angle_alpha 90.000000
_cell_angle_beta 90.000000
_cell_angle_gamma 90.000000
_cell_volume 5144.524179
_symmetry_space_group_name_H-M "I M M M"
_symmetry_group_IT_number 71
_symmetry_cell_setting 'orthorhombic'
loop_
_space_group_symop_operation_xyz
x,y,z
-x,-y,z
x,-y,-z
-x,y,-z
-x,-y,-z
x,y,-z
-x,y,z
x,-y,z
1/2+x,1/2+y,1/2+z
1/2-x,1/2-y,1/2+z
1/2+x,1/2-y,1/2-z
1/2-x,1/2+y,1/2-z
1/2-x,1/2-y,1/2-z
1/2+x,1/2+y,1/2-z
1/2-x,1/2+y,1/2+z
1/2+x,1/2-y,1/2+z
loop_
_atom_site_type_symbol
_atom_site_label
_atom_site_fract_x
_atom_site_fract_y
_atom_site_fract_z
Si Si1 0.325564 0.809114 0.804615
Si Si2 0.335356 0.073225 0.054656
Si Si3 0.673802 0.313395 0.399771
Si Si4 0.675294 0.077245 0.631694
Si Si5 0.825003 0.843486 0.713764
Si Si6 0.823003 0.677532 0.052532
O O1 0.500000 0.821973 0.800284
O O2 0.264366 0.832823 0.853812
O O3 0.246397 0.853428 0.764761
O O4 0.284056 0.731158 0.801786
O O5 0.500000 0.096801 0.072614
O O6 0.204458 0.124882 0.066448
O O7 0.298169 0.000000 0.075995
O O8 0.340438 0.066755 0.000000
O O9 0.500000 0.306163 0.388086
O O10 0.735371 0.245973 0.424087
O O11 0.500000 0.088082 0.639253
O O12 0.756947 0.104423 0.677396
O O13 0.729962 0.116181 0.585198
O O14 0.716685 0.000000 0.624618
O O15 0.000000 0.856206 0.716927
O O16 0.000000 0.679568 0.049030
O O17 0.756437 0.669463 0.000000
#
# Coordination Sequence:
#
# PCOD8290698 Si02
#       6
#    16  16  16  16  16  16
#     4  10  20  34  56  82 109 139 177 220 270 331
#     4   9  19  36  55  75 105 146 186 223 269 329
#     4  11  20  32  54  83 115 146 180 229 281 326
#     4  10  20  35  56  80 111 152 193 233 279 331
#     4  10  20  35  56  81 108 139 177 223 274 326
#     4   9  18  32  51  79 113 146 186 235 279 320
#
# _framework density 18.660617999999999
#
# number of rings (size 3 to 8) (size 9 to 14) (size 15 to 20)
#    0.000    2.167    1.667    2.500    0.000    3.333 
#    0.000    3.333    0.000    6.500    0.000    1.167 
#    0.000    0.000    0.000    0.000    0.000    0.000 
#
# Total GULP energy -595143.102474 kJ/mol
# GULP energy per Si atom -12398.814635 kJ/mol
# Density = 1.861815 g / cm^3
# Si number density = 18.660618 Si / 1000 Ang^3
#
#
#
# Elastic Constant Matrix: (Units=GPa)
#
#
# Indices 1 2 3 4 5 6 
#
# 1 47.5293 39.5019 33.4666 0.0000 0.0000 0.0000
# 2 39.5019 117.2339 62.2059 0.0000 0.0000 0.0000
# 3 33.4666 62.2059 131.0973 0.0000 0.0000 0.0000
# 4 0.0000 0.0000 0.0000 28.3264 0.0000 0.0000
# 5 0.0000 0.0000 0.0000 0.0000 28.4713 0.0000
# 6 0.0000 0.0000 0.0000 0.0000 0.0000 26.7103
#
#
#
# Elastic Compliance Matrix: (Units=1/GPa)
#
#
# Indices 1 2 3 4 5 6 
#
# 1 0.030652 -0.008254 -0.003908 0.000000 0.000000 0.000000
# 2 -0.008254 0.013623 -0.004357 0.000000 0.000000 0.000000
# 3 -0.003908 -0.004357 0.010693 0.000000 0.000000 0.000000
# 4 0.000000 0.000000 0.000000 0.035303 0.000000 0.000000
# 5 0.000000 0.000000 0.000000 0.000000 0.035123 0.000000
# 6 0.000000 0.000000 0.000000 0.000000 0.000000 0.037439
#
#
# Mechanical properties :
#
#
# Convention : Reuss Voigt Hill
#
# Bulk Modulus (GPa) = 45.60194 62.91214 54.25704
# Shear Modulus (GPa) = 24.60860 27.41402 26.01131
#
# Velocity S-wave (km/s) = 3.63539 3.83702 3.73757
# Velocity P-wave (km/s) = 6.48938 7.30872 6.91120
#
# Compressibility (1/GPa) = 0.02192889
#
# Stress axis : x y z
#
# Youngs Moduli (GPa) = 32.62463 73.40434 93.51918
#
# Poissons Ratio (x) = 0.60591 0.36548
# Poissons Ratio (y) = 0.26930 0.40747
# Poissons Ratio (z) = 0.12750 0.31983
#
# Static dielectric constant tensor:
#      x y z
#    x 3.288490 0.000000 0.000000 
#    y 0.000000 3.427140 0.000000 
#    z 0.000000 0.000000 3.532160 
# 
# 
# High freq. dielectric constant tensor:
#      x y z
#    x 1.709620 0.000000 0.000000 
#    y 0.000000 1.712340 0.000000 
#    z 0.000000 0.000000 1.730780 
# 
# From -- ./inp_files/10868.got.cif
#   From: 2010.06.25/outbox.cif.g09.slc.cpg/sg71_6_cif.got.tgz:10868.got - 2010.06.28 04:59:45.
