data_PCOD8290790
_publ_section_title
;
Structure prediction by ZEFSAII (Michael W. Deem and Ramdas Pophale) SiO2 
 PCOD8290790
Probable space group: I M M M
;
_chemical_formula_sum "Si O2"
_cell_formula_units_Z 72
_cell_length_a 14.908344
_cell_length_b 8.853702
_cell_length_c 28.555051
_cell_angle_alpha 90.000000
_cell_angle_beta 90.000000
_cell_angle_gamma 90.000000
_cell_volume 3769.096404
_symmetry_space_group_name_H-M "I M M M"
_symmetry_group_IT_number 71
_symmetry_cell_setting 'orthorhombic'
loop_
_space_group_symop_operation_xyz
x,y,z
-x,-y,z
x,-y,-z
-x,y,-z
-x,-y,-z
x,y,-z
-x,y,z
x,-y,z
1/2+x,1/2+y,1/2+z
1/2-x,1/2-y,1/2+z
1/2+x,1/2-y,1/2-z
1/2-x,1/2+y,1/2-z
1/2-x,1/2-y,1/2-z
1/2+x,1/2+y,1/2-z
1/2-x,1/2+y,1/2+z
1/2+x,1/2-y,1/2+z
loop_
_atom_site_type_symbol
_atom_site_label
_atom_site_fract_x
_atom_site_fract_y
_atom_site_fract_z
Si Si1 0.394849 0.665421 0.550966
Si Si2 0.165533 0.325695 0.863111
Si Si3 0.636317 0.322689 0.125890
Si Si4 0.500000 0.820741 0.055164
Si Si5 0.000000 0.678767 0.803906
Si Si6 0.000000 0.171841 0.705857
O O1 0.351062 0.694621 0.500000
O O2 0.500000 0.665231 0.545609
O O3 0.363291 0.500000 0.569965
O O4 0.367077 0.801548 0.584191
O O5 0.173824 0.500000 0.850912
O O6 0.265361 0.254371 0.862088
O O7 0.091043 0.252899 0.827900
O O8 0.638738 0.500000 0.113280
O O9 0.588933 0.241544 0.081618
O O10 0.585698 0.293257 0.174286
O O11 0.500000 0.000000 0.059354
O O12 0.500000 0.771914 0.000000
O O13 0.000000 0.500000 0.811559
O O14 0.000000 0.716882 0.749579
O O15 0.000000 0.000000 0.724227
#
# Coordination Sequence:
#
# PCOD8290790 Si02
#       6
#    16  16  16   8   8   8
#     4   9  18  32  49  71 103 141 177 214 257 305
#     4  10  20  35  54  79 109 142 179 220 265 314
#     4   9  20  38  58  79 108 143 179 219 265 319
#     4  10  21  37  58  85 113 140 175 222 270 313
#     4  10  21  35  53  79 110 139 174 222 268 315
#     4   9  19  37  56  75 100 136 180 223 270 323
#
# _framework density 19.102723000000001
#
# number of rings (size 3 to 8) (size 9 to 14) (size 15 to 20)
#    0.000    2.556    1.111    1.667    0.000    6.667 
#    0.000    5.556    0.000    0.000    0.000    0.000 
#    0.000    0.000    0.000    0.000    0.000    0.000 
#
# Total GULP energy -446030.275516 kJ/mol
# GULP energy per Si atom -12389.729875 kJ/mol
# Density = 1.905924 g / cm^3
# Si number density = 19.102723 Si / 1000 Ang^3
#
#
#
# Elastic Constant Matrix: (Units=GPa)
#
#
# Indices 1 2 3 4 5 6 
#
# 1 145.1168 27.7095 71.6807 0.0000 0.0000 0.0000
# 2 27.7095 26.5831 26.7636 0.0000 0.0000 0.0000
# 3 71.6807 26.7636 127.7440 0.0000 0.0000 0.0000
# 4 0.0000 0.0000 0.0000 -49.8290 0.0000 0.0000
# 5 0.0000 0.0000 0.0000 0.0000 8.9752 0.0000
# 6 0.0000 0.0000 0.0000 0.0000 0.0000 14.2966
#
#
#
# Elastic Compliance Matrix: (Units=1/GPa)
#
#
# Indices 1 2 3 4 5 6 
#
# 1 0.010286 -0.006224 -0.004468 0.000000 0.000000 0.000000
# 2 -0.006224 0.051440 -0.007285 0.000000 0.000000 0.000000
# 3 -0.004468 -0.007285 0.011862 0.000000 0.000000 0.000000
# 4 0.000000 0.000000 0.000000 -0.020069 0.000000 0.000000
# 5 0.000000 0.000000 0.000000 0.000000 0.111418 0.000000
# 6 0.000000 0.000000 0.000000 0.000000 0.000000 0.069947
#
#
# Mechanical properties :
#
#
# Convention : Reuss Voigt Hill
#
# Bulk Modulus (GPa) = 26.57150 61.30573 43.93861
# Shear Modulus (GPa) = 17.64403 6.24123 11.94263
#
# Velocity S-wave (km/s) = 3.04244 1.80950 2.50307
# Velocity P-wave (km/s) = 5.12659 6.04384 5.60402
#
# Compressibility (1/GPa) = 0.03763431
#
# Stress axis : x y z
#
# Youngs Moduli (GPa) = 97.21557 19.44025 84.30630
#
# Poissons Ratio (x) = 0.12099 0.37668
# Poissons Ratio (y) = 0.60506 0.61415
# Poissons Ratio (z) = 0.43436 0.14162
#
# Static dielectric constant tensor:
#      x y z
#    x 3.947930 0.000000 0.000000 
#    y 0.000000 3.330520 0.000000 
#    z 0.000000 0.000000 3.477320 
# 
# 
# High freq. dielectric constant tensor:
#      x y z
#    x 1.748420 0.000000 0.000000 
#    y 0.000000 1.722030 0.000000 
#    z 0.000000 0.000000 1.739190 
# 
# From -- ./inp_files/31463.got.cif
#   From: 2010.06.25/outbox.cif.g09.slc.cpg/sg71_16_cif.got.tgz:31463.got - 2010.06.28 04:59:45.
