data_PCOD8290992
_publ_section_title
;
Structure prediction by ZEFSAII (Michael W. Deem and Ramdas Pophale) SiO2 
 PCOD8290992
Probable space group: I M M M
;
_chemical_formula_sum "Si O2"
_cell_formula_units_Z 104
_cell_length_a 18.408208
_cell_length_b 17.807026
_cell_length_c 16.973082
_cell_angle_alpha 90.000000
_cell_angle_beta 90.000000
_cell_angle_gamma 90.000000
_cell_volume 5563.698856
_symmetry_space_group_name_H-M "I M M M"
_symmetry_group_IT_number 71
_symmetry_cell_setting 'orthorhombic'
loop_
_space_group_symop_operation_xyz
x,y,z
-x,-y,z
x,-y,-z
-x,y,-z
-x,-y,-z
x,y,-z
-x,y,z
x,-y,z
1/2+x,1/2+y,1/2+z
1/2-x,1/2-y,1/2+z
1/2+x,1/2-y,1/2-z
1/2-x,1/2+y,1/2-z
1/2-x,1/2-y,1/2-z
1/2+x,1/2+y,1/2-z
1/2-x,1/2+y,1/2+z
1/2+x,1/2-y,1/2+z
loop_
_atom_site_type_symbol
_atom_site_label
_atom_site_fract_x
_atom_site_fract_y
_atom_site_fract_z
Si Si1 0.808219 0.301496 0.791366
Si Si2 0.378057 0.583274 0.000000
Si Si3 0.677156 0.677810 0.407356
Si Si4 0.844492 0.655219 0.369469
Si Si5 0.580317 0.000000 0.092028
Si Si6 0.307316 0.584314 0.833505
Si Si7 0.418076 0.411112 0.703040
Si Si8 0.580665 0.748926 0.000000
O O1 0.750000 0.250000 0.750000
O O2 0.844613 0.255772 0.863189
O O3 0.863490 0.325534 0.721764
O O4 0.768788 0.374158 0.825903
O O5 0.327978 0.588454 0.075793
O O6 0.427767 0.657880 0.000000
O O7 0.418570 0.500000 0.000000
O O8 0.667809 0.689385 0.500000
O O9 0.758446 0.651627 0.385943
O O10 0.620398 0.615362 0.377511
O O11 0.876095 0.573733 0.384669
O O12 0.878166 0.721010 0.422965
O O13 0.500000 0.000000 0.131418
O O14 0.570710 0.000000 0.000000
O O15 0.293268 0.500000 0.805070
O O16 0.371322 0.618779 0.778150
O O17 0.500000 0.378420 0.709620
O O18 0.421766 0.500000 0.702509
O O19 0.500000 0.783235 0.000000
#
# Coordination Sequence:
#
# PCOD8290992 Si02
#       8
#    16   8  16  16   8  16  16   8
#     4  10  20  35  58  86 114 149 193 243 284 337
#     4  10  22  37  57  87 120 161 199 240 283 346
#     4  11  22  38  61  86 113 151 197 246 293 343
#     4  11  22  37  60  85 121 159 195 237 287 354
#     4  11  22  38  58  88 128 158 192 237 288 352
#     4  10  20  36  58  83 118 153 195 239 288 342
#     4  10  22  39  58  83 118 154 191 239 294 351
#     4  12  24  38  58  86 124 161 193 234 294 353
#
# _framework density 18.692599999999999
#
# number of rings (size 3 to 8) (size 9 to 14) (size 15 to 20)
#    0.000    1.462    4.615    2.308    3.231    1.385 
#    0.000    3.077    0.000    0.000    0.000    0.000 
#    0.000    0.615    0.000    0.000    0.000    0.000 
#
# Total GULP energy -644526.168372 kJ/mol
# GULP energy per Si atom -12394.734007 kJ/mol
# Density = 1.865005 g / cm^3
# Si number density = 18.692600 Si / 1000 Ang^3
#
#
#
# Elastic Constant Matrix: (Units=GPa)
#
#
# Indices 1 2 3 4 5 6 
#
# 1 80.4041 31.0381 35.1967 0.0000 0.0000 0.0000
# 2 31.0381 91.8623 34.1542 0.0000 0.0000 0.0000
# 3 35.1967 34.1542 145.5111 0.0000 0.0000 0.0000
# 4 0.0000 0.0000 0.0000 35.9181 0.0000 0.0000
# 5 0.0000 0.0000 0.0000 0.0000 15.5444 0.0000
# 6 0.0000 0.0000 0.0000 0.0000 0.0000 18.5932
#
#
#
# Elastic Compliance Matrix: (Units=1/GPa)
#
#
# Indices 1 2 3 4 5 6 
#
# 1 0.015220 -0.004135 -0.002711 0.000000 0.000000 0.000000
# 2 -0.004135 0.013050 -0.002063 0.000000 0.000000 0.000000
# 3 -0.002711 -0.002063 0.008012 0.000000 0.000000 0.000000
# 4 0.000000 0.000000 0.000000 0.027841 0.000000 0.000000
# 5 0.000000 0.000000 0.000000 0.000000 0.064332 0.000000
# 6 0.000000 0.000000 0.000000 0.000000 0.000000 0.053783
#
#
# Mechanical properties :
#
#
# Convention : Reuss Voigt Hill
#
# Bulk Modulus (GPa) = 54.15628 57.61728 55.88678
# Shear Modulus (GPa) = 24.24714 28.50372 26.37543
#
# Velocity S-wave (km/s) = 3.60551 3.90919 3.76042
# Velocity P-wave (km/s) = 6.80939 7.16004 6.98692
#
# Compressibility (1/GPa) = 0.01846508
#
# Stress axis : x y z
#
# Youngs Moduli (GPa) = 65.70326 76.62936 124.80830
#
# Poissons Ratio (x) = 0.31683 0.33836
# Poissons Ratio (y) = 0.27165 0.25747
# Poissons Ratio (z) = 0.17812 0.15808
#
# Static dielectric constant tensor:
#      x y z
#    x 4.637050 0.000000 0.000000 
#    y 0.000000 3.464150 0.000000 
#    z 0.000000 0.000000 -3.419560 
# 
# 
# High freq. dielectric constant tensor:
#      x y z
#    x 1.695260 0.000000 0.000000 
#    y 0.000000 1.735040 0.000000 
#    z 0.000000 0.000000 1.732280 
# 
# From -- ./inp_files/46183.got.cif
#   From: 2010.06.25/outbox.cif.g09.slc.cpg/sg71_24_cif.got.tgz:46183.got - 2010.06.28 04:59:45.
