data_PCOD8290953
_publ_section_title
;
Structure prediction by ZEFSAII (Michael W. Deem and Ramdas Pophale) SiO2 
 PCOD8290953
Probable space group: I M M M
;
_chemical_formula_sum "Si O2"
_cell_formula_units_Z 74
_cell_length_a 9.065384
_cell_length_b 26.356778
_cell_length_c 16.917211
_cell_angle_alpha 90.000000
_cell_angle_beta 90.000000
_cell_angle_gamma 90.000000
_cell_volume 4042.102198
_symmetry_space_group_name_H-M "I M M M"
_symmetry_group_IT_number 71
_symmetry_cell_setting 'orthorhombic'
loop_
_space_group_symop_operation_xyz
x,y,z
-x,-y,z
x,-y,-z
-x,y,-z
-x,-y,-z
x,y,-z
-x,y,z
x,-y,z
1/2+x,1/2+y,1/2+z
1/2-x,1/2-y,1/2+z
1/2+x,1/2-y,1/2-z
1/2-x,1/2+y,1/2-z
1/2-x,1/2-y,1/2-z
1/2+x,1/2+y,1/2-z
1/2-x,1/2+y,1/2+z
1/2+x,1/2-y,1/2+z
loop_
_atom_site_type_symbol
_atom_site_label
_atom_site_fract_x
_atom_site_fract_y
_atom_site_fract_z
Si Si1 0.340037 0.101113 0.500000
Si Si2 0.174247 0.157954 0.367516
Si Si3 0.000000 0.500000 0.000000
Si Si4 0.331506 0.739430 0.408840
Si Si5 0.672503 0.941912 0.089241
Si Si6 0.326646 0.357476 0.312576
O O1 0.500000 0.130306 0.500000
O O2 0.250369 0.115859 0.421780
O O3 0.366307 0.040907 0.500000
O O4 0.227110 0.213437 0.391894
O O5 0.221715 0.146450 0.278152
O O6 0.000000 0.155080 0.379511
O O7 0.320679 0.723655 0.500000
O O8 0.500000 0.752559 0.385078
O O9 0.269919 0.692487 0.357885
O O10 0.500000 0.931931 0.097653
O O11 0.755803 0.907629 0.151830
O O12 0.710621 0.000000 0.109439
O O13 0.724105 0.929085 0.000000
O O14 0.500000 0.362597 0.322729
#
# Coordination Sequence:
#
# PCOD8290953 Si02
#       6
#     8  16   2  16  16  16
#     4  10  21  43  65  85 109 148 199 242 294 354
#     4  11  22  37  59  87 119 151 189 240 297 354
#     4   8  24  44  70  88 104 148 208 256 286 372
#     4  10  20  35  57  84 116 158 196 231 281 348
#     4   9  19  37  58  81 111 150 195 240 287 339
#     4  10  22  37  54  85 122 153 190 239 290 349
#
# _framework density 18.307304999999999
#
# number of rings (size 3 to 8) (size 9 to 14) (size 15 to 20)
#    0.324    1.730    1.081    2.919    0.000    4.324 
#    1.946    2.162    0.000    0.000    0.000    0.000 
#    0.000    0.000    0.000    0.000    0.000    0.000 
#
# Total GULP energy -458359.692944 kJ/mol
# GULP energy per Si atom -12388.099809 kJ/mol
# Density = 1.826564 g / cm^3
# Si number density = 18.307305 Si / 1000 Ang^3
#
#
#
# Elastic Constant Matrix: (Units=GPa)
#
#
# Indices 1 2 3 4 5 6 
#
# 1 60.2514 42.7960 52.2542 -0.0002 0.0000 0.0001
# 2 42.7960 127.8172 72.8330 -0.0002 0.0000 0.0000
# 3 52.2542 72.8330 143.1713 -0.0028 -0.0001 0.0007
# 4 -0.0002 -0.0002 -0.0028 6.8333 0.0000 0.0004
# 5 0.0000 0.0000 -0.0001 0.0000 20.5603 -0.0001
# 6 0.0001 0.0000 0.0007 0.0004 -0.0001 18.9956
#
#
#
# Elastic Compliance Matrix: (Units=1/GPa)
#
#
# Indices 1 2 3 4 5 6 
#
# 1 0.026121 -0.004666 -0.007160 -0.000002 0.000000 0.000000
# 2 -0.004666 0.011851 -0.004326 -0.000001 0.000000 0.000000
# 3 -0.007160 -0.004326 0.011798 0.000004 0.000000 0.000000
# 4 -0.000002 -0.000001 0.000004 0.146343 0.000000 -0.000003
# 5 0.000000 0.000000 0.000000 0.000000 0.048638 0.000000
# 6 0.000000 0.000000 0.000000 -0.000003 0.000000 0.052644
#
#
# Mechanical properties :
#
#
# Convention : Reuss Voigt Hill
#
# Bulk Modulus (GPa) = 57.25097 74.11184 65.68141
# Shear Modulus (GPa) = 14.90227 20.16827 17.53527
#
# Velocity S-wave (km/s) = 2.85618 3.32271 3.09824
# Velocity P-wave (km/s) = 6.49747 7.43576 6.98239
#
# Compressibility (1/GPa) = 0.01746695
#
# Stress axis : x y z
#
# Youngs Moduli (GPa) = 38.28361 84.38238 84.75766
#
# Poissons Ratio (x) = 0.39373 0.60685
# Poissons Ratio (y) = 0.17863 0.36663
# Poissons Ratio (z) = 0.27410 0.36501
#
# Static dielectric constant tensor:
#      x y z
#    x 3.356630 0.000000 0.000000 
#    y 0.000000 3.316240 0.000000 
#    z 0.000000 0.000000 3.567340 
# 
# 
# High freq. dielectric constant tensor:
#      x y z
#    x 1.711040 0.000000 0.000000 
#    y 0.000000 1.712980 0.000000 
#    z 0.000000 0.000000 1.712500 
# 
# From -- ./inp_files/31692.got.cif
#   From: 2010.06.25/outbox.cif.g09.slc.cpg/sg71_16_cif.got.tgz:31692.got - 2010.06.28 04:59:45.
