data_PCOD8290245
_publ_section_title
;
Structure prediction by ZEFSAII (Michael W. Deem and Ramdas Pophale) SiO2 
 PCOD8290245
Probable space group: I M M M
;
_chemical_formula_sum "Si O2"
_cell_formula_units_Z 56
_cell_length_a 16.144647
_cell_length_b 13.542775
_cell_length_c 13.551853
_cell_angle_alpha 90.000000
_cell_angle_beta 90.000000
_cell_angle_gamma 90.000000
_cell_volume 2963.022156
_symmetry_space_group_name_H-M "I M M M"
_symmetry_group_IT_number 71
_symmetry_cell_setting 'orthorhombic'
loop_
_space_group_symop_operation_xyz
x,y,z
-x,-y,z
x,-y,-z
-x,y,-z
-x,-y,-z
x,y,-z
-x,y,z
x,-y,z
1/2+x,1/2+y,1/2+z
1/2-x,1/2-y,1/2+z
1/2+x,1/2-y,1/2-z
1/2-x,1/2+y,1/2-z
1/2-x,1/2-y,1/2-z
1/2+x,1/2+y,1/2-z
1/2-x,1/2+y,1/2+z
1/2+x,1/2-y,1/2+z
loop_
_atom_site_type_symbol
_atom_site_label
_atom_site_fract_x
_atom_site_fract_y
_atom_site_fract_z
Si Si1 0.000000 0.616288 0.389571
Si Si2 0.169463 0.382888 0.714381
Si Si3 0.246482 0.279533 0.884866
Si Si4 0.909731 0.110044 0.616507
O O1 0.918503 0.649267 0.331036
O O2 0.000000 0.500000 0.401923
O O3 0.000000 0.664624 0.500000
O O4 0.181610 0.500000 0.717354
O O5 0.174651 0.336975 0.825070
O O6 0.243136 0.335387 0.646634
O O7 0.333407 0.325433 0.846180
O O8 0.227221 0.291118 0.000000
O O9 0.903782 0.102446 0.500000
O O10 0.000000 0.156138 0.646767
O O11 0.902097 0.000000 0.661641
#
# Coordination Sequence:
#
# PCOD8290245 Si02
#       4
#     8  16  16  16
#     4   9  18  34  55  77 104 137 173 219 271 321
#     4  10  21  35  52  79 111 142 181 225 270 324
#     4  10  20  33  52  77 107 143 181 225 273 319
#     4   8  14  25  43  69  99 131 168 210 258 307
#
# _framework density 18.899621
#
# number of rings (size 3 to 8) (size 9 to 14) (size 15 to 20)
#    0.000    2.714    0.000    2.571    2.000    3.429 
#    0.000    0.714    0.000    2.571    0.000    0.000 
#    0.000    5.143    0.000    0.000    0.000    0.000 
#
# Total GULP energy -346953.650184 kJ/mol
# GULP energy per Si atom -12391.201792 kJ/mol
# Density = 1.885660 g / cm^3
# Si number density = 18.899621 Si / 1000 Ang^3
#
#
#
# Elastic Constant Matrix: (Units=GPa)
#
#
# Indices 1 2 3 4 5 6 
#
# 1 79.4285 37.9713 62.2902 0.0000 0.0000 0.0000
# 2 37.9713 77.3703 43.7657 0.0000 0.0000 0.0000
# 3 62.2902 43.7657 140.8389 0.0000 0.0000 0.0000
# 4 0.0000 0.0000 0.0000 21.1596 0.0000 0.0000
# 5 0.0000 0.0000 0.0000 0.0000 31.4383 0.0000
# 6 0.0000 0.0000 0.0000 0.0000 0.0000 25.7431
#
#
#
# Elastic Compliance Matrix: (Units=1/GPa)
#
#
# Indices 1 2 3 4 5 6 
#
# 1 0.021531 -0.006285 -0.007570 0.000000 0.000000 0.000000
# 2 -0.006285 0.017516 -0.002663 0.000000 0.000000 0.000000
# 3 -0.007570 -0.002663 0.011276 0.000000 0.000000 0.000000
# 4 0.000000 0.000000 0.000000 0.047260 0.000000 0.000000
# 5 0.000000 0.000000 0.000000 0.000000 0.031808 0.000000
# 6 0.000000 0.000000 0.000000 0.000000 0.000000 0.038845
#
#
# Mechanical properties :
#
#
# Convention : Reuss Voigt Hill
#
# Bulk Modulus (GPa) = 57.84770 65.07690 61.46230
# Shear Modulus (GPa) = 24.15064 25.90892 25.02978
#
# Velocity S-wave (km/s) = 3.57856 3.70654 3.64311
# Velocity P-wave (km/s) = 6.91007 7.26812 7.09136
#
# Compressibility (1/GPa) = 0.01728677
#
# Stress axis : x y z
#
# Youngs Moduli (GPa) = 46.44523 57.09106 88.68520
#
# Poissons Ratio (x) = 0.35881 0.67131
# Poissons Ratio (y) = 0.29190 0.23620
# Poissons Ratio (z) = 0.35157 0.15206
#
# Static dielectric constant tensor:
#      x y z
#    x 3.650640 0.000000 0.000000 
#    y 0.000000 3.767790 0.000000 
#    z 0.000000 0.000000 3.240990 
# 
# 
# High freq. dielectric constant tensor:
#      x y z
#    x 1.714790 0.000000 0.000000 
#    y 0.000000 1.756660 0.000000 
#    z 0.000000 0.000000 1.703280 
# 
# From -- ./inp_files/33698.got.cif
#   From: 2010.06.25/outbox.cif.g09.slc.cpg/sg71_17_cif.got.tgz:33698.got - 2010.06.28 04:59:45.
