data_PCOD8290402
_publ_section_title
;
Structure prediction by ZEFSAII (Michael W. Deem and Ramdas Pophale) SiO2 
 PCOD8290402
Probable space group: I M M M
;
_chemical_formula_sum "Si O2"
_cell_formula_units_Z 96
_cell_length_a 28.737950
_cell_length_b 18.525670
_cell_length_c 8.924260
_cell_angle_alpha 90.000000
_cell_angle_beta 90.000000
_cell_angle_gamma 90.000000
_cell_volume 4751.184802
_symmetry_space_group_name_H-M "I M M M"
_symmetry_group_IT_number 71
_symmetry_cell_setting 'orthorhombic'
loop_
_space_group_symop_operation_xyz
x,y,z
-x,-y,z
x,-y,-z
-x,y,-z
-x,-y,-z
x,y,-z
-x,y,z
x,-y,z
1/2+x,1/2+y,1/2+z
1/2-x,1/2-y,1/2+z
1/2+x,1/2-y,1/2-z
1/2-x,1/2+y,1/2-z
1/2-x,1/2-y,1/2-z
1/2+x,1/2+y,1/2-z
1/2-x,1/2+y,1/2+z
1/2+x,1/2-y,1/2+z
loop_
_atom_site_type_symbol
_atom_site_label
_atom_site_fract_x
_atom_site_fract_y
_atom_site_fract_z
Si Si1 0.696970 0.821248 0.827017
Si Si2 0.355838 0.678220 0.826139
Si Si3 0.947756 0.369588 0.331701
Si Si4 0.052305 0.216650 0.824195
Si Si5 0.868534 0.579476 0.834430
Si Si6 0.727130 0.581635 0.826261
O O1 0.678117 0.743568 0.769112
O O2 0.655230 0.875604 0.796125
O O3 0.741426 0.854575 0.742858
O O4 0.710133 0.817343 0.000000
O O5 0.404356 0.668276 0.734723
O O6 0.326705 0.604433 0.802845
O O7 0.368261 0.691198 0.000000
O O8 0.927120 0.370082 0.500000
O O9 0.942778 0.289845 0.266613
O O10 0.921750 0.424265 0.219802
O O11 0.000000 0.397047 0.333917
O O12 0.000000 0.183395 0.794517
O O13 0.058810 0.230771 0.000000
O O14 0.846646 0.500000 0.840574
O O15 0.863995 0.614873 0.000000
O O16 0.734237 0.500000 0.759257
O O17 0.740418 0.580058 0.000000
#
# Coordination Sequence:
#
# PCOD8290402 Si02
#       6
#    16  16  16  16  16  16
#     4  11  22  36  56  83 112 146 190 236 280 330
#     4  10  21  37  59  87 115 148 190 234 282 333
#     4  10  20  34  52  74 103 140 183 232 284 335
#     4  10  20  34  56  86 116 147 185 230 281 336
#     4  11  23  36  51  73 105 147 191 234 280 330
#     4  10  22  40  60  83 115 152 189 232 283 340
#
# _framework density 20.205487999999999
#
# number of rings (size 3 to 8) (size 9 to 14) (size 15 to 20)
#    0.000    1.667    1.667    3.000    0.000    7.333 
#    0.000    1.667    0.000    0.500    0.000    3.500 
#    0.000    0.000    0.000    0.000    0.000    0.000 
#
# Total GULP energy -594705.507140 kJ/mol
# GULP energy per Si atom -12389.698065 kJ/mol
# Density = 2.015950 g / cm^3
# Si number density = 20.205488 Si / 1000 Ang^3
#
#
#
# Elastic Constant Matrix: (Units=GPa)
#
#
# Indices 1 2 3 4 5 6 
#
# 1 115.8929 38.1629 40.6570 0.0000 0.0000 0.0000
# 2 38.1629 44.6579 19.9943 0.0000 0.0000 0.0000
# 3 40.6570 19.9943 66.6099 0.0000 0.0000 0.0000
# 4 0.0000 0.0000 0.0000 20.0896 0.0000 0.0000
# 5 0.0000 0.0000 0.0000 0.0000 36.5702 0.0000
# 6 0.0000 0.0000 0.0000 0.0000 0.0000 -60.4307
#
#
#
# Elastic Compliance Matrix: (Units=1/GPa)
#
#
# Indices 1 2 3 4 5 6 
#
# 1 0.013579 -0.009119 -0.005551 0.000000 0.000000 0.000000
# 2 -0.009119 0.031992 -0.004037 0.000000 0.000000 0.000000
# 3 -0.005551 -0.004037 0.019613 0.000000 0.000000 0.000000
# 4 0.000000 0.000000 0.000000 0.049777 0.000000 0.000000
# 5 0.000000 0.000000 0.000000 0.000000 0.027345 0.000000
# 6 0.000000 0.000000 0.000000 0.000000 0.000000 -0.016548
#
#
# Mechanical properties :
#
#
# Convention : Reuss Voigt Hill
#
# Bulk Modulus (GPa) = 36.00995 47.19881 41.60438
# Shear Modulus (GPa) = 28.99752 7.80225 18.39988
#
# Velocity S-wave (km/s) = 3.79242 1.96719 3.02095
# Velocity P-wave (km/s) = 6.08582 5.34508 5.72744
#
# Compressibility (1/GPa) = 0.02777011
#
# Stress axis : x y z
#
# Youngs Moduli (GPa) = 73.64462 31.25734 50.98692
#
# Poissons Ratio (x) = 0.28502 0.28303
# Poissons Ratio (y) = 0.67153 0.20586
# Poissons Ratio (z) = 0.40880 0.12620
#
# Static dielectric constant tensor:
#      x y z
#    x 4.023650 0.000000 0.000000 
#    y 0.000000 3.450340 0.000000 
#    z 0.000000 0.000000 3.668600 
# 
# 
# High freq. dielectric constant tensor:
#      x y z
#    x 1.802720 0.000000 0.000000 
#    y 0.000000 1.752320 0.000000 
#    z 0.000000 0.000000 1.789470 
# 
# From -- ./inp_files/14825.got.cif
#   From: 2010.06.25/outbox.cif.g09.slc.cpg/sg71_8_cif.got.tgz:14825.got - 2010.06.28 04:59:45.
