data_PCOD8290138
_publ_section_title
;
Structure prediction by ZEFSAII (Michael W. Deem and Ramdas Pophale) SiO2 
 PCOD8290138
Probable space group: I M M M
;
_chemical_formula_sum "Si O2"
_cell_formula_units_Z 120
_cell_length_a 8.359103
_cell_length_b 28.742384
_cell_length_c 27.316311
_cell_angle_alpha 90.000000
_cell_angle_beta 90.000000
_cell_angle_gamma 90.000000
_cell_volume 6563.031859
_symmetry_space_group_name_H-M "I M M M"
_symmetry_group_IT_number 71
_symmetry_cell_setting 'orthorhombic'
loop_
_space_group_symop_operation_xyz
x,y,z
-x,-y,z
x,-y,-z
-x,y,-z
-x,-y,-z
x,y,-z
-x,y,z
x,-y,z
1/2+x,1/2+y,1/2+z
1/2-x,1/2-y,1/2+z
1/2+x,1/2-y,1/2-z
1/2-x,1/2+y,1/2-z
1/2-x,1/2-y,1/2-z
1/2+x,1/2+y,1/2-z
1/2-x,1/2+y,1/2+z
1/2+x,1/2-y,1/2+z
loop_
_atom_site_type_symbol
_atom_site_label
_atom_site_fract_x
_atom_site_fract_y
_atom_site_fract_z
Si Si1 0.679209 0.301226 0.587037
Si Si2 0.316157 0.866117 0.623719
Si Si3 0.190215 0.552353 0.944944
Si Si4 0.815656 0.291012 0.312634
Si Si5 0.000000 0.446412 0.557635
Si Si6 0.681398 0.708103 0.944041
Si Si7 0.676926 0.402723 0.444390
Si Si8 0.185336 0.186461 0.712256
O O1 0.500000 0.282107 0.581122
O O2 0.713632 0.313219 0.643728
O O3 0.799114 0.262608 0.566523
O O4 0.703821 0.347592 0.555950
O O5 0.500000 0.874930 0.636341
O O6 0.241691 0.911203 0.595423
O O7 0.301445 0.821807 0.588486
O O8 0.227450 0.855258 0.674863
O O9 0.245299 0.500000 0.930714
O O10 0.000000 0.555617 0.945326
O O11 0.252978 0.564504 0.000000
O O12 0.766520 0.236575 0.309822
O O13 0.779603 0.319453 0.263094
O O14 0.000000 0.296337 0.325599
O O15 0.165984 0.425990 0.581055
O O16 0.000000 0.500000 0.570295
O O17 0.000000 0.435387 0.500000
O O18 0.500000 0.694328 0.930403
O O19 0.720484 0.697102 0.000000
O O20 0.670307 0.420307 0.500000
O O21 0.500000 0.414840 0.420402
O O22 0.000000 0.184826 0.724889
#
# Coordination Sequence:
#
# PCOD8290138 Si02
#       8
#    16  16  16  16   8  16  16  16
#     4  11  21  33  50  72 101 137 173 207 249 304
#     4  11  20  31  51  75 100 131 171 216 263 312
#     4   8  15  29  49  74 103 134 171 217 266 313
#     4  10  20  33  51  72  98 132 170 208 251 297
#     4   9  18  32  52  76 100 132 172 214 259 301
#     4  11  23  34  45  66  99 140 178 211 248 295
#     4   9  19  33  49  73 105 139 174 214 256 305
#     4  10  20  34  50  69  99 132 165 209 255 298
#
# _framework density 18.284230999999998
#
# number of rings (size 3 to 8) (size 9 to 14) (size 15 to 20)
#    0.000    2.067    1.333    3.200    1.867    3.467 
#    0.000    1.333    0.000    1.600    0.000    5.600 
#    0.000    2.133    0.000    0.000    0.000    0.000 
#
# Total GULP energy -743763.179123 kJ/mol
# GULP energy per Si atom -12396.052985 kJ/mol
# Density = 1.824262 g / cm^3
# Si number density = 18.284231 Si / 1000 Ang^3
#
#
#
# Elastic Constant Matrix: (Units=GPa)
#
#
# Indices 1 2 3 4 5 6 
#
# 1 66.5285 24.9594 13.3337 0.0000 0.0000 0.0000
# 2 24.9594 77.0932 19.5097 0.0000 0.0000 0.0000
# 3 13.3337 19.5097 53.0231 0.0000 0.0000 0.0000
# 4 0.0000 0.0000 0.0000 22.9811 0.0000 0.0000
# 5 0.0000 0.0000 0.0000 0.0000 22.0080 0.0000
# 6 0.0000 0.0000 0.0000 0.0000 0.0000 19.2764
#
#
#
# Elastic Compliance Matrix: (Units=1/GPa)
#
#
# Indices 1 2 3 4 5 6 
#
# 1 0.017414 -0.004995 -0.002541 0.000000 0.000000 0.000000
# 2 -0.004995 0.015736 -0.004534 0.000000 0.000000 0.000000
# 3 -0.002541 -0.004534 0.021167 0.000000 0.000000 0.000000
# 4 0.000000 0.000000 0.000000 0.043514 0.000000 0.000000
# 5 0.000000 0.000000 0.000000 0.000000 0.045438 0.000000
# 6 0.000000 0.000000 0.000000 0.000000 0.000000 0.051877
#
#
# Mechanical properties :
#
#
# Convention : Reuss Voigt Hill
#
# Bulk Modulus (GPa) = 33.13782 34.69448 33.91615
# Shear Modulus (GPa) = 21.80118 22.10924 21.95521
#
# Velocity S-wave (km/s) = 3.45679 3.48112 3.46898
# Velocity P-wave (km/s) = 5.83914 5.93076 5.88513
#
# Compressibility (1/GPa) = 0.03017700
#
# Stress axis : x y z
#
# Youngs Moduli (GPa) = 57.42371 63.54928 47.24334
#
# Poissons Ratio (x) = 0.31742 0.12006
# Poissons Ratio (y) = 0.28683 0.21420
# Poissons Ratio (z) = 0.14593 0.28813
#
# Static dielectric constant tensor:
#      x y z
#    x 3.438170 0.000000 0.000000 
#    y 0.000000 3.222680 0.000000 
#    z 0.000000 0.000000 3.297500 
# 
# 
# High freq. dielectric constant tensor:
#      x y z
#    x 1.714680 0.000000 0.000000 
#    y 0.000000 1.677260 0.000000 
#    z 0.000000 0.000000 1.687120 
# 
# From -- ./inp_files/63782.got.cif
#   From: 2010.06.25/outbox.cif.g09.slc.cpg/sg71_32_cif.got.tgz:63782.got - 2010.06.28 04:59:45.
