data_PCOD8290385
_publ_section_title
;
Structure prediction by ZEFSAII (Michael W. Deem and Ramdas Pophale) SiO2 
 PCOD8290385
Probable space group: I M M M
;
_chemical_formula_sum "Si O2"
_cell_formula_units_Z 104
_cell_length_a 8.823944
_cell_length_b 32.375331
_cell_length_c 20.026641
_cell_angle_alpha 90.000000
_cell_angle_beta 90.000000
_cell_angle_gamma 90.000000
_cell_volume 5721.172905
_symmetry_space_group_name_H-M "I M M M"
_symmetry_group_IT_number 71
_symmetry_cell_setting 'orthorhombic'
loop_
_space_group_symop_operation_xyz
x,y,z
-x,-y,z
x,-y,-z
-x,y,-z
-x,-y,-z
x,y,-z
-x,y,z
x,-y,z
1/2+x,1/2+y,1/2+z
1/2-x,1/2-y,1/2+z
1/2+x,1/2-y,1/2-z
1/2-x,1/2+y,1/2-z
1/2-x,1/2-y,1/2-z
1/2+x,1/2+y,1/2-z
1/2-x,1/2+y,1/2+z
1/2+x,1/2-y,1/2+z
loop_
_atom_site_type_symbol
_atom_site_label
_atom_site_fract_x
_atom_site_fract_y
_atom_site_fract_z
Si Si1 0.173433 0.820691 0.076153
Si Si2 0.821949 0.837760 0.324870
Si Si3 0.321053 0.132935 0.807100
Si Si4 0.666445 0.452313 0.000000
Si Si5 0.674746 0.955180 0.232399
Si Si6 0.674409 0.081328 0.626887
Si Si7 0.176882 0.275080 0.924329
O O1 0.282087 0.848439 0.121373
O O2 0.214333 0.772940 0.085586
O O3 0.000000 0.828765 0.096805
O O4 0.201426 0.834220 0.000000
O O5 0.748023 0.838398 0.251193
O O6 0.774387 0.877971 0.365430
O O7 0.770913 0.798419 0.367832
O O8 0.000000 0.835803 0.315069
O O9 0.500000 0.131822 0.795232
O O10 0.255422 0.085580 0.803735
O O11 0.767385 0.441760 0.937127
O O12 0.635005 0.500000 0.000000
O O13 0.500000 0.430191 0.000000
O O14 0.500000 0.957783 0.212708
O O15 0.695513 0.949575 0.311451
O O16 0.750118 0.000000 0.212644
O O17 0.500000 0.094787 0.618706
O O18 0.000000 0.283893 0.913696
O O19 0.223422 0.288509 0.000000
#
# Coordination Sequence:
#
# PCOD8290385 Si02
#       7
#    16  16  16   8  16  16  16
#     4   9  19  37  59  81 106 138 173 214 266 320
#     4  11  22  35  52  76 108 141 176 221 271 318
#     4  10  20  34  55  82 109 138 175 217 263 317
#     4  11  23  35  47  69 101 135 177 229 279 323
#     4   8  15  30  52  76 100 128 168 215 258 304
#     4  10  20  34  52  72  97 135 180 224 269 320
#     4   9  19  36  56  76 102 139 183 224 264 315
#
# _framework density 18.178090999999998
#
# number of rings (size 3 to 8) (size 9 to 14) (size 15 to 20)
#    0.000    2.385    0.000    4.846    1.077    3.077 
#    0.000    1.538    0.000    9.692    0.000    3.231 
#    0.000    0.000    0.000    0.000    0.000    0.000 
#
# Total GULP energy -644573.470118 kJ/mol
# GULP energy per Si atom -12395.643656 kJ/mol
# Density = 1.813672 g / cm^3
# Si number density = 18.178091 Si / 1000 Ang^3
#
#
#
# Elastic Constant Matrix: (Units=GPa)
#
#
# Indices 1 2 3 4 5 6 
#
# 1 79.9612 38.8898 40.5048 0.0000 0.0000 0.0000
# 2 38.8898 92.1754 58.0081 0.0001 0.0000 0.0000
# 3 40.5048 58.0081 94.9505 0.0002 0.0000 0.0000
# 4 0.0000 0.0001 0.0002 28.4383 0.0000 0.0000
# 5 0.0000 0.0000 0.0000 0.0000 31.5201 0.0000
# 6 0.0000 0.0000 0.0000 0.0000 0.0000 22.5687
#
#
#
# Elastic Compliance Matrix: (Units=1/GPa)
#
#
# Indices 1 2 3 4 5 6 
#
# 1 0.016904 -0.004214 -0.004637 0.000000 0.000000 0.000000
# 2 -0.004214 0.018676 -0.009612 0.000000 0.000000 0.000000
# 3 -0.004637 -0.009612 0.018382 0.000000 0.000000 0.000000
# 4 0.000000 0.000000 0.000000 0.035164 0.000000 0.000000
# 5 0.000000 0.000000 0.000000 0.000000 0.031726 0.000000
# 6 0.000000 0.000000 0.000000 0.000000 0.000000 0.044309
#
#
# Mechanical properties :
#
#
# Convention : Reuss Voigt Hill
#
# Bulk Modulus (GPa) = 58.69681 60.21027 59.45354
# Shear Modulus (GPa) = 24.06560 25.15106 24.60833
#
# Velocity S-wave (km/s) = 3.64246 3.72370 3.68331
# Velocity P-wave (km/s) = 7.07460 7.18904 7.13205
#
# Compressibility (1/GPa) = 0.01703670
#
# Stress axis : x y z
#
# Youngs Moduli (GPa) = 59.15617 53.54493 54.40119
#
# Poissons Ratio (x) = 0.22565 0.25224
# Poissons Ratio (y) = 0.24930 0.52290
# Poissons Ratio (z) = 0.27429 0.51467
#
# Static dielectric constant tensor:
#      x y z
#    x 3.237370 0.000000 0.000000 
#    y 0.000000 3.485420 0.000000 
#    z 0.000000 0.000000 3.230860 
# 
# 
# High freq. dielectric constant tensor:
#      x y z
#    x 1.694360 0.000000 0.000000 
#    y 0.000000 1.705320 0.000000 
#    z 0.000000 0.000000 1.692970 
# 
# From -- ./inp_files/51128.got.cif
#   From: 2010.06.25/outbox.cif.g09.slc.cpg/sg71_26_cif.got.tgz:51128.got - 2010.06.28 04:59:45.
