data_PCOD8290993
_publ_section_title
;
Structure prediction by ZEFSAII (Michael W. Deem and Ramdas Pophale) SiO2 
 PCOD8290993
Probable space group: I M M M
;
_chemical_formula_sum "Si O2"
_cell_formula_units_Z 64
_cell_length_a 18.190408
_cell_length_b 7.971546
_cell_length_c 22.346608
_cell_angle_alpha 90.000000
_cell_angle_beta 90.000000
_cell_angle_gamma 90.000000
_cell_volume 3240.384958
_symmetry_space_group_name_H-M "I M M M"
_symmetry_group_IT_number 71
_symmetry_cell_setting 'orthorhombic'
loop_
_space_group_symop_operation_xyz
x,y,z
-x,-y,z
x,-y,-z
-x,y,-z
-x,-y,-z
x,y,-z
-x,y,z
x,-y,z
1/2+x,1/2+y,1/2+z
1/2-x,1/2-y,1/2+z
1/2+x,1/2-y,1/2-z
1/2-x,1/2+y,1/2-z
1/2-x,1/2-y,1/2-z
1/2+x,1/2+y,1/2-z
1/2-x,1/2+y,1/2+z
1/2+x,1/2-y,1/2+z
loop_
_atom_site_type_symbol
_atom_site_label
_atom_site_fract_x
_atom_site_fract_y
_atom_site_fract_z
Si Si1 0.586130 0.687371 0.143014
Si Si2 0.083614 0.196389 0.000000
Si Si3 0.587646 0.000000 0.066828
Si Si4 0.833462 0.301740 0.757675
Si Si5 0.917605 0.304339 0.126233
O O1 0.500000 0.712948 0.150548
O O2 0.604199 0.500000 0.117918
O O3 0.620524 0.705914 0.207931
O O4 0.617544 0.831086 0.098865
O O5 0.119706 0.264375 0.938438
O O6 0.000000 0.261746 0.000000
O O7 0.090485 0.000000 0.000000
O O8 0.500000 0.000000 0.065667
O O9 0.619906 0.000000 0.000000
O O10 0.843461 0.500000 0.750239
O O11 0.750000 0.250000 0.750000
O O12 0.864133 0.236056 0.821657
O O13 0.925281 0.500000 0.134588
O O14 0.000000 0.223086 0.130931
#
# Coordination Sequence:
#
# PCOD8290993 Si02
#       5
#    16   8   8  16  16
#     4  10  20  35  58  86 115 147 187 233 282 337
#     4   9  17  29  49  79 111 137 170 221 270 321
#     4   9  18  34  58  86 116 147 182 230 282 334
#     4  11  22  36  55  79 112 148 188 236 284 336
#     4   9  18  33  55  79 105 142 182 221 271 328
#
# _framework density 19.75074
#
# number of rings (size 3 to 8) (size 9 to 14) (size 15 to 20)
#    0.000    2.250    1.250    1.875    0.000    5.000 
#    0.000    5.000    2.750    0.000    0.000    0.000 
#    0.000    0.000    0.000    0.000    0.000    0.000 
#
# Total GULP energy -396664.083215 kJ/mol
# GULP energy per Si atom -12395.752600 kJ/mol
# Density = 1.970579 g / cm^3
# Si number density = 19.750740 Si / 1000 Ang^3
#
#
#
# Elastic Constant Matrix: (Units=GPa)
#
#
# Indices 1 2 3 4 5 6 
#
# 1 50.8408 30.3745 55.4761 0.0000 0.0000 0.0000
# 2 30.3745 105.0054 57.0092 0.0000 0.0000 0.0000
# 3 55.4761 57.0092 189.7894 0.0000 0.0000 0.0000
# 4 0.0000 0.0000 0.0000 21.4215 0.0000 0.0000
# 5 0.0000 0.0000 0.0000 0.0000 7.7302 0.0000
# 6 0.0000 0.0000 0.0000 0.0000 0.0000 21.3736
#
#
#
# Elastic Compliance Matrix: (Units=1/GPa)
#
#
# Indices 1 2 3 4 5 6 
#
# 1 0.030783 -0.004802 -0.007555 0.000000 0.000000 0.000000
# 2 -0.004802 0.012128 -0.002239 0.000000 0.000000 0.000000
# 3 -0.007555 -0.002239 0.008150 0.000000 0.000000 0.000000
# 4 0.000000 0.000000 0.000000 0.046682 0.000000 0.000000
# 5 0.000000 0.000000 0.000000 0.000000 0.129362 0.000000
# 6 0.000000 0.000000 0.000000 0.000000 0.000000 0.046787
#
#
# Mechanical properties :
#
#
# Convention : Reuss Voigt Hill
#
# Bulk Modulus (GPa) = 45.73146 70.15057 57.94102
# Shear Modulus (GPa) = 16.10952 23.62344 19.86648
#
# Velocity S-wave (km/s) = 2.85904 3.46219 3.17497
# Velocity P-wave (km/s) = 5.83981 7.18174 6.54526
#
# Compressibility (1/GPa) = 0.02186678
#
# Stress axis : x y z
#
# Youngs Moduli (GPa) = 32.48590 82.45189 122.69807
#
# Poissons Ratio (x) = 0.39597 0.92702
# Poissons Ratio (y) = 0.15601 0.27476
# Poissons Ratio (z) = 0.24544 0.18464
#
# Static dielectric constant tensor:
#      x y z
#    x 3.288060 0.000000 0.000000 
#    y 0.000000 3.793940 0.000000 
#    z 0.000000 0.000000 3.976590 
# 
# 
# High freq. dielectric constant tensor:
#      x y z
#    x 1.725200 0.000000 0.000000 
#    y 0.000000 1.776840 0.000000 
#    z 0.000000 0.000000 1.779310 
# 
# From -- ./inp_files/46801.got.cif
#   From: 2010.06.25/outbox.cif.g09.slc.cpg/sg71_24_cif.got.tgz:46801.got - 2010.06.28 04:59:45.
