data_PCOD8290505
_publ_section_title
;
Structure prediction by ZEFSAII (Michael W. Deem and Ramdas Pophale) SiO2 
 PCOD8290505
Probable space group: I M M M
;
_chemical_formula_sum "Si O2"
_cell_formula_units_Z 88
_cell_length_a 18.938814
_cell_length_b 8.893044
_cell_length_c 27.930141
_cell_angle_alpha 90.000000
_cell_angle_beta 90.000000
_cell_angle_gamma 90.000000
_cell_volume 4704.097862
_symmetry_space_group_name_H-M "I M M M"
_symmetry_group_IT_number 71
_symmetry_cell_setting 'orthorhombic'
loop_
_space_group_symop_operation_xyz
x,y,z
-x,-y,z
x,-y,-z
-x,y,-z
-x,-y,-z
x,y,-z
-x,y,z
x,-y,z
1/2+x,1/2+y,1/2+z
1/2-x,1/2-y,1/2+z
1/2+x,1/2-y,1/2-z
1/2-x,1/2+y,1/2-z
1/2-x,1/2-y,1/2-z
1/2+x,1/2+y,1/2-z
1/2-x,1/2+y,1/2+z
1/2+x,1/2-y,1/2+z
loop_
_atom_site_type_symbol
_atom_site_label
_atom_site_fract_x
_atom_site_fract_y
_atom_site_fract_z
Si Si1 0.583751 0.331164 0.226092
Si Si2 0.583059 0.168480 0.500000
Si Si3 0.581928 0.176940 0.322857
Si Si4 0.807184 0.321770 0.553527
Si Si5 0.419055 0.822851 0.129840
Si Si6 0.345134 0.678269 0.588019
O O1 0.500000 0.332265 0.224445
O O2 0.614019 0.500000 0.230322
O O3 0.609072 0.233825 0.271327
O O4 0.611677 0.255610 0.177394
O O5 0.500000 0.158141 0.500000
O O6 0.605693 0.257400 0.546816
O O7 0.615408 0.000000 0.500000
O O8 0.500000 0.220125 0.331283
O O9 0.630341 0.257741 0.361502
O O10 0.593165 0.000000 0.326139
O O11 0.812758 0.252697 0.500000
O O12 0.808292 0.500000 0.549881
O O13 0.873177 0.264679 0.584962
O O14 0.734892 0.268729 0.578413
O O15 0.500000 0.777591 0.119596
O O16 0.411251 0.000000 0.137554
O O17 0.352353 0.500000 0.588374
#
# Coordination Sequence:
#
# PCOD8290505 Si02
#       6
#    16   8  16  16  16  16
#     4   9  17  31  52  78 108 139 172 214 264 316
#     4  11  23  37  53  75 104 137 178 226 267 305
#     4  10  20  34  53  78 108 139 175 221 266 310
#     4   9  18  34  54  77 107 140 175 218 266 311
#     4   9  17  31  55  83 107 135 173 216 263 316
#     4  11  21  35  54  76 105 142 180 217 262 314
#
# _framework density 18.707093
#
# number of rings (size 3 to 8) (size 9 to 14) (size 15 to 20)
#    0.000    2.273    0.909    2.455    0.000    6.545 
#    0.000    4.545    0.000    0.000    0.000    2.545 
#    0.000    0.000    0.000    0.000    0.000    0.000 
#
# Total GULP energy -545625.359509 kJ/mol
# GULP energy per Si atom -12400.576352 kJ/mol
# Density = 1.866451 g / cm^3
# Si number density = 18.707093 Si / 1000 Ang^3
#
#
#
# Elastic Constant Matrix: (Units=GPa)
#
#
# Indices 1 2 3 4 5 6 
#
# 1 86.3343 35.6508 75.3153 0.0000 0.0000 0.0000
# 2 35.6508 76.8980 53.2636 0.0000 0.0000 0.0000
# 3 75.3153 53.2636 176.3187 0.0000 0.0000 0.0000
# 4 0.0000 0.0000 0.0000 55.9551 0.0000 0.0000
# 5 0.0000 0.0000 0.0000 0.0000 7.8743 0.0000
# 6 0.0000 0.0000 0.0000 0.0000 0.0000 13.7127
#
#
#
# Elastic Compliance Matrix: (Units=1/GPa)
#
#
# Indices 1 2 3 4 5 6 
#
# 1 0.019445 -0.004125 -0.007060 0.000000 0.000000 0.000000
# 2 -0.004125 0.017320 -0.003470 0.000000 0.000000 0.000000
# 3 -0.007060 -0.003470 0.009736 0.000000 0.000000 0.000000
# 4 0.000000 0.000000 0.000000 0.017871 0.000000 0.000000
# 5 0.000000 0.000000 0.000000 0.000000 0.126996 0.000000
# 6 0.000000 0.000000 0.000000 0.000000 0.000000 0.072925
#
#
# Mechanical properties :
#
#
# Convention : Reuss Voigt Hill
#
# Bulk Modulus (GPa) = 58.17098 74.22336 66.19717
# Shear Modulus (GPa) = 16.70373 27.19649 21.95011
#
# Velocity S-wave (km/s) = 2.99140 3.81702 3.42915
# Velocity P-wave (km/s) = 6.56464 7.69343 7.15134
#
# Compressibility (1/GPa) = 0.01719070
#
# Stress axis : x y z
#
# Youngs Moduli (GPa) = 51.42686 57.73583 102.71600
#
# Poissons Ratio (x) = 0.23815 0.72517
# Poissons Ratio (y) = 0.21213 0.35645
# Poissons Ratio (z) = 0.36307 0.20036
#
# Static dielectric constant tensor:
#      x y z
#    x 3.335280 0.000000 0.000000 
#    y 0.000000 3.438290 0.000000 
#    z 0.000000 0.000000 3.651080 
# 
# 
# High freq. dielectric constant tensor:
#      x y z
#    x 1.703840 0.000000 0.000000 
#    y 0.000000 1.717870 0.000000 
#    z 0.000000 0.000000 1.741280 
# 
# From -- ./inp_files/12534.got.cif
#   From: 2010.06.25/outbox.cif.g09.slc.cpg/sg71_7_cif.got.tgz:12534.got - 2010.06.28 04:59:45.
