data_PCOD8290021
_publ_section_title
;
Structure prediction by ZEFSAII (Michael W. Deem and Ramdas Pophale) SiO2 
 PCOD8290021
Probable space group: I M M M
;
_chemical_formula_sum "Si O2"
_cell_formula_units_Z 104
_cell_length_a 21.938968
_cell_length_b 9.130066
_cell_length_c 26.331085
_cell_angle_alpha 90.000000
_cell_angle_beta 90.000000
_cell_angle_gamma 90.000000
_cell_volume 5274.227596
_symmetry_space_group_name_H-M "I M M M"
_symmetry_group_IT_number 71
_symmetry_cell_setting 'orthorhombic'
loop_
_space_group_symop_operation_xyz
x,y,z
-x,-y,z
x,-y,-z
-x,y,-z
-x,-y,-z
x,y,-z
-x,y,z
x,-y,z
1/2+x,1/2+y,1/2+z
1/2-x,1/2-y,1/2+z
1/2+x,1/2-y,1/2-z
1/2-x,1/2+y,1/2-z
1/2-x,1/2-y,1/2-z
1/2+x,1/2+y,1/2-z
1/2-x,1/2+y,1/2+z
1/2+x,1/2-y,1/2+z
loop_
_atom_site_type_symbol
_atom_site_label
_atom_site_fract_x
_atom_site_fract_y
_atom_site_fract_z
Si Si1 0.626235 0.330044 0.395507
Si Si2 0.747220 0.168231 0.141081
Si Si3 0.569633 0.324793 0.500000
Si Si4 0.857740 0.325516 0.288930
Si Si5 0.648782 0.834075 0.056993
Si Si6 0.931729 0.830582 0.207477
Si Si7 0.071432 0.163749 0.372774
O O1 0.640038 0.500000 0.405596
O O2 0.687979 0.255109 0.372181
O O3 0.603762 0.262741 0.449358
O O4 0.574093 0.308611 0.353115
O O5 0.709011 0.230008 0.190193
O O6 0.707823 0.191045 0.090940
O O7 0.760073 0.000000 0.153556
O O8 0.569348 0.500000 0.500000
O O9 0.500000 0.267388 0.500000
O O10 0.859189 0.500000 0.285591
O O11 0.877081 0.257811 0.234907
O O12 0.908494 0.273188 0.328525
O O13 0.595630 0.723718 0.073540
O O14 0.624622 0.000000 0.062631
O O15 0.668467 0.797666 0.000000
O O16 0.000000 0.777435 0.222999
O O17 0.923652 0.000000 0.222507
O O18 0.000000 0.161088 0.375413
O O19 0.096872 0.000000 0.362661
#
# Coordination Sequence:
#
# PCOD8290021 Si02
#       7
#    16  16   8  16  16  16  16
#     4   9  17  29  48  74 105 139 170 209 258 305
#     4   8  16  30  47  70  98 129 170 212 254 301
#     4   9  16  26  44  74 109 141 172 207 252 306
#     4  10  20  34  52  74 100 131 171 217 257 304
#     4   9  18  31  48  70  98 131 169 215 258 302
#     4  10  20  33  50  75 107 139 171 209 257 311
#     4  10  20  33  49  70  97 130 169 211 260 315
#
# _framework density 19.718527999999999
#
# number of rings (size 3 to 8) (size 9 to 14) (size 15 to 20)
#    0.000    2.692    0.000    2.769    1.077    6.462 
#    0.000    1.538    0.000    3.692    0.000    0.538 
#    0.000    1.846    0.000    0.000    0.000    0.000 
#
# Total GULP energy -644319.479533 kJ/mol
# GULP energy per Si atom -12390.759222 kJ/mol
# Density = 1.967365 g / cm^3
# Si number density = 19.718528 Si / 1000 Ang^3
#
#
#
# Elastic Constant Matrix: (Units=GPa)
#
#
# Indices 1 2 3 4 5 6 
#
# 1 117.8391 27.2982 51.8219 0.0000 0.0000 0.0000
# 2 27.2982 43.5216 23.2985 0.0000 0.0000 0.0000
# 3 51.8219 23.2985 120.3986 0.0000 0.0000 0.0000
# 4 0.0000 0.0000 0.0000 20.8171 0.0000 0.0000
# 5 0.0000 0.0000 0.0000 0.0000 23.0399 0.0000
# 6 0.0000 0.0000 0.0000 0.0000 0.0000 12.0835
#
#
#
# Elastic Compliance Matrix: (Units=1/GPa)
#
#
# Indices 1 2 3 4 5 6 
#
# 1 0.011378 -0.005037 -0.003923 0.000000 0.000000 0.000000
# 2 -0.005037 0.027862 -0.003224 0.000000 0.000000 0.000000
# 3 -0.003923 -0.003224 0.010618 0.000000 0.000000 0.000000
# 4 0.000000 0.000000 0.000000 0.048038 0.000000 0.000000
# 5 0.000000 0.000000 0.000000 0.000000 0.043403 0.000000
# 6 0.000000 0.000000 0.000000 0.000000 0.000000 0.082758
#
#
# Mechanical properties :
#
#
# Convention : Reuss Voigt Hill
#
# Bulk Modulus (GPa) = 39.22830 54.06628 46.64729
# Shear Modulus (GPa) = 19.46134 23.14414 21.30274
#
# Velocity S-wave (km/s) = 3.14500 3.42968 3.29042
# Velocity P-wave (km/s) = 5.75546 6.56979 6.17606
#
# Compressibility (1/GPa) = 0.02549180
#
# Stress axis : x y z
#
# Youngs Moduli (GPa) = 87.88894 35.89112 94.18014
#
# Poissons Ratio (x) = 0.18077 0.36943
# Poissons Ratio (y) = 0.44267 0.30361
# Poissons Ratio (z) = 0.34476 0.11570
#
# Static dielectric constant tensor:
#      x y z
#    x 3.762290 0.000000 0.000000 
#    y 0.000000 3.375320 0.000000 
#    z 0.000000 0.000000 3.888350 
# 
# 
# High freq. dielectric constant tensor:
#      x y z
#    x 1.772460 0.000000 0.000000 
#    y 0.000000 1.715250 0.000000 
#    z 0.000000 0.000000 1.776080 
# 
# From -- ./inp_files/13345.got.cif
#   From: 2010.06.25/outbox.cif.g09.slc.cpg/sg71_7_cif.got.tgz:13345.got - 2010.06.28 04:59:45.
