data_PCOD8290709
_publ_section_title
;
Structure prediction by ZEFSAII (Michael W. Deem and Ramdas Pophale) SiO2 
 PCOD8290709
Probable space group: I M M M
;
_chemical_formula_sum "Si O2"
_cell_formula_units_Z 104
_cell_length_a 22.383202
_cell_length_b 8.662338
_cell_length_c 26.092416
_cell_angle_alpha 90.000000
_cell_angle_beta 90.000000
_cell_angle_gamma 90.000000
_cell_volume 5059.081010
_symmetry_space_group_name_H-M "I M M M"
_symmetry_group_IT_number 71
_symmetry_cell_setting 'orthorhombic'
loop_
_space_group_symop_operation_xyz
x,y,z
-x,-y,z
x,-y,-z
-x,y,-z
-x,-y,-z
x,y,-z
-x,y,z
x,-y,z
1/2+x,1/2+y,1/2+z
1/2-x,1/2-y,1/2+z
1/2+x,1/2-y,1/2-z
1/2-x,1/2+y,1/2-z
1/2-x,1/2-y,1/2-z
1/2+x,1/2+y,1/2-z
1/2-x,1/2+y,1/2+z
1/2+x,1/2-y,1/2+z
loop_
_atom_site_type_symbol
_atom_site_label
_atom_site_fract_x
_atom_site_fract_y
_atom_site_fract_z
Si Si1 0.567449 0.831979 0.500000
Si Si2 0.064763 0.317127 0.556124
Si Si3 0.313322 0.817189 0.231864
Si Si4 0.067702 0.317466 0.207844
Si Si5 0.718767 0.179441 0.440563
Si Si6 0.891995 0.819454 0.103039
Si Si7 0.824377 0.681529 0.615430
O O1 0.500000 0.878139 0.500000
O O2 0.579892 0.731681 0.549724
O O3 0.602490 0.000000 0.500000
O O4 0.085464 0.257088 0.500000
O O5 0.061094 0.500000 0.554318
O O6 0.109184 0.265765 0.600655
O O7 0.000000 0.247494 0.569859
O O8 0.250000 0.750000 0.250000
O O9 0.374474 0.753150 0.259723
O O10 0.315843 0.764501 0.173222
O O11 0.311207 0.000000 0.238597
O O12 0.069363 0.500000 0.211117
O O13 0.075504 0.266565 0.149293
O O14 0.000000 0.262801 0.226094
O O15 0.704795 0.222903 0.500000
O O16 0.677518 0.274116 0.400811
O O17 0.784854 0.226998 0.425463
O O18 0.708962 0.000000 0.430766
O O19 0.899834 0.000000 0.111845
O O20 0.812992 0.500000 0.608514
#
# Coordination Sequence:
#
# PCOD8290709 Si02
#       7
#     8  16  16  16  16  16  16
#     4  11  23  39  59  83 115 153 188 223 274 341
#     4   8  14  26  47  78 114 147 176 216 279 348
#     4  10  22  39  59  85 114 151 198 247 301 354
#     4  10  22  41  63  86 119 163 205 246 299 364
#     4  11  23  38  57  82 117 158 198 239 294 364
#     4  12  24  38  59  87 117 150 194 244 291 339
#     4  10  20  34  56  85 114 145 191 248 297 347
#
# _framework density 20.557092999999998
#
# number of rings (size 3 to 8) (size 9 to 14) (size 15 to 20)
#    0.000    1.769    0.769    4.385    0.000    8.615 
#    0.000    3.077    0.000    0.462    0.000    4.308 
#    0.000    0.000    0.000    0.000    0.000    0.000 
#
# Total GULP energy -644338.170607 kJ/mol
# GULP energy per Si atom -12391.118666 kJ/mol
# Density = 2.051030 g / cm^3
# Si number density = 20.557093 Si / 1000 Ang^3
#
#
#
# Elastic Constant Matrix: (Units=GPa)
#
#
# Indices 1 2 3 4 5 6 
#
# 1 159.9036 24.5094 59.8023 0.0000 0.0000 0.0000
# 2 24.5094 16.3887 17.7495 0.0000 0.0000 0.0000
# 3 59.8023 17.7495 87.7545 0.0000 0.0000 0.0000
# 4 0.0000 0.0000 0.0000 24.6264 0.0000 0.0000
# 5 0.0000 0.0000 0.0000 0.0000 32.7197 0.0000
# 6 0.0000 0.0000 0.0000 0.0000 0.0000 23.6261
#
#
#
# Elastic Compliance Matrix: (Units=1/GPa)
#
#
# Indices 1 2 3 4 5 6 
#
# 1 0.009336 -0.009055 -0.004531 0.000000 0.000000 0.000000
# 2 -0.009055 0.086916 -0.011409 0.000000 0.000000 0.000000
# 3 -0.004531 -0.011409 0.016791 0.000000 0.000000 0.000000
# 4 0.000000 0.000000 0.000000 0.040607 0.000000 0.000000
# 5 0.000000 0.000000 0.000000 0.000000 0.030563 0.000000
# 6 0.000000 0.000000 0.000000 0.000000 0.000000 0.042326
#
#
# Mechanical properties :
#
#
# Convention : Reuss Voigt Hill
#
# Bulk Modulus (GPa) = 15.85975 52.01878 33.93927
# Shear Modulus (GPa) = 16.80414 26.99351 21.89882
#
# Velocity S-wave (km/s) = 2.86219 3.62760 3.26739
# Velocity P-wave (km/s) = 4.31909 6.55023 5.54797
#
# Compressibility (1/GPa) = 0.06305269
#
# Stress axis : x y z
#
# Youngs Moduli (GPa) = 107.10986 11.50538 59.55695
#
# Poissons Ratio (x) = 0.10418 0.26984
# Poissons Ratio (y) = 0.96991 0.67948
# Poissons Ratio (z) = 0.48530 0.13126
#
# Static dielectric constant tensor:
#      x y z
#    x 4.388460 0.000000 0.000000 
#    y 0.000000 3.403180 0.000000 
#    z 0.000000 0.000000 3.805990 
# 
# 
# High freq. dielectric constant tensor:
#      x y z
#    x 1.827940 0.000000 0.000000 
#    y 0.000000 1.774880 0.000000 
#    z 0.000000 0.000000 1.801370 
# 
# From -- ./inp_files/66456.got.cif
#   From: 2010.06.25/outbox.cif.g09.slc.cpg/sg71_34_cif.got.tgz:66456.got - 2010.06.28 04:59:45.
