data_PCOD8290801
_publ_section_title
;
Structure prediction by ZEFSAII (Michael W. Deem and Ramdas Pophale) SiO2 
 PCOD8290801
Probable space group: I M M M
;
_chemical_formula_sum "Si O2"
_cell_formula_units_Z 88
_cell_length_a 9.287713
_cell_length_b 19.272309
_cell_length_c 24.910925
_cell_angle_alpha 90.000000
_cell_angle_beta 90.000000
_cell_angle_gamma 90.000000
_cell_volume 4458.947831
_symmetry_space_group_name_H-M "I M M M"
_symmetry_group_IT_number 71
_symmetry_cell_setting 'orthorhombic'
loop_
_space_group_symop_operation_xyz
x,y,z
-x,-y,z
x,-y,-z
-x,y,-z
-x,-y,-z
x,y,-z
-x,y,z
x,-y,z
1/2+x,1/2+y,1/2+z
1/2-x,1/2-y,1/2+z
1/2+x,1/2-y,1/2-z
1/2-x,1/2+y,1/2-z
1/2-x,1/2-y,1/2-z
1/2+x,1/2+y,1/2-z
1/2-x,1/2+y,1/2+z
1/2+x,1/2-y,1/2+z
loop_
_atom_site_type_symbol
_atom_site_label
_atom_site_fract_x
_atom_site_fract_y
_atom_site_fract_z
Si Si1 0.328703 0.918965 0.500000
Si Si2 0.668043 0.922114 0.135410
Si Si3 0.160725 0.076743 0.235998
Si Si4 0.664146 0.815127 0.407566
Si Si5 0.344367 0.665243 0.440664
Si Si6 0.833064 0.791018 0.702012
O O1 0.500000 0.915434 0.500000
O O2 0.275924 0.879125 0.555017
O O3 0.275408 0.000000 0.500000
O O4 0.500000 0.920367 0.141822
O O5 0.734808 0.893687 0.190317
O O6 0.712853 0.870099 0.089298
O O7 0.724276 0.000000 0.123480
O O8 0.170071 0.127180 0.286143
O O9 0.000000 0.075115 0.211974
O O10 0.209368 0.000000 0.254993
O O11 0.500000 0.831555 0.388994
O O12 0.671455 0.747855 0.445009
O O13 0.756838 0.790823 0.355776
O O14 0.339774 0.634433 0.500000
O O15 0.500000 0.646759 0.413884
O O16 0.750000 0.750000 0.750000
O O17 0.000000 0.764456 0.698441
#
# Coordination Sequence:
#
# PCOD8290801 Si02
#       6
#     8  16  16  16  16  16
#     4   9  18  36  63  91 118 153 198 246 299 357
#     4  10  21  35  52  78 110 140 174 223 276 321
#     4   9  19  37  57  75 102 143 185 220 262 323
#     4  10  20  37  59  84 115 149 189 239 288 340
#     4  10  20  35  55  76 102 141 185 224 263 316
#     4  11  23  37  56  85 117 150 189 236 289 346
#
# _framework density 19.735598
#
# number of rings (size 3 to 8) (size 9 to 14) (size 15 to 20)
#    0.000    2.091    0.909    2.182    0.000    9.091 
#    0.000    2.273    0.000    0.545    0.000    0.000 
#    0.000    0.000    0.000    0.000    0.000    0.000 
#
# Total GULP energy -545140.468807 kJ/mol
# GULP energy per Si atom -12389.556109 kJ/mol
# Density = 1.969068 g / cm^3
# Si number density = 19.735598 Si / 1000 Ang^3
#
#
#
# Elastic Constant Matrix: (Units=GPa)
#
#
# Indices 1 2 3 4 5 6 
#
# 1 80.3925 20.7225 39.5183 0.0000 0.0000 0.0000
# 2 20.7225 59.7813 30.1164 0.0000 0.0000 0.0000
# 3 39.5183 30.1164 97.4848 0.0000 0.0000 0.0000
# 4 0.0000 0.0000 0.0000 33.2258 0.0000 0.0000
# 5 0.0000 0.0000 0.0000 0.0000 15.0711 0.0000
# 6 0.0000 0.0000 0.0000 0.0000 0.0000 22.6728
#
#
#
# Elastic Compliance Matrix: (Units=1/GPa)
#
#
# Indices 1 2 3 4 5 6 
#
# 1 0.015889 -0.002680 -0.005613 0.000000 0.000000 0.000000
# 2 -0.002680 0.020263 -0.005174 0.000000 0.000000 0.000000
# 3 -0.005613 -0.005174 0.014132 0.000000 0.000000 0.000000
# 4 0.000000 0.000000 0.000000 0.030097 0.000000 0.000000
# 5 0.000000 0.000000 0.000000 0.000000 0.066352 0.000000
# 6 0.000000 0.000000 0.000000 0.000000 0.000000 0.044106
#
#
# Mechanical properties :
#
#
# Convention : Reuss Voigt Hill
#
# Bulk Modulus (GPa) = 42.82577 46.48588 44.65582
# Shear Modulus (GPa) = 22.16750 24.01403 23.09077
#
# Velocity S-wave (km/s) = 3.35509 3.49203 3.42425
# Velocity P-wave (km/s) = 6.06265 6.31384 6.18952
#
# Compressibility (1/GPa) = 0.02335043
#
# Stress axis : x y z
#
# Youngs Moduli (GPa) = 62.93662 49.35122 70.76276
#
# Poissons Ratio (x) = 0.13226 0.39720
# Poissons Ratio (y) = 0.16867 0.36609
# Poissons Ratio (z) = 0.35327 0.25532
#
# Static dielectric constant tensor:
#      x y z
#    x 3.610840 0.000000 0.000000 
#    y 0.000000 3.854790 0.000000 
#    z 0.000000 0.000000 3.455880 
# 
# 
# High freq. dielectric constant tensor:
#      x y z
#    x 1.757000 0.000000 0.000000 
#    y 0.000000 1.777910 0.000000 
#    z 0.000000 0.000000 1.759950 
# 
# From -- ./inp_files/10495.got.cif
#   From: 2010.06.25/outbox.cif.g09.slc.cpg/sg71_6_cif.got.tgz:10495.got - 2010.06.28 04:59:45.
