data_PCOD8290973
_publ_section_title
;
Structure prediction by ZEFSAII (Michael W. Deem and Ramdas Pophale) SiO2 
 PCOD8290973
Probable space group: I M M M
;
_chemical_formula_sum "Si O2"
_cell_formula_units_Z 88
_cell_length_a 25.037735
_cell_length_b 20.545990
_cell_length_c 9.029192
_cell_angle_alpha 90.000000
_cell_angle_beta 90.000000
_cell_angle_gamma 90.000000
_cell_volume 4644.842573
_symmetry_space_group_name_H-M "I M M M"
_symmetry_group_IT_number 71
_symmetry_cell_setting 'orthorhombic'
loop_
_space_group_symop_operation_xyz
x,y,z
-x,-y,z
x,-y,-z
-x,y,-z
-x,-y,-z
x,y,-z
-x,y,z
x,-y,z
1/2+x,1/2+y,1/2+z
1/2-x,1/2-y,1/2+z
1/2+x,1/2-y,1/2-z
1/2-x,1/2+y,1/2-z
1/2-x,1/2-y,1/2-z
1/2+x,1/2+y,1/2-z
1/2-x,1/2+y,1/2+z
1/2+x,1/2-y,1/2+z
loop_
_atom_site_type_symbol
_atom_site_label
_atom_site_fract_x
_atom_site_fract_y
_atom_site_fract_z
Si Si1 0.313159 0.688678 0.331473
Si Si2 0.000000 0.227335 0.326466
Si Si3 0.308703 0.178906 0.168656
Si Si4 0.438256 0.500000 0.660996
Si Si5 0.092406 0.128792 0.326897
Si Si6 0.000000 0.366160 0.175949
Si Si7 0.602510 0.074900 0.171601
O O1 0.333352 0.684274 0.500000
O O2 0.320190 0.763029 0.281175
O O3 0.253445 0.660533 0.316469
O O4 0.348249 0.644414 0.225305
O O5 0.052386 0.186731 0.281504
O O6 0.000000 0.244790 0.500000
O O7 0.000000 0.292771 0.233392
O O8 0.345218 0.117396 0.212516
O O9 0.321193 0.201619 0.000000
O O10 0.500000 0.500000 0.631582
O O11 0.409102 0.500000 0.500000
O O12 0.423785 0.437286 0.752299
O O13 0.090938 0.117241 0.500000
O O14 0.947611 0.403372 0.231499
O O15 0.000000 0.366001 0.000000
O O16 0.616468 0.000000 0.206880
O O17 0.587142 0.084302 0.000000
#
# Coordination Sequence:
#
# PCOD8290973 Si02
#       7
#    16   8  16   8  16   8  16
#     4  10  20  35  57  87 117 147 187 238 290 335
#     4  10  22  38  58  82 111 150 192 233 272 328
#     4   9  19  37  59  84 113 148 190 235 285 339
#     4  11  23  39  59  83 115 151 189 236 289 340
#     4  11  22  38  59  83 114 153 194 233 279 340
#     4  12  25  37  55  86 118 145 177 231 288 335
#     4  10  21  39  61  81 107 148 192 229 271 337
#
# _framework density 18.945744000000001
#
# number of rings (size 3 to 8) (size 9 to 14) (size 15 to 20)
#    0.000    1.727    0.909    3.545    0.000    9.091 
#    1.636    0.000    0.000    0.000    0.000    0.000 
#    0.000    0.000    0.000    0.000    0.000    0.000 
#
# Total GULP energy -545685.033525 kJ/mol
# GULP energy per Si atom -12401.932580 kJ/mol
# Density = 1.890262 g / cm^3
# Si number density = 18.945744 Si / 1000 Ang^3
#
#
#
# Elastic Constant Matrix: (Units=GPa)
#
#
# Indices 1 2 3 4 5 6 
#
# 1 115.9875 66.4440 53.8670 0.0000 0.0000 0.0000
# 2 66.4440 129.8613 60.1868 0.0000 0.0000 0.0000
# 3 53.8670 60.1868 91.4488 0.0000 0.0000 0.0000
# 4 0.0000 0.0000 0.0000 20.6956 0.0000 0.0000
# 5 0.0000 0.0000 0.0000 0.0000 28.6179 0.0000
# 6 0.0000 0.0000 0.0000 0.0000 0.0000 10.9407
#
#
#
# Elastic Compliance Matrix: (Units=1/GPa)
#
#
# Indices 1 2 3 4 5 6 
#
# 1 0.013584 -0.004665 -0.004931 0.000000 0.000000 0.000000
# 2 -0.004665 0.012682 -0.005599 0.000000 0.000000 0.000000
# 3 -0.004931 -0.005599 0.017525 0.000000 0.000000 0.000000
# 4 0.000000 0.000000 0.000000 0.048319 0.000000 0.000000
# 5 0.000000 0.000000 0.000000 0.000000 0.034943 0.000000
# 6 0.000000 0.000000 0.000000 0.000000 0.000000 0.091402
#
#
# Mechanical properties :
#
#
# Convention : Reuss Voigt Hill
#
# Bulk Modulus (GPa) = 74.62307 77.58814 76.10560
# Shear Modulus (GPa) = 19.73841 22.50416 21.12128
#
# Velocity S-wave (km/s) = 3.23125 3.45022 3.34253
# Velocity P-wave (km/s) = 7.30716 7.54412 7.42659
#
# Compressibility (1/GPa) = 0.01340068
#
# Stress axis : x y z
#
# Youngs Moduli (GPa) = 73.61515 78.85020 57.06160
#
# Poissons Ratio (x) = 0.36782 0.28140
# Poissons Ratio (y) = 0.34340 0.31949
# Poissons Ratio (z) = 0.36303 0.44149
#
# Static dielectric constant tensor:
#      x y z
#    x 3.823720 0.000000 0.000000 
#    y 0.000000 2.977960 0.000000 
#    z 0.000000 0.000000 3.151600 
# 
# 
# High freq. dielectric constant tensor:
#      x y z
#    x 1.743210 0.000000 0.000000 
#    y 0.000000 1.735790 0.000000 
#    z 0.000000 0.000000 1.742040 
# 
# From -- ./inp_files/12641.got.cif
#   From: 2010.06.25/outbox.cif.g09.slc.cpg/sg71_7_cif.got.tgz:12641.got - 2010.06.28 04:59:45.
