data_PCOD8290050
_publ_section_title
;
Structure prediction by ZEFSAII (Michael W. Deem and Ramdas Pophale) SiO2 
 PCOD8290050
Probable space group: I M M M
;
_chemical_formula_sum "Si O2"
_cell_formula_units_Z 120
_cell_length_a 19.579103
_cell_length_b 23.397981
_cell_length_c 13.460822
_cell_angle_alpha 90.000000
_cell_angle_beta 90.000000
_cell_angle_gamma 90.000000
_cell_volume 6166.557088
_symmetry_space_group_name_H-M "I M M M"
_symmetry_group_IT_number 71
_symmetry_cell_setting 'orthorhombic'
loop_
_space_group_symop_operation_xyz
x,y,z
-x,-y,z
x,-y,-z
-x,y,-z
-x,-y,-z
x,y,-z
-x,y,z
x,-y,z
1/2+x,1/2+y,1/2+z
1/2-x,1/2-y,1/2+z
1/2+x,1/2-y,1/2-z
1/2-x,1/2+y,1/2-z
1/2-x,1/2-y,1/2-z
1/2+x,1/2+y,1/2-z
1/2-x,1/2+y,1/2+z
1/2+x,1/2-y,1/2+z
loop_
_atom_site_type_symbol
_atom_site_label
_atom_site_fract_x
_atom_site_fract_y
_atom_site_fract_z
Si Si1 0.800404 0.564598 0.245398
Si Si2 0.681528 0.749468 0.614128
Si Si3 0.925509 0.567376 0.109455
Si Si4 0.646364 0.564881 0.799158
Si Si5 0.810635 0.682353 0.688965
Si Si6 0.576847 0.256138 0.889546
Si Si7 0.419970 0.333204 0.706441
Si Si8 0.076065 0.932380 0.500000
O O1 0.812202 0.500000 0.287761
O O2 0.862181 0.585826 0.175987
O O3 0.728127 0.567607 0.189029
O O4 0.800346 0.614152 0.328372
O O5 0.682472 0.772118 0.500000
O O6 0.747724 0.712192 0.635938
O O7 0.682392 0.801705 0.693138
O O8 0.614963 0.708697 0.626466
O O9 0.925170 0.500000 0.099722
O O10 0.000000 0.587389 0.152565
O O11 0.915889 0.594564 0.000000
O O12 0.623179 0.500000 0.775232
O O13 0.616832 0.604673 0.710260
O O14 0.615622 0.587842 0.902242
O O15 0.878317 0.700392 0.631227
O O16 0.500000 0.234736 0.875351
O O17 0.594496 0.306973 0.814882
O O18 0.590220 0.280245 0.000000
O O19 0.500000 0.339724 0.681053
O O20 0.000000 0.904925 0.500000
O O21 0.070729 0.000000 0.500000
#
# Coordination Sequence:
#
# PCOD8290050 Si02
#       8
#    16  16  16  16  16  16  16   8
#     4  10  20  33  52  78 111 146 182 222 271 326
#     4  10  21  38  58  80 107 141 185 237 283 326
#     4   8  15  28  45  67  99 140 181 216 256 314
#     4  10  20  33  49  75 114 154 188 230 280 333
#     4  10  20  37  57  83 109 141 185 225 275 337
#     4   9  19  35  57  84 111 141 178 228 284 332
#     4  10  20  35  56  82 111 146 188 231 277 338
#     4   9  18  30  44  68 103 147 191 225 271 331
#
# _framework density 19.459804999999999
#
# number of rings (size 3 to 8) (size 9 to 14) (size 15 to 20)
#    0.000    2.467    1.333    1.200    1.867    2.133 
#    0.000    0.000    0.000    2.800    0.000    1.867 
#    0.000    0.000    0.000    0.000    0.000    0.000 
#
# Total GULP energy -743512.520307 kJ/mol
# GULP energy per Si atom -12391.875338 kJ/mol
# Density = 1.941551 g / cm^3
# Si number density = 19.459805 Si / 1000 Ang^3
#
#
#
# Elastic Constant Matrix: (Units=GPa)
#
#
# Indices 1 2 3 4 5 6 
#
# 1 113.0837 25.3823 14.1150 0.0000 0.0000 0.0000
# 2 25.3823 83.0241 6.2111 0.0000 0.0000 0.0000
# 3 14.1150 6.2111 56.8303 0.0000 0.0000 0.0000
# 4 0.0000 0.0000 0.0000 15.8392 0.0000 0.0000
# 5 0.0000 0.0000 0.0000 0.0000 23.3763 0.0000
# 6 0.0000 0.0000 0.0000 0.0000 0.0000 25.7633
#
#
#
# Elastic Compliance Matrix: (Units=1/GPa)
#
#
# Indices 1 2 3 4 5 6 
#
# 1 0.009739 -0.002820 -0.002111 0.000000 0.000000 0.000000
# 2 -0.002820 0.012960 -0.000716 0.000000 0.000000 0.000000
# 3 -0.002111 -0.000716 0.018199 0.000000 0.000000 0.000000
# 4 0.000000 0.000000 0.000000 0.063134 0.000000 0.000000
# 5 0.000000 0.000000 0.000000 0.000000 0.042778 0.000000
# 6 0.000000 0.000000 0.000000 0.000000 0.000000 0.038815
#
#
# Mechanical properties :
#
#
# Convention : Reuss Voigt Hill
#
# Bulk Modulus (GPa) = 33.77776 38.26164 36.01970
# Shear Modulus (GPa) = 24.17939 26.81107 25.49523
#
# Velocity S-wave (km/s) = 3.52878 3.71585 3.62352
# Velocity P-wave (km/s) = 5.83082 6.17371 6.00471
#
# Compressibility (1/GPa) = 0.02960527
#
# Stress axis : x y z
#
# Youngs Moduli (GPa) = 102.67612 77.15872 54.94873
#
# Poissons Ratio (x) = 0.21756 0.11599
# Poissons Ratio (y) = 0.28951 0.03935
# Poissons Ratio (z) = 0.21673 0.05526
#
# Static dielectric constant tensor:
#      x y z
#    x 3.902140 0.000000 0.000000 
#    y 0.000000 3.444930 0.000000 
#    z 0.000000 0.000000 3.321820 
# 
# 
# High freq. dielectric constant tensor:
#      x y z
#    x 1.777460 0.000000 0.000000 
#    y 0.000000 1.749400 0.000000 
#    z 0.000000 0.000000 1.712640 
# 
# From -- ./inp_files/26309.got.cif
#   From: 2010.06.25/outbox.cif.g09.slc.cpg/sg71_14_cif.got.tgz:26309.got - 2010.06.28 04:59:45.
