data_PCOD8290263
_publ_section_title
;
Structure prediction by ZEFSAII (Michael W. Deem and Ramdas Pophale) SiO2 
 PCOD8290263
Probable space group: I M M M
;
_chemical_formula_sum "Si O2"
_cell_formula_units_Z 104
_cell_length_a 29.208688
_cell_length_b 21.034603
_cell_length_c 8.793810
_cell_angle_alpha 90.000000
_cell_angle_beta 90.000000
_cell_angle_gamma 90.000000
_cell_volume 5402.856681
_symmetry_space_group_name_H-M "I M M M"
_symmetry_group_IT_number 71
_symmetry_cell_setting 'orthorhombic'
loop_
_space_group_symop_operation_xyz
x,y,z
-x,-y,z
x,-y,-z
-x,y,-z
-x,-y,-z
x,y,-z
-x,y,z
x,-y,z
1/2+x,1/2+y,1/2+z
1/2-x,1/2-y,1/2+z
1/2+x,1/2-y,1/2-z
1/2-x,1/2+y,1/2-z
1/2-x,1/2-y,1/2-z
1/2+x,1/2+y,1/2-z
1/2-x,1/2+y,1/2+z
1/2+x,1/2-y,1/2+z
loop_
_atom_site_type_symbol
_atom_site_label
_atom_site_fract_x
_atom_site_fract_y
_atom_site_fract_z
Si Si1 0.181733 0.571239 0.175975
Si Si2 0.914789 0.428728 0.330565
Si Si3 0.053889 0.000000 0.331198
Si Si4 0.947430 0.129345 0.819992
Si Si5 0.116800 0.234425 0.676308
Si Si6 0.708376 0.788354 0.678946
Si Si7 0.550866 0.820539 0.330446
O O1 0.204823 0.500000 0.205131
O O2 0.137601 0.576953 0.279712
O O3 0.211802 0.634882 0.216108
O O4 0.167154 0.575598 0.000000
O O5 0.918717 0.399926 0.500000
O O6 0.932100 0.500000 0.330357
O O7 0.948518 0.394803 0.210093
O O8 0.069668 0.061161 0.237459
O O9 0.076202 0.000000 0.500000
O O10 0.000000 0.000000 0.347389
O O11 0.909605 0.176542 0.755037
O O12 0.000000 0.144132 0.765236
O O13 0.945733 0.131686 0.000000
O O14 0.125338 0.219524 0.500000
O O15 0.163850 0.253307 0.755555
O O16 0.082726 0.293038 0.698671
O O17 0.708823 0.778057 0.500000
O O18 0.750000 0.750000 0.750000
O O19 0.570438 0.807672 0.500000
O O20 0.500000 0.791987 0.321404
#
# Coordination Sequence:
#
# PCOD8290263 Si02
#       7
#    16  16   8  16  16  16  16
#     4   9  18  35  61  88 114 149 191 235 285 344
#     4  10  20  33  52  79 110 146 190 239 287 334
#     4   9  17  31  53  83 117 153 197 243 287 343
#     4  10  20  35  57  85 118 157 199 242 291 348
#     4  12  24  38  58  84 116 151 192 241 294 346
#     4  11  23  40  64  91 120 151 191 239 293 357
#     4  11  23  37  53  76 110 153 197 238 285 342
#
# _framework density 19.249075999999999
#
# number of rings (size 3 to 8) (size 9 to 14) (size 15 to 20)
#    0.000    1.615    1.538    3.923    0.000    6.769 
#    0.000    1.538    1.692    0.000    0.000    0.000 
#    0.000    0.000    0.000    0.000    0.000    0.000 
#
# Total GULP energy -644210.500298 kJ/mol
# GULP energy per Si atom -12388.663467 kJ/mol
# Density = 1.920526 g / cm^3
# Si number density = 19.249076 Si / 1000 Ang^3
#
#
#
# Elastic Constant Matrix: (Units=GPa)
#
#
# Indices 1 2 3 4 5 6 
#
# 1 90.3368 63.5508 39.4184 0.0000 0.0000 0.0000
# 2 63.5508 140.7402 53.5634 0.0000 0.0000 0.0000
# 3 39.4184 53.5634 100.5880 0.0000 0.0000 0.0000
# 4 0.0000 0.0000 0.0000 33.4820 0.0000 0.0000
# 5 0.0000 0.0000 0.0000 0.0000 28.7759 0.0000
# 6 0.0000 0.0000 0.0000 0.0000 0.0000 31.3105
#
#
#
# Elastic Compliance Matrix: (Units=1/GPa)
#
#
# Indices 1 2 3 4 5 6 
#
# 1 0.017022 -0.006456 -0.003233 0.000000 0.000000 0.000000
# 2 -0.006456 0.011360 -0.003519 0.000000 0.000000 0.000000
# 3 -0.003233 -0.003519 0.013082 0.000000 0.000000 0.000000
# 4 0.000000 0.000000 0.000000 0.029867 0.000000 0.000000
# 5 0.000000 0.000000 0.000000 0.000000 0.034751 0.000000
# 6 0.000000 0.000000 0.000000 0.000000 0.000000 0.031938
#
#
# Mechanical properties :
#
#
# Convention : Reuss Voigt Hill
#
# Bulk Modulus (GPa) = 66.45218 71.63670 69.04444
# Shear Modulus (GPa) = 29.50684 30.38915 29.94799
#
# Velocity S-wave (km/s) = 3.91947 3.97764 3.94866
# Velocity P-wave (km/s) = 7.42160 7.64146 7.53233
#
# Compressibility (1/GPa) = 0.01504842
#
# Stress axis : x y z
#
# Youngs Moduli (GPa) = 58.74772 88.03000 76.43864
#
# Poissons Ratio (x) = 0.56831 0.24711
# Poissons Ratio (y) = 0.37927 0.26900
# Poissons Ratio (z) = 0.18992 0.30979
#
# Static dielectric constant tensor:
#      x y z
#    x 3.230830 0.000000 0.000000 
#    y 0.000000 4.096400 0.000000 
#    z 0.000000 0.000000 3.670610 
# 
# 
# High freq. dielectric constant tensor:
#      x y z
#    x 1.706270 0.000000 0.000000 
#    y 0.000000 1.768160 0.000000 
#    z 0.000000 0.000000 1.762510 
# 
# From -- ./inp_files/11095.got.cif
#   From: 2010.06.25/outbox.cif.g09.slc.cpg/sg71_6_cif.got.tgz:11095.got - 2010.06.28 04:59:45.
