data_PCOD8290406
_publ_section_title
;
Structure prediction by ZEFSAII (Michael W. Deem and Ramdas Pophale) SiO2 
 PCOD8290406
Probable space group: I M M M
;
_chemical_formula_sum "Si O2"
_cell_formula_units_Z 104
_cell_length_a 9.034996
_cell_length_b 23.731262
_cell_length_c 26.715019
_cell_angle_alpha 90.000000
_cell_angle_beta 90.000000
_cell_angle_gamma 90.000000
_cell_volume 5728.016840
_symmetry_space_group_name_H-M "I M M M"
_symmetry_group_IT_number 71
_symmetry_cell_setting 'orthorhombic'
loop_
_space_group_symop_operation_xyz
x,y,z
-x,-y,z
x,-y,-z
-x,y,-z
-x,-y,-z
x,y,-z
-x,y,z
x,-y,z
1/2+x,1/2+y,1/2+z
1/2-x,1/2-y,1/2+z
1/2+x,1/2-y,1/2-z
1/2-x,1/2+y,1/2-z
1/2-x,1/2-y,1/2-z
1/2+x,1/2+y,1/2-z
1/2-x,1/2+y,1/2+z
1/2+x,1/2-y,1/2+z
loop_
_atom_site_type_symbol
_atom_site_label
_atom_site_fract_x
_atom_site_fract_y
_atom_site_fract_z
Si Si1 0.825587 0.155416 0.056589
Si Si2 0.323992 0.659361 0.189121
Si Si3 0.173892 0.064739 0.862251
Si Si4 0.834071 0.562213 0.135179
Si Si5 0.333454 0.857735 0.789508
Si Si6 0.673630 0.500000 0.942311
Si Si7 0.165393 0.264332 0.626103
O O1 0.776282 0.101011 0.089150
O O2 0.762371 0.213434 0.079771
O O3 0.000000 0.161605 0.056653
O O4 0.765606 0.147478 0.000000
O O5 0.500000 0.659933 0.193522
O O6 0.264584 0.599613 0.171175
O O7 0.256486 0.669226 0.243739
O O8 0.268946 0.706889 0.149832
O O9 0.255513 0.086746 0.812343
O O10 0.000000 0.071278 0.852809
O O11 0.218545 0.000000 0.872136
O O12 0.842646 0.500000 0.160247
O O13 0.749524 0.555949 0.081692
O O14 0.000000 0.586816 0.127577
O O15 0.500000 0.873768 0.772500
O O16 0.335982 0.810160 0.830837
O O17 0.500000 0.500000 0.930923
O O18 0.710770 0.500000 0.000000
O O19 0.000000 0.253574 0.605896
#
# Coordination Sequence:
#
# PCOD8290406 Si02
#       7
#    16  16  16  16  16   8  16
#     4   9  18  33  54  79 106 138 175 218 267 313
#     4  11  21  34  54  77 103 135 176 218 261 315
#     4   9  18  33  52  76 107 141 179 218 258 310
#     4   9  20  35  52  76 105 133 167 208 255 307
#     4  10  20  34  52  74 104 138 173 215 266 314
#     4   9  17  33  57  79 101 131 165 203 250 301
#     4   9  20  36  53  76 103 135 174 217 262 315
#
# _framework density 18.156372000000001
#
# number of rings (size 3 to 8) (size 9 to 14) (size 15 to 20)
#    0.462    2.077    0.000    1.846    0.000    4.000 
#    0.000    2.308    0.000    0.923    0.000    4.308 
#    0.000    0.000    0.000    0.000    0.000    0.000 
#
# Total GULP energy -644574.662975 kJ/mol
# GULP energy per Si atom -12395.666596 kJ/mol
# Density = 1.811505 g / cm^3
# Si number density = 18.156372 Si / 1000 Ang^3
#
#
#
# Elastic Constant Matrix: (Units=GPa)
#
#
# Indices 1 2 3 4 5 6 
#
# 1 71.2074 31.0530 36.9725 0.0000 0.0000 0.0000
# 2 31.0530 88.0392 36.7076 0.0000 0.0000 0.0000
# 3 36.9725 36.7076 79.2342 0.0000 0.0000 0.0000
# 4 0.0000 0.0000 0.0000 18.2217 0.0000 0.0000
# 5 0.0000 0.0000 0.0000 0.0000 28.1833 0.0000
# 6 0.0000 0.0000 0.0000 0.0000 0.0000 26.0453
#
#
#
# Elastic Compliance Matrix: (Units=1/GPa)
#
#
# Indices 1 2 3 4 5 6 
#
# 1 0.019521 -0.003827 -0.007336 0.000000 0.000000 0.000000
# 2 -0.003827 0.014828 -0.005084 0.000000 0.000000 0.000000
# 3 -0.007336 -0.005084 0.018399 0.000000 0.000000 0.000000
# 4 0.000000 0.000000 0.000000 0.054880 0.000000 0.000000
# 5 0.000000 0.000000 0.000000 0.000000 0.035482 0.000000
# 6 0.000000 0.000000 0.000000 0.000000 0.000000 0.038395
#
#
# Mechanical properties :
#
#
# Convention : Reuss Voigt Hill
#
# Bulk Modulus (GPa) = 49.37049 49.77187 49.57118
# Shear Modulus (GPa) = 22.64998 23.40657 23.02828
#
# Velocity S-wave (km/s) = 3.53582 3.59439 3.56523
# Velocity P-wave (km/s) = 6.62723 6.68570 6.65653
#
# Compressibility (1/GPa) = 0.02025502
#
# Stress axis : x y z
#
# Youngs Moduli (GPa) = 51.22560 67.43984 54.34970
#
# Poissons Ratio (x) = 0.25807 0.39873
# Poissons Ratio (y) = 0.19603 0.27631
# Poissons Ratio (z) = 0.37581 0.34286
#
# Static dielectric constant tensor:
#      x y z
#    x 3.481730 0.000000 0.000000 
#    y 0.000000 3.320680 0.000000 
#    z 0.000000 0.000000 3.364970 
# 
# 
# High freq. dielectric constant tensor:
#      x y z
#    x 1.708920 0.000000 0.000000 
#    y 0.000000 1.693350 0.000000 
#    z 0.000000 0.000000 1.693640 
# 
# From -- ./inp_files/68447.got.cif
#   From: 2010.06.25/outbox.cif.g09.slc.cpg/sg71_35_cif.got.tgz:68447.got - 2010.06.28 04:59:45.
