data_PCOD8290334
_publ_section_title
;
Structure prediction by ZEFSAII (Michael W. Deem and Ramdas Pophale) SiO2 
 PCOD8290334
Probable space group: I M M M
;
_chemical_formula_sum "Si O2"
_cell_formula_units_Z 64
_cell_length_a 23.960834
_cell_length_b 8.660363
_cell_length_c 15.679585
_cell_angle_alpha 90.000000
_cell_angle_beta 90.000000
_cell_angle_gamma 90.000000
_cell_volume 3253.663161
_symmetry_space_group_name_H-M "I M M M"
_symmetry_group_IT_number 71
_symmetry_cell_setting 'orthorhombic'
loop_
_space_group_symop_operation_xyz
x,y,z
-x,-y,z
x,-y,-z
-x,y,-z
-x,-y,-z
x,y,-z
-x,y,z
x,-y,z
1/2+x,1/2+y,1/2+z
1/2-x,1/2-y,1/2+z
1/2+x,1/2-y,1/2-z
1/2-x,1/2+y,1/2-z
1/2-x,1/2-y,1/2-z
1/2+x,1/2+y,1/2-z
1/2-x,1/2+y,1/2+z
1/2+x,1/2-y,1/2+z
loop_
_atom_site_type_symbol
_atom_site_label
_atom_site_fract_x
_atom_site_fract_y
_atom_site_fract_z
Si Si1 0.228981 0.682961 0.661515
Si Si2 0.610728 0.183664 0.095900
Si Si3 0.500000 0.323750 0.637639
Si Si4 0.290792 0.819774 0.500000
Si Si5 0.000000 0.319274 0.316782
Si Si6 0.908118 0.822953 0.000000
O O1 0.233907 0.500000 0.663617
O O2 0.250000 0.750000 0.750000
O O3 0.165165 0.737804 0.648023
O O4 0.266120 0.743707 0.584380
O O5 0.555504 0.253436 0.140591
O O6 0.608164 0.000000 0.093834
O O7 0.614434 0.249377 0.000000
O O8 0.500000 0.500000 0.669499
O O9 0.500000 0.209864 0.716757
O O10 0.444846 0.289573 0.583312
O O11 0.356940 0.793888 0.500000
O O12 0.277451 0.000000 0.500000
O O13 0.000000 0.500000 0.333970
O O14 0.887131 0.000000 0.000000
#
# Coordination Sequence:
#
# PCOD8290334 Si02
#       6
#    16  16   8   8   8   8
#     4  11  23  41  63  90 125 164 205 254 309 370
#     4   9  18  36  60  85 115 152 195 242 296 354
#     4   9  20  39  59  84 118 156 194 237 300 366
#     4  12  25  41  63  93 123 160 210 258 309 368
#     4  10  20  33  59  91 116 146 193 248 297 350
#     4   9  20  40  62  82 115 161 199 238 298 365
#
# _framework density 19.670137
#
# number of rings (size 3 to 8) (size 9 to 14) (size 15 to 20)
#    0.000    2.000    1.250    3.000    3.500    2.500 
#    0.000    2.500    0.000    0.750    0.000    0.000 
#    0.000    0.000    0.000    0.000    0.000    0.000 
#
# Total GULP energy -396848.616777 kJ/mol
# GULP energy per Si atom -12401.519274 kJ/mol
# Density = 1.962537 g / cm^3
# Si number density = 19.670137 Si / 1000 Ang^3
#
#
#
# Elastic Constant Matrix: (Units=GPa)
#
#
# Indices 1 2 3 4 5 6 
#
# 1 176.3263 37.7132 86.0231 0.0000 0.0000 0.0000
# 2 37.7132 52.2546 33.8603 0.0000 0.0000 0.0000
# 3 86.0231 33.8603 174.0958 0.0000 0.0000 0.0000
# 4 0.0000 0.0000 0.0000 34.9916 0.0000 0.0000
# 5 0.0000 0.0000 0.0000 0.0000 65.7070 0.0000
# 6 0.0000 0.0000 0.0000 0.0000 0.0000 20.4948
#
#
#
# Elastic Compliance Matrix: (Units=1/GPa)
#
#
# Indices 1 2 3 4 5 6 
#
# 1 0.008053 -0.003700 -0.003259 0.000000 0.000000 0.000000
# 2 -0.003700 0.023597 -0.002761 0.000000 0.000000 0.000000
# 3 -0.003259 -0.002761 0.007892 0.000000 0.000000 0.000000
# 4 0.000000 0.000000 0.000000 0.028578 0.000000 0.000000
# 5 0.000000 0.000000 0.000000 0.000000 0.015219 0.000000
# 6 0.000000 0.000000 0.000000 0.000000 0.000000 0.048793
#
#
# Mechanical properties :
#
#
# Convention : Reuss Voigt Hill
#
# Bulk Modulus (GPa) = 49.75134 79.76335 64.75734
# Shear Modulus (GPa) = 31.59123 40.57736 36.08429
#
# Velocity S-wave (km/s) = 4.01190 4.54683 4.28772
# Velocity P-wave (km/s) = 6.84165 8.25854 7.58326
#
# Compressibility (1/GPa) = 0.02009996
#
# Stress axis : x y z
#
# Youngs Moduli (GPa) = 124.18092 42.37913 126.71838
#
# Poissons Ratio (x) = 0.15679 0.41303
# Poissons Ratio (y) = 0.45944 0.34990
# Poissons Ratio (z) = 0.40476 0.11702
#
# Static dielectric constant tensor:
#      x y z
#    x 3.925110 0.000000 0.000000 
#    y 0.000000 3.291260 0.000000 
#    z 0.000000 0.000000 3.987960 
# 
# 
# High freq. dielectric constant tensor:
#      x y z
#    x 1.784930 0.000000 0.000000 
#    y 0.000000 1.738050 0.000000 
#    z 0.000000 0.000000 1.777010 
# 
# From -- ./inp_files/5926.got.cif
#   From: 2010.06.25/outbox.cif.g09.slc.cpg/sg71_3_cif.got.tgz:5926.got - 2010.06.28 04:59:45.
