data_PCOD8290541
_publ_section_title
;
Structure prediction by ZEFSAII (Michael W. Deem and Ramdas Pophale) SiO2 
 PCOD8290541
Probable space group: I M M M
;
_chemical_formula_sum "Si O2"
_cell_formula_units_Z 112
_cell_length_a 26.182639
_cell_length_b 14.089438
_cell_length_c 14.852042
_cell_angle_alpha 90.000000
_cell_angle_beta 90.000000
_cell_angle_gamma 90.000000
_cell_volume 5478.898524
_symmetry_space_group_name_H-M "I M M M"
_symmetry_group_IT_number 71
_symmetry_cell_setting 'orthorhombic'
loop_
_space_group_symop_operation_xyz
x,y,z
-x,-y,z
x,-y,-z
-x,y,-z
-x,-y,-z
x,y,-z
-x,y,z
x,-y,z
1/2+x,1/2+y,1/2+z
1/2-x,1/2-y,1/2+z
1/2+x,1/2-y,1/2-z
1/2-x,1/2+y,1/2-z
1/2-x,1/2-y,1/2-z
1/2+x,1/2+y,1/2-z
1/2-x,1/2+y,1/2+z
1/2+x,1/2-y,1/2+z
loop_
_atom_site_type_symbol
_atom_site_label
_atom_site_fract_x
_atom_site_fract_y
_atom_site_fract_z
Si Si1 0.616190 0.112686 0.722072
Si Si2 0.750561 0.896191 0.896539
Si Si3 0.290009 0.110223 0.398335
Si Si4 0.558102 0.244280 0.602667
Si Si5 0.851723 0.697405 0.400312
Si Si6 0.641800 0.393219 0.343047
Si Si7 0.825245 0.104519 0.358082
O O1 0.666456 0.151205 0.668570
O O2 0.568622 0.153113 0.665512
O O3 0.611286 0.156733 0.822992
O O4 0.613006 0.000000 0.729653
O O5 0.704425 0.831225 0.862512
O O6 0.805485 0.847030 0.880905
O O7 0.748961 0.000000 0.846612
O O8 0.741187 0.913777 0.000000
O O9 0.291385 0.155883 0.500000
O O10 0.235107 0.127862 0.352287
O O11 0.301597 0.000000 0.408974
O O12 0.568179 0.213483 0.500000
O O13 0.500000 0.277250 0.617195
O O14 0.593379 0.333028 0.627974
O O15 0.864978 0.655169 0.500000
O O16 0.853245 0.811574 0.412275
O O17 0.635101 0.500000 0.382057
O O18 0.647038 0.396009 0.236814
O O19 0.832474 0.000000 0.403977
#
# Coordination Sequence:
#
# PCOD8290541 Si02
#       7
#    16  16  16  16  16  16  16
#     4  11  23  40  61  86 119 159 200 246 297 349
#     4   9  18  31  49  80 121 160 196 233 276 336
#     4   9  18  32  52  83 123 163 199 234 277 339
#     4  11  25  43  64  91 119 150 194 246 301 360
#     4  11  22  35  57  89 123 162 201 241 289 345
#     4  10  20  37  60  86 119 160 201 243 294 350
#     4  10  20  34  53  83 123 161 199 241 285 341
#
# _framework density 20.442066000000001
#
# number of rings (size 3 to 8) (size 9 to 14) (size 15 to 20)
#    0.000    1.857    1.429    2.571    2.000    7.429 
#    0.000    1.429    0.000    0.429    0.000    1.000 
#    0.000    2.286    0.000    0.000    0.000    0.000 
#
# Total GULP energy -694008.878906 kJ/mol
# GULP energy per Si atom -12393.015695 kJ/mol
# Density = 2.039554 g / cm^3
# Si number density = 20.442066 Si / 1000 Ang^3
#
#
#
# Elastic Constant Matrix: (Units=GPa)
#
#
# Indices 1 2 3 4 5 6 
#
# 1 69.7212 17.8881 46.1390 0.0000 0.0000 0.0000
# 2 17.8881 69.1025 30.1792 0.0000 0.0000 0.0000
# 3 46.1390 30.1792 117.0002 0.0000 0.0000 0.0000
# 4 0.0000 0.0000 0.0000 22.2098 0.0000 0.0000
# 5 0.0000 0.0000 0.0000 0.0000 25.4440 0.0000
# 6 0.0000 0.0000 0.0000 0.0000 0.0000 19.1803
#
#
#
# Elastic Compliance Matrix: (Units=1/GPa)
#
#
# Indices 1 2 3 4 5 6 
#
# 1 0.019630 -0.001917 -0.007247 0.000000 0.000000 0.000000
# 2 -0.001917 0.016496 -0.003499 0.000000 0.000000 0.000000
# 3 -0.007247 -0.003499 0.012307 0.000000 0.000000 0.000000
# 4 0.000000 0.000000 0.000000 0.045025 0.000000 0.000000
# 5 0.000000 0.000000 0.000000 0.000000 0.039302 0.000000
# 6 0.000000 0.000000 0.000000 0.000000 0.000000 0.052137
#
#
# Mechanical properties :
#
#
# Convention : Reuss Voigt Hill
#
# Bulk Modulus (GPa) = 43.27482 49.35959 46.31721
# Shear Modulus (GPa) = 22.94368 24.14132 23.54250
#
# Velocity S-wave (km/s) = 3.35382 3.44024 3.39731
# Velocity P-wave (km/s) = 6.01772 6.32288 6.17219
#
# Compressibility (1/GPa) = 0.02310813
#
# Stress axis : x y z
#
# Youngs Moduli (GPa) = 50.94172 60.62239 81.25250
#
# Poissons Ratio (x) = 0.11619 0.58882
# Poissons Ratio (y) = 0.09764 0.28431
# Poissons Ratio (z) = 0.36916 0.21212
#
# Static dielectric constant tensor:
#      x y z
#    x 3.319960 0.000000 0.000000 
#    y 0.000000 3.978510 0.000000 
#    z 0.000000 0.000000 3.751220 
# 
# 
# High freq. dielectric constant tensor:
#      x y z
#    x 1.740320 0.000000 0.000000 
#    y 0.000000 1.808350 0.000000 
#    z 0.000000 0.000000 1.807800 
# 
# From -- ./inp_files/34878.got.cif
#   From: 2010.06.25/outbox.cif.g09.slc.cpg/sg71_18_cif.got.tgz:34878.got - 2010.06.28 04:59:45.
