data_PCOD8290131
_publ_section_title
;
Structure prediction by ZEFSAII (Michael W. Deem and Ramdas Pophale) SiO2 
 PCOD8290131
Probable space group: I M M M
;
_chemical_formula_sum "Si O2"
_cell_formula_units_Z 120
_cell_length_a 22.744493
_cell_length_b 17.916902
_cell_length_c 16.776850
_cell_angle_alpha 90.000000
_cell_angle_beta 90.000000
_cell_angle_gamma 90.000000
_cell_volume 6836.748439
_symmetry_space_group_name_H-M "I M M M"
_symmetry_group_IT_number 71
_symmetry_cell_setting 'orthorhombic'
loop_
_space_group_symop_operation_xyz
x,y,z
-x,-y,z
x,-y,-z
-x,y,-z
-x,-y,-z
x,y,-z
-x,y,z
x,-y,z
1/2+x,1/2+y,1/2+z
1/2-x,1/2-y,1/2+z
1/2+x,1/2-y,1/2-z
1/2-x,1/2+y,1/2-z
1/2-x,1/2-y,1/2-z
1/2+x,1/2+y,1/2-z
1/2-x,1/2+y,1/2+z
1/2+x,1/2-y,1/2+z
loop_
_atom_site_type_symbol
_atom_site_label
_atom_site_fract_x
_atom_site_fract_y
_atom_site_fract_z
Si Si1 0.657938 0.191388 0.406610
Si Si2 0.224203 0.915103 0.184111
Si Si3 0.066122 0.414357 0.170462
Si Si4 0.621582 0.646667 0.594457
Si Si5 0.432161 0.914176 0.144561
Si Si6 0.226578 0.195216 0.316167
Si Si7 0.324229 0.176516 0.907421
Si Si8 0.000000 0.083852 0.905069
O O1 0.663948 0.195550 0.500000
O O2 0.609179 0.131791 0.384440
O O3 0.639225 0.272067 0.372270
O O4 0.720468 0.167778 0.372035
O O5 0.168211 0.913329 0.126104
O O6 0.204317 0.877889 0.268652
O O7 0.278953 0.874758 0.141427
O O8 0.242845 0.000000 0.200425
O O9 0.072695 0.500000 0.145784
O O10 0.081913 0.403474 0.262651
O O11 0.000000 0.386593 0.153893
O O12 0.622200 0.643606 0.500000
O O13 0.557140 0.626773 0.627647
O O14 0.500000 0.893713 0.125544
O O15 0.389591 0.858146 0.097094
O O16 0.420216 0.000000 0.119136
O O17 0.250000 0.250000 0.250000
O O18 0.177815 0.239465 0.369492
O O19 0.305106 0.180686 0.000000
O O20 0.000000 0.000000 0.871290
O O21 0.000000 0.082588 0.000000
#
# Coordination Sequence:
#
# PCOD8290131 Si02
#       8
#    16  16  16  16  16  16  16   8
#     4  11  21  33  51  75 104 139 177 221 265 309
#     4  11  22  35  56  80 103 135 177 222 264 314
#     4   9  19  35  53  74 105 146 187 222 256 304
#     4  10  20  33  50  77 107 136 170 209 263 319
#     4   9  19  35  54  78 109 142 174 213 266 323
#     4  10  20  36  53  71 104 137 173 214 266 315
#     4  11  21  34  54  80 108 139 175 218 269 322
#     4   9  18  32  48  68 103 141 164 196 252 315
#
# _framework density 17.552202999999999
#
# number of rings (size 3 to 8) (size 9 to 14) (size 15 to 20)
#    0.000    1.933    2.667    4.000    0.933    4.800 
#    0.000    1.333    0.000    1.200    0.000    0.000 
#    0.000    0.000    0.000    1.200    0.000    0.000 
#
# Total GULP energy -743868.534095 kJ/mol
# GULP energy per Si atom -12397.808902 kJ/mol
# Density = 1.751225 g / cm^3
# Si number density = 17.552203 Si / 1000 Ang^3
#
#
#
# Elastic Constant Matrix: (Units=GPa)
#
#
# Indices 1 2 3 4 5 6 
#
# 1 92.8269 23.4145 20.6821 0.0000 0.0000 0.0000
# 2 23.4145 66.2092 30.0759 0.0000 0.0000 0.0000
# 3 20.6821 30.0759 51.2324 0.0000 0.0000 0.0000
# 4 0.0000 0.0000 0.0000 16.1294 0.0000 0.0000
# 5 0.0000 0.0000 0.0000 0.0000 25.5825 0.0000
# 6 0.0000 0.0000 0.0000 0.0000 0.0000 30.6916
#
#
#
# Elastic Compliance Matrix: (Units=1/GPa)
#
#
# Indices 1 2 3 4 5 6 
#
# 1 0.012216 -0.002836 -0.003266 0.000000 0.000000 0.000000
# 2 -0.002836 0.021255 -0.011332 0.000000 0.000000 0.000000
# 3 -0.003266 -0.011332 0.027490 0.000000 0.000000 0.000000
# 4 0.000000 0.000000 0.000000 0.061998 0.000000 0.000000
# 5 0.000000 0.000000 0.000000 0.000000 0.039089 0.000000
# 6 0.000000 0.000000 0.000000 0.000000 0.000000 0.032582
#
#
# Mechanical properties :
#
#
# Convention : Reuss Voigt Hill
#
# Bulk Modulus (GPa) = 38.32840 39.84596 39.08718
# Shear Modulus (GPa) = 20.99096 23.55376 22.27236
#
# Velocity S-wave (km/s) = 3.46195 3.66721 3.56606
# Velocity P-wave (km/s) = 6.15340 6.37823 6.26683
#
# Compressibility (1/GPa) = 0.02609031
#
# Stress axis : x y z
#
# Youngs Moduli (GPa) = 81.86030 47.04883 36.37657
#
# Poissons Ratio (x) = 0.13344 0.11882
# Poissons Ratio (y) = 0.23218 0.41224
# Poissons Ratio (z) = 0.26739 0.53318
#
# Static dielectric constant tensor:
#      x y z
#    x 3.340170 0.000000 0.000000 
#    y 0.000000 3.528020 0.000000 
#    z 0.000000 0.000000 3.324710 
# 
# 
# High freq. dielectric constant tensor:
#      x y z
#    x 1.676610 0.000000 0.000000 
#    y 0.000000 1.668480 0.000000 
#    z 0.000000 0.000000 1.664370 
# 
# From -- ./inp_files/47586.got.cif
#   From: 2010.06.25/outbox.cif.g09.slc.cpg/sg71_24_cif.got.tgz:47586.got - 2010.06.28 04:59:45.
