data_PCOD8290724
_publ_section_title
;
Structure prediction by ZEFSAII (Michael W. Deem and Ramdas Pophale) SiO2 
 PCOD8290724
Probable space group: I M M M
;
_chemical_formula_sum "Si O2"
_cell_formula_units_Z 80
_cell_length_a 28.729802
_cell_length_b 8.829562
_cell_length_c 15.498743
_cell_angle_alpha 90.000000
_cell_angle_beta 90.000000
_cell_angle_gamma 90.000000
_cell_volume 3931.590439
_symmetry_space_group_name_H-M "I M M M"
_symmetry_group_IT_number 71
_symmetry_cell_setting 'orthorhombic'
loop_
_space_group_symop_operation_xyz
x,y,z
-x,-y,z
x,-y,-z
-x,y,-z
-x,-y,-z
x,y,-z
-x,y,z
x,-y,z
1/2+x,1/2+y,1/2+z
1/2-x,1/2-y,1/2+z
1/2+x,1/2-y,1/2-z
1/2-x,1/2+y,1/2-z
1/2-x,1/2-y,1/2-z
1/2+x,1/2+y,1/2-z
1/2-x,1/2+y,1/2+z
1/2+x,1/2-y,1/2+z
loop_
_atom_site_type_symbol
_atom_site_label
_atom_site_fract_x
_atom_site_fract_y
_atom_site_fract_z
Si Si1 0.642495 0.326241 0.403294
Si Si2 0.552459 0.823913 0.649559
Si Si3 0.853074 0.825555 0.403524
Si Si4 0.948839 0.828340 0.672049
Si Si5 0.699662 0.177973 0.748277
O O1 0.662883 0.307095 0.500000
O O2 0.644503 0.500000 0.373349
O O3 0.588994 0.271856 0.405778
O O4 0.672393 0.229065 0.336855
O O5 0.500000 0.782584 0.619619
O O6 0.559400 0.786797 0.749964
O O7 0.562787 0.000000 0.635307
O O8 0.837387 0.779685 0.500000
O O9 0.908819 0.800130 0.398271
O O10 0.827187 0.721478 0.335133
O O11 0.840340 0.000000 0.384446
O O12 0.000000 0.800804 0.630124
O O13 0.945448 0.000000 0.708344
O O14 0.750000 0.250000 0.750000
O O15 0.705194 0.000000 0.744781
#
# Coordination Sequence:
#
# PCOD8290724 Si02
#       5
#    16  16  16  16  16
#     4  11  24  42  65  93 125 161 205 255 308 369
#     4  10  20  34  56  88 126 167 208 251 302 360
#     4  10  21  38  62  93 129 166 206 251 299 358
#     4   9  17  31  55  86 123 167 209 248 292 349
#     4  12  26  45  69  92 120 158 200 254 314 372
#
# _framework density 20.347998
#
# number of rings (size 3 to 8) (size 9 to 14) (size 15 to 20)
#    0.000    1.600    2.000    3.000    0.000    4.800 
#    0.000    4.000    0.000    0.000    0.000    4.200 
#    0.000    0.000    0.000    0.000    0.000    0.000 
#
# Total GULP energy -495999.872439 kJ/mol
# GULP energy per Si atom -12399.996811 kJ/mol
# Density = 2.030168 g / cm^3
# Si number density = 20.347998 Si / 1000 Ang^3
#
#
#
# Elastic Constant Matrix: (Units=GPa)
#
#
# Indices 1 2 3 4 5 6 
#
# 1 129.4707 59.0010 55.5926 0.0000 0.0000 0.0000
# 2 59.0010 127.9159 56.1572 0.0000 0.0000 0.0000
# 3 55.5926 56.1572 112.5872 0.0000 0.0000 0.0000
# 4 0.0000 0.0000 0.0000 14.0053 0.0000 0.0000
# 5 0.0000 0.0000 0.0000 0.0000 7.4472 0.0000
# 6 0.0000 0.0000 0.0000 0.0000 0.0000 35.0480
#
#
#
# Elastic Compliance Matrix: (Units=1/GPa)
#
#
# Indices 1 2 3 4 5 6 
#
# 1 0.010842 -0.003394 -0.003661 0.000000 0.000000 0.000000
# 2 -0.003394 0.011072 -0.003847 0.000000 0.000000 0.000000
# 3 -0.003661 -0.003847 0.012608 0.000000 0.000000 0.000000
# 4 0.000000 0.000000 0.000000 0.071402 0.000000 0.000000
# 5 0.000000 0.000000 0.000000 0.000000 0.134279 0.000000
# 6 0.000000 0.000000 0.000000 0.000000 0.000000 0.028532
#
#
# Mechanical properties :
#
#
# Convention : Reuss Voigt Hill
#
# Bulk Modulus (GPa) = 78.61836 79.05282 78.83559
# Shear Modulus (GPa) = 16.96191 24.58162 20.77177
#
# Velocity S-wave (km/s) = 2.89033 3.47949 3.19850
# Velocity P-wave (km/s) = 7.06112 7.42140 7.24350
#
# Compressibility (1/GPa) = 0.01271968
#
# Stress axis : x y z
#
# Youngs Moduli (GPa) = 92.23187 90.31966 79.31272
#
# Poissons Ratio (x) = 0.30653 0.29035
# Poissons Ratio (y) = 0.31302 0.30509
# Poissons Ratio (z) = 0.33764 0.34743
#
# Static dielectric constant tensor:
#      x y z
#    x 3.939820 0.000000 0.000000 
#    y 0.000000 3.725220 0.000000 
#    z 0.000000 0.000000 3.517660 
# 
# 
# High freq. dielectric constant tensor:
#      x y z
#    x 1.801180 0.000000 0.000000 
#    y 0.000000 1.795040 0.000000 
#    z 0.000000 0.000000 1.784510 
# 
# From -- ./inp_files/48590.got.cif
#   From: 2010.06.25/outbox.cif.g09.slc.cpg/sg71_25_cif.got.tgz:48590.got - 2010.06.28 04:59:45.
