data_PCOD8290289
_publ_section_title
;
Structure prediction by ZEFSAII (Michael W. Deem and Ramdas Pophale) SiO2 
 PCOD8290289
Probable space group: I M M M
;
_chemical_formula_sum "Si O2"
_cell_formula_units_Z 72
_cell_length_a 13.050992
_cell_length_b 32.074478
_cell_length_c 9.514421
_cell_angle_alpha 90.000000
_cell_angle_beta 90.000000
_cell_angle_gamma 90.000000
_cell_volume 3982.772365
_symmetry_space_group_name_H-M "I M M M"
_symmetry_group_IT_number 71
_symmetry_cell_setting 'orthorhombic'
loop_
_space_group_symop_operation_xyz
x,y,z
-x,-y,z
x,-y,-z
-x,y,-z
-x,-y,-z
x,y,-z
-x,y,z
x,-y,z
1/2+x,1/2+y,1/2+z
1/2-x,1/2-y,1/2+z
1/2+x,1/2-y,1/2-z
1/2-x,1/2+y,1/2-z
1/2-x,1/2-y,1/2-z
1/2+x,1/2+y,1/2-z
1/2-x,1/2+y,1/2+z
1/2+x,1/2-y,1/2+z
loop_
_atom_site_type_symbol
_atom_site_label
_atom_site_fract_x
_atom_site_fract_y
_atom_site_fract_z
Si Si1 0.298074 0.312209 0.164013
Si Si2 0.000000 0.047071 0.333118
Si Si3 0.613040 0.244034 0.341812
Si Si4 0.206021 0.907601 0.333163
Si Si5 0.117158 0.451305 0.338175
O O1 0.382103 0.285037 0.245202
O O2 0.187824 0.293074 0.205987
O O3 0.302799 0.359713 0.213816
O O4 0.322229 0.308939 0.000000
O O5 0.897283 0.069826 0.278613
O O6 0.000000 0.047581 0.500000
O O7 0.000000 0.000000 0.274412
O O8 0.639613 0.258176 0.500000
O O9 0.500000 0.224938 0.330550
O O10 0.219494 0.912306 0.500000
O O11 0.306184 0.926512 0.261618
O O12 0.140509 0.440242 0.500000
O O13 0.134056 0.500000 0.311015
O O14 0.000000 0.438974 0.300891
#
# Coordination Sequence:
#
# PCOD8290289 Si02
#       5
#    16   8  16  16  16
#     4   9  19  33  50  75 102 129 168 213 256 304
#     4   9  18  32  49  73 107 141 171 211 263 309
#     4   9  18  33  51  70  98 134 168 207 256 307
#     4  10  20  33  53  79 105 136 175 219 261 309
#     4   9  19  36  55  75 103 138 172 211 261 312
#
# _framework density 18.077860000000001
#
# number of rings (size 3 to 8) (size 9 to 14) (size 15 to 20)
#    0.000    2.778    0.000    1.333    1.556    4.000 
#    0.000    3.889    0.000    2.000    0.000    0.000 
#    0.000    0.000    0.000    0.000    0.000    0.000 
#
# Total GULP energy -446346.549048 kJ/mol
# GULP energy per Si atom -12398.515251 kJ/mol
# Density = 1.803671 g / cm^3
# Si number density = 18.077860 Si / 1000 Ang^3
#
#
#
# Elastic Constant Matrix: (Units=GPa)
#
#
# Indices 1 2 3 4 5 6 
#
# 1 115.8264 62.9275 33.6348 0.0001 0.0013 -0.0001
# 2 62.9275 136.2481 36.8905 -0.0005 0.0004 0.0001
# 3 33.6348 36.8905 36.5696 -0.0021 0.0062 0.0004
# 4 0.0001 -0.0005 -0.0021 22.5267 0.0000 0.0001
# 5 0.0013 0.0004 0.0062 0.0000 27.9104 0.0000
# 6 -0.0001 0.0001 0.0004 0.0001 0.0000 18.9660
#
#
#
# Elastic Compliance Matrix: (Units=1/GPa)
#
#
# Indices 1 2 3 4 5 6 
#
# 1 0.013089 -0.003833 -0.008172 -0.000001 0.000001 0.000000
# 2 -0.003833 0.011220 -0.007793 0.000000 0.000002 0.000000
# 3 -0.008172 -0.007793 0.042723 0.000004 -0.000009 -0.000001
# 4 -0.000001 0.000000 0.000004 0.044392 0.000000 0.000000
# 5 0.000001 0.000002 -0.000009 0.000000 0.035829 0.000000
# 6 0.000000 0.000000 -0.000001 0.000000 0.000000 0.052726
#
#
# Mechanical properties :
#
#
# Convention : Reuss Voigt Hill
#
# Bulk Modulus (GPa) = 36.44892 61.72776 49.08834
# Shear Modulus (GPa) = 20.10293 24.22671 22.16482
#
# Velocity S-wave (km/s) = 3.33831 3.66475 3.50533
# Velocity P-wave (km/s) = 5.92158 7.21989 6.60272
#
# Compressibility (1/GPa) = 0.02743566
#
# Stress axis : x y z
#
# Youngs Moduli (GPa) = 76.40032 89.12868 23.40647
#
# Poissons Ratio (x) = 0.34159 0.19129
# Poissons Ratio (y) = 0.29280 0.18241
# Poissons Ratio (z) = 0.62437 0.69460
#
# Static dielectric constant tensor:
#      x y z
#    x 3.416000 0.000000 0.000000 
#    y 0.000000 3.369870 0.000000 
#    z 0.000000 0.000000 3.177440 
# 
# 
# High freq. dielectric constant tensor:
#      x y z
#    x 1.709900 0.000000 0.000000 
#    y 0.000000 1.697800 0.000000 
#    z 0.000000 0.000000 1.682000 
# 
# From -- ./inp_files/6502.got.cif
#   From: 2010.06.25/outbox.cif.g09.slc.cpg/sg71_4_cif.got.tgz:6502.got - 2010.06.28 04:59:45.
