data_PCOD8290161
_publ_section_title
;
Structure prediction by ZEFSAII (Michael W. Deem and Ramdas Pophale) SiO2 
 PCOD8290161
Probable space group: I M M M
;
_chemical_formula_sum "Si O2"
_cell_formula_units_Z 120
_cell_length_a 26.376939
_cell_length_b 9.506304
_cell_length_c 26.825583
_cell_angle_alpha 90.000000
_cell_angle_beta 90.000000
_cell_angle_gamma 90.000000
_cell_volume 6726.439845
_symmetry_space_group_name_H-M "I M M M"
_symmetry_group_IT_number 71
_symmetry_cell_setting 'orthorhombic'
loop_
_space_group_symop_operation_xyz
x,y,z
-x,-y,z
x,-y,-z
-x,y,-z
-x,-y,-z
x,y,-z
-x,y,z
x,-y,z
1/2+x,1/2+y,1/2+z
1/2-x,1/2-y,1/2+z
1/2+x,1/2-y,1/2-z
1/2-x,1/2+y,1/2-z
1/2-x,1/2-y,1/2-z
1/2+x,1/2+y,1/2-z
1/2-x,1/2+y,1/2+z
1/2+x,1/2-y,1/2+z
loop_
_atom_site_type_symbol
_atom_site_label
_atom_site_fract_x
_atom_site_fract_y
_atom_site_fract_z
Si Si1 0.057080 0.167022 0.500000
Si Si2 0.939692 0.341758 0.054608
Si Si3 0.057329 0.839096 0.855229
Si Si4 0.269524 0.338056 0.646284
Si Si5 0.742657 0.338505 0.943976
Si Si6 0.871053 0.836451 0.412125
Si Si7 0.156364 0.335207 0.319934
Si Si8 0.857045 0.162862 0.778534
O O1 0.086075 0.217919 0.450356
O O2 0.000000 0.228335 0.500000
O O3 0.056938 0.000000 0.500000
O O4 0.920978 0.500000 0.064540
O O5 0.917801 0.244897 0.098545
O O6 0.000000 0.333911 0.055166
O O7 0.920093 0.291411 0.000000
O O8 0.089521 0.814307 0.805689
O O9 0.000000 0.789425 0.843503
O O10 0.058818 0.000000 0.871958
O O11 0.276962 0.500000 0.632184
O O12 0.274970 0.252472 0.594968
O O13 0.215718 0.308595 0.671742
O O14 0.312023 0.288123 0.684996
O O15 0.756027 0.500000 0.933680
O O16 0.682878 0.312345 0.938151
O O17 0.758212 0.294709 0.000000
O O18 0.875976 0.740638 0.363072
O O19 0.878651 0.000000 0.397536
O O20 0.142900 0.500000 0.318995
O O21 0.141336 0.264614 0.268284
O O22 0.849383 0.000000 0.762320
#
# Coordination Sequence:
#
# PCOD8290161 Si02
#       8
#     8  16  16  16  16  16  16  16
#     4   9  16  28  51  81 107 133 171 213 246 285
#     4   8  14  26  45  68  92 118 150 188 230 275
#     4   9  18  32  50  71  92 118 157 199 236 280
#     4   9  19  33  49  72  99 126 159 200 247 295
#     4   9  16  28  48  73 100 131 165 199 238 291
#     4   9  16  30  51  74 100 130 164 201 242 287
#     4  10  20  33  51  75  98 123 162 204 242 292
#     4  10  20  35  52  70  96 128 160 200 249 293
#
# _framework density 17.840046999999998
#
# number of rings (size 3 to 8) (size 9 to 14) (size 15 to 20)
#    0.000    2.867    0.667    1.200    0.000    2.133 
#    0.000    3.000    0.000    8.800    0.000    0.000 
#    0.000    0.000    0.000    0.000    0.000    0.000 
#
# Total GULP energy -743928.001732 kJ/mol
# GULP energy per Si atom -12398.800029 kJ/mol
# Density = 1.779944 g / cm^3
# Si number density = 17.840047 Si / 1000 Ang^3
#
#
#
# Elastic Constant Matrix: (Units=GPa)
#
#
# Indices 1 2 3 4 5 6 
#
# 1 65.9937 31.3881 51.1567 0.0000 0.0000 0.0000
# 2 31.3881 82.8105 81.6251 0.0000 0.0000 0.0000
# 3 51.1567 81.6251 160.4923 0.0000 0.0000 0.0000
# 4 0.0000 0.0000 0.0000 37.0103 0.0000 0.0000
# 5 0.0000 0.0000 0.0000 0.0000 18.2150 0.0000
# 6 0.0000 0.0000 0.0000 0.0000 0.0000 16.0488
#
#
#
# Elastic Compliance Matrix: (Units=1/GPa)
#
#
# Indices 1 2 3 4 5 6 
#
# 1 0.020413 -0.002654 -0.005156 0.000000 0.000000 0.000000
# 2 -0.002654 0.024560 -0.011645 0.000000 0.000000 0.000000
# 3 -0.005156 -0.011645 0.013797 0.000000 0.000000 0.000000
# 4 0.000000 0.000000 0.000000 0.027020 0.000000 0.000000
# 5 0.000000 0.000000 0.000000 0.000000 0.054900 0.000000
# 6 0.000000 0.000000 0.000000 0.000000 0.000000 0.062310
#
#
# Mechanical properties :
#
#
# Convention : Reuss Voigt Hill
#
# Bulk Modulus (GPa) = 50.35757 70.84846 60.60302
# Shear Modulus (GPa) = 20.11828 23.92993 22.02410
#
# Velocity S-wave (km/s) = 3.36177 3.66643 3.51740
# Velocity P-wave (km/s) = 6.58462 7.59757 7.10916
#
# Compressibility (1/GPa) = 0.01985799
#
# Stress axis : x y z
#
# Youngs Moduli (GPa) = 48.98919 40.71622 72.47945
#
# Poissons Ratio (x) = 0.10808 0.37374
# Poissons Ratio (y) = 0.13004 0.84403
# Poissons Ratio (z) = 0.25261 0.47414
#
# Static dielectric constant tensor:
#      x y z
#    x 3.206300 0.000000 0.000000 
#    y 0.000000 3.267390 0.000000 
#    z 0.000000 0.000000 3.414610 
# 
# 
# High freq. dielectric constant tensor:
#      x y z
#    x 1.667160 0.000000 0.000000 
#    y 0.000000 1.679610 0.000000 
#    z 0.000000 0.000000 1.695590 
# 
# From -- ./inp_files/67191.got.cif
#   From: 2010.06.25/outbox.cif.g09.slc.cpg/sg71_34_cif.got.tgz:67191.got - 2010.06.28 04:59:45.
