data_PCOD8290937
_publ_section_title
;
Structure prediction by ZEFSAII (Michael W. Deem and Ramdas Pophale) SiO2 
 PCOD8290937
Probable space group: I M M M
;
_chemical_formula_sum "Si O2"
_cell_formula_units_Z 64
_cell_length_a 29.267099
_cell_length_b 7.683353
_cell_length_c 13.889657
_cell_angle_alpha 90.000000
_cell_angle_beta 90.000000
_cell_angle_gamma 90.000000
_cell_volume 3123.359571
_symmetry_space_group_name_H-M "I M M M"
_symmetry_group_IT_number 71
_symmetry_cell_setting 'orthorhombic'
loop_
_space_group_symop_operation_xyz
x,y,z
-x,-y,z
x,-y,-z
-x,y,-z
-x,-y,-z
x,y,-z
-x,y,z
x,-y,z
1/2+x,1/2+y,1/2+z
1/2-x,1/2-y,1/2+z
1/2+x,1/2-y,1/2-z
1/2-x,1/2+y,1/2-z
1/2-x,1/2-y,1/2-z
1/2+x,1/2+y,1/2-z
1/2-x,1/2+y,1/2+z
1/2+x,1/2-y,1/2+z
loop_
_atom_site_type_symbol
_atom_site_label
_atom_site_fract_x
_atom_site_fract_y
_atom_site_fract_z
Si Si1 0.323845 0.301674 0.274143
Si Si2 0.946065 0.000000 0.611117
Si Si3 0.422020 0.196911 0.750524
Si Si4 0.500000 0.794869 0.392866
Si Si5 0.737723 0.206755 0.891438
O O1 0.335495 0.500000 0.298718
O O2 0.370138 0.193103 0.287761
O O3 0.305015 0.287123 0.165301
O O4 0.285457 0.225633 0.346251
O O5 0.925652 0.174365 0.658717
O O6 0.931342 0.000000 0.500000
O O7 0.000000 0.000000 0.623848
O O8 0.455060 0.265706 0.665497
O O9 0.435806 0.000000 0.781638
O O10 0.500000 0.709788 0.500000
O O11 0.500000 0.000000 0.404199
O O12 0.735391 0.000000 0.883974
O O13 0.734626 0.274385 0.000000
#
# Coordination Sequence:
#
# PCOD8290937 Si02
#       5
#    16   8  16   8  16
#     4  10  20  35  57  83 117 155 196 245 297 352
#     4  11  24  42  64  90 122 156 204 258 300 357
#     4  11  22  40  64  89 124 163 199 245 306 360
#     4   9  20  39  63  92 123 157 200 244 292 358
#     4   9  19  36  56  81 114 153 199 247 296 353
#
# _framework density 20.490756000000001
#
# number of rings (size 3 to 8) (size 9 to 14) (size 15 to 20)
#    0.000    2.000    2.500    0.750    0.000    4.000 
#    0.000    2.500    0.000    0.000    0.000    0.000 
#    0.000    0.000    0.000    0.000    0.000    0.000 
#
# Total GULP energy -396839.500248 kJ/mol
# GULP energy per Si atom -12401.234383 kJ/mol
# Density = 2.044412 g / cm^3
# Si number density = 20.490756 Si / 1000 Ang^3
#
#
#
# Elastic Constant Matrix: (Units=GPa)
#
#
# Indices 1 2 3 4 5 6 
#
# 1 146.6917 12.6853 52.2257 0.0000 0.0000 0.0000
# 2 12.6853 75.4078 24.6238 0.0000 0.0000 0.0000
# 3 52.2257 24.6238 138.2605 0.0000 0.0000 0.0000
# 4 0.0000 0.0000 0.0000 21.9746 0.0000 0.0000
# 5 0.0000 0.0000 0.0000 0.0000 16.7850 0.0000
# 6 0.0000 0.0000 0.0000 0.0000 0.0000 19.4234
#
#
#
# Elastic Compliance Matrix: (Units=1/GPa)
#
#
# Indices 1 2 3 4 5 6 
#
# 1 0.007886 -0.000376 -0.002912 0.000000 0.000000 0.000000
# 2 -0.000376 0.014098 -0.002369 0.000000 0.000000 0.000000
# 3 -0.002912 -0.002369 0.008755 0.000000 0.000000 0.000000
# 4 0.000000 0.000000 0.000000 0.045507 0.000000 0.000000
# 5 0.000000 0.000000 0.000000 0.000000 0.059577 0.000000
# 6 0.000000 0.000000 0.000000 0.000000 0.000000 0.051484
#
#
# Mechanical properties :
#
#
# Convention : Reuss Voigt Hill
#
# Bulk Modulus (GPa) = 51.47859 59.93663 55.70761
# Shear Modulus (GPa) = 24.37889 29.69162 27.03526
#
# Velocity S-wave (km/s) = 3.45302 3.81074 3.63628
# Velocity P-wave (km/s) = 6.40899 6.97684 6.69894
#
# Compressibility (1/GPa) = 0.01942555
#
# Stress axis : x y z
#
# Youngs Moduli (GPa) = 126.80310 70.93219 114.22610
#
# Poissons Ratio (x) = 0.02665 0.33262
# Poissons Ratio (y) = 0.04765 0.27059
# Poissons Ratio (z) = 0.36925 0.16803
#
# Static dielectric constant tensor:
#      x y z
#    x 3.790250 0.000000 0.000000 
#    y 0.000000 3.531920 0.000000 
#    z 0.000000 0.000000 3.785310 
# 
# 
# High freq. dielectric constant tensor:
#      x y z
#    x 1.807680 0.000000 0.000000 
#    y 0.000000 1.797410 0.000000 
#    z 0.000000 0.000000 1.787800 
# 
# From -- ./inp_files/29469.got.cif
#   From: 2010.06.25/outbox.cif.g09.slc.cpg/sg71_15_cif.got.tgz:29469.got - 2010.06.28 04:59:45.
