data_PCOD8290470
_publ_section_title
;
Structure prediction by ZEFSAII (Michael W. Deem and Ramdas Pophale) SiO2 
 PCOD8290470
Probable space group: I M M M
;
_chemical_formula_sum "Si O2"
_cell_formula_units_Z 88
_cell_length_a 23.502687
_cell_length_b 15.260164
_cell_length_c 13.821866
_cell_angle_alpha 90.000000
_cell_angle_beta 90.000000
_cell_angle_gamma 90.000000
_cell_volume 4957.279388
_symmetry_space_group_name_H-M "I M M M"
_symmetry_group_IT_number 71
_symmetry_cell_setting 'orthorhombic'
loop_
_space_group_symop_operation_xyz
x,y,z
-x,-y,z
x,-y,-z
-x,y,-z
-x,-y,-z
x,y,-z
-x,y,z
x,-y,z
1/2+x,1/2+y,1/2+z
1/2-x,1/2-y,1/2+z
1/2+x,1/2-y,1/2-z
1/2-x,1/2+y,1/2-z
1/2-x,1/2-y,1/2-z
1/2+x,1/2+y,1/2-z
1/2-x,1/2+y,1/2+z
1/2+x,1/2-y,1/2+z
loop_
_atom_site_type_symbol
_atom_site_label
_atom_site_fract_x
_atom_site_fract_y
_atom_site_fract_z
Si Si1 0.856198 0.239401 0.390116
Si Si2 0.933283 0.500000 0.392691
Si Si3 0.771948 0.900123 0.693869
Si Si4 0.350211 0.897102 0.389072
Si Si5 0.566685 0.165313 0.764689
Si Si6 0.726016 0.901442 0.892943
O O1 0.875725 0.223644 0.500000
O O2 0.819381 0.157537 0.356410
O O3 0.911703 0.247713 0.321437
O O4 0.822346 0.329976 0.378777
O O5 0.904067 0.500000 0.500000
O O6 0.915496 0.414880 0.333366
O O7 0.000000 0.500000 0.408087
O O8 0.709860 0.869960 0.657640
O O9 0.774090 0.887994 0.810557
O O10 0.783784 0.000000 0.662933
O O11 0.349852 0.867259 0.500000
O O12 0.401051 0.844902 0.337105
O O13 0.361480 0.000000 0.378443
O O14 0.500000 0.172173 0.743432
O O15 0.699327 0.000000 0.879710
O O16 0.753968 0.892327 0.000000
#
# Coordination Sequence:
#
# PCOD8290470 Si02
#       6
#    16   8  16  16  16  16
#     4  11  22  34  54  79 106 142 181 224 273 321
#     4   9  18  32  49  69  95 131 172 212 254 305
#     4  10  20  37  56  78 109 142 182 227 272 322
#     4  10  20  34  53  76 106 144 182 221 266 321
#     4  11  22  35  50  73 105 141 181 220 261 317
#     4   9  18  31  50  78 110 140 170 209 263 326
#
# _framework density 17.751673
#
# number of rings (size 3 to 8) (size 9 to 14) (size 15 to 20)
#    0.000    1.909    2.727    1.636    1.273    2.545 
#    0.000    0.909    0.000    0.545    0.000    1.273 
#    0.000    0.000    0.000    6.182    0.000    0.000 
#
# Total GULP energy -545528.074851 kJ/mol
# GULP energy per Si atom -12398.365338 kJ/mol
# Density = 1.771127 g / cm^3
# Si number density = 17.751673 Si / 1000 Ang^3
#
#
#
# Elastic Constant Matrix: (Units=GPa)
#
#
# Indices 1 2 3 4 5 6 
#
# 1 84.7479 42.2209 43.9014 0.0000 0.0000 0.0000
# 2 42.2209 57.3342 34.2802 0.0000 0.0000 0.0000
# 3 43.9014 34.2802 132.8748 0.0000 0.0000 0.0000
# 4 0.0000 0.0000 0.0000 23.9504 0.0000 0.0000
# 5 0.0000 0.0000 0.0000 0.0000 19.6334 0.0000
# 6 0.0000 0.0000 0.0000 0.0000 0.0000 19.8451
#
#
#
# Elastic Compliance Matrix: (Units=1/GPa)
#
#
# Indices 1 2 3 4 5 6 
#
# 1 0.019779 -0.012602 -0.003284 0.000000 0.000000 0.000000
# 2 -0.012602 0.028652 -0.003228 0.000000 0.000000 0.000000
# 3 -0.003284 -0.003228 0.009444 0.000000 0.000000 0.000000
# 4 0.000000 0.000000 0.000000 0.041753 0.000000 0.000000
# 5 0.000000 0.000000 0.000000 0.000000 0.050934 0.000000
# 6 0.000000 0.000000 0.000000 0.000000 0.000000 0.050390
#
#
# Mechanical properties :
#
#
# Convention : Reuss Voigt Hill
#
# Bulk Modulus (GPa) = 50.89911 57.30687 54.10299
# Shear Modulus (GPa) = 20.34773 22.98942 21.66857
#
# Velocity S-wave (km/s) = 3.38929 3.60259 3.49757
# Velocity P-wave (km/s) = 6.63713 7.04681 6.84504
#
# Compressibility (1/GPa) = 0.01964671
#
# Stress axis : x y z
#
# Youngs Moduli (GPa) = 50.55890 34.90193 105.89110
#
# Poissons Ratio (x) = 0.43983 0.34772
# Poissons Ratio (y) = 0.63713 0.34184
# Poissons Ratio (z) = 0.16602 0.11267
#
# Static dielectric constant tensor:
#      x y z
#    x 2.955210 0.000000 0.000000 
#    y 0.000000 3.129170 0.000000 
#    z 0.000000 0.000000 3.615230 
# 
# 
# High freq. dielectric constant tensor:
#      x y z
#    x 1.650290 0.000000 0.000000 
#    y 0.000000 1.660970 0.000000 
#    z 0.000000 0.000000 1.708500 
# 
# From -- ./inp_files/34402.got.cif
#   From: 2010.06.25/outbox.cif.g09.slc.cpg/sg71_18_cif.got.tgz:34402.got - 2010.06.28 04:59:45.
