data_PCOD8290932
_publ_section_title
;
Structure prediction by ZEFSAII (Michael W. Deem and Ramdas Pophale) SiO2 
 PCOD8290932
Probable space group: I M M M
;
_chemical_formula_sum "Si O2"
_cell_formula_units_Z 104
_cell_length_a 21.489525
_cell_length_b 24.717516
_cell_length_c 9.852156
_cell_angle_alpha 90.000000
_cell_angle_beta 90.000000
_cell_angle_gamma 90.000000
_cell_volume 5233.146826
_symmetry_space_group_name_H-M "I M M M"
_symmetry_group_IT_number 71
_symmetry_cell_setting 'orthorhombic'
loop_
_space_group_symop_operation_xyz
x,y,z
-x,-y,z
x,-y,-z
-x,y,-z
-x,-y,-z
x,y,-z
-x,y,z
x,-y,z
1/2+x,1/2+y,1/2+z
1/2-x,1/2-y,1/2+z
1/2+x,1/2-y,1/2-z
1/2-x,1/2+y,1/2-z
1/2-x,1/2-y,1/2-z
1/2+x,1/2+y,1/2-z
1/2-x,1/2+y,1/2+z
1/2+x,1/2-y,1/2+z
loop_
_atom_site_type_symbol
_atom_site_label
_atom_site_fract_x
_atom_site_fract_y
_atom_site_fract_z
Si Si1 0.111192 0.382834 0.843515
Si Si2 0.695045 0.270142 0.846173
Si Si3 0.747921 0.616418 0.149380
Si Si4 0.830024 0.062951 0.148550
Si Si5 0.430403 0.000000 0.339686
Si Si6 0.069577 0.709960 0.656679
Si Si7 0.431115 0.435549 0.850360
O O1 0.182173 0.363192 0.827156
O O2 0.104597 0.445138 0.792392
O O3 0.070961 0.343821 0.748673
O O4 0.088732 0.377178 0.000000
O O5 0.750000 0.250000 0.750000
O O6 0.698398 0.334965 0.839519
O O7 0.625435 0.251197 0.800589
O O8 0.708550 0.250037 0.000000
O O9 0.732714 0.573146 0.266420
O O10 0.743211 0.588923 0.000000
O O11 0.886729 0.088552 0.234649
O O12 0.839787 0.000000 0.129114
O O13 0.826964 0.090792 0.000000
O O14 0.500000 0.000000 0.278528
O O15 0.433052 0.000000 0.500000
O O16 0.078498 0.692936 0.500000
O O17 0.000000 0.735912 0.676868
O O18 0.500000 0.413407 0.821122
O O19 0.430475 0.500000 0.846760
O O20 0.408755 0.416103 0.000000
#
# Coordination Sequence:
#
# PCOD8290932 Si02
#       7
#    16  16  16  16   8  16  16
#     4  10  20  35  57  83 111 149 195 238 279 329
#     4  10  20  37  59  83 111 143 185 234 287 344
#     4  10  21  35  54  80 108 143 192 240 284 334
#     4  10  21  34  49  74 108 146 186 229 281 336
#     4   9  18  32  51  79 115 151 186 231 284 329
#     4  10  21  37  59  87 118 150 183 226 286 350
#     4   8  14  27  48  71  94 126 171 219 268 323
#
# _framework density 19.873321000000001
#
# number of rings (size 3 to 8) (size 9 to 14) (size 15 to 20)
#    0.000    2.385    1.538    1.385    1.077    3.385 
#    0.000    2.692    0.000    4.154    0.000    0.000 
#    0.000    0.000    0.000    0.000    0.000    0.000 
#
# Total GULP energy -644363.623449 kJ/mol
# GULP energy per Si atom -12391.608143 kJ/mol
# Density = 1.982809 g / cm^3
# Si number density = 19.873321 Si / 1000 Ang^3
#
#
#
# Elastic Constant Matrix: (Units=GPa)
#
#
# Indices 1 2 3 4 5 6 
#
# 1 127.4856 34.5939 56.2314 0.0000 0.0000 0.0000
# 2 34.5939 55.0687 16.4393 0.0000 0.0000 0.0000
# 3 56.2314 16.4393 118.5353 0.0000 0.0000 0.0000
# 4 0.0000 0.0000 0.0000 24.0306 0.0000 0.0000
# 5 0.0000 0.0000 0.0000 0.0000 26.9699 0.0000
# 6 0.0000 0.0000 0.0000 0.0000 0.0000 29.1749
#
#
#
# Elastic Compliance Matrix: (Units=1/GPa)
#
#
# Indices 1 2 3 4 5 6 
#
# 1 0.011467 -0.005820 -0.004632 0.000000 0.000000 0.000000
# 2 -0.005820 0.021898 -0.000276 0.000000 0.000000 0.000000
# 3 -0.004632 -0.000276 0.010672 0.000000 0.000000 0.000000
# 4 0.000000 0.000000 0.000000 0.041614 0.000000 0.000000
# 5 0.000000 0.000000 0.000000 0.000000 0.037078 0.000000
# 6 0.000000 0.000000 0.000000 0.000000 0.000000 0.034276
#
#
# Mechanical properties :
#
#
# Convention : Reuss Voigt Hill
#
# Bulk Modulus (GPa) = 44.28829 57.29094 50.78962
# Shear Modulus (GPa) = 26.88339 28.95675 27.92007
#
# Velocity S-wave (km/s) = 3.68195 3.82130 3.75227
# Velocity P-wave (km/s) = 6.35683 6.95416 6.66220
#
# Compressibility (1/GPa) = 0.02257933
#
# Stress axis : x y z
#
# Youngs Moduli (GPa) = 87.20908 45.66658 93.70224
#
# Poissons Ratio (x) = 0.26580 0.43407
# Poissons Ratio (y) = 0.50760 0.02584
# Poissons Ratio (z) = 0.40399 0.01260
#
# Static dielectric constant tensor:
#      x y z
#    x 3.772950 0.000000 0.000000 
#    y 0.000000 3.330750 0.000000 
#    z 0.000000 0.000000 3.792120 
# 
# 
# High freq. dielectric constant tensor:
#      x y z
#    x 1.783090 0.000000 0.000000 
#    y 0.000000 1.742440 0.000000 
#    z 0.000000 0.000000 1.767770 
# 
# From -- ./inp_files/11157.got.cif
#   From: 2010.06.25/outbox.cif.g09.slc.cpg/sg71_6_cif.got.tgz:11157.got - 2010.06.28 04:59:45.
