data_PCOD8290761
_publ_section_title
;
Structure prediction by ZEFSAII (Michael W. Deem and Ramdas Pophale) SiO2 
 PCOD8290761
Probable space group: I M M M
;
_chemical_formula_sum "Si O2"
_cell_formula_units_Z 112
_cell_length_a 17.488738
_cell_length_b 24.422089
_cell_length_c 14.159892
_cell_angle_alpha 90.000000
_cell_angle_beta 90.000000
_cell_angle_gamma 90.000000
_cell_volume 6047.852938
_symmetry_space_group_name_H-M "I M M M"
_symmetry_group_IT_number 71
_symmetry_cell_setting 'orthorhombic'
loop_
_space_group_symop_operation_xyz
x,y,z
-x,-y,z
x,-y,-z
-x,y,-z
-x,-y,-z
x,y,-z
-x,y,z
x,-y,z
1/2+x,1/2+y,1/2+z
1/2-x,1/2-y,1/2+z
1/2+x,1/2-y,1/2-z
1/2-x,1/2+y,1/2-z
1/2-x,1/2-y,1/2-z
1/2+x,1/2+y,1/2-z
1/2-x,1/2+y,1/2+z
1/2+x,1/2-y,1/2+z
loop_
_atom_site_type_symbol
_atom_site_label
_atom_site_fract_x
_atom_site_fract_y
_atom_site_fract_z
Si Si1 0.911525 0.667021 0.278530
Si Si2 0.646427 0.275832 0.282122
Si Si3 0.294616 0.435993 0.603915
Si Si4 0.811640 0.063113 0.392728
Si Si5 0.173396 0.437442 0.761068
Si Si6 0.414480 0.612064 0.262618
Si Si7 0.706981 0.225455 0.108906
O O1 0.892872 0.715878 0.202504
O O2 0.894813 0.607019 0.234033
O O3 0.856374 0.678015 0.369435
O O4 0.000000 0.669209 0.309227
O O5 0.582492 0.322459 0.277181
O O6 0.690071 0.276528 0.179570
O O7 0.706444 0.293012 0.364637
O O8 0.281600 0.409685 0.500000
O O9 0.304838 0.500000 0.595238
O O10 0.222224 0.422242 0.668536
O O11 0.372604 0.414238 0.648361
O O12 0.811982 0.083824 0.500000
O O13 0.726040 0.070167 0.352894
O O14 0.872398 0.098342 0.335029
O O15 0.836468 0.000000 0.383987
O O16 0.141278 0.500000 0.755908
O O17 0.500000 0.589083 0.258238
O O18 0.702169 0.243173 0.000000
#
# Coordination Sequence:
#
# PCOD8290761 Si02
#       7
#    16  16  16  16  16  16  16
#     4  10  20  35  53  78 113 139 164 211 268 319
#     4   9  21  37  52  79 104 140 178 215 259 306
#     4   9  19  35  54  76 104 140 182 223 259 303
#     4   9  19  35  54  76 102 136 180 223 261 304
#     4   9  18  34  56  79 101 135 178 218 262 310
#     4  11  21  33  50  76 110 141 172 215 266 318
#     4   9  19  36  58  79  99 136 182 215 252 308
#
# _framework density 18.518968000000001
#
# number of rings (size 3 to 8) (size 9 to 14) (size 15 to 20)
#    0.857    1.714    0.000    3.429    0.000    5.143 
#    0.000    1.429    0.000    2.571    0.000    5.000 
#    0.000    0.000    0.000    0.000    0.000    0.000 
#
# Total GULP energy -693878.188113 kJ/mol
# GULP energy per Si atom -12390.681931 kJ/mol
# Density = 1.847682 g / cm^3
# Si number density = 18.518968 Si / 1000 Ang^3
#
#
#
# Elastic Constant Matrix: (Units=GPa)
#
#
# Indices 1 2 3 4 5 6 
#
# 1 85.9179 49.4665 30.6468 0.0000 0.0000 0.0000
# 2 49.4665 54.1816 25.5630 0.0000 0.0000 0.0000
# 3 30.6468 25.5630 84.4197 -0.0002 -0.0001 0.0000
# 4 0.0000 0.0000 -0.0002 12.4808 0.0000 0.0000
# 5 0.0000 0.0000 -0.0001 0.0000 7.1083 0.0000
# 6 0.0000 0.0000 0.0000 0.0000 0.0000 22.1359
#
#
#
# Elastic Compliance Matrix: (Units=1/GPa)
#
#
# Indices 1 2 3 4 5 6 
#
# 1 0.024989 -0.021623 -0.002524 0.000000 0.000000 0.000000
# 2 -0.021623 0.040244 -0.004336 0.000000 0.000000 0.000000
# 3 -0.002524 -0.004336 0.014075 0.000000 0.000000 0.000000
# 4 0.000000 0.000000 0.000000 0.080123 0.000000 0.000000
# 5 0.000000 0.000000 0.000000 0.000000 0.140681 0.000000
# 6 0.000000 0.000000 0.000000 0.000000 0.000000 0.045176
#
#
# Mechanical properties :
#
#
# Convention : Reuss Voigt Hill
#
# Bulk Modulus (GPa) = 44.76186 48.43022 46.59604
# Shear Modulus (GPa) = 12.20402 16.26785 14.23594
#
# Velocity S-wave (km/s) = 2.56989 2.96707 2.77559
# Velocity P-wave (km/s) = 5.74709 6.16007 5.95716
#
# Compressibility (1/GPa) = 0.02234045
#
# Stress axis : x y z
#
# Youngs Moduli (GPa) = 40.01800 24.84848 71.04850
#
# Poissons Ratio (x) = 0.53731 0.17932
# Poissons Ratio (y) = 0.86532 0.30809
# Poissons Ratio (z) = 0.10100 0.10775
#
# Static dielectric constant tensor:
#      x y z
#    x 3.093270 0.000000 0.000000 
#    y 0.000000 3.380470 0.000000 
#    z 0.000000 0.000000 3.466720 
# 
# 
# High freq. dielectric constant tensor:
#      x y z
#    x 1.695230 0.000000 0.000000 
#    y 0.000000 1.724480 0.000000 
#    z 0.000000 0.000000 1.696760 
# 
# From -- ./inp_files/35147.got.cif
#   From: 2010.06.25/outbox.cif.g09.slc.cpg/sg71_18_cif.got.tgz:35147.got - 2010.06.28 04:59:45.
