data_PCOD8290486
_publ_section_title
;
Structure prediction by ZEFSAII (Michael W. Deem and Ramdas Pophale) SiO2 
 PCOD8290486
Probable space group: I M M M
;
_chemical_formula_sum "Si O2"
_cell_formula_units_Z 80
_cell_length_a 29.144832
_cell_length_b 15.714700
_cell_length_c 9.325669
_cell_angle_alpha 90.000000
_cell_angle_beta 90.000000
_cell_angle_gamma 90.000000
_cell_volume 4271.177771
_symmetry_space_group_name_H-M "I M M M"
_symmetry_group_IT_number 71
_symmetry_cell_setting 'orthorhombic'
loop_
_space_group_symop_operation_xyz
x,y,z
-x,-y,z
x,-y,-z
-x,y,-z
-x,-y,-z
x,y,-z
-x,y,z
x,-y,z
1/2+x,1/2+y,1/2+z
1/2-x,1/2-y,1/2+z
1/2+x,1/2-y,1/2-z
1/2-x,1/2+y,1/2-z
1/2-x,1/2-y,1/2-z
1/2+x,1/2+y,1/2-z
1/2-x,1/2+y,1/2+z
1/2+x,1/2-y,1/2+z
loop_
_atom_site_type_symbol
_atom_site_label
_atom_site_fract_x
_atom_site_fract_y
_atom_site_fract_z
Si Si1 0.863409 0.657205 0.332943
Si Si2 0.198570 0.500000 0.669506
Si Si3 0.549213 0.598594 0.168292
Si Si4 0.855402 0.844713 0.331856
Si Si5 0.794074 0.000000 0.671217
Si Si6 0.948301 0.401906 0.832838
O O1 0.874156 0.647562 0.500000
O O2 0.829538 0.583137 0.280986
O O3 0.839087 0.748219 0.299051
O O4 0.912222 0.654157 0.254349
O O5 0.208309 0.500000 0.500000
O O6 0.245090 0.500000 0.756026
O O7 0.500000 0.630003 0.234137
O O8 0.555851 0.500000 0.201653
O O9 0.593430 0.645613 0.236243
O O10 0.547550 0.615424 0.000000
O O11 0.859064 0.862523 0.500000
O O12 0.820348 0.915399 0.271348
O O13 0.788080 0.000000 0.500000
O O14 0.941767 0.500000 0.789309
O O15 0.000000 0.372443 0.793940
O O16 0.938797 0.389282 0.000000
#
# Coordination Sequence:
#
# PCOD8290486 Si02
#       6
#    16   8  16  16   8  16
#     4  10  20  34  53  77 106 138 170 209 259 311
#     4  10  22  38  51  70 103 136 166 212 269 320
#     4   8  12  20  38  65  98 131 157 190 242 294
#     4   9  17  30  49  75 104 131 167 214 257 300
#     4  10  20  36  57  77  97 128 172 223 267 306
#     4   9  18  33  53  77 107 142 177 212 248 292
#
# _framework density 18.730198000000001
#
# number of rings (size 3 to 8) (size 9 to 14) (size 15 to 20)
#    0.000    2.800    2.000    1.200    0.000    2.800 
#    0.000    4.000    0.000    0.000    0.000    0.000 
#    0.000    2.400    0.000    0.000    0.000    0.000 
#
# Total GULP energy -495685.806895 kJ/mol
# GULP energy per Si atom -12392.145172 kJ/mol
# Density = 1.868757 g / cm^3
# Si number density = 18.730198 Si / 1000 Ang^3
#
#
#
# Elastic Constant Matrix: (Units=GPa)
#
#
# Indices 1 2 3 4 5 6 
#
# 1 149.9782 75.5368 34.3557 0.0000 0.0000 0.0000
# 2 75.5368 167.6275 22.2579 0.0000 0.0000 0.0000
# 3 34.3557 22.2579 25.5569 0.0000 0.0000 0.0000
# 4 0.0000 0.0000 0.0000 8.3915 0.0000 0.0000
# 5 0.0000 0.0000 0.0000 0.0000 29.3325 0.0000
# 6 0.0000 0.0000 0.0000 0.0000 0.0000 14.4113
#
#
#
# Elastic Compliance Matrix: (Units=1/GPa)
#
#
# Indices 1 2 3 4 5 6 
#
# 1 0.011141 -0.003428 -0.011991 0.000000 0.000000 0.000000
# 2 -0.003428 0.007801 -0.002185 0.000000 0.000000 0.000000
# 3 -0.011991 -0.002185 0.057151 0.000000 0.000000 0.000000
# 4 0.000000 0.000000 0.000000 0.119168 0.000000 0.000000
# 5 0.000000 0.000000 0.000000 0.000000 0.034092 0.000000
# 6 0.000000 0.000000 0.000000 0.000000 0.000000 0.069390
#
#
# Mechanical properties :
#
#
# Convention : Reuss Voigt Hill
#
# Bulk Modulus (GPa) = 24.45968 67.49593 45.97781
# Shear Modulus (GPa) = 14.38524 24.49455 19.43990
#
# Velocity S-wave (km/s) = 2.77433 3.62022 3.22513
# Velocity P-wave (km/s) = 4.83217 7.32043 6.20236
#
# Compressibility (1/GPa) = 0.04088360
#
# Stress axis : x y z
#
# Youngs Moduli (GPa) = 89.75796 128.19529 17.49758
#
# Poissons Ratio (x) = 0.43948 0.20981
# Poissons Ratio (y) = 0.30771 0.03823
# Poissons Ratio (z) = 1.07629 0.28013
#
# Static dielectric constant tensor:
#      x y z
#    x 3.529290 0.000000 0.000000 
#    y 0.000000 3.532730 0.000000 
#    z 0.000000 0.000000 2.887430 
# 
# 
# High freq. dielectric constant tensor:
#      x y z
#    x 1.732710 0.000000 0.000000 
#    y 0.000000 1.731670 0.000000 
#    z 0.000000 0.000000 1.669370 
# 
# From -- ./inp_files/27119.got.cif
#   From: 2010.06.25/outbox.cif.g09.slc.cpg/sg71_14_cif.got.tgz:27119.got - 2010.06.28 04:59:45.
