data_PCOD8290056
_publ_section_title
;
Structure prediction by ZEFSAII (Michael W. Deem and Ramdas Pophale) SiO2 
 PCOD8290056
Probable space group: I M M M
;
_chemical_formula_sum "Si O2"
_cell_formula_units_Z 96
_cell_length_a 14.897289
_cell_length_b 26.611510
_cell_length_c 13.651027
_cell_angle_alpha 90.000000
_cell_angle_beta 90.000000
_cell_angle_gamma 90.000000
_cell_volume 5411.804342
_symmetry_space_group_name_H-M "I M M M"
_symmetry_group_IT_number 71
_symmetry_cell_setting 'orthorhombic'
loop_
_space_group_symop_operation_xyz
x,y,z
-x,-y,z
x,-y,-z
-x,y,-z
-x,-y,-z
x,y,-z
-x,y,z
x,-y,z
1/2+x,1/2+y,1/2+z
1/2-x,1/2-y,1/2+z
1/2+x,1/2-y,1/2-z
1/2-x,1/2+y,1/2-z
1/2-x,1/2-y,1/2-z
1/2+x,1/2+y,1/2-z
1/2-x,1/2+y,1/2+z
1/2+x,1/2-y,1/2+z
loop_
_atom_site_type_symbol
_atom_site_label
_atom_site_fract_x
_atom_site_fract_y
_atom_site_fract_z
Si Si1 0.500000 0.056928 0.893629
Si Si2 0.605973 0.834064 0.611049
Si Si3 0.500000 0.442105 0.616119
Si Si4 0.598195 0.783030 0.116164
Si Si5 0.168192 0.124057 0.116128
Si Si6 0.647281 0.887289 0.204567
Si Si7 0.793471 0.763596 0.116180
O O1 0.587442 0.066339 0.827783
O O2 0.500000 0.000000 0.920755
O O3 0.500000 0.085685 0.000000
O O4 0.637855 0.844226 0.500000
O O5 0.500000 0.829186 0.617723
O O6 0.642611 0.879390 0.677831
O O7 0.646135 0.782137 0.655697
O O8 0.500000 0.500000 0.657291
O O9 0.500000 0.444777 0.500000
O O10 0.415187 0.409461 0.652730
O O11 0.500000 0.760468 0.150340
O O12 0.602781 0.840032 0.150585
O O13 0.690040 0.755957 0.156097
O O14 0.602744 0.781790 0.000000
O O15 0.252599 0.100327 0.171152
O O16 0.162218 0.182969 0.147694
O O17 0.181250 0.119604 0.000000
O O18 0.793262 0.761380 0.000000
#
# Coordination Sequence:
#
# PCOD8290056 Si02
#       7
#     8  16   8  16  16  16  16
#     4  11  22  34  52  79 105 123 149 192 243 303
#     4  10  20  33  50  70  97 134 174 211 247 290
#     4   9  18  32  49  72 103 137 166 193 238 298
#     4   9  15  25  44  67  98 134 163 198 246 304
#     4   9  18  30  49  74 102 134 167 206 248 299
#     4  11  19  33  50  71  99 134 166 199 248 295
#     4   8  16  28  44  69  96 128 169 209 244 282
#
# _framework density 17.739000000000001
#
# number of rings (size 3 to 8) (size 9 to 14) (size 15 to 20)
#    0.000    2.500    1.667    2.500    1.167    3.333 
#    0.000    1.667    1.833    1.000    0.000    0.000 
#    0.000    0.667    0.000    0.000    0.000    0.000 
#
# Total GULP energy -594697.140787 kJ/mol
# GULP energy per Si atom -12389.523766 kJ/mol
# Density = 1.769863 g / cm^3
# Si number density = 17.739000 Si / 1000 Ang^3
#
#
#
# Elastic Constant Matrix: (Units=GPa)
#
#
# Indices 1 2 3 4 5 6 
#
# 1 124.2747 37.4205 49.8294 0.0000 0.0000 0.0000
# 2 37.4205 57.8427 38.1272 -0.0001 0.0000 0.0000
# 3 49.8294 38.1272 44.6176 -0.0001 0.0002 0.0000
# 4 0.0000 -0.0001 -0.0001 12.7649 0.0001 0.0000
# 5 0.0000 0.0000 0.0002 0.0001 6.1849 0.0000
# 6 0.0000 0.0000 0.0000 0.0000 0.0000 14.9330
#
#
#
# Elastic Compliance Matrix: (Units=1/GPa)
#
#
# Indices 1 2 3 4 5 6 
#
# 1 0.014799 0.003023 -0.019111 0.000000 0.000001 0.000000
# 2 0.003023 0.040203 -0.037731 0.000000 0.000001 0.000000
# 3 -0.019111 -0.037731 0.075999 0.000001 -0.000002 0.000000
# 4 0.000000 0.000000 0.000001 0.078340 -0.000001 0.000000
# 5 0.000001 0.000001 -0.000002 -0.000001 0.161684 0.000000
# 6 0.000000 0.000000 0.000000 0.000000 0.000000 0.066966
#
#
# Mechanical properties :
#
#
# Convention : Reuss Voigt Hill
#
# Bulk Modulus (GPa) = 42.80343 53.05436 47.92890
# Shear Modulus (GPa) = 9.03478 13.53376 11.28427
#
# Velocity S-wave (km/s) = 2.25925 2.76513 2.52489
# Velocity P-wave (km/s) = 5.56665 6.33781 5.96471
#
# Compressibility (1/GPa) = 0.02336261
#
# Stress axis : x y z
#
# Youngs Moduli (GPa) = 67.57040 24.87376 13.15805
#
# Poissons Ratio (x) = -0.07520 0.25147
# Poissons Ratio (y) = -0.20428 0.49647
# Poissons Ratio (z) = 1.29137 0.93851
#
# Static dielectric constant tensor:
#      x y z
#    x 3.744990 0.000000 0.000000 
#    y 0.000000 3.110290 0.000000 
#    z 0.000000 0.000000 3.251700 
# 
# 
# High freq. dielectric constant tensor:
#      x y z
#    x 1.699350 0.000000 0.000000 
#    y 0.000000 1.642440 0.000000 
#    z 0.000000 0.000000 1.672850 
# 
# From -- ./inp_files/34780.got.cif
#   From: 2010.06.25/outbox.cif.g09.slc.cpg/sg71_18_cif.got.tgz:34780.got - 2010.06.28 04:59:45.
