data_PCOD8290148
_publ_section_title
;
Structure prediction by ZEFSAII (Michael W. Deem and Ramdas Pophale) SiO2 
 PCOD8290148
Probable space group: I M M M
;
_chemical_formula_sum "Si O2"
_cell_formula_units_Z 96
_cell_length_a 13.337295
_cell_length_b 21.105604
_cell_length_c 18.909153
_cell_angle_alpha 90.000000
_cell_angle_beta 90.000000
_cell_angle_gamma 90.000000
_cell_volume 5322.768994
_symmetry_space_group_name_H-M "I M M M"
_symmetry_group_IT_number 71
_symmetry_cell_setting 'orthorhombic'
loop_
_space_group_symop_operation_xyz
x,y,z
-x,-y,z
x,-y,-z
-x,y,-z
-x,-y,-z
x,y,-z
-x,y,z
x,-y,z
1/2+x,1/2+y,1/2+z
1/2-x,1/2-y,1/2+z
1/2+x,1/2-y,1/2-z
1/2-x,1/2+y,1/2-z
1/2-x,1/2-y,1/2-z
1/2+x,1/2+y,1/2-z
1/2-x,1/2+y,1/2+z
1/2+x,1/2-y,1/2+z
loop_
_atom_site_type_symbol
_atom_site_label
_atom_site_fract_x
_atom_site_fract_y
_atom_site_fract_z
Si Si1 0.281800 0.426803 0.084435
Si Si2 0.885473 0.722959 0.309821
Si Si3 0.612226 0.704361 0.581472
Si Si4 0.695740 0.131105 0.917646
Si Si5 0.500000 0.425913 0.076066
Si Si6 0.387075 0.000000 0.084024
Si Si7 0.208176 0.313662 0.170121
O O1 0.254064 0.500000 0.100884
O O2 0.394362 0.409412 0.113525
O O3 0.209190 0.380733 0.128827
O O4 0.273263 0.414356 0.000000
O O5 0.876712 0.681658 0.380632
O O6 0.845786 0.678797 0.245658
O O7 0.820143 0.786771 0.317379
O O8 0.000000 0.743825 0.298123
O O9 0.620264 0.724059 0.500000
O O10 0.500000 0.681968 0.601344
O O11 0.687612 0.646489 0.598631
O O12 0.641077 0.765737 0.625358
O O13 0.672535 0.061263 0.887988
O O14 0.670420 0.136159 0.000000
O O15 0.500000 0.500000 0.061599
O O16 0.500000 0.390990 0.000000
O O17 0.500000 0.000000 0.114454
O O18 0.389702 0.000000 0.000000
#
# Coordination Sequence:
#
# PCOD8290148 Si02
#       7
#    16  16  16  16   8   8  16
#     4   9  17  31  52  79 111 141 171 212 260 313
#     4  10  21  35  50  72 101 134 173 218 264 306
#     4   9  17  31  52  74  98 131 170 211 251 295
#     4   9  18  33  52  76 100 125 166 212 260 316
#     4   7  12  24  44  72 104 136 165 196 246 307
#     4   9  16  28  49  73  99 129 153 191 255 312
#     4  10  20  33  51  74 101 139 175 212 254 313
#
# _framework density 18.035724999999999
#
# number of rings (size 3 to 8) (size 9 to 14) (size 15 to 20)
#    0.000    2.833    0.000    2.500    1.167    1.667 
#    1.500    0.417    0.000    4.000    0.000    5.833 
#    0.000    0.000    0.000    0.000    0.000    0.000 
#
# Total GULP energy -594852.525151 kJ/mol
# GULP energy per Si atom -12392.760941 kJ/mol
# Density = 1.799467 g / cm^3
# Si number density = 18.035725 Si / 1000 Ang^3
#
#
#
# Elastic Constant Matrix: (Units=GPa)
#
#
# Indices 1 2 3 4 5 6 
#
# 1 110.7385 45.5693 31.8636 0.0000 0.0000 0.0000
# 2 45.5693 93.6908 37.1568 0.0000 0.0000 0.0000
# 3 31.8636 37.1568 57.1024 0.0000 0.0000 0.0000
# 4 0.0000 0.0000 0.0000 20.7137 0.0000 0.0000
# 5 0.0000 0.0000 0.0000 0.0000 12.7063 0.0000
# 6 0.0000 0.0000 0.0000 0.0000 0.0000 18.6573
#
#
#
# Elastic Compliance Matrix: (Units=1/GPa)
#
#
# Indices 1 2 3 4 5 6 
#
# 1 0.011893 -0.004249 -0.003871 0.000000 0.000000 0.000000
# 2 -0.004249 0.015904 -0.007978 0.000000 0.000000 0.000000
# 3 -0.003871 -0.007978 0.024864 0.000000 0.000000 0.000000
# 4 0.000000 0.000000 0.000000 0.048277 0.000000 0.000000
# 5 0.000000 0.000000 0.000000 0.000000 0.078701 0.000000
# 6 0.000000 0.000000 0.000000 0.000000 0.000000 0.053598
#
#
# Mechanical properties :
#
#
# Convention : Reuss Voigt Hill
#
# Bulk Modulus (GPa) = 48.86596 54.52344 51.69470
# Shear Modulus (GPa) = 18.36517 20.21161 19.28839
#
# Velocity S-wave (km/s) = 3.19449 3.35123 3.27380
# Velocity P-wave (km/s) = 6.38429 6.72836 6.55858
#
# Compressibility (1/GPa) = 0.02046414
#
# Stress axis : x y z
#
# Youngs Moduli (GPa) = 84.08510 62.87748 40.21906
#
# Poissons Ratio (x) = 0.26717 0.15570
# Poissons Ratio (y) = 0.35728 0.32086
# Poissons Ratio (z) = 0.32552 0.50162
#
# Static dielectric constant tensor:
#      x y z
#    x 3.438410 0.000000 0.000000 
#    y 0.000000 3.199060 0.000000 
#    z 0.000000 0.000000 3.249160 
# 
# 
# High freq. dielectric constant tensor:
#      x y z
#    x 1.697050 0.000000 0.000000 
#    y 0.000000 1.678710 0.000000 
#    z 0.000000 0.000000 1.684270 
# 
# From -- ./inp_files/52036.got.cif
#   From: 2010.06.25/outbox.cif.g09.slc.cpg/sg71_27_cif.got.tgz:52036.got - 2010.06.28 04:59:45.
