data_PCOD8290235
_publ_section_title
;
Structure prediction by ZEFSAII (Michael W. Deem and Ramdas Pophale) SiO2 
 PCOD8290235
Probable space group: I M M M
;
_chemical_formula_sum "Si O2"
_cell_formula_units_Z 88
_cell_length_a 30.080912
_cell_length_b 8.926647
_cell_length_c 17.950231
_cell_angle_alpha 90.000000
_cell_angle_beta 90.000000
_cell_angle_gamma 90.000000
_cell_volume 4820.026236
_symmetry_space_group_name_H-M "I M M M"
_symmetry_group_IT_number 71
_symmetry_cell_setting 'orthorhombic'
loop_
_space_group_symop_operation_xyz
x,y,z
-x,-y,z
x,-y,-z
-x,y,-z
-x,-y,-z
x,y,-z
-x,y,z
x,-y,z
1/2+x,1/2+y,1/2+z
1/2-x,1/2-y,1/2+z
1/2+x,1/2-y,1/2-z
1/2-x,1/2+y,1/2-z
1/2-x,1/2-y,1/2-z
1/2+x,1/2+y,1/2-z
1/2-x,1/2+y,1/2+z
1/2+x,1/2-y,1/2+z
loop_
_atom_site_type_symbol
_atom_site_label
_atom_site_fract_x
_atom_site_fract_y
_atom_site_fract_z
Si Si1 0.552805 0.669856 0.000000
Si Si2 0.793005 0.828004 0.282940
Si Si3 0.851769 0.176450 0.084958
Si Si4 0.619362 0.823219 0.725780
Si Si5 0.762384 0.669266 0.917230
Si Si6 0.050733 0.675774 0.649536
O O1 0.570902 0.747467 0.075320
O O2 0.569558 0.500000 0.000000
O O3 0.500000 0.683746 0.000000
O O4 0.750000 0.750000 0.250000
O O5 0.836668 0.735392 0.265922
O O6 0.783282 0.818957 0.371331
O O7 0.798203 0.000000 0.255583
O O8 0.886308 0.250841 0.143250
O O9 0.802223 0.223612 0.112108
O O10 0.856774 0.000000 0.089581
O O11 0.860621 0.232897 0.000000
O O12 0.577999 0.774425 0.777286
O O13 0.622247 0.000000 0.716602
O O14 0.781415 0.500000 0.913516
O O15 0.749290 0.718204 0.000000
O O16 0.054445 0.500000 0.636179
O O17 0.000000 0.726203 0.663514
#
# Coordination Sequence:
#
# PCOD8290235 Si02
#       6
#     8  16  16  16  16  16
#     4   9  17  31  55  85 111 137 173 217 265 315
#     4  11  21  33  51  74 106 141 174 215 261 309
#     4  10  20  33  52  77 103 134 174 218 262 313
#     4  11  22  35  54  79 106 138 177 219 266 317
#     4   9  18  33  51  69  94 133 178 216 253 301
#     4   9  19  37  59  80 106 141 179 219 263 314
#
# _framework density 18.257162000000001
#
# number of rings (size 3 to 8) (size 9 to 14) (size 15 to 20)
#    0.000    2.091    1.818    1.909    0.000    4.364 
#    1.636    0.000    0.000    0.545    0.000    3.818 
#    0.000    0.000    0.000    0.000    0.000    0.000 
#
# Total GULP energy -545460.685477 kJ/mol
# GULP energy per Si atom -12396.833761 kJ/mol
# Density = 1.821561 g / cm^3
# Si number density = 18.257162 Si / 1000 Ang^3
#
#
#
# Elastic Constant Matrix: (Units=GPa)
#
#
# Indices 1 2 3 4 5 6 
#
# 1 70.9769 30.6354 55.1472 0.0000 0.0000 0.0000
# 2 30.6354 73.3476 49.8238 0.0000 0.0000 0.0000
# 3 55.1472 49.8238 133.7781 0.0000 0.0000 0.0000
# 4 0.0000 0.0000 0.0000 30.9782 0.0000 0.0000
# 5 0.0000 0.0000 0.0000 0.0000 29.1246 0.0000
# 6 0.0000 0.0000 0.0000 0.0000 0.0000 21.5403
#
#
#
# Elastic Compliance Matrix: (Units=1/GPa)
#
#
# Indices 1 2 3 4 5 6 
#
# 1 0.021560 -0.003973 -0.007408 0.000000 0.000000 0.000000
# 2 -0.003973 0.018983 -0.005432 0.000000 0.000000 0.000000
# 3 -0.007408 -0.005432 0.012552 0.000000 0.000000 0.000000
# 4 0.000000 0.000000 0.000000 0.032281 0.000000 0.000000
# 5 0.000000 0.000000 0.000000 0.000000 0.034335 0.000000
# 6 0.000000 0.000000 0.000000 0.000000 0.000000 0.046425
#
#
# Mechanical properties :
#
#
# Convention : Reuss Voigt Hill
#
# Bulk Modulus (GPa) = 51.36441 61.03504 56.19973
# Shear Modulus (GPa) = 24.24232 25.82836 25.03534
#
# Velocity S-wave (km/s) = 3.64789 3.76533 3.70707
# Velocity P-wave (km/s) = 6.77773 7.23926 7.01230
#
# Compressibility (1/GPa) = 0.01946873
#
# Stress axis : x y z
#
# Youngs Moduli (GPa) = 46.38312 52.67832 79.66866
#
# Poissons Ratio (x) = 0.20928 0.59017
# Poissons Ratio (y) = 0.18427 0.43278
# Poissons Ratio (z) = 0.34360 0.28616
#
# Static dielectric constant tensor:
#      x y z
#    x 2.938430 0.000000 0.000000 
#    y 0.000000 3.420700 0.000000 
#    z 0.000000 0.000000 3.893050 
# 
# 
# High freq. dielectric constant tensor:
#      x y z
#    x 1.661180 0.000000 0.000000 
#    y 0.000000 1.715050 0.000000 
#    z 0.000000 0.000000 1.728300 
# 
# From -- ./inp_files/8877.got.cif
#   From: 2010.06.25/outbox.cif.g09.slc.cpg/sg71_5_cif.got.tgz:8877.got - 2010.06.28 04:59:45.
