data_PCOD8290341
_publ_section_title
;
Structure prediction by ZEFSAII (Michael W. Deem and Ramdas Pophale) SiO2 
 PCOD8290341
Probable space group: I M M M
;
_chemical_formula_sum "Si O2"
_cell_formula_units_Z 104
_cell_length_a 17.201731
_cell_length_b 13.764044
_cell_length_c 26.778977
_cell_angle_alpha 90.000000
_cell_angle_beta 90.000000
_cell_angle_gamma 90.000000
_cell_volume 6340.334729
_symmetry_space_group_name_H-M "I M M M"
_symmetry_group_IT_number 71
_symmetry_cell_setting 'orthorhombic'
loop_
_space_group_symop_operation_xyz
x,y,z
-x,-y,z
x,-y,-z
-x,y,-z
-x,-y,-z
x,y,-z
-x,y,z
x,-y,z
1/2+x,1/2+y,1/2+z
1/2-x,1/2-y,1/2+z
1/2+x,1/2-y,1/2-z
1/2-x,1/2+y,1/2-z
1/2-x,1/2-y,1/2-z
1/2+x,1/2+y,1/2-z
1/2-x,1/2+y,1/2+z
1/2+x,1/2-y,1/2+z
loop_
_atom_site_type_symbol
_atom_site_label
_atom_site_fract_x
_atom_site_fract_y
_atom_site_fract_z
Si Si1 0.195735 0.886892 0.057972
Si Si2 0.332497 0.114683 0.127108
Si Si3 0.500000 0.107505 0.865886
Si Si4 0.592325 0.771824 0.404584
Si Si5 0.648424 0.794404 0.703546
Si Si6 0.261326 0.386876 0.274706
Si Si7 0.092190 0.392265 0.000000
Si Si8 0.000000 0.391108 0.751516
O O1 0.273502 0.846551 0.084910
O O2 0.119946 0.836620 0.081637
O O3 0.184350 0.000000 0.068704
O O4 0.203791 0.863008 0.000000
O O5 0.419048 0.161480 0.118401
O O6 0.300282 0.139832 0.181907
O O7 0.341956 0.000000 0.122763
O O8 0.500000 0.096832 0.806929
O O9 0.500000 0.000000 0.890005
O O10 0.500000 0.771720 0.396448
O O11 0.635418 0.810256 0.355301
O O12 0.620791 0.839643 0.449893
O O13 0.662845 0.680144 0.716073
O O14 0.722073 0.858788 0.721746
O O15 0.573697 0.829786 0.732560
O O16 0.285984 0.500000 0.275397
O O17 0.127490 0.500000 0.000000
O O18 0.000000 0.393993 0.000000
O O19 0.000000 0.500000 0.775745
#
# Coordination Sequence:
#
# PCOD8290341 Si02
#       8
#    16  16   8  16  16  16   8   8
#     4  10  20  34  52  72  99 135 169 206 256 307
#     4   9  16  29  49  71  95 129 165 202 251 301
#     4   9  16  28  49  71  97 129 161 199 248 303
#     4  11  21  34  50  73 101 131 174 217 249 299
#     4  11  21  32  51  77 101 133 174 212 257 302
#     4  10  20  34  50  72 104 136 169 209 255 310
#     4   9  20  36  49  65  95 134 166 205 258 293
#     4  11  20  32  49  75 105 134 172 214 252 303
#
# _framework density 16.402919000000001
#
# number of rings (size 3 to 8) (size 9 to 14) (size 15 to 20)
#    0.000    1.923    4.615    0.462    0.000    1.538 
#    0.000    1.538    0.000    2.308    0.000    0.000 
#    0.000    0.000    0.000    0.692    0.000    0.077 
#
# Total GULP energy -644491.657354 kJ/mol
# GULP energy per Si atom -12394.070334 kJ/mol
# Density = 1.636559 g / cm^3
# Si number density = 16.402919 Si / 1000 Ang^3
#
#
#
# Elastic Constant Matrix: (Units=GPa)
#
#
# Indices 1 2 3 4 5 6 
#
# 1 81.1121 42.2151 32.9764 0.0000 0.0000 0.0000
# 2 42.2151 67.8450 20.3560 0.0000 0.0000 0.0000
# 3 32.9764 20.3560 95.2665 0.0000 0.0000 0.0000
# 4 0.0000 0.0000 0.0000 19.5861 0.0000 0.0000
# 5 0.0000 0.0000 0.0000 0.0000 28.9205 0.0000
# 6 0.0000 0.0000 0.0000 0.0000 0.0000 20.5895
#
#
#
# Elastic Compliance Matrix: (Units=1/GPa)
#
#
# Indices 1 2 3 4 5 6 
#
# 1 0.019913 -0.011030 -0.004536 0.000000 0.000000 0.000000
# 2 -0.011030 0.021858 -0.000853 0.000000 0.000000 0.000000
# 3 -0.004536 -0.000853 0.012249 0.000000 0.000000 0.000000
# 4 0.000000 0.000000 0.000000 0.051057 0.000000 0.000000
# 5 0.000000 0.000000 0.000000 0.000000 0.034578 0.000000
# 6 0.000000 0.000000 0.000000 0.000000 0.000000 0.048568
#
#
# Mechanical properties :
#
#
# Convention : Reuss Voigt Hill
#
# Bulk Modulus (GPa) = 47.20577 48.36871 47.78724
# Shear Modulus (GPa) = 21.91816 23.73096 22.82456
#
# Velocity S-wave (km/s) = 3.65942 3.80775 3.73432
# Velocity P-wave (km/s) = 6.83348 6.99169 6.91304
#
# Compressibility (1/GPa) = 0.02118385
#
# Stress axis : x y z
#
# Youngs Moduli (GPa) = 50.21798 45.74944 81.63753
#
# Poissons Ratio (x) = 0.50459 0.37032
# Poissons Ratio (y) = 0.55388 0.06961
# Poissons Ratio (z) = 0.22780 0.03901
#
# Static dielectric constant tensor:
#      x y z
#    x 3.269690 0.000000 0.000000 
#    y 0.000000 3.029920 0.000000 
#    z 0.000000 0.000000 3.217900 
# 
# 
# High freq. dielectric constant tensor:
#      x y z
#    x 1.624920 0.000000 0.000000 
#    y 0.000000 1.605740 0.000000 
#    z 0.000000 0.000000 1.633760 
# 
# From -- ./inp_files/66167.got.cif
#   From: 2010.06.25/outbox.cif.g09.slc.cpg/sg71_34_cif.got.tgz:66167.got - 2010.06.28 04:59:45.
