data_PCOD8290070
_publ_section_title
;
Structure prediction by ZEFSAII (Michael W. Deem and Ramdas Pophale) SiO2 
 PCOD8290070
Probable space group: I M M M
;
_chemical_formula_sum "Si O2"
_cell_formula_units_Z 104
_cell_length_a 9.142341
_cell_length_b 28.089064
_cell_length_c 24.236146
_cell_angle_alpha 90.000000
_cell_angle_beta 90.000000
_cell_angle_gamma 90.000000
_cell_volume 6223.837481
_symmetry_space_group_name_H-M "I M M M"
_symmetry_group_IT_number 71
_symmetry_cell_setting 'orthorhombic'
loop_
_space_group_symop_operation_xyz
x,y,z
-x,-y,z
x,-y,-z
-x,y,-z
-x,-y,-z
x,y,-z
-x,y,z
x,-y,z
1/2+x,1/2+y,1/2+z
1/2-x,1/2-y,1/2+z
1/2+x,1/2-y,1/2-z
1/2-x,1/2+y,1/2-z
1/2-x,1/2-y,1/2-z
1/2+x,1/2+y,1/2-z
1/2-x,1/2+y,1/2+z
1/2+x,1/2-y,1/2+z
loop_
_atom_site_type_symbol
_atom_site_label
_atom_site_fract_x
_atom_site_fract_y
_atom_site_fract_z
Si Si1 0.326526 0.052851 0.261437
Si Si2 0.174453 0.500000 0.062190
Si Si3 0.332151 0.943759 0.860656
Si Si4 0.173913 0.407756 0.125858
Si Si5 0.164984 0.278959 0.565581
Si Si6 0.829591 0.127730 0.935698
Si Si7 0.671418 0.814736 0.564134
O O1 0.500000 0.048524 0.262723
O O2 0.279993 0.071733 0.200983
O O3 0.273050 0.088084 0.310277
O O4 0.261373 0.000000 0.271948
O O5 0.235659 0.453019 0.092400
O O6 0.000000 0.500000 0.063501
O O7 0.233950 0.500000 0.000000
O O8 0.500000 0.928670 0.871129
O O9 0.228788 0.918516 0.904547
O O10 0.313757 0.000000 0.867876
O O11 0.233869 0.359212 0.099047
O O12 0.000000 0.407504 0.121691
O O13 0.168141 0.279200 0.500000
O O14 0.248464 0.325518 0.587750
O O15 0.246183 0.231758 0.586948
O O16 0.000000 0.279460 0.588524
O O17 0.000000 0.134309 0.924266
O O18 0.796379 0.120137 0.000000
O O19 0.705518 0.824535 0.500000
O O20 0.500000 0.806606 0.573497
#
# Coordination Sequence:
#
# PCOD8290070 Si02
#       7
#    16   8  16  16  16  16  16
#     4   8  13  24  41  61  86 120 162 197 224 258
#     4   9  14  18  28  54  93 129 156 187 232 278
#     4   9  18  31  48  70  95 123 155 188 218 257
#     4   9  14  21  36  59  90 126 158 192 231 270
#     4   9  17  30  48  67  88 118 154 187 221 269
#     4  10  20  33  50  72  96 119 142 175 225 278
#     4   9  16  25  39  64  96 124 152 190 235 275
#
# _framework density 16.709948000000001
#
# number of rings (size 3 to 8) (size 9 to 14) (size 15 to 20)
#    0.000    3.000    0.769    2.308    0.000    5.231 
#    0.000    1.538    0.000    1.846    0.000    0.538 
#    0.000    3.077    0.000    0.000    0.000    0.000 
#
# Total GULP energy -644579.817056 kJ/mol
# GULP energy per Si atom -12395.765713 kJ/mol
# Density = 1.667192 g / cm^3
# Si number density = 16.709948 Si / 1000 Ang^3
#
#
#
# Elastic Constant Matrix: (Units=GPa)
#
#
# Indices 1 2 3 4 5 6 
#
# 1 55.0165 42.8206 37.8973 0.0000 0.0000 0.0000
# 2 42.8206 108.1782 59.2469 0.0000 0.0000 0.0000
# 3 37.8973 59.2469 85.2447 -0.0001 0.0000 0.0000
# 4 0.0000 0.0000 -0.0001 14.5906 0.0000 0.0000
# 5 0.0000 0.0000 0.0000 0.0000 9.6086 0.0000
# 6 0.0000 0.0000 0.0000 0.0000 0.0000 19.7411
#
#
#
# Elastic Compliance Matrix: (Units=1/GPa)
#
#
# Indices 1 2 3 4 5 6 
#
# 1 0.029313 -0.007211 -0.008020 0.000000 0.000000 0.000000
# 2 -0.007211 0.016699 -0.008401 0.000000 0.000000 0.000000
# 3 -0.008020 -0.008401 0.021135 0.000000 0.000000 0.000000
# 4 0.000000 0.000000 0.000000 0.068537 0.000000 0.000000
# 5 0.000000 0.000000 0.000000 0.000000 0.104074 0.000000
# 6 0.000000 0.000000 0.000000 0.000000 0.000000 0.050656
#
#
# Mechanical properties :
#
#
# Convention : Reuss Voigt Hill
#
# Bulk Modulus (GPa) = 50.29060 58.70767 54.49913
# Shear Modulus (GPa) = 14.52201 16.01970 15.27086
#
# Velocity S-wave (km/s) = 2.95119 3.09963 3.02632
# Velocity P-wave (km/s) = 6.46330 6.92964 6.70053
#
# Compressibility (1/GPa) = 0.01988443
#
# Stress axis : x y z
#
# Youngs Moduli (GPa) = 34.11431 59.88380 47.31474
#
# Poissons Ratio (x) = 0.43180 0.37948
# Poissons Ratio (y) = 0.24599 0.39747
# Poissons Ratio (z) = 0.27361 0.50306
#
# Static dielectric constant tensor:
#      x y z
#    x 2.807240 0.000000 0.000000 
#    y 0.000000 3.207740 0.000000 
#    z 0.000000 0.000000 3.178350 
# 
# 
# High freq. dielectric constant tensor:
#      x y z
#    x 1.605660 0.000000 0.000000 
#    y 0.000000 1.643570 0.000000 
#    z 0.000000 0.000000 1.626710 
# 
# From -- ./inp_files/58218.got.cif
#   From: 2010.06.25/outbox.cif.g09.slc.cpg/sg71_30_cif.got.tgz:58218.got - 2010.06.28 04:59:45.
