data_PCOD8290523
_publ_section_title
;
Structure prediction by ZEFSAII (Michael W. Deem and Ramdas Pophale) SiO2 
 PCOD8290523
Probable space group: I M M M
;
_chemical_formula_sum "Si O2"
_cell_formula_units_Z 88
_cell_length_a 28.595752
_cell_length_b 10.002825
_cell_length_c 15.566424
_cell_angle_alpha 90.000000
_cell_angle_beta 90.000000
_cell_angle_gamma 90.000000
_cell_volume 4452.593505
_symmetry_space_group_name_H-M "I M M M"
_symmetry_group_IT_number 71
_symmetry_cell_setting 'orthorhombic'
loop_
_space_group_symop_operation_xyz
x,y,z
-x,-y,z
x,-y,-z
-x,y,-z
-x,-y,-z
x,y,-z
-x,y,z
x,-y,z
1/2+x,1/2+y,1/2+z
1/2-x,1/2-y,1/2+z
1/2+x,1/2-y,1/2-z
1/2-x,1/2+y,1/2-z
1/2-x,1/2-y,1/2-z
1/2+x,1/2+y,1/2-z
1/2-x,1/2+y,1/2+z
1/2+x,1/2-y,1/2+z
loop_
_atom_site_type_symbol
_atom_site_label
_atom_site_fract_x
_atom_site_fract_y
_atom_site_fract_z
Si Si1 0.387056 0.658095 0.094229
Si Si2 0.712687 0.347119 0.147755
Si Si3 0.947321 0.500000 0.100837
Si Si4 0.204358 0.846080 0.850093
Si Si5 0.897246 0.230841 0.901382
Si Si6 0.050769 0.850848 0.256149
O O1 0.385649 0.500000 0.107704
O O2 0.333570 0.706768 0.100571
O O3 0.418850 0.723968 0.169588
O O4 0.406890 0.697559 0.000000
O O5 0.726074 0.500000 0.122310
O O6 0.753331 0.246819 0.117527
O O7 0.701477 0.339079 0.248195
O O8 0.916356 0.625591 0.129814
O O9 0.000000 0.500000 0.141503
O O10 0.953144 0.500000 0.000000
O O11 0.158220 0.782335 0.891977
O O12 0.210791 0.000000 0.880947
O O13 0.922819 0.132982 0.835014
O O14 0.911532 0.198940 0.000000
O O15 0.000000 0.779318 0.245778
O O16 0.042256 0.000000 0.289489
#
# Coordination Sequence:
#
# PCOD8290523 Si02
#       6
#    16  16   8  16  16  16
#     4   9  17  32  54  79 106 139 181 229 278 326
#     4   9  18  34  55  78 110 150 192 234 276 332
#     4   9  20  38  56  78 109 145 191 239 271 317
#     4  10  20  34  53  81 116 150 186 231 282 338
#     4  11  22  36  56  80 111 148 185 227 278 333
#     4  10  20  34  53  79 111 143 178 223 276 335
#
# _framework density 19.763762
#
# number of rings (size 3 to 8) (size 9 to 14) (size 15 to 20)
#    0.000    2.273    1.818    1.091    1.273    3.636 
#    0.000    2.727    0.000    0.000    0.000    0.000 
#    0.000    2.182    0.000    0.000    0.000    0.000 
#
# Total GULP energy -545247.574536 kJ/mol
# GULP energy per Si atom -12391.990330 kJ/mol
# Density = 1.971878 g / cm^3
# Si number density = 19.763762 Si / 1000 Ang^3
#
#
#
# Elastic Constant Matrix: (Units=GPa)
#
#
# Indices 1 2 3 4 5 6 
#
# 1 157.5565 44.0745 66.3535 0.0000 0.0000 0.0000
# 2 44.0745 76.6212 12.2361 0.0000 0.0000 0.0000
# 3 66.3535 12.2361 104.0878 0.0000 0.0000 0.0000
# 4 0.0000 0.0000 0.0000 10.8813 0.0000 0.0000
# 5 0.0000 0.0000 0.0000 0.0000 21.9304 0.0000
# 6 0.0000 0.0000 0.0000 0.0000 0.0000 23.4106
#
#
#
# Elastic Compliance Matrix: (Units=1/GPa)
#
#
# Indices 1 2 3 4 5 6 
#
# 1 0.010230 -0.004936 -0.005941 0.000000 0.000000 0.000000
# 2 -0.004936 0.015682 0.001303 0.000000 0.000000 0.000000
# 3 -0.005941 0.001303 0.013241 0.000000 0.000000 0.000000
# 4 0.000000 0.000000 0.000000 0.091901 0.000000 0.000000
# 5 0.000000 0.000000 0.000000 0.000000 0.045599 0.000000
# 6 0.000000 0.000000 0.000000 0.000000 0.000000 0.042716
#
#
# Mechanical properties :
#
#
# Convention : Reuss Voigt Hill
#
# Bulk Modulus (GPa) = 49.98574 64.84374 57.41474
# Shear Modulus (GPa) = 20.39285 25.61790 23.00538
#
# Velocity S-wave (km/s) = 3.21570 3.60419 3.41547
# Velocity P-wave (km/s) = 6.25573 7.08526 6.68338
#
# Compressibility (1/GPa) = 0.02000570
#
# Stress axis : x y z
#
# Youngs Moduli (GPa) = 97.75612 63.76648 75.52132
#
# Poissons Ratio (x) = 0.31472 0.44866
# Poissons Ratio (y) = 0.48248 -0.09839
# Poissons Ratio (z) = 0.58076 -0.08307
#
# Static dielectric constant tensor:
#      x y z
#    x 3.854150 0.000000 0.000000 
#    y 0.000000 3.458220 0.000000 
#    z 0.000000 0.000000 3.500880 
# 
# 
# High freq. dielectric constant tensor:
#      x y z
#    x 1.780470 0.000000 0.000000 
#    y 0.000000 1.729920 0.000000 
#    z 0.000000 0.000000 1.766460 
# 
# From -- ./inp_files/40165.got.cif
#   From: 2010.06.25/outbox.cif.g09.slc.cpg/sg71_21_cif.got.tgz:40165.got - 2010.06.28 04:59:45.
