data_PCOD8290240
_publ_section_title
;
Structure prediction by ZEFSAII (Michael W. Deem and Ramdas Pophale) SiO2 
 PCOD8290240
Probable space group: I M M M
;
_chemical_formula_sum "Si O2"
_cell_formula_units_Z 64
_cell_length_a 8.593527
_cell_length_b 14.917168
_cell_length_c 26.192623
_cell_angle_alpha 90.000000
_cell_angle_beta 90.000000
_cell_angle_gamma 90.000000
_cell_volume 3357.660787
_symmetry_space_group_name_H-M "I M M M"
_symmetry_group_IT_number 71
_symmetry_cell_setting 'orthorhombic'
loop_
_space_group_symop_operation_xyz
x,y,z
-x,-y,z
x,-y,-z
-x,y,-z
-x,-y,-z
x,y,-z
-x,y,z
x,-y,z
1/2+x,1/2+y,1/2+z
1/2-x,1/2-y,1/2+z
1/2+x,1/2-y,1/2-z
1/2-x,1/2+y,1/2-z
1/2-x,1/2-y,1/2-z
1/2+x,1/2+y,1/2-z
1/2-x,1/2+y,1/2+z
1/2+x,1/2-y,1/2+z
loop_
_atom_site_type_symbol
_atom_site_label
_atom_site_fract_x
_atom_site_fract_y
_atom_site_fract_z
Si Si1 0.314544 0.500000 0.673465
Si Si2 0.818143 0.000000 0.440710
Si Si3 0.315717 0.500000 0.211221
Si Si4 0.185322 0.898343 0.000000
Si Si5 0.685136 0.333601 0.391710
Si Si6 0.684312 0.136864 0.365980
O O1 0.500000 0.500000 0.672753
O O2 0.251252 0.500000 0.731193
O O3 0.249861 0.412116 0.644668
O O4 0.740807 0.911745 0.417195
O O5 0.782001 0.000000 0.500000
O O6 0.000000 0.000000 0.427858
O O7 0.500000 0.500000 0.209849
O O8 0.255794 0.410200 0.183766
O O9 0.248148 0.847790 0.050558
O O10 0.000000 0.899619 0.000000
O O11 0.248333 0.000000 0.000000
O O12 0.500000 0.336153 0.392631
O O13 0.743902 0.239103 0.369166
O O14 0.500000 0.130635 0.362388
#
# Coordination Sequence:
#
# PCOD8290240 Si02
#       6
#     8   8   8   8  16  16
#     4   9  17  31  49  72 102 137 172 208 252 307
#     4  10  21  36  52  71 100 139 176 207 247 304
#     4  10  20  35  54  71  99 140 178 211 251 304
#     4   9  14  24  44  69 103 136 158 197 253 310
#     4   9  17  28  46  75 106 133 164 205 257 305
#     4  10  20  33  52  77 105 131 166 216 259 297
#
# _framework density 19.060887999999998
#
# number of rings (size 3 to 8) (size 9 to 14) (size 15 to 20)
#    0.000    2.500    1.250    3.000    1.750    2.000 
#    0.000    0.000    0.000    4.500    0.000    0.000 
#    0.000    6.000    0.000    0.000    0.000    0.000 
#
# Total GULP energy -396756.148150 kJ/mol
# GULP energy per Si atom -12398.629630 kJ/mol
# Density = 1.901750 g / cm^3
# Si number density = 19.060888 Si / 1000 Ang^3
#
#
#
# Elastic Constant Matrix: (Units=GPa)
#
#
# Indices 1 2 3 4 5 6 
#
# 1 42.7899 26.3106 25.1416 0.0000 0.0000 0.0000
# 2 26.3106 198.5577 99.1753 0.0000 0.0000 0.0000
# 3 25.1416 99.1753 184.8623 0.0000 0.0000 0.0000
# 4 0.0000 0.0000 0.0000 17.2293 0.0000 0.0000
# 5 0.0000 0.0000 0.0000 0.0000 16.9749 0.0000
# 6 0.0000 0.0000 0.0000 0.0000 0.0000 6.8814
#
#
#
# Elastic Compliance Matrix: (Units=1/GPa)
#
#
# Indices 1 2 3 4 5 6 
#
# 1 0.026151 -0.002307 -0.002319 0.000000 0.000000 0.000000
# 2 -0.002307 0.007083 -0.003486 0.000000 0.000000 0.000000
# 3 -0.002319 -0.003486 0.007595 0.000000 0.000000 0.000000
# 4 0.000000 0.000000 0.000000 0.058041 0.000000 0.000000
# 5 0.000000 0.000000 0.000000 0.000000 0.058911 0.000000
# 6 0.000000 0.000000 0.000000 0.000000 0.000000 0.145320
#
#
# Mechanical properties :
#
#
# Convention : Reuss Voigt Hill
#
# Bulk Modulus (GPa) = 40.64203 80.82944 60.73574
# Shear Modulus (GPa) = 15.26591 26.58926 20.92758
#
# Velocity S-wave (km/s) = 2.83309 3.73897 3.31710
# Velocity P-wave (km/s) = 5.66307 7.81907 6.82672
#
# Compressibility (1/GPa) = 0.02460507
#
# Stress axis : x y z
#
# Youngs Moduli (GPa) = 38.23937 141.17576 131.66260
#
# Poissons Ratio (x) = 0.32569 0.30532
# Poissons Ratio (y) = 0.08822 0.45902
# Poissons Ratio (z) = 0.08867 0.49219
#
# Static dielectric constant tensor:
#      x y z
#    x 3.054030 0.000000 0.000000 
#    y 0.000000 3.701800 0.000000 
#    z 0.000000 0.000000 3.691910 
# 
# 
# High freq. dielectric constant tensor:
#      x y z
#    x 1.698470 0.000000 0.000000 
#    y 0.000000 1.749700 0.000000 
#    z 0.000000 0.000000 1.749630 
# 
# From -- ./inp_files/31390.got.cif
#   From: 2010.06.25/outbox.cif.g09.slc.cpg/sg71_16_cif.got.tgz:31390.got - 2010.06.28 04:59:45.
