data_PCOD8290650
_publ_section_title
;
Structure prediction by ZEFSAII (Michael W. Deem and Ramdas Pophale) SiO2 
 PCOD8290650
Probable space group: I M M M
;
_chemical_formula_sum "Si O2"
_cell_formula_units_Z 72
_cell_length_a 32.405817
_cell_length_b 12.965176
_cell_length_c 8.018061
_cell_angle_alpha 90.000000
_cell_angle_beta 90.000000
_cell_angle_gamma 90.000000
_cell_volume 3368.765244
_symmetry_space_group_name_H-M "I M M M"
_symmetry_group_IT_number 71
_symmetry_cell_setting 'orthorhombic'
loop_
_space_group_symop_operation_xyz
x,y,z
-x,-y,z
x,-y,-z
-x,y,-z
-x,-y,-z
x,y,-z
-x,y,z
x,-y,z
1/2+x,1/2+y,1/2+z
1/2-x,1/2-y,1/2+z
1/2+x,1/2-y,1/2-z
1/2-x,1/2+y,1/2-z
1/2-x,1/2-y,1/2-z
1/2+x,1/2+y,1/2-z
1/2-x,1/2+y,1/2+z
1/2+x,1/2-y,1/2+z
loop_
_atom_site_type_symbol
_atom_site_label
_atom_site_fract_x
_atom_site_fract_y
_atom_site_fract_z
Si Si1 0.832574 0.619105 0.180740
Si Si2 0.785053 0.376501 0.500000
Si Si3 0.914524 0.693772 0.312306
Si Si4 0.691739 0.623268 0.500000
Si Si5 0.000000 0.385308 0.805464
Si Si6 0.138208 0.882634 0.687187
O O1 0.820727 0.500000 0.169801
O O2 0.808083 0.669624 0.336242
O O3 0.881739 0.628817 0.205095
O O4 0.820178 0.670427 0.000000
O O5 0.787828 0.500000 0.500000
O O6 0.738436 0.335495 0.500000
O O7 0.911701 0.652128 0.500000
O O8 0.903371 0.815290 0.302067
O O9 0.960380 0.679686 0.246946
O O10 0.692157 0.500000 0.500000
O O11 0.669449 0.661464 0.671250
O O12 0.000000 0.500000 0.723201
O O13 0.000000 0.398609 0.000000
O O14 0.157837 0.873864 0.500000
O O15 0.125905 0.000000 0.727255
#
# Coordination Sequence:
#
# PCOD8290650 Si02
#       6
#    16   8  16   8   8  16
#     4  10  20  34  55  81 115 158 194 237 296 351
#     4   9  18  34  54  83 116 149 200 249 290 349
#     4  11  22  38  62  85 117 155 196 239 292 345
#     4   9  18  34  60  85 111 153 199 249 297 339
#     4  11  25  41  60  93 126 156 192 233 284 346
#     4   9  20  38  60  86 115 152 199 243 292 347
#
# _framework density 21.372817999999999
#
# number of rings (size 3 to 8) (size 9 to 14) (size 15 to 20)
#    0.000    2.111    1.111    1.667    3.111    4.444 
#    0.000    6.111    0.000    3.333    0.000    0.000 
#    0.000    0.000    0.000    0.000    0.000    0.000 
#
# Total GULP energy -446335.527383 kJ/mol
# GULP energy per Si atom -12398.209094 kJ/mol
# Density = 2.132417 g / cm^3
# Si number density = 21.372818 Si / 1000 Ang^3
#
#
#
# Elastic Constant Matrix: (Units=GPa)
#
#
# Indices 1 2 3 4 5 6 
#
# 1 169.4964 29.6942 87.1014 0.0000 0.0000 0.0000
# 2 29.6942 43.3547 51.9711 0.0000 0.0000 0.0000
# 3 87.1014 51.9711 188.0822 -0.0001 -0.0001 0.0000
# 4 0.0000 0.0000 -0.0001 32.3887 0.0000 0.0000
# 5 0.0000 0.0000 -0.0001 0.0000 25.0806 0.0000
# 6 0.0000 0.0000 0.0000 0.0000 0.0000 32.9882
#
#
#
# Elastic Compliance Matrix: (Units=1/GPa)
#
#
# Indices 1 2 3 4 5 6 
#
# 1 0.007808 -0.001515 -0.003197 0.000000 0.000000 0.000000
# 2 -0.001515 0.034784 -0.008910 0.000000 0.000000 0.000000
# 3 -0.003197 -0.008910 0.009260 0.000000 0.000000 0.000000
# 4 0.000000 0.000000 0.000000 0.030875 0.000000 0.000000
# 5 0.000000 0.000000 0.000000 0.000000 0.039872 0.000000
# 6 0.000000 0.000000 0.000000 0.000000 0.000000 0.030314
#
#
# Mechanical properties :
#
#
# Convention : Reuss Voigt Hill
#
# Bulk Modulus (GPa) = 40.63889 82.05185 61.34537
# Shear Modulus (GPa) = 26.54497 33.56924 30.05711
#
# Velocity S-wave (km/s) = 3.52802 3.96744 3.75417
# Velocity P-wave (km/s) = 5.97089 7.71113 6.89612
#
# Compressibility (1/GPa) = 0.02460697
#
# Stress axis : x y z
#
# Youngs Moduli (GPa) = 128.06775 28.74885 107.99675
#
# Poissons Ratio (x) = 0.04356 0.34531
# Poissons Ratio (y) = 0.19405 0.96224
# Poissons Ratio (z) = 0.40948 0.25615
#
# Static dielectric constant tensor:
#      x y z
#    x 3.272030 0.000000 0.000000 
#    y 0.000000 3.875330 0.000000 
#    z 0.000000 0.000000 4.399350 
# 
# 
# High freq. dielectric constant tensor:
#      x y z
#    x 1.806420 0.000000 0.000000 
#    y 0.000000 1.847350 0.000000 
#    z 0.000000 0.000000 1.865140 
# 
# From -- ./inp_files/14372.got.cif
#   From: 2010.06.25/outbox.cif.g09.slc.cpg/sg71_8_cif.got.tgz:14372.got - 2010.06.28 04:59:45.
