data_PCOD8290747
_publ_section_title
;
Structure prediction by ZEFSAII (Michael W. Deem and Ramdas Pophale) SiO2 
 PCOD8290747
Probable space group: I M M M
;
_chemical_formula_sum "Si O2"
_cell_formula_units_Z 112
_cell_length_a 16.189747
_cell_length_b 25.648272
_cell_length_c 14.370319
_cell_angle_alpha 90.000000
_cell_angle_beta 90.000000
_cell_angle_gamma 90.000000
_cell_volume 5967.117389
_symmetry_space_group_name_H-M "I M M M"
_symmetry_group_IT_number 71
_symmetry_cell_setting 'orthorhombic'
loop_
_space_group_symop_operation_xyz
x,y,z
-x,-y,z
x,-y,-z
-x,y,-z
-x,-y,-z
x,y,-z
-x,y,z
x,-y,z
1/2+x,1/2+y,1/2+z
1/2-x,1/2-y,1/2+z
1/2+x,1/2-y,1/2-z
1/2-x,1/2+y,1/2-z
1/2-x,1/2-y,1/2-z
1/2+x,1/2+y,1/2-z
1/2-x,1/2+y,1/2+z
1/2+x,1/2-y,1/2+z
loop_
_atom_site_type_symbol
_atom_site_label
_atom_site_fract_x
_atom_site_fract_y
_atom_site_fract_z
Si Si1 0.500000 0.291055 0.610770
Si Si2 0.000000 0.328312 0.110297
Si Si3 0.214098 0.058310 0.754188
Si Si4 0.698838 0.308708 0.894661
Si Si5 0.657479 0.859115 0.714028
Si Si6 0.905669 0.091714 0.606739
Si Si7 0.845831 0.856841 0.104572
Si Si8 0.171246 0.692351 0.602835
O O1 0.500000 0.288298 0.500000
O O2 0.500000 0.231406 0.648252
O O3 0.420399 0.322739 0.647381
O O4 0.079511 0.359976 0.146299
O O5 0.000000 0.330213 0.000000
O O6 0.300864 0.083777 0.721042
O O7 0.151070 0.053817 0.667945
O O8 0.171182 0.091742 0.835359
O O9 0.232550 0.000000 0.790630
O O10 0.773878 0.318824 0.824108
O O11 0.625187 0.349305 0.878369
O O12 0.657894 0.253000 0.875774
O O13 0.734015 0.312192 0.000000
O O14 0.626812 0.841119 0.816812
O O15 0.896997 0.074071 0.500000
O O16 0.000000 0.087881 0.640246
O O17 0.768588 0.818412 0.105365
O O18 0.866763 0.875673 0.000000
O O19 0.135589 0.677718 0.500000
#
# Coordination Sequence:
#
# PCOD8290747 Si02
#       8
#     8   8  16  16  16  16  16  16
#     4   9  18  32  51  82 120 153 173 206 263 324
#     4  11  22  36  58  86 114 141 172 214 274 342
#     4  10  22  38  56  75 100 139 186 232 275 308
#     4   9  16  29  51  75 105 140 174 213 262 318
#     4  10  20  35  52  77 105 136 178 224 273 323
#     4   9  19  34  49  71 103 136 174 217 259 310
#     4   9  18  33  53  78 111 143 179 219 261 316
#     4   9  17  31  50  74 105 144 180 214 259 319
#
# _framework density 18.769532000000002
#
# number of rings (size 3 to 8) (size 9 to 14) (size 15 to 20)
#    0.000    2.571    0.000    1.714    1.000    6.000 
#    1.286    1.429    0.000    1.714    0.000    0.000 
#    0.000    4.571    0.000    0.000    0.000    0.000 
#
# Total GULP energy -694320.373044 kJ/mol
# GULP energy per Si atom -12398.578090 kJ/mol
# Density = 1.872681 g / cm^3
# Si number density = 18.769532 Si / 1000 Ang^3
#
#
#
# Elastic Constant Matrix: (Units=GPa)
#
#
# Indices 1 2 3 4 5 6 
#
# 1 73.0603 30.9053 27.3454 0.0000 0.0000 0.0000
# 2 30.9053 101.2385 30.9896 -0.0001 0.0000 0.0000
# 3 27.3454 30.9896 83.2574 -0.0006 -0.0001 0.0000
# 4 0.0000 -0.0001 -0.0006 19.7184 -0.0001 -0.0001
# 5 0.0000 0.0000 -0.0001 -0.0001 25.2728 0.0000
# 6 0.0000 0.0000 0.0000 -0.0001 0.0000 14.1413
#
#
#
# Elastic Compliance Matrix: (Units=1/GPa)
#
#
# Indices 1 2 3 4 5 6 
#
# 1 0.016866 -0.003897 -0.004089 0.000000 0.000000 0.000000
# 2 -0.003897 0.012048 -0.003205 0.000000 0.000000 0.000000
# 3 -0.004089 -0.003205 0.014547 0.000000 0.000000 0.000000
# 4 0.000000 0.000000 0.000000 0.050714 0.000000 0.000000
# 5 0.000000 0.000000 0.000000 0.000000 0.039568 0.000000
# 6 0.000000 0.000000 0.000000 0.000000 0.000000 0.070715
#
#
# Mechanical properties :
#
#
# Convention : Reuss Voigt Hill
#
# Bulk Modulus (GPa) = 47.43868 48.44853 47.94361
# Shear Modulus (GPa) = 21.37971 23.04756 22.21364
#
# Velocity S-wave (km/s) = 3.37866 3.50798 3.44393
# Velocity P-wave (km/s) = 6.36786 6.50202 6.43529
#
# Compressibility (1/GPa) = 0.02107984
#
# Stress axis : x y z
#
# Youngs Moduli (GPa) = 59.28973 82.99933 68.74387
#
# Poissons Ratio (x) = 0.32346 0.28110
# Poissons Ratio (y) = 0.23106 0.22029
# Poissons Ratio (z) = 0.24244 0.26598
#
# Static dielectric constant tensor:
#      x y z
#    x 3.297620 0.000000 0.000000 
#    y 0.000000 3.173080 0.000000 
#    z 0.000000 0.000000 3.750120 
# 
# 
# High freq. dielectric constant tensor:
#      x y z
#    x 1.707320 0.000000 0.000000 
#    y 0.000000 1.703360 0.000000 
#    z 0.000000 0.000000 1.740800 
# 
# From -- ./inp_files/35176.got.cif
#   From: 2010.06.25/outbox.cif.g09.slc.cpg/sg71_18_cif.got.tgz:35176.got - 2010.06.28 04:59:45.
