data_PCOD8290575
_publ_section_title
;
Structure prediction by ZEFSAII (Michael W. Deem and Ramdas Pophale) SiO2 
 PCOD8290575
Probable space group: I M M M
;
_chemical_formula_sum "Si O2"
_cell_formula_units_Z 88
_cell_length_a 30.702498
_cell_length_b 17.901906
_cell_length_c 8.659998
_cell_angle_alpha 90.000000
_cell_angle_beta 90.000000
_cell_angle_gamma 90.000000
_cell_volume 4759.822700
_symmetry_space_group_name_H-M "I M M M"
_symmetry_group_IT_number 71
_symmetry_cell_setting 'orthorhombic'
loop_
_space_group_symop_operation_xyz
x,y,z
-x,-y,z
x,-y,-z
-x,y,-z
-x,-y,-z
x,y,-z
-x,y,z
x,-y,z
1/2+x,1/2+y,1/2+z
1/2-x,1/2-y,1/2+z
1/2+x,1/2-y,1/2-z
1/2-x,1/2+y,1/2-z
1/2-x,1/2-y,1/2-z
1/2+x,1/2+y,1/2-z
1/2-x,1/2+y,1/2+z
1/2+x,1/2-y,1/2+z
loop_
_atom_site_type_symbol
_atom_site_label
_atom_site_fract_x
_atom_site_fract_y
_atom_site_fract_z
Si Si1 0.203130 0.236170 0.681122
Si Si2 0.120268 0.696181 0.816520
Si Si3 0.585624 0.650172 0.677127
Si Si4 0.450799 0.913222 0.180939
Si Si5 0.174520 0.916533 0.822304
Si Si6 0.000000 0.917586 0.185795
O O1 0.203642 0.248050 0.500000
O O2 0.250000 0.250000 0.750000
O O3 0.169585 0.298541 0.750230
O O4 0.193466 0.149298 0.718031
O O5 0.099103 0.771512 0.747644
O O6 0.089296 0.628533 0.763840
O O7 0.124324 0.693987 0.000000
O O8 0.575421 0.667008 0.500000
O O9 0.622284 0.586737 0.693355
O O10 0.541848 0.622738 0.758364
O O11 0.500000 0.887665 0.234260
O O12 0.445103 0.000000 0.221709
O O13 0.446222 0.899297 0.000000
O O14 0.189575 0.000000 0.769285
O O15 0.188396 0.902344 0.000000
O O16 0.000000 0.000000 0.252221
O O17 0.000000 0.918406 0.000000
#
# Coordination Sequence:
#
# PCOD8290575 Si02
#       6
#    16  16  16  16  16   8
#     4  11  22  38  59  81 109 141 180 227 280 337
#     4  10  20  34  54  80 109 140 181 228 276 328
#     4   8  15  25  40  67 102 137 172 210 251 295
#     4   9  19  36  56  79 111 151 191 231 281 342
#     4   9  17  32  53  77 107 141 177 218 265 315
#     4   9  14  20  34  60  96 135 170 202 239 281
#
# _framework density 18.488083
#
# number of rings (size 3 to 8) (size 9 to 14) (size 15 to 20)
#    0.000    2.636    0.000    4.364    1.273    3.273 
#    0.000    1.818    0.000    5.455    0.000    0.000 
#    0.000    7.636    0.000    0.000    0.000    0.000 
#
# Total GULP energy -545088.509976 kJ/mol
# GULP energy per Si atom -12388.375227 kJ/mol
# Density = 1.844600 g / cm^3
# Si number density = 18.488083 Si / 1000 Ang^3
#
#
#
# Elastic Constant Matrix: (Units=GPa)
#
#
# Indices 1 2 3 4 5 6 
#
# 1 152.3510 56.0303 50.7256 0.0000 0.0000 0.0000
# 2 56.0303 86.3432 36.5587 0.0000 0.0000 0.0000
# 3 50.7256 36.5587 80.8071 0.0000 0.0000 0.0000
# 4 0.0000 0.0000 0.0000 25.0654 0.0000 0.0000
# 5 0.0000 0.0000 0.0000 0.0000 23.9107 0.0000
# 6 0.0000 0.0000 0.0000 0.0000 0.0000 24.7282
#
#
#
# Elastic Compliance Matrix: (Units=1/GPa)
#
#
# Indices 1 2 3 4 5 6 
#
# 1 0.009539 -0.004521 -0.003943 0.000000 0.000000 0.000000
# 2 -0.004521 0.016468 -0.004613 0.000000 0.000000 0.000000
# 3 -0.003943 -0.004613 0.016937 0.000000 0.000000 0.000000
# 4 0.000000 0.000000 0.000000 0.039896 0.000000 0.000000
# 5 0.000000 0.000000 0.000000 0.000000 0.041822 0.000000
# 6 0.000000 0.000000 0.000000 0.000000 0.000000 0.040440
#
#
# Mechanical properties :
#
#
# Convention : Reuss Voigt Hill
#
# Bulk Modulus (GPa) = 59.55223 67.34786 63.45005
# Shear Modulus (GPa) = 25.39976 26.48665 25.94321
#
# Velocity S-wave (km/s) = 3.71056 3.78912 3.75005
# Velocity P-wave (km/s) = 7.11609 7.45990 7.29002
#
# Compressibility (1/GPa) = 0.01679198
#
# Stress axis : x y z
#
# Youngs Moduli (GPa) = 104.83101 60.72214 59.04199
#
# Poissons Ratio (x) = 0.27451 0.23279
# Poissons Ratio (y) = 0.47392 0.27235
# Poissons Ratio (z) = 0.41333 0.28010
#
# Static dielectric constant tensor:
#      x y z
#    x 3.661760 0.000000 0.000000 
#    y 0.000000 3.315640 0.000000 
#    z 0.000000 0.000000 3.099110 
# 
# 
# High freq. dielectric constant tensor:
#      x y z
#    x 1.720280 0.000000 0.000000 
#    y 0.000000 1.713040 0.000000 
#    z 0.000000 0.000000 1.689230 
# 
# From -- ./inp_files/16658.got.cif
#   From: 2010.06.25/outbox.cif.g09.slc.cpg/sg71_9_cif.got.tgz:16658.got - 2010.06.28 04:59:45.
