data_PCOD8290197
_publ_section_title
;
Structure prediction by ZEFSAII (Michael W. Deem and Ramdas Pophale) SiO2 
 PCOD8290197
Probable space group: I M M M
;
_chemical_formula_sum "Si O2"
_cell_formula_units_Z 88
_cell_length_a 23.271917
_cell_length_b 21.857299
_cell_length_c 8.913705
_cell_angle_alpha 90.000000
_cell_angle_beta 90.000000
_cell_angle_gamma 90.000000
_cell_volume 4534.056311
_symmetry_space_group_name_H-M "I M M M"
_symmetry_group_IT_number 71
_symmetry_cell_setting 'orthorhombic'
loop_
_space_group_symop_operation_xyz
x,y,z
-x,-y,z
x,-y,-z
-x,y,-z
-x,-y,-z
x,y,-z
-x,y,z
x,-y,z
1/2+x,1/2+y,1/2+z
1/2-x,1/2-y,1/2+z
1/2+x,1/2-y,1/2-z
1/2-x,1/2+y,1/2-z
1/2-x,1/2-y,1/2-z
1/2+x,1/2+y,1/2-z
1/2-x,1/2+y,1/2+z
1/2+x,1/2-y,1/2+z
loop_
_atom_site_type_symbol
_atom_site_label
_atom_site_fract_x
_atom_site_fract_y
_atom_site_fract_z
Si Si1 0.842777 0.781269 0.677111
Si Si2 0.432722 0.626666 0.677414
Si Si3 0.671463 0.070909 0.169268
Si Si4 0.937715 0.427765 0.835081
Si Si5 0.716675 0.823113 0.673427
Si Si6 0.568017 0.500000 0.829882
O O1 0.854160 0.782070 0.500000
O O2 0.894653 0.818029 0.755702
O O3 0.781193 0.808487 0.724572
O O4 0.835042 0.711903 0.737634
O O5 0.423402 0.623626 0.500000
O O6 0.500000 0.638541 0.716511
O O7 0.411072 0.561808 0.746137
O O8 0.606248 0.091127 0.205716
O O9 0.712522 0.105613 0.284852
O O10 0.681916 0.000000 0.198052
O O11 0.685606 0.089867 0.000000
O O12 0.942947 0.500000 0.842411
O O13 0.000000 0.399342 0.795131
O O14 0.917550 0.403795 0.000000
O O15 0.707692 0.809752 0.500000
O O16 0.500000 0.500000 0.830375
O O17 0.592308 0.500000 0.000000
#
# Coordination Sequence:
#
# PCOD8290197 Si02
#       6
#    16  16  16  16  16   8
#     4  10  21  38  60  83 107 142 184 228 275 328
#     4  10  20  35  57  86 119 153 188 228 279 337
#     4  10  20  33  51  77 108 140 175 221 273 322
#     4   8  14  26  45  68  95 130 169 207 253 310
#     4  10  21  38  59  80 105 142 184 227 275 330
#     4   9  17  31  53  81 115 153 189 227 274 329
#
# _framework density 19.408669
#
# number of rings (size 3 to 8) (size 9 to 14) (size 15 to 20)
#    0.000    2.455    0.000    3.000    0.000    5.818 
#    1.636    2.727    0.000    5.455    0.000    0.000 
#    0.000    0.000    0.000    0.000    0.000    0.000 
#
# Total GULP energy -545228.102779 kJ/mol
# GULP energy per Si atom -12391.547790 kJ/mol
# Density = 1.936449 g / cm^3
# Si number density = 19.408669 Si / 1000 Ang^3
#
#
#
# Elastic Constant Matrix: (Units=GPa)
#
#
# Indices 1 2 3 4 5 6 
#
# 1 68.5658 43.8358 37.7073 0.0000 0.0000 0.0000
# 2 43.8358 76.3257 46.7561 0.0000 0.0000 0.0000
# 3 37.7073 46.7561 90.9944 0.0000 0.0000 0.0000
# 4 0.0000 0.0000 0.0000 35.5549 0.0000 0.0000
# 5 0.0000 0.0000 0.0000 0.0000 29.7541 0.0000
# 6 0.0000 0.0000 0.0000 0.0000 0.0000 24.8955
#
#
#
# Elastic Compliance Matrix: (Units=1/GPa)
#
#
# Indices 1 2 3 4 5 6 
#
# 1 0.024096 -0.011270 -0.004195 0.000000 0.000000 0.000000
# 2 -0.011270 0.024391 -0.007863 0.000000 0.000000 0.000000
# 3 -0.004195 -0.007863 0.016768 0.000000 0.000000 0.000000
# 4 0.000000 0.000000 0.000000 0.028126 0.000000 0.000000
# 5 0.000000 0.000000 0.000000 0.000000 0.033609 0.000000
# 6 0.000000 0.000000 0.000000 0.000000 0.000000 0.040168
#
#
# Mechanical properties :
#
#
# Convention : Reuss Voigt Hill
#
# Bulk Modulus (GPa) = 53.76001 54.72046 54.24023
# Shear Modulus (GPa) = 22.72608 25.21335 23.96971
#
# Velocity S-wave (km/s) = 3.42559 3.60818 3.51807
# Velocity P-wave (km/s) = 6.58827 6.75379 6.67154
#
# Compressibility (1/GPa) = 0.01860119
#
# Stress axis : x y z
#
# Youngs Moduli (GPa) = 41.50031 40.99911 59.63709
#
# Poissons Ratio (x) = 0.46204 0.25015
# Poissons Ratio (y) = 0.46769 0.46892
# Poissons Ratio (z) = 0.17408 0.32237
#
# Static dielectric constant tensor:
#      x y z
#    x 3.596490 0.000000 0.000000 
#    y 0.000000 3.547850 0.000000 
#    z 0.000000 0.000000 3.624180 
# 
# 
# High freq. dielectric constant tensor:
#      x y z
#    x 1.740470 0.000000 0.000000 
#    y 0.000000 1.744480 0.000000 
#    z 0.000000 0.000000 1.764320 
# 
# From -- ./inp_files/12550.got.cif
#   From: 2010.06.25/outbox.cif.g09.slc.cpg/sg71_7_cif.got.tgz:12550.got - 2010.06.28 04:59:45.
