data_PCOD8290407
_publ_section_title
;
Structure prediction by ZEFSAII (Michael W. Deem and Ramdas Pophale) SiO2 
 PCOD8290407
Probable space group: I M M M
;
_chemical_formula_sum "Si O2"
_cell_formula_units_Z 88
_cell_length_a 8.952383
_cell_length_b 28.960848
_cell_length_c 17.662681
_cell_angle_alpha 90.000000
_cell_angle_beta 90.000000
_cell_angle_gamma 90.000000
_cell_volume 4579.378633
_symmetry_space_group_name_H-M "I M M M"
_symmetry_group_IT_number 71
_symmetry_cell_setting 'orthorhombic'
loop_
_space_group_symop_operation_xyz
x,y,z
-x,-y,z
x,-y,-z
-x,y,-z
-x,-y,-z
x,y,-z
-x,y,z
x,-y,z
1/2+x,1/2+y,1/2+z
1/2-x,1/2-y,1/2+z
1/2+x,1/2-y,1/2-z
1/2-x,1/2+y,1/2-z
1/2-x,1/2-y,1/2-z
1/2+x,1/2+y,1/2-z
1/2-x,1/2+y,1/2+z
1/2+x,1/2-y,1/2+z
loop_
_atom_site_type_symbol
_atom_site_label
_atom_site_fract_x
_atom_site_fract_y
_atom_site_fract_z
Si Si1 0.677066 0.261538 0.170552
Si Si2 0.331641 0.500000 0.409715
Si Si3 0.666950 0.318723 0.410682
Si Si4 0.331538 0.090997 0.090357
Si Si5 0.178444 0.851907 0.414677
Si Si6 0.667504 0.549006 0.910031
O O1 0.500000 0.259602 0.177488
O O2 0.750000 0.250000 0.250000
O O3 0.730459 0.224427 0.109569
O O4 0.732860 0.311725 0.141886
O O5 0.500000 0.500000 0.378373
O O6 0.331510 0.500000 0.500000
O O7 0.247365 0.545006 0.378229
O O8 0.657700 0.322377 0.500000
O O9 0.500000 0.313632 0.376157
O O10 0.741154 0.365182 0.377468
O O11 0.500000 0.092829 0.121574
O O12 0.331469 0.091017 0.000000
O O13 0.237090 0.841441 0.500000
O O14 0.241916 0.901982 0.384236
O O15 0.000000 0.854176 0.416486
O O16 0.500000 0.547072 0.877629
O O17 0.747873 0.500000 0.884925
O O18 0.662258 0.551211 0.000000
#
# Coordination Sequence:
#
# PCOD8290407 Si02
#       6
#    16   8  16  16  16  16
#     4  11  22  35  50  69  96 131 171 210 251 299
#     4   9  15  23  37  61  95 129 159 195 240 287
#     4  10  20  34  52  74  99 126 160 205 256 307
#     4   9  16  26  42  66  95 126 159 195 240 294
#     4   8  14  25  43  68  96 126 159 196 241 293
#     4   7   9  15  31  59  94 124 147 177 224 283
#
# _framework density 19.216581000000001
#
# number of rings (size 3 to 8) (size 9 to 14) (size 15 to 20)
#    0.000    3.000    0.000    4.091    0.000    5.091 
#    0.000    0.000    0.000    0.000    2.364    0.000 
#    0.000    2.182    0.000   20.545    0.000   16.727 
#
# Total GULP energy -545086.756069 kJ/mol
# GULP energy per Si atom -12388.335365 kJ/mol
# Density = 1.917284 g / cm^3
# Si number density = 19.216581 Si / 1000 Ang^3
#
#
#
# Elastic Constant Matrix: (Units=GPa)
#
#
# Indices 1 2 3 4 5 6 
#
# 1 88.4742 55.5104 17.3763 0.0000 0.0000 0.0000
# 2 55.5104 228.6042 42.2071 0.0000 0.0000 0.0000
# 3 17.3763 42.2071 33.2183 -0.0009 -0.0001 -0.0001
# 4 0.0000 0.0000 -0.0009 7.3161 -0.0001 0.0000
# 5 0.0000 0.0000 -0.0001 -0.0001 17.4117 0.0000
# 6 0.0000 0.0000 -0.0001 0.0000 0.0000 25.8459
#
#
#
# Elastic Compliance Matrix: (Units=1/GPa)
#
#
# Indices 1 2 3 4 5 6 
#
# 1 0.013699 -0.002617 -0.003840 0.000000 0.000000 0.000000
# 2 -0.002617 0.006215 -0.006528 -0.000001 0.000000 0.000000
# 3 -0.003840 -0.006528 0.040407 0.000005 0.000000 0.000000
# 4 0.000000 -0.000001 0.000005 0.136685 0.000000 0.000000
# 5 0.000000 0.000000 0.000000 0.000000 0.057433 0.000000
# 6 0.000000 0.000000 0.000000 0.000000 0.000000 0.038691
#
#
# Mechanical properties :
#
#
# Convention : Reuss Voigt Hill
#
# Bulk Modulus (GPa) = 29.11182 64.49823 46.80503
# Shear Modulus (GPa) = 15.12627 25.79493 20.46060
#
# Velocity S-wave (km/s) = 2.80866 3.66775 3.26657
# Velocity P-wave (km/s) = 5.06955 7.18145 6.21585
#
# Compressibility (1/GPa) = 0.03435031
#
# Stress axis : x y z
#
# Youngs Moduli (GPa) = 72.99701 160.89635 24.74823
#
# Poissons Ratio (x) = 0.42114 0.09504
# Poissons Ratio (y) = 0.19107 0.16155
# Poissons Ratio (z) = 0.28032 1.05030
#
# Static dielectric constant tensor:
#      x y z
#    x 3.436530 0.000000 0.000010 
#    y 0.000000 4.321250 -0.000010 
#    z 0.000010 -0.000010 2.647690 
# 
# 
# High freq. dielectric constant tensor:
#      x y z
#    x 1.714150 0.000000 0.000000 
#    y 0.000000 1.780090 0.000000 
#    z 0.000000 0.000000 1.683600 
# 
# From -- ./inp_files/42469.got.cif
#   From: 2010.06.25/outbox.cif.g09.slc.cpg/sg71_22_cif.got.tgz:42469.got - 2010.06.28 04:59:45.
