data_PCOD8290143
_publ_section_title
;
Structure prediction by ZEFSAII (Michael W. Deem and Ramdas Pophale) SiO2 
 PCOD8290143
Probable space group: I M M M
;
_chemical_formula_sum "Si O2"
_cell_formula_units_Z 120
_cell_length_a 27.742264
_cell_length_b 26.485845
_cell_length_c 9.223936
_cell_angle_alpha 90.000000
_cell_angle_beta 90.000000
_cell_angle_gamma 90.000000
_cell_volume 6777.538829
_symmetry_space_group_name_H-M "I M M M"
_symmetry_group_IT_number 71
_symmetry_cell_setting 'orthorhombic'
loop_
_space_group_symop_operation_xyz
x,y,z
-x,-y,z
x,-y,-z
-x,y,-z
-x,-y,-z
x,y,-z
-x,y,z
x,-y,z
1/2+x,1/2+y,1/2+z
1/2-x,1/2-y,1/2+z
1/2+x,1/2-y,1/2-z
1/2-x,1/2+y,1/2-z
1/2-x,1/2-y,1/2-z
1/2+x,1/2+y,1/2-z
1/2-x,1/2+y,1/2+z
1/2+x,1/2-y,1/2+z
loop_
_atom_site_type_symbol
_atom_site_label
_atom_site_fract_x
_atom_site_fract_y
_atom_site_fract_z
Si Si1 0.316338 0.943583 0.671590
Si Si2 0.359898 0.854305 0.834899
Si Si3 0.619278 0.408878 0.333929
Si Si4 0.613698 0.705380 0.668072
Si Si5 0.291732 0.558568 0.164815
Si Si6 0.054179 0.000000 0.172740
Si Si7 0.054958 0.716482 0.333119
Si Si8 0.699496 0.755601 0.170607
O O1 0.318187 0.940074 0.500000
O O2 0.352947 0.903376 0.737170
O O3 0.262039 0.931616 0.725231
O O4 0.331267 0.000000 0.721716
O O5 0.412295 0.831874 0.795850
O O6 0.319310 0.812333 0.803432
O O7 0.357496 0.872214 0.000000
O O8 0.629114 0.422352 0.500000
O O9 0.598081 0.352888 0.314837
O O10 0.670850 0.409485 0.257044
O O11 0.581779 0.449918 0.269418
O O12 0.622674 0.719317 0.500000
O O13 0.569004 0.736999 0.730612
O O14 0.662075 0.716451 0.758605
O O15 0.305043 0.500000 0.177664
O O16 0.295364 0.577080 0.000000
O O17 0.000000 0.000000 0.237176
O O18 0.051593 0.000000 0.000000
O O19 0.063994 0.732763 0.500000
O O20 0.000000 0.701195 0.304060
O O21 0.750000 0.750000 0.250000
O O22 0.704516 0.743509 0.000000
#
# Coordination Sequence:
#
# PCOD8290143 Si02
#       8
#    16  16  16  16  16   8  16  16
#     4   9  19  34  51  76 109 143 177 209 252 310
#     4   9  19  34  53  79 106 134 174 219 260 308
#     4  10  20  33  51  73  99 133 174 220 264 315
#     4  10  21  34  50  78 108 135 176 224 267 316
#     4   9  18  32  49  70  98 135 174 212 254 304
#     4   9  18  34  53  71  95 131 173 219 274 321
#     4   9  19  38  60  79 103 137 176 219 270 323
#     4  10  21  36  52  74 107 145 180 217 266 320
#
# _framework density 17.705542999999999
#
# number of rings (size 3 to 8) (size 9 to 14) (size 15 to 20)
#    0.000    2.600    0.667    2.400    1.867    5.333 
#    0.000    2.667    0.000    1.200    0.000    2.800 
#    0.000    0.000    0.000    0.000    0.000    0.000 
#
# Total GULP energy -743987.557093 kJ/mol
# GULP energy per Si atom -12399.792618 kJ/mol
# Density = 1.766524 g / cm^3
# Si number density = 17.705543 Si / 1000 Ang^3
#
#
#
# Elastic Constant Matrix: (Units=GPa)
#
#
# Indices 1 2 3 4 5 6 
#
# 1 124.1489 62.4710 47.5100 0.0000 0.0000 0.0000
# 2 62.4710 114.8764 49.3626 0.0000 0.0000 0.0000
# 3 47.5100 49.3626 71.0872 0.0000 0.0000 0.0000
# 4 0.0000 0.0000 0.0000 28.2047 0.0000 0.0000
# 5 0.0000 0.0000 0.0000 0.0000 26.0267 0.0000
# 6 0.0000 0.0000 0.0000 0.0000 0.0000 18.4090
#
#
#
# Elastic Compliance Matrix: (Units=1/GPa)
#
#
# Indices 1 2 3 4 5 6 
#
# 1 0.012253 -0.004482 -0.005077 0.000000 0.000000 0.000000
# 2 -0.004482 0.014046 -0.006758 0.000000 0.000000 0.000000
# 3 -0.005077 -0.006758 0.022153 0.000000 0.000000 0.000000
# 4 0.000000 0.000000 0.000000 0.035455 0.000000 0.000000
# 5 0.000000 0.000000 0.000000 0.000000 0.038422 0.000000
# 6 0.000000 0.000000 0.000000 0.000000 0.000000 0.054321
#
#
# Mechanical properties :
#
#
# Convention : Reuss Voigt Hill
#
# Bulk Modulus (GPa) = 63.21749 69.86663 66.54206
# Shear Modulus (GPa) = 23.30375 24.57935 23.94155
#
# Velocity S-wave (km/s) = 3.63186 3.72994 3.68123
# Velocity P-wave (km/s) = 7.30545 7.62207 7.46544
#
# Compressibility (1/GPa) = 0.01581841
#
# Stress axis : x y z
#
# Youngs Moduli (GPa) = 81.61361 71.19311 45.13987
#
# Poissons Ratio (x) = 0.31906 0.22917
# Poissons Ratio (y) = 0.36576 0.30508
# Poissons Ratio (z) = 0.41435 0.48115
#
# Static dielectric constant tensor:
#      x y z
#    x 3.256710 0.000000 0.000000 
#    y 0.000000 3.219250 0.000000 
#    z 0.000000 0.000000 3.228380 
# 
# 
# High freq. dielectric constant tensor:
#      x y z
#    x 1.674580 0.000000 0.000000 
#    y 0.000000 1.680240 0.000000 
#    z 0.000000 0.000000 1.678890 
# 
# From -- ./inp_files/15666.got.cif
#   From: 2010.06.25/outbox.cif.g09.slc.cpg/sg71_8_cif.got.tgz:15666.got - 2010.06.28 04:59:45.
