data_PCOD8290216
_publ_section_title
;
Structure prediction by ZEFSAII (Michael W. Deem and Ramdas Pophale) SiO2 
 PCOD8290216
Probable space group: I M M M
;
_chemical_formula_sum "Si O2"
_cell_formula_units_Z 120
_cell_length_a 24.614199
_cell_length_b 27.758541
_cell_length_c 9.184439
_cell_angle_alpha 90.000000
_cell_angle_beta 90.000000
_cell_angle_gamma 90.000000
_cell_volume 6275.307000
_symmetry_space_group_name_H-M "I M M M"
_symmetry_group_IT_number 71
_symmetry_cell_setting 'orthorhombic'
loop_
_space_group_symop_operation_xyz
x,y,z
-x,-y,z
x,-y,-z
-x,y,-z
-x,-y,-z
x,y,-z
-x,y,z
x,-y,z
1/2+x,1/2+y,1/2+z
1/2-x,1/2-y,1/2+z
1/2+x,1/2-y,1/2-z
1/2-x,1/2+y,1/2-z
1/2-x,1/2-y,1/2-z
1/2+x,1/2+y,1/2-z
1/2-x,1/2+y,1/2+z
1/2+x,1/2-y,1/2+z
loop_
_atom_site_type_symbol
_atom_site_label
_atom_site_fract_x
_atom_site_fract_y
_atom_site_fract_z
Si Si1 0.936793 0.283855 0.658907
Si Si2 0.274451 0.705825 0.666172
Si Si3 0.370432 0.581729 0.168596
Si Si4 0.879555 0.810765 0.664832
Si Si5 0.144446 0.556069 0.331580
Si Si6 0.758501 0.098816 0.830414
Si Si7 0.936214 0.000000 0.828023
Si Si8 0.936412 0.375016 0.169919
O O1 0.910735 0.294869 0.500000
O O2 0.926005 0.228223 0.701412
O O3 0.914233 0.323293 0.772107
O O4 0.000000 0.290646 0.651047
O O5 0.272285 0.720553 0.500000
O O6 0.250000 0.750000 0.750000
O O7 0.335704 0.699439 0.713767
O O8 0.244173 0.655158 0.695765
O O9 0.399158 0.634161 0.182194
O O10 0.309514 0.581753 0.233948
O O11 0.408978 0.546770 0.258356
O O12 0.366627 0.565519 0.000000
O O13 0.856834 0.803716 0.500000
O O14 0.137495 0.570073 0.500000
O O15 0.135829 0.500000 0.303677
O O16 0.205228 0.569851 0.279776
O O17 0.097916 0.582647 0.241879
O O18 0.772769 0.089230 0.000000
O O19 0.000000 0.000000 0.791383
O O20 0.925630 0.000000 0.000000
O O21 0.000000 0.383112 0.206473
O O22 0.925482 0.375838 0.000000
#
# Coordination Sequence:
#
# PCOD8290216 Si02
#       8
#    16  16  16  16  16  16   8  16
#     4   9  18  34  57  82 109 147 190 229 276 337
#     4  10  20  33  51  78 113 150 187 227 275 333
#     4  10  21  38  61  89 119 152 191 242 295 344
#     4   9  19  35  55  81 114 147 184 230 283 341
#     4  10  22  39  60  86 111 144 194 243 288 344
#     4   9  20  38  58  83 116 154 190 232 288 348
#     4  11  25  43  63  87 117 159 204 241 286 343
#     4  10  22  39  57  81 115 151 187 235 294 347
#
# _framework density 19.122571000000001
#
# number of rings (size 3 to 8) (size 9 to 14) (size 15 to 20)
#    0.000    2.333    0.000    1.400    2.800    4.533 
#    0.000    2.667    0.000    1.600    0.000    0.000 
#    0.000    0.000    0.000    0.000    0.000    0.000 
#
# Total GULP energy -743748.266236 kJ/mol
# GULP energy per Si atom -12395.804437 kJ/mol
# Density = 1.907905 g / cm^3
# Si number density = 19.122571 Si / 1000 Ang^3
#
#
#
# Elastic Constant Matrix: (Units=GPa)
#
#
# Indices 1 2 3 4 5 6 
#
# 1 81.7662 66.9143 63.7762 0.0000 0.0000 0.0000
# 2 66.9143 141.8895 77.1289 0.0000 0.0000 0.0000
# 3 63.7762 77.1289 113.4882 0.0000 0.0000 0.0000
# 4 0.0000 0.0000 0.0000 30.6930 0.0000 0.0000
# 5 0.0000 0.0000 0.0000 0.0000 29.0732 0.0000
# 6 0.0000 0.0000 0.0000 0.0000 0.0000 36.7711
#
#
#
# Elastic Compliance Matrix: (Units=1/GPa)
#
#
# Indices 1 2 3 4 5 6 
#
# 1 0.025178 -0.006633 -0.009641 0.000000 0.000000 0.000000
# 2 -0.006633 0.012924 -0.005056 0.000000 0.000000 0.000000
# 3 -0.009641 -0.005056 0.017666 0.000000 0.000000 0.000000
# 4 0.000000 0.000000 0.000000 0.032581 0.000000 0.000000
# 5 0.000000 0.000000 0.000000 0.000000 0.034396 0.000000
# 6 0.000000 0.000000 0.000000 0.000000 0.000000 0.027195
#
#
# Mechanical properties :
#
#
# Convention : Reuss Voigt Hill
#
# Bulk Modulus (GPa) = 76.29256 83.64252 79.96754
# Shear Modulus (GPa) = 25.38454 27.92910 26.65682
#
# Velocity S-wave (km/s) = 3.64739 3.82583 3.73768
# Velocity P-wave (km/s) = 7.59744 7.95935 7.78050
#
# Compressibility (1/GPa) = 0.01310744
#
# Stress axis : x y z
#
# Youngs Moduli (GPa) = 39.71666 77.37400 56.60674
#
# Poissons Ratio (x) = 0.51323 0.54576
# Poissons Ratio (y) = 0.26344 0.28620
# Poissons Ratio (z) = 0.38292 0.39120
#
# Static dielectric constant tensor:
#      x y z
#    x 3.302710 0.000000 0.000000 
#    y 0.000000 3.487590 0.000000 
#    z 0.000000 0.000000 3.673180 
# 
# 
# High freq. dielectric constant tensor:
#      x y z
#    x 1.728650 0.000000 0.000000 
#    y 0.000000 1.757900 0.000000 
#    z 0.000000 0.000000 1.747470 
# 
# From -- ./inp_files/15624.got.cif
#   From: 2010.06.25/outbox.cif.g09.slc.cpg/sg71_8_cif.got.tgz:15624.got - 2010.06.28 04:59:45.
