data_PCOD8290529
_publ_section_title
;
Structure prediction by ZEFSAII (Michael W. Deem and Ramdas Pophale) SiO2 
 PCOD8290529
Probable space group: I M M M
;
_chemical_formula_sum "Si O2"
_cell_formula_units_Z 112
_cell_length_a 27.614770
_cell_length_b 14.376152
_cell_length_c 14.838751
_cell_angle_alpha 90.000000
_cell_angle_beta 90.000000
_cell_angle_gamma 90.000000
_cell_volume 5890.897058
_symmetry_space_group_name_H-M "I M M M"
_symmetry_group_IT_number 71
_symmetry_cell_setting 'orthorhombic'
loop_
_space_group_symop_operation_xyz
x,y,z
-x,-y,z
x,-y,-z
-x,y,-z
-x,-y,-z
x,y,-z
-x,y,z
x,-y,z
1/2+x,1/2+y,1/2+z
1/2-x,1/2-y,1/2+z
1/2+x,1/2-y,1/2-z
1/2-x,1/2+y,1/2-z
1/2-x,1/2-y,1/2-z
1/2+x,1/2+y,1/2-z
1/2-x,1/2+y,1/2+z
1/2+x,1/2-y,1/2+z
loop_
_atom_site_type_symbol
_atom_site_label
_atom_site_fract_x
_atom_site_fract_y
_atom_site_fract_z
Si Si1 0.228293 0.294132 0.605567
Si Si2 0.322791 0.607293 0.602608
Si Si3 0.896162 0.896024 0.256895
Si Si4 0.131417 0.607500 0.393336
Si Si5 0.556043 0.209371 0.772729
Si Si6 0.811229 0.897746 0.603508
Si Si7 0.057486 0.604360 0.901342
O O1 0.230196 0.314672 0.500000
O O2 0.278023 0.334943 0.646061
O O3 0.180843 0.346050 0.644491
O O4 0.226597 0.183855 0.628336
O O5 0.334837 0.637062 0.500000
O O6 0.307155 0.500000 0.607611
O O7 0.369825 0.626127 0.662511
O O8 0.938230 0.821022 0.272342
O O9 0.859203 0.886598 0.338815
O O10 0.918741 0.000000 0.254636
O O11 0.127523 0.619139 0.500000
O O12 0.130493 0.500000 0.364239
O O13 0.085702 0.660921 0.352120
O O14 0.500000 0.184380 0.787629
O O15 0.576566 0.171444 0.677264
O O16 0.827481 0.886188 0.500000
O O17 0.787480 0.000000 0.620406
O O18 0.076288 0.500000 0.882039
O O19 0.000000 0.605299 0.902257
O O20 0.076627 0.637724 0.000000
#
# Coordination Sequence:
#
# PCOD8290529 Si02
#       7
#    16  16  16  16  16  16  16
#     4   9  16  30  54  80 105 137 173 208 254 313
#     4   9  18  33  54  80 108 136 167 210 265 323
#     4  10  21  36  53  75 101 136 181 224 267 312
#     4  10  20  34  53  80 112 141 170 209 261 321
#     4  11  22  35  52  75 103 138 180 224 268 312
#     4   9  17  31  51  73 101 138 179 217 251 297
#     4   8  15  30  52  74  94 121 162 210 258 311
#
# _framework density 19.012384999999998
#
# number of rings (size 3 to 8) (size 9 to 14) (size 15 to 20)
#    0.000    2.571    1.429    1.286    0.000    4.286 
#    0.000    0.714    0.000    0.857    0.000    9.000 
#    0.000    0.000    0.000    0.000    0.000    0.000 
#
# Total GULP energy -694176.785376 kJ/mol
# GULP energy per Si atom -12396.014025 kJ/mol
# Density = 1.896911 g / cm^3
# Si number density = 19.012385 Si / 1000 Ang^3
#
#
#
# Elastic Constant Matrix: (Units=GPa)
#
#
# Indices 1 2 3 4 5 6 
#
# 1 33.0530 21.0941 4.0761 0.0000 0.0000 0.0000
# 2 21.0941 119.6863 22.3429 0.0000 0.0000 0.0000
# 3 4.0761 22.3429 52.3668 0.0000 0.0000 0.0000
# 4 0.0000 0.0000 0.0000 23.5247 0.0000 0.0000
# 5 0.0000 0.0000 0.0000 0.0000 16.0371 0.0000
# 6 0.0000 0.0000 0.0000 0.0000 0.0000 28.2835
#
#
#
# Elastic Compliance Matrix: (Units=1/GPa)
#
#
# Indices 1 2 3 4 5 6 
#
# 1 0.034089 -0.005990 -0.000098 0.000000 0.000000 0.000000
# 2 -0.005990 0.010131 -0.003856 0.000000 0.000000 0.000000
# 3 -0.000098 -0.003856 0.020749 0.000000 0.000000 0.000000
# 4 0.000000 0.000000 0.000000 0.042509 0.000000 0.000000
# 5 0.000000 0.000000 0.000000 0.000000 0.062356 0.000000
# 6 0.000000 0.000000 0.000000 0.000000 0.000000 0.035356
#
#
# Mechanical properties :
#
#
# Convention : Reuss Voigt Hill
#
# Bulk Modulus (GPa) = 22.18217 33.34805 27.76511
# Shear Modulus (GPa) = 20.82433 24.07525 22.44979
#
# Velocity S-wave (km/s) = 3.31313 3.56236 3.44000
# Velocity P-wave (km/s) = 5.13111 5.87357 5.51485
#
# Compressibility (1/GPa) = 0.04508125
#
# Stress axis : x y z
#
# Youngs Moduli (GPa) = 29.33492 98.70983 48.19521
#
# Poissons Ratio (x) = 0.59125 0.00471
# Poissons Ratio (y) = 0.17571 0.18585
# Poissons Ratio (z) = 0.00287 0.38064
#
# Static dielectric constant tensor:
#      x y z
#    x 3.064060 0.000000 0.000000 
#    y 0.000000 3.759190 0.000000 
#    z 0.000000 0.000000 3.617420 
# 
# 
# High freq. dielectric constant tensor:
#      x y z
#    x 1.696710 0.000000 0.000000 
#    y 0.000000 1.752640 0.000000 
#    z 0.000000 0.000000 1.740390 
# 
# From -- ./inp_files/35118.got.cif
#   From: 2010.06.25/outbox.cif.g09.slc.cpg/sg71_18_cif.got.tgz:35118.got - 2010.06.28 04:59:45.
