data_PCOD8290293
_publ_section_title
;
Structure prediction by ZEFSAII (Michael W. Deem and Ramdas Pophale) SiO2 
 PCOD8290293
Probable space group: I M M M
;
_chemical_formula_sum "Si O2"
_cell_formula_units_Z 112
_cell_length_a 33.393968
_cell_length_b 17.977761
_cell_length_c 9.969817
_cell_angle_alpha 90.000000
_cell_angle_beta 90.000000
_cell_angle_gamma 90.000000
_cell_volume 5985.367428
_symmetry_space_group_name_H-M "I M M M"
_symmetry_group_IT_number 71
_symmetry_cell_setting 'orthorhombic'
loop_
_space_group_symop_operation_xyz
x,y,z
-x,-y,z
x,-y,-z
-x,y,-z
-x,-y,-z
x,y,-z
-x,y,z
x,-y,z
1/2+x,1/2+y,1/2+z
1/2-x,1/2-y,1/2+z
1/2+x,1/2-y,1/2-z
1/2-x,1/2+y,1/2-z
1/2-x,1/2-y,1/2-z
1/2+x,1/2+y,1/2-z
1/2-x,1/2+y,1/2+z
1/2+x,1/2-y,1/2+z
loop_
_atom_site_type_symbol
_atom_site_label
_atom_site_fract_x
_atom_site_fract_y
_atom_site_fract_z
Si Si1 0.954371 0.200325 0.653732
Si Si2 0.581606 0.587238 0.653579
Si Si3 0.597745 0.159248 0.156067
Si Si4 0.671324 0.581605 0.341590
Si Si5 0.754512 0.177800 0.159670
Si Si6 0.456579 0.913752 0.644093
Si Si7 0.321777 0.916315 0.842561
O O1 0.947251 0.176093 0.500000
O O2 0.948938 0.129604 0.749550
O O3 0.920500 0.260623 0.696549
O O4 0.000000 0.230456 0.671461
O O5 0.574533 0.612516 0.500000
O O6 0.573409 0.500000 0.667936
O O7 0.626828 0.606881 0.700913
O O8 0.573183 0.098070 0.234787
O O9 0.643779 0.143536 0.199120
O O10 0.591040 0.144872 0.000000
O O11 0.673100 0.573726 0.500000
O O12 0.681058 0.500000 0.279618
O O13 0.703539 0.641861 0.293941
O O14 0.750000 0.250000 0.250000
O O15 0.720256 0.119174 0.201142
O O16 0.753096 0.196602 0.000000
O O17 0.440770 0.881566 0.500000
O O18 0.500000 0.877382 0.675805
O O19 0.462307 0.000000 0.628098
O O20 0.326836 0.000000 0.778856
O O21 0.322853 0.926658 0.000000
#
# Coordination Sequence:
#
# PCOD8290293 Si02
#       7
#    16  16  16  16  16  16  16
#     4  10  22  37  52  75 110 146 175 212 270 331
#     4   9  19  36  58  82 104 132 177 226 267 314
#     4  10  20  34  53  76 103 137 179 223 260 304
#     4   8  15  31  55  79 104 137 177 218 258 307
#     4  10  20  33  53  81 111 143 177 215 260 311
#     4   9  18  32  49  71 100 133 171 217 268 317
#     4   9  18  33  54  80 108 141 182 223 262 307
#
# _framework density 18.712302000000001
#
# number of rings (size 3 to 8) (size 9 to 14) (size 15 to 20)
#    0.000    2.714    0.000    2.571    2.000    4.857 
#    0.000    2.857    0.000    3.429    0.000    0.000 
#    0.000    0.000    0.000    0.000    0.000    0.000 
#
# Total GULP energy -693860.686189 kJ/mol
# GULP energy per Si atom -12390.369396 kJ/mol
# Density = 1.866971 g / cm^3
# Si number density = 18.712302 Si / 1000 Ang^3
#
#
#
# Elastic Constant Matrix: (Units=GPa)
#
#
# Indices 1 2 3 4 5 6 
#
# 1 84.6396 44.0068 26.1726 0.0000 0.0000 0.0000
# 2 44.0068 91.6611 34.7251 0.0000 0.0000 0.0000
# 3 26.1726 34.7251 46.8767 0.0000 0.0000 0.0000
# 4 0.0000 0.0000 0.0000 29.9916 0.0000 0.0000
# 5 0.0000 0.0000 0.0000 0.0000 17.4886 0.0000
# 6 0.0000 0.0000 0.0000 0.0000 0.0000 23.7094
#
#
#
# Elastic Compliance Matrix: (Units=1/GPa)
#
#
# Indices 1 2 3 4 5 6 
#
# 1 0.016438 -0.006137 -0.004631 0.000000 0.000000 0.000000
# 2 -0.006137 0.017457 -0.009505 0.000000 0.000000 0.000000
# 3 -0.004631 -0.009505 0.030960 0.000000 0.000000 0.000000
# 4 0.000000 0.000000 0.000000 0.033343 0.000000 0.000000
# 5 0.000000 0.000000 0.000000 0.000000 0.057180 0.000000
# 6 0.000000 0.000000 0.000000 0.000000 0.000000 0.042177
#
#
# Mechanical properties :
#
#
# Convention : Reuss Voigt Hill
#
# Bulk Modulus (GPa) = 41.14055 48.10958 44.62506
# Shear Modulus (GPa) = 20.30825 22.12279 21.21552
#
# Velocity S-wave (km/s) = 3.29795 3.44213 3.37081
# Velocity P-wave (km/s) = 6.04446 6.44699 6.24896
#
# Compressibility (1/GPa) = 0.02430692
#
# Stress axis : x y z
#
# Youngs Moduli (GPa) = 60.83498 57.28264 32.30007
#
# Poissons Ratio (x) = 0.35156 0.14959
# Poissons Ratio (y) = 0.37336 0.30702
# Poissons Ratio (z) = 0.28175 0.54449
#
# Static dielectric constant tensor:
#      x y z
#    x 3.730370 0.000000 0.000000 
#    y 0.000000 3.431420 0.000000 
#    z 0.000000 0.000000 3.185850 
# 
# 
# High freq. dielectric constant tensor:
#      x y z
#    x 1.734920 0.000000 0.000000 
#    y 0.000000 1.719550 0.000000 
#    z 0.000000 0.000000 1.696060 
# 
# From -- ./inp_files/30031.got.cif
#   From: 2010.06.25/outbox.cif.g09.slc.cpg/sg71_16_cif.got.tgz:30031.got - 2010.06.28 04:59:45.
