data_PCOD8290353
_publ_section_title
;
Structure prediction by ZEFSAII (Michael W. Deem and Ramdas Pophale) SiO2 
 PCOD8290353
Probable space group: I M M M
;
_chemical_formula_sum "Si O2"
_cell_formula_units_Z 88
_cell_length_a 24.534977
_cell_length_b 8.917751
_cell_length_c 22.625272
_cell_angle_alpha 90.000000
_cell_angle_beta 90.000000
_cell_angle_gamma 90.000000
_cell_volume 4950.337467
_symmetry_space_group_name_H-M "I M M M"
_symmetry_group_IT_number 71
_symmetry_cell_setting 'orthorhombic'
loop_
_space_group_symop_operation_xyz
x,y,z
-x,-y,z
x,-y,-z
-x,y,-z
-x,-y,-z
x,y,-z
-x,y,z
x,-y,z
1/2+x,1/2+y,1/2+z
1/2-x,1/2-y,1/2+z
1/2+x,1/2-y,1/2-z
1/2-x,1/2+y,1/2-z
1/2-x,1/2-y,1/2-z
1/2+x,1/2+y,1/2-z
1/2-x,1/2+y,1/2+z
1/2+x,1/2-y,1/2+z
loop_
_atom_site_type_symbol
_atom_site_label
_atom_site_fract_x
_atom_site_fract_y
_atom_site_fract_z
Si Si1 0.939984 0.322354 0.847358
Si Si2 0.345825 0.824012 0.432076
Si Si3 0.061043 0.821707 0.500000
Si Si4 0.871555 0.177046 0.387784
Si Si5 0.063235 0.673227 0.713459
Si Si6 0.766469 0.676463 0.567933
O O1 0.942803 0.500000 0.852510
O O2 0.895394 0.258695 0.892898
O O3 0.924004 0.278171 0.780617
O O4 0.000000 0.256662 0.863097
O O5 0.359684 0.787874 0.500000
O O6 0.291467 0.740252 0.411241
O O7 0.337111 0.000000 0.421761
O O8 0.091960 0.761990 0.442044
O O9 0.000000 0.754851 0.500000
O O10 0.058999 0.000000 0.500000
O O11 0.899978 0.221716 0.326999
O O12 0.812328 0.251561 0.390795
O O13 0.864453 0.000000 0.390884
O O14 0.078514 0.500000 0.702667
O O15 0.000000 0.701044 0.698644
O O16 0.777571 0.722625 0.500000
O O17 0.766481 0.500000 0.576720
#
# Coordination Sequence:
#
# PCOD8290353 Si02
#       6
#    16  16   8  16  16  16
#     4   8  15  30  52  77 105 135 164 200 248 298
#     4   9  17  30  52  80 105 129 164 207 249 296
#     4   9  18  30  45  69  99 125 152 199 256 297
#     4  11  20  32  51  73  99 130 169 212 254 297
#     4   9  18  33  51  71 100 137 171 202 244 299
#     4  10  20  34  51  71 100 135 169 205 251 304
#
# _framework density 17.776567
#
# number of rings (size 3 to 8) (size 9 to 14) (size 15 to 20)
#    0.000    2.636    0.909    2.727    0.000    2.182 
#    0.000    3.636    0.000    3.818    0.000    2.545 
#    0.000    0.000    0.000    0.000    0.000    0.000 
#
# Total GULP energy -545628.733272 kJ/mol
# GULP energy per Si atom -12400.653029 kJ/mol
# Density = 1.773611 g / cm^3
# Si number density = 17.776567 Si / 1000 Ang^3
#
#
#
# Elastic Constant Matrix: (Units=GPa)
#
#
# Indices 1 2 3 4 5 6 
#
# 1 151.2472 42.4648 83.6152 0.0000 0.0000 0.0000
# 2 42.4648 45.9382 28.6828 0.0000 0.0000 0.0000
# 3 83.6152 28.6828 99.1184 0.0000 0.0000 0.0000
# 4 0.0000 0.0000 0.0000 19.7918 0.0000 0.0000
# 5 0.0000 0.0000 0.0000 0.0000 25.7096 0.0000
# 6 0.0000 0.0000 0.0000 0.0000 0.0000 22.0585
#
#
#
# Elastic Compliance Matrix: (Units=1/GPa)
#
#
# Indices 1 2 3 4 5 6 
#
# 1 0.013919 -0.006756 -0.009787 0.000000 0.000000 0.000000
# 2 -0.006756 0.029848 -0.002938 0.000000 0.000000 0.000000
# 3 -0.009787 -0.002938 0.019195 0.000000 0.000000 0.000000
# 4 0.000000 0.000000 0.000000 0.050526 0.000000 0.000000
# 5 0.000000 0.000000 0.000000 0.000000 0.038896 0.000000
# 6 0.000000 0.000000 0.000000 0.000000 0.000000 0.045334
#
#
# Mechanical properties :
#
#
# Convention : Reuss Voigt Hill
#
# Bulk Modulus (GPa) = 41.66603 67.31436 54.49019
# Shear Modulus (GPa) = 20.43479 22.94806 21.69142
#
# Velocity S-wave (km/s) = 3.39416 3.59683 3.49696
# Velocity P-wave (km/s) = 6.23298 7.42958 6.85743
#
# Compressibility (1/GPa) = 0.02400037
#
# Stress axis : x y z
#
# Youngs Moduli (GPa) = 71.84353 33.50303 52.09581
#
# Poissons Ratio (x) = 0.22634 0.50986
# Poissons Ratio (y) = 0.48537 0.15307
# Poissons Ratio (z) = 0.70313 0.09844
#
# Static dielectric constant tensor:
#      x y z
#    x 3.517640 0.000000 0.000000 
#    y 0.000000 2.976370 0.000000 
#    z 0.000000 0.000000 3.286450 
# 
# 
# High freq. dielectric constant tensor:
#      x y z
#    x 1.694770 0.000000 0.000000 
#    y 0.000000 1.662630 0.000000 
#    z 0.000000 0.000000 1.677920 
# 
# From -- ./inp_files/10468.got.cif
#   From: 2010.06.25/outbox.cif.g09.slc.cpg/sg71_6_cif.got.tgz:10468.got - 2010.06.28 04:59:45.
