data_PCOD8290819
_publ_section_title
;
Structure prediction by ZEFSAII (Michael W. Deem and Ramdas Pophale) SiO2 
 PCOD8290819
Probable space group: I M M M
;
_chemical_formula_sum "Si O2"
_cell_formula_units_Z 104
_cell_length_a 27.090331
_cell_length_b 8.202267
_cell_length_c 23.643383
_cell_angle_alpha 90.000000
_cell_angle_beta 90.000000
_cell_angle_gamma 90.000000
_cell_volume 5253.610015
_symmetry_space_group_name_H-M "I M M M"
_symmetry_group_IT_number 71
_symmetry_cell_setting 'orthorhombic'
loop_
_space_group_symop_operation_xyz
x,y,z
-x,-y,z
x,-y,-z
-x,y,-z
-x,-y,-z
x,y,-z
-x,y,z
x,-y,z
1/2+x,1/2+y,1/2+z
1/2-x,1/2-y,1/2+z
1/2+x,1/2-y,1/2-z
1/2-x,1/2+y,1/2-z
1/2-x,1/2-y,1/2-z
1/2+x,1/2+y,1/2-z
1/2-x,1/2+y,1/2+z
1/2+x,1/2-y,1/2+z
loop_
_atom_site_type_symbol
_atom_site_label
_atom_site_fract_x
_atom_site_fract_y
_atom_site_fract_z
Si Si1 0.445296 0.500000 0.432664
Si Si2 0.702924 0.815405 0.849759
Si Si3 0.444549 0.306072 0.159058
Si Si4 0.611693 0.818097 0.566031
Si Si5 0.130245 0.806641 0.563992
Si Si6 0.807633 0.680843 0.153043
Si Si7 0.136731 0.186149 0.743724
O O1 0.500000 0.500000 0.407527
O O2 0.445697 0.500000 0.500000
O O3 0.420855 0.667936 0.409960
O O4 0.681285 0.765489 0.911031
O O5 0.762085 0.804215 0.847360
O O6 0.680231 0.698098 0.802335
O O7 0.688093 0.000000 0.835706
O O8 0.500000 0.232134 0.160139
O O9 0.446710 0.500000 0.158771
O O10 0.416030 0.246707 0.102375
O O11 0.414036 0.247695 0.214712
O O12 0.619371 0.794904 0.500000
O O13 0.665588 0.804358 0.593040
O O14 0.588771 0.000000 0.578990
O O15 0.122815 0.742159 0.500000
O O16 0.134303 0.000000 0.564933
O O17 0.786299 0.500000 0.162251
O O18 0.848789 0.713428 0.200969
O O19 0.130408 0.000000 0.762141
#
# Coordination Sequence:
#
# PCOD8290819 Si02
#       7
#     8  16  16  16  16  16  16
#     4   9  18  34  58  82 106 140 180 222 264 318
#     4  11  22  35  53  77 106 142 185 228 274 328
#     4   8  15  30  53  80 108 141 182 227 275 322
#     4   9  20  37  56  81 113 145 180 227 280 335
#     4   9  18  33  53  79 112 146 183 229 276 328
#     4  11  22  36  56  79 107 142 181 224 278 335
#     4  10  20  35  55  78 108 141 181 229 276 329
#
# _framework density 19.795911
#
# number of rings (size 3 to 8) (size 9 to 14) (size 15 to 20)
#    0.000    2.385    0.000    3.692    2.154    1.538 
#    0.000    5.385    0.000   12.462    0.000    4.308 
#    0.000    0.000    0.000    0.000    0.000    0.000 
#
# Total GULP energy -644586.955106 kJ/mol
# GULP energy per Si atom -12395.902983 kJ/mol
# Density = 1.975086 g / cm^3
# Si number density = 19.795911 Si / 1000 Ang^3
#
#
#
# Elastic Constant Matrix: (Units=GPa)
#
#
# Indices 1 2 3 4 5 6 
#
# 1 123.1133 28.2341 54.6392 0.0000 0.0000 0.0000
# 2 28.2341 74.8296 18.9198 0.0000 0.0000 0.0000
# 3 54.6392 18.9198 66.8360 0.0000 0.0000 0.0000
# 4 0.0000 0.0000 0.0000 18.9672 0.0000 0.0000
# 5 0.0000 0.0000 0.0000 0.0000 19.9154 0.0000
# 6 0.0000 0.0000 0.0000 0.0000 0.0000 23.1854
#
#
#
# Elastic Compliance Matrix: (Units=1/GPa)
#
#
# Indices 1 2 3 4 5 6 
#
# 1 0.013141 -0.002415 -0.010059 0.000000 0.000000 0.000000
# 2 -0.002415 0.014838 -0.002226 0.000000 0.000000 0.000000
# 3 -0.010059 -0.002226 0.023816 0.000000 0.000000 0.000000
# 4 0.000000 0.000000 0.000000 0.052722 0.000000 0.000000
# 5 0.000000 0.000000 0.000000 0.000000 0.050212 0.000000
# 6 0.000000 0.000000 0.000000 0.000000 0.000000 0.043131
#
#
# Mechanical properties :
#
#
# Convention : Reuss Voigt Hill
#
# Bulk Modulus (GPa) = 44.65488 52.04056 48.34772
# Shear Modulus (GPa) = 21.30160 23.27934 22.29047
#
# Velocity S-wave (km/s) = 3.28389 3.43296 3.35925
# Velocity P-wave (km/s) = 6.08155 6.48531 6.28667
#
# Compressibility (1/GPa) = 0.02239397
#
# Stress axis : x y z
#
# Youngs Moduli (GPa) = 76.09903 67.39601 41.98932
#
# Poissons Ratio (x) = 0.16275 0.42238
# Poissons Ratio (y) = 0.18377 0.09347
# Poissons Ratio (z) = 0.76549 0.15003
#
# Static dielectric constant tensor:
#      x y z
#    x 3.627770 0.000000 0.000000 
#    y 0.000000 3.585650 0.000000 
#    z 0.000000 0.000000 3.602950 
# 
# 
# High freq. dielectric constant tensor:
#      x y z
#    x 1.759330 0.000000 0.000000 
#    y 0.000000 1.766470 0.000000 
#    z 0.000000 0.000000 1.762800 
# 
# From -- ./inp_files/61980.got.cif
#   From: 2010.06.25/outbox.cif.g09.slc.cpg/sg71_31_cif.got.tgz:61980.got - 2010.06.28 04:59:45.
