data_PCOD8290171
_publ_section_title
;
Structure prediction by ZEFSAII (Michael W. Deem and Ramdas Pophale) SiO2 
 PCOD8290171
Probable space group: I M M M
;
_chemical_formula_sum "Si O2"
_cell_formula_units_Z 88
_cell_length_a 9.001215
_cell_length_b 18.769554
_cell_length_c 27.217796
_cell_angle_alpha 90.000000
_cell_angle_beta 90.000000
_cell_angle_gamma 90.000000
_cell_volume 4598.413728
_symmetry_space_group_name_H-M "I M M M"
_symmetry_group_IT_number 71
_symmetry_cell_setting 'orthorhombic'
loop_
_space_group_symop_operation_xyz
x,y,z
-x,-y,z
x,-y,-z
-x,y,-z
-x,-y,-z
x,y,-z
-x,y,z
x,-y,z
1/2+x,1/2+y,1/2+z
1/2-x,1/2-y,1/2+z
1/2+x,1/2-y,1/2-z
1/2-x,1/2+y,1/2-z
1/2-x,1/2-y,1/2-z
1/2+x,1/2+y,1/2-z
1/2-x,1/2+y,1/2+z
1/2+x,1/2-y,1/2+z
loop_
_atom_site_type_symbol
_atom_site_label
_atom_site_fract_x
_atom_site_fract_y
_atom_site_fract_z
Si Si1 0.174809 0.418188 0.742728
Si Si2 0.172380 0.806883 0.684648
Si Si3 0.831799 0.835522 0.574233
Si Si4 0.659596 0.918123 0.500000
Si Si5 0.329872 0.693280 0.553559
Si Si6 0.824719 0.158858 0.160921
O O1 0.207641 0.500000 0.758103
O O2 0.256848 0.362640 0.777979
O O3 0.241105 0.405666 0.688169
O O4 0.000000 0.402701 0.743124
O O5 0.186943 0.843853 0.632107
O O6 0.261721 0.732709 0.683517
O O7 0.000000 0.791929 0.698274
O O8 0.746355 0.900205 0.549587
O O9 0.770509 0.762381 0.552831
O O10 0.000000 0.839681 0.557433
O O11 0.500000 0.878275 0.500000
O O12 0.630698 0.000000 0.500000
O O13 0.306129 0.653809 0.500000
O O14 0.500000 0.717498 0.558954
O O15 0.288830 0.647990 0.602502
O O16 0.000000 0.156185 0.171272
#
# Coordination Sequence:
#
# PCOD8290171 Si02
#       6
#    16  16  16   8  16  16
#     4  11  24  40  57  78 108 146 187 231 279 332
#     4  10  21  37  58  83 111 142 180 228 277 328
#     4  10  20  33  51  76 103 133 173 220 267 314
#     4  11  23  35  47  65  97 143 184 219 264 317
#     4   9  17  31  54  82 110 138 170 213 265 318
#     4  10  20  35  58  86 114 145 182 225 273 327
#
# _framework density 19.137034
#
# number of rings (size 3 to 8) (size 9 to 14) (size 15 to 20)
#    0.000    1.909    0.909    3.000    0.000    5.818 
#    0.000    3.636    0.000    0.545    0.000    3.818 
#    0.000    0.000    0.000    0.000    0.000    0.000 
#
# Total GULP energy -545333.059649 kJ/mol
# GULP energy per Si atom -12393.933174 kJ/mol
# Density = 1.909348 g / cm^3
# Si number density = 19.137034 Si / 1000 Ang^3
#
#
#
# Elastic Constant Matrix: (Units=GPa)
#
#
# Indices 1 2 3 4 5 6 
#
# 1 111.4995 25.7575 36.8629 0.0000 0.0000 0.0000
# 2 25.7575 44.0332 23.0066 0.0000 0.0000 0.0000
# 3 36.8629 23.0066 110.6487 0.0000 0.0000 0.0000
# 4 0.0000 0.0000 0.0000 19.0468 0.0000 0.0000
# 5 0.0000 0.0000 0.0000 0.0000 34.0776 0.0000
# 6 0.0000 0.0000 0.0000 0.0000 0.0000 23.6521
#
#
#
# Elastic Compliance Matrix: (Units=1/GPa)
#
#
# Indices 1 2 3 4 5 6 
#
# 1 0.011004 -0.005072 -0.002611 0.000000 0.000000 0.000000
# 2 -0.005072 0.027816 -0.004094 0.000000 0.000000 0.000000
# 3 -0.002611 -0.004094 0.010759 0.000000 0.000000 0.000000
# 4 0.000000 0.000000 0.000000 0.052502 0.000000 0.000000
# 5 0.000000 0.000000 0.000000 0.000000 0.029345 0.000000
# 6 0.000000 0.000000 0.000000 0.000000 0.000000 0.042280
#
#
# Mechanical properties :
#
#
# Convention : Reuss Voigt Hill
#
# Bulk Modulus (GPa) = 38.42630 48.60394 43.51512
# Shear Modulus (GPa) = 24.27953 27.39225 25.83589
#
# Velocity S-wave (km/s) = 3.56577 3.78745 3.67828
# Velocity P-wave (km/s) = 6.08902 6.67678 6.38966
#
# Compressibility (1/GPa) = 0.02602384
#
# Stress axis : x y z
#
# Youngs Moduli (GPa) = 90.87835 35.95029 92.94751
#
# Poissons Ratio (x) = 0.18235 0.24271
# Poissons Ratio (y) = 0.46097 0.38051
# Poissons Ratio (z) = 0.23731 0.14717
#
# Static dielectric constant tensor:
#      x y z
#    x 3.791600 0.000000 0.000000 
#    y 0.000000 3.147170 0.000000 
#    z 0.000000 0.000000 5.270390 
# 
# 
# High freq. dielectric constant tensor:
#      x y z
#    x 1.762450 0.000000 0.000000 
#    y 0.000000 1.700290 0.000000 
#    z 0.000000 0.000000 1.765520 
# 
# From -- ./inp_files/42459.got.cif
#   From: 2010.06.25/outbox.cif.g09.slc.cpg/sg71_22_cif.got.tgz:42459.got - 2010.06.28 04:59:45.
