data_PCOD8290327
_publ_section_title
;
Structure prediction by ZEFSAII (Michael W. Deem and Ramdas Pophale) SiO2 
 PCOD8290327
Probable space group: I M M M
;
_chemical_formula_sum "Si O2"
_cell_formula_units_Z 88
_cell_length_a 19.039149
_cell_length_b 27.545284
_cell_length_c 8.765471
_cell_angle_alpha 90.000000
_cell_angle_beta 90.000000
_cell_angle_gamma 90.000000
_cell_volume 4596.952797
_symmetry_space_group_name_H-M "I M M M"
_symmetry_group_IT_number 71
_symmetry_cell_setting 'orthorhombic'
loop_
_space_group_symop_operation_xyz
x,y,z
-x,-y,z
x,-y,-z
-x,y,-z
-x,-y,-z
x,y,-z
-x,y,z
x,-y,z
1/2+x,1/2+y,1/2+z
1/2-x,1/2-y,1/2+z
1/2+x,1/2-y,1/2-z
1/2-x,1/2+y,1/2-z
1/2-x,1/2-y,1/2-z
1/2+x,1/2+y,1/2-z
1/2-x,1/2+y,1/2+z
1/2+x,1/2-y,1/2+z
loop_
_atom_site_type_symbol
_atom_site_label
_atom_site_fract_x
_atom_site_fract_y
_atom_site_fract_z
Si Si1 0.917611 0.693089 0.826653
Si Si2 0.077310 0.053903 0.818990
Si Si3 0.580105 0.000000 0.818873
Si Si4 0.179616 0.229783 0.680006
Si Si5 0.806242 0.873177 0.819179
Si Si6 0.148480 0.399677 0.680465
O O1 0.884711 0.736880 0.731290
O O2 0.898971 0.641081 0.757190
O O3 0.000000 0.700401 0.818431
O O4 0.889878 0.695324 0.000000
O O5 0.138530 0.087803 0.755011
O O6 0.000000 0.073144 0.769347
O O7 0.089198 0.000000 0.752754
O O8 0.082088 0.052231 0.000000
O O9 0.621686 0.047776 0.760722
O O10 0.500000 0.000000 0.755439
O O11 0.578589 0.000000 0.000000
O O12 0.185165 0.231255 0.500000
O O13 0.250000 0.250000 0.750000
O O14 0.169759 0.175504 0.737210
O O15 0.729094 0.891274 0.770642
O O16 0.810742 0.865479 0.000000
O O17 0.139584 0.395363 0.500000
#
# Coordination Sequence:
#
# PCOD8290327 Si02
#       6
#    16  16   8  16  16  16
#     4  11  24  41  62  87 116 151 193 240 291 348
#     4   8  15  29  51  81 117 154 191 233 279 329
#     4   9  18  32  51  79 114 150 192 241 291 344
#     4  12  24  40  61  84 115 152 193 239 290 347
#     4  10  20  33  55  86 116 149 193 241 287 338
#     4  10  20  34  56  84 116 154 195 242 290 339
#
# _framework density 19.143117
#
# number of rings (size 3 to 8) (size 9 to 14) (size 15 to 20)
#    0.000    1.909    1.818    3.273    1.273    2.909 
#    0.000    2.273    0.000    2.182    0.000    1.273 
#    0.000    0.000    0.000    0.000    0.000    0.000 
#
# Total GULP energy -545605.410483 kJ/mol
# GULP energy per Si atom -12400.122966 kJ/mol
# Density = 1.909955 g / cm^3
# Si number density = 19.143117 Si / 1000 Ang^3
#
#
#
# Elastic Constant Matrix: (Units=GPa)
#
#
# Indices 1 2 3 4 5 6 
#
# 1 99.8989 70.5465 24.3641 0.0000 0.0000 0.0000
# 2 70.5465 162.6065 38.6951 0.0000 0.0000 0.0000
# 3 24.3641 38.6951 51.6451 0.0000 -0.0001 0.0000
# 4 0.0000 0.0000 0.0000 24.8638 0.0000 0.0000
# 5 0.0000 0.0000 -0.0001 0.0000 19.6136 0.0000
# 6 0.0000 0.0000 0.0000 0.0000 0.0000 40.6536
#
#
#
# Elastic Compliance Matrix: (Units=1/GPa)
#
#
# Indices 1 2 3 4 5 6 
#
# 1 0.014719 -0.005760 -0.002628 0.000000 0.000000 0.000000
# 2 -0.005760 0.009739 -0.004579 0.000000 0.000000 0.000000
# 3 -0.002628 -0.004579 0.024034 0.000000 0.000000 0.000000
# 4 0.000000 0.000000 0.000000 0.040219 0.000000 0.000000
# 5 0.000000 0.000000 0.000000 0.000000 0.050985 0.000000
# 6 0.000000 0.000000 0.000000 0.000000 0.000000 0.024598
#
#
# Mechanical properties :
#
#
# Convention : Reuss Voigt Hill
#
# Bulk Modulus (GPa) = 44.33341 64.59577 54.46459
# Shear Modulus (GPa) = 25.28486 29.06251 27.17369
#
# Velocity S-wave (km/s) = 3.63827 3.90060 3.77171
# Velocity P-wave (km/s) = 6.39207 7.35548 6.89063
#
# Compressibility (1/GPa) = 0.02255635
#
# Stress axis : x y z
#
# Youngs Moduli (GPa) = 67.93976 102.68343 41.60856
#
# Poissons Ratio (x) = 0.59150 0.10934
# Poissons Ratio (y) = 0.39136 0.19053
# Poissons Ratio (z) = 0.17853 0.47020
#
# Static dielectric constant tensor:
#      x y z
#    x 3.727780 0.000000 0.000000 
#    y 0.000000 3.718850 0.000000 
#    z 0.000000 0.000000 3.306590 
# 
# 
# High freq. dielectric constant tensor:
#      x y z
#    x 1.757230 0.000000 0.000000 
#    y 0.000000 1.757820 0.000000 
#    z 0.000000 0.000000 1.714540 
# 
# From -- ./inp_files/10470.got.cif
#   From: 2010.06.25/outbox.cif.g09.slc.cpg/sg71_6_cif.got.tgz:10470.got - 2010.06.28 04:59:45.
