data_PCOD8290935
_publ_section_title
;
Structure prediction by ZEFSAII (Michael W. Deem and Ramdas Pophale) SiO2 
 PCOD8290935
Probable space group: I M M M
;
_chemical_formula_sum "Si O2"
_cell_formula_units_Z 88
_cell_length_a 23.578890
_cell_length_b 8.828733
_cell_length_c 20.536195
_cell_angle_alpha 90.000000
_cell_angle_beta 90.000000
_cell_angle_gamma 90.000000
_cell_volume 4275.055123
_symmetry_space_group_name_H-M "I M M M"
_symmetry_group_IT_number 71
_symmetry_cell_setting 'orthorhombic'
loop_
_space_group_symop_operation_xyz
x,y,z
-x,-y,z
x,-y,-z
-x,y,-z
-x,-y,-z
x,y,-z
-x,y,z
x,-y,z
1/2+x,1/2+y,1/2+z
1/2-x,1/2-y,1/2+z
1/2+x,1/2-y,1/2-z
1/2-x,1/2+y,1/2-z
1/2-x,1/2-y,1/2-z
1/2+x,1/2+y,1/2-z
1/2-x,1/2+y,1/2+z
1/2+x,1/2-y,1/2+z
loop_
_atom_site_type_symbol
_atom_site_label
_atom_site_fract_x
_atom_site_fract_y
_atom_site_fract_z
Si Si1 0.635750 0.337687 0.000000
Si Si2 0.231450 0.821928 0.867777
Si Si3 0.435974 0.827615 0.765458
Si Si4 0.620780 0.173859 0.365472
Si Si5 0.232679 0.334582 0.000000
Si Si6 0.435948 0.179822 0.500000
Si Si7 0.649173 0.679553 0.860490
O O1 0.701938 0.369663 0.000000
O O2 0.624929 0.252812 0.930549
O O3 0.603122 0.500000 0.000000
O O4 0.173938 0.766184 0.832592
O O5 0.215117 0.766305 0.939533
O O6 0.289310 0.746836 0.841558
O O7 0.239477 0.000000 0.862750
O O8 0.500000 0.783022 0.783183
O O9 0.428706 0.808213 0.687949
O O10 0.395055 0.716946 0.804827
O O11 0.422601 0.000000 0.786361
O O12 0.597408 0.235775 0.435025
O O13 0.639997 0.000000 0.372592
O O14 0.200977 0.500000 0.000000
O O15 0.500000 0.247291 0.500000
O O16 0.440405 0.000000 0.500000
O O17 0.656420 0.500000 0.867995
#
# Coordination Sequence:
#
# PCOD8290935 Si02
#       7
#     8  16  16  16   8   8  16
#     4   7  14  30  53  80 105 133 173 219 264 316
#     4  11  21  33  53  84 119 151 188 237 291 342
#     4  10  22  40  59  81 112 149 190 238 292 349
#     4  10  20  35  57  83 114 152 192 238 290 343
#     4   9  16  30  51  77 114 154 187 220 268 335
#     4   9  17  32  58  88 112 145 199 247 278 322
#     4  10  20  37  61  85 112 148 189 234 287 348
#
# _framework density 20.584527999999999
#
# number of rings (size 3 to 8) (size 9 to 14) (size 15 to 20)
#    0.000    2.273    0.000    4.636    0.000    4.727 
#    0.000    1.818    0.000    4.909    0.000    0.000 
#    0.000    0.000    0.000    0.000    0.000    0.000 
#
# Total GULP energy -545107.042642 kJ/mol
# GULP energy per Si atom -12388.796424 kJ/mol
# Density = 2.053768 g / cm^3
# Si number density = 20.584528 Si / 1000 Ang^3
#
#
#
# Elastic Constant Matrix: (Units=GPa)
#
#
# Indices 1 2 3 4 5 6 
#
# 1 127.3706 41.7556 45.3179 0.0000 0.0000 0.0000
# 2 41.7556 87.1401 23.6889 0.0000 0.0000 0.0000
# 3 45.3179 23.6889 85.9583 0.0000 0.0000 0.0000
# 4 0.0000 0.0000 0.0000 26.0056 0.0000 0.0000
# 5 0.0000 0.0000 0.0000 0.0000 32.0401 0.0000
# 6 0.0000 0.0000 0.0000 0.0000 0.0000 26.1901
#
#
#
# Elastic Compliance Matrix: (Units=1/GPa)
#
#
# Indices 1 2 3 4 5 6 
#
# 1 0.010770 -0.003910 -0.004600 0.000000 0.000000 0.000000
# 2 -0.003910 0.013825 -0.001749 0.000000 0.000000 0.000000
# 3 -0.004600 -0.001749 0.014541 0.000000 0.000000 0.000000
# 4 0.000000 0.000000 0.000000 0.038453 0.000000 0.000000
# 5 0.000000 0.000000 0.000000 0.000000 0.031211 0.000000
# 6 0.000000 0.000000 0.000000 0.000000 0.000000 0.038182
#
#
# Mechanical properties :
#
#
# Convention : Reuss Voigt Hill
#
# Bulk Modulus (GPa) = 53.71306 57.99932 55.85619
# Shear Modulus (GPa) = 28.78441 29.49427 29.13934
#
# Velocity S-wave (km/s) = 3.74351 3.78939 3.76652
# Velocity P-wave (km/s) = 6.69595 6.88355 6.79040
#
# Compressibility (1/GPa) = 0.01861745
#
# Stress axis : x y z
#
# Youngs Moduli (GPa) = 92.85319 72.33439 68.77230
#
# Poissons Ratio (x) = 0.28283 0.31637
# Poissons Ratio (y) = 0.36306 0.12025
# Poissons Ratio (z) = 0.42715 0.12648
#
# Static dielectric constant tensor:
#      x y z
#    x 3.663080 0.000000 0.000000 
#    y 0.000000 3.404460 0.000000 
#    z 0.000000 0.000000 6.181640 
# 
# 
# High freq. dielectric constant tensor:
#      x y z
#    x 1.800460 0.000000 0.000000 
#    y 0.000000 1.772370 0.000000 
#    z 0.000000 0.000000 1.806850 
# 
# From -- ./inp_files/55591.got.cif
#   From: 2010.06.25/outbox.cif.g09.slc.cpg/sg71_28_cif.got.tgz:55591.got - 2010.06.28 04:59:45.
