data_PCOD8290847
_publ_section_title
;
Structure prediction by ZEFSAII (Michael W. Deem and Ramdas Pophale) SiO2 
 PCOD8290847
Probable space group: I M M M
;
_chemical_formula_sum "Si O2"
_cell_formula_units_Z 104
_cell_length_a 27.164987
_cell_length_b 22.434312
_cell_length_c 8.747880
_cell_angle_alpha 90.000000
_cell_angle_beta 90.000000
_cell_angle_gamma 90.000000
_cell_volume 5331.201209
_symmetry_space_group_name_H-M "I M M M"
_symmetry_group_IT_number 71
_symmetry_cell_setting 'orthorhombic'
loop_
_space_group_symop_operation_xyz
x,y,z
-x,-y,z
x,-y,-z
-x,y,-z
-x,-y,-z
x,y,-z
-x,y,z
x,-y,z
1/2+x,1/2+y,1/2+z
1/2-x,1/2-y,1/2+z
1/2+x,1/2-y,1/2-z
1/2-x,1/2+y,1/2-z
1/2-x,1/2-y,1/2-z
1/2+x,1/2+y,1/2-z
1/2-x,1/2+y,1/2+z
1/2+x,1/2-y,1/2+z
loop_
_atom_site_type_symbol
_atom_site_label
_atom_site_fract_x
_atom_site_fract_y
_atom_site_fract_z
Si Si1 0.293769 0.567532 0.818685
Si Si2 0.630823 0.666051 0.178517
Si Si3 0.943132 0.755597 0.180124
Si Si4 0.199289 0.745887 0.168104
Si Si5 0.500000 0.070370 0.673043
Si Si6 0.687941 0.891470 0.331788
Si Si7 0.909001 0.633520 0.319980
O O1 0.305432 0.500000 0.768813
O O2 0.338439 0.609039 0.755404
O O3 0.239617 0.586461 0.755434
O O4 0.291742 0.575614 0.000000
O O5 0.578433 0.680521 0.259262
O O6 0.661762 0.724808 0.214469
O O7 0.621434 0.657974 0.000000
O O8 0.913538 0.699428 0.247801
O O9 0.000000 0.751618 0.229042
O O10 0.935957 0.754118 0.000000
O O11 0.250000 0.750000 0.250000
O O12 0.187293 0.678125 0.143131
O O13 0.199005 0.777327 0.000000
O O14 0.500000 0.096370 0.500000
O O15 0.452598 0.092478 0.761773
O O16 0.500000 0.000000 0.670402
O O17 0.681114 0.921984 0.500000
O O18 0.640901 0.902953 0.223979
O O19 0.911403 0.641128 0.500000
#
# Coordination Sequence:
#
# PCOD8290847 Si02
#       7
#    16  16  16  16   8  16  16
#     4   9  19  37  59  83 114 154 197 240 286 345
#     4  11  21  35  58  88 116 147 192 241 298 357
#     4  11  23  39  60  86 119 154 191 238 298 365
#     4  11  20  31  51  80 115 149 185 230 281 338
#     4  11  25  45  65  81 107 157 210 247 290 351
#     4  10  20  35  55  82 117 156 196 233 282 347
#     4  12  24  37  59  89 121 153 193 249 301 344
#
# _framework density 19.507798999999999
#
# number of rings (size 3 to 8) (size 9 to 14) (size 15 to 20)
#    0.000    1.308    3.846    3.000    0.000    2.769 
#    0.000    1.538    0.000    4.154    0.000    3.231 
#    0.000    0.000    0.000    0.000    0.000    0.000 
#
# Total GULP energy -644389.094418 kJ/mol
# GULP energy per Si atom -12392.097970 kJ/mol
# Density = 1.946340 g / cm^3
# Si number density = 19.507799 Si / 1000 Ang^3
#
#
#
# Elastic Constant Matrix: (Units=GPa)
#
#
# Indices 1 2 3 4 5 6 
#
# 1 99.3596 36.2674 32.6767 0.0000 0.0000 0.0000
# 2 36.2674 90.2329 17.7772 0.0000 0.0000 0.0000
# 3 32.6767 17.7772 71.5429 0.0000 0.0000 0.0000
# 4 0.0000 0.0000 0.0000 19.2369 0.0000 0.0000
# 5 0.0000 0.0000 0.0000 0.0000 19.3587 0.0000
# 6 0.0000 0.0000 0.0000 0.0000 0.0000 33.7196
#
#
#
# Elastic Compliance Matrix: (Units=1/GPa)
#
#
# Indices 1 2 3 4 5 6 
#
# 1 0.013297 -0.004362 -0.004990 0.000000 0.000000 0.000000
# 2 -0.004362 0.013084 -0.001259 0.000000 0.000000 0.000000
# 3 -0.004990 -0.001259 0.016569 0.000000 0.000000 0.000000
# 4 0.000000 0.000000 0.000000 0.051983 0.000000 0.000000
# 5 0.000000 0.000000 0.000000 0.000000 0.051656 0.000000
# 6 0.000000 0.000000 0.000000 0.000000 0.000000 0.029656
#
#
# Mechanical properties :
#
#
# Convention : Reuss Voigt Hill
#
# Bulk Modulus (GPa) = 46.01940 48.28644 47.15292
# Shear Modulus (GPa) = 24.42475 26.09066 25.25771
#
# Velocity S-wave (km/s) = 3.54227 3.66108 3.60217
# Velocity P-wave (km/s) = 6.35387 6.53280 6.44396
#
# Compressibility (1/GPa) = 0.02172997
#
# Stress axis : x y z
#
# Youngs Moduli (GPa) = 75.20220 76.43199 60.35198
#
# Poissons Ratio (x) = 0.33337 0.30114
# Poissons Ratio (y) = 0.32800 0.07598
# Poissons Ratio (z) = 0.37524 0.09622
#
# Static dielectric constant tensor:
#      x y z
#    x 3.797370 0.000000 0.000000 
#    y 0.000000 3.456910 0.000000 
#    z 0.000000 0.000000 3.660010 
# 
# 
# High freq. dielectric constant tensor:
#      x y z
#    x 1.769280 0.000000 0.000000 
#    y 0.000000 1.735550 0.000000 
#    z 0.000000 0.000000 1.749700 
# 
# From -- ./inp_files/15018.got.cif
#   From: 2010.06.25/outbox.cif.g09.slc.cpg/sg71_8_cif.got.tgz:15018.got - 2010.06.28 04:59:45.
