data_PCOD8290425
_publ_section_title
;
Structure prediction by ZEFSAII (Michael W. Deem and Ramdas Pophale) SiO2 
 PCOD8290425
Probable space group: I M M M
;
_chemical_formula_sum "Si O2"
_cell_formula_units_Z 80
_cell_length_a 8.819464
_cell_length_b 26.962453
_cell_length_c 17.175533
_cell_angle_alpha 90.000000
_cell_angle_beta 90.000000
_cell_angle_gamma 90.000000
_cell_volume 4084.245282
_symmetry_space_group_name_H-M "I M M M"
_symmetry_group_IT_number 71
_symmetry_cell_setting 'orthorhombic'
loop_
_space_group_symop_operation_xyz
x,y,z
-x,-y,z
x,-y,-z
-x,y,-z
-x,-y,-z
x,y,-z
-x,y,z
x,-y,z
1/2+x,1/2+y,1/2+z
1/2-x,1/2-y,1/2+z
1/2+x,1/2-y,1/2-z
1/2-x,1/2+y,1/2-z
1/2-x,1/2-y,1/2-z
1/2+x,1/2+y,1/2-z
1/2-x,1/2+y,1/2+z
1/2+x,1/2-y,1/2+z
loop_
_atom_site_type_symbol
_atom_site_label
_atom_site_fract_x
_atom_site_fract_y
_atom_site_fract_z
Si Si1 0.674081 0.812238 0.411558
Si Si2 0.318676 0.000000 0.588095
Si Si3 0.681112 0.943187 0.000000
Si Si4 0.178730 0.271912 0.328039
Si Si5 0.319954 0.906467 0.318778
Si Si6 0.320178 0.116667 0.149110
O O1 0.689482 0.830417 0.500000
O O2 0.500000 0.800120 0.390428
O O3 0.773917 0.763128 0.399500
O O4 0.739712 0.855372 0.356179
O O5 0.252317 0.952340 0.633010
O O6 0.500000 0.000000 0.588864
O O7 0.257303 0.000000 0.500000
O O8 0.745416 0.914289 0.075992
O O9 0.500000 0.943066 0.000000
O O10 0.740729 0.000000 0.000000
O O11 0.250000 0.250000 0.250000
O O12 0.240678 0.326831 0.348635
O O13 0.000000 0.273529 0.316833
O O14 0.500000 0.907056 0.325585
O O15 0.268123 0.910267 0.228921
O O16 0.500000 0.117417 0.142842
#
# Coordination Sequence:
#
# PCOD8290425 Si02
#       6
#    16   8   8  16  16  16
#     4  10  20  34  52  76 109 144 178 216 264 319
#     4   9  16  24  40  67  96 126 164 208 259 315
#     4   9  18  30  46  70 103 139 175 218 273 330
#     4  11  21  35  54  76 107 143 183 224 270 323
#     4   9  16  28  45  67  98 135 170 210 262 314
#     4   9  18  30  45  67  98 135 171 212 264 318
#
# _framework density 19.587461999999999
#
# number of rings (size 3 to 8) (size 9 to 14) (size 15 to 20)
#    0.000    2.400    2.000    1.200    2.800    2.800 
#    0.000    0.000    0.000    0.000    0.000    0.700 
#    0.000    8.000    0.000    0.000    0.000    0.000 
#
# Total GULP energy -495907.927288 kJ/mol
# GULP energy per Si atom -12397.698182 kJ/mol
# Density = 1.954288 g / cm^3
# Si number density = 19.587462 Si / 1000 Ang^3
#
#
#
# Elastic Constant Matrix: (Units=GPa)
#
#
# Indices 1 2 3 4 5 6 
#
# 1 20.2536 16.3434 10.5820 0.0000 0.0000 0.0000
# 2 16.3434 176.6495 94.5355 0.0001 0.0000 0.0000
# 3 10.5820 94.5355 169.4418 0.0003 0.0001 0.0000
# 4 0.0000 0.0001 0.0003 43.9311 0.0000 0.0000
# 5 0.0000 0.0000 0.0001 0.0000 16.0282 0.0000
# 6 0.0000 0.0000 0.0000 0.0000 0.0000 18.8334
#
#
#
# Elastic Compliance Matrix: (Units=1/GPa)
#
#
# Indices 1 2 3 4 5 6 
#
# 1 0.053438 -0.004502 -0.000825 0.000000 0.000000 0.000000
# 2 -0.004502 0.008450 -0.004433 0.000000 0.000000 0.000000
# 3 -0.000825 -0.004433 0.008427 0.000000 0.000000 0.000000
# 4 0.000000 0.000000 0.000000 0.022763 0.000000 0.000000
# 5 0.000000 0.000000 0.000000 0.000000 0.062390 0.000000
# 6 0.000000 0.000000 0.000000 0.000000 0.000000 0.053097
#
#
# Mechanical properties :
#
#
# Convention : Reuss Voigt Hill
#
# Bulk Modulus (GPa) = 19.68776 67.69628 43.69202
# Shear Modulus (GPa) = 20.40669 32.08417 26.24543
#
# Velocity S-wave (km/s) = 3.23123 4.05161 3.66445
# Velocity P-wave (km/s) = 4.89838 7.51820 6.34498
#
# Compressibility (1/GPa) = 0.05079298
#
# Stress axis : x y z
#
# Youngs Moduli (GPa) = 18.71320 118.34367 118.67052
#
# Poissons Ratio (x) = 0.53282 0.09795
# Poissons Ratio (y) = 0.08425 0.52610
# Poissons Ratio (z) = 0.01545 0.52465
#
# Static dielectric constant tensor:
#      x y z
#    x 2.950430 0.000000 0.000000 
#    y 0.000000 3.880350 0.000000 
#    z 0.000000 0.000000 3.792910 
# 
# 
# High freq. dielectric constant tensor:
#      x y z
#    x 1.686220 0.000000 0.000000 
#    y 0.000000 1.775020 0.000000 
#    z 0.000000 0.000000 1.778980 
# 
# From -- ./inp_files/42252.got.cif
#   From: 2010.06.25/outbox.cif.g09.slc.cpg/sg71_22_cif.got.tgz:42252.got - 2010.06.28 04:59:45.
