data_PCOD8290346
_publ_section_title
;
Structure prediction by ZEFSAII (Michael W. Deem and Ramdas Pophale) SiO2 
 PCOD8290346
Probable space group: I M M M
;
_chemical_formula_sum "Si O2"
_cell_formula_units_Z 104
_cell_length_a 14.164720
_cell_length_b 16.551325
_cell_length_c 25.495291
_cell_angle_alpha 90.000000
_cell_angle_beta 90.000000
_cell_angle_gamma 90.000000
_cell_volume 5977.240548
_symmetry_space_group_name_H-M "I M M M"
_symmetry_group_IT_number 71
_symmetry_cell_setting 'orthorhombic'
loop_
_space_group_symop_operation_xyz
x,y,z
-x,-y,z
x,-y,-z
-x,y,-z
-x,-y,-z
x,y,-z
-x,y,z
x,-y,z
1/2+x,1/2+y,1/2+z
1/2-x,1/2-y,1/2+z
1/2+x,1/2-y,1/2-z
1/2-x,1/2+y,1/2-z
1/2-x,1/2-y,1/2-z
1/2+x,1/2+y,1/2-z
1/2-x,1/2+y,1/2+z
1/2+x,1/2-y,1/2+z
loop_
_atom_site_type_symbol
_atom_site_label
_atom_site_fract_x
_atom_site_fract_y
_atom_site_fract_z
Si Si1 0.194593 0.138350 0.098056
Si Si2 0.277534 0.311305 0.100107
Si Si3 0.687837 0.911396 0.000000
Si Si4 0.110807 0.907438 0.313768
Si Si5 0.603290 0.591463 0.300787
Si Si6 0.500000 0.591684 0.439218
Si Si7 0.609577 0.734997 0.000000
Si Si8 0.605155 0.094638 0.559288
O O1 0.244333 0.221368 0.111746
O O2 0.184766 0.096611 0.155119
O O3 0.089025 0.146389 0.076087
O O4 0.251029 0.088964 0.053631
O O5 0.336196 0.347106 0.147551
O O6 0.183365 0.363540 0.094414
O O7 0.343182 0.309046 0.049100
O O8 0.620500 0.833045 0.000000
O O9 0.635943 0.000000 0.000000
O O10 0.133355 0.871134 0.255478
O O11 0.000000 0.902148 0.325488
O O12 0.146237 0.000000 0.322089
O O13 0.500000 0.626106 0.320281
O O14 0.586930 0.500000 0.284881
O O15 0.500000 0.500000 0.412537
O O16 0.500000 0.576079 0.500000
O O17 0.500000 0.714573 0.000000
O O18 0.614118 0.127302 0.500000
O O19 0.500000 0.114431 0.580873
O O20 0.623776 0.000000 0.560609
#
# Coordination Sequence:
#
# PCOD8290346 Si02
#       8
#    16  16   8  16  16   8   8  16
#     4  11  21  29  48  77 108 140 164 202 254 306
#     4  11  21  34  50  75 106 133 168 216 256 310
#     4  10  20  34  50  75 104 134 171 204 242 301
#     4   9  19  36  57  75  94 130 178 226 268 303
#     4   9  17  31  51  74 100 133 174 213 253 307
#     4  11  20  30  48  74 109 145 171 200 239 295
#     4  10  22  37  51  73  99 133 168 208 267 299
#     4   9  18  32  50  70  98 136 170 201 243 304
#
# _framework density 17.399332999999999
#
# number of rings (size 3 to 8) (size 9 to 14) (size 15 to 20)
#    0.000    2.077    2.308    3.692    1.077    0.769 
#    0.000    0.000    0.000    1.846    0.000    1.077 
#    0.000    4.923    0.000    0.000    0.000    0.000 
#
# Total GULP energy -644222.624854 kJ/mol
# GULP energy per Si atom -12388.896632 kJ/mol
# Density = 1.735973 g / cm^3
# Si number density = 17.399333 Si / 1000 Ang^3
#
#
#
# Elastic Constant Matrix: (Units=GPa)
#
#
# Indices 1 2 3 4 5 6 
#
# 1 77.2932 28.1164 42.0295 0.0000 0.0000 0.0000
# 2 28.1164 58.0773 38.1426 0.0000 0.0000 0.0000
# 3 42.0295 38.1426 118.8676 0.0000 0.0000 0.0000
# 4 0.0000 0.0000 0.0000 19.9409 0.0000 0.0000
# 5 0.0000 0.0000 0.0000 0.0000 26.3252 0.0000
# 6 0.0000 0.0000 0.0000 0.0000 0.0000 21.7882
#
#
#
# Elastic Compliance Matrix: (Units=1/GPa)
#
#
# Indices 1 2 3 4 5 6 
#
# 1 0.017312 -0.005525 -0.004348 0.000000 0.000000 0.000000
# 2 -0.005525 0.023579 -0.005613 0.000000 0.000000 0.000000
# 3 -0.004348 -0.005613 0.011751 0.000000 0.000000 0.000000
# 4 0.000000 0.000000 0.000000 0.050148 0.000000 0.000000
# 5 0.000000 0.000000 0.000000 0.000000 0.037986 0.000000
# 6 0.000000 0.000000 0.000000 0.000000 0.000000 0.045896
#
#
# Mechanical properties :
#
#
# Convention : Reuss Voigt Hill
#
# Bulk Modulus (GPa) = 46.14608 52.31278 49.22943
# Shear Modulus (GPa) = 22.23512 23.34085 22.78798
#
# Velocity S-wave (km/s) = 3.57869 3.66659 3.62291
# Velocity P-wave (km/s) = 6.60722 6.93228 6.77170
#
# Compressibility (1/GPa) = 0.02167031
#
# Stress axis : x y z
#
# Youngs Moduli (GPa) = 57.76300 42.40976 85.09798
#
# Poissons Ratio (x) = 0.23433 0.37003
# Poissons Ratio (y) = 0.31916 0.47762
# Poissons Ratio (z) = 0.25117 0.23803
#
# Static dielectric constant tensor:
#      x y z
#    x 3.116330 0.000000 0.000000 
#    y 0.000000 3.824920 0.000000 
#    z 0.000000 0.000000 3.298450 
# 
# 
# High freq. dielectric constant tensor:
#      x y z
#    x 1.657490 0.000000 0.000000 
#    y 0.000000 1.659000 0.000000 
#    z 0.000000 0.000000 1.675560 
# 
# From -- ./inp_files/64689.got.cif
#   From: 2010.06.25/outbox.cif.g09.slc.cpg/sg71_33_cif.got.tgz:64689.got - 2010.06.28 04:59:45.
