data_PCOD8290365
_publ_section_title
;
Structure prediction by ZEFSAII (Michael W. Deem and Ramdas Pophale) SiO2 
 PCOD8290365
Probable space group: I M M M
;
_chemical_formula_sum "Si O2"
_cell_formula_units_Z 72
_cell_length_a 14.445614
_cell_length_b 8.495007
_cell_length_c 31.172375
_cell_angle_alpha 90.000000
_cell_angle_beta 90.000000
_cell_angle_gamma 90.000000
_cell_volume 3825.336454
_symmetry_space_group_name_H-M "I M M M"
_symmetry_group_IT_number 71
_symmetry_cell_setting 'orthorhombic'
loop_
_space_group_symop_operation_xyz
x,y,z
-x,-y,z
x,-y,-z
-x,y,-z
-x,-y,-z
x,y,-z
-x,y,z
x,-y,z
1/2+x,1/2+y,1/2+z
1/2-x,1/2-y,1/2+z
1/2+x,1/2-y,1/2-z
1/2-x,1/2+y,1/2-z
1/2-x,1/2-y,1/2-z
1/2+x,1/2+y,1/2-z
1/2-x,1/2+y,1/2+z
1/2+x,1/2-y,1/2+z
loop_
_atom_site_type_symbol
_atom_site_label
_atom_site_fract_x
_atom_site_fract_y
_atom_site_fract_z
Si Si1 0.309875 0.315832 0.288426
Si Si2 0.500000 0.672222 0.951617
Si Si3 0.500000 0.811895 0.163341
Si Si4 0.192913 0.316206 0.451880
Si Si5 0.804176 0.183989 0.365241
Si Si6 0.500000 0.185249 0.738483
O O1 0.317588 0.500000 0.282779
O O2 0.250000 0.250000 0.250000
O O3 0.261198 0.275919 0.332831
O O4 0.411637 0.243710 0.287609
O O5 0.500000 0.500000 0.926605
O O6 0.585970 0.783692 0.942174
O O7 0.500000 0.619642 0.000000
O O8 0.590034 0.743775 0.139364
O O9 0.500000 0.751664 0.212583
O O10 0.500000 0.000000 0.160992
O O11 0.222135 0.256876 0.500000
O O12 0.214441 0.500000 0.447895
O O13 0.240069 0.221318 0.412603
O O14 0.799333 0.000000 0.355847
O O15 0.500000 0.000000 0.739368
#
# Coordination Sequence:
#
# PCOD8290365 Si02
#       6
#    16   8   8  16  16   8
#     4  12  24  40  61  86 116 150 189 234 282 336
#     4   9  16  27  44  67  98 137 180 224 271 326
#     4  11  22  36  56  80 113 152 194 238 281 337
#     4  10  20  34  51  72 103 143 186 232 282 335
#     4  12  24  37  56  82 114 151 193 238 284 338
#     4  11  23  40  62  86 114 152 190 232 283 336
#
# _framework density 18.821873
#
# number of rings (size 3 to 8) (size 9 to 14) (size 15 to 20)
#    0.000    1.000    2.222    6.333    0.000    3.556 
#    0.000    0.000    0.000    0.000    0.000    0.778 
#    0.000    6.222    0.000    0.000    0.000    0.000 
#
# Total GULP energy -446188.303821 kJ/mol
# GULP energy per Si atom -12394.119551 kJ/mol
# Density = 1.877903 g / cm^3
# Si number density = 18.821873 Si / 1000 Ang^3
#
#
#
# Elastic Constant Matrix: (Units=GPa)
#
#
# Indices 1 2 3 4 5 6 
#
# 1 85.0700 13.0523 33.8626 0.0000 0.0000 0.0000
# 2 13.0523 74.6867 8.4247 0.0000 0.0000 0.0000
# 3 33.8626 8.4247 126.4601 0.0000 0.0000 0.0000
# 4 0.0000 0.0000 0.0000 31.8285 0.0000 0.0000
# 5 0.0000 0.0000 0.0000 0.0000 17.9789 0.0000
# 6 0.0000 0.0000 0.0000 0.0000 0.0000 24.8514
#
#
#
# Elastic Compliance Matrix: (Units=1/GPa)
#
#
# Indices 1 2 3 4 5 6 
#
# 1 0.013435 -0.001957 -0.003467 0.000000 0.000000 0.000000
# 2 -0.001957 0.013776 -0.000394 0.000000 0.000000 0.000000
# 3 -0.003467 -0.000394 0.008862 0.000000 0.000000 0.000000
# 4 0.000000 0.000000 0.000000 0.031418 0.000000 0.000000
# 5 0.000000 0.000000 0.000000 0.000000 0.055621 0.000000
# 6 0.000000 0.000000 0.000000 0.000000 0.000000 0.040239
#
#
# Mechanical properties :
#
#
# Convention : Reuss Voigt Hill
#
# Bulk Modulus (GPa) = 40.92048 44.09955 42.51001
# Shear Modulus (GPa) = 27.30252 30.32359 28.81305
#
# Velocity S-wave (km/s) = 3.81277 4.01818 3.91682
# Velocity P-wave (km/s) = 6.41647 6.70884 6.56428
#
# Compressibility (1/GPa) = 0.02443764
#
# Stress axis : x y z
#
# Youngs Moduli (GPa) = 74.43007 72.59178 112.83747
#
# Poissons Ratio (x) = 0.14205 0.39124
# Poissons Ratio (y) = 0.14565 0.04443
# Poissons Ratio (z) = 0.25807 0.02858
#
# Static dielectric constant tensor:
#      x y z
#    x 2.403570 0.000000 0.000000 
#    y 0.000000 3.528240 0.000000 
#    z 0.000000 0.000000 3.909580 
# 
# 
# High freq. dielectric constant tensor:
#      x y z
#    x 1.678620 0.000000 0.000000 
#    y 0.000000 1.750070 0.000000 
#    z 0.000000 0.000000 1.752120 
# 
# From -- ./inp_files/69734.got.cif
#   From: 2010.06.25/outbox.cif.g09.slc.cpg/sg71_35_cif.got.tgz:69734.got - 2010.06.28 04:59:45.
