data_PCOD8290129
_publ_section_title
;
Structure prediction by ZEFSAII (Michael W. Deem and Ramdas Pophale) SiO2 
 PCOD8290129
Probable space group: I M M M
;
_chemical_formula_sum "Si O2"
_cell_formula_units_Z 120
_cell_length_a 29.317077
_cell_length_b 8.964752
_cell_length_c 24.389564
_cell_angle_alpha 90.000000
_cell_angle_beta 90.000000
_cell_angle_gamma 90.000000
_cell_volume 6410.073129
_symmetry_space_group_name_H-M "I M M M"
_symmetry_group_IT_number 71
_symmetry_cell_setting 'orthorhombic'
loop_
_space_group_symop_operation_xyz
x,y,z
-x,-y,z
x,-y,-z
-x,y,-z
-x,-y,-z
x,y,-z
-x,y,z
x,-y,z
1/2+x,1/2+y,1/2+z
1/2-x,1/2-y,1/2+z
1/2+x,1/2-y,1/2-z
1/2-x,1/2+y,1/2-z
1/2-x,1/2-y,1/2-z
1/2+x,1/2+y,1/2-z
1/2-x,1/2+y,1/2+z
1/2+x,1/2-y,1/2+z
loop_
_atom_site_type_symbol
_atom_site_label
_atom_site_fract_x
_atom_site_fract_y
_atom_site_fract_z
Si Si1 0.157700 0.172700 0.561948
Si Si2 0.126314 0.174812 0.823599
Si Si3 0.918613 0.323622 0.372943
Si Si4 0.947468 0.826347 0.736916
Si Si5 0.716283 0.830641 0.709350
Si Si6 0.650558 0.675860 0.441146
Si Si7 0.000000 0.828289 0.435332
Si Si8 0.759277 0.331560 0.085860
O O1 0.139598 0.197358 0.500000
O O2 0.130532 0.275117 0.604584
O O3 0.210265 0.221835 0.564586
O O4 0.151978 0.000000 0.579336
O O5 0.078590 0.210152 0.793719
O O6 0.166854 0.253770 0.790693
O O7 0.123817 0.235896 0.886927
O O8 0.137124 0.000000 0.823225
O O9 0.923784 0.500000 0.374973
O O10 0.924763 0.269651 0.310885
O O11 0.955640 0.249833 0.412041
O O12 0.000000 0.779995 0.744935
O O13 0.942928 0.000000 0.721543
O O14 0.750000 0.750000 0.750000
O O15 0.740443 0.820707 0.651036
O O16 0.709105 0.000000 0.728589
O O17 0.629117 0.730285 0.500000
O O18 0.649666 0.500000 0.439450
O O19 0.702920 0.725974 0.440213
O O20 0.000000 0.812380 0.500000
O O21 0.000000 0.000000 0.416457
O O22 0.769262 0.500000 0.066260
#
# Coordination Sequence:
#
# PCOD8290129 Si02
#       8
#    16  16  16  16  16  16   8  16
#     4  10  21  37  55  75 103 142 184 222 264 316
#     4   9  19  35  55  80 108 142 183 224 271 326
#     4  12  25  38  55  81 108 135 173 226 282 326
#     4  10  21  39  62  81 103 140 185 229 273 332
#     4  10  20  33  50  76 109 144 181 221 270 320
#     4   9  17  31  53  81 113 145 176 217 270 322
#     4  11  23  41  63  81 101 135 178 221 270 333
#     4   9  19  34  52  75 104 142 186 224 257 307
#
# _framework density 18.720535000000002
#
# number of rings (size 3 to 8) (size 9 to 14) (size 15 to 20)
#    0.000    2.067    0.667    2.600    1.867    4.800 
#    0.000    0.000    0.000    0.400    0.000    2.800 
#    0.000    0.000    0.000    7.867    0.000    8.267 
#
# Total GULP energy -743926.170417 kJ/mol
# GULP energy per Si atom -12398.769507 kJ/mol
# Density = 1.867793 g / cm^3
# Si number density = 18.720535 Si / 1000 Ang^3
#
#
#
# Elastic Constant Matrix: (Units=GPa)
#
#
# Indices 1 2 3 4 5 6 
#
# 1 75.9020 26.9988 59.6180 0.0000 0.0000 0.0000
# 2 26.9988 66.7320 45.8614 0.0000 0.0000 0.0000
# 3 59.6180 45.8614 125.3675 0.0000 0.0000 0.0000
# 4 0.0000 0.0000 0.0000 15.6180 0.0000 0.0000
# 5 0.0000 0.0000 0.0000 0.0000 27.0042 0.0000
# 6 0.0000 0.0000 0.0000 0.0000 0.0000 23.0031
#
#
#
# Elastic Compliance Matrix: (Units=1/GPa)
#
#
# Indices 1 2 3 4 5 6 
#
# 1 0.021271 -0.002210 -0.009307 0.000000 0.000000 0.000000
# 2 -0.002210 0.020248 -0.006356 0.000000 0.000000 0.000000
# 3 -0.009307 -0.006356 0.014728 0.000000 0.000000 0.000000
# 4 0.000000 0.000000 0.000000 0.064029 0.000000 0.000000
# 5 0.000000 0.000000 0.000000 0.000000 0.037031 0.000000
# 6 0.000000 0.000000 0.000000 0.000000 0.000000 0.043472
#
#
# Mechanical properties :
#
#
# Convention : Reuss Voigt Hill
#
# Bulk Modulus (GPa) = 48.77892 59.21754 53.99823
# Shear Modulus (GPa) = 20.54586 22.15994 21.35290
#
# Velocity S-wave (km/s) = 3.31645 3.44426 3.38096
# Velocity P-wave (km/s) = 6.38577 6.89335 6.64441
#
# Compressibility (1/GPa) = 0.02050066
#
# Stress axis : x y z
#
# Youngs Moduli (GPa) = 47.01180 49.38881 67.89957
#
# Poissons Ratio (x) = 0.10914 0.63195
# Poissons Ratio (y) = 0.10388 0.43157
# Poissons Ratio (z) = 0.43754 0.31392
#
# Static dielectric constant tensor:
#      x y z
#    x 3.380920 0.000000 0.000000 
#    y 0.000000 3.436650 0.000000 
#    z 0.000000 0.000000 3.843220 
# 
# 
# High freq. dielectric constant tensor:
#      x y z
#    x 1.709730 0.000000 0.000000 
#    y 0.000000 1.720230 0.000000 
#    z 0.000000 0.000000 1.740500 
# 
# From -- ./inp_files/67203.got.cif
#   From: 2010.06.25/outbox.cif.g09.slc.cpg/sg71_34_cif.got.tgz:67203.got - 2010.06.28 04:59:45.
