data_PCOD8290778
_publ_section_title
;
Structure prediction by ZEFSAII (Michael W. Deem and Ramdas Pophale) SiO2 
 PCOD8290778
Probable space group: I M M M
;
_chemical_formula_sum "Si O2"
_cell_formula_units_Z 104
_cell_length_a 18.811363
_cell_length_b 29.426547
_cell_length_c 10.452227
_cell_angle_alpha 90.000000
_cell_angle_beta 90.000000
_cell_angle_gamma 90.000000
_cell_volume 5785.866394
_symmetry_space_group_name_H-M "I M M M"
_symmetry_group_IT_number 71
_symmetry_cell_setting 'orthorhombic'
loop_
_space_group_symop_operation_xyz
x,y,z
-x,-y,z
x,-y,-z
-x,y,-z
-x,-y,-z
x,y,-z
-x,y,z
x,-y,z
1/2+x,1/2+y,1/2+z
1/2-x,1/2-y,1/2+z
1/2+x,1/2-y,1/2-z
1/2-x,1/2+y,1/2-z
1/2-x,1/2-y,1/2-z
1/2+x,1/2+y,1/2-z
1/2-x,1/2+y,1/2+z
1/2+x,1/2-y,1/2+z
loop_
_atom_site_type_symbol
_atom_site_label
_atom_site_fract_x
_atom_site_fract_y
_atom_site_fract_z
Si Si1 0.083518 0.118452 0.283110
Si Si2 0.421710 0.126690 0.149520
Si Si3 0.662361 0.549299 0.646859
Si Si4 0.915941 0.050118 0.500000
Si Si5 0.807668 0.194042 0.647814
Si Si6 0.189352 0.700797 0.646182
Si Si7 0.681012 0.949024 0.150874
O O1 0.109020 0.092767 0.155217
O O2 0.109239 0.078899 0.379203
O O3 0.122686 0.165264 0.314762
O O4 0.000000 0.128991 0.284650
O O5 0.500000 0.127870 0.213785
O O6 0.383760 0.174857 0.173865
O O7 0.374695 0.086439 0.213016
O O8 0.430326 0.117589 0.000000
O O9 0.677223 0.541422 0.500000
O O10 0.632762 0.500000 0.700365
O O11 0.739979 0.560086 0.708616
O O12 0.000000 0.046000 0.500000
O O13 0.880873 0.000000 0.500000
O O14 0.784615 0.184110 0.500000
O O15 0.828575 0.246453 0.664601
O O16 0.746056 0.182667 0.749673
O O17 0.216834 0.691248 0.500000
O O18 0.655830 0.000000 0.184160
O O19 0.681967 0.940531 0.000000
#
# Coordination Sequence:
#
# PCOD8290778 Si02
#       7
#    16  16  16   8  16  16  16
#     4  11  21  32  48  71  99 132 168 212 261 304
#     4   9  16  26  43  70 100 128 159 195 242 299
#     4   9  18  32  49  70  99 136 174 210 252 305
#     4   9  18  32  46  62  90 128 165 201 246 296
#     4  10  20  35  54  75  99 130 171 214 257 307
#     4   9  19  35  55  76  99 131 169 211 257 306
#     4   8  14  25  41  63  94 129 161 196 240 291
#
# _framework density 17.974836
#
# number of rings (size 3 to 8) (size 9 to 14) (size 15 to 20)
#    0.000    2.692    0.769    2.308    0.000    4.000 
#    0.000    3.846    0.000    0.462    0.000    4.308 
#    0.000    0.000    0.000    5.231    0.000    2.923 
#
# Total GULP energy -644190.631028 kJ/mol
# GULP energy per Si atom -12388.281366 kJ/mol
# Density = 1.793392 g / cm^3
# Si number density = 17.974836 Si / 1000 Ang^3
#
#
#
# Elastic Constant Matrix: (Units=GPa)
#
#
# Indices 1 2 3 4 5 6 
#
# 1 117.6155 64.5785 37.3193 -0.0002 0.0001 0.0000
# 2 64.5785 103.6176 27.5312 -0.0002 0.0001 0.0000
# 3 37.3193 27.5312 47.0926 -0.0029 -0.0008 -0.0002
# 4 -0.0002 -0.0002 -0.0029 35.9659 -0.0003 -0.0001
# 5 0.0001 0.0001 -0.0008 -0.0003 14.4826 0.0000
# 6 0.0000 0.0000 -0.0002 -0.0001 0.0000 30.8988
#
#
#
# Elastic Compliance Matrix: (Units=1/GPa)
#
#
# Indices 1 2 3 4 5 6 
#
# 1 0.014892 -0.007276 -0.007548 -0.000001 0.000000 0.000000
# 2 -0.007276 0.014980 -0.002992 0.000000 0.000000 0.000000
# 3 -0.007548 -0.002992 0.028965 0.000002 0.000002 0.000000
# 4 -0.000001 0.000000 0.000002 0.027804 0.000001 0.000000
# 5 0.000000 0.000000 0.000002 0.000001 0.069048 0.000000
# 6 0.000000 0.000000 0.000000 0.000000 0.000000 0.032364
#
#
# Mechanical properties :
#
#
# Convention : Reuss Voigt Hill
#
# Bulk Modulus (GPa) = 43.09142 58.57598 50.83370
# Shear Modulus (GPa) = 21.60562 25.52924 23.56743
#
# Velocity S-wave (km/s) = 3.47074 3.77274 3.62489
# Velocity P-wave (km/s) = 6.33140 7.18586 6.77212
#
# Compressibility (1/GPa) = 0.02320647
#
# Stress axis : x y z
#
# Youngs Moduli (GPa) = 67.14943 66.75366 34.52397
#
# Poissons Ratio (x) = 0.48569 0.26058
# Poissons Ratio (y) = 0.48857 0.10329
# Poissons Ratio (z) = 0.50684 0.19972
#
# Static dielectric constant tensor:
#      x y z
#    x 3.348890 0.000000 0.000000 
#    y 0.000000 3.471570 0.000000 
#    z 0.000000 0.000000 3.164920 
# 
# 
# High freq. dielectric constant tensor:
#      x y z
#    x 1.682520 0.000000 0.000000 
#    y 0.000000 1.711720 0.000000 
#    z 0.000000 0.000000 1.655320 
# 
# From -- ./inp_files/24773.got.cif
#   From: 2010.06.25/outbox.cif.g09.slc.cpg/sg71_13_cif.got.tgz:24773.got - 2010.06.28 04:59:45.
