data_PCOD8290421
_publ_section_title
;
Structure prediction by ZEFSAII (Michael W. Deem and Ramdas Pophale) SiO2 
 PCOD8290421
Probable space group: I M M M
;
_chemical_formula_sum "Si O2"
_cell_formula_units_Z 72
_cell_length_a 16.859731
_cell_length_b 24.251557
_cell_length_c 9.701174
_cell_angle_alpha 90.000000
_cell_angle_beta 90.000000
_cell_angle_gamma 90.000000
_cell_volume 3966.564874
_symmetry_space_group_name_H-M "I M M M"
_symmetry_group_IT_number 71
_symmetry_cell_setting 'orthorhombic'
loop_
_space_group_symop_operation_xyz
x,y,z
-x,-y,z
x,-y,-z
-x,y,-z
-x,-y,-z
x,y,-z
-x,y,z
x,-y,z
1/2+x,1/2+y,1/2+z
1/2-x,1/2-y,1/2+z
1/2+x,1/2-y,1/2-z
1/2-x,1/2+y,1/2-z
1/2-x,1/2-y,1/2-z
1/2+x,1/2+y,1/2-z
1/2-x,1/2+y,1/2+z
1/2+x,1/2-y,1/2+z
loop_
_atom_site_type_symbol
_atom_site_label
_atom_site_fract_x
_atom_site_fract_y
_atom_site_fract_z
Si Si1 0.127727 0.350628 0.661340
Si Si2 0.688683 0.357277 0.339391
Si Si3 0.910715 0.247228 0.843381
Si Si4 0.910198 0.935438 0.344460
Si Si5 0.000000 0.561554 0.337642
O O1 0.114854 0.338396 0.500000
O O2 0.219161 0.358829 0.698032
O O3 0.094770 0.299169 0.744524
O O4 0.078813 0.404935 0.707790
O O5 0.673030 0.366921 0.500000
O O6 0.650426 0.299421 0.291860
O O7 0.649642 0.407133 0.259083
O O8 0.000000 0.223285 0.835203
O O9 0.890204 0.265114 0.000000
O O10 0.893418 0.915182 0.500000
O O11 0.000000 0.920501 0.302572
O O12 0.895682 0.000000 0.333061
O O13 0.000000 0.500000 0.270106
O O14 0.000000 0.554661 0.500000
#
# Coordination Sequence:
#
# PCOD8290421 Si02
#       5
#    16  16  16  16   8
#     4  10  20  35  55  78 104 138 181 225 269 324
#     4  10  21  34  52  81 110 139 179 223 272 326
#     4  10  20  34  52  75 108 143 173 217 277 329
#     4   9  19  36  55  76 106 143 180 218 263 316
#     4   9  18  34  55  77 103 137 178 227 274 313
#
# _framework density 18.151724999999999
#
# number of rings (size 3 to 8) (size 9 to 14) (size 15 to 20)
#    0.000    2.333    1.111    2.000    0.000    4.444 
#    0.000    3.333    0.000    1.333    0.000    0.000 
#    0.000    0.000    0.000    0.000    0.000    0.000 
#
# Total GULP energy -446425.759289 kJ/mol
# GULP energy per Si atom -12400.715536 kJ/mol
# Density = 1.811041 g / cm^3
# Si number density = 18.151725 Si / 1000 Ang^3
#
#
#
# Elastic Constant Matrix: (Units=GPa)
#
#
# Indices 1 2 3 4 5 6 
#
# 1 139.8711 72.2974 38.3447 0.0000 0.0000 0.0000
# 2 72.2974 104.1409 36.3469 0.0000 0.0000 0.0000
# 3 38.3447 36.3469 40.4839 0.0000 -0.0001 0.0000
# 4 0.0000 0.0000 0.0000 34.7517 0.0000 0.0000
# 5 0.0000 0.0000 -0.0001 0.0000 58.3350 0.0000
# 6 0.0000 0.0000 0.0000 0.0000 0.0000 18.9472
#
#
#
# Elastic Compliance Matrix: (Units=1/GPa)
#
#
# Indices 1 2 3 4 5 6 
#
# 1 0.011977 -0.006343 -0.005649 0.000000 0.000000 0.000000
# 2 -0.006343 0.017344 -0.009564 0.000000 0.000000 0.000000
# 3 -0.005649 -0.009564 0.038638 0.000000 0.000000 0.000000
# 4 0.000000 0.000000 0.000000 0.028776 0.000000 0.000000
# 5 0.000000 0.000000 0.000000 0.000000 0.017142 0.000000
# 6 0.000000 0.000000 0.000000 0.000000 0.000000 0.052778
#
#
# Mechanical properties :
#
#
# Convention : Reuss Voigt Hill
#
# Bulk Modulus (GPa) = 40.24591 64.27486 52.26038
# Shear Modulus (GPa) = 22.93074 31.57391 27.25232
#
# Velocity S-wave (km/s) = 3.55812 4.17519 3.87895
# Velocity P-wave (km/s) = 6.25303 7.66352 6.99393
#
# Compressibility (1/GPa) = 0.02484725
#
# Stress axis : x y z
#
# Youngs Moduli (GPa) = 83.49586 57.65815 25.88124
#
# Poissons Ratio (x) = 0.36572 0.14621
# Poissons Ratio (y) = 0.52960 0.24752
# Poissons Ratio (z) = 0.47168 0.55142
#
# Static dielectric constant tensor:
#      x y z
#    x 3.558440 0.000000 0.000000 
#    y 0.000000 3.315790 0.000000 
#    z 0.000000 0.000000 3.261210 
# 
# 
# High freq. dielectric constant tensor:
#      x y z
#    x 1.716180 0.000000 0.000000 
#    y 0.000000 1.699580 0.000000 
#    z 0.000000 0.000000 1.689660 
# 
# From -- ./inp_files/6049.got.cif
#   From: 2010.06.25/outbox.cif.g09.slc.cpg/sg71_4_cif.got.tgz:6049.got - 2010.06.28 04:59:45.
