data_PCOD8290848
_publ_section_title
;
Structure prediction by ZEFSAII (Michael W. Deem and Ramdas Pophale) SiO2 
 PCOD8290848
Probable space group: I M M M
;
_chemical_formula_sum "Si O2"
_cell_formula_units_Z 120
_cell_length_a 23.660488
_cell_length_b 22.120384
_cell_length_c 12.498887
_cell_angle_alpha 90.000000
_cell_angle_beta 90.000000
_cell_angle_gamma 90.000000
_cell_volume 6541.655981
_symmetry_space_group_name_H-M "I M M M"
_symmetry_group_IT_number 71
_symmetry_cell_setting 'orthorhombic'
loop_
_space_group_symop_operation_xyz
x,y,z
-x,-y,z
x,-y,-z
-x,y,-z
-x,-y,-z
x,y,-z
-x,y,z
x,-y,z
1/2+x,1/2+y,1/2+z
1/2-x,1/2-y,1/2+z
1/2+x,1/2-y,1/2-z
1/2-x,1/2+y,1/2-z
1/2-x,1/2-y,1/2-z
1/2+x,1/2+y,1/2-z
1/2-x,1/2+y,1/2+z
1/2+x,1/2-y,1/2+z
loop_
_atom_site_type_symbol
_atom_site_label
_atom_site_fract_x
_atom_site_fract_y
_atom_site_fract_z
Si Si1 0.437391 0.571586 0.271991
Si Si2 0.838340 0.754177 0.242090
Si Si3 0.347658 0.627780 0.875648
Si Si4 0.244093 0.321644 0.624213
Si Si5 0.567267 0.433740 0.500000
Si Si6 0.129482 0.567147 0.877809
Si Si7 0.435345 0.185779 0.374882
Si Si8 0.247055 0.430641 0.236039
O O1 0.500000 0.596648 0.245669
O O2 0.439667 0.500000 0.285350
O O3 0.396618 0.588250 0.176598
O O4 0.415462 0.599214 0.387654
O O5 0.850217 0.805292 0.328968
O O6 0.808781 0.699088 0.303941
O O7 0.797796 0.778842 0.147905
O O8 0.896871 0.732277 0.190913
O O9 0.287784 0.595476 0.856060
O O10 0.359736 0.631700 0.000000
O O11 0.228906 0.317775 0.500000
O O12 0.256738 0.391204 0.656547
O O13 0.595478 0.500000 0.500000
O O14 0.500000 0.439732 0.500000
O O15 0.103628 0.500000 0.859342
O O16 0.082256 0.616639 0.849193
O O17 0.183442 0.576540 0.803543
O O18 0.149722 0.574737 0.000000
O O19 0.428326 0.199879 0.500000
O O20 0.500000 0.194426 0.338070
O O21 0.262361 0.500000 0.262078
#
# Coordination Sequence:
#
# PCOD8290848 Si02
#       8
#    16  16  16  16   8  16  16  16
#     4   9  18  34  54  74 100 139 184 230 284 339
#     4  10  21  38  55  79 108 148 190 230 274 334
#     4  11  23  36  53  79 113 148 186 231 279 334
#     4  10  20  36  59  81 106 143 188 234 277 325
#     4   7  12  28  52  72  92 126 174 222 266 324
#     4   9  17  31  54  83 113 144 177 217 272 337
#     4  10  20  35  57  84 115 148 184 233 286 336
#     4  10  20  35  55  83 114 145 179 222 280 336
#
# _framework density 18.343979000000001
#
# number of rings (size 3 to 8) (size 9 to 14) (size 15 to 20)
#    0.000    2.333    1.333    2.400    0.000    2.933 
#    6.000    2.000    0.000    1.200    0.000    0.000 
#    0.000    2.133    0.000    0.000    0.000    0.000 
#
# Total GULP energy -743790.787685 kJ/mol
# GULP energy per Si atom -12396.513128 kJ/mol
# Density = 1.830223 g / cm^3
# Si number density = 18.343979 Si / 1000 Ang^3
#
#
#
# Elastic Constant Matrix: (Units=GPa)
#
#
# Indices 1 2 3 4 5 6 
#
# 1 106.1091 43.0530 45.8487 0.0000 0.0000 0.0000
# 2 43.0530 101.2910 45.9928 0.0000 0.0000 0.0000
# 3 45.8487 45.9928 103.1014 0.0000 0.0000 0.0000
# 4 0.0000 0.0000 0.0000 18.0515 0.0000 0.0000
# 5 0.0000 0.0000 0.0000 0.0000 22.6351 0.0000
# 6 0.0000 0.0000 0.0000 0.0000 0.0000 22.1377
#
#
#
# Elastic Compliance Matrix: (Units=1/GPa)
#
#
# Indices 1 2 3 4 5 6 
#
# 1 0.012595 -0.003524 -0.004029 0.000000 0.000000 0.000000
# 2 -0.003524 0.013366 -0.004395 0.000000 0.000000 0.000000
# 3 -0.004029 -0.004395 0.013452 0.000000 0.000000 0.000000
# 4 0.000000 0.000000 0.000000 0.055397 0.000000 0.000000
# 5 0.000000 0.000000 0.000000 0.000000 0.044179 0.000000
# 6 0.000000 0.000000 0.000000 0.000000 0.000000 0.045172
#
#
# Mechanical properties :
#
#
# Convention : Reuss Voigt Hill
#
# Bulk Modulus (GPa) = 64.44933 64.47671 64.46302
# Shear Modulus (GPa) = 23.44889 24.27199 23.86044
#
# Velocity S-wave (km/s) = 3.57919 3.64147 3.61047
# Velocity P-wave (km/s) = 7.23124 7.27361 7.25246
#
# Compressibility (1/GPa) = 0.01551606
#
# Stress axis : x y z
#
# Youngs Moduli (GPa) = 79.39696 74.81538 74.34067
#
# Poissons Ratio (x) = 0.26365 0.29951
# Poissons Ratio (y) = 0.27980 0.32676
# Poissons Ratio (z) = 0.31988 0.32885
#
# Static dielectric constant tensor:
#      x y z
#    x 3.329130 0.000000 0.000000 
#    y 0.000000 3.459980 0.000000 
#    z 0.000000 0.000000 3.315440 
# 
# 
# High freq. dielectric constant tensor:
#      x y z
#    x 1.700730 0.000000 0.000000 
#    y 0.000000 1.713960 0.000000 
#    z 0.000000 0.000000 1.698230 
# 
# From -- ./inp_files/27727.got.cif
#   From: 2010.06.25/outbox.cif.g09.slc.cpg/sg71_14_cif.got.tgz:27727.got - 2010.06.28 04:59:45.
