data_PCOD8290762
_publ_section_title
;
Structure prediction by ZEFSAII (Michael W. Deem and Ramdas Pophale) SiO2 
 PCOD8290762
Probable space group: I M M M
;
_chemical_formula_sum "Si O2"
_cell_formula_units_Z 88
_cell_length_a 17.047762
_cell_length_b 22.976223
_cell_length_c 12.093461
_cell_angle_alpha 90.000000
_cell_angle_beta 90.000000
_cell_angle_gamma 90.000000
_cell_volume 4736.926213
_symmetry_space_group_name_H-M "I M M M"
_symmetry_group_IT_number 71
_symmetry_cell_setting 'orthorhombic'
loop_
_space_group_symop_operation_xyz
x,y,z
-x,-y,z
x,-y,-z
-x,y,-z
-x,-y,-z
x,y,-z
-x,y,z
x,-y,z
1/2+x,1/2+y,1/2+z
1/2-x,1/2-y,1/2+z
1/2+x,1/2-y,1/2-z
1/2-x,1/2+y,1/2-z
1/2-x,1/2-y,1/2-z
1/2+x,1/2+y,1/2-z
1/2-x,1/2+y,1/2+z
1/2+x,1/2-y,1/2+z
loop_
_atom_site_type_symbol
_atom_site_label
_atom_site_fract_x
_atom_site_fract_y
_atom_site_fract_z
Si Si1 0.908965 0.932703 0.276063
Si Si2 0.407168 0.068342 0.500000
Si Si3 0.727040 0.566867 0.381206
Si Si4 0.409354 0.784318 0.874358
Si Si5 0.676764 0.330915 0.125075
Si Si6 0.166966 0.625938 0.781555
O O1 0.857052 0.914818 0.169834
O O2 0.879055 0.888363 0.370133
O O3 0.000000 0.922753 0.248462
O O4 0.893721 0.000000 0.312794
O O5 0.500000 0.078151 0.500000
O O6 0.371621 0.097728 0.609817
O O7 0.385811 0.000000 0.500000
O O8 0.736896 0.599635 0.500000
O O9 0.724358 0.500000 0.406071
O O10 0.801021 0.576595 0.300897
O O11 0.500000 0.769607 0.873873
O O12 0.367259 0.726109 0.830634
O O13 0.394518 0.835726 0.786971
O O14 0.382834 0.801198 0.000000
O O15 0.757457 0.335200 0.191511
O O16 0.701270 0.322029 0.000000
#
# Coordination Sequence:
#
# PCOD8290762 Si02
#       6
#    16   8  16  16  16  16
#     4   9  18  31  49  76 111 149 187 230 281 337
#     4  11  24  40  60  86 117 151 186 230 287 342
#     4   9  18  32  52  78 107 141 182 230 277 327
#     4  10  21  36  57  81 108 143 183 232 282 334
#     4  10  20  35  53  80 109 146 189 232 281 328
#     4  11  20  37  57  82 108 145 187 229 277 337
#
# _framework density 18.577449000000001
#
# number of rings (size 3 to 8) (size 9 to 14) (size 15 to 20)
#    0.000    2.091    0.909    2.727    0.000    2.545 
#    0.000    2.727    2.000    0.000    0.000    7.636 
#    0.000    0.000    0.000    0.000    0.000    0.000 
#
# Total GULP energy -545270.241308 kJ/mol
# GULP energy per Si atom -12392.505484 kJ/mol
# Density = 1.853517 g / cm^3
# Si number density = 18.577449 Si / 1000 Ang^3
#
#
#
# Elastic Constant Matrix: (Units=GPa)
#
#
# Indices 1 2 3 4 5 6 
#
# 1 97.9933 35.2382 38.8519 0.0000 0.0000 0.0000
# 2 35.2382 70.0115 36.3650 0.0000 0.0000 0.0000
# 3 38.8519 36.3650 102.6037 0.0000 0.0000 0.0000
# 4 0.0000 0.0000 0.0000 27.6710 0.0000 0.0000
# 5 0.0000 0.0000 0.0000 0.0000 19.1554 0.0000
# 6 0.0000 0.0000 0.0000 0.0000 0.0000 31.7999
#
#
#
# Elastic Compliance Matrix: (Units=1/GPa)
#
#
# Indices 1 2 3 4 5 6 
#
# 1 0.013296 -0.004997 -0.003264 0.000000 0.000000 0.000000
# 2 -0.004997 0.019384 -0.004978 0.000000 0.000000 0.000000
# 3 -0.003264 -0.004978 0.012746 0.000000 0.000000 0.000000
# 4 0.000000 0.000000 0.000000 0.036139 0.000000 0.000000
# 5 0.000000 0.000000 0.000000 0.000000 0.052205 0.000000
# 6 0.000000 0.000000 0.000000 0.000000 0.000000 0.031447
#
#
# Mechanical properties :
#
#
# Convention : Reuss Voigt Hill
#
# Bulk Modulus (GPa) = 52.77269 54.61318 53.69293
# Shear Modulus (GPa) = 25.25137 26.40216 25.82677
#
# Velocity S-wave (km/s) = 3.69080 3.77396 3.73261
# Velocity P-wave (km/s) = 6.82870 6.96073 6.89503
#
# Compressibility (1/GPa) = 0.01894919
#
# Stress axis : x y z
#
# Youngs Moduli (GPa) = 75.21338 51.58898 78.45405
#
# Poissons Ratio (x) = 0.25778 0.25604
# Poissons Ratio (y) = 0.37582 0.39055
# Poissons Ratio (z) = 0.24546 0.25681
#
# Static dielectric constant tensor:
#      x y z
#    x 3.394860 0.000000 0.000000 
#    y 0.000000 3.426730 0.000000 
#    z 0.000000 0.000000 0.417920 
# 
# 
# High freq. dielectric constant tensor:
#      x y z
#    x 1.724250 0.000000 0.000000 
#    y 0.000000 1.714360 0.000000 
#    z 0.000000 0.000000 1.722980 
# 
# From -- ./inp_files/22003.got.cif
#   From: 2010.06.25/outbox.cif.g09.slc.cpg/sg71_12_cif.got.tgz:22003.got - 2010.06.28 04:59:45.
