data_PCOD8290320
_publ_section_title
;
Structure prediction by ZEFSAII (Michael W. Deem and Ramdas Pophale) SiO2 
 PCOD8290320
Probable space group: I M M M
;
_chemical_formula_sum "Si O2"
_cell_formula_units_Z 88
_cell_length_a 27.310223
_cell_length_b 10.370253
_cell_length_c 15.314476
_cell_angle_alpha 90.000000
_cell_angle_beta 90.000000
_cell_angle_gamma 90.000000
_cell_volume 4337.272811
_symmetry_space_group_name_H-M "I M M M"
_symmetry_group_IT_number 71
_symmetry_cell_setting 'orthorhombic'
loop_
_space_group_symop_operation_xyz
x,y,z
-x,-y,z
x,-y,-z
-x,y,-z
-x,-y,-z
x,y,-z
-x,y,z
x,-y,z
1/2+x,1/2+y,1/2+z
1/2-x,1/2-y,1/2+z
1/2+x,1/2-y,1/2-z
1/2-x,1/2+y,1/2-z
1/2-x,1/2-y,1/2-z
1/2+x,1/2+y,1/2-z
1/2-x,1/2+y,1/2+z
1/2+x,1/2-y,1/2+z
loop_
_atom_site_type_symbol
_atom_site_label
_atom_site_fract_x
_atom_site_fract_y
_atom_site_fract_z
Si Si1 0.557108 0.000000 0.098454
Si Si2 0.193487 0.855278 0.155505
Si Si3 0.882855 0.353999 0.902039
Si Si4 0.798647 0.641753 0.598242
Si Si5 0.141824 0.860610 0.332958
Si Si6 0.942750 0.281691 0.264223
O O1 0.571083 0.877946 0.157265
O O2 0.500000 0.000000 0.081512
O O3 0.582243 0.000000 0.000000
O O4 0.161308 0.747442 0.106824
O O5 0.250560 0.817542 0.151678
O O6 0.181447 0.856295 0.256878
O O7 0.184537 0.000000 0.115844
O O8 0.862528 0.500000 0.889660
O O9 0.925490 0.331699 0.830641
O O10 0.904982 0.338151 0.000000
O O11 0.780335 0.634129 0.500000
O O12 0.818529 0.500000 0.628870
O O13 0.842723 0.744632 0.603628
O O14 0.087675 0.845038 0.290984
O O15 0.143023 0.000000 0.380856
O O16 0.000000 0.250426 0.258920
#
# Coordination Sequence:
#
# PCOD8290320 Si02
#       6
#     8  16  16  16  16  16
#     4   9  18  34  57  81 101 133 186 238 281 327
#     4   9  19  37  58  80 112 155 197 231 274 338
#     4  10  20  33  54  87 122 154 189 232 285 342
#     4  10  21  36  56  82 111 146 189 237 288 344
#     4  10  22  37  56  83 112 147 187 235 294 345
#     4  10  21  38  58  81 112 150 192 238 287 341
#
# _framework density 20.289247
#
# number of rings (size 3 to 8) (size 9 to 14) (size 15 to 20)
#    0.000    2.273    0.909    1.091    1.273    4.364 
#    0.000    0.909    0.000    0.000    0.000    8.909 
#    0.000    0.000    0.000    0.000    0.000    0.000 
#
# Total GULP energy -545162.619431 kJ/mol
# GULP energy per Si atom -12390.059533 kJ/mol
# Density = 2.024307 g / cm^3
# Si number density = 20.289247 Si / 1000 Ang^3
#
#
#
# Elastic Constant Matrix: (Units=GPa)
#
#
# Indices 1 2 3 4 5 6 
#
# 1 95.3571 69.0583 20.4832 0.0000 0.0000 0.0000
# 2 69.0583 131.1143 34.0655 0.0000 0.0000 0.0000
# 3 20.4832 34.0655 90.6524 0.0000 0.0000 0.0000
# 4 0.0000 0.0000 0.0000 21.8202 0.0000 0.0000
# 5 0.0000 0.0000 0.0000 0.0000 24.8612 0.0000
# 6 0.0000 0.0000 0.0000 0.0000 0.0000 20.2492
#
#
#
# Elastic Compliance Matrix: (Units=1/GPa)
#
#
# Indices 1 2 3 4 5 6 
#
# 1 0.016976 -0.008805 -0.000527 0.000000 0.000000 0.000000
# 2 -0.008805 0.013018 -0.002903 0.000000 0.000000 0.000000
# 3 -0.000527 -0.002903 0.012241 0.000000 0.000000 0.000000
# 4 0.000000 0.000000 0.000000 0.045829 0.000000 0.000000
# 5 0.000000 0.000000 0.000000 0.000000 0.040223 0.000000
# 6 0.000000 0.000000 0.000000 0.000000 0.000000 0.049385
#
#
# Mechanical properties :
#
#
# Convention : Reuss Voigt Hill
#
# Bulk Modulus (GPa) = 56.28430 62.70419 59.49425
# Shear Modulus (GPa) = 24.03099 26.28723 25.15911
#
# Velocity S-wave (km/s) = 3.44527 3.60338 3.52521
# Velocity P-wave (km/s) = 6.60513 6.94872 6.77910
#
# Compressibility (1/GPa) = 0.01776694
#
# Stress axis : x y z
#
# Youngs Moduli (GPa) = 58.90496 76.81389 81.69218
#
# Poissons Ratio (x) = 0.67631 0.04308
# Poissons Ratio (y) = 0.51863 0.23713
# Poissons Ratio (z) = 0.03106 0.22297
#
# Static dielectric constant tensor:
#      x y z
#    x 3.429570 0.000000 0.000000 
#    y 0.000000 3.935380 0.000000 
#    z 0.000000 0.000000 3.680090 
# 
# 
# High freq. dielectric constant tensor:
#      x y z
#    x 1.781940 0.000000 0.000000 
#    y 0.000000 1.795650 0.000000 
#    z 0.000000 0.000000 1.790160 
# 
# From -- ./inp_files/40162.got.cif
#   From: 2010.06.25/outbox.cif.g09.slc.cpg/sg71_21_cif.got.tgz:40162.got - 2010.06.28 04:59:45.
