data_PCOD8290839
_publ_section_title
;
Structure prediction by ZEFSAII (Michael W. Deem and Ramdas Pophale) SiO2 
 PCOD8290839
Probable space group: I M M M
;
_chemical_formula_sum "Si O2"
_cell_formula_units_Z 120
_cell_length_a 27.416424
_cell_length_b 9.434240
_cell_length_c 23.742494
_cell_angle_alpha 90.000000
_cell_angle_beta 90.000000
_cell_angle_gamma 90.000000
_cell_volume 6141.070244
_symmetry_space_group_name_H-M "I M M M"
_symmetry_group_IT_number 71
_symmetry_cell_setting 'orthorhombic'
loop_
_space_group_symop_operation_xyz
x,y,z
-x,-y,z
x,-y,-z
-x,y,-z
-x,-y,-z
x,y,-z
-x,y,z
x,-y,z
1/2+x,1/2+y,1/2+z
1/2-x,1/2-y,1/2+z
1/2+x,1/2-y,1/2-z
1/2-x,1/2+y,1/2-z
1/2-x,1/2-y,1/2-z
1/2+x,1/2+y,1/2-z
1/2-x,1/2+y,1/2+z
1/2+x,1/2-y,1/2+z
loop_
_atom_site_type_symbol
_atom_site_label
_atom_site_fract_x
_atom_site_fract_y
_atom_site_fract_z
Si Si1 0.442623 0.335967 0.264944
Si Si2 0.178474 0.163080 0.933278
Si Si3 0.053148 0.000000 0.565181
Si Si4 0.122678 0.255609 0.564201
Si Si5 0.111809 0.655922 0.681322
Si Si6 0.767874 0.845364 0.434889
Si Si7 0.798167 0.340474 0.248939
Si Si8 0.874884 0.664527 0.846348
O O1 0.500000 0.325511 0.272542
O O2 0.425292 0.500000 0.266560
O O3 0.427943 0.266964 0.204671
O O4 0.418628 0.245390 0.315003
O O5 0.230394 0.227440 0.912043
O O6 0.135066 0.253985 0.905039
O O7 0.176658 0.000000 0.913238
O O8 0.171626 0.173805 0.000000
O O9 0.084541 0.135374 0.580516
O O10 0.042548 0.000000 0.500000
O O11 0.000000 0.000000 0.596403
O O12 0.115570 0.314658 0.500000
O O13 0.111329 0.367230 0.613503
O O14 0.176840 0.200686 0.573520
O O15 0.101710 0.500000 0.708276
O O16 0.165203 0.709136 0.701309
O O17 0.756752 0.864178 0.500000
O O18 0.759398 0.000000 0.405658
O O19 0.781215 0.500000 0.259336
O O20 0.750000 0.250000 0.250000
O O21 0.825630 0.323441 0.189776
O O22 0.888979 0.500000 0.857471
#
# Coordination Sequence:
#
# PCOD8290839 Si02
#       8
#    16  16   8  16  16  16  16  16
#     4  10  22  41  66  92 114 144 191 243 295 351
#     4  10  21  35  54  85 124 164 202 239 281 335
#     4   9  18  34  54  76 104 140 186 242 296 346
#     4  10  20  35  55  80 112 151 194 243 298 355
#     4  10  23  39  55  82 116 149 192 240 292 352
#     4   9  17  31  50  73 107 151 198 240 283 337
#     4   9  20  37  53  75 107 147 190 234 285 338
#     4  10  21  38  60  88 119 154 195 236 291 352
#
# _framework density 19.540566999999999
#
# number of rings (size 3 to 8) (size 9 to 14) (size 15 to 20)
#    0.000    2.333    0.667    2.000    2.800    5.867 
#    0.000    1.333    0.000    0.400    0.000    5.600 
#    0.000    0.000    0.000    0.000    0.000    0.000 
#
# Total GULP energy -743527.643308 kJ/mol
# GULP energy per Si atom -12392.127388 kJ/mol
# Density = 1.949609 g / cm^3
# Si number density = 19.540567 Si / 1000 Ang^3
#
#
#
# Elastic Constant Matrix: (Units=GPa)
#
#
# Indices 1 2 3 4 5 6 
#
# 1 94.5729 59.4534 36.8242 0.0000 0.0000 0.0000
# 2 59.4534 138.1212 37.6774 0.0000 0.0000 0.0000
# 3 36.8242 37.6774 74.0774 0.0000 0.0000 0.0000
# 4 0.0000 0.0000 0.0000 26.9824 0.0000 0.0000
# 5 0.0000 0.0000 0.0000 0.0000 15.5975 0.0000
# 6 0.0000 0.0000 0.0000 0.0000 0.0000 26.9617
#
#
#
# Elastic Compliance Matrix: (Units=1/GPa)
#
#
# Indices 1 2 3 4 5 6 
#
# 1 0.016045 -0.005493 -0.005182 0.000000 0.000000 0.000000
# 2 -0.005493 0.010287 -0.002502 0.000000 0.000000 0.000000
# 3 -0.005182 -0.002502 0.017348 0.000000 0.000000 0.000000
# 4 0.000000 0.000000 0.000000 0.037061 0.000000 0.000000
# 5 0.000000 0.000000 0.000000 0.000000 0.064113 0.000000
# 6 0.000000 0.000000 0.000000 0.000000 0.000000 0.037090
#
#
# Mechanical properties :
#
#
# Convention : Reuss Voigt Hill
#
# Bulk Modulus (GPa) = 57.71581 63.85350 60.78466
# Shear Modulus (GPa) = 23.35672 25.42942 24.39307
#
# Velocity S-wave (km/s) = 3.46105 3.61136 3.53700
# Velocity P-wave (km/s) = 6.75073 7.08079 6.91773
#
# Compressibility (1/GPa) = 0.01732627
#
# Stress axis : x y z
#
# Youngs Moduli (GPa) = 62.32613 97.21275 57.64407
#
# Poissons Ratio (x) = 0.53396 0.29872
# Poissons Ratio (y) = 0.34234 0.14420
# Poissons Ratio (z) = 0.32298 0.24319
#
# Static dielectric constant tensor:
#      x y z
#    x 3.522470 0.000000 0.000000 
#    y 0.000000 3.839030 0.000000 
#    z 0.000000 0.000000 3.551690 
# 
# 
# High freq. dielectric constant tensor:
#      x y z
#    x 1.744190 0.000000 0.000000 
#    y 0.000000 1.767850 0.000000 
#    z 0.000000 0.000000 1.752590 
# 
# From -- ./inp_files/67143.got.cif
#   From: 2010.06.25/outbox.cif.g09.slc.cpg/sg71_34_cif.got.tgz:67143.got - 2010.06.28 04:59:45.
