data_PCOD8290002
_publ_section_title
;
Structure prediction by ZEFSAII (Michael W. Deem and Ramdas Pophale) SiO2 
 PCOD8290002
Probable space group: I M M M
;
_chemical_formula_sum "Si O2"
_cell_formula_units_Z 72
_cell_length_a 22.714801
_cell_length_b 18.492588
_cell_length_c 10.437746
_cell_angle_alpha 90.000000
_cell_angle_beta 90.000000
_cell_angle_gamma 90.000000
_cell_volume 4384.432160
_symmetry_space_group_name_H-M "I M M M"
_symmetry_group_IT_number 71
_symmetry_cell_setting 'orthorhombic'
loop_
_space_group_symop_operation_xyz
x,y,z
-x,-y,z
x,-y,-z
-x,y,-z
-x,-y,-z
x,y,-z
-x,y,z
x,-y,z
1/2+x,1/2+y,1/2+z
1/2-x,1/2-y,1/2+z
1/2+x,1/2-y,1/2-z
1/2-x,1/2+y,1/2-z
1/2-x,1/2-y,1/2-z
1/2+x,1/2+y,1/2-z
1/2-x,1/2+y,1/2+z
1/2+x,1/2-y,1/2+z
loop_
_atom_site_type_symbol
_atom_site_label
_atom_site_fract_x
_atom_site_fract_y
_atom_site_fract_z
Si Si1 0.430080 0.082376 0.000000
Si Si2 0.258571 0.000000 0.348557
Si Si3 0.217756 0.845911 0.647357
Si Si4 0.567375 0.145263 0.737515
Si Si5 0.387293 0.000000 0.356678
Si Si6 0.666389 0.246502 0.645031
O O1 0.408156 0.129114 0.879840
O O2 0.500000 0.075477 0.000000
O O3 0.404122 0.000000 0.000000
O O4 0.222337 0.928942 0.307191
O O5 0.264314 0.000000 0.500000
O O6 0.323949 0.000000 0.282607
O O7 0.194716 0.838058 0.500000
O O8 0.282549 0.812406 0.659375
O O9 0.173462 0.808619 0.747889
O O10 0.500000 0.171491 0.736864
O O11 0.572231 0.069215 0.666008
O O12 0.604585 0.207393 0.669534
O O13 0.366069 0.000000 0.500000
O O14 0.666370 0.278744 0.500000
#
# Coordination Sequence:
#
# PCOD8290002 Si02
#       6
#     8   8  16  16   8  16
#     4   9  18  32  44  62  94 133 173 207 232 272
#     4   9  16  31  52  72  94 126 168 209 244 288
#     4   9  18  33  52  70  95 130 166 205 251 293
#     4  11  21  32  48  69 100 138 171 202 241 290
#     4  11  19  29  45  70 102 134 168 201 235 285
#     4  10  20  33  48  72 102 129 164 208 246 289
#
# _framework density 16.421738999999999
#
# number of rings (size 3 to 8) (size 9 to 14) (size 15 to 20)
#    0.000    2.111    3.333    1.000    1.556    2.222 
#    0.000    0.556    2.444    0.000    0.000    0.778 
#    0.000    4.444    0.000    0.000    0.000    0.000 
#
# Total GULP energy -446203.338442 kJ/mol
# GULP energy per Si atom -12394.537179 kJ/mol
# Density = 1.638436 g / cm^3
# Si number density = 16.421739 Si / 1000 Ang^3
#
#
#
# Elastic Constant Matrix: (Units=GPa)
#
#
# Indices 1 2 3 4 5 6 
#
# 1 58.7281 29.0092 30.1941 0.0000 0.0000 0.0000
# 2 29.0092 84.4614 42.2803 0.0000 0.0000 0.0000
# 3 30.1941 42.2803 99.3383 0.0000 0.0000 0.0000
# 4 0.0000 0.0000 0.0000 19.7548 0.0000 0.0000
# 5 0.0000 0.0000 0.0000 0.0000 20.3773 0.0000
# 6 0.0000 0.0000 0.0000 0.0000 0.0000 64.7108
#
#
#
# Elastic Compliance Matrix: (Units=1/GPa)
#
#
# Indices 1 2 3 4 5 6 
#
# 1 0.021919 -0.005329 -0.004394 0.000000 0.000000 0.000000
# 2 -0.005329 0.016341 -0.005335 0.000000 0.000000 0.000000
# 3 -0.004394 -0.005335 0.013673 0.000000 0.000000 0.000000
# 4 0.000000 0.000000 0.000000 0.050620 0.000000 0.000000
# 5 0.000000 0.000000 0.000000 0.000000 0.049074 0.000000
# 6 0.000000 0.000000 0.000000 0.000000 0.000000 0.015453
#
#
# Mechanical properties :
#
#
# Convention : Reuss Voigt Hill
#
# Bulk Modulus (GPa) = 45.83725 49.49944 47.66834
# Shear Modulus (GPa) = 24.45355 30.37155 27.41255
#
# Velocity S-wave (km/s) = 3.86307 4.30521 4.09012
# Velocity P-wave (km/s) = 6.91888 7.41089 7.16910
#
# Compressibility (1/GPa) = 0.02181632
#
# Stress axis : x y z
#
# Youngs Moduli (GPa) = 45.62250 61.19716 73.13645
#
# Poissons Ratio (x) = 0.32609 0.32139
# Poissons Ratio (y) = 0.24310 0.39020
# Poissons Ratio (z) = 0.20048 0.32650
#
# Static dielectric constant tensor:
#      x y z
#    x 2.778700 0.000000 0.000000 
#    y 0.000000 3.054230 0.000000 
#    z 0.000000 0.000000 3.381960 
# 
# 
# High freq. dielectric constant tensor:
#      x y z
#    x 1.599220 0.000000 0.000000 
#    y 0.000000 1.609360 0.000000 
#    z 0.000000 0.000000 1.639030 
# 
# From -- ./inp_files/23773.got.cif
#   From: 2010.06.25/outbox.cif.g09.slc.cpg/sg71_12_cif.got.tgz:23773.got - 2010.06.28 04:59:45.
