data_PCOD8290714
_publ_section_title
;
Structure prediction by ZEFSAII (Michael W. Deem and Ramdas Pophale) SiO2 
 PCOD8290714
Probable space group: I M M M
;
_chemical_formula_sum "Si O2"
_cell_formula_units_Z 72
_cell_length_a 24.049121
_cell_length_b 9.137421
_cell_length_c 17.113261
_cell_angle_alpha 90.000000
_cell_angle_beta 90.000000
_cell_angle_gamma 90.000000
_cell_volume 3760.586794
_symmetry_space_group_name_H-M "I M M M"
_symmetry_group_IT_number 71
_symmetry_cell_setting 'orthorhombic'
loop_
_space_group_symop_operation_xyz
x,y,z
-x,-y,z
x,-y,-z
-x,y,-z
-x,-y,-z
x,y,-z
-x,y,z
x,-y,z
1/2+x,1/2+y,1/2+z
1/2-x,1/2-y,1/2+z
1/2+x,1/2-y,1/2-z
1/2-x,1/2+y,1/2-z
1/2-x,1/2-y,1/2-z
1/2+x,1/2+y,1/2-z
1/2-x,1/2+y,1/2+z
1/2+x,1/2-y,1/2+z
loop_
_atom_site_type_symbol
_atom_site_label
_atom_site_fract_x
_atom_site_fract_y
_atom_site_fract_z
Si Si1 0.638189 0.169640 0.370440
Si Si2 0.565550 0.326087 0.500000
Si Si3 0.861992 0.330884 0.689095
Si Si4 0.565219 0.661085 0.086015
Si Si5 0.757590 0.171577 0.667917
O O1 0.596879 0.265202 0.423290
O O2 0.630330 0.212044 0.279766
O O3 0.704053 0.200418 0.388653
O O4 0.623773 0.000000 0.386127
O O5 0.570846 0.500000 0.500000
O O6 0.500000 0.279917 0.500000
O O7 0.847457 0.500000 0.681629
O O8 0.918635 0.287768 0.646699
O O9 0.815385 0.240797 0.638714
O O10 0.500000 0.661132 0.081612
O O11 0.586146 0.500000 0.113708
O O12 0.589611 0.695500 0.000000
O O13 0.750000 0.250000 0.750000
O O14 0.763719 0.000000 0.682413
#
# Coordination Sequence:
#
# PCOD8290714 Si02
#       5
#    16   8  16  16  16
#     4   9  20  38  58  80 108 145 184 224 276 334
#     4  11  25  41  57  81 111 145 190 241 286 329
#     4  10  20  34  56  86 114 144 185 228 277 336
#     4   9  19  36  55  76 107 147 186 225 273 325
#     4   9  17  32  55  82 110 140 175 220 273 329
#
# _framework density 19.145948000000001
#
# number of rings (size 3 to 8) (size 9 to 14) (size 15 to 20)
#    0.000    2.556    0.000    3.667    0.000    8.000 
#    2.000    5.556    0.000    0.000    0.000    0.000 
#    0.000    0.000    0.000    0.000    0.000    0.000 
#
# Total GULP energy -445973.333495 kJ/mol
# GULP energy per Si atom -12388.148153 kJ/mol
# Density = 1.910237 g / cm^3
# Si number density = 19.145948 Si / 1000 Ang^3
#
#
#
# Elastic Constant Matrix: (Units=GPa)
#
#
# Indices 1 2 3 4 5 6 
#
# 1 100.0587 63.3352 60.8705 0.0000 0.0000 0.0000
# 2 63.3352 106.6216 56.5201 0.0000 0.0000 0.0000
# 3 60.8705 56.5201 84.7778 0.0000 0.0000 0.0000
# 4 0.0000 0.0000 0.0000 29.5794 0.0000 0.0000
# 5 0.0000 0.0000 0.0000 0.0000 30.9641 0.0000
# 6 0.0000 0.0000 0.0000 0.0000 0.0000 36.0438
#
#
#
# Elastic Compliance Matrix: (Units=1/GPa)
#
#
# Indices 1 2 3 4 5 6 
#
# 1 0.020473 -0.006757 -0.010195 0.000000 0.000000 0.000000
# 2 -0.006757 0.016736 -0.006306 0.000000 0.000000 0.000000
# 3 -0.010195 -0.006306 0.023319 0.000000 0.000000 0.000000
# 4 0.000000 0.000000 0.000000 0.033807 0.000000 0.000000
# 5 0.000000 0.000000 0.000000 0.000000 0.032295 0.000000
# 6 0.000000 0.000000 0.000000 0.000000 0.000000 0.027744
#
#
# Mechanical properties :
#
#
# Convention : Reuss Voigt Hill
#
# Bulk Modulus (GPa) = 71.36399 72.54553 71.95476
# Shear Modulus (GPa) = 24.32361 26.69962 25.51161
#
# Velocity S-wave (km/s) = 3.56818 3.73839 3.65428
# Velocity P-wave (km/s) = 7.37092 7.52377 7.44774
#
# Compressibility (1/GPa) = 0.01401267
#
# Stress axis : x y z
#
# Youngs Moduli (GPa) = 48.84387 59.75322 42.88277
#
# Poissons Ratio (x) = 0.40377 0.43719
# Poissons Ratio (y) = 0.33005 0.27040
# Poissons Ratio (z) = 0.49796 0.37678
#
# Static dielectric constant tensor:
#      x y z
#    x 1.997370 0.000000 0.000000 
#    y 0.000000 3.625950 0.000000 
#    z 0.000000 0.000000 3.300380 
# 
# 
# High freq. dielectric constant tensor:
#      x y z
#    x 1.753090 0.000000 0.000000 
#    y 0.000000 1.747980 0.000000 
#    z 0.000000 0.000000 1.722730 
# 
# From -- ./inp_files/7963.got.cif
#   From: 2010.06.25/outbox.cif.g09.slc.cpg/sg71_4_cif.got.tgz:7963.got - 2010.06.28 04:59:45.
