data_PCOD8290270
_publ_section_title
;
Structure prediction by ZEFSAII (Michael W. Deem and Ramdas Pophale) SiO2 
 PCOD8290270
Probable space group: I M M M
;
_chemical_formula_sum "Si O2"
_cell_formula_units_Z 104
_cell_length_a 27.914852
_cell_length_b 8.904343
_cell_length_c 23.786269
_cell_angle_alpha 90.000000
_cell_angle_beta 90.000000
_cell_angle_gamma 90.000000
_cell_volume 5912.396300
_symmetry_space_group_name_H-M "I M M M"
_symmetry_group_IT_number 71
_symmetry_cell_setting 'orthorhombic'
loop_
_space_group_symop_operation_xyz
x,y,z
-x,-y,z
x,-y,-z
-x,y,-z
-x,-y,-z
x,y,-z
-x,y,z
x,-y,z
1/2+x,1/2+y,1/2+z
1/2-x,1/2-y,1/2+z
1/2+x,1/2-y,1/2-z
1/2-x,1/2+y,1/2-z
1/2-x,1/2-y,1/2-z
1/2+x,1/2+y,1/2-z
1/2-x,1/2+y,1/2+z
1/2+x,1/2-y,1/2+z
loop_
_atom_site_type_symbol
_atom_site_label
_atom_site_fract_x
_atom_site_fract_y
_atom_site_fract_z
Si Si1 0.944914 0.325408 0.147862
Si Si2 0.625751 0.671673 0.433730
Si Si3 0.411802 0.822805 0.873263
Si Si4 0.555984 0.674469 0.763291
Si Si5 0.826089 0.175748 0.565243
Si Si6 0.500000 0.328466 0.933447
Si Si7 0.719382 0.165759 0.433339
O O1 0.936664 0.500000 0.159491
O O2 0.914336 0.273675 0.094699
O O3 0.928076 0.234729 0.202654
O O4 0.000000 0.289756 0.133734
O O5 0.620972 0.697257 0.500000
O O6 0.617479 0.500000 0.416693
O O7 0.678667 0.719576 0.412274
O O8 0.414232 0.763694 0.809755
O O9 0.360677 0.778106 0.898057
O O10 0.452810 0.750884 0.911216
O O11 0.418207 0.000000 0.873742
O O12 0.500000 0.705076 0.774009
O O13 0.568682 0.500000 0.766975
O O14 0.833203 0.216798 0.500000
O O15 0.772327 0.216390 0.586189
O O16 0.837038 0.000000 0.574934
O O17 0.500000 0.500000 0.911854
O O18 0.500000 0.319926 0.000000
O O19 0.720220 0.157518 0.500000
O O20 0.707498 0.000000 0.409238
#
# Coordination Sequence:
#
# PCOD8290270 Si02
#       7
#    16  16  16  16  16   8  16
#     4  10  21  36  55  79 107 137 173 216 257 301
#     4  10  20  33  52  80 112 143 173 207 252 307
#     4  12  23  33  50  75 104 135 172 219 265 313
#     4  10  20  36  57  75  97 133 177 217 258 310
#     4   9  18  33  52  74 102 137 176 216 261 314
#     4  11  23  37  51  69  99 139 178 217 266 319
#     4   8  15  30  52  75 100 134 175 215 254 302
#
# _framework density 17.590160000000001
#
# number of rings (size 3 to 8) (size 9 to 14) (size 15 to 20)
#    0.000    2.077    0.769    4.385    0.000    6.154 
#    0.000    3.077    0.000    0.923    0.000    0.000 
#    0.000    0.000    0.000    0.000    0.000    0.000 
#
# Total GULP energy -644894.004736 kJ/mol
# GULP energy per Si atom -12401.807783 kJ/mol
# Density = 1.755012 g / cm^3
# Si number density = 17.590160 Si / 1000 Ang^3
#
#
#
# Elastic Constant Matrix: (Units=GPa)
#
#
# Indices 1 2 3 4 5 6 
#
# 1 102.9952 53.6057 45.7679 0.0000 0.0000 0.0000
# 2 53.6057 112.4832 45.6734 0.0000 0.0000 0.0000
# 3 45.7679 45.6734 64.6526 0.0000 0.0000 0.0000
# 4 0.0000 0.0000 0.0000 28.1817 0.0000 0.0000
# 5 0.0000 0.0000 0.0000 0.0000 6.0185 0.0000
# 6 0.0000 0.0000 0.0000 0.0000 0.0000 27.5406
#
#
#
# Elastic Compliance Matrix: (Units=1/GPa)
#
#
# Indices 1 2 3 4 5 6 
#
# 1 0.015395 -0.004083 -0.008014 0.000000 0.000000 0.000000
# 2 -0.004083 0.013549 -0.006681 0.000000 0.000000 0.000000
# 3 -0.008014 -0.006681 0.025861 0.000000 0.000000 0.000000
# 4 0.000000 0.000000 0.000000 0.035484 0.000000 0.000000
# 5 0.000000 0.000000 0.000000 0.000000 0.166153 0.000000
# 6 0.000000 0.000000 0.000000 0.000000 0.000000 0.036310
#
#
# Mechanical properties :
#
#
# Convention : Reuss Voigt Hill
#
# Bulk Modulus (GPa) = 57.97702 63.35834 60.66768
# Shear Modulus (GPa) = 14.87839 21.35378 18.11609
#
# Velocity S-wave (km/s) = 2.91148 3.48798 3.21269
# Velocity P-wave (km/s) = 6.65836 7.23317 6.95171
#
# Compressibility (1/GPa) = 0.01724821
#
# Stress axis : x y z
#
# Youngs Moduli (GPa) = 64.95432 73.80707 38.66898
#
# Poissons Ratio (x) = 0.30134 0.30990
# Poissons Ratio (y) = 0.26519 0.25836
# Poissons Ratio (z) = 0.52056 0.49312
#
# Static dielectric constant tensor:
#      x y z
#    x 3.380020 0.000000 0.000000 
#    y 0.000000 3.374090 0.000000 
#    z 0.000000 0.000000 3.086170 
# 
# 
# High freq. dielectric constant tensor:
#      x y z
#    x 1.677750 0.000000 0.000000 
#    y 0.000000 1.690030 0.000000 
#    z 0.000000 0.000000 1.659220 
# 
# From -- ./inp_files/61951.got.cif
#   From: 2010.06.25/outbox.cif.g09.slc.cpg/sg71_31_cif.got.tgz:61951.got - 2010.06.28 04:59:45.
