data_PCOD8290223
_publ_section_title
;
Structure prediction by ZEFSAII (Michael W. Deem and Ramdas Pophale) SiO2 
 PCOD8290223
Probable space group: I M M M
;
_chemical_formula_sum "Si O2"
_cell_formula_units_Z 80
_cell_length_a 22.335576
_cell_length_b 17.223381
_cell_length_c 11.417651
_cell_angle_alpha 90.000000
_cell_angle_beta 90.000000
_cell_angle_gamma 90.000000
_cell_volume 4392.303379
_symmetry_space_group_name_H-M "I M M M"
_symmetry_group_IT_number 71
_symmetry_cell_setting 'orthorhombic'
loop_
_space_group_symop_operation_xyz
x,y,z
-x,-y,z
x,-y,-z
-x,y,-z
-x,-y,-z
x,y,-z
-x,y,z
x,-y,z
1/2+x,1/2+y,1/2+z
1/2-x,1/2-y,1/2+z
1/2+x,1/2-y,1/2-z
1/2-x,1/2+y,1/2-z
1/2-x,1/2-y,1/2-z
1/2+x,1/2+y,1/2-z
1/2-x,1/2+y,1/2+z
1/2+x,1/2-y,1/2+z
loop_
_atom_site_type_symbol
_atom_site_label
_atom_site_fract_x
_atom_site_fract_y
_atom_site_fract_z
Si Si1 0.164222 0.298485 0.139950
Si Si2 0.000000 0.908575 0.638991
Si Si3 0.731115 0.586290 0.865071
Si Si4 0.119556 0.858552 0.762656
Si Si5 0.934161 0.910301 0.000000
Si Si6 0.934243 0.415099 0.138244
O O1 0.225137 0.343697 0.174075
O O2 0.152231 0.224536 0.221861
O O3 0.112452 0.354448 0.186356
O O4 0.160983 0.280284 0.000000
O O5 0.058505 0.862962 0.686682
O O6 0.000000 0.903443 0.500000
O O7 0.000000 0.000000 0.679744
O O8 0.760146 0.500000 0.846329
O O9 0.669024 0.586848 0.795388
O O10 0.715051 0.598652 0.000000
O O11 0.105115 0.887636 0.890645
O O12 0.000000 0.868589 0.000000
O O13 0.946647 0.000000 0.000000
O O14 0.922452 0.500000 0.193592
O O15 0.000000 0.385092 0.173294
O O16 0.927698 0.421912 0.000000
#
# Coordination Sequence:
#
# PCOD8290223 Si02
#       6
#    16   8  16  16   8  16
#     4  10  20  33  51  81 115 146 179 226 282 334
#     4  11  24  41  61  83 108 144 190 234 275 326
#     4  10  21  38  59  79 107 149 193 235 278 325
#     4  12  22  36  56  84 114 144 186 229 280 335
#     4  11  22  36  54  80 115 151 182 220 274 341
#     4   8  14  25  44  70 104 142 178 217 265 322
#
# _framework density 18.213678999999999
#
# number of rings (size 3 to 8) (size 9 to 14) (size 15 to 20)
#    0.000    1.800    2.000    4.200    1.400    4.000 
#    0.000    0.000    0.000    0.000    0.000    0.000 
#    0.000    3.200    0.000    0.000    0.000    0.000 
#
# Total GULP energy -495610.878886 kJ/mol
# GULP energy per Si atom -12390.271972 kJ/mol
# Density = 1.817222 g / cm^3
# Si number density = 18.213679 Si / 1000 Ang^3
#
#
#
# Elastic Constant Matrix: (Units=GPa)
#
#
# Indices 1 2 3 4 5 6 
#
# 1 120.8151 51.1511 42.3846 0.0000 0.0000 0.0000
# 2 51.1511 95.4329 32.4807 0.0000 0.0000 0.0000
# 3 42.3846 32.4807 69.8959 0.0000 0.0000 0.0000
# 4 0.0000 0.0000 0.0000 22.6360 0.0000 0.0000
# 5 0.0000 0.0000 0.0000 0.0000 33.0753 0.0000
# 6 0.0000 0.0000 0.0000 0.0000 0.0000 33.6058
#
#
#
# Elastic Compliance Matrix: (Units=1/GPa)
#
#
# Indices 1 2 3 4 5 6 
#
# 1 0.012078 -0.004729 -0.005126 0.000000 0.000000 0.000000
# 2 -0.004729 0.014299 -0.003777 0.000000 0.000000 0.000000
# 3 -0.005126 -0.003777 0.019171 0.000000 0.000000 0.000000
# 4 0.000000 0.000000 0.000000 0.044177 0.000000 0.000000
# 5 0.000000 0.000000 0.000000 0.000000 0.030234 0.000000
# 6 0.000000 0.000000 0.000000 0.000000 0.000000 0.029757
#
#
# Mechanical properties :
#
#
# Convention : Reuss Voigt Hill
#
# Bulk Modulus (GPa) = 54.69661 59.79742 57.24702
# Shear Modulus (GPa) = 27.31136 28.53859 27.92497
#
# Velocity S-wave (km/s) = 3.87654 3.96267 3.91984
# Velocity P-wave (km/s) = 7.08042 7.33753 7.21012
#
# Compressibility (1/GPa) = 0.01828267
#
# Stress axis : x y z
#
# Youngs Moduli (GPa) = 82.79780 69.93664 52.16255
#
# Poissons Ratio (x) = 0.33071 0.26741
# Poissons Ratio (y) = 0.39153 0.19702
# Poissons Ratio (z) = 0.42445 0.26416
#
# Static dielectric constant tensor:
#      x y z
#    x 3.545640 0.000000 0.000000 
#    y 0.000000 3.947200 0.000000 
#    z 0.000000 0.000000 3.060930 
# 
# 
# High freq. dielectric constant tensor:
#      x y z
#    x 1.720960 0.000000 0.000000 
#    y 0.000000 1.712150 0.000000 
#    z 0.000000 0.000000 1.666550 
# 
# From -- ./inp_files/25581.got.cif
#   From: 2010.06.25/outbox.cif.g09.slc.cpg/sg71_13_cif.got.tgz:25581.got - 2010.06.28 04:59:45.
