data_PCOD8290243
_publ_section_title
;
Structure prediction by ZEFSAII (Michael W. Deem and Ramdas Pophale) SiO2 
 PCOD8290243
Probable space group: I M M M
;
_chemical_formula_sum "Si O2"
_cell_formula_units_Z 104
_cell_length_a 23.276326
_cell_length_b 27.429773
_cell_length_c 8.354234
_cell_angle_alpha 90.000000
_cell_angle_beta 90.000000
_cell_angle_gamma 90.000000
_cell_volume 5333.880484
_symmetry_space_group_name_H-M "I M M M"
_symmetry_group_IT_number 71
_symmetry_cell_setting 'orthorhombic'
loop_
_space_group_symop_operation_xyz
x,y,z
-x,-y,z
x,-y,-z
-x,y,-z
-x,-y,-z
x,y,-z
-x,y,z
x,-y,z
1/2+x,1/2+y,1/2+z
1/2-x,1/2-y,1/2+z
1/2+x,1/2-y,1/2-z
1/2-x,1/2+y,1/2-z
1/2-x,1/2-y,1/2-z
1/2+x,1/2+y,1/2-z
1/2-x,1/2+y,1/2+z
1/2+x,1/2-y,1/2+z
loop_
_atom_site_type_symbol
_atom_site_label
_atom_site_fract_x
_atom_site_fract_y
_atom_site_fract_z
Si Si1 0.931659 0.945235 0.000000
Si Si2 0.331047 0.944696 0.188294
Si Si3 0.067721 0.895653 0.323122
Si Si4 0.758134 0.640754 0.810250
Si Si5 0.362608 0.202974 0.312887
Si Si6 0.855673 0.808270 0.319922
Si Si7 0.563973 0.884340 0.310132
O O1 0.906719 0.922947 0.833495
O O2 0.000000 0.940364 0.000000
O O3 0.910148 0.000000 0.000000
O O4 0.276646 0.911865 0.241899
O O5 0.391602 0.925898 0.257472
O O6 0.320876 0.000000 0.249236
O O7 0.335771 0.942994 0.000000
O O8 0.088427 0.916406 0.500000
O O9 0.086419 0.839592 0.310889
O O10 0.000000 0.898363 0.316686
O O11 0.802552 0.681710 0.747006
O O12 0.696057 0.658898 0.746202
O O13 0.757345 0.635345 0.000000
O O14 0.362055 0.196910 0.500000
O O15 0.369449 0.259271 0.273440
O O16 0.414265 0.168842 0.246382
O O17 0.839021 0.793453 0.500000
O O18 0.561407 0.884716 0.500000
O O19 0.500000 0.893974 0.239504
#
# Coordination Sequence:
#
# PCOD8290243 Si02
#       7
#     8  16  16  16  16  16  16
#     4   9  18  34  56  78 100 134 176 212 258 318
#     4  10  21  36  54  78 107 138 175 224 281 328
#     4   9  19  35  53  78 111 140 174 222 270 324
#     4   9  19  36  54  74 102 137 181 224 262 318
#     4   9  18  31  50  76 104 138 176 217 264 311
#     4  10  20  33  52  77 106 141 178 216 267 325
#     4   9  19  36  55  78 109 143 183 223 259 314
#
# _framework density 19.497999
#
# number of rings (size 3 to 8) (size 9 to 14) (size 15 to 20)
#    0.000    2.692    0.000    1.846    1.077    5.846 
#    0.000    3.846    0.000    2.769    0.000    0.000 
#    0.000    0.000    0.000    0.000    0.000    0.000 
#
# Total GULP energy -644310.080366 kJ/mol
# GULP energy per Si atom -12390.578469 kJ/mol
# Density = 1.945362 g / cm^3
# Si number density = 19.497999 Si / 1000 Ang^3
#
#
#
# Elastic Constant Matrix: (Units=GPa)
#
#
# Indices 1 2 3 4 5 6 
#
# 1 8.0082 13.3481 16.2646 0.0000 0.0000 0.0000
# 2 13.3481 125.3746 34.2371 0.0000 0.0000 0.0000
# 3 16.2646 34.2371 63.9273 0.0000 0.0000 0.0000
# 4 0.0000 0.0000 0.0000 29.4316 0.0000 0.0000
# 5 0.0000 0.0000 0.0000 0.0000 15.1254 0.0000
# 6 0.0000 0.0000 0.0000 0.0000 0.0000 20.1211
#
#
#
# Elastic Compliance Matrix: (Units=1/GPa)
#
#
# Indices 1 2 3 4 5 6 
#
# 1 0.272536 -0.011807 -0.063016 0.000000 0.000000 0.000000
# 2 -0.011807 0.009854 -0.002273 0.000000 0.000000 0.000000
# 3 -0.063016 -0.002273 0.032893 0.000000 0.000000 0.000000
# 4 0.000000 0.000000 0.000000 0.033977 0.000000 0.000000
# 5 0.000000 0.000000 0.000000 0.000000 0.066114 0.000000
# 6 0.000000 0.000000 0.000000 0.000000 0.000000 0.049699
#
#
# Mechanical properties :
#
#
# Convention : Reuss Voigt Hill
#
# Bulk Modulus (GPa) = 6.20773 36.11218 21.15995
# Shear Modulus (GPa) = 7.42983 21.83296 14.63140
#
# Velocity S-wave (km/s) = 1.95418 3.34990 2.74232
# Velocity P-wave (km/s) = 2.87793 5.78996 4.57199
#
# Compressibility (1/GPa) = 0.16108961
#
# Stress axis : x y z
#
# Youngs Moduli (GPa) = 3.66924 101.48176 30.40160
#
# Poissons Ratio (x) = 1.19823 1.91578
# Poissons Ratio (y) = 0.04332 0.06911
# Poissons Ratio (z) = 0.23122 0.23071
#
# Static dielectric constant tensor:
#      x y z
#    x 3.888160 0.000000 0.000000 
#    y 0.000000 3.578240 0.000000 
#    z 0.000000 0.000000 3.667390 
# 
# 
# High freq. dielectric constant tensor:
#      x y z
#    x 1.748030 0.000000 0.000000 
#    y 0.000000 1.753730 0.000000 
#    z 0.000000 0.000000 1.755590 
# 
# From -- ./inp_files/13296.got.cif
#   From: 2010.06.25/outbox.cif.g09.slc.cpg/sg71_7_cif.got.tgz:13296.got - 2010.06.28 04:59:45.
