data_PCOD8290821
_publ_section_title
;
Structure prediction by ZEFSAII (Michael W. Deem and Ramdas Pophale) SiO2 
 PCOD8290821
Probable space group: I M M M
;
_chemical_formula_sum "Si O2"
_cell_formula_units_Z 88
_cell_length_a 25.474722
_cell_length_b 8.761887
_cell_length_c 20.701728
_cell_angle_alpha 90.000000
_cell_angle_beta 90.000000
_cell_angle_gamma 90.000000
_cell_volume 4620.763056
_symmetry_space_group_name_H-M "I M M M"
_symmetry_group_IT_number 71
_symmetry_cell_setting 'orthorhombic'
loop_
_space_group_symop_operation_xyz
x,y,z
-x,-y,z
x,-y,-z
-x,y,-z
-x,-y,-z
x,y,-z
-x,y,z
x,-y,z
1/2+x,1/2+y,1/2+z
1/2-x,1/2-y,1/2+z
1/2+x,1/2-y,1/2-z
1/2-x,1/2+y,1/2-z
1/2-x,1/2-y,1/2-z
1/2+x,1/2+y,1/2-z
1/2-x,1/2+y,1/2+z
1/2+x,1/2-y,1/2+z
loop_
_atom_site_type_symbol
_atom_site_label
_atom_site_fract_x
_atom_site_fract_y
_atom_site_fract_z
Si Si1 0.500000 0.681742 0.132420
Si Si2 0.000000 0.819503 0.220825
Si Si3 0.891505 0.181398 0.426876
Si Si4 0.938297 0.329892 0.000000
Si Si5 0.190878 0.173171 0.816258
Si Si6 0.701716 0.675115 0.834327
Si Si7 0.589999 0.179125 0.363196
O O1 0.500000 0.500000 0.129732
O O2 0.500000 0.740380 0.205857
O O3 0.552273 0.745949 0.097237
O O4 0.052448 0.760697 0.187427
O O5 0.000000 0.000000 0.218469
O O6 0.881182 0.238867 0.500000
O O7 0.844737 0.239620 0.380108
O O8 0.893151 0.000000 0.424043
O O9 0.919173 0.248282 0.065557
O O10 0.914422 0.500000 0.000000
O O11 0.000000 0.333562 0.000000
O O12 0.247363 0.220443 0.844143
O O13 0.184594 0.188585 0.739649
O O14 0.149892 0.290172 0.846285
O O15 0.179499 0.000000 0.837907
O O16 0.715194 0.500000 0.851895
O O17 0.577036 0.000000 0.362395
#
# Coordination Sequence:
#
# PCOD8290821 Si02
#       7
#     8   8  16   8  16  16  16
#     4   9  17  29  47  76 112 142 167 208 262 310
#     4  11  21  33  52  80 113 142 171 216 266 313
#     4   9  16  28  49  76 105 138 177 216 255 304
#     4   9  18  36  56  74 102 138 176 215 260 313
#     4  10  20  35  55  79 107 138 175 222 271 317
#     4   9  18  34  54  77 107 142 179 219 264 315
#     4  11  21  36  57  79 104 138 179 221 264 318
#
# _framework density 19.044474000000001
#
# number of rings (size 3 to 8) (size 9 to 14) (size 15 to 20)
#    0.000    2.273    0.909    2.727    0.000    4.727 
#    1.636    2.273    0.000    0.000    0.000    0.000 
#    0.000    5.818    0.000    0.000    0.000    0.000 
#
# Total GULP energy -545545.678357 kJ/mol
# GULP energy per Si atom -12398.765417 kJ/mol
# Density = 1.900113 g / cm^3
# Si number density = 19.044474 Si / 1000 Ang^3
#
#
#
# Elastic Constant Matrix: (Units=GPa)
#
#
# Indices 1 2 3 4 5 6 
#
# 1 136.4047 21.3070 78.0029 0.0000 0.0000 0.0000
# 2 21.3070 39.6727 24.0692 0.0000 0.0000 0.0000
# 3 78.0029 24.0692 133.6453 0.0000 0.0000 0.0000
# 4 0.0000 0.0000 0.0000 15.3957 0.0000 0.0000
# 5 0.0000 0.0000 0.0000 0.0000 23.0009 0.0000
# 6 0.0000 0.0000 0.0000 0.0000 0.0000 29.2256
#
#
#
# Elastic Compliance Matrix: (Units=1/GPa)
#
#
# Indices 1 2 3 4 5 6 
#
# 1 0.011187 -0.002298 -0.006116 0.000000 0.000000 0.000000
# 2 -0.002298 0.028770 -0.003840 0.000000 0.000000 0.000000
# 3 -0.006116 -0.003840 0.011744 0.000000 0.000000 0.000000
# 4 0.000000 0.000000 0.000000 0.064953 0.000000 0.000000
# 5 0.000000 0.000000 0.000000 0.000000 0.043476 0.000000
# 6 0.000000 0.000000 0.000000 0.000000 0.000000 0.034217
#
#
# Mechanical properties :
#
#
# Convention : Reuss Voigt Hill
#
# Bulk Modulus (GPa) = 36.77370 61.83120 49.30245
# Shear Modulus (GPa) = 21.93753 25.94734 23.94244
#
# Velocity S-wave (km/s) = 3.39766 3.69516 3.54953
# Velocity P-wave (km/s) = 5.89436 7.12340 6.53782
#
# Compressibility (1/GPa) = 0.02719334
#
# Stress axis : x y z
#
# Youngs Moduli (GPa) = 89.38680 34.75811 85.15304
#
# Poissons Ratio (x) = 0.07988 0.52077
# Poissons Ratio (y) = 0.20541 0.32700
# Poissons Ratio (z) = 0.54666 0.13348
#
# Static dielectric constant tensor:
#      x y z
#    x 3.547560 0.000000 0.000000 
#    y 0.000000 3.162660 0.000000 
#    z 0.000000 0.000000 3.494390 
# 
# 
# High freq. dielectric constant tensor:
#      x y z
#    x 1.749340 0.000000 0.000000 
#    y 0.000000 1.702990 0.000000 
#    z 0.000000 0.000000 1.745380 
# 
# From -- ./inp_files/55630.got.cif
#   From: 2010.06.25/outbox.cif.g09.slc.cpg/sg71_28_cif.got.tgz:55630.got - 2010.06.28 04:59:45.
