data_PCOD8290237
_publ_section_title
;
Structure prediction by ZEFSAII (Michael W. Deem and Ramdas Pophale) SiO2 
 PCOD8290237
Probable space group: I M M M
;
_chemical_formula_sum "Si O2"
_cell_formula_units_Z 104
_cell_length_a 27.336699
_cell_length_b 8.248680
_cell_length_c 23.681988
_cell_angle_alpha 90.000000
_cell_angle_beta 90.000000
_cell_angle_gamma 90.000000
_cell_volume 5340.091315
_symmetry_space_group_name_H-M "I M M M"
_symmetry_group_IT_number 71
_symmetry_cell_setting 'orthorhombic'
loop_
_space_group_symop_operation_xyz
x,y,z
-x,-y,z
x,-y,-z
-x,y,-z
-x,-y,-z
x,y,-z
-x,y,z
x,-y,z
1/2+x,1/2+y,1/2+z
1/2-x,1/2-y,1/2+z
1/2+x,1/2-y,1/2-z
1/2-x,1/2+y,1/2-z
1/2-x,1/2-y,1/2-z
1/2+x,1/2+y,1/2-z
1/2-x,1/2+y,1/2+z
1/2+x,1/2-y,1/2+z
loop_
_atom_site_type_symbol
_atom_site_label
_atom_site_fract_x
_atom_site_fract_y
_atom_site_fract_z
Si Si1 0.553927 0.000000 0.932936
Si Si2 0.184421 0.817445 0.341253
Si Si3 0.554743 0.689927 0.657186
Si Si4 0.371077 0.308595 0.563295
Si Si5 0.109911 0.819495 0.565386
Si Si6 0.707818 0.191579 0.642625
Si Si7 0.632210 0.187599 0.735964
O O1 0.577973 0.831535 0.911480
O O2 0.500000 0.000000 0.906913
O O3 0.552577 0.000000 0.000000
O O4 0.161638 0.813436 0.403434
O O5 0.237901 0.735337 0.347093
O O6 0.147479 0.723588 0.299924
O O7 0.189501 0.000000 0.317977
O O8 0.500000 0.766734 0.657263
O O9 0.550125 0.500000 0.649172
O O10 0.586813 0.763440 0.605044
O O11 0.582021 0.725011 0.716692
O O12 0.378011 0.237375 0.500000
O O13 0.375370 0.500000 0.561643
O O14 0.317314 0.261329 0.586182
O O15 0.121326 0.793979 0.500000
O O16 0.085458 0.000000 0.575459
O O17 0.676466 0.247619 0.696446
O O18 0.711397 0.000000 0.635932
O O19 0.622171 0.000000 0.728014
#
# Coordination Sequence:
#
# PCOD8290237 Si02
#       7
#     8  16  16  16  16  16  16
#     4   9  18  34  56  78 102 134 170 210 256 310
#     4  10  20  34  54  76 102 138 175 212 261 319
#     4   9  18  34  55  75 101 141 181 220 269 319
#     4   9  18  32  50  77 110 139 176 224 266 311
#     4   9  19  35  54  79 109 138 173 218 266 320
#     4   9  19  34  51  74 103 139 177 213 260 315
#     4  10  20  33  52  77 104 133 172 222 267 313
#
# _framework density 19.475321999999998
#
# number of rings (size 3 to 8) (size 9 to 14) (size 15 to 20)
#    0.000    2.692    0.000    0.923    1.077    3.077 
#    0.000    5.385    0.000    0.923    0.000    4.308 
#    0.000    0.000    0.000    0.000    0.000    0.000 
#
# Total GULP energy -644503.706324 kJ/mol
# GULP energy per Si atom -12394.302045 kJ/mol
# Density = 1.943099 g / cm^3
# Si number density = 19.475322 Si / 1000 Ang^3
#
#
#
# Elastic Constant Matrix: (Units=GPa)
#
#
# Indices 1 2 3 4 5 6 
#
# 1 140.8066 31.0700 63.7092 0.0000 0.0000 0.0000
# 2 31.0700 60.9825 17.9275 0.0000 0.0000 0.0000
# 3 63.7092 17.9275 91.0676 0.0000 0.0000 0.0000
# 4 0.0000 0.0000 0.0000 21.7580 0.0000 0.0000
# 5 0.0000 0.0000 0.0000 0.0000 20.2912 0.0000
# 6 0.0000 0.0000 0.0000 0.0000 0.0000 25.3390
#
#
#
# Elastic Compliance Matrix: (Units=1/GPa)
#
#
# Indices 1 2 3 4 5 6 
#
# 1 0.011079 -0.003573 -0.007047 0.000000 0.000000 0.000000
# 2 -0.003573 0.018558 -0.001154 0.000000 0.000000 0.000000
# 3 -0.007047 -0.001154 0.016138 0.000000 0.000000 0.000000
# 4 0.000000 0.000000 0.000000 0.045960 0.000000 0.000000
# 5 0.000000 0.000000 0.000000 0.000000 0.049282 0.000000
# 6 0.000000 0.000000 0.000000 0.000000 0.000000 0.039465
#
#
# Mechanical properties :
#
#
# Convention : Reuss Voigt Hill
#
# Bulk Modulus (GPa) = 44.99036 57.58556 51.28796
# Shear Modulus (GPa) = 23.64750 25.48764 24.56757
#
# Velocity S-wave (km/s) = 3.48836 3.62154 3.55557
# Velocity P-wave (km/s) = 6.27505 6.86441 6.57633
#
# Compressibility (1/GPa) = 0.02222698
#
# Stress axis : x y z
#
# Youngs Moduli (GPa) = 90.26156 53.88610 61.96511
#
# Poissons Ratio (x) = 0.19253 0.43668
# Poissons Ratio (y) = 0.32249 0.07149
# Poissons Ratio (z) = 0.63610 0.06217
#
# Static dielectric constant tensor:
#      x y z
#    x 3.702780 0.000000 0.000000 
#    y 0.000000 3.522040 0.000000 
#    z 0.000000 0.000000 3.513790 
# 
# 
# High freq. dielectric constant tensor:
#      x y z
#    x 1.751190 0.000000 0.000000 
#    y 0.000000 1.750840 0.000000 
#    z 0.000000 0.000000 1.747070 
# 
# From -- ./inp_files/61942.got.cif
#   From: 2010.06.25/outbox.cif.g09.slc.cpg/sg71_31_cif.got.tgz:61942.got - 2010.06.28 04:59:45.
