data_PCOD8290918
_publ_section_title
;
Structure prediction by ZEFSAII (Michael W. Deem and Ramdas Pophale) SiO2 
 PCOD8290918
Probable space group: I M M M
;
_chemical_formula_sum "Si O2"
_cell_formula_units_Z 120
_cell_length_a 19.102350
_cell_length_b 27.955787
_cell_length_c 12.400094
_cell_angle_alpha 90.000000
_cell_angle_beta 90.000000
_cell_angle_gamma 90.000000
_cell_volume 6621.913423
_symmetry_space_group_name_H-M "I M M M"
_symmetry_group_IT_number 71
_symmetry_cell_setting 'orthorhombic'
loop_
_space_group_symop_operation_xyz
x,y,z
-x,-y,z
x,-y,-z
-x,y,-z
-x,-y,-z
x,y,-z
-x,y,z
x,-y,z
1/2+x,1/2+y,1/2+z
1/2-x,1/2-y,1/2+z
1/2+x,1/2-y,1/2-z
1/2-x,1/2+y,1/2-z
1/2-x,1/2-y,1/2-z
1/2+x,1/2+y,1/2-z
1/2-x,1/2+y,1/2+z
1/2+x,1/2-y,1/2+z
loop_
_atom_site_type_symbol
_atom_site_label
_atom_site_fract_x
_atom_site_fract_y
_atom_site_fract_z
Si Si1 0.921274 0.446161 0.739135
Si Si2 0.345907 0.556199 0.285286
Si Si3 0.293316 0.909708 0.877294
Si Si4 0.685332 0.811052 0.773757
Si Si5 0.419569 0.626518 0.874453
Si Si6 0.919099 0.642313 0.879432
Si Si7 0.315807 0.289410 0.125203
Si Si8 0.921608 0.056801 0.000000
O O1 0.912029 0.500000 0.781480
O O2 0.867614 0.435279 0.642745
O O3 0.905516 0.411861 0.840289
O O4 0.000000 0.437517 0.694558
O O5 0.358158 0.500000 0.266578
O O6 0.263550 0.567326 0.296395
O O7 0.379066 0.583876 0.185056
O O8 0.382990 0.575673 0.393534
O O9 0.300463 0.853277 0.858118
O O10 0.270677 0.919528 0.000000
O O11 0.619149 0.820541 0.697980
O O12 0.665957 0.764667 0.842989
O O13 0.752302 0.806865 0.697940
O O14 0.500000 0.629772 0.835141
O O15 0.382893 0.677370 0.850523
O O16 0.415625 0.613819 0.000000
O O17 0.000000 0.656048 0.876454
O O18 0.888837 0.646391 0.000000
O O19 0.294211 0.292072 0.000000
O O20 0.000000 0.077477 0.000000
O O21 0.921445 0.000000 0.000000
#
# Coordination Sequence:
#
# PCOD8290918 Si02
#       8
#    16  16  16  16  16  16  16   8
#     4   9  19  34  51  76 110 148 191 233 273 321
#     4  11  21  35  55  82 113 146 189 235 278 333
#     4  11  21  35  55  81 113 148 187 230 279 334
#     4  10  20  35  57  82 108 142 176 224 271 329
#     4  10  22  40  60  82 111 148 188 232 284 340
#     4   9  18  33  54  79 107 140 177 220 271 323
#     4  10  20  36  58  82 106 139 180 222 271 325
#     4   9  18  32  52  76 103 141 183 227 280 330
#
# _framework density 18.121649999999999
#
# number of rings (size 3 to 8) (size 9 to 14) (size 15 to 20)
#    0.000    2.067    2.000    1.600    0.000    2.933 
#    0.000    2.667    1.467    4.000    0.000    0.000 
#    0.000    0.000    0.000    0.000    0.000    0.000 
#
# Total GULP energy -744094.133293 kJ/mol
# GULP energy per Si atom -12401.568888 kJ/mol
# Density = 1.808040 g / cm^3
# Si number density = 18.121650 Si / 1000 Ang^3
#
#
#
# Elastic Constant Matrix: (Units=GPa)
#
#
# Indices 1 2 3 4 5 6 
#
# 1 102.0954 35.8636 33.6437 0.0000 0.0000 0.0000
# 2 35.8636 72.9545 17.1054 0.0000 0.0000 0.0000
# 3 33.6437 17.1054 65.2446 0.0000 0.0001 0.0000
# 4 0.0000 0.0000 0.0000 19.2984 0.0000 0.0000
# 5 0.0000 0.0000 0.0001 0.0000 29.5117 0.0000
# 6 0.0000 0.0000 0.0000 0.0000 0.0000 25.4702
#
#
#
# Elastic Compliance Matrix: (Units=1/GPa)
#
#
# Indices 1 2 3 4 5 6 
#
# 1 0.013502 -0.005333 -0.005564 0.000000 0.000000 0.000000
# 2 -0.005333 0.016711 -0.001631 0.000000 0.000000 0.000000
# 3 -0.005564 -0.001631 0.018624 0.000000 0.000000 0.000000
# 4 0.000000 0.000000 0.000000 0.051818 0.000000 0.000000
# 5 0.000000 0.000000 0.000000 0.000000 0.033885 0.000000
# 6 0.000000 0.000000 0.000000 0.000000 0.000000 0.039262
#
#
# Mechanical properties :
#
#
# Convention : Reuss Voigt Hill
#
# Bulk Modulus (GPa) = 42.05167 45.94666 43.99916
# Shear Modulus (GPa) = 24.17986 25.10151 24.64069
#
# Velocity S-wave (km/s) = 3.65678 3.72582 3.69146
# Velocity P-wave (km/s) = 6.40976 6.62711 6.51934
#
# Compressibility (1/GPa) = 0.02378027
#
# Stress axis : x y z
#
# Youngs Moduli (GPa) = 74.06573 59.84028 53.69473
#
# Poissons Ratio (x) = 0.31911 0.29876
# Poissons Ratio (y) = 0.39496 0.08760
# Poissons Ratio (z) = 0.41211 0.09762
#
# Static dielectric constant tensor:
#      x y z
#    x 3.493110 0.000000 0.000000 
#    y 0.000000 3.313560 0.000000 
#    z 0.000000 0.000000 3.280550 
# 
# 
# High freq. dielectric constant tensor:
#      x y z
#    x 1.712140 0.000000 0.000000 
#    y 0.000000 1.698460 0.000000 
#    z 0.000000 0.000000 1.697910 
# 
# From -- ./inp_files/26517.got.cif
#   From: 2010.06.25/outbox.cif.g09.slc.cpg/sg71_14_cif.got.tgz:26517.got - 2010.06.28 04:59:45.
