data_PCOD8290557
_publ_section_title
;
Structure prediction by ZEFSAII (Michael W. Deem and Ramdas Pophale) SiO2 
 PCOD8290557
Probable space group: I M M M
;
_chemical_formula_sum "Si O2"
_cell_formula_units_Z 96
_cell_length_a 14.890906
_cell_length_b 15.251622
_cell_length_c 21.621007
_cell_angle_alpha 90.000000
_cell_angle_beta 90.000000
_cell_angle_gamma 90.000000
_cell_volume 4910.357052
_symmetry_space_group_name_H-M "I M M M"
_symmetry_group_IT_number 71
_symmetry_cell_setting 'orthorhombic'
loop_
_space_group_symop_operation_xyz
x,y,z
-x,-y,z
x,-y,-z
-x,y,-z
-x,-y,-z
x,y,-z
-x,y,z
x,-y,z
1/2+x,1/2+y,1/2+z
1/2-x,1/2-y,1/2+z
1/2+x,1/2-y,1/2-z
1/2-x,1/2+y,1/2-z
1/2-x,1/2-y,1/2-z
1/2+x,1/2+y,1/2-z
1/2-x,1/2+y,1/2+z
1/2+x,1/2-y,1/2+z
loop_
_atom_site_type_symbol
_atom_site_label
_atom_site_fract_x
_atom_site_fract_y
_atom_site_fract_z
Si Si1 0.605048 0.899694 0.651673
Si Si2 0.399204 0.132596 0.792267
Si Si3 0.231006 0.277163 0.928773
Si Si4 0.733332 0.402290 0.632688
Si Si5 0.899989 0.184468 0.353731
Si Si6 0.098295 0.899850 0.234093
O O1 0.500000 0.880348 0.643071
O O2 0.633959 0.885291 0.722708
O O3 0.657222 0.830728 0.609173
O O4 0.627838 0.000000 0.632502
O O5 0.500000 0.095060 0.801670
O O6 0.333725 0.085307 0.840816
O O7 0.395021 0.235136 0.805907
O O8 0.226085 0.171317 0.920509
O O9 0.330225 0.309714 0.909484
O O10 0.215982 0.299212 0.000000
O O11 0.704116 0.500000 0.608584
O O12 0.671835 0.360858 0.687443
O O13 0.874782 0.105803 0.306786
O O14 0.000000 0.174792 0.382677
O O15 0.000000 0.854705 0.223921
O O16 0.091471 0.000000 0.215805
#
# Coordination Sequence:
#
# PCOD8290557 Si02
#       6
#    16  16  16  16  16  16
#     4  10  21  37  58  83 109 136 168 212 266 318
#     4   9  17  31  54  83 110 133 162 208 268 327
#     4  11  24  38  52  73 103 143 188 223 249 291
#     4  10  20  34  54  79 107 138 171 212 263 314
#     4   9  18  33  53  77 106 138 171 212 263 314
#     4   9  17  30  51  79 106 129 158 205 268 330
#
# _framework density 19.550512999999999
#
# number of rings (size 3 to 8) (size 9 to 14) (size 15 to 20)
#    0.000    2.333    0.000    2.500    0.000    9.000 
#    0.000    0.833    0.000    0.000    0.000   11.667 
#    0.000    0.000    0.000    0.000    0.000    0.000 
#
# Total GULP energy -594861.772598 kJ/mol
# GULP energy per Si atom -12392.953596 kJ/mol
# Density = 1.950602 g / cm^3
# Si number density = 19.550513 Si / 1000 Ang^3
#
#
#
# Elastic Constant Matrix: (Units=GPa)
#
#
# Indices 1 2 3 4 5 6 
#
# 1 67.6690 33.0680 24.4183 0.0000 0.0000 0.0000
# 2 33.0680 60.0182 26.0519 0.0000 0.0000 0.0000
# 3 24.4183 26.0519 70.6354 0.0000 0.0000 0.0000
# 4 0.0000 0.0000 0.0000 11.7219 0.0000 0.0000
# 5 0.0000 0.0000 0.0000 0.0000 16.4886 0.0000
# 6 0.0000 0.0000 0.0000 0.0000 0.0000 23.5002
#
#
#
# Elastic Compliance Matrix: (Units=1/GPa)
#
#
# Indices 1 2 3 4 5 6 
#
# 1 0.020946 -0.009998 -0.003553 0.000000 0.000000 0.000000
# 2 -0.009998 0.024610 -0.005620 0.000000 0.000000 0.000000
# 3 -0.003553 -0.005620 0.017459 0.000000 0.000000 0.000000
# 4 0.000000 0.000000 0.000000 0.085310 0.000000 0.000000
# 5 0.000000 0.000000 0.000000 0.000000 0.060648 0.000000
# 6 0.000000 0.000000 0.000000 0.000000 0.000000 0.042553
#
#
# Mechanical properties :
#
#
# Convention : Reuss Voigt Hill
#
# Bulk Modulus (GPa) = 40.53413 40.59991 40.56702
# Shear Modulus (GPa) = 16.77331 17.99443 17.38387
#
# Velocity S-wave (km/s) = 2.93225 3.03711 2.98514
# Velocity P-wave (km/s) = 5.67822 5.75417 5.71632
#
# Compressibility (1/GPa) = 0.02467057
#
# Stress axis : x y z
#
# Youngs Moduli (GPa) = 47.74225 40.63423 57.27863
#
# Poissons Ratio (x) = 0.40626 0.20353
# Poissons Ratio (y) = 0.47733 0.32193
# Poissons Ratio (z) = 0.16965 0.22838
#
# Static dielectric constant tensor:
#      x y z
#    x 3.950230 0.000000 0.000000 
#    y 0.000000 3.636200 0.000000 
#    z 0.000000 0.000000 3.105810 
# 
# 
# High freq. dielectric constant tensor:
#      x y z
#    x 1.773130 0.000000 0.000000 
#    y 0.000000 1.767910 0.000000 
#    z 0.000000 0.000000 1.714880 
# 
# From -- ./inp_files/34492.got.cif
#   From: 2010.06.25/outbox.cif.g09.slc.cpg/sg71_18_cif.got.tgz:34492.got - 2010.06.28 04:59:45.
