data_PCOD8290687
_publ_section_title
;
Structure prediction by ZEFSAII (Michael W. Deem and Ramdas Pophale) SiO2 
 PCOD8290687
Probable space group: I M M M
;
_chemical_formula_sum "Si O2"
_cell_formula_units_Z 72
_cell_length_a 17.415942
_cell_length_b 9.342806
_cell_length_c 24.637616
_cell_angle_alpha 90.000000
_cell_angle_beta 90.000000
_cell_angle_gamma 90.000000
_cell_volume 4008.879319
_symmetry_space_group_name_H-M "I M M M"
_symmetry_group_IT_number 71
_symmetry_cell_setting 'orthorhombic'
loop_
_space_group_symop_operation_xyz
x,y,z
-x,-y,z
x,-y,-z
-x,y,-z
-x,-y,-z
x,y,-z
-x,y,z
x,-y,z
1/2+x,1/2+y,1/2+z
1/2-x,1/2-y,1/2+z
1/2+x,1/2-y,1/2-z
1/2-x,1/2+y,1/2-z
1/2-x,1/2-y,1/2-z
1/2+x,1/2+y,1/2-z
1/2-x,1/2+y,1/2+z
1/2+x,1/2-y,1/2+z
loop_
_atom_site_type_symbol
_atom_site_label
_atom_site_fract_x
_atom_site_fract_y
_atom_site_fract_z
Si Si1 0.788993 0.161246 0.437816
Si Si2 0.086637 0.151004 0.000000
Si Si3 0.126295 0.338704 0.899553
Si Si4 0.084087 0.337933 0.381707
Si Si5 0.500000 0.671744 0.202059
Si Si6 0.000000 0.334678 0.187700
O O1 0.761109 0.192157 0.500000
O O2 0.718746 0.179279 0.394938
O O3 0.855145 0.272381 0.423109
O O4 0.821829 0.000000 0.433970
O O5 0.101015 0.236048 0.053838
O O6 0.000000 0.106973 0.000000
O O7 0.133941 0.000000 0.000000
O O8 0.106129 0.500000 0.917188
O O9 0.078516 0.301798 0.845424
O O10 0.108857 0.500000 0.365676
O O11 0.000000 0.340890 0.410620
O O12 0.076003 0.238370 0.327570
O O13 0.500000 0.500000 0.198735
O O14 0.500000 0.722952 0.263670
O O15 0.000000 0.500000 0.207755
#
# Coordination Sequence:
#
# PCOD8290687 Si02
#       6
#    16   8  16  16   8   8
#     4  10  20  34  55  85 117 146 182 224 269 327
#     4  11  21  31  47  75 112 149 188 233 273 316
#     4  10  20  35  55  79 111 152 190 221 266 330
#     4   9  20  38  59  81 108 141 183 227 276 334
#     4  10  20  38  62  82 106 138 181 236 284 323
#     4  10  20  35  59  83 108 146 190 229 270 324
#
# _framework density 17.960129999999999
#
# number of rings (size 3 to 8) (size 9 to 14) (size 15 to 20)
#    0.667    1.444    2.222    1.667    0.000    3.111 
#    0.000    3.333    0.000    0.000    0.000    0.000 
#    0.000    0.000    0.000    0.000    0.000    0.000 
#
# Total GULP energy -445982.633704 kJ/mol
# GULP energy per Si atom -12388.406492 kJ/mol
# Density = 1.791925 g / cm^3
# Si number density = 17.960130 Si / 1000 Ang^3
#
#
#
# Elastic Constant Matrix: (Units=GPa)
#
#
# Indices 1 2 3 4 5 6 
#
# 1 87.9674 44.9029 37.3268 0.0000 0.0000 0.0000
# 2 44.9029 129.3214 53.7387 0.0000 0.0000 0.0000
# 3 37.3268 53.7387 77.9637 0.0000 0.0000 0.0000
# 4 0.0000 0.0000 0.0000 4.9806 0.0000 0.0000
# 5 0.0000 0.0000 0.0000 0.0000 7.7435 0.0000
# 6 0.0000 0.0000 0.0000 0.0000 0.0000 12.7867
#
#
#
# Elastic Compliance Matrix: (Units=1/GPa)
#
#
# Indices 1 2 3 4 5 6 
#
# 1 0.015126 -0.003143 -0.005075 0.000000 0.000000 0.000000
# 2 -0.003143 0.011490 -0.006415 0.000000 0.000000 0.000000
# 3 -0.005075 -0.006415 0.019678 0.000000 0.000000 0.000000
# 4 0.000000 0.000000 0.000000 0.200780 0.000000 0.000000
# 5 0.000000 0.000000 0.000000 0.000000 0.129140 0.000000
# 6 0.000000 0.000000 0.000000 0.000000 0.000000 0.078206
#
#
# Mechanical properties :
#
#
# Convention : Reuss Voigt Hill
#
# Bulk Modulus (GPa) = 58.72986 63.02102 60.87544
# Shear Modulus (GPa) = 10.21741 15.72110 12.96925
#
# Velocity S-wave (km/s) = 2.38774 2.96181 2.69013
# Velocity P-wave (km/s) = 6.35396 6.84558 6.60435
#
# Compressibility (1/GPa) = 0.01702711
#
# Stress axis : x y z
#
# Youngs Moduli (GPa) = 66.11227 87.03543 50.81807
#
# Poissons Ratio (x) = 0.27354 0.25793
# Poissons Ratio (y) = 0.20778 0.32599
# Poissons Ratio (z) = 0.33555 0.55831
#
# Static dielectric constant tensor:
#      x y z
#    x 3.362950 0.000000 0.000000 
#    y 0.000000 3.408790 0.000000 
#    z 0.000000 0.000000 3.077460 
# 
# 
# High freq. dielectric constant tensor:
#      x y z
#    x 1.686090 0.000000 0.000000 
#    y 0.000000 1.710120 0.000000 
#    z 0.000000 0.000000 1.666580 
# 
# From -- ./inp_files/60994.got.cif
#   From: 2010.06.25/outbox.cif.g09.slc.cpg/sg71_31_cif.got.tgz:60994.got - 2010.06.28 04:59:45.
