data_PCOD8290887
_publ_section_title
;
Structure prediction by ZEFSAII (Michael W. Deem and Ramdas Pophale) SiO2 
 PCOD8290887
Probable space group: I M M M
;
_chemical_formula_sum "Si O2"
_cell_formula_units_Z 96
_cell_length_a 18.024783
_cell_length_b 12.507622
_cell_length_c 22.650301
_cell_angle_alpha 90.000000
_cell_angle_beta 90.000000
_cell_angle_gamma 90.000000
_cell_volume 5106.446314
_symmetry_space_group_name_H-M "I M M M"
_symmetry_group_IT_number 71
_symmetry_cell_setting 'orthorhombic'
loop_
_space_group_symop_operation_xyz
x,y,z
-x,-y,z
x,-y,-z
-x,y,-z
-x,-y,-z
x,y,-z
-x,y,z
x,-y,z
1/2+x,1/2+y,1/2+z
1/2-x,1/2-y,1/2+z
1/2+x,1/2-y,1/2-z
1/2-x,1/2+y,1/2-z
1/2-x,1/2-y,1/2-z
1/2+x,1/2+y,1/2-z
1/2-x,1/2+y,1/2+z
1/2+x,1/2-y,1/2+z
loop_
_atom_site_type_symbol
_atom_site_label
_atom_site_fract_x
_atom_site_fract_y
_atom_site_fract_z
Si Si1 0.707512 0.746538 0.930409
Si Si2 0.256690 0.125067 0.323630
Si Si3 0.500000 0.382873 0.593442
Si Si4 0.000000 0.118083 0.230223
Si Si5 0.343483 0.617072 0.567425
Si Si6 0.640863 0.242360 0.754911
Si Si7 0.912930 0.625091 0.633030
O O1 0.722214 0.642802 0.889496
O O2 0.775113 0.819042 0.905413
O O3 0.629566 0.805517 0.917257
O O4 0.711822 0.716759 0.000000
O O5 0.335158 0.183353 0.306419
O O6 0.201938 0.172299 0.274791
O O7 0.267497 0.000000 0.314980
O O8 0.500000 0.500000 0.561722
O O9 0.500000 0.399620 0.661767
O O10 0.576351 0.323059 0.574147
O O11 0.930196 0.186008 0.247851
O O12 0.000000 0.000000 0.260936
O O13 0.322372 0.603490 0.500000
O O14 0.348154 0.500000 0.598468
O O15 0.623464 0.152240 0.804017
O O16 0.901411 0.500000 0.619702
O O17 0.000000 0.655385 0.630987
#
# Coordination Sequence:
#
# PCOD8290887 Si02
#       7
#    16  16   8   8  16  16  16
#     4  10  21  35  53  78 109 147 191 234 277 337
#     4  10  21  37  57  79 107 146 187 234 285 336
#     4   9  17  26  41  69 100 131 167 209 264 324
#     4  11  20  31  51  78 109 141 173 220 281 343
#     4   9  16  28  46  69 100 136 174 218 269 323
#     4  10  20  36  56  82 111 141 187 233 286 347
#     4  10  20  35  56  82 114 149 187 238 294 345
#
# _framework density 18.799766999999999
#
# number of rings (size 3 to 8) (size 9 to 14) (size 15 to 20)
#    0.000    2.167    0.833    2.750    0.000    2.667 
#    0.000    5.833    0.000    0.000    0.000    2.333 
#    0.000    6.667    0.000    0.000    0.000    0.000 
#
# Total GULP energy -594668.000789 kJ/mol
# GULP energy per Si atom -12388.916683 kJ/mol
# Density = 1.875698 g / cm^3
# Si number density = 18.799767 Si / 1000 Ang^3
#
#
#
# Elastic Constant Matrix: (Units=GPa)
#
#
# Indices 1 2 3 4 5 6 
#
# 1 107.0720 37.6705 15.3952 0.0000 0.0000 0.0000
# 2 37.6705 97.7932 31.7797 0.0000 0.0000 0.0000
# 3 15.3952 31.7797 88.0681 0.0000 0.0000 0.0000
# 4 0.0000 0.0000 0.0000 15.2641 0.0000 0.0000
# 5 0.0000 0.0000 0.0000 0.0000 26.2202 0.0000
# 6 0.0000 0.0000 0.0000 0.0000 0.0000 20.8367
#
#
#
# Elastic Compliance Matrix: (Units=1/GPa)
#
#
# Indices 1 2 3 4 5 6 
#
# 1 0.010819 -0.004025 -0.000439 0.000000 0.000000 0.000000
# 2 -0.004025 0.013081 -0.004017 0.000000 0.000000 0.000000
# 3 -0.000439 -0.004017 0.012881 0.000000 0.000000 0.000000
# 4 0.000000 0.000000 0.000000 0.065513 0.000000 0.000000
# 5 0.000000 0.000000 0.000000 0.000000 0.038139 0.000000
# 6 0.000000 0.000000 0.000000 0.000000 0.000000 0.047992
#
#
# Mechanical properties :
#
#
# Convention : Reuss Voigt Hill
#
# Bulk Modulus (GPa) = 50.45401 51.40270 50.92835
# Shear Modulus (GPa) = 23.58569 26.33671 24.96120
#
# Velocity S-wave (km/s) = 3.54584 3.74693 3.64777
# Velocity P-wave (km/s) = 6.60756 6.79123 6.70002
#
# Compressibility (1/GPa) = 0.01982003
#
# Stress axis : x y z
#
# Youngs Moduli (GPa) = 92.43316 76.44448 77.63331
#
# Poissons Ratio (x) = 0.30767 0.03407
# Poissons Ratio (y) = 0.37202 0.31184
# Poissons Ratio (z) = 0.04056 0.30707
#
# Static dielectric constant tensor:
#      x y z
#    x 3.947160 0.000000 0.000000 
#    y 0.000000 3.438480 0.000000 
#    z 0.000000 0.000000 3.313410 
# 
# 
# High freq. dielectric constant tensor:
#      x y z
#    x 1.746630 0.000000 0.000000 
#    y 0.000000 1.703070 0.000000 
#    z 0.000000 0.000000 1.720570 
# 
# From -- ./inp_files/60546.got.cif
#   From: 2010.06.25/outbox.cif.g09.slc.cpg/sg71_31_cif.got.tgz:60546.got - 2010.06.28 04:59:45.
