data_PCOD8290184
_publ_section_title
;
Structure prediction by ZEFSAII (Michael W. Deem and Ramdas Pophale) SiO2 
 PCOD8290184
Probable space group: I M M M
;
_chemical_formula_sum "Si O2"
_cell_formula_units_Z 80
_cell_length_a 18.455380
_cell_length_b 8.614858
_cell_length_c 26.930247
_cell_angle_alpha 90.000000
_cell_angle_beta 90.000000
_cell_angle_gamma 90.000000
_cell_volume 4281.652844
_symmetry_space_group_name_H-M "I M M M"
_symmetry_group_IT_number 71
_symmetry_cell_setting 'orthorhombic'
loop_
_space_group_symop_operation_xyz
x,y,z
-x,-y,z
x,-y,-z
-x,y,-z
-x,-y,-z
x,y,-z
-x,y,z
x,-y,z
1/2+x,1/2+y,1/2+z
1/2-x,1/2-y,1/2+z
1/2+x,1/2-y,1/2-z
1/2-x,1/2+y,1/2-z
1/2-x,1/2-y,1/2-z
1/2+x,1/2+y,1/2-z
1/2-x,1/2+y,1/2+z
1/2+x,1/2-y,1/2+z
loop_
_atom_site_type_symbol
_atom_site_label
_atom_site_fract_x
_atom_site_fract_y
_atom_site_fract_z
Si Si1 0.417866 0.318303 0.148243
Si Si2 0.082240 0.178199 0.942971
Si Si3 0.284444 0.818028 0.799205
Si Si4 0.213381 0.320163 0.107296
Si Si5 0.156004 0.319052 0.555993
O O1 0.500000 0.281615 0.164740
O O2 0.403988 0.500000 0.142225
O O3 0.363928 0.253392 0.190260
O O4 0.403920 0.240039 0.094746
O O5 0.131630 0.287813 0.909351
O O6 0.000000 0.200922 0.924892
O O7 0.106394 0.000000 0.936632
O O8 0.089864 0.229089 0.000000
O O9 0.250000 0.750000 0.750000
O O10 0.230512 0.779627 0.844048
O O11 0.293571 0.000000 0.793131
O O12 0.223062 0.500000 0.120097
O O13 0.268354 0.270863 0.063667
O O14 0.128359 0.287634 0.500000
O O15 0.170205 0.500000 0.565355
#
# Coordination Sequence:
#
# PCOD8290184 Si02
#       5
#    16  16  16  16  16
#     4  10  21  37  57  82 112 143 176 216 263 314
#     4   9  18  33  52  74 104 143 182 219 264 317
#     4  11  22  39  62  83 106 136 174 219 265 316
#     4  11  21  33  52  78 107 138 176 221 267 317
#     4  10  20  33  51  76 107 145 186 222 258 307
#
# _framework density 18.684373000000001
#
# number of rings (size 3 to 8) (size 9 to 14) (size 15 to 20)
#    0.000    1.800    0.000    8.400    0.000    6.800 
#    0.000    4.000    0.000    6.000    0.000    0.000 
#    0.000    0.000    0.000    0.000    0.000    0.000 
#
# Total GULP energy -496090.064879 kJ/mol
# GULP energy per Si atom -12402.251622 kJ/mol
# Density = 1.864185 g / cm^3
# Si number density = 18.684373 Si / 1000 Ang^3
#
#
#
# Elastic Constant Matrix: (Units=GPa)
#
#
# Indices 1 2 3 4 5 6 
#
# 1 123.6779 38.1204 54.1150 0.0000 0.0000 0.0000
# 2 38.1204 88.7164 33.6941 0.0000 0.0000 0.0000
# 3 54.1150 33.6941 102.8525 0.0000 0.0000 0.0000
# 4 0.0000 0.0000 0.0000 30.7809 0.0000 0.0000
# 5 0.0000 0.0000 0.0000 0.0000 19.8795 0.0000
# 6 0.0000 0.0000 0.0000 0.0000 0.0000 32.6372
#
#
#
# Elastic Compliance Matrix: (Units=1/GPa)
#
#
# Indices 1 2 3 4 5 6 
#
# 1 0.011129 -0.002922 -0.004898 0.000000 0.000000 0.000000
# 2 -0.002922 0.013641 -0.002931 0.000000 0.000000 0.000000
# 3 -0.004898 -0.002931 0.013260 0.000000 0.000000 0.000000
# 4 0.000000 0.000000 0.000000 0.032488 0.000000 0.000000
# 5 0.000000 0.000000 0.000000 0.000000 0.050303 0.000000
# 6 0.000000 0.000000 0.000000 0.000000 0.000000 0.030640
#
#
# Mechanical properties :
#
#
# Convention : Reuss Voigt Hill
#
# Bulk Modulus (GPa) = 60.50674 63.01177 61.75925
# Shear Modulus (GPa) = 28.01541 29.28067 28.64804
#
# Velocity S-wave (km/s) = 3.87641 3.96298 3.91994
# Velocity P-wave (km/s) = 7.24495 7.39850 7.32213
#
# Compressibility (1/GPa) = 0.01652708
#
# Stress axis : x y z
#
# Youngs Moduli (GPa) = 89.85217 73.31039 75.41333
#
# Poissons Ratio (x) = 0.21419 0.36941
# Poissons Ratio (y) = 0.26253 0.22106
# Poissons Ratio (z) = 0.44014 0.21490
#
# Static dielectric constant tensor:
#      x y z
#    x 3.413340 0.000000 0.000000 
#    y 0.000000 3.544500 0.000000 
#    z 0.000000 0.000000 3.262480 
# 
# 
# High freq. dielectric constant tensor:
#      x y z
#    x 1.724840 0.000000 0.000000 
#    y 0.000000 1.738800 0.000000 
#    z 0.000000 0.000000 1.710090 
# 
# From -- ./inp_files/65804.got.cif
#   From: 2010.06.25/outbox.cif.g09.slc.cpg/sg71_33_cif.got.tgz:65804.got - 2010.06.28 04:59:45.
