data_PCOD8290006
_publ_section_title
;
Structure prediction by ZEFSAII (Michael W. Deem and Ramdas Pophale) SiO2 
 PCOD8290006
Probable space group: I M M M
;
_chemical_formula_sum "Si O2"
_cell_formula_units_Z 64
_cell_length_a 8.920694
_cell_length_b 31.337711
_cell_length_c 12.168121
_cell_angle_alpha 90.000000
_cell_angle_beta 90.000000
_cell_angle_gamma 90.000000
_cell_volume 3401.648486
_symmetry_space_group_name_H-M "I M M M"
_symmetry_group_IT_number 71
_symmetry_cell_setting 'orthorhombic'
loop_
_space_group_symop_operation_xyz
x,y,z
-x,-y,z
x,-y,-z
-x,y,-z
-x,-y,-z
x,y,-z
-x,y,z
x,-y,z
1/2+x,1/2+y,1/2+z
1/2-x,1/2-y,1/2+z
1/2+x,1/2-y,1/2-z
1/2-x,1/2+y,1/2-z
1/2-x,1/2-y,1/2-z
1/2+x,1/2+y,1/2-z
1/2-x,1/2+y,1/2+z
1/2+x,1/2-y,1/2+z
loop_
_atom_site_type_symbol
_atom_site_label
_atom_site_fract_x
_atom_site_fract_y
_atom_site_fract_z
Si Si1 0.322055 0.046844 0.735952
Si Si2 0.177775 0.295069 0.772129
Si Si3 0.321343 0.072932 0.500000
Si Si4 0.821414 0.626346 0.375634
Si Si5 0.822164 0.668124 0.000000
O O1 0.500000 0.051506 0.734317
O O2 0.261198 0.050472 0.610803
O O3 0.256341 0.084397 0.813297
O O4 0.274796 0.000000 0.781540
O O5 0.250000 0.250000 0.750000
O O6 0.233877 0.330712 0.685276
O O7 0.000000 0.290922 0.767227
O O8 0.236111 0.307919 0.892354
O O9 0.500000 0.072401 0.500000
O O10 0.256977 0.120666 0.500000
O O11 0.759055 0.626679 0.500000
O O12 0.000000 0.624706 0.375035
O O13 0.000000 0.665732 0.000000
#
# Coordination Sequence:
#
# PCOD8290006 Si02
#       5
#    16  16   8  16   8
#     4   9  15  22  35  56  82 114 149 181 216 264
#     4  10  20  33  49  68  91 121 156 191 229 271
#     4   9  13  22  37  55  81 112 146 181 219 263
#     4   9  17  28  40  57  85 119 150 181 223 273
#     4   9  16  29  47  64  87 120 153 187 228 272
#
# _framework density 18.814408
#
# number of rings (size 3 to 8) (size 9 to 14) (size 15 to 20)
#    0.000    2.750    2.500    0.375    1.750    2.000 
#    0.000    2.500    0.000    0.000    0.000    0.000 
#    0.000    1.000    0.000    4.500    0.000    5.000 
#
# Total GULP energy -396589.063338 kJ/mol
# GULP energy per Si atom -12393.408229 kJ/mol
# Density = 1.877159 g / cm^3
# Si number density = 18.814408 Si / 1000 Ang^3
#
#
#
# Elastic Constant Matrix: (Units=GPa)
#
#
# Indices 1 2 3 4 5 6 
#
# 1 4.6654 12.4622 9.2551 0.0000 -0.0001 0.0000
# 2 12.4622 194.8491 94.5662 -0.0008 0.0000 0.0000
# 3 9.2551 94.5662 175.5048 -0.0002 0.0001 0.0001
# 4 0.0000 -0.0008 -0.0002 29.1700 0.0001 0.0001
# 5 -0.0001 0.0000 0.0001 0.0001 5.3477 -0.0002
# 6 0.0000 0.0000 0.0001 0.0001 -0.0002 18.8251
#
#
#
# Elastic Compliance Matrix: (Units=1/GPa)
#
#
# Indices 1 2 3 4 5 6 
#
# 1 0.263920 -0.013711 -0.006530 0.000000 0.000004 0.000001
# 2 -0.013711 0.007662 -0.003405 0.000000 0.000000 0.000000
# 3 -0.006530 -0.003405 0.007877 0.000000 0.000000 0.000000
# 4 0.000000 0.000000 0.000000 0.034282 -0.000001 0.000000
# 5 0.000004 0.000000 0.000000 -0.000001 0.186996 0.000002
# 6 0.000001 0.000000 0.000000 0.000000 0.000002 0.053121
#
#
# Mechanical properties :
#
#
# Convention : Reuss Voigt Hill
#
# Bulk Modulus (GPa) = 4.30725 67.50958 35.90842
# Shear Modulus (GPa) = 7.36879 27.91761 17.64320
#
# Velocity S-wave (km/s) = 1.98118 3.85625 3.06559
# Velocity P-wave (km/s) = 2.74367 7.46909 5.62650
#
# Compressibility (1/GPa) = 0.23216664
#
# Stress axis : x y z
#
# Youngs Moduli (GPa) = 3.78903 130.51761 126.95050
#
# Poissons Ratio (x) = 1.78948 0.82898
# Poissons Ratio (y) = 0.05195 0.43231
# Poissons Ratio (z) = 0.02474 0.44446
#
# Static dielectric constant tensor:
#      x y z
#    x 2.574950 0.000000 0.000000 
#    y 0.000000 3.662250 0.000000 
#    z 0.000000 0.000000 3.836280 
# 
# 
# High freq. dielectric constant tensor:
#      x y z
#    x 1.633260 0.000000 0.000000 
#    y 0.000000 1.750420 0.000000 
#    z 0.000000 0.000000 1.743660 
# 
# From -- ./inp_files/18474.got.cif
#   From: 2010.06.25/outbox.cif.g09.slc.cpg/sg71_10_cif.got.tgz:18474.got - 2010.06.28 04:59:45.
