data_PCOD8290106
_publ_section_title
;
Structure prediction by ZEFSAII (Michael W. Deem and Ramdas Pophale) SiO2 
 PCOD8290106
Probable space group: I M M M
;
_chemical_formula_sum "Si O2"
_cell_formula_units_Z 72
_cell_length_a 8.623356
_cell_length_b 22.492881
_cell_length_c 19.493877
_cell_angle_alpha 90.000000
_cell_angle_beta 90.000000
_cell_angle_gamma 90.000000
_cell_volume 3781.112704
_symmetry_space_group_name_H-M "I M M M"
_symmetry_group_IT_number 71
_symmetry_cell_setting 'orthorhombic'
loop_
_space_group_symop_operation_xyz
x,y,z
-x,-y,z
x,-y,-z
-x,y,-z
-x,-y,-z
x,y,-z
-x,y,z
x,-y,z
1/2+x,1/2+y,1/2+z
1/2-x,1/2-y,1/2+z
1/2+x,1/2-y,1/2-z
1/2-x,1/2+y,1/2-z
1/2-x,1/2-y,1/2-z
1/2+x,1/2+y,1/2-z
1/2-x,1/2+y,1/2+z
1/2+x,1/2-y,1/2+z
loop_
_atom_site_type_symbol
_atom_site_label
_atom_site_fract_x
_atom_site_fract_y
_atom_site_fract_z
Si Si1 0.815526 0.647798 0.576491
Si Si2 0.815851 0.219869 0.576360
Si Si3 0.684308 0.932639 0.198679
Si Si4 0.316148 0.608954 0.839039
Si Si5 0.178722 0.500000 0.081018
O O1 0.755291 0.631330 0.500000
O O2 0.757992 0.714078 0.597213
O O3 0.749926 0.600320 0.630979
O O4 0.000000 0.646398 0.576808
O O5 0.753958 0.204280 0.500000
O O6 0.753551 0.171421 0.630381
O O7 0.000000 0.218354 0.575414
O O8 0.500000 0.932310 0.199563
O O9 0.744656 0.897458 0.264203
O O10 0.748238 0.000000 0.199089
O O11 0.500000 0.607112 0.833618
O O12 0.261444 0.557617 0.889569
O O13 0.000000 0.500000 0.104423
O O14 0.197519 0.500000 0.000000
#
# Coordination Sequence:
#
# PCOD8290106 Si02
#       5
#    16  16  16  16   8
#     4   8  15  30  52  76 101 132 172 218 265 309
#     4   8  15  29  49  74 102 130 169 220 261 297
#     4  10  20  33  50  74 107 140 171 215 263 304
#     4  11  21  33  52  76 103 139 177 210 251 307
#     4  11  23  37  53  75 104 137 172 213 259 302
#
# _framework density 19.042014999999999
#
# number of rings (size 3 to 8) (size 9 to 14) (size 15 to 20)
#    0.000    2.556    1.111    3.000    0.000    3.111 
#    0.000    2.222    0.000    2.000    0.000    7.778 
#    0.000    0.000    0.000    0.000    0.000    0.000 
#
# Total GULP energy -446281.989991 kJ/mol
# GULP energy per Si atom -12396.721944 kJ/mol
# Density = 1.899867 g / cm^3
# Si number density = 19.042015 Si / 1000 Ang^3
#
#
#
# Elastic Constant Matrix: (Units=GPa)
#
#
# Indices 1 2 3 4 5 6 
#
# 1 8.8911 17.8050 11.7405 0.0000 0.0000 0.0000
# 2 17.8050 135.1444 99.0818 0.0000 0.0000 0.0000
# 3 11.7405 99.0818 153.6681 0.0001 0.0000 0.0000
# 4 0.0000 0.0000 0.0001 42.1146 0.0000 0.0000
# 5 0.0000 0.0000 0.0000 0.0000 21.3700 0.0000
# 6 0.0000 0.0000 0.0000 0.0000 0.0000 9.6063
#
#
#
# Elastic Compliance Matrix: (Units=1/GPa)
#
#
# Indices 1 2 3 4 5 6 
#
# 1 0.153278 -0.022016 0.002484 0.000000 0.000000 0.000000
# 2 -0.022016 0.017196 -0.009405 0.000000 0.000000 0.000000
# 3 0.002484 -0.009405 0.012382 0.000000 0.000000 0.000000
# 4 0.000000 0.000000 0.000000 0.023745 0.000000 0.000000
# 5 0.000000 0.000000 0.000000 0.000000 0.046795 0.000000
# 6 0.000000 0.000000 0.000000 0.000000 0.000000 0.104098
#
#
# Mechanical properties :
#
#
# Convention : Reuss Voigt Hill
#
# Bulk Modulus (GPa) = 8.00109 61.66205 34.83157
# Shear Modulus (GPa) = 10.94027 25.88993 18.41510
#
# Velocity S-wave (km/s) = 2.39954 3.69130 3.11316
# Velocity P-wave (km/s) = 3.44790 7.11478 5.59053
#
# Compressibility (1/GPa) = 0.12498294
#
# Stress axis : x y z
#
# Youngs Moduli (GPa) = 6.52408 58.15471 80.76230
#
# Poissons Ratio (x) = 1.28031 -0.20065
# Poissons Ratio (y) = 0.14363 0.75959
# Poissons Ratio (z) = -0.01621 0.54696
#
# Static dielectric constant tensor:
#      x y z
#    x 3.071080 0.000000 0.000000 
#    y 0.000000 3.834210 0.000000 
#    z 0.000000 0.000000 3.731690 
# 
# 
# High freq. dielectric constant tensor:
#      x y z
#    x 1.695490 0.000000 0.000000 
#    y 0.000000 1.750600 0.000000 
#    z 0.000000 0.000000 1.748960 
# 
# From -- ./inp_files/9940.got.cif
#   From: 2010.06.25/outbox.cif.g09.slc.cpg/sg71_5_cif.got.tgz:9940.got - 2010.06.28 04:59:45.
