data_PCOD8290014
_publ_section_title
;
Structure prediction by ZEFSAII (Michael W. Deem and Ramdas Pophale) SiO2 
 PCOD8290014
Probable space group: I M M M
;
_chemical_formula_sum "Si O2"
_cell_formula_units_Z 72
_cell_length_a 33.314335
_cell_length_b 13.451925
_cell_length_c 9.049164
_cell_angle_alpha 90.000000
_cell_angle_beta 90.000000
_cell_angle_gamma 90.000000
_cell_volume 4055.309873
_symmetry_space_group_name_H-M "I M M M"
_symmetry_group_IT_number 71
_symmetry_cell_setting 'orthorhombic'
loop_
_space_group_symop_operation_xyz
x,y,z
-x,-y,z
x,-y,-z
-x,y,-z
-x,-y,-z
x,y,-z
-x,y,z
x,-y,z
1/2+x,1/2+y,1/2+z
1/2-x,1/2-y,1/2+z
1/2+x,1/2-y,1/2-z
1/2-x,1/2+y,1/2-z
1/2-x,1/2-y,1/2-z
1/2+x,1/2+y,1/2-z
1/2-x,1/2+y,1/2+z
1/2+x,1/2-y,1/2+z
loop_
_atom_site_type_symbol
_atom_site_label
_atom_site_fract_x
_atom_site_fract_y
_atom_site_fract_z
Si Si1 0.916737 0.704782 0.674690
Si Si2 0.707369 0.254112 0.826160
Si Si3 0.864894 0.110383 0.325497
Si Si4 0.847389 0.613313 0.163461
Si Si5 0.000000 0.613447 0.674041
O O1 0.910360 0.689480 0.500000
O O2 0.901454 0.815759 0.722069
O O3 0.890986 0.624807 0.764040
O O4 0.962156 0.680731 0.723611
O O5 0.750000 0.250000 0.750000
O O6 0.678576 0.346020 0.775521
O O7 0.685138 0.155037 0.776549
O O8 0.714029 0.255261 0.000000
O O9 0.865086 0.101525 0.500000
O O10 0.871027 0.000000 0.255458
O O11 0.836757 0.500000 0.144087
O O12 0.845771 0.664146 0.000000
O O13 0.000000 0.500000 0.741333
O O14 0.000000 0.600966 0.500000
#
# Coordination Sequence:
#
# PCOD8290014 Si02
#       5
#    16  16  16  16   8
#     4   9  17  30  49  71  95 126 162 198 240 295
#     4  10  20  33  50  72  98 127 160 200 245 294
#     4   8  15  29  48  68  92 124 160 198 240 283
#     4  10  20  33  49  69  95 127 161 200 245 289
#     4   9  16  26  44  72 102 127 155 197 248 299
#
# _framework density 17.7545
#
# number of rings (size 3 to 8) (size 9 to 14) (size 15 to 20)
#    0.000    2.778    0.000    3.333    0.000    3.556 
#    0.000    3.333    0.000   21.333    0.000    0.000 
#    0.000    7.111    0.000    0.000    0.000    0.000 
#
# Total GULP energy -446010.874536 kJ/mol
# GULP energy per Si atom -12389.190959 kJ/mol
# Density = 1.771409 g / cm^3
# Si number density = 17.754500 Si / 1000 Ang^3
#
#
#
# Elastic Constant Matrix: (Units=GPa)
#
#
# Indices 1 2 3 4 5 6 
#
# 1 161.3302 67.2364 29.2737 0.0000 0.0000 0.0000
# 2 67.2364 126.5395 23.8481 0.0000 0.0000 0.0000
# 3 29.2737 23.8481 46.8447 0.0000 0.0000 0.0000
# 4 0.0000 0.0000 0.0000 16.5759 0.0000 0.0000
# 5 0.0000 0.0000 0.0000 0.0000 23.0668 0.0000
# 6 0.0000 0.0000 0.0000 0.0000 0.0000 12.0816
#
#
#
# Elastic Compliance Matrix: (Units=1/GPa)
#
#
# Indices 1 2 3 4 5 6 
#
# 1 0.008397 -0.003841 -0.003292 0.000000 0.000000 0.000000
# 2 -0.003841 0.010499 -0.002944 0.000000 0.000000 0.000000
# 3 -0.003292 -0.002944 0.024903 0.000000 0.000000 0.000000
# 4 0.000000 0.000000 0.000000 0.060328 0.000000 0.000000
# 5 0.000000 0.000000 0.000000 0.000000 0.043352 0.000000
# 6 0.000000 0.000000 0.000000 0.000000 0.000000 0.082770
#
#
# Mechanical properties :
#
#
# Convention : Reuss Voigt Hill
#
# Bulk Modulus (GPa) = 42.29411 63.93677 53.11544
# Shear Modulus (GPa) = 19.35850 24.63530 21.99690
#
# Velocity S-wave (km/s) = 3.30562 3.72903 3.52369
# Velocity P-wave (km/s) = 6.20023 7.39125 6.82178
#
# Compressibility (1/GPa) = 0.02364395
#
# Stress axis : x y z
#
# Youngs Moduli (GPa) = 119.09605 95.25129 40.15580
#
# Poissons Ratio (x) = 0.36587 0.13218
# Poissons Ratio (y) = 0.45747 0.11823
# Poissons Ratio (z) = 0.39202 0.28045
#
# Static dielectric constant tensor:
#      x y z
#    x 26.204100 0.000000 0.000000 
#    y 0.000000 3.078530 0.000000 
#    z 0.000000 0.000000 3.286060 
# 
# 
# High freq. dielectric constant tensor:
#      x y z
#    x 1.686600 0.000000 0.000000 
#    y 0.000000 1.681630 0.000000 
#    z 0.000000 0.000000 1.663650 
# 
# From -- ./inp_files/6482.got.cif
#   From: 2010.06.25/outbox.cif.g09.slc.cpg/sg71_4_cif.got.tgz:6482.got - 2010.06.28 04:59:45.
