data_PCOD8290500
_publ_section_title
;
Structure prediction by ZEFSAII (Michael W. Deem and Ramdas Pophale) SiO2 
 PCOD8290500
Probable space group: I M M M
;
_chemical_formula_sum "Si O2"
_cell_formula_units_Z 96
_cell_length_a 20.108743
_cell_length_b 9.118338
_cell_length_c 27.854108
_cell_angle_alpha 90.000000
_cell_angle_beta 90.000000
_cell_angle_gamma 90.000000
_cell_volume 5107.282321
_symmetry_space_group_name_H-M "I M M M"
_symmetry_group_IT_number 71
_symmetry_cell_setting 'orthorhombic'
loop_
_space_group_symop_operation_xyz
x,y,z
-x,-y,z
x,-y,-z
-x,y,-z
-x,-y,-z
x,y,-z
-x,y,z
x,-y,z
1/2+x,1/2+y,1/2+z
1/2-x,1/2-y,1/2+z
1/2+x,1/2-y,1/2-z
1/2-x,1/2+y,1/2-z
1/2-x,1/2-y,1/2-z
1/2+x,1/2+y,1/2-z
1/2-x,1/2+y,1/2+z
1/2+x,1/2-y,1/2+z
loop_
_atom_site_type_symbol
_atom_site_label
_atom_site_fract_x
_atom_site_fract_y
_atom_site_fract_z
Si Si1 0.806195 0.828271 0.883024
Si Si2 0.923046 0.170960 0.378826
Si Si3 0.573767 0.326074 0.553433
Si Si4 0.196304 0.327833 0.782708
Si Si5 0.176690 0.330727 0.444745
Si Si6 0.424703 0.830124 0.782579
O O1 0.872115 0.766402 0.909233
O O2 0.797104 0.735489 0.835474
O O3 0.744927 0.796057 0.917790
O O4 0.811808 0.000000 0.870200
O O5 0.882671 0.235290 0.423258
O O6 0.899077 0.242239 0.328936
O O7 0.000000 0.206891 0.388165
O O8 0.908980 0.000000 0.374984
O O9 0.587632 0.263112 0.500000
O O10 0.500000 0.278181 0.570663
O O11 0.579402 0.500000 0.551025
O O12 0.211047 0.500000 0.783494
O O13 0.250000 0.250000 0.750000
O O14 0.122675 0.293659 0.762244
O O15 0.186445 0.286691 0.500000
O O16 0.156983 0.500000 0.439199
O O17 0.500000 0.784333 0.768409
O O18 0.420565 0.000000 0.796616
#
# Coordination Sequence:
#
# PCOD8290500 Si02
#       6
#    16  16  16  16  16  16
#     4  10  20  34  53  78 107 137 172 216 260 301
#     4  10  21  36  55  80 107 133 165 211 264 311
#     4   8  14  27  50  79 108 138 173 212 253 298
#     4  11  23  37  54  77 105 137 173 214 259 308
#     4  10  21  36  54  76 103 138 178 215 252 301
#     4   9  19  37  58  77 101 137 177 212 250 303
#
# _framework density 18.796690999999999
#
# number of rings (size 3 to 8) (size 9 to 14) (size 15 to 20)
#    0.000    2.333    0.000    3.000    0.000   10.333 
#    0.000    1.667    0.000    1.500    0.000    1.167 
#    0.000    0.000    0.000    0.000    0.000    0.000 
#
# Total GULP energy -595284.253847 kJ/mol
# GULP energy per Si atom -12401.755288 kJ/mol
# Density = 1.875391 g / cm^3
# Si number density = 18.796691 Si / 1000 Ang^3
#
#
#
# Elastic Constant Matrix: (Units=GPa)
#
#
# Indices 1 2 3 4 5 6 
#
# 1 85.9446 45.1926 48.8047 0.0000 0.0000 0.0000
# 2 45.1926 67.9918 53.0870 0.0000 0.0000 0.0000
# 3 48.8047 53.0870 120.5200 0.0000 0.0000 0.0000
# 4 0.0000 0.0000 0.0000 27.9567 0.0000 0.0000
# 5 0.0000 0.0000 0.0000 0.0000 39.2245 0.0000
# 6 0.0000 0.0000 0.0000 0.0000 0.0000 19.7711
#
#
#
# Elastic Compliance Matrix: (Units=1/GPa)
#
#
# Indices 1 2 3 4 5 6 
#
# 1 0.018659 -0.009911 -0.003190 0.000000 0.000000 0.000000
# 2 -0.009911 0.027682 -0.008180 0.000000 0.000000 0.000000
# 3 -0.003190 -0.008180 0.013192 0.000000 0.000000 0.000000
# 4 0.000000 0.000000 0.000000 0.035770 0.000000 0.000000
# 5 0.000000 0.000000 0.000000 0.000000 0.025494 0.000000
# 6 0.000000 0.000000 0.000000 0.000000 0.000000 0.050579
#
#
# Mechanical properties :
#
#
# Convention : Reuss Voigt Hill
#
# Bulk Modulus (GPa) = 58.92538 63.18055 61.05297
# Shear Modulus (GPa) = 22.76915 25.88193 24.32554
#
# Velocity S-wave (km/s) = 3.48420 3.71474 3.60132
# Velocity P-wave (km/s) = 6.89950 7.21697 7.06002
#
# Compressibility (1/GPa) = 0.01697062
#
# Stress axis : x y z
#
# Youngs Moduli (GPa) = 53.59465 36.12430 75.80137
#
# Poissons Ratio (x) = 0.35803 0.24182
# Poissons Ratio (y) = 0.53118 0.62006
# Poissons Ratio (z) = 0.17097 0.29550
#
# Static dielectric constant tensor:
#      x y z
#    x 3.803370 0.000000 0.000000 
#    y 0.000000 3.273810 0.000000 
#    z 0.000000 0.000000 3.371290 
# 
# 
# High freq. dielectric constant tensor:
#      x y z
#    x 1.744280 0.000000 0.000000 
#    y 0.000000 1.709500 0.000000 
#    z 0.000000 0.000000 1.731850 
# 
# From -- ./inp_files/10912.got.cif
#   From: 2010.06.25/outbox.cif.g09.slc.cpg/sg71_6_cif.got.tgz:10912.got - 2010.06.28 04:59:45.
