data_PCOD8290539
_publ_section_title
;
Structure prediction by ZEFSAII (Michael W. Deem and Ramdas Pophale) SiO2 
 PCOD8290539
Probable space group: I M M M
;
_chemical_formula_sum "Si O2"
_cell_formula_units_Z 88
_cell_length_a 23.996502
_cell_length_b 8.640303
_cell_length_c 21.739485
_cell_angle_alpha 90.000000
_cell_angle_beta 90.000000
_cell_angle_gamma 90.000000
_cell_volume 4507.400650
_symmetry_space_group_name_H-M "I M M M"
_symmetry_group_IT_number 71
_symmetry_cell_setting 'orthorhombic'
loop_
_space_group_symop_operation_xyz
x,y,z
-x,-y,z
x,-y,-z
-x,y,-z
-x,-y,-z
x,y,-z
-x,y,z
x,-y,z
1/2+x,1/2+y,1/2+z
1/2-x,1/2-y,1/2+z
1/2+x,1/2-y,1/2-z
1/2-x,1/2+y,1/2-z
1/2-x,1/2-y,1/2-z
1/2+x,1/2+y,1/2-z
1/2-x,1/2+y,1/2+z
1/2+x,1/2-y,1/2+z
loop_
_atom_site_type_symbol
_atom_site_label
_atom_site_fract_x
_atom_site_fract_y
_atom_site_fract_z
Si Si1 0.434728 0.317028 0.500000
Si Si2 0.191332 0.819420 0.225985
Si Si3 0.733358 0.325172 0.932914
Si Si4 0.561284 0.183508 0.932126
Si Si5 0.654576 0.819094 0.157110
Si Si6 0.645134 0.823468 0.600584
O O1 0.429816 0.500000 0.500000
O O2 0.500000 0.265355 0.500000
O O3 0.405021 0.256773 0.562667
O O4 0.250000 0.750000 0.250000
O O5 0.149017 0.778956 0.280894
O O6 0.161745 0.751848 0.165732
O O7 0.200199 0.000000 0.216507
O O8 0.716456 0.500000 0.914202
O O9 0.712404 0.209368 0.879794
O O10 0.799629 0.312621 0.940412
O O11 0.708148 0.281009 0.000000
O O12 0.500000 0.231922 0.909106
O O13 0.605965 0.251175 0.885249
O O14 0.567002 0.000000 0.934806
O O15 0.572289 0.252212 0.000000
O O16 0.648919 0.000000 0.171970
O O17 0.626985 0.000000 0.612565
#
# Coordination Sequence:
#
# PCOD8290539 Si02
#       6
#     8  16  16  16  16  16
#     4  11  25  45  69  97 129 165 206 257 314 369
#     4  12  24  39  58  84 120 161 199 243 303 369
#     4  10  20  34  53  81 118 154 189 239 299 356
#     4   8  15  30  52  79 112 148 189 237 281 327
#     4  11  21  33  54  85 117 154 198 241 291 355
#     4  11  22  40  64  90 119 155 201 250 304 366
#
# _framework density 19.523447000000001
#
# number of rings (size 3 to 8) (size 9 to 14) (size 15 to 20)
#    0.000    1.545    2.727    4.091    0.000    2.545 
#    0.000    0.909    0.000    5.455    0.000    6.364 
#    0.000    0.000    0.000    0.000    0.000    0.000 
#
# Total GULP energy -545297.574986 kJ/mol
# GULP energy per Si atom -12393.126704 kJ/mol
# Density = 1.947901 g / cm^3
# Si number density = 19.523447 Si / 1000 Ang^3
#
#
#
# Elastic Constant Matrix: (Units=GPa)
#
#
# Indices 1 2 3 4 5 6 
#
# 1 112.5676 36.8851 60.0654 0.0000 0.0000 0.0000
# 2 36.8851 96.7327 49.2257 0.0000 0.0000 0.0000
# 3 60.0654 49.2257 151.1769 0.0000 0.0000 0.0000
# 4 0.0000 0.0000 0.0000 35.1289 0.0000 0.0000
# 5 0.0000 0.0000 0.0000 0.0000 14.5107 0.0000
# 6 0.0000 0.0000 0.0000 0.0000 0.0000 18.7152
#
#
#
# Elastic Compliance Matrix: (Units=1/GPa)
#
#
# Indices 1 2 3 4 5 6 
#
# 1 0.011767 -0.002526 -0.003853 0.000000 0.000000 0.000000
# 2 -0.002526 0.012933 -0.003208 0.000000 0.000000 0.000000
# 3 -0.003853 -0.003208 0.009190 0.000000 0.000000 0.000000
# 4 0.000000 0.000000 0.000000 0.028467 0.000000 0.000000
# 5 0.000000 0.000000 0.000000 0.000000 0.068915 0.000000
# 6 0.000000 0.000000 0.000000 0.000000 0.000000 0.053433
#
#
# Mechanical properties :
#
#
# Convention : Reuss Voigt Hill
#
# Bulk Modulus (GPa) = 67.94740 72.53662 70.24201
# Shear Modulus (GPa) = 23.94829 27.95768 25.95299
#
# Velocity S-wave (km/s) = 3.50615 3.78829 3.64994
# Velocity P-wave (km/s) = 7.16026 7.50794 7.33616
#
# Compressibility (1/GPa) = 0.01471727
#
# Stress axis : x y z
#
# Youngs Moduli (GPa) = 84.98256 77.31942 108.81461
#
# Poissons Ratio (x) = 0.19534 0.41923
# Poissons Ratio (y) = 0.21470 0.34903
# Poissons Ratio (z) = 0.32741 0.24801
#
# Static dielectric constant tensor:
#      x y z
#    x 3.632930 0.000000 0.000000 
#    y 0.000000 3.416100 0.000000 
#    z 0.000000 0.000000 3.942130 
# 
# 
# High freq. dielectric constant tensor:
#      x y z
#    x 1.743660 0.000000 0.000000 
#    y 0.000000 1.748130 0.000000 
#    z 0.000000 0.000000 1.774410 
# 
# From -- ./inp_files/55546.got.cif
#   From: 2010.06.25/outbox.cif.g09.slc.cpg/sg71_28_cif.got.tgz:55546.got - 2010.06.28 04:59:45.
