data_PCOD8290432
_publ_section_title
;
Structure prediction by ZEFSAII (Michael W. Deem and Ramdas Pophale) SiO2 
 PCOD8290432
Probable space group: I M M M
;
_chemical_formula_sum "Si O2"
_cell_formula_units_Z 72
_cell_length_a 18.689972
_cell_length_b 10.299781
_cell_length_c 19.882063
_cell_angle_alpha 90.000000
_cell_angle_beta 90.000000
_cell_angle_gamma 90.000000
_cell_volume 3827.349189
_symmetry_space_group_name_H-M "I M M M"
_symmetry_group_IT_number 71
_symmetry_cell_setting 'orthorhombic'
loop_
_space_group_symop_operation_xyz
x,y,z
-x,-y,z
x,-y,-z
-x,y,-z
-x,-y,-z
x,y,-z
-x,y,z
x,-y,z
1/2+x,1/2+y,1/2+z
1/2-x,1/2-y,1/2+z
1/2+x,1/2-y,1/2-z
1/2-x,1/2+y,1/2-z
1/2-x,1/2-y,1/2-z
1/2+x,1/2+y,1/2-z
1/2-x,1/2+y,1/2+z
1/2+x,1/2-y,1/2+z
loop_
_atom_site_type_symbol
_atom_site_label
_atom_site_fract_x
_atom_site_fract_y
_atom_site_fract_z
Si Si1 0.581614 0.143151 0.697672
Si Si2 0.919857 0.000000 0.078993
Si Si3 0.583256 0.648985 0.805098
Si Si4 0.340855 0.759715 0.422548
Si Si5 0.813056 0.851220 0.424938
O O1 0.500000 0.176701 0.680140
O O2 0.612099 0.253114 0.747981
O O3 0.624849 0.136422 0.627788
O O4 0.588440 0.000000 0.731105
O O5 0.874067 0.123455 0.101616
O O6 0.000000 0.000000 0.112264
O O7 0.929566 0.000000 0.000000
O O8 0.500000 0.673116 0.819887
O O9 0.597469 0.500000 0.782455
O O10 0.624551 0.684180 0.873336
O O11 0.360589 0.793304 0.500000
O O12 0.255331 0.758779 0.412905
O O13 0.843713 0.828721 0.500000
O O14 0.787593 0.000000 0.416108
#
# Coordination Sequence:
#
# PCOD8290432 Si02
#       5
#    16   8  16  16  16
#     4  10  21  35  52  77 108 142 179 221 268 319
#     4   9  18  32  50  74 105 141 180 220 259 304
#     4   9  19  36  57  80 106 140 182 225 272 325
#     4  10  20  34  52  77 108 142 179 221 268 318
#     4   9  18  34  56  81 108 137 174 225 276 322
#
# _framework density 18.811976000000001
#
# number of rings (size 3 to 8) (size 9 to 14) (size 15 to 20)
#    0.000    2.556    0.000    1.333    1.556    4.000 
#    2.000    3.333    0.000    0.000    0.000    3.111 
#    0.000    0.000    0.000    0.000    0.000    0.000 
#
# Total GULP energy -446297.004177 kJ/mol
# GULP energy per Si atom -12397.139005 kJ/mol
# Density = 1.876916 g / cm^3
# Si number density = 18.811976 Si / 1000 Ang^3
#
#
#
# Elastic Constant Matrix: (Units=GPa)
#
#
# Indices 1 2 3 4 5 6 
#
# 1 80.1407 44.2833 57.6189 0.0000 0.0000 0.0000
# 2 44.2833 93.7900 54.7801 0.0000 0.0000 0.0000
# 3 57.6189 54.7801 119.7947 0.0000 0.0000 0.0000
# 4 0.0000 0.0000 0.0000 23.0886 0.0000 0.0000
# 5 0.0000 0.0000 0.0000 0.0000 33.7745 0.0000
# 6 0.0000 0.0000 0.0000 0.0000 0.0000 28.3301
#
#
#
# Elastic Compliance Matrix: (Units=1/GPa)
#
#
# Indices 1 2 3 4 5 6 
#
# 1 0.020943 -0.005464 -0.007575 0.000000 0.000000 0.000000
# 2 -0.005464 0.015973 -0.004676 0.000000 0.000000 0.000000
# 3 -0.007575 -0.004676 0.014129 0.000000 0.000000 0.000000
# 4 0.000000 0.000000 0.000000 0.043311 0.000000 0.000000
# 5 0.000000 0.000000 0.000000 0.000000 0.029608 0.000000
# 6 0.000000 0.000000 0.000000 0.000000 0.000000 0.035298
#
#
# Mechanical properties :
#
#
# Convention : Reuss Voigt Hill
#
# Bulk Modulus (GPa) = 64.03792 67.45446 65.74619
# Shear Modulus (GPa) = 25.01263 26.17485 25.59374
#
# Velocity S-wave (km/s) = 3.65034 3.73418 3.69250
# Velocity P-wave (km/s) = 7.20289 7.38425 7.29413
#
# Compressibility (1/GPa) = 0.01561575
#
# Stress axis : x y z
#
# Youngs Moduli (GPa) = 47.74765 62.60442 70.77579
#
# Poissons Ratio (x) = 0.34210 0.53610
# Poissons Ratio (y) = 0.26091 0.33095
# Poissons Ratio (z) = 0.36167 0.29274
#
# Static dielectric constant tensor:
#      x y z
#    x 3.308770 0.000000 0.000000 
#    y 0.000000 3.495800 0.000000 
#    z 0.000000 0.000000 3.395870 
# 
# 
# High freq. dielectric constant tensor:
#      x y z
#    x 1.719750 0.000000 0.000000 
#    y 0.000000 1.725560 0.000000 
#    z 0.000000 0.000000 1.724780 
# 
# From -- ./inp_files/23488.got.cif
#   From: 2010.06.25/outbox.cif.g09.slc.cpg/sg71_12_cif.got.tgz:23488.got - 2010.06.28 04:59:45.
