data_PCOD8290396
_publ_section_title
;
Structure prediction by ZEFSAII (Michael W. Deem and Ramdas Pophale) SiO2 
 PCOD8290396
Probable space group: I M M M
;
_chemical_formula_sum "Si O2"
_cell_formula_units_Z 64
_cell_length_a 14.065816
_cell_length_b 28.083233
_cell_length_c 9.199276
_cell_angle_alpha 90.000000
_cell_angle_beta 90.000000
_cell_angle_gamma 90.000000
_cell_volume 3633.839020
_symmetry_space_group_name_H-M "I M M M"
_symmetry_group_IT_number 71
_symmetry_cell_setting 'orthorhombic'
loop_
_space_group_symop_operation_xyz
x,y,z
-x,-y,z
x,-y,-z
-x,y,-z
-x,-y,-z
x,y,-z
-x,y,z
x,-y,z
1/2+x,1/2+y,1/2+z
1/2-x,1/2-y,1/2+z
1/2+x,1/2-y,1/2-z
1/2-x,1/2+y,1/2-z
1/2-x,1/2-y,1/2-z
1/2+x,1/2+y,1/2-z
1/2-x,1/2+y,1/2+z
1/2+x,1/2-y,1/2+z
loop_
_atom_site_type_symbol
_atom_site_label
_atom_site_fract_x
_atom_site_fract_y
_atom_site_fract_z
Si Si1 0.607914 0.622588 0.668895
Si Si2 0.609170 0.130651 0.668468
Si Si3 0.261626 0.200385 0.829118
Si Si4 0.762047 0.946265 0.669751
O O1 0.615359 0.610564 0.500000
O O2 0.500000 0.632466 0.717530
O O3 0.668328 0.669431 0.707604
O O4 0.647064 0.576742 0.752819
O O5 0.623211 0.144567 0.500000
O O6 0.500000 0.120641 0.706168
O O7 0.645474 0.174240 0.766251
O O8 0.666465 0.082743 0.707976
O O9 0.250000 0.250000 0.750000
O O10 0.275025 0.208440 0.000000
O O11 0.783393 0.945247 0.500000
O O12 0.747860 0.000000 0.726353
#
# Coordination Sequence:
#
# PCOD8290396 Si02
#       4
#    16  16  16  16
#     4   9  19  35  52  70  95 129 166 201 239 288
#     4   9  18  33  52  73  99 132 167 202 242 290
#     4  10  20  34  52  74 100 129 163 204 249 295
#     4   9  18  32  50  74 102 129 160 201 246 289
#
# _framework density 17.612227000000001
#
# number of rings (size 3 to 8) (size 9 to 14) (size 15 to 20)
#    0.000    2.750    0.000    0.750    0.000    4.500 
#    0.000    7.500    0.000    0.000    0.000    7.000 
#    0.000    0.000    0.000    0.000    0.000    0.000 
#
# Total GULP energy -396867.040098 kJ/mol
# GULP energy per Si atom -12402.095003 kJ/mol
# Density = 1.757214 g / cm^3
# Si number density = 17.612227 Si / 1000 Ang^3
#
#
#
# Elastic Constant Matrix: (Units=GPa)
#
#
# Indices 1 2 3 4 5 6 
#
# 1 130.9667 58.9247 44.0794 0.0006 -0.0002 -0.0003
# 2 58.9247 150.8664 59.3057 -0.0024 -0.0003 -0.0001
# 3 44.0794 59.3057 60.8551 -0.0053 -0.0002 -0.0003
# 4 0.0006 -0.0024 -0.0053 30.7713 -0.0002 -0.0002
# 5 -0.0002 -0.0003 -0.0002 -0.0002 29.0000 0.0001
# 6 -0.0003 -0.0001 -0.0003 -0.0002 0.0001 14.3203
#
#
#
# Elastic Compliance Matrix: (Units=1/GPa)
#
#
# Indices 1 2 3 4 5 6 
#
# 1 0.010384 -0.001782 -0.005785 -0.000001 0.000000 0.000000
# 2 -0.001782 0.011050 -0.009478 -0.000001 0.000000 0.000000
# 3 -0.005785 -0.009478 0.029860 0.000005 0.000000 0.000000
# 4 -0.000001 -0.000001 0.000005 0.032498 0.000000 0.000000
# 5 0.000000 0.000000 0.000000 0.000000 0.034483 0.000000
# 6 0.000000 0.000000 0.000000 0.000000 0.000000 0.069831
#
#
# Mechanical properties :
#
#
# Convention : Reuss Voigt Hill
#
# Bulk Modulus (GPa) = 58.12686 74.14533 66.13609
# Shear Modulus (GPa) = 21.93642 26.84356 24.38999
#
# Velocity S-wave (km/s) = 3.53302 3.90826 3.72537
# Velocity P-wave (km/s) = 7.05112 7.90925 7.49248
#
# Compressibility (1/GPa) = 0.01720375
#
# Stress axis : x y z
#
# Youngs Moduli (GPa) = 96.29901 90.49630 33.48947
#
# Poissons Ratio (x) = 0.16123 0.19375
# Poissons Ratio (y) = 0.17156 0.31743
# Poissons Ratio (z) = 0.55714 0.85776
#
# Static dielectric constant tensor:
#      x y z
#    x 3.400400 0.000000 0.000010 
#    y 0.000000 3.357310 -0.000010 
#    z 0.000010 -0.000010 3.224960 
# 
# 
# High freq. dielectric constant tensor:
#      x y z
#    x 1.681600 0.000000 0.000000 
#    y 0.000000 1.681750 0.000000 
#    z 0.000000 0.000000 1.680360 
# 
# From -- ./inp_files/5458.got.cif
#   From: 2010.06.25/outbox.cif.g09.slc.cpg/sg71_3_cif.got.tgz:5458.got - 2010.06.28 04:59:45.
