data_PCOD8290723
_publ_section_title
;
Structure prediction by ZEFSAII (Michael W. Deem and Ramdas Pophale) SiO2 
 PCOD8290723
Probable space group: I M M M
;
_chemical_formula_sum "Si O2"
_cell_formula_units_Z 80
_cell_length_a 28.674129
_cell_length_b 8.826440
_cell_length_c 15.562829
_cell_angle_alpha 90.000000
_cell_angle_beta 90.000000
_cell_angle_gamma 90.000000
_cell_volume 3938.803849
_symmetry_space_group_name_H-M "I M M M"
_symmetry_group_IT_number 71
_symmetry_cell_setting 'orthorhombic'
loop_
_space_group_symop_operation_xyz
x,y,z
-x,-y,z
x,-y,-z
-x,y,-z
-x,-y,-z
x,y,-z
-x,y,z
x,-y,z
1/2+x,1/2+y,1/2+z
1/2-x,1/2-y,1/2+z
1/2+x,1/2-y,1/2-z
1/2-x,1/2+y,1/2-z
1/2-x,1/2-y,1/2-z
1/2+x,1/2+y,1/2-z
1/2-x,1/2+y,1/2+z
1/2+x,1/2-y,1/2+z
loop_
_atom_site_type_symbol
_atom_site_label
_atom_site_fract_x
_atom_site_fract_y
_atom_site_fract_z
Si Si1 0.699548 0.178661 0.247292
Si Si2 0.136635 0.325266 0.095187
Si Si3 0.642445 0.673965 0.903643
Si Si4 0.552210 0.325967 0.667960
Si Si5 0.447391 0.176971 0.848849
O O1 0.750000 0.250000 0.250000
O O2 0.672399 0.234294 0.332636
O O3 0.672764 0.227866 0.161643
O O4 0.704854 0.000000 0.246862
O O5 0.124173 0.500000 0.112067
O O6 0.089107 0.228040 0.097252
O O7 0.158668 0.303233 0.000000
O O8 0.644294 0.500000 0.874076
O O9 0.588940 0.730013 0.906087
O O10 0.662747 0.692491 0.000000
O O11 0.500000 0.304816 0.630874
O O12 0.561061 0.500000 0.693853
O O13 0.560222 0.220965 0.750265
O O14 0.500000 0.217009 0.878796
O O15 0.437111 0.000000 0.859517
#
# Coordination Sequence:
#
# PCOD8290723 Si02
#       5
#    16  16  16  16  16
#     4  11  24  43  67  92 121 159 200 252 312 367
#     4  10  22  40  62  89 121 159 202 246 298 362
#     4  11  24  41  63  92 126 163 204 253 307 362
#     4  10  20  34  56  87 123 162 203 247 296 353
#     4  10  20  35  58  88 123 164 207 250 300 360
#
# _framework density 20.310735000000001
#
# number of rings (size 3 to 8) (size 9 to 14) (size 15 to 20)
#    0.000    1.600    2.000    2.400    0.000    6.800 
#    0.000    6.000    0.000    0.000    0.000    0.000 
#    0.000    0.000    0.000    0.000    0.000    0.000 
#
# Total GULP energy -496073.511542 kJ/mol
# GULP energy per Si atom -12401.837789 kJ/mol
# Density = 2.026451 g / cm^3
# Si number density = 20.310735 Si / 1000 Ang^3
#
#
#
# Elastic Constant Matrix: (Units=GPa)
#
#
# Indices 1 2 3 4 5 6 
#
# 1 132.3830 44.1853 58.7307 0.0000 0.0000 0.0000
# 2 44.1853 68.9203 33.2155 0.0000 0.0000 0.0000
# 3 58.7307 33.2155 115.3326 0.0000 0.0000 0.0000
# 4 0.0000 0.0000 0.0000 28.7560 0.0000 0.0000
# 5 0.0000 0.0000 0.0000 0.0000 12.7103 0.0000
# 6 0.0000 0.0000 0.0000 0.0000 0.0000 38.9966
#
#
#
# Elastic Compliance Matrix: (Units=1/GPa)
#
#
# Indices 1 2 3 4 5 6 
#
# 1 0.011118 -0.005108 -0.004190 0.000000 0.000000 0.000000
# 2 -0.005108 0.019195 -0.002927 0.000000 0.000000 0.000000
# 3 -0.004190 -0.002927 0.011647 0.000000 0.000000 0.000000
# 4 0.000000 0.000000 0.000000 0.034775 0.000000 0.000000
# 5 0.000000 0.000000 0.000000 0.000000 0.078676 0.000000
# 6 0.000000 0.000000 0.000000 0.000000 0.000000 0.025643
#
#
# Mechanical properties :
#
#
# Convention : Reuss Voigt Hill
#
# Bulk Modulus (GPa) = 57.11250 65.43323 61.27286
# Shear Modulus (GPa) = 23.65833 28.12623 25.89228
#
# Velocity S-wave (km/s) = 3.41665 3.72532 3.57432
# Velocity P-wave (km/s) = 6.61400 7.12671 6.87514
#
# Compressibility (1/GPa) = 0.01750930
#
# Stress axis : x y z
#
# Youngs Moduli (GPa) = 89.94565 52.09691 85.85634
#
# Poissons Ratio (x) = 0.26612 0.35977
# Poissons Ratio (y) = 0.45946 0.25129
# Poissons Ratio (z) = 0.37691 0.15248
#
# Static dielectric constant tensor:
#      x y z
#    x 3.838080 0.000000 0.000000 
#    y 0.000000 3.698580 0.000000 
#    z 0.000000 0.000000 3.594050 
# 
# 
# High freq. dielectric constant tensor:
#      x y z
#    x 1.790660 0.000000 0.000000 
#    y 0.000000 1.800830 0.000000 
#    z 0.000000 0.000000 1.788850 
# 
# From -- ./inp_files/49127.got.cif
#   From: 2010.06.25/outbox.cif.g09.slc.cpg/sg71_25_cif.got.tgz:49127.got - 2010.06.28 04:59:45.
