data_PCOD8290222
_publ_section_title
;
Structure prediction by ZEFSAII (Michael W. Deem and Ramdas Pophale) SiO2 
 PCOD8290222
Probable space group: I M M M
;
_chemical_formula_sum "Si O2"
_cell_formula_units_Z 88
_cell_length_a 30.362751
_cell_length_b 16.885585
_cell_length_c 8.929314
_cell_angle_alpha 90.000000
_cell_angle_beta 90.000000
_cell_angle_gamma 90.000000
_cell_volume 4577.995111
_symmetry_space_group_name_H-M "I M M M"
_symmetry_group_IT_number 71
_symmetry_cell_setting 'orthorhombic'
loop_
_space_group_symop_operation_xyz
x,y,z
-x,-y,z
x,-y,-z
-x,y,-z
-x,-y,-z
x,y,-z
-x,y,z
x,-y,z
1/2+x,1/2+y,1/2+z
1/2-x,1/2-y,1/2+z
1/2+x,1/2-y,1/2-z
1/2-x,1/2+y,1/2-z
1/2-x,1/2-y,1/2-z
1/2+x,1/2+y,1/2-z
1/2-x,1/2+y,1/2+z
1/2+x,1/2-y,1/2+z
loop_
_atom_site_type_symbol
_atom_site_label
_atom_site_fract_x
_atom_site_fract_y
_atom_site_fract_z
Si Si1 0.293371 0.591617 0.824239
Si Si2 0.206850 0.590260 0.663970
Si Si3 0.624137 0.697481 0.822358
Si Si4 0.050495 0.500000 0.822405
Si Si5 0.451608 0.412479 0.177502
Si Si6 0.880902 0.367720 0.822458
O O1 0.304673 0.500000 0.780900
O O2 0.249666 0.626564 0.745045
O O3 0.331910 0.651185 0.773048
O O4 0.285435 0.596877 0.000000
O O5 0.199279 0.631329 0.500000
O O6 0.218510 0.500000 0.637078
O O7 0.164247 0.593854 0.767575
O O8 0.583962 0.646801 0.755925
O O9 0.617516 0.781391 0.746736
O O10 0.622226 0.707981 0.000000
O O11 0.077506 0.578299 0.768478
O O12 0.000000 0.500000 0.757644
O O13 0.048221 0.500000 0.000000
O O14 0.500000 0.381712 0.223252
O O15 0.443503 0.500000 0.243998
O O16 0.446767 0.416784 0.000000
O O17 0.880203 0.362761 0.000000
#
# Coordination Sequence:
#
# PCOD8290222 Si02
#       6
#    16  16  16   8  16  16
#     4   9  18  33  54  79 109 148 188 221 260 316
#     4  10  20  35  57  81 107 138 177 226 275 322
#     4  10  20  33  51  80 115 144 177 226 273 315
#     4   9  20  40  63  83 103 135 183 231 274 329
#     4   8  14  27  50  78 107 142 181 218 261 315
#     4  11  22  37  58  80 105 141 180 220 270 329
#
# _framework density 19.222387999999999
#
# number of rings (size 3 to 8) (size 9 to 14) (size 15 to 20)
#    0.000    2.455    0.909    2.182    0.000    5.091 
#    0.000    0.000    0.000    5.455    0.000    1.273 
#    0.000    0.000    0.000    0.000    0.000    0.000 
#
# Total GULP energy -545274.133840 kJ/mol
# GULP energy per Si atom -12392.593951 kJ/mol
# Density = 1.917864 g / cm^3
# Si number density = 19.222388 Si / 1000 Ang^3
#
#
#
# Elastic Constant Matrix: (Units=GPa)
#
#
# Indices 1 2 3 4 5 6 
#
# 1 184.6633 80.1915 42.2744 0.0000 0.0000 0.0000
# 2 80.1915 108.7029 31.7799 0.0000 0.0000 0.0000
# 3 42.2744 31.7799 41.3846 0.0000 0.0000 0.0000
# 4 0.0000 0.0000 0.0000 25.2511 0.0000 0.0000
# 5 0.0000 0.0000 0.0000 0.0000 12.5627 0.0000
# 6 0.0000 0.0000 0.0000 0.0000 0.0000 9.9256
#
#
#
# Elastic Compliance Matrix: (Units=1/GPa)
#
#
# Indices 1 2 3 4 5 6 
#
# 1 0.008737 -0.004947 -0.005126 0.000000 0.000000 0.000000
# 2 -0.004947 0.014663 -0.006207 0.000000 0.000000 0.000000
# 3 -0.005126 -0.006207 0.034167 0.000000 0.000000 0.000000
# 4 0.000000 0.000000 0.000000 0.039602 0.000000 0.000000
# 5 0.000000 0.000000 0.000000 0.000000 0.079601 0.000000
# 6 0.000000 0.000000 0.000000 0.000000 0.000000 0.100750
#
#
# Mechanical properties :
#
#
# Convention : Reuss Voigt Hill
#
# Bulk Modulus (GPa) = 39.98910 71.47139 55.73024
# Shear Modulus (GPa) = 15.70278 21.58155 18.64216
#
# Velocity S-wave (km/s) = 2.86125 3.35435 3.11756
# Velocity P-wave (km/s) = 5.63598 7.22940 6.48184
#
# Compressibility (1/GPa) = 0.02500681
#
# Stress axis : x y z
#
# Youngs Moduli (GPa) = 114.45702 68.19753 29.26843
#
# Poissons Ratio (x) = 0.33735 0.15003
# Poissons Ratio (y) = 0.56618 0.18167
# Poissons Ratio (z) = 0.58672 0.42331
#
# Static dielectric constant tensor:
#      x y z
#    x 3.844090 0.000000 0.000000 
#    y 0.000000 3.625030 0.000000 
#    z 0.000000 0.000000 3.351760 
# 
# 
# High freq. dielectric constant tensor:
#      x y z
#    x 1.759870 0.000000 0.000000 
#    y 0.000000 1.744870 0.000000 
#    z 0.000000 0.000000 1.717090 
# 
# From -- ./inp_files/16617.got.cif
#   From: 2010.06.25/outbox.cif.g09.slc.cpg/sg71_9_cif.got.tgz:16617.got - 2010.06.28 04:59:45.
