data_PCOD8290343
_publ_section_title
;
Structure prediction by ZEFSAII (Michael W. Deem and Ramdas Pophale) SiO2 
 PCOD8290343
Probable space group: I M M M
;
_chemical_formula_sum "Si O2"
_cell_formula_units_Z 120
_cell_length_a 14.208712
_cell_length_b 30.234622
_cell_length_c 14.698988
_cell_angle_alpha 90.000000
_cell_angle_beta 90.000000
_cell_angle_gamma 90.000000
_cell_volume 6314.612285
_symmetry_space_group_name_H-M "I M M M"
_symmetry_group_IT_number 71
_symmetry_cell_setting 'orthorhombic'
loop_
_space_group_symop_operation_xyz
x,y,z
-x,-y,z
x,-y,-z
-x,y,-z
-x,-y,-z
x,y,-z
-x,y,z
x,-y,z
1/2+x,1/2+y,1/2+z
1/2-x,1/2-y,1/2+z
1/2+x,1/2-y,1/2-z
1/2-x,1/2+y,1/2-z
1/2-x,1/2-y,1/2-z
1/2+x,1/2+y,1/2-z
1/2-x,1/2+y,1/2+z
1/2+x,1/2-y,1/2+z
loop_
_atom_site_type_symbol
_atom_site_label
_atom_site_fract_x
_atom_site_fract_y
_atom_site_fract_z
Si Si1 0.608071 0.692771 0.357083
Si Si2 0.500000 0.551798 0.600833
Si Si3 0.316647 0.552015 0.711797
Si Si4 0.101962 0.781215 0.660769
Si Si5 0.604725 0.181651 0.227007
Si Si6 0.394688 0.552399 0.099818
Si Si7 0.763866 0.374206 0.603337
Si Si8 0.695650 0.787455 0.401008
O O1 0.500000 0.692407 0.392252
O O2 0.612227 0.687131 0.248302
O O3 0.664085 0.651341 0.398198
O O4 0.658995 0.737793 0.387170
O O5 0.500000 0.500000 0.587910
O O6 0.500000 0.573940 0.500000
O O7 0.410135 0.566021 0.658206
O O8 0.293022 0.500000 0.703838
O O9 0.327415 0.567551 0.817406
O O10 0.236241 0.580650 0.662925
O O11 0.101899 0.732046 0.698628
O O12 0.190269 0.788487 0.595464
O O13 0.000000 0.790424 0.612401
O O14 0.500000 0.162305 0.239286
O O15 0.655974 0.155690 0.147333
O O16 0.657957 0.179003 0.324189
O O17 0.500000 0.571915 0.112963
O O18 0.402442 0.500000 0.104299
O O19 0.355017 0.567241 0.000000
O O20 0.792048 0.385963 0.500000
O O21 0.661626 0.804241 0.500000
#
# Coordination Sequence:
#
# PCOD8290343 Si02
#       8
#    16   8  16  16  16  16  16  16
#     4  10  20  34  51  75 111 148 185 228 271 317
#     4   9  16  28  45  67  99 141 182 216 261 325
#     4  10  20  34  50  73 108 144 182 230 279 333
#     4   9  17  33  56  78 110 150 180 218 269 322
#     4  10  21  39  58  78 105 137 182 234 282 329
#     4   8  13  25  48  74  98 130 174 217 258 313
#     4  12  24  36  54  79 106 141 188 236 283 332
#     4  11  19  33  57  83 114 147 183 221 268 332
#
# _framework density 19.003540999999998
#
# number of rings (size 3 to 8) (size 9 to 14) (size 15 to 20)
#    0.000    2.067    3.333    3.200    0.933    3.200 
#    0.000    2.000    0.000    0.400    0.000    0.933 
#    0.000    0.000    0.000    4.533    0.000    0.000 
#
# Total GULP energy -743549.329559 kJ/mol
# GULP energy per Si atom -12392.488826 kJ/mol
# Density = 1.896029 g / cm^3
# Si number density = 19.003541 Si / 1000 Ang^3
#
#
#
# Elastic Constant Matrix: (Units=GPa)
#
#
# Indices 1 2 3 4 5 6 
#
# 1 105.8338 16.2410 36.5002 0.0002 -0.0002 0.0000
# 2 16.2410 38.9595 34.4685 0.0001 -0.0002 0.0001
# 3 36.5002 34.4685 150.9652 -0.0049 0.0029 -0.0003
# 4 0.0002 0.0001 -0.0049 21.8512 0.0007 -0.0001
# 5 -0.0002 -0.0002 0.0029 0.0007 7.8381 0.0000
# 6 0.0000 0.0001 -0.0003 -0.0001 0.0000 -3.2349
#
#
#
# Elastic Compliance Matrix: (Units=1/GPa)
#
#
# Indices 1 2 3 4 5 6 
#
# 1 0.010527 -0.002677 -0.001934 -0.000001 0.000001 0.000000
# 2 -0.002677 0.032846 -0.006852 -0.000002 0.000003 0.000002
# 3 -0.001934 -0.006852 0.008656 0.000002 -0.000003 -0.000001
# 4 -0.000001 -0.000002 0.000002 0.045764 -0.000004 -0.000001
# 5 0.000001 0.000003 -0.000003 -0.000004 0.127582 -0.000002
# 6 0.000000 0.000002 -0.000001 -0.000001 -0.000002 -0.309125
#
#
# Mechanical properties :
#
#
# Convention : Reuss Voigt Hill
#
# Bulk Modulus (GPa) = 34.36169 52.24199 43.30184
# Shear Modulus (GPa) = -97.80278 19.19413 -39.30432
#
# Velocity S-wave (km/s) = -7.18173 3.18154 -4.55275
# Velocity P-wave (km/s) = 7.11679 6.40676 2.19113
#
# Compressibility (1/GPa) = 0.02910218
#
# Stress axis : x y z
#
# Youngs Moduli (GPa) = 94.99767 30.44512 115.52578
#
# Poissons Ratio (x) = 0.08151 0.22341
# Poissons Ratio (y) = 0.25434 0.79159
# Poissons Ratio (z) = 0.18371 0.20861
#
# Static dielectric constant tensor:
#      x y z
#    x 2.799160 0.000000 0.000010 
#    y 0.000000 3.117600 0.000000 
#    z 0.000010 0.000000 3.768330 
# 
# 
# High freq. dielectric constant tensor:
#      x y z
#    x 1.712360 0.000000 0.000000 
#    y 0.000000 1.698100 0.000000 
#    z 0.000000 0.000000 1.750650 
# 
# From -- ./inp_files/35448.got.cif
#   From: 2010.06.25/outbox.cif.g09.slc.cpg/sg71_18_cif.got.tgz:35448.got - 2010.06.28 04:59:45.
