data_PCOD8290089
_publ_section_title
;
Structure prediction by ZEFSAII (Michael W. Deem and Ramdas Pophale) SiO2 
 PCOD8290089
Probable space group: I M M M
;
_chemical_formula_sum "Si O2"
_cell_formula_units_Z 88
_cell_length_a 24.039576
_cell_length_b 9.483870
_cell_length_c 20.013635
_cell_angle_alpha 90.000000
_cell_angle_beta 90.000000
_cell_angle_gamma 90.000000
_cell_volume 4562.872892
_symmetry_space_group_name_H-M "I M M M"
_symmetry_group_IT_number 71
_symmetry_cell_setting 'orthorhombic'
loop_
_space_group_symop_operation_xyz
x,y,z
-x,-y,z
x,-y,-z
-x,y,-z
-x,-y,-z
x,y,-z
-x,y,z
x,-y,z
1/2+x,1/2+y,1/2+z
1/2-x,1/2-y,1/2+z
1/2+x,1/2-y,1/2-z
1/2-x,1/2+y,1/2-z
1/2-x,1/2-y,1/2-z
1/2+x,1/2+y,1/2-z
1/2-x,1/2+y,1/2+z
1/2+x,1/2-y,1/2+z
loop_
_atom_site_type_symbol
_atom_site_label
_atom_site_fract_x
_atom_site_fract_y
_atom_site_fract_z
Si Si1 0.565771 0.660160 0.500000
Si Si2 0.842356 0.154298 0.578101
Si Si3 0.438647 0.155917 0.920385
Si Si4 0.936273 0.336954 0.871097
Si Si5 0.170761 0.659862 0.789878
Si Si6 0.732178 0.161191 0.155068
O O1 0.589979 0.500000 0.500000
O O2 0.500000 0.655594 0.500000
O O3 0.585165 0.743126 0.566532
O O4 0.849340 0.137271 0.500000
O O5 0.896883 0.228724 0.609224
O O6 0.788979 0.250991 0.591639
O O7 0.835887 0.000000 0.611618
O O8 0.500000 0.192848 0.893662
O O9 0.420740 0.000000 0.895131
O O10 0.437883 0.156767 0.000000
O O11 0.933892 0.500000 0.893491
O O12 0.894059 0.310081 0.808609
O O13 0.000000 0.297623 0.849940
O O14 0.186753 0.500000 0.811799
O O15 0.208575 0.774083 0.826663
O O16 0.184187 0.677557 0.711491
O O17 0.741750 0.000000 0.134829
#
# Coordination Sequence:
#
# PCOD8290089 Si02
#       6
#     8  16  16  16  16  16
#     4   9  17  29  47  75 111 143 169 203 250 303
#     4  10  20  33  50  73 102 135 170 213 263 311
#     4   8  14  26  45  68  94 126 163 202 247 299
#     4   9  17  32  55  80 106 138 174 210 255 313
#     4   9  19  36  56  77 101 133 173 214 257 310
#     4  10  20  35  55  76 100 134 176 218 263 312
#
# _framework density 19.286095
#
# number of rings (size 3 to 8) (size 9 to 14) (size 15 to 20)
#    0.000    2.818    0.000    1.909    0.000    4.000 
#    1.636    2.727    0.000    3.273    0.000    0.000 
#    0.000    0.000    0.000    0.000    0.000    0.000 
#
# Total GULP energy -545251.289549 kJ/mol
# GULP energy per Si atom -12392.074762 kJ/mol
# Density = 1.924220 g / cm^3
# Si number density = 19.286095 Si / 1000 Ang^3
#
#
#
# Elastic Constant Matrix: (Units=GPa)
#
#
# Indices 1 2 3 4 5 6 
#
# 1 94.7301 56.2814 26.2042 0.0000 0.0000 0.0000
# 2 56.2814 139.0673 17.5585 0.0000 0.0000 0.0000
# 3 26.2042 17.5585 21.1760 0.0000 0.0000 0.0000
# 4 0.0000 0.0000 0.0000 21.9408 0.0000 0.0000
# 5 0.0000 0.0000 0.0000 0.0000 28.5501 0.0000
# 6 0.0000 0.0000 0.0000 0.0000 0.0000 29.2860
#
#
#
# Elastic Compliance Matrix: (Units=1/GPa)
#
#
# Indices 1 2 3 4 5 6 
#
# 1 0.018970 -0.005265 -0.019109 0.000000 0.000000 0.000000
# 2 -0.005265 0.009493 -0.001356 0.000000 0.000000 0.000000
# 3 -0.019109 -0.001356 0.071995 0.000000 0.000000 0.000000
# 4 0.000000 0.000000 0.000000 0.045577 0.000000 0.000000
# 5 0.000000 0.000000 0.000000 0.000000 0.035026 0.000000
# 6 0.000000 0.000000 0.000000 0.000000 0.000000 0.034146
#
#
# Mechanical properties :
#
#
# Convention : Reuss Voigt Hill
#
# Bulk Modulus (GPa) = 20.40943 50.56241 35.48592
# Shear Modulus (GPa) = 17.66786 26.28399 21.97592
#
# Velocity S-wave (km/s) = 3.02999 3.69568 3.37927
# Velocity P-wave (km/s) = 4.77980 6.66968 5.80221
#
# Compressibility (1/GPa) = 0.04899695
#
# Stress axis : x y z
#
# Youngs Moduli (GPa) = 52.71441 105.34493 13.88990
#
# Poissons Ratio (x) = 0.55460 0.26543
# Poissons Ratio (y) = 0.27752 0.01884
# Poissons Ratio (z) = 1.00734 0.14288
#
# Static dielectric constant tensor:
#      x y z
#    x 3.535790 0.000000 0.000000 
#    y 0.000000 3.889150 0.000000 
#    z 0.000000 0.000000 3.201070 
# 
# 
# High freq. dielectric constant tensor:
#      x y z
#    x 1.743020 0.000000 0.000000 
#    y 0.000000 1.760610 0.000000 
#    z 0.000000 0.000000 1.711590 
# 
# From -- ./inp_files/12549.got.cif
#   From: 2010.06.25/outbox.cif.g09.slc.cpg/sg71_7_cif.got.tgz:12549.got - 2010.06.28 04:59:45.
