data_PCOD8290827
_publ_section_title
;
Structure prediction by ZEFSAII (Michael W. Deem and Ramdas Pophale) SiO2 
 PCOD8290827
Probable space group: I M M M
;
_chemical_formula_sum "Si O2"
_cell_formula_units_Z 104
_cell_length_a 9.109741
_cell_length_b 26.335545
_cell_length_c 21.654213
_cell_angle_alpha 90.000000
_cell_angle_beta 90.000000
_cell_angle_gamma 90.000000
_cell_volume 5195.062112
_symmetry_space_group_name_H-M "I M M M"
_symmetry_group_IT_number 71
_symmetry_cell_setting 'orthorhombic'
loop_
_space_group_symop_operation_xyz
x,y,z
-x,-y,z
x,-y,-z
-x,y,-z
-x,-y,-z
x,y,-z
-x,y,z
x,-y,z
1/2+x,1/2+y,1/2+z
1/2-x,1/2-y,1/2+z
1/2+x,1/2-y,1/2-z
1/2-x,1/2+y,1/2-z
1/2-x,1/2-y,1/2-z
1/2+x,1/2+y,1/2-z
1/2-x,1/2+y,1/2+z
1/2+x,1/2-y,1/2+z
loop_
_atom_site_type_symbol
_atom_site_label
_atom_site_fract_x
_atom_site_fract_y
_atom_site_fract_z
Si Si1 0.672158 0.607359 0.722355
Si Si2 0.164294 0.939230 0.000000
Si Si3 0.665659 0.384122 0.928556
Si Si4 0.328507 0.220314 0.570282
Si Si5 0.662295 0.940883 0.884135
Si Si6 0.827781 0.558323 0.832260
Si Si7 0.829285 0.222141 0.806287
O O1 0.500000 0.597030 0.726008
O O2 0.745914 0.566699 0.677502
O O3 0.744607 0.598057 0.788415
O O4 0.710384 0.663036 0.697634
O O5 0.248424 0.916684 0.940918
O O6 0.000000 0.916858 0.000000
O O7 0.159111 0.000000 0.000000
O O8 0.500000 0.383781 0.901671
O O9 0.737208 0.329822 0.915049
O O10 0.763120 0.429021 0.899322
O O11 0.663682 0.396765 0.000000
O O12 0.292890 0.240496 0.500000
O O13 0.500000 0.207061 0.574933
O O14 0.282727 0.259873 0.624478
O O15 0.500000 0.916030 0.879270
O O16 0.644235 0.000000 0.896254
O O17 0.793778 0.500000 0.814924
O O18 0.000000 0.569188 0.829890
O O19 0.750000 0.250000 0.750000
O O20 0.000000 0.231920 0.795800
#
# Coordination Sequence:
#
# PCOD8290827 Si02
#       7
#    16   8  16  16  16  16  16
#     4  11  23  38  56  83 114 146 188 236 289 341
#     4   9  17  31  53  79 105 139 183 227 273 323
#     4  10  21  37  59  88 119 149 184 229 283 342
#     4   9  18  36  61  85 113 151 193 235 283 342
#     4  10  20  35  55  79 110 147 187 230 277 333
#     4  11  24  40  58  82 113 151 195 239 284 339
#     4  10  22  38  57  84 113 146 189 235 288 343
#
# _framework density 20.019009
#
# number of rings (size 3 to 8) (size 9 to 14) (size 15 to 20)
#    0.000    1.923    0.000    3.462    0.000   10.462 
#    1.385    1.538    0.000    0.000    0.000    0.000 
#    0.000    0.000    0.000    0.000    0.000    0.000 
#
# Total GULP energy -644763.757083 kJ/mol
# GULP energy per Si atom -12399.303021 kJ/mol
# Density = 1.997345 g / cm^3
# Si number density = 20.019009 Si / 1000 Ang^3
#
#
#
# Elastic Constant Matrix: (Units=GPa)
#
#
# Indices 1 2 3 4 5 6 
#
# 1 132.9441 54.5787 59.1405 0.0000 0.0000 0.0000
# 2 54.5787 63.2430 45.6328 0.0000 0.0000 0.0000
# 3 59.1405 45.6328 114.9411 0.0001 0.0000 0.0000
# 4 0.0000 0.0000 0.0001 35.0871 0.0000 0.0000
# 5 0.0000 0.0000 0.0000 0.0000 38.7921 0.0000
# 6 0.0000 0.0000 0.0000 0.0000 0.0000 27.1230
#
#
#
# Elastic Compliance Matrix: (Units=1/GPa)
#
#
# Indices 1 2 3 4 5 6 
#
# 1 0.012333 -0.008500 -0.002971 0.000000 0.000000 0.000000
# 2 -0.008500 0.028018 -0.006750 0.000000 0.000000 0.000000
# 3 -0.002971 -0.006750 0.012909 0.000000 0.000000 0.000000
# 4 0.000000 0.000000 0.000000 0.028501 0.000000 0.000000
# 5 0.000000 0.000000 0.000000 0.000000 0.025778 0.000000
# 6 0.000000 0.000000 0.000000 0.000000 0.000000 0.036869
#
#
# Mechanical properties :
#
#
# Convention : Reuss Voigt Hill
#
# Bulk Modulus (GPa) = 59.46115 69.98136 64.72126
# Shear Modulus (GPa) = 26.81606 30.31883 28.56745
#
# Velocity S-wave (km/s) = 3.66393 3.89588 3.78168
# Velocity P-wave (km/s) = 6.90406 7.43442 7.17414
#
# Compressibility (1/GPa) = 0.01681770
#
# Stress axis : x y z
#
# Youngs Moduli (GPa) = 81.08222 35.69186 77.46662
#
# Poissons Ratio (x) = 0.30336 0.23018
# Poissons Ratio (y) = 0.68916 0.52290
# Poissons Ratio (z) = 0.24092 0.24092
#
# Static dielectric constant tensor:
#      x y z
#    x 3.857000 0.000000 0.000000 
#    y 0.000000 3.434160 0.000000 
#    z 0.000000 0.000000 3.919340 
# 
# 
# High freq. dielectric constant tensor:
#      x y z
#    x 1.793320 0.000000 0.000000 
#    y 0.000000 1.756000 0.000000 
#    z 0.000000 0.000000 1.796740 
# 
# From -- ./inp_files/11091.got.cif
#   From: 2010.06.25/outbox.cif.g09.slc.cpg/sg71_6_cif.got.tgz:11091.got - 2010.06.28 04:59:45.
