data_PCOD8290362
_publ_section_title
;
Structure prediction by ZEFSAII (Michael W. Deem and Ramdas Pophale) SiO2 
 PCOD8290362
Probable space group: I M M M
;
_chemical_formula_sum "Si O2"
_cell_formula_units_Z 72
_cell_length_a 8.657665
_cell_length_b 14.324357
_cell_length_c 31.350814
_cell_angle_alpha 90.000000
_cell_angle_beta 90.000000
_cell_angle_gamma 90.000000
_cell_volume 3887.986380
_symmetry_space_group_name_H-M "I M M M"
_symmetry_group_IT_number 71
_symmetry_cell_setting 'orthorhombic'
loop_
_space_group_symop_operation_xyz
x,y,z
-x,-y,z
x,-y,-z
-x,y,-z
-x,-y,-z
x,y,-z
-x,y,z
x,-y,z
1/2+x,1/2+y,1/2+z
1/2-x,1/2-y,1/2+z
1/2+x,1/2-y,1/2-z
1/2-x,1/2+y,1/2-z
1/2-x,1/2-y,1/2-z
1/2+x,1/2+y,1/2-z
1/2-x,1/2+y,1/2+z
1/2+x,1/2-y,1/2+z
loop_
_atom_site_type_symbol
_atom_site_label
_atom_site_fract_x
_atom_site_fract_y
_atom_site_fract_z
Si Si1 0.331298 0.500000 0.048449
Si Si2 0.675954 0.500000 0.254377
Si Si3 0.181515 0.307117 0.047742
Si Si4 0.318331 0.304359 0.867353
Si Si5 0.679436 0.301680 0.289976
Si Si6 0.818390 0.500000 0.837042
O O1 0.500000 0.500000 0.072826
O O2 0.224093 0.413041 0.058939
O O3 0.377477 0.500000 0.000000
O O4 0.500000 0.500000 0.237224
O O5 0.707719 0.411551 0.284350
O O6 0.785130 0.500000 0.213347
O O7 0.263579 0.256009 0.087595
O O8 0.000000 0.291515 0.049741
O O9 0.241560 0.277783 0.000000
O O10 0.500000 0.313488 0.867231
O O11 0.266378 0.231326 0.831940
O O12 0.250205 0.407637 0.859106
O O13 0.500000 0.275942 0.293933
O O14 0.750000 0.250000 0.250000
O O15 0.000000 0.500000 0.843940
#
# Coordination Sequence:
#
# PCOD8290362 Si02
#       6
#     8   8  16  16  16   8
#     4   9  16  27  44  67  98 136 175 216 265 320
#     4  10  22  39  59  81 112 147 183 226 276 328
#     4  10  20  34  51  72 101 138 182 229 275 326
#     4  12  24  37  54  79 113 149 188 231 276 332
#     4  11  22  38  59  84 113 146 184 228 275 325
#     4  12  23  35  55  79 109 148 192 234 274 327
#
# _framework density 18.518585000000002
#
# number of rings (size 3 to 8) (size 9 to 14) (size 15 to 20)
#    0.000    1.222    2.222    5.333    0.000    3.556 
#    0.000    0.000    0.000    0.000    0.000    0.778 
#    0.000    6.222    0.000    0.000    0.000    0.000 
#
# Total GULP energy -446140.856014 kJ/mol
# GULP energy per Si atom -12392.801556 kJ/mol
# Density = 1.847644 g / cm^3
# Si number density = 18.518585 Si / 1000 Ang^3
#
#
#
# Elastic Constant Matrix: (Units=GPa)
#
#
# Indices 1 2 3 4 5 6 
#
# 1 135.5800 34.1036 65.1274 0.0000 0.0000 0.0000
# 2 34.1036 73.7683 44.5218 0.0000 0.0000 0.0000
# 3 65.1274 44.5218 177.2920 0.0000 0.0000 0.0000
# 4 0.0000 0.0000 0.0000 21.2813 0.0000 0.0000
# 5 0.0000 0.0000 0.0000 0.0000 34.3431 0.0000
# 6 0.0000 0.0000 0.0000 0.0000 0.0000 20.6653
#
#
#
# Elastic Compliance Matrix: (Units=1/GPa)
#
#
# Indices 1 2 3 4 5 6 
#
# 1 0.009379 -0.002660 -0.002777 0.000000 0.000000 0.000000
# 2 -0.002660 0.016732 -0.003225 0.000000 0.000000 0.000000
# 3 -0.002777 -0.003225 0.007470 0.000000 0.000000 0.000000
# 4 0.000000 0.000000 0.000000 0.046990 0.000000 0.000000
# 5 0.000000 0.000000 0.000000 0.000000 0.029118 0.000000
# 6 0.000000 0.000000 0.000000 0.000000 0.000000 0.048390
#
#
# Mechanical properties :
#
#
# Convention : Reuss Voigt Hill
#
# Bulk Modulus (GPa) = 61.50966 74.90509 68.20737
# Shear Modulus (GPa) = 27.65155 31.45043 29.55099
#
# Velocity S-wave (km/s) = 3.86836 4.12554 3.99901
# Velocity P-wave (km/s) = 7.29654 7.95172 7.63116
#
# Compressibility (1/GPa) = 0.01625761
#
# Stress axis : x y z
#
# Youngs Moduli (GPa) = 106.62257 59.76665 133.86061
#
# Poissons Ratio (x) = 0.15896 0.37178
# Poissons Ratio (y) = 0.28358 0.43166
# Poissons Ratio (z) = 0.29613 0.19273
#
# Static dielectric constant tensor:
#      x y z
#    x 3.519180 0.000000 0.000000 
#    y 0.000000 3.190870 0.000000 
#    z 0.000000 0.000000 3.887060 
# 
# 
# High freq. dielectric constant tensor:
#      x y z
#    x 1.735900 0.000000 0.000000 
#    y 0.000000 1.666060 0.000000 
#    z 0.000000 0.000000 1.740640 
# 
# From -- ./inp_files/67867.got.cif
#   From: 2010.06.25/outbox.cif.g09.slc.cpg/sg71_34_cif.got.tgz:67867.got - 2010.06.28 04:59:45.
