data_PCOD8290484
_publ_section_title
;
Structure prediction by ZEFSAII (Michael W. Deem and Ramdas Pophale) SiO2 
 PCOD8290484
Probable space group: I M M M
;
_chemical_formula_sum "Si O2"
_cell_formula_units_Z 88
_cell_length_a 9.292618
_cell_length_b 27.985129
_cell_length_c 17.436350
_cell_angle_alpha 90.000000
_cell_angle_beta 90.000000
_cell_angle_gamma 90.000000
_cell_volume 4534.411978
_symmetry_space_group_name_H-M "I M M M"
_symmetry_group_IT_number 71
_symmetry_cell_setting 'orthorhombic'
loop_
_space_group_symop_operation_xyz
x,y,z
-x,-y,z
x,-y,-z
-x,y,-z
-x,-y,-z
x,y,-z
-x,y,z
x,-y,z
1/2+x,1/2+y,1/2+z
1/2-x,1/2-y,1/2+z
1/2+x,1/2-y,1/2-z
1/2-x,1/2+y,1/2-z
1/2-x,1/2-y,1/2-z
1/2+x,1/2+y,1/2-z
1/2-x,1/2+y,1/2+z
1/2+x,1/2-y,1/2+z
loop_
_atom_site_type_symbol
_atom_site_label
_atom_site_fract_x
_atom_site_fract_y
_atom_site_fract_z
Si Si1 0.668326 0.671520 0.836334
Si Si2 0.835566 0.269722 0.412357
Si Si3 0.330122 0.647675 0.335708
Si Si4 0.160823 0.410379 0.090112
Si Si5 0.170865 0.052582 0.913604
Si Si6 0.162380 0.000000 0.591634
O O1 0.500000 0.660772 0.849415
O O2 0.706072 0.726027 0.856579
O O3 0.718141 0.660336 0.750100
O O4 0.760406 0.638982 0.892751
O O5 0.810076 0.253677 0.500000
O O6 0.737088 0.314783 0.394272
O O7 0.000000 0.284848 0.398563
O O8 0.500000 0.651302 0.345178
O O9 0.272959 0.594514 0.357331
O O10 0.254921 0.453771 0.124552
O O11 0.000000 0.411120 0.125798
O O12 0.149473 0.416910 0.000000
O O13 0.000000 0.052726 0.913834
O O14 0.225665 0.000000 0.885775
O O15 0.226986 0.062433 0.000000
O O16 0.158547 0.000000 0.500000
O O17 0.000000 0.000000 0.624656
#
# Coordination Sequence:
#
# PCOD8290484 Si02
#       6
#    16  16  16  16  16   8
#     4  10  21  36  52  76 109 144 179 218 273 333
#     4  10  21  36  54  75 103 142 182 222 274 334
#     4  10  20  34  54  81 108 136 177 225 271 325
#     4  10  20  34  53  77 105 139 183 232 276 321
#     4   8  14  27  49  76 105 135 167 210 264 314
#     4   9  17  31  53  77 101 135 178 225 276 325
#
# _framework density 19.407146999999998
#
# number of rings (size 3 to 8) (size 9 to 14) (size 15 to 20)
#    0.000    2.455    0.000    3.000    0.000    5.455 
#    1.636    0.000    0.000    0.545    0.000    2.545 
#    0.000    0.000    0.000    0.000    0.000    0.000 
#
# Total GULP energy -545576.751359 kJ/mol
# GULP energy per Si atom -12399.471622 kJ/mol
# Density = 1.936298 g / cm^3
# Si number density = 19.407147 Si / 1000 Ang^3
#
#
#
# Elastic Constant Matrix: (Units=GPa)
#
#
# Indices 1 2 3 4 5 6 
#
# 1 66.4438 45.3990 16.2433 -0.0001 0.0000 0.0000
# 2 45.3990 156.6735 53.1429 -0.0001 0.0000 0.0000
# 3 16.2433 53.1429 71.8598 -0.0013 0.0001 0.0000
# 4 -0.0001 -0.0001 -0.0013 22.4695 0.0001 0.0001
# 5 0.0000 0.0000 0.0001 0.0001 20.1877 -0.0002
# 6 0.0000 0.0000 0.0000 0.0001 -0.0002 26.5270
#
#
#
# Elastic Compliance Matrix: (Units=1/GPa)
#
#
# Indices 1 2 3 4 5 6 
#
# 1 0.018770 -0.005339 -0.000294 0.000000 0.000000 0.000000
# 2 -0.005339 0.010039 -0.006217 0.000000 0.000000 0.000000
# 3 -0.000294 -0.006217 0.018580 0.000001 0.000000 0.000000
# 4 0.000000 0.000000 0.000001 0.044505 0.000000 0.000000
# 5 0.000000 0.000000 0.000000 0.000000 0.049535 0.000000
# 6 0.000000 0.000000 0.000000 0.000000 0.000000 0.037697
#
#
# Mechanical properties :
#
#
# Convention : Reuss Voigt Hill
#
# Bulk Modulus (GPa) = 42.21534 58.28303 50.24918
# Shear Modulus (GPa) = 23.72775 25.84965 24.78870
#
# Velocity S-wave (km/s) = 3.50041 3.65357 3.57781
# Velocity P-wave (km/s) = 6.17550 6.92062 6.55865
#
# Compressibility (1/GPa) = 0.02368807
#
# Stress axis : x y z
#
# Youngs Moduli (GPa) = 53.27536 99.61520 53.82059
#
# Poissons Ratio (x) = 0.53187 0.01584
# Poissons Ratio (y) = 0.28445 0.33460
# Poissons Ratio (z) = 0.01568 0.61931
#
# Static dielectric constant tensor:
#      x y z
#    x 3.400600 0.000000 0.000000 
#    y 0.000000 3.760080 0.000000 
#    z 0.000000 0.000000 3.439070 
# 
# 
# High freq. dielectric constant tensor:
#      x y z
#    x 1.733200 0.000000 0.000000 
#    y 0.000000 1.768810 0.000000 
#    z 0.000000 0.000000 1.738150 
# 
# From -- ./inp_files/42480.got.cif
#   From: 2010.06.25/outbox.cif.g09.slc.cpg/sg71_22_cif.got.tgz:42480.got - 2010.06.28 04:59:45.
