data_PCOD8290439
_publ_section_title
;
Structure prediction by ZEFSAII (Michael W. Deem and Ramdas Pophale) SiO2 
 PCOD8290439
Probable space group: I M M M
;
_chemical_formula_sum "Si O2"
_cell_formula_units_Z 88
_cell_length_a 13.640573
_cell_length_b 18.453002
_cell_length_c 18.584533
_cell_angle_alpha 90.000000
_cell_angle_beta 90.000000
_cell_angle_gamma 90.000000
_cell_volume 4677.903897
_symmetry_space_group_name_H-M "I M M M"
_symmetry_group_IT_number 71
_symmetry_cell_setting 'orthorhombic'
loop_
_space_group_symop_operation_xyz
x,y,z
-x,-y,z
x,-y,-z
-x,y,-z
-x,-y,-z
x,y,-z
-x,y,z
x,-y,z
1/2+x,1/2+y,1/2+z
1/2-x,1/2-y,1/2+z
1/2+x,1/2-y,1/2-z
1/2-x,1/2+y,1/2-z
1/2-x,1/2-y,1/2-z
1/2+x,1/2+y,1/2-z
1/2-x,1/2+y,1/2+z
1/2+x,1/2-y,1/2+z
loop_
_atom_site_type_symbol
_atom_site_label
_atom_site_fract_x
_atom_site_fract_y
_atom_site_fract_z
Si Si1 0.383311 0.500000 0.582106
Si Si2 0.772947 0.280677 0.419598
Si Si3 0.886915 0.580075 0.615509
Si Si4 0.217625 0.183777 0.701479
Si Si5 0.885484 0.857063 0.163335
Si Si6 0.110404 0.417193 0.215425
O O1 0.500000 0.500000 0.581388
O O2 0.343569 0.500000 0.500000
O O3 0.345571 0.430356 0.626011
O O4 0.756133 0.251399 0.500000
O O5 0.832810 0.355371 0.425163
O O6 0.827850 0.217782 0.372370
O O7 0.668749 0.292565 0.379496
O O8 0.844828 0.500000 0.593646
O O9 0.873542 0.592052 0.699914
O O10 0.000000 0.582919 0.593443
O O11 0.250000 0.250000 0.750000
O O12 0.139283 0.140069 0.750896
O O13 0.308837 0.133067 0.677578
O O14 0.000000 0.845577 0.152798
O O15 0.126119 0.500000 0.191347
O O16 0.000000 0.392131 0.194670
#
# Coordination Sequence:
#
# PCOD8290439 Si02
#       6
#     8  16  16  16  16  16
#     4   9  18  32  50  76 106 134 170 211 254 310
#     4  11  23  36  51  77 111 146 184 226 276 327
#     4   9  18  33  54  80 109 140 177 222 272 328
#     4  10  20  34  52  79 105 142 184 226 265 325
#     4  10  21  35  52  75 106 145 180 212 257 322
#     4   9  17  32  57  83 104 131 174 228 278 323
#
# _framework density 18.811843
#
# number of rings (size 3 to 8) (size 9 to 14) (size 15 to 20)
#    0.000    2.273    3.636    1.636    2.545    5.455 
#    0.000    0.909    0.000    0.545    0.000    1.273 
#    0.000    2.182    0.000    0.000    0.000    0.000 
#
# Total GULP energy -545306.539197 kJ/mol
# GULP energy per Si atom -12393.330436 kJ/mol
# Density = 1.876903 g / cm^3
# Si number density = 18.811843 Si / 1000 Ang^3
#
#
#
# Elastic Constant Matrix: (Units=GPa)
#
#
# Indices 1 2 3 4 5 6 
#
# 1 43.9520 25.4283 27.1773 0.0000 0.0000 0.0000
# 2 25.4283 79.3841 50.3987 0.0000 0.0000 0.0000
# 3 27.1773 50.3987 129.7441 0.0000 0.0000 0.0000
# 4 0.0000 0.0000 0.0000 23.7462 0.0000 0.0000
# 5 0.0000 0.0000 0.0000 0.0000 13.3984 0.0000
# 6 0.0000 0.0000 0.0000 0.0000 0.0000 23.3633
#
#
#
# Elastic Compliance Matrix: (Units=1/GPa)
#
#
# Indices 1 2 3 4 5 6 
#
# 1 0.028934 -0.007195 -0.003266 0.000000 0.000000 0.000000
# 2 -0.007195 0.018509 -0.005683 0.000000 0.000000 0.000000
# 3 -0.003266 -0.005683 0.010599 0.000000 0.000000 0.000000
# 4 0.000000 0.000000 0.000000 0.042112 0.000000 0.000000
# 5 0.000000 0.000000 0.000000 0.000000 0.074636 0.000000
# 6 0.000000 0.000000 0.000000 0.000000 0.000000 0.042802
#
#
# Mechanical properties :
#
#
# Convention : Reuss Voigt Hill
#
# Bulk Modulus (GPa) = 38.82670 51.00989 44.91829
# Shear Modulus (GPa) = 19.34498 22.10664 20.72581
#
# Velocity S-wave (km/s) = 3.21025 3.43176 3.32285
# Velocity P-wave (km/s) = 5.86731 6.54808 6.21702
#
# Compressibility (1/GPa) = 0.02575547
#
# Stress axis : x y z
#
# Youngs Moduli (GPa) = 34.56138 54.02638 94.34747
#
# Poissons Ratio (x) = 0.38870 0.30814
# Poissons Ratio (y) = 0.24866 0.53617
# Poissons Ratio (z) = 0.11288 0.30703
#
# Static dielectric constant tensor:
#      x y z
#    x 3.430370 0.000000 0.000000 
#    y 0.000000 3.781180 0.000000 
#    z 0.000000 0.000000 3.447200 
# 
# 
# High freq. dielectric constant tensor:
#      x y z
#    x 1.726860 0.000000 0.000000 
#    y 0.000000 1.720970 0.000000 
#    z 0.000000 0.000000 1.698990 
# 
# From -- ./inp_files/44718.got.cif
#   From: 2010.06.25/outbox.cif.g09.slc.cpg/sg71_23_cif.got.tgz:44718.got - 2010.06.28 04:59:45.
