data_PCOD8290989
_publ_section_title
;
Structure prediction by ZEFSAII (Michael W. Deem and Ramdas Pophale) SiO2 
 PCOD8290989
Probable space group: I M M M
;
_chemical_formula_sum "Si O2"
_cell_formula_units_Z 88
_cell_length_a 8.796901
_cell_length_b 18.461551
_cell_length_c 28.453691
_cell_angle_alpha 90.000000
_cell_angle_beta 90.000000
_cell_angle_gamma 90.000000
_cell_volume 4621.005652
_symmetry_space_group_name_H-M "I M M M"
_symmetry_group_IT_number 71
_symmetry_cell_setting 'orthorhombic'
loop_
_space_group_symop_operation_xyz
x,y,z
-x,-y,z
x,-y,-z
-x,y,-z
-x,-y,-z
x,y,-z
-x,y,z
x,-y,z
1/2+x,1/2+y,1/2+z
1/2-x,1/2-y,1/2+z
1/2+x,1/2-y,1/2-z
1/2-x,1/2+y,1/2-z
1/2-x,1/2-y,1/2-z
1/2+x,1/2+y,1/2-z
1/2-x,1/2+y,1/2+z
1/2+x,1/2-y,1/2+z
loop_
_atom_site_type_symbol
_atom_site_label
_atom_site_fract_x
_atom_site_fract_y
_atom_site_fract_z
Si Si1 0.326514 0.884618 0.000000
Si Si2 0.678252 0.140700 0.775690
Si Si3 0.180365 0.347468 0.091022
Si Si4 0.673809 0.000000 0.078455
Si Si5 0.320836 0.000000 0.552560
Si Si6 0.677125 0.234712 0.500000
Si Si7 0.321922 0.703582 0.186486
Si Si8 0.178421 0.000000 0.822334
O O1 0.211180 0.819026 0.000000
O O2 0.293831 0.929897 0.046897
O O3 0.500000 0.857070 0.000000
O O4 0.500000 0.126304 0.775019
O O5 0.721354 0.212364 0.805316
O O6 0.735213 0.151146 0.722570
O O7 0.756637 0.071743 0.798605
O O8 0.229461 0.430295 0.082314
O O9 0.270909 0.317174 0.134885
O O10 0.000000 0.338882 0.099023
O O11 0.242882 0.302192 0.046697
O O12 0.500000 0.000000 0.096364
O O13 0.784565 0.000000 0.122524
O O14 0.500000 0.000000 0.545796
O O15 0.248062 0.000000 0.500000
O O16 0.500000 0.219987 0.500000
O O17 0.500000 0.691196 0.193342
O O18 0.000000 0.000000 0.815418
#
# Coordination Sequence:
#
# PCOD8290989 Si02
#       8
#     8  16  16   8   8   8  16   8
#     4   9  20  38  59  79 112 156 200 242 285 347
#     4  10  22  42  64  85 116 155 196 238 288 352
#     4  10  20  35  58  85 115 152 196 241 289 347
#     4   9  20  40  59  81 113 157 201 238 288 348
#     4   9  16  33  57  78 106 148 193 233 273 327
#     4  10  21  34  53  86 119 150 194 247 291 343
#     4  10  22  40  62  88 117 152 193 241 294 347
#     4  12  25  38  60  92 122 153 191 243 296 345
#
# _framework density 19.043475000000001
#
# number of rings (size 3 to 8) (size 9 to 14) (size 15 to 20)
#    0.000    2.091    0.909    2.455    2.545    4.364 
#    0.000    4.091    0.000    0.545    0.000    0.000 
#    0.000    0.000    0.000    0.000    0.000    0.000 
#
# Total GULP energy -545685.701845 kJ/mol
# GULP energy per Si atom -12401.947769 kJ/mol
# Density = 1.900013 g / cm^3
# Si number density = 19.043475 Si / 1000 Ang^3
#
#
#
# Elastic Constant Matrix: (Units=GPa)
#
#
# Indices 1 2 3 4 5 6 
#
# 1 68.7265 43.5837 44.8918 0.0000 0.0000 0.0000
# 2 43.5837 132.9935 72.4175 0.0000 0.0000 0.0000
# 3 44.8918 72.4175 151.1598 0.0000 0.0000 0.0000
# 4 0.0000 0.0000 0.0000 23.1978 0.0000 0.0000
# 5 0.0000 0.0000 0.0000 0.0000 33.2676 0.0000
# 6 0.0000 0.0000 0.0000 0.0000 0.0000 28.1114
#
#
#
# Elastic Compliance Matrix: (Units=1/GPa)
#
#
# Indices 1 2 3 4 5 6 
#
# 1 0.019827 -0.004453 -0.003755 0.000000 0.000000 0.000000
# 2 -0.004453 0.011173 -0.004030 0.000000 0.000000 0.000000
# 3 -0.003755 -0.004030 0.009662 0.000000 0.000000 0.000000
# 4 0.000000 0.000000 0.000000 0.043108 0.000000 0.000000
# 5 0.000000 0.000000 0.000000 0.000000 0.030059 0.000000
# 6 0.000000 0.000000 0.000000 0.000000 0.000000 0.035573
#
#
# Mechanical properties :
#
#
# Convention : Reuss Voigt Hill
#
# Bulk Modulus (GPa) = 61.78504 74.96284 68.37394
# Shear Modulus (GPa) = 27.89047 29.71448 28.80247
#
# Velocity S-wave (km/s) = 3.83112 3.95441 3.89325
# Velocity P-wave (km/s) = 7.21697 7.76526 7.49613
#
# Compressibility (1/GPa) = 0.01618515
#
# Stress axis : x y z
#
# Youngs Moduli (GPa) = 50.43617 89.50122 103.50335
#
# Poissons Ratio (x) = 0.39854 0.38865
# Poissons Ratio (y) = 0.22459 0.41715
# Poissons Ratio (z) = 0.18939 0.36072
#
# Static dielectric constant tensor:
#      x y z
#    x 3.336370 0.000000 0.000000 
#    y 0.000000 3.599540 0.000000 
#    z 0.000000 0.000000 3.543730 
# 
# 
# High freq. dielectric constant tensor:
#      x y z
#    x 1.728340 0.000000 0.000000 
#    y 0.000000 1.749600 0.000000 
#    z 0.000000 0.000000 1.750130 
# 
# From -- ./inp_files/68099.got.cif
#   From: 2010.06.25/outbox.cif.g09.slc.cpg/sg71_35_cif.got.tgz:68099.got - 2010.06.28 04:59:45.
