data_PCOD8290062
_publ_section_title
;
Structure prediction by ZEFSAII (Michael W. Deem and Ramdas Pophale) SiO2 
 PCOD8290062
Probable space group: I M M M
;
_chemical_formula_sum "Si O2"
_cell_formula_units_Z 104
_cell_length_a 20.275400
_cell_length_b 9.421612
_cell_length_c 30.134985
_cell_angle_alpha 90.000000
_cell_angle_beta 90.000000
_cell_angle_gamma 90.000000
_cell_volume 5756.594331
_symmetry_space_group_name_H-M "I M M M"
_symmetry_group_IT_number 71
_symmetry_cell_setting 'orthorhombic'
loop_
_space_group_symop_operation_xyz
x,y,z
-x,-y,z
x,-y,-z
-x,y,-z
-x,-y,-z
x,y,-z
-x,y,z
x,-y,z
1/2+x,1/2+y,1/2+z
1/2-x,1/2-y,1/2+z
1/2+x,1/2-y,1/2-z
1/2-x,1/2+y,1/2-z
1/2-x,1/2-y,1/2-z
1/2+x,1/2+y,1/2-z
1/2-x,1/2+y,1/2+z
1/2+x,1/2-y,1/2+z
loop_
_atom_site_type_symbol
_atom_site_label
_atom_site_fract_x
_atom_site_fract_y
_atom_site_fract_z
Si Si1 0.144037 0.659514 0.190926
Si Si2 0.393650 0.839947 0.549345
Si Si3 0.500000 0.660914 0.785110
Si Si4 0.370618 0.832733 0.790947
Si Si5 0.745313 0.836309 0.854593
Si Si6 0.000000 0.154545 0.906756
Si Si7 0.500000 0.261522 0.686351
Si Si8 0.265818 0.659948 0.547967
O O1 0.168096 0.500000 0.182463
O O2 0.156802 0.704222 0.242027
O O3 0.186669 0.757074 0.157828
O O4 0.065617 0.665802 0.182223
O O5 0.424550 0.839551 0.500000
O O6 0.435737 0.742320 0.581162
O O7 0.321029 0.778765 0.547982
O O8 0.392008 0.000000 0.568417
O O9 0.500000 0.500000 0.803670
O O10 0.436120 0.744741 0.802536
O O11 0.500000 0.651929 0.731871
O O12 0.315536 0.780214 0.825611
O O13 0.386880 0.000000 0.795080
O O14 0.724611 0.814545 0.906690
O O15 0.758535 0.000000 0.843660
O O16 0.000000 0.128253 0.854124
O O17 0.000000 0.000000 0.930146
O O18 0.227019 0.675336 0.500000
O O19 0.295883 0.500000 0.550234
#
# Coordination Sequence:
#
# PCOD8290062 Si02
#       8
#    16  16   8  16  16   8   8  16
#     4  10  20  33  50  71  98 133 171 208 244 287
#     4  10  21  35  48  63  86 117 154 199 249 293
#     4  10  20  35  55  76  98 127 162 198 234 282
#     4   9  19  35  52  73 103 135 162 194 242 295
#     4  10  20  33  51  75 102 131 163 201 247 293
#     4  12  23  32  45  64  85 115 158 204 246 287
#     4  10  22  35  47  67  97 132 167 204 247 290
#     4   9  18  33  51  70  93 122 157 196 237 284
#
# _framework density 18.066237999999998
#
# number of rings (size 3 to 8) (size 9 to 14) (size 15 to 20)
#    0.000    2.154    0.000    3.000    0.000   11.692 
#    0.000    0.000    0.000    0.000    0.000    0.538 
#    0.000    4.308    0.000    0.000    0.000    0.000 
#
# Total GULP energy -644421.911083 kJ/mol
# GULP energy per Si atom -12392.729059 kJ/mol
# Density = 1.802512 g / cm^3
# Si number density = 18.066238 Si / 1000 Ang^3
#
#
#
# Elastic Constant Matrix: (Units=GPa)
#
#
# Indices 1 2 3 4 5 6 
#
# 1 78.9926 30.1133 49.7062 0.0000 0.0000 0.0000
# 2 30.1133 89.8506 28.7510 0.0000 0.0000 0.0000
# 3 49.7062 28.7510 122.9929 0.0000 0.0000 0.0000
# 4 0.0000 0.0000 0.0000 18.3609 0.0000 0.0000
# 5 0.0000 0.0000 0.0000 0.0000 19.3852 0.0000
# 6 0.0000 0.0000 0.0000 0.0000 0.0000 18.2643
#
#
#
# Elastic Compliance Matrix: (Units=1/GPa)
#
#
# Indices 1 2 3 4 5 6 
#
# 1 0.018251 -0.004060 -0.006427 0.000000 0.000000 0.000000
# 2 -0.004060 0.012933 -0.001382 0.000000 0.000000 0.000000
# 3 -0.006427 -0.001382 0.011051 0.000000 0.000000 0.000000
# 4 0.000000 0.000000 0.000000 0.054463 0.000000 0.000000
# 5 0.000000 0.000000 0.000000 0.000000 0.051586 0.000000
# 6 0.000000 0.000000 0.000000 0.000000 0.000000 0.054752
#
#
# Mechanical properties :
#
#
# Convention : Reuss Voigt Hill
#
# Bulk Modulus (GPa) = 54.06551 56.55302 55.30927
# Shear Modulus (GPa) = 21.46470 23.41979 22.44224
#
# Velocity S-wave (km/s) = 3.45064 3.60436 3.52834
# Velocity P-wave (km/s) = 6.77253 6.97804 6.87605
#
# Compressibility (1/GPa) = 0.01849608
#
# Stress axis : x y z
#
# Youngs Moduli (GPa) = 54.79013 77.32323 90.48932
#
# Poissons Ratio (x) = 0.31396 0.58157
# Poissons Ratio (y) = 0.22247 0.12507
# Poissons Ratio (z) = 0.35213 0.10688
#
# Static dielectric constant tensor:
#      x y z
#    x 3.064380 0.000000 0.000000 
#    y 0.000000 3.293380 0.000000 
#    z 0.000000 0.000000 3.695770 
# 
# 
# High freq. dielectric constant tensor:
#      x y z
#    x 1.658800 0.000000 0.000000 
#    y 0.000000 1.704230 0.000000 
#    z 0.000000 0.000000 1.703560 
# 
# From -- ./inp_files/70790.got.cif
#   From: 2010.06.25/outbox.cif.g09.slc.cpg/sg71_36_cif.got.tgz:70790.got - 2010.06.28 04:59:45.
