data_PCOD8290390
_publ_section_title
;
Structure prediction by ZEFSAII (Michael W. Deem and Ramdas Pophale) SiO2 
 PCOD8290390
Probable space group: I M M M
;
_chemical_formula_sum "Si O2"
_cell_formula_units_Z 96
_cell_length_a 10.303841
_cell_length_b 24.045210
_cell_length_c 21.910341
_cell_angle_alpha 90.000000
_cell_angle_beta 90.000000
_cell_angle_gamma 90.000000
_cell_volume 5428.462718
_symmetry_space_group_name_H-M "I M M M"
_symmetry_group_IT_number 71
_symmetry_cell_setting 'orthorhombic'
loop_
_space_group_symop_operation_xyz
x,y,z
-x,-y,z
x,-y,-z
-x,y,-z
-x,-y,-z
x,y,-z
-x,y,z
x,-y,z
1/2+x,1/2+y,1/2+z
1/2-x,1/2-y,1/2+z
1/2+x,1/2-y,1/2-z
1/2-x,1/2+y,1/2-z
1/2-x,1/2-y,1/2-z
1/2+x,1/2+y,1/2-z
1/2-x,1/2+y,1/2+z
1/2+x,1/2-y,1/2+z
loop_
_atom_site_type_symbol
_atom_site_label
_atom_site_fract_x
_atom_site_fract_y
_atom_site_fract_z
Si Si1 0.155096 0.063051 0.000000
Si Si2 0.152323 0.127606 0.116073
Si Si3 0.351469 0.252295 0.571487
Si Si4 0.239803 0.936072 0.635415
Si Si5 0.350381 0.436857 0.732266
Si Si6 0.356992 0.663566 0.930451
Si Si7 0.000000 0.565296 0.068395
O O1 0.213359 0.093648 0.940443
O O2 0.000000 0.066670 0.000000
O O3 0.204514 0.000000 0.000000
O O4 0.183549 0.192673 0.109714
O O5 0.206403 0.104004 0.180192
O O6 0.000000 0.116545 0.115486
O O7 0.331541 0.265510 0.500000
O O8 0.500000 0.233267 0.583807
O O9 0.252470 0.205368 0.595353
O O10 0.239099 0.928632 0.708286
O O11 0.136265 0.894317 0.606201
O O12 0.376462 0.916131 0.607505
O O13 0.205988 0.000000 0.618075
O O14 0.500000 0.423148 0.749195
O O15 0.339913 0.500000 0.708027
O O16 0.500000 0.691224 0.924790
O O17 0.322927 0.649144 0.000000
O O18 0.000000 0.500000 0.060017
O O19 0.000000 0.592808 0.000000
#
# Coordination Sequence:
#
# PCOD8290390 Si02
#       7
#     8  16  16  16  16  16   8
#     4   9  14  20  38  72 109 133 158 211 266 302
#     4   9  15  26  45  71 102 134 172 210 253 304
#     4   9  17  31  51  73 100 136 174 215 260 304
#     4  10  20  34  52  73 101 132 163 204 256 312
#     4   9  17  29  47  72 103 139 171 201 250 313
#     4  10  21  34  50  74 102 130 167 213 258 310
#     4   9  18  32  52  76  98 123 161 207 253 302
#
# _framework density 17.684564999999999
#
# number of rings (size 3 to 8) (size 9 to 14) (size 15 to 20)
#    0.000    2.667    0.833    1.500    1.167    4.000 
#    0.000    1.667    1.833    0.000    0.000    0.000 
#    0.000    0.667    0.000    0.000    0.000    0.000 
#
# Total GULP energy -595018.590115 kJ/mol
# GULP energy per Si atom -12396.220627 kJ/mol
# Density = 1.764431 g / cm^3
# Si number density = 17.684565 Si / 1000 Ang^3
#
#
#
# Elastic Constant Matrix: (Units=GPa)
#
#
# Indices 1 2 3 4 5 6 
#
# 1 67.3590 43.8819 38.6939 0.0000 0.0000 0.0000
# 2 43.8819 105.6992 56.9574 0.0000 0.0000 0.0000
# 3 38.6939 56.9574 107.8085 0.0000 0.0000 0.0000
# 4 0.0000 0.0000 0.0000 27.9463 0.0000 0.0000
# 5 0.0000 0.0000 0.0000 0.0000 18.5363 0.0000
# 6 0.0000 0.0000 0.0000 0.0000 0.0000 15.1497
#
#
#
# Elastic Compliance Matrix: (Units=1/GPa)
#
#
# Indices 1 2 3 4 5 6 
#
# 1 0.021643 -0.006709 -0.004223 0.000000 0.000000 0.000000
# 2 -0.006709 0.015306 -0.005678 0.000000 0.000000 0.000000
# 3 -0.004223 -0.005678 0.013791 0.000000 0.000000 0.000000
# 4 0.000000 0.000000 0.000000 0.035783 0.000000 0.000000
# 5 0.000000 0.000000 0.000000 0.000000 0.053948 0.000000
# 6 0.000000 0.000000 0.000000 0.000000 0.000000 0.066008
#
#
# Mechanical properties :
#
#
# Convention : Reuss Voigt Hill
#
# Bulk Modulus (GPa) = 57.08307 62.21480 59.64894
# Shear Modulus (GPa) = 20.36319 21.74869 21.05594
#
# Velocity S-wave (km/s) = 3.39701 3.51067 3.45431
# Velocity P-wave (km/s) = 6.90904 7.18956 7.05069
#
# Compressibility (1/GPa) = 0.01751833
#
# Stress axis : x y z
#
# Youngs Moduli (GPa) = 46.20484 65.33290 72.50846
#
# Poissons Ratio (x) = 0.43835 0.30621
# Poissons Ratio (y) = 0.31001 0.41174
# Poissons Ratio (z) = 0.19513 0.37099
#
# Static dielectric constant tensor:
#      x y z
#    x 3.016290 0.000000 0.000000 
#    y 0.000000 3.245760 0.000000 
#    z 0.000000 0.000000 3.289350 
# 
# 
# High freq. dielectric constant tensor:
#      x y z
#    x 1.644920 0.000000 0.000000 
#    y 0.000000 1.682590 0.000000 
#    z 0.000000 0.000000 1.675500 
# 
# From -- ./inp_files/26183.got.cif
#   From: 2010.06.25/outbox.cif.g09.slc.cpg/sg71_14_cif.got.tgz:26183.got - 2010.06.28 04:59:45.
