data_PCOD8290180
_publ_section_title
;
Structure prediction by ZEFSAII (Michael W. Deem and Ramdas Pophale) SiO2 
 PCOD8290180
Probable space group: I M M M
;
_chemical_formula_sum "Si O2"
_cell_formula_units_Z 80
_cell_length_a 12.483535
_cell_length_b 28.993032
_cell_length_c 12.483429
_cell_angle_alpha 90.000000
_cell_angle_beta 90.000000
_cell_angle_gamma 90.000000
_cell_volume 4518.196488
_symmetry_space_group_name_H-M "I M M M"
_symmetry_group_IT_number 71
_symmetry_cell_setting 'orthorhombic'
loop_
_space_group_symop_operation_xyz
x,y,z
-x,-y,z
x,-y,-z
-x,y,-z
-x,-y,-z
x,y,-z
-x,y,z
x,-y,z
1/2+x,1/2+y,1/2+z
1/2-x,1/2-y,1/2+z
1/2+x,1/2-y,1/2-z
1/2-x,1/2+y,1/2-z
1/2-x,1/2-y,1/2-z
1/2+x,1/2+y,1/2-z
1/2-x,1/2+y,1/2+z
1/2+x,1/2-y,1/2+z
loop_
_atom_site_type_symbol
_atom_site_label
_atom_site_fract_x
_atom_site_fract_y
_atom_site_fract_z
Si Si1 0.876763 0.203325 0.296511
Si Si2 0.296553 0.391143 0.876846
Si Si3 0.500000 0.447985 0.127332
Si Si4 0.796511 0.296675 0.376763
Si Si5 0.127331 0.552016 0.500000
Si Si6 0.376847 0.891142 0.796552
O O1 0.827537 0.162368 0.367171
O O2 0.864048 0.250000 0.364050
O O3 0.817273 0.207342 0.182727
O O4 0.000000 0.193510 0.271978
O O5 0.393985 0.422018 0.831276
O O6 0.191502 0.403201 0.808498
O O7 0.270511 0.402622 0.000000
O O8 0.500000 0.500000 0.172208
O O9 0.500000 0.446974 0.000000
O O10 0.771980 0.306492 0.500000
O O11 0.867171 0.337631 0.327534
O O12 0.172205 0.500000 0.500000
O O13 0.168724 0.577982 0.393985
O O14 0.000000 0.553028 0.500000
O O15 0.500000 0.902622 0.770509
#
# Coordination Sequence:
#
# PCOD8290180 Si02
#       6
#    16  16   8  16   8  16
#     4  10  20  33  51  76 105 140 179 220 267 318
#     4  10  20  34  53  79 109 140 178 221 267 320
#     4   9  18  34  56  77 101 137 179 222 263 311
#     4  10  20  33  51  76 105 140 179 220 267 318
#     4   9  18  34  56  77 101 137 179 222 263 311
#     4  10  20  34  53  79 109 140 178 221 267 320
#
# _framework density 17.706178999999999
#
# number of rings (size 3 to 8) (size 9 to 14) (size 15 to 20)
#    0.000    2.200    2.000    1.200    0.000    3.600 
#    0.000    0.000    0.000    7.800    0.000    7.000 
#    0.000    0.000    0.000    0.000    0.000    0.000 
#
# Total GULP energy -496104.194468 kJ/mol
# GULP energy per Si atom -12402.604862 kJ/mol
# Density = 1.766588 g / cm^3
# Si number density = 17.706179 Si / 1000 Ang^3
#
#
#
# Elastic Constant Matrix: (Units=GPa)
#
#
# Indices 1 2 3 4 5 6 
#
# 1 105.9636 27.8819 58.0895 0.0000 0.0001 0.0000
# 2 27.8819 108.0704 27.8769 -0.0013 0.0003 0.0002
# 3 58.0895 27.8769 105.9483 -0.0045 -0.0003 0.0008
# 4 0.0000 -0.0013 -0.0045 19.5514 0.0005 0.0005
# 5 0.0001 0.0003 -0.0003 0.0005 15.9079 0.0000
# 6 0.0000 0.0002 0.0008 0.0005 0.0000 19.5538
#
#
#
# Elastic Compliance Matrix: (Units=1/GPa)
#
#
# Indices 1 2 3 4 5 6 
#
# 1 0.013786 -0.001724 -0.007105 -0.000002 0.000000 0.000000
# 2 -0.001724 0.010143 -0.001723 0.000000 0.000000 0.000000
# 3 -0.007105 -0.001723 0.013787 0.000003 0.000000 -0.000001
# 4 -0.000002 0.000000 0.000003 0.051147 -0.000002 -0.000001
# 5 0.000000 0.000000 0.000000 -0.000002 0.062862 0.000000
# 6 0.000000 0.000000 -0.000001 -0.000001 0.000000 0.051141
#
#
# Mechanical properties :
#
#
# Convention : Reuss Voigt Hill
#
# Bulk Modulus (GPa) = 60.20029 60.85320 60.52675
# Shear Modulus (GPa) = 21.78579 24.74489 23.26534
#
# Velocity S-wave (km/s) = 3.51152 3.74241 3.62880
# Velocity P-wave (km/s) = 7.10735 7.28815 7.19832
#
# Compressibility (1/GPa) = 0.01661121
#
# Stress axis : x y z
#
# Youngs Moduli (GPa) = 72.53879 98.59422 72.52949
#
# Poissons Ratio (x) = 0.16997 0.51531
# Poissons Ratio (y) = 0.12506 0.12500
# Poissons Ratio (z) = 0.51538 0.16992
#
# Static dielectric constant tensor:
#      x y z
#    x 3.148330 0.000000 0.000000 
#    y 0.000000 3.446540 0.000000 
#    z 0.000000 0.000000 3.148290 
# 
# 
# High freq. dielectric constant tensor:
#      x y z
#    x 1.673960 0.000000 0.000000 
#    y 0.000000 1.692870 0.000000 
#    z 0.000000 0.000000 1.673960 
# 
# From -- ./inp_files/20171.got.cif
#   From: 2010.06.25/outbox.cif.g09.slc.cpg/sg71_11_cif.got.tgz:20171.got - 2010.06.28 04:59:45.
