data_PCOD8290962
_publ_section_title
;
Structure prediction by ZEFSAII (Michael W. Deem and Ramdas Pophale) SiO2 
 PCOD8290962
Probable space group: I M M M
;
_chemical_formula_sum "Si O2"
_cell_formula_units_Z 72
_cell_length_a 23.399120
_cell_length_b 8.973778
_cell_length_c 17.722255
_cell_angle_alpha 90.000000
_cell_angle_beta 90.000000
_cell_angle_gamma 90.000000
_cell_volume 3721.292668
_symmetry_space_group_name_H-M "I M M M"
_symmetry_group_IT_number 71
_symmetry_cell_setting 'orthorhombic'
loop_
_space_group_symop_operation_xyz
x,y,z
-x,-y,z
x,-y,-z
-x,y,-z
-x,-y,-z
x,y,-z
-x,y,z
x,-y,z
1/2+x,1/2+y,1/2+z
1/2-x,1/2-y,1/2+z
1/2+x,1/2-y,1/2-z
1/2-x,1/2+y,1/2-z
1/2-x,1/2-y,1/2-z
1/2+x,1/2+y,1/2-z
1/2-x,1/2+y,1/2+z
1/2+x,1/2-y,1/2+z
loop_
_atom_site_type_symbol
_atom_site_label
_atom_site_fract_x
_atom_site_fract_y
_atom_site_fract_z
Si Si1 0.740954 0.174801 0.086982
Si Si2 0.565651 0.172655 0.722434
Si Si3 0.063877 0.177125 0.500000
Si Si4 0.356598 0.828972 0.585169
Si Si5 0.632265 0.676519 0.854970
O O1 0.803600 0.228345 0.111845
O O2 0.695294 0.254463 0.140740
O O3 0.736514 0.000000 0.099723
O O4 0.729579 0.219998 0.000000
O O5 0.500000 0.223958 0.723857
O O6 0.589421 0.202360 0.638563
O O7 0.601392 0.272542 0.779454
O O8 0.571936 0.000000 0.745146
O O9 0.095936 0.236651 0.425984
O O10 0.000000 0.243610 0.500000
O O11 0.062018 0.000000 0.500000
O O12 0.375439 0.787936 0.500000
O O13 0.336648 0.000000 0.590490
O O14 0.637545 0.500000 0.855468
#
# Coordination Sequence:
#
# PCOD8290962 Si02
#       5
#    16  16   8  16  16
#     4  10  20  35  57  85 117 147 183 233 285 333
#     4  10  22  39  57  82 116 148 184 234 285 333
#     4   9  18  32  51  77 107 143 188 229 264 313
#     4   9  19  37  61  85 110 145 188 231 280 339
#     4  11  21  35  57  82 113 152 191 231 275 328
#
# _framework density 19.348116000000001
#
# number of rings (size 3 to 8) (size 9 to 14) (size 15 to 20)
#    0.000    2.111    1.111    2.000    0.000    4.444 
#    0.000    2.222    0.000    2.667    0.000    4.667 
#    0.000    0.000    0.000    0.000    0.000    0.000 
#
# Total GULP energy -446547.183165 kJ/mol
# GULP energy per Si atom -12404.088421 kJ/mol
# Density = 1.930408 g / cm^3
# Si number density = 19.348116 Si / 1000 Ang^3
#
#
#
# Elastic Constant Matrix: (Units=GPa)
#
#
# Indices 1 2 3 4 5 6 
#
# 1 99.1314 39.3455 46.1997 0.0000 0.0000 0.0000
# 2 39.3455 68.5368 32.9769 0.0000 0.0000 0.0000
# 3 46.1997 32.9769 96.5798 0.0000 0.0000 0.0000
# 4 0.0000 0.0000 0.0000 27.7185 0.0000 0.0000
# 5 0.0000 0.0000 0.0000 0.0000 35.7552 0.0000
# 6 0.0000 0.0000 0.0000 0.0000 0.0000 26.6760
#
#
#
# Elastic Compliance Matrix: (Units=1/GPa)
#
#
# Indices 1 2 3 4 5 6 
#
# 1 0.014852 -0.006112 -0.005018 0.000000 0.000000 0.000000
# 2 -0.006112 0.019974 -0.003896 0.000000 0.000000 0.000000
# 3 -0.005018 -0.003896 0.014085 0.000000 0.000000 0.000000
# 4 0.000000 0.000000 0.000000 0.036077 0.000000 0.000000
# 5 0.000000 0.000000 0.000000 0.000000 0.027968 0.000000
# 6 0.000000 0.000000 0.000000 0.000000 0.000000 0.037487
#
#
# Mechanical properties :
#
#
# Convention : Reuss Voigt Hill
#
# Bulk Modulus (GPa) = 53.02530 55.69913 54.36222
# Shear Modulus (GPa) = 26.76931 27.74499 27.25715
#
# Velocity S-wave (km/s) = 3.72366 3.79091 3.75744
# Velocity P-wave (km/s) = 6.77886 6.92905 6.85437
#
# Compressibility (1/GPa) = 0.01885892
#
# Stress axis : x y z
#
# Youngs Moduli (GPa) = 67.33152 50.06453 70.99855
#
# Poissons Ratio (x) = 0.30599 0.35624
# Poissons Ratio (y) = 0.41152 0.27664
# Poissons Ratio (z) = 0.33784 0.19508
#
# Static dielectric constant tensor:
#      x y z
#    x 3.573830 0.000000 0.000000 
#    y 0.000000 3.368820 0.000000 
#    z 0.000000 0.000000 3.540900 
# 
# 
# High freq. dielectric constant tensor:
#      x y z
#    x 1.758050 0.000000 0.000000 
#    y 0.000000 1.742410 0.000000 
#    z 0.000000 0.000000 1.750680 
# 
# From -- ./inp_files/7887.got.cif
#   From: 2010.06.25/outbox.cif.g09.slc.cpg/sg71_4_cif.got.tgz:7887.got - 2010.06.28 04:59:45.
