data_PCOD8290431
_publ_section_title
;
Structure prediction by ZEFSAII (Michael W. Deem and Ramdas Pophale) SiO2 
 PCOD8290431
Probable space group: I M M M
;
_chemical_formula_sum "Si O2"
_cell_formula_units_Z 120
_cell_length_a 27.788883
_cell_length_b 27.173655
_cell_length_c 8.724466
_cell_angle_alpha 90.000000
_cell_angle_beta 90.000000
_cell_angle_gamma 90.000000
_cell_volume 6588.066920
_symmetry_space_group_name_H-M "I M M M"
_symmetry_group_IT_number 71
_symmetry_cell_setting 'orthorhombic'
loop_
_space_group_symop_operation_xyz
x,y,z
-x,-y,z
x,-y,-z
-x,y,-z
-x,-y,-z
x,y,-z
-x,y,z
x,-y,z
1/2+x,1/2+y,1/2+z
1/2-x,1/2-y,1/2+z
1/2+x,1/2-y,1/2-z
1/2-x,1/2+y,1/2-z
1/2-x,1/2-y,1/2-z
1/2+x,1/2+y,1/2-z
1/2-x,1/2+y,1/2+z
1/2+x,1/2-y,1/2+z
loop_
_atom_site_type_symbol
_atom_site_label
_atom_site_fract_x
_atom_site_fract_y
_atom_site_fract_z
Si Si1 0.260852 0.302235 0.319032
Si Si2 0.305366 0.555400 0.679503
Si Si3 0.641198 0.350847 0.680638
Si Si4 0.784496 0.394560 0.819483
Si Si5 0.885727 0.592881 0.319566
Si Si6 0.553586 0.000000 0.181866
Si Si7 0.552993 0.709454 0.317531
Si Si8 0.555742 0.178920 0.322224
O O1 0.256374 0.300417 0.500000
O O2 0.250000 0.250000 0.250000
O O3 0.314086 0.317801 0.264808
O O4 0.222589 0.341257 0.256280
O O5 0.294423 0.563028 0.500000
O O6 0.322217 0.500000 0.716811
O O7 0.348320 0.592576 0.731146
O O8 0.256383 0.567012 0.768329
O O9 0.635869 0.347710 0.500000
O O10 0.592088 0.328780 0.753339
O O11 0.835625 0.414970 0.766623
O O12 0.783051 0.388607 0.000000
O O13 0.876459 0.590301 0.500000
O O14 0.919453 0.548763 0.260276
O O15 0.910623 0.644455 0.279427
O O16 0.500000 0.000000 0.252640
O O17 0.550946 0.000000 0.000000
O O18 0.551860 0.706853 0.500000
O O19 0.500000 0.695307 0.253426
O O20 0.566387 0.765101 0.269720
O O21 0.568983 0.171541 0.500000
O O22 0.500000 0.165980 0.292639
#
# Coordination Sequence:
#
# PCOD8290431 Si02
#       8
#    16  16  16  16  16   8  16  16
#     4  10  20  34  52  77 108 142 178 216 261 315
#     4   9  18  34  55  75 101 135 173 220 269 320
#     4   8  15  28  47  72 100 136 177 210 252 310
#     4  11  23  37  52  75 105 137 175 220 267 318
#     4  11  22  36  55  77  99 131 174 222 273 328
#     4   9  20  38  57  75  97 131 173 217 272 333
#     4   8  14  26  47  75 106 138 171 206 248 304
#     4   9  18  32  50  74 103 135 171 214 264 315
#
# _framework density 18.214751
#
# number of rings (size 3 to 8) (size 9 to 14) (size 15 to 20)
#    0.000    2.600    0.000    4.000    2.800    1.067 
#    0.000    1.000    0.000    2.800    0.000    2.800 
#    0.000    0.000    0.000    4.800    0.000    5.333 
#
# Total GULP energy -743871.526728 kJ/mol
# GULP energy per Si atom -12397.858779 kJ/mol
# Density = 1.817329 g / cm^3
# Si number density = 18.214751 Si / 1000 Ang^3
#
#
#
# Elastic Constant Matrix: (Units=GPa)
#
#
# Indices 1 2 3 4 5 6 
#
# 1 123.5892 76.9032 19.9882 0.0000 0.0000 0.0000
# 2 76.9032 146.6754 26.8578 0.0000 0.0000 0.0000
# 3 19.9882 26.8578 51.1928 0.0000 0.0000 0.0000
# 4 0.0000 0.0000 0.0000 22.1768 0.0000 0.0000
# 5 0.0000 0.0000 0.0000 0.0000 17.5785 0.0000
# 6 0.0000 0.0000 0.0000 0.0000 0.0000 26.0414
#
#
#
# Elastic Compliance Matrix: (Units=1/GPa)
#
#
# Indices 1 2 3 4 5 6 
#
# 1 0.012119 -0.006071 -0.001547 0.000000 0.000000 0.000000
# 2 -0.006071 0.010583 -0.003182 0.000000 0.000000 0.000000
# 3 -0.001547 -0.003182 0.021807 0.000000 0.000000 0.000000
# 4 0.000000 0.000000 0.000000 0.045092 0.000000 0.000000
# 5 0.000000 0.000000 0.000000 0.000000 0.056888 0.000000
# 6 0.000000 0.000000 0.000000 0.000000 0.000000 0.038400
#
#
# Mechanical properties :
#
#
# Convention : Reuss Voigt Hill
#
# Bulk Modulus (GPa) = 43.64862 63.21733 53.43297
# Shear Modulus (GPa) = 23.35062 26.33986 24.84524
#
# Velocity S-wave (km/s) = 3.58433 3.80685 3.69727
# Velocity P-wave (km/s) = 6.41446 7.35560 6.90109
#
# Compressibility (1/GPa) = 0.02291023
#
# Stress axis : x y z
#
# Youngs Moduli (GPa) = 82.51427 94.48676 45.85585
#
# Poissons Ratio (x) = 0.57362 0.07093
# Poissons Ratio (y) = 0.50094 0.14592
# Poissons Ratio (z) = 0.12764 0.30067
#
# Static dielectric constant tensor:
#      x y z
#    x 3.621230 0.000000 0.000000 
#    y 0.000000 3.518580 0.000000 
#    z 0.000000 0.000000 3.054780 
# 
# 
# High freq. dielectric constant tensor:
#      x y z
#    x 1.703400 0.000000 0.000000 
#    y 0.000000 1.708420 0.000000 
#    z 0.000000 0.000000 1.676750 
# 
# From -- ./inp_files/15648.got.cif
#   From: 2010.06.25/outbox.cif.g09.slc.cpg/sg71_8_cif.got.tgz:15648.got - 2010.06.28 04:59:45.
