data_PCOD8290092
_publ_section_title
;
Structure prediction by ZEFSAII (Michael W. Deem and Ramdas Pophale) SiO2 
 PCOD8290092
Probable space group: I M M M
;
_chemical_formula_sum "Si O2"
_cell_formula_units_Z 104
_cell_length_a 22.658482
_cell_length_b 29.598958
_cell_length_c 9.190807
_cell_angle_alpha 90.000000
_cell_angle_beta 90.000000
_cell_angle_gamma 90.000000
_cell_volume 6163.975159
_symmetry_space_group_name_H-M "I M M M"
_symmetry_group_IT_number 71
_symmetry_cell_setting 'orthorhombic'
loop_
_space_group_symop_operation_xyz
x,y,z
-x,-y,z
x,-y,-z
-x,y,-z
-x,-y,-z
x,y,-z
-x,y,z
x,-y,z
1/2+x,1/2+y,1/2+z
1/2-x,1/2-y,1/2+z
1/2+x,1/2-y,1/2-z
1/2-x,1/2+y,1/2-z
1/2-x,1/2-y,1/2-z
1/2+x,1/2+y,1/2-z
1/2-x,1/2+y,1/2+z
1/2+x,1/2-y,1/2+z
loop_
_atom_site_type_symbol
_atom_site_label
_atom_site_fract_x
_atom_site_fract_y
_atom_site_fract_z
Si Si1 0.888485 0.393834 0.826793
Si Si2 0.929807 0.789811 0.664217
Si Si3 0.069086 0.702057 0.168736
Si Si4 0.647076 0.446930 0.166747
Si Si5 0.220790 0.550227 0.172816
Si Si6 0.000000 0.550963 0.173635
Si Si7 0.568950 0.622042 0.669315
O O1 0.895558 0.342035 0.775812
O O2 0.827098 0.414231 0.765343
O O3 0.942216 0.423790 0.765208
O O4 0.890047 0.395506 0.000000
O O5 0.905610 0.791560 0.500000
O O6 0.906196 0.744448 0.740787
O O7 0.906231 0.833502 0.749971
O O8 0.000000 0.789405 0.668628
O O9 0.000000 0.693302 0.196155
O O10 0.080935 0.712215 0.000000
O O11 0.636125 0.500000 0.183906
O O12 0.713481 0.434408 0.217970
O O13 0.601578 0.421818 0.270564
O O14 0.636578 0.432006 0.000000
O O15 0.207067 0.500000 0.234534
O O16 0.217125 0.547999 0.000000
O O17 0.000000 0.500000 0.233381
O O18 0.000000 0.551465 0.000000
O O19 0.582228 0.627852 0.500000
O O20 0.500000 0.615269 0.700259
#
# Coordination Sequence:
#
# PCOD8290092 Si02
#       7
#    16  16  16  16  16   8  16
#     4   9  14  21  35  59  91 126 159 194 235 274
#     4   9  17  29  46  67  91 120 152 184 222 273
#     4   9  15  24  39  62  94 125 154 190 234 277
#     4   9  18  32  49  69  94 125 158 188 219 261
#     4   8  14  25  41  61  87 123 164 197 225 263
#     4   9  14  18  28  54  93 129 157 191 238 281
#     4  10  20  33  50  73  97 118 142 178 229 279
#
# _framework density 16.872229000000001
#
# number of rings (size 3 to 8) (size 9 to 14) (size 15 to 20)
#    0.000    3.000    0.769    2.308    0.000    5.231 
#    0.000    1.538    0.000    1.846    0.000    0.000 
#    0.000    2.462    0.000    0.000    0.000    0.154 
#
# Total GULP energy -644642.558928 kJ/mol
# GULP energy per Si atom -12396.972287 kJ/mol
# Density = 1.683383 g / cm^3
# Si number density = 16.872229 Si / 1000 Ang^3
#
#
#
# Elastic Constant Matrix: (Units=GPa)
#
#
# Indices 1 2 3 4 5 6 
#
# 1 72.1370 60.4940 38.4308 0.0000 0.0000 0.0000
# 2 60.4940 122.6658 51.5245 0.0000 0.0000 0.0000
# 3 38.4308 51.5245 63.4604 0.0000 0.0000 0.0000
# 4 0.0000 0.0000 0.0000 19.8428 0.0000 0.0000
# 5 0.0000 0.0000 0.0000 0.0000 9.4812 0.0000
# 6 0.0000 0.0000 0.0000 0.0000 0.0000 20.5188
#
#
#
# Elastic Compliance Matrix: (Units=1/GPa)
#
#
# Indices 1 2 3 4 5 6 
#
# 1 0.026144 -0.009474 -0.008141 0.000000 0.000000 0.000000
# 2 -0.009474 0.015804 -0.007095 0.000000 0.000000 0.000000
# 3 -0.008141 -0.007095 0.026448 0.000000 0.000000 0.000000
# 4 0.000000 0.000000 0.000000 0.050396 0.000000 0.000000
# 5 0.000000 0.000000 0.000000 0.000000 0.105472 0.000000
# 6 0.000000 0.000000 0.000000 0.000000 0.000000 0.048736
#
#
# Mechanical properties :
#
#
# Convention : Reuss Voigt Hill
#
# Bulk Modulus (GPa) = 52.69158 62.12908 57.41033
# Shear Modulus (GPa) = 15.20939 17.15615 16.18277
#
# Velocity S-wave (km/s) = 3.00566 3.19223 3.10035
# Velocity P-wave (km/s) = 6.58353 7.10566 6.84957
#
# Compressibility (1/GPa) = 0.01897836
#
# Stress axis : x y z
#
# Youngs Moduli (GPa) = 38.24935 63.27353 37.81032
#
# Poissons Ratio (x) = 0.59945 0.30780
# Poissons Ratio (y) = 0.36237 0.26825
# Poissons Ratio (z) = 0.31137 0.44889
#
# Static dielectric constant tensor:
#      x y z
#    x 3.086170 0.000000 0.000000 
#    y 0.000000 3.317930 0.000000 
#    z 0.000000 0.000000 2.831510 
# 
# 
# High freq. dielectric constant tensor:
#      x y z
#    x 1.623260 0.000000 0.000000 
#    y 0.000000 1.660440 0.000000 
#    z 0.000000 0.000000 1.611550 
# 
# From -- ./inp_files/13602.got.cif
#   From: 2010.06.25/outbox.cif.g09.slc.cpg/sg71_7_cif.got.tgz:13602.got - 2010.06.28 04:59:45.
