data_PCOD8290113
_publ_section_title
;
Structure prediction by ZEFSAII (Michael W. Deem and Ramdas Pophale) SiO2 
 PCOD8290113
Probable space group: I M M M
;
_chemical_formula_sum "Si O2"
_cell_formula_units_Z 72
_cell_length_a 7.834058
_cell_length_b 36.589530
_cell_length_c 14.437412
_cell_angle_alpha 90.000000
_cell_angle_beta 90.000000
_cell_angle_gamma 90.000000
_cell_volume 4138.404747
_symmetry_space_group_name_H-M "I M M M"
_symmetry_group_IT_number 71
_symmetry_cell_setting 'orthorhombic'
loop_
_space_group_symop_operation_xyz
x,y,z
-x,-y,z
x,-y,-z
-x,y,-z
-x,-y,-z
x,y,-z
-x,y,z
x,-y,z
1/2+x,1/2+y,1/2+z
1/2-x,1/2-y,1/2+z
1/2+x,1/2-y,1/2-z
1/2-x,1/2+y,1/2-z
1/2-x,1/2-y,1/2-z
1/2+x,1/2+y,1/2-z
1/2-x,1/2+y,1/2+z
1/2+x,1/2-y,1/2+z
loop_
_atom_site_type_symbol
_atom_site_label
_atom_site_fract_x
_atom_site_fract_y
_atom_site_fract_z
Si Si1 0.500000 0.040645 0.109622
Si Si2 0.808742 0.090847 0.893469
Si Si3 0.702107 0.309799 0.104364
Si Si4 0.297498 0.771504 0.897087
Si Si5 0.196055 0.340349 0.287019
O O1 0.328956 0.061440 0.143152
O O2 0.500000 0.000000 0.153505
O O3 0.500000 0.037596 0.000000
O O4 0.801963 0.126530 0.829590
O O5 0.000000 0.074254 0.885238
O O6 0.768108 0.101645 0.000000
O O7 0.500000 0.311633 0.112431
O O8 0.770130 0.268942 0.129521
O O9 0.784279 0.338653 0.175791
O O10 0.759617 0.320185 0.000000
O O11 0.500000 0.770533 0.894961
O O12 0.227382 0.802369 0.827541
O O13 0.233486 0.781658 0.000000
O O14 0.000000 0.345986 0.315658
#
# Coordination Sequence:
#
# PCOD8290113 Si02
#       5
#     8  16  16  16  16
#     4   9  18  34  54  76 105 137 165 195 236 288
#     4  10  20  33  50  75 105 134 166 200 236 286
#     4   9  18  32  45  59  85 123 169 216 258 301
#     4   8  15  27  43  62  86 122 164 205 253 301
#     4  11  19  28  46  68  94 127 163 207 254 297
#
# _framework density 17.398008000000001
#
# number of rings (size 3 to 8) (size 9 to 14) (size 15 to 20)
#    0.000    2.556    1.111    3.333    0.000    1.778 
#    0.000    3.333    0.000    2.667    0.000    0.000 
#    0.000    1.778    0.000    4.667    0.000    0.222 
#
# Total GULP energy -446274.216335 kJ/mol
# GULP energy per Si atom -12396.506009 kJ/mol
# Density = 1.735841 g / cm^3
# Si number density = 17.398008 Si / 1000 Ang^3
#
#
#
# Elastic Constant Matrix: (Units=GPa)
#
#
# Indices 1 2 3 4 5 6 
#
# 1 73.9583 35.9171 20.4886 0.0000 0.0000 0.0000
# 2 35.9171 92.2576 47.5334 0.0000 0.0000 0.0000
# 3 20.4886 47.5334 77.8115 -0.0003 0.0000 -0.0001
# 4 0.0000 0.0000 -0.0003 14.5282 0.0000 0.0000
# 5 0.0000 0.0000 0.0000 0.0000 19.0346 0.0000
# 6 0.0000 0.0000 -0.0001 0.0000 0.0000 13.7479
#
#
#
# Elastic Compliance Matrix: (Units=1/GPa)
#
#
# Indices 1 2 3 4 5 6 
#
# 1 0.016694 -0.006179 -0.000621 0.000000 0.000000 0.000000
# 2 -0.006179 0.018105 -0.009433 0.000000 0.000000 0.000000
# 3 -0.000621 -0.009433 0.018777 0.000000 0.000000 0.000000
# 4 0.000000 0.000000 0.000000 0.068831 0.000000 0.000000
# 5 0.000000 0.000000 0.000000 0.000000 0.052536 0.000000
# 6 0.000000 0.000000 0.000000 0.000000 0.000000 0.072738
#
#
# Mechanical properties :
#
#
# Convention : Reuss Voigt Hill
#
# Bulk Modulus (GPa) = 47.37034 50.21173 48.79103
# Shear Modulus (GPa) = 17.41036 18.80135 18.10586
#
# Velocity S-wave (km/s) = 3.16683 3.29091 3.22947
# Velocity P-wave (km/s) = 6.37639 6.58509 6.48158
#
# Compressibility (1/GPa) = 0.02111026
#
# Stress axis : x y z
#
# Youngs Moduli (GPa) = 59.90152 55.23350 53.25548
#
# Poissons Ratio (x) = 0.34131 0.03307
# Poissons Ratio (y) = 0.37015 0.50235
# Poissons Ratio (z) = 0.03719 0.52101
#
# Static dielectric constant tensor:
#      x y z
#    x 3.095530 0.000000 0.000000 
#    y 0.000000 3.113860 0.000000 
#    z 0.000000 0.000000 3.171730 
# 
# 
# High freq. dielectric constant tensor:
#      x y z
#    x 1.670010 0.000000 0.000000 
#    y 0.000000 1.632790 0.000000 
#    z 0.000000 0.000000 1.652860 
# 
# From -- ./inp_files/31651.got.cif
#   From: 2010.06.25/outbox.cif.g09.slc.cpg/sg71_16_cif.got.tgz:31651.got - 2010.06.28 04:59:45.
