data_PCOD8290498
_publ_section_title
;
Structure prediction by ZEFSAII (Michael W. Deem and Ramdas Pophale) SiO2 
 PCOD8290498
Probable space group: I M M M
;
_chemical_formula_sum "Si O2"
_cell_formula_units_Z 88
_cell_length_a 9.446086
_cell_length_b 18.611715
_cell_length_c 27.603079
_cell_angle_alpha 90.000000
_cell_angle_beta 90.000000
_cell_angle_gamma 90.000000
_cell_volume 4852.838262
_symmetry_space_group_name_H-M "I M M M"
_symmetry_group_IT_number 71
_symmetry_cell_setting 'orthorhombic'
loop_
_space_group_symop_operation_xyz
x,y,z
-x,-y,z
x,-y,-z
-x,y,-z
-x,-y,-z
x,y,-z
-x,y,z
x,-y,z
1/2+x,1/2+y,1/2+z
1/2-x,1/2-y,1/2+z
1/2+x,1/2-y,1/2-z
1/2-x,1/2+y,1/2-z
1/2-x,1/2-y,1/2-z
1/2+x,1/2+y,1/2-z
1/2-x,1/2+y,1/2+z
1/2+x,1/2-y,1/2+z
loop_
_atom_site_type_symbol
_atom_site_label
_atom_site_fract_x
_atom_site_fract_y
_atom_site_fract_z
Si Si1 0.164880 0.162665 0.851571
Si Si2 0.163680 0.858083 0.401042
Si Si3 0.839429 0.318167 0.187349
Si Si4 0.164952 0.292144 0.444409
Si Si5 0.169342 0.000000 0.552656
Si Si6 0.162828 0.417961 0.722639
O O1 0.185288 0.232259 0.816580
O O2 0.238183 0.168174 0.904578
O O3 0.238258 0.096609 0.823789
O O4 0.000000 0.146263 0.860315
O O5 0.234123 0.853252 0.349592
O O6 0.192170 0.792594 0.437607
O O7 0.000000 0.867069 0.390472
O O8 0.231150 0.929245 0.423005
O O9 0.802110 0.355896 0.238165
O O10 0.000000 0.336273 0.172924
O O11 0.206829 0.312725 0.500000
O O12 0.000000 0.310937 0.434925
O O13 0.234323 0.000000 0.500000
O O14 0.000000 0.000000 0.551983
O O15 0.192036 0.500000 0.741212
O O16 0.000000 0.410420 0.706405
#
# Coordination Sequence:
#
# PCOD8290498 Si02
#       6
#    16  16  16  16   8  16
#     4  10  20  34  53  78 106 134 166 210 258 301
#     4   9  17  28  45  70  98 130 171 214 251 292
#     4   9  19  34  51  73 101 135 171 207 251 300
#     4   9  17  31  52  75  99 131 171 210 249 299
#     4   9  16  26  41  63  95 133 171 213 256 293
#     4  10  21  36  54  75 101 136 174 209 250 304
#
# _framework density 18.133717000000001
#
# number of rings (size 3 to 8) (size 9 to 14) (size 15 to 20)
#    0.000    2.636    0.000    1.636    1.273    4.364 
#    0.000    0.000    0.000    2.727    0.000    3.818 
#    0.000    0.000    0.000    0.000    0.000    0.000 
#
# Total GULP energy -545217.642636 kJ/mol
# GULP energy per Si atom -12391.310060 kJ/mol
# Density = 1.809244 g / cm^3
# Si number density = 18.133717 Si / 1000 Ang^3
#
#
#
# Elastic Constant Matrix: (Units=GPa)
#
#
# Indices 1 2 3 4 5 6 
#
# 1 62.0358 24.7259 54.0367 0.0000 0.0000 0.0000
# 2 24.7259 46.7115 33.9375 0.0000 0.0000 0.0000
# 3 54.0367 33.9375 101.6281 0.0000 0.0000 0.0000
# 4 0.0000 0.0000 0.0000 21.0351 0.0000 0.0000
# 5 0.0000 0.0000 0.0000 0.0000 -23.6470 0.0000
# 6 0.0000 0.0000 0.0000 0.0000 0.0000 19.8963
#
#
#
# Elastic Compliance Matrix: (Units=1/GPa)
#
#
# Indices 1 2 3 4 5 6 
#
# 1 0.031209 -0.005894 -0.014626 0.000000 0.000000 0.000000
# 2 -0.005894 0.029379 -0.006677 0.000000 0.000000 0.000000
# 3 -0.014626 -0.006677 0.019846 0.000000 0.000000 0.000000
# 4 0.000000 0.000000 0.000000 0.047540 0.000000 0.000000
# 5 0.000000 0.000000 0.000000 0.000000 -0.042289 0.000000
# 6 0.000000 0.000000 0.000000 0.000000 0.000000 0.050261
#
#
# Mechanical properties :
#
#
# Convention : Reuss Voigt Hill
#
# Bulk Modulus (GPa) = 38.40134 48.41952 43.41043
# Shear Modulus (GPa) = 25.12330 9.96857 17.54593
#
# Velocity S-wave (km/s) = 3.72620 2.34717 3.11398
# Velocity P-wave (km/s) = 6.30361 5.83994 6.07620
#
# Compressibility (1/GPa) = 0.02604076
#
# Stress axis : x y z
#
# Youngs Moduli (GPa) = 32.04234 34.03822 50.38734
#
# Poissons Ratio (x) = 0.20061 0.73696
# Poissons Ratio (y) = 0.18884 0.33644
# Poissons Ratio (z) = 0.46865 0.22727
#
# Static dielectric constant tensor:
#      x y z
#    x 3.269400 0.000000 0.000000 
#    y 0.000000 3.229320 0.000000 
#    z 0.000000 0.000000 3.303600 
# 
# 
# High freq. dielectric constant tensor:
#      x y z
#    x 1.693300 0.000000 0.000000 
#    y 0.000000 1.687650 0.000000 
#    z 0.000000 0.000000 1.698480 
# 
# From -- ./inp_files/12548.got.cif
#   From: 2010.06.25/outbox.cif.g09.slc.cpg/sg71_7_cif.got.tgz:12548.got - 2010.06.28 04:59:45.
