data_PCOD8290015
_publ_section_title
;
Structure prediction by ZEFSAII (Michael W. Deem and Ramdas Pophale) SiO2 
 PCOD8290015
Probable space group: I M M M
;
_chemical_formula_sum "Si O2"
_cell_formula_units_Z 104
_cell_length_a 9.110441
_cell_length_b 23.858672
_cell_length_c 27.198845
_cell_angle_alpha 90.000000
_cell_angle_beta 90.000000
_cell_angle_gamma 90.000000
_cell_volume 5912.023187
_symmetry_space_group_name_H-M "I M M M"
_symmetry_group_IT_number 71
_symmetry_cell_setting 'orthorhombic'
loop_
_space_group_symop_operation_xyz
x,y,z
-x,-y,z
x,-y,-z
-x,y,-z
-x,-y,-z
x,y,-z
-x,y,z
x,-y,z
1/2+x,1/2+y,1/2+z
1/2-x,1/2-y,1/2+z
1/2+x,1/2-y,1/2-z
1/2-x,1/2+y,1/2-z
1/2-x,1/2-y,1/2-z
1/2+x,1/2+y,1/2-z
1/2-x,1/2+y,1/2+z
1/2+x,1/2-y,1/2+z
loop_
_atom_site_type_symbol
_atom_site_label
_atom_site_fract_x
_atom_site_fract_y
_atom_site_fract_z
Si Si1 0.670907 0.764161 0.300293
Si Si2 0.163387 0.934086 0.000000
Si Si3 0.834733 0.266855 0.444070
Si Si4 0.825670 0.936588 0.444686
Si Si5 0.172541 0.563603 0.401596
Si Si6 0.831936 0.162308 0.872023
Si Si7 0.331741 0.661796 0.875915
O O1 0.500000 0.776738 0.291597
O O2 0.750000 0.750000 0.250000
O O3 0.697406 0.707751 0.330545
O O4 0.739461 0.818440 0.328013
O O5 0.254211 0.915819 0.952291
O O6 0.000000 0.907006 0.000000
O O7 0.147986 0.000000 0.000000
O O8 0.793650 0.256066 0.500000
O O9 0.721563 0.312072 0.423512
O O10 0.818072 0.207785 0.417811
O O11 0.000000 0.290244 0.437354
O O12 0.767341 0.921553 0.500000
O O13 0.766653 0.894717 0.401759
O O14 0.000000 0.931415 0.445663
O O15 0.777077 0.000000 0.431091
O O16 0.215364 0.500000 0.387680
O O17 0.238241 0.605742 0.360363
O O18 0.000000 0.570324 0.406432
O O19 0.000000 0.144733 0.876085
O O20 0.500000 0.653327 0.858728
#
# Coordination Sequence:
#
# PCOD8290015 Si02
#       7
#    16   8  16  16  16  16  16
#     4  10  21  37  56  76  96 121 157 204 258 309
#     4   9  17  29  45  65  91 127 167 201 232 265
#     4   9  17  28  43  65  95 130 164 199 239 285
#     4   8  13  22  41  73 110 144 177 210 240 276
#     4  10  20  33  49  69  95 128 164 199 235 280
#     4  10  21  34  49  71  96 123 158 199 247 298
#     4   9  16  28  48  73 100 131 167 205 246 292
#
# _framework density 17.591270000000002
#
# number of rings (size 3 to 8) (size 9 to 14) (size 15 to 20)
#    0.000    2.692    0.000    2.538    1.077    5.846 
#    0.000    0.000    0.000    2.769    0.000    3.231 
#    0.000    0.000    0.000    0.000    0.000    0.000 
#
# Total GULP energy -644467.278834 kJ/mol
# GULP energy per Si atom -12393.601516 kJ/mol
# Density = 1.755123 g / cm^3
# Si number density = 17.591270 Si / 1000 Ang^3
#
#
#
# Elastic Constant Matrix: (Units=GPa)
#
#
# Indices 1 2 3 4 5 6 
#
# 1 85.5069 48.7992 45.0739 0.0000 0.0000 0.0000
# 2 48.7992 107.4502 44.4670 0.0000 0.0000 0.0000
# 3 45.0739 44.4670 95.3096 0.0000 0.0000 0.0000
# 4 0.0000 0.0000 0.0000 21.8115 0.0000 0.0000
# 5 0.0000 0.0000 0.0000 0.0000 22.8922 0.0000
# 6 0.0000 0.0000 0.0000 0.0000 0.0000 23.6293
#
#
#
# Elastic Compliance Matrix: (Units=1/GPa)
#
#
# Indices 1 2 3 4 5 6 
#
# 1 0.018084 -0.005792 -0.005850 0.000000 0.000000 0.000000
# 2 -0.005792 0.013389 -0.003507 0.000000 0.000000 0.000000
# 3 -0.005850 -0.003507 0.014895 0.000000 0.000000 0.000000
# 4 0.000000 0.000000 0.000000 0.045847 0.000000 0.000000
# 5 0.000000 0.000000 0.000000 0.000000 0.043683 0.000000
# 6 0.000000 0.000000 0.000000 0.000000 0.000000 0.042320
#
#
# Mechanical properties :
#
#
# Convention : Reuss Voigt Hill
#
# Bulk Modulus (GPa) = 62.23163 62.77188 62.50176
# Shear Modulus (GPa) = 23.37822 23.66171 23.51996
#
# Velocity S-wave (km/s) = 3.64946 3.67152 3.66050
# Velocity P-wave (km/s) = 7.29460 7.33037 7.31251
#
# Compressibility (1/GPa) = 0.01606900
#
# Stress axis : x y z
#
# Youngs Moduli (GPa) = 55.29634 74.69030 67.13610
#
# Poissons Ratio (x) = 0.43262 0.39276
# Poissons Ratio (y) = 0.32028 0.23547
# Poissons Ratio (z) = 0.32349 0.26196
#
# Static dielectric constant tensor:
#      x y z
#    x 3.240710 0.000000 0.000000 
#    y 0.000000 3.526000 0.000000 
#    z 0.000000 0.000000 3.115020 
# 
# 
# High freq. dielectric constant tensor:
#      x y z
#    x 1.669340 0.000000 0.000000 
#    y 0.000000 1.685560 0.000000 
#    z 0.000000 0.000000 1.650040 
# 
# From -- ./inp_files/63570.got.cif
#   From: 2010.06.25/outbox.cif.g09.slc.cpg/sg71_32_cif.got.tgz:63570.got - 2010.06.28 04:59:45.
