data_PCOD8290880
_publ_section_title
;
Structure prediction by ZEFSAII (Michael W. Deem and Ramdas Pophale) SiO2 
 PCOD8290880
Probable space group: I M M M
;
_chemical_formula_sum "Si O2"
_cell_formula_units_Z 104
_cell_length_a 25.916357
_cell_length_b 9.137773
_cell_length_c 21.612344
_cell_angle_alpha 90.000000
_cell_angle_beta 90.000000
_cell_angle_gamma 90.000000
_cell_volume 5118.187483
_symmetry_space_group_name_H-M "I M M M"
_symmetry_group_IT_number 71
_symmetry_cell_setting 'orthorhombic'
loop_
_space_group_symop_operation_xyz
x,y,z
-x,-y,z
x,-y,-z
-x,y,-z
-x,-y,-z
x,y,-z
-x,y,z
x,-y,z
1/2+x,1/2+y,1/2+z
1/2-x,1/2-y,1/2+z
1/2+x,1/2-y,1/2-z
1/2-x,1/2+y,1/2-z
1/2-x,1/2-y,1/2-z
1/2+x,1/2+y,1/2-z
1/2-x,1/2+y,1/2+z
1/2+x,1/2-y,1/2+z
loop_
_atom_site_type_symbol
_atom_site_label
_atom_site_fract_x
_atom_site_fract_y
_atom_site_fract_z
Si Si1 0.774598 0.670367 0.190674
Si Si2 0.607100 0.167913 0.278856
Si Si3 0.561791 0.163184 0.500000
Si Si4 0.940701 0.170349 0.671093
Si Si5 0.888951 0.336857 0.571047
Si Si6 0.269811 0.828051 0.070876
Si Si7 0.439997 0.660933 0.614861
O O1 0.758209 0.500000 0.191812
O O2 0.750000 0.750000 0.250000
O O3 0.835541 0.688748 0.196836
O O4 0.760271 0.739458 0.124161
O O5 0.599709 0.237149 0.211605
O O6 0.567586 0.254951 0.321723
O O7 0.590374 0.000000 0.277477
O O8 0.500000 0.158924 0.500000
O O9 0.584837 0.246088 0.559343
O O10 0.584475 0.000000 0.500000
O O11 0.927169 0.219456 0.601823
O O12 0.000000 0.207553 0.686865
O O13 0.929783 0.000000 0.680251
O O14 0.904171 0.336832 0.500000
O O15 0.897469 0.500000 0.598679
O O16 0.829690 0.290241 0.580165
O O17 0.259672 0.000000 0.080715
O O18 0.253119 0.784123 0.000000
O O19 0.500000 0.642583 0.602086
O O20 0.414056 0.500000 0.617334
#
# Coordination Sequence:
#
# PCOD8290880 Si02
#       7
#    16  16   8  16  16  16  16
#     4  11  24  40  60  87 117 151 193 243 294 350
#     4  11  24  40  57  81 111 148 192 236 287 343
#     4   9  17  31  53  79 107 143 183 221 267 323
#     4  11  24  39  56  83 118 153 192 241 292 343
#     4   9  19  37  61  88 117 151 192 234 279 340
#     4   9  19  38  63  90 120 154 194 242 294 351
#     4  10  20  35  56  82 111 143 184 232 279 330
#
# _framework density 20.319693000000001
#
# number of rings (size 3 to 8) (size 9 to 14) (size 15 to 20)
#    0.000    1.923    0.000    4.385    0.000   12.615 
#    1.385    3.077    0.000    0.000    0.000    0.000 
#    0.000    0.000    0.000    0.000    0.000    0.000 
#
# Total GULP energy -644745.218768 kJ/mol
# GULP energy per Si atom -12398.946515 kJ/mol
# Density = 2.027344 g / cm^3
# Si number density = 20.319693 Si / 1000 Ang^3
#
#
#
# Elastic Constant Matrix: (Units=GPa)
#
#
# Indices 1 2 3 4 5 6 
#
# 1 46.7860 52.8813 37.0578 0.0000 0.0000 0.0000
# 2 52.8813 158.0386 75.5064 0.0000 0.0000 0.0000
# 3 37.0578 75.5064 124.5273 0.0000 0.0000 0.0000
# 4 0.0000 0.0000 0.0000 42.0110 0.0000 0.0000
# 5 0.0000 0.0000 0.0000 0.0000 31.8641 0.0000
# 6 0.0000 0.0000 0.0000 0.0000 0.0000 30.2624
#
#
#
# Elastic Compliance Matrix: (Units=1/GPa)
#
#
# Indices 1 2 3 4 5 6 
#
# 1 0.036338 -0.009844 -0.004845 0.000000 0.000000 0.000000
# 2 -0.009844 0.011575 -0.004089 0.000000 0.000000 0.000000
# 3 -0.004845 -0.004089 0.011951 0.000000 0.000000 0.000000
# 4 0.000000 0.000000 0.000000 0.023803 0.000000 0.000000
# 5 0.000000 0.000000 0.000000 0.000000 0.031383 0.000000
# 6 0.000000 0.000000 0.000000 0.000000 0.000000 0.033044
#
#
# Mechanical properties :
#
#
# Convention : Reuss Voigt Hill
#
# Bulk Modulus (GPa) = 44.82574 73.36031 59.09302
# Shear Modulus (GPa) = 25.89492 31.75460 28.82476
#
# Velocity S-wave (km/s) = 3.57371 3.95745 3.77047
# Velocity P-wave (km/s) = 6.25593 7.55403 6.93542
#
# Compressibility (1/GPa) = 0.02230861
#
# Stress axis : x y z
#
# Youngs Moduli (GPa) = 27.51926 86.39138 83.67219
#
# Poissons Ratio (x) = 0.85048 0.40536
# Poissons Ratio (y) = 0.27091 0.34213
# Poissons Ratio (z) = 0.13332 0.35325
#
# Static dielectric constant tensor:
#      x y z
#    x 3.436810 0.000000 0.000000 
#    y 0.000000 3.859490 0.000000 
#    z 0.000000 0.000000 3.841520 
# 
# 
# High freq. dielectric constant tensor:
#      x y z
#    x 1.771970 0.000000 0.000000 
#    y 0.000000 1.803180 0.000000 
#    z 0.000000 0.000000 1.808630 
# 
# From -- ./inp_files/11094.got.cif
#   From: 2010.06.25/outbox.cif.g09.slc.cpg/sg71_6_cif.got.tgz:11094.got - 2010.06.28 04:59:45.
