data_PCOD8290166
_publ_section_title
;
Structure prediction by ZEFSAII (Michael W. Deem and Ramdas Pophale) SiO2 
 PCOD8290166
Probable space group: I M M M
;
_chemical_formula_sum "Si O2"
_cell_formula_units_Z 120
_cell_length_a 9.113057
_cell_length_b 27.127389
_cell_length_c 27.334875
_cell_angle_alpha 90.000000
_cell_angle_beta 90.000000
_cell_angle_gamma 90.000000
_cell_volume 6757.548541
_symmetry_space_group_name_H-M "I M M M"
_symmetry_group_IT_number 71
_symmetry_cell_setting 'orthorhombic'
loop_
_space_group_symop_operation_xyz
x,y,z
-x,-y,z
x,-y,-z
-x,y,-z
-x,-y,-z
x,y,-z
-x,y,z
x,-y,z
1/2+x,1/2+y,1/2+z
1/2-x,1/2-y,1/2+z
1/2+x,1/2-y,1/2-z
1/2-x,1/2+y,1/2-z
1/2-x,1/2-y,1/2-z
1/2+x,1/2+y,1/2-z
1/2-x,1/2+y,1/2+z
1/2+x,1/2-y,1/2+z
loop_
_atom_site_type_symbol
_atom_site_label
_atom_site_fract_x
_atom_site_fract_y
_atom_site_fract_z
Si Si1 0.327344 0.801277 0.740423
Si Si2 0.671322 0.555565 0.813633
Si Si3 0.826311 0.500000 0.554056
Si Si4 0.826571 0.592577 0.383473
Si Si5 0.170683 0.643542 0.141468
Si Si6 0.172370 0.109595 0.214319
Si Si7 0.828903 0.312162 0.555722
Si Si8 0.172449 0.712693 0.944483
O O1 0.500000 0.796656 0.750325
O O2 0.250000 0.750000 0.750000
O O3 0.292267 0.819065 0.685494
O O4 0.258378 0.839411 0.778633
O O5 0.500000 0.557977 0.824115
O O6 0.731113 0.500000 0.820631
O O7 0.747577 0.591577 0.852584
O O8 0.707141 0.572444 0.758567
O O9 0.755991 0.500000 0.500000
O O10 0.773440 0.451294 0.581732
O O11 0.000000 0.500000 0.549868
O O12 0.735708 0.584738 0.334125
O O13 0.780779 0.643494 0.409267
O O14 0.000000 0.590327 0.372667
O O15 0.224465 0.668661 0.091045
O O16 0.000000 0.631235 0.140138
O O17 0.000000 0.120299 0.209477
O O18 0.786685 0.325977 0.500000
O O19 0.745937 0.263256 0.573133
O O20 0.000000 0.301410 0.560273
O O21 0.000000 0.720687 0.939754
O O22 0.219033 0.699234 0.000000
#
# Coordination Sequence:
#
# PCOD8290166 Si02
#       8
#    16  16   8  16  16  16  16  16
#     4  10  20  34  51  74 106 138 172 211 253 304
#     4   9  19  36  56  76 100 132 169 209 255 308
#     4   9  18  34  55  75  99 135 177 223 276 327
#     4  10  20  33  51  76 100 130 173 221 267 314
#     4   9  19  34  52  77 104 133 170 209 250 300
#     4  10  21  35  51  73 102 136 171 210 260 310
#     4   9  18  32  49  71  99 131 170 213 255 302
#     4   9  18  33  53  77 106 137 167 202 248 302
#
# _framework density 17.757919000000001
#
# number of rings (size 3 to 8) (size 9 to 14) (size 15 to 20)
#    0.000    2.600    0.000    1.200    2.800    4.000 
#    0.000    0.000    0.000    2.000    0.000    2.800 
#    0.000    0.000    0.000    0.000    0.000    0.000 
#
# Total GULP energy -744100.794511 kJ/mol
# GULP energy per Si atom -12401.679909 kJ/mol
# Density = 1.771750 g / cm^3
# Si number density = 17.757919 Si / 1000 Ang^3
#
#
#
# Elastic Constant Matrix: (Units=GPa)
#
#
# Indices 1 2 3 4 5 6 
#
# 1 51.6854 52.3719 36.2303 0.0000 0.0000 0.0000
# 2 52.3719 161.6314 73.4898 0.0000 0.0000 0.0000
# 3 36.2303 73.4898 106.0883 0.0000 0.0000 0.0000
# 4 0.0000 0.0000 0.0000 22.0282 0.0000 0.0000
# 5 0.0000 0.0000 0.0000 0.0000 24.4951 0.0000
# 6 0.0000 0.0000 0.0000 0.0000 0.0000 23.8302
#
#
#
# Elastic Compliance Matrix: (Units=1/GPa)
#
#
# Indices 1 2 3 4 5 6 
#
# 1 0.030681 -0.007558 -0.005243 0.000000 0.000000 0.000000
# 2 -0.007558 0.010893 -0.004965 0.000000 0.000000 0.000000
# 3 -0.005243 -0.004965 0.014656 0.000000 0.000000 0.000000
# 4 0.000000 0.000000 0.000000 0.045396 0.000000 0.000000
# 5 0.000000 0.000000 0.000000 0.000000 0.040825 0.000000
# 6 0.000000 0.000000 0.000000 0.000000 0.000000 0.041963
#
#
# Mechanical properties :
#
#
# Convention : Reuss Voigt Hill
#
# Bulk Modulus (GPa) = 48.31003 71.50991 59.90997
# Shear Modulus (GPa) = 22.04159 24.55823 23.29991
#
# Velocity S-wave (km/s) = 3.52693 3.72283 3.62620
# Velocity P-wave (km/s) = 6.62189 7.67046 7.16538
#
# Compressibility (1/GPa) = 0.02069964
#
# Stress axis : x y z
#
# Youngs Moduli (GPa) = 32.59385 91.80076 68.23223
#
# Poissons Ratio (x) = 0.69379 0.35771
# Poissons Ratio (y) = 0.24633 0.33877
# Poissons Ratio (z) = 0.17087 0.45579
#
# Static dielectric constant tensor:
#      x y z
#    x 3.189190 0.000000 0.000000 
#    y 0.000000 3.391900 0.000000 
#    z 0.000000 0.000000 3.390280 
# 
# 
# High freq. dielectric constant tensor:
#      x y z
#    x 1.678170 0.000000 0.000000 
#    y 0.000000 1.686730 0.000000 
#    z 0.000000 0.000000 1.683080 
# 
# From -- ./inp_files/63837.got.cif
#   From: 2010.06.25/outbox.cif.g09.slc.cpg/sg71_32_cif.got.tgz:63837.got - 2010.06.28 04:59:45.
