data_PCOD8290703
_publ_section_title
;
Structure prediction by ZEFSAII (Michael W. Deem and Ramdas Pophale) SiO2 
 PCOD8290703
Probable space group: I M M M
;
_chemical_formula_sum "Si O2"
_cell_formula_units_Z 80
_cell_length_a 9.992073
_cell_length_b 19.108520
_cell_length_c 22.686836
_cell_angle_alpha 90.000000
_cell_angle_beta 90.000000
_cell_angle_gamma 90.000000
_cell_volume 4331.682146
_symmetry_space_group_name_H-M "I M M M"
_symmetry_group_IT_number 71
_symmetry_cell_setting 'orthorhombic'
loop_
_space_group_symop_operation_xyz
x,y,z
-x,-y,z
x,-y,-z
-x,y,-z
-x,-y,-z
x,y,-z
-x,y,z
x,-y,z
1/2+x,1/2+y,1/2+z
1/2-x,1/2-y,1/2+z
1/2+x,1/2-y,1/2-z
1/2-x,1/2+y,1/2-z
1/2-x,1/2-y,1/2-z
1/2+x,1/2+y,1/2-z
1/2-x,1/2+y,1/2+z
1/2+x,1/2-y,1/2+z
loop_
_atom_site_type_symbol
_atom_site_label
_atom_site_fract_x
_atom_site_fract_y
_atom_site_fract_z
Si Si1 0.850133 0.313805 0.748206
Si Si2 0.354401 0.424055 0.431332
Si Si3 0.655058 0.081200 0.351049
Si Si4 0.845042 0.834552 0.569174
Si Si5 0.148782 0.316658 0.385584
O O1 0.750000 0.250000 0.750000
O O2 0.806608 0.375961 0.791992
O O3 0.846563 0.341870 0.681766
O O4 0.000000 0.287452 0.764056
O O5 0.371320 0.431875 0.500000
O O6 0.500000 0.403378 0.404177
O O7 0.309388 0.500000 0.405399
O O8 0.247620 0.364798 0.420909
O O9 0.500000 0.093337 0.368560
O O10 0.749046 0.105277 0.405050
O O11 0.683262 0.000000 0.337952
O O12 0.814832 0.824567 0.500000
O O13 0.808732 0.763945 0.604855
O O14 0.000000 0.855635 0.579377
O O15 0.000000 0.326550 0.411781
#
# Coordination Sequence:
#
# PCOD8290703 Si02
#       5
#    16  16  16  16  16
#     4  10  20  36  59  83 109 142 179 223 272 326
#     4   9  19  35  52  74 109 149 186 226 271 319
#     4  10  22  39  58  83 114 147 185 230 278 329
#     4  10  21  37  57  83 114 147 187 233 278 327
#     4  10  20  34  56  84 111 142 181 226 277 333
#
# _framework density 18.468575000000001
#
# number of rings (size 3 to 8) (size 9 to 14) (size 15 to 20)
#    0.000    2.200    2.000    1.200    0.000    5.200 
#    0.000    5.000    0.000    0.000    0.000    0.000 
#    0.000    0.000    0.000    0.000    0.000    0.000 
#
# Total GULP energy -495854.339221 kJ/mol
# GULP energy per Si atom -12396.358481 kJ/mol
# Density = 1.842654 g / cm^3
# Si number density = 18.468575 Si / 1000 Ang^3
#
#
#
# Elastic Constant Matrix: (Units=GPa)
#
#
# Indices 1 2 3 4 5 6 
#
# 1 95.4156 74.5294 33.2425 0.0000 0.0000 0.0000
# 2 74.5294 120.1063 37.1588 0.0000 0.0000 0.0000
# 3 33.2425 37.1588 83.8469 0.0000 0.0000 0.0000
# 4 0.0000 0.0000 0.0000 30.5902 0.0000 0.0000
# 5 0.0000 0.0000 0.0000 0.0000 28.9086 0.0000
# 6 0.0000 0.0000 0.0000 0.0000 0.0000 30.9191
#
#
#
# Elastic Compliance Matrix: (Units=1/GPa)
#
#
# Indices 1 2 3 4 5 6 
#
# 1 0.020949 -0.012087 -0.002949 0.000000 0.000000 0.000000
# 2 -0.012087 0.016623 -0.002575 0.000000 0.000000 0.000000
# 3 -0.002949 -0.002575 0.014237 0.000000 0.000000 0.000000
# 4 0.000000 0.000000 0.000000 0.032690 0.000000 0.000000
# 5 0.000000 0.000000 0.000000 0.000000 0.034592 0.000000
# 6 0.000000 0.000000 0.000000 0.000000 0.000000 0.032342
#
#
# Mechanical properties :
#
#
# Convention : Reuss Voigt Hill
#
# Bulk Modulus (GPa) = 60.28745 65.47001 62.87873
# Shear Modulus (GPa) = 26.01671 28.37947 27.19809
#
# Velocity S-wave (km/s) = 3.75734 3.92425 3.84170
# Velocity P-wave (km/s) = 7.17897 7.48728 7.33474
#
# Compressibility (1/GPa) = 0.01658720
#
# Stress axis : x y z
#
# Youngs Moduli (GPa) = 47.73437 60.15756 70.24108
#
# Poissons Ratio (x) = 0.72714 0.20714
# Poissons Ratio (y) = 0.57698 0.18085
# Poissons Ratio (z) = 0.14077 0.15489
#
# Static dielectric constant tensor:
#      x y z
#    x 3.555880 0.000000 0.000000 
#    y 0.000000 3.320760 0.000000 
#    z 0.000000 0.000000 3.401370 
# 
# 
# High freq. dielectric constant tensor:
#      x y z
#    x 1.723670 0.000000 0.000000 
#    y 0.000000 1.709560 0.000000 
#    z 0.000000 0.000000 1.710500 
# 
# From -- ./inp_files/14535.got.cif
#   From: 2010.06.25/outbox.cif.g09.slc.cpg/sg71_8_cif.got.tgz:14535.got - 2010.06.28 04:59:45.
