data_PCOD8290574
_publ_section_title
;
Structure prediction by ZEFSAII (Michael W. Deem and Ramdas Pophale) SiO2 
 PCOD8290574
Probable space group: I M M M
;
_chemical_formula_sum "Si O2"
_cell_formula_units_Z 88
_cell_length_a 8.831208
_cell_length_b 19.161244
_cell_length_c 27.575676
_cell_angle_alpha 90.000000
_cell_angle_beta 90.000000
_cell_angle_gamma 90.000000
_cell_volume 4666.271271
_symmetry_space_group_name_H-M "I M M M"
_symmetry_group_IT_number 71
_symmetry_cell_setting 'orthorhombic'
loop_
_space_group_symop_operation_xyz
x,y,z
-x,-y,z
x,-y,-z
-x,y,-z
-x,-y,-z
x,y,-z
-x,y,z
x,-y,z
1/2+x,1/2+y,1/2+z
1/2-x,1/2-y,1/2+z
1/2+x,1/2-y,1/2-z
1/2-x,1/2+y,1/2-z
1/2-x,1/2-y,1/2-z
1/2+x,1/2+y,1/2-z
1/2-x,1/2+y,1/2+z
1/2+x,1/2-y,1/2+z
loop_
_atom_site_type_symbol
_atom_site_label
_atom_site_fract_x
_atom_site_fract_y
_atom_site_fract_z
Si Si1 0.178490 0.843342 0.410956
Si Si2 0.667648 0.417380 0.273690
Si Si3 0.180149 0.922566 0.120105
Si Si4 0.670894 0.082413 0.500000
Si Si5 0.320644 0.296275 0.444226
Si Si6 0.674761 0.918069 0.322665
O O1 0.245470 0.892116 0.452416
O O2 0.242588 0.765676 0.414999
O O3 0.222704 0.875028 0.359424
O O4 0.000000 0.841553 0.416446
O O5 0.500000 0.385210 0.264572
O O6 0.653862 0.500000 0.273770
O O7 0.732646 0.395206 0.326569
O O8 0.781076 0.392738 0.231421
O O9 0.236784 0.868846 0.079202
O O10 0.000000 0.926871 0.120603
O O11 0.246308 0.000000 0.108604
O O12 0.500000 0.112581 0.500000
O O13 0.669395 0.000000 0.500000
O O14 0.268371 0.294632 0.500000
O O15 0.500000 0.288357 0.439473
O O16 0.500000 0.900601 0.332074
O O17 0.707540 0.000000 0.329663
#
# Coordination Sequence:
#
# PCOD8290574 Si02
#       6
#    16  16  16   8  16  16
#     4  12  24  37  54  77 108 146 185 222 265 321
#     4   8  14  28  51  78 109 141 174 218 271 323
#     4   8  15  30  55  86 113 139 178 226 272 323
#     4  11  23  39  59  81 106 137 178 227 273 316
#     4  10  20  35  56  79 109 148 184 224 275 324
#     4  10  20  34  54  80 109 140 178 225 273 322
#
# _framework density 18.858741999999999
#
# number of rings (size 3 to 8) (size 9 to 14) (size 15 to 20)
#    0.000    2.273    0.909    4.091    0.000    4.364 
#    0.000    3.636    0.000    1.636    0.000    1.273 
#    0.000    0.000    0.000    0.000    0.000    0.000 
#
# Total GULP energy -545532.708833 kJ/mol
# GULP energy per Si atom -12398.470655 kJ/mol
# Density = 1.881582 g / cm^3
# Si number density = 18.858742 Si / 1000 Ang^3
#
#
#
# Elastic Constant Matrix: (Units=GPa)
#
#
# Indices 1 2 3 4 5 6 
#
# 1 60.8393 32.4083 29.9972 0.0000 0.0000 0.0000
# 2 32.4083 92.1735 49.1514 0.0000 0.0000 0.0000
# 3 29.9972 49.1514 98.1060 0.0000 0.0000 0.0000
# 4 0.0000 0.0000 0.0000 8.7856 0.0000 0.0000
# 5 0.0000 0.0000 0.0000 0.0000 78.3208 0.0000
# 6 0.0000 0.0000 0.0000 0.0000 0.0000 11.7552
#
#
#
# Elastic Compliance Matrix: (Units=1/GPa)
#
#
# Indices 1 2 3 4 5 6 
#
# 1 0.021188 -0.005452 -0.003747 0.000000 0.000000 0.000000
# 2 -0.005452 0.016207 -0.006453 0.000000 0.000000 0.000000
# 3 -0.003747 -0.006453 0.014572 0.000000 0.000000 0.000000
# 4 0.000000 0.000000 0.000000 0.113822 0.000000 0.000000
# 5 0.000000 0.000000 0.000000 0.000000 0.012768 0.000000
# 6 0.000000 0.000000 0.000000 0.000000 0.000000 0.085069
#
#
# Mechanical properties :
#
#
# Convention : Reuss Voigt Hill
#
# Bulk Modulus (GPa) = 48.39456 52.69252 50.54354
# Shear Modulus (GPa) = 16.56629 29.07643 22.82136
#
# Velocity S-wave (km/s) = 2.96707 3.93084 3.48245
# Velocity P-wave (km/s) = 6.12007 6.97160 6.55967
#
# Compressibility (1/GPa) = 0.02066348
#
# Stress axis : x y z
#
# Youngs Moduli (GPa) = 47.19564 61.70236 68.62605
#
# Poissons Ratio (x) = 0.33638 0.25717
# Poissons Ratio (y) = 0.25729 0.44283
# Poissons Ratio (z) = 0.17686 0.39815
#
# Static dielectric constant tensor:
#      x y z
#    x 3.315300 0.000000 0.000000 
#    y 0.000000 3.439420 0.000000 
#    z 0.000000 0.000000 6.562360 
# 
# 
# High freq. dielectric constant tensor:
#      x y z
#    x 1.712470 0.000000 0.000000 
#    y 0.000000 1.714870 0.000000 
#    z 0.000000 0.000000 1.745260 
# 
# From -- ./inp_files/49220.got.cif
#   From: 2010.06.25/outbox.cif.g09.slc.cpg/sg71_25_cif.got.tgz:49220.got - 2010.06.28 04:59:45.
