data_PCOD8290877
_publ_section_title
;
Structure prediction by ZEFSAII (Michael W. Deem and Ramdas Pophale) SiO2 
 PCOD8290877
Probable space group: I M M M
;
_chemical_formula_sum "Si O2"
_cell_formula_units_Z 112
_cell_length_a 14.660325
_cell_length_b 27.844676
_cell_length_c 15.053197
_cell_angle_alpha 90.000000
_cell_angle_beta 90.000000
_cell_angle_gamma 90.000000
_cell_volume 6144.895649
_symmetry_space_group_name_H-M "I M M M"
_symmetry_group_IT_number 71
_symmetry_cell_setting 'orthorhombic'
loop_
_space_group_symop_operation_xyz
x,y,z
-x,-y,z
x,-y,-z
-x,y,-z
-x,-y,-z
x,y,-z
-x,y,z
x,-y,z
1/2+x,1/2+y,1/2+z
1/2-x,1/2-y,1/2+z
1/2+x,1/2-y,1/2-z
1/2-x,1/2+y,1/2-z
1/2-x,1/2-y,1/2-z
1/2+x,1/2+y,1/2-z
1/2-x,1/2+y,1/2+z
1/2+x,1/2-y,1/2+z
loop_
_atom_site_type_symbol
_atom_site_label
_atom_site_fract_x
_atom_site_fract_y
_atom_site_fract_z
Si Si1 0.145834 0.263090 0.256378
Si Si2 0.253689 0.391424 0.896879
Si Si3 0.252855 0.945436 0.770804
Si Si4 0.100694 0.189200 0.400601
Si Si5 0.896959 0.202484 0.094775
Si Si6 0.605753 0.597463 0.604740
Si Si7 0.393176 0.870811 0.270297
O O1 0.250000 0.250000 0.250000
O O2 0.101943 0.235405 0.338184
O O3 0.105089 0.246041 0.162972
O O4 0.123281 0.318556 0.272095
O O5 0.279934 0.435684 0.831650
O O6 0.325231 0.349829 0.872944
O O7 0.152366 0.372234 0.869389
O O8 0.256285 0.406912 0.000000
O O9 0.169749 0.937885 0.838986
O O10 0.339816 0.910255 0.790675
O O11 0.286396 0.000000 0.779130
O O12 0.120646 0.207507 0.500000
O O13 0.000000 0.165592 0.393750
O O14 0.857578 0.151435 0.129554
O O15 0.000000 0.188966 0.073859
O O16 0.850766 0.217729 0.000000
O O17 0.619095 0.587588 0.500000
O O18 0.500000 0.588789 0.632045
O O19 0.500000 0.883233 0.275981
#
# Coordination Sequence:
#
# PCOD8290877 Si02
#       7
#    16  16  16  16  16  16  16
#     4  12  20  33  54  80 117 150 184 231 273 325
#     4   9  20  38  57  84 113 142 189 239 281 335
#     4  10  22  39  57  79 109 148 191 242 294 341
#     4  10  20  35  56  81 115 157 188 214 264 339
#     4   9  18  31  50  79 112 145 175 207 262 335
#     4   9  18  35  60  91 123 150 181 226 285 351
#     4  10  22  38  56  81 112 148 192 242 292 332
#
# _framework density 18.226510000000001
#
# number of rings (size 3 to 8) (size 9 to 14) (size 15 to 20)
#    0.857    1.286    1.429    3.857    0.000    4.286 
#    0.000    1.429    0.000    2.143    0.000    4.000 
#    0.000    0.000    0.000    0.000    0.000    0.000 
#
# Total GULP energy -693764.211218 kJ/mol
# GULP energy per Si atom -12388.646629 kJ/mol
# Density = 1.818503 g / cm^3
# Si number density = 18.226510 Si / 1000 Ang^3
#
#
#
# Elastic Constant Matrix: (Units=GPa)
#
#
# Indices 1 2 3 4 5 6 
#
# 1 118.0522 43.3726 38.4170 0.0000 0.0000 0.0000
# 2 43.3726 123.0187 40.1916 0.0000 0.0000 0.0000
# 3 38.4170 40.1916 77.8983 0.0000 0.0000 0.0000
# 4 0.0000 0.0000 0.0000 -6.4902 0.0001 0.0000
# 5 0.0000 0.0000 0.0000 0.0001 39.3898 0.0000
# 6 0.0000 0.0000 0.0000 0.0000 0.0000 19.5104
#
#
#
# Elastic Compliance Matrix: (Units=1/GPa)
#
#
# Indices 1 2 3 4 5 6 
#
# 1 0.010674 -0.002458 -0.003996 0.000000 0.000000 0.000000
# 2 -0.002458 0.010343 -0.004124 0.000000 0.000000 0.000000
# 3 -0.003996 -0.004124 0.016936 0.000000 0.000000 0.000000
# 4 0.000000 0.000000 0.000000 -0.154078 0.000000 0.000000
# 5 0.000000 0.000000 0.000000 0.000000 0.025387 0.000000
# 6 0.000000 0.000000 0.000000 0.000000 0.000000 0.051255
#
#
# Mechanical properties :
#
#
# Convention : Reuss Voigt Hill
#
# Bulk Modulus (GPa) = 59.53573 62.54795 61.04184
# Shear Modulus (GPa) = -392.85374 23.61453 -184.61961
#
# Velocity S-wave (km/s) = -14.69720 3.60337 -10.07530
# Velocity P-wave (km/s) = 15.97733 7.19054 10.08888
#
# Compressibility (1/GPa) = 0.01679664
#
# Stress axis : x y z
#
# Youngs Moduli (GPa) = 93.68324 96.68514 59.04616
#
# Poissons Ratio (x) = 0.23764 0.23595
# Poissons Ratio (y) = 0.23026 0.24352
# Poissons Ratio (z) = 0.37437 0.39875
#
# Static dielectric constant tensor:
#      x y z
#    x 3.338480 0.000000 0.000000 
#    y 0.000000 3.113060 0.000000 
#    z 0.000000 0.000000 3.299100 
# 
# 
# High freq. dielectric constant tensor:
#      x y z
#    x 1.701630 0.000000 0.000000 
#    y 0.000000 1.686150 0.000000 
#    z 0.000000 0.000000 1.702820 
# 
# From -- ./inp_files/35339.got.cif
#   From: 2010.06.25/outbox.cif.g09.slc.cpg/sg71_18_cif.got.tgz:35339.got - 2010.06.28 04:59:45.
