data_PCOD8290510
_publ_section_title
;
Structure prediction by ZEFSAII (Michael W. Deem and Ramdas Pophale) SiO2 
 PCOD8290510
Probable space group: I M M M
;
_chemical_formula_sum "Si O2"
_cell_formula_units_Z 104
_cell_length_a 20.956237
_cell_length_b 8.780602
_cell_length_c 29.169379
_cell_angle_alpha 90.000000
_cell_angle_beta 90.000000
_cell_angle_gamma 90.000000
_cell_volume 5367.410074
_symmetry_space_group_name_H-M "I M M M"
_symmetry_group_IT_number 71
_symmetry_cell_setting 'orthorhombic'
loop_
_space_group_symop_operation_xyz
x,y,z
-x,-y,z
x,-y,-z
-x,y,-z
-x,-y,-z
x,y,-z
-x,y,z
x,-y,z
1/2+x,1/2+y,1/2+z
1/2-x,1/2-y,1/2+z
1/2+x,1/2-y,1/2-z
1/2-x,1/2+y,1/2-z
1/2-x,1/2-y,1/2-z
1/2+x,1/2+y,1/2-z
1/2-x,1/2+y,1/2+z
1/2+x,1/2-y,1/2+z
loop_
_atom_site_type_symbol
_atom_site_label
_atom_site_fract_x
_atom_site_fract_y
_atom_site_fract_z
Si Si1 0.000000 0.331364 0.054122
Si Si2 0.265762 0.825639 0.614795
Si Si3 0.928292 0.830453 0.590846
Si Si4 0.370585 0.320674 0.552264
Si Si5 0.824077 0.329911 0.449063
Si Si6 0.794910 0.181163 0.711381
Si Si7 0.072520 0.680582 0.689135
O O1 0.062385 0.242473 0.070528
O O2 0.000000 0.500000 0.076016
O O3 0.000000 0.341771 0.000000
O O4 0.321134 0.725474 0.591727
O O5 0.206328 0.801360 0.581629
O O6 0.241758 0.770991 0.664557
O O7 0.288115 0.000000 0.615503
O O8 0.897372 0.723056 0.551762
O O9 0.920312 0.745106 0.638664
O O10 0.000000 0.846282 0.575121
O O11 0.897978 0.000000 0.594986
O O12 0.354472 0.260676 0.500000
O O13 0.374217 0.500000 0.550377
O O14 0.795680 0.326543 0.500000
O O15 0.814429 0.500000 0.428904
O O16 0.750000 0.250000 0.750000
O O17 0.867399 0.247537 0.716986
O O18 0.799771 0.000000 0.715737
O O19 0.080925 0.500000 0.689125
O O20 0.000000 0.722141 0.707890
#
# Coordination Sequence:
#
# PCOD8290510 Si02
#       7
#     8  16  16  16  16  16  16
#     4   9  17  31  53  81 113 151 195 239 283 337
#     4  11  23  38  57  83 114 150 191 236 288 343
#     4  10  20  34  53  78 109 148 194 240 286 336
#     4  10  20  34  55  84 117 154 195 238 286 342
#     4  11  23  36  52  77 111 152 195 238 286 338
#     4  11  24  41  64  92 120 153 194 242 297 355
#     4  10  20  36  62  92 120 153 193 240 293 349
#
# _framework density 19.376197999999999
#
# number of rings (size 3 to 8) (size 9 to 14) (size 15 to 20)
#    0.000    1.615    1.538    3.462    0.000    8.923 
#    0.000    1.538    1.692    0.000    0.000    0.000 
#    0.000    0.000    0.000    0.000    0.000    0.000 
#
# Total GULP energy -644246.639696 kJ/mol
# GULP energy per Si atom -12389.358456 kJ/mol
# Density = 1.933210 g / cm^3
# Si number density = 19.376198 Si / 1000 Ang^3
#
#
#
# Elastic Constant Matrix: (Units=GPa)
#
#
# Indices 1 2 3 4 5 6 
#
# 1 131.5742 56.4834 53.1181 0.0000 0.0000 0.0000
# 2 56.4834 94.6589 36.8068 0.0000 0.0000 0.0000
# 3 53.1181 36.8068 78.4955 0.0000 0.0000 0.0000
# 4 0.0000 0.0000 0.0000 25.3478 0.0000 0.0000
# 5 0.0000 0.0000 0.0000 0.0000 29.6776 0.0000
# 6 0.0000 0.0000 0.0000 0.0000 0.0000 37.0410
#
#
#
# Elastic Compliance Matrix: (Units=1/GPa)
#
#
# Indices 1 2 3 4 5 6 
#
# 1 0.012085 -0.004930 -0.005866 0.000000 0.000000 0.000000
# 2 -0.004930 0.014931 -0.003665 0.000000 0.000000 0.000000
# 3 -0.005866 -0.003665 0.018428 0.000000 0.000000 0.000000
# 4 0.000000 0.000000 0.000000 0.039451 0.000000 0.000000
# 5 0.000000 0.000000 0.000000 0.000000 0.033695 0.000000
# 6 0.000000 0.000000 0.000000 0.000000 0.000000 0.026997
#
#
# Mechanical properties :
#
#
# Convention : Reuss Voigt Hill
#
# Bulk Modulus (GPa) = 60.52821 66.39392 63.46106
# Shear Modulus (GPa) = 27.77508 28.96796 28.37152
#
# Velocity S-wave (km/s) = 3.79022 3.87075 3.83070
# Velocity P-wave (km/s) = 7.10356 7.37001 7.23801
#
# Compressibility (1/GPa) = 0.01652122
#
# Stress axis : x y z
#
# Youngs Moduli (GPa) = 82.74718 66.97384 54.26597
#
# Poissons Ratio (x) = 0.33019 0.31833
# Poissons Ratio (y) = 0.40796 0.19888
# Poissons Ratio (z) = 0.48541 0.24546
#
# Static dielectric constant tensor:
#      x y z
#    x 4.301650 0.000000 0.000000 
#    y 0.000000 3.771780 0.000000 
#    z 0.000000 0.000000 3.307420 
# 
# 
# High freq. dielectric constant tensor:
#      x y z
#    x 1.770530 0.000000 0.000000 
#    y 0.000000 1.770320 0.000000 
#    z 0.000000 0.000000 1.713100 
# 
# From -- ./inp_files/11096.got.cif
#   From: 2010.06.25/outbox.cif.g09.slc.cpg/sg71_6_cif.got.tgz:11096.got - 2010.06.28 04:59:45.
