data_PCOD8290809
_publ_section_title
;
Structure prediction by ZEFSAII (Michael W. Deem and Ramdas Pophale) SiO2 
 PCOD8290809
Probable space group: I M M M
;
_chemical_formula_sum "Si O2"
_cell_formula_units_Z 104
_cell_length_a 23.556708
_cell_length_b 26.310178
_cell_length_c 9.015925
_cell_angle_alpha 90.000000
_cell_angle_beta 90.000000
_cell_angle_gamma 90.000000
_cell_volume 5587.900640
_symmetry_space_group_name_H-M "I M M M"
_symmetry_group_IT_number 71
_symmetry_cell_setting 'orthorhombic'
loop_
_space_group_symop_operation_xyz
x,y,z
-x,-y,z
x,-y,-z
-x,y,-z
-x,-y,-z
x,y,-z
-x,y,z
x,-y,z
1/2+x,1/2+y,1/2+z
1/2-x,1/2-y,1/2+z
1/2+x,1/2-y,1/2-z
1/2-x,1/2+y,1/2-z
1/2-x,1/2-y,1/2-z
1/2+x,1/2+y,1/2-z
1/2-x,1/2+y,1/2+z
1/2+x,1/2-y,1/2+z
loop_
_atom_site_type_symbol
_atom_site_label
_atom_site_fract_x
_atom_site_fract_y
_atom_site_fract_z
Si Si1 0.265178 0.633702 0.171475
Si Si2 0.341103 0.442925 0.674574
Si Si3 0.067541 0.500000 0.167412
Si Si4 0.860796 0.214648 0.673093
Si Si5 0.854810 0.322281 0.824355
Si Si6 0.434975 0.636358 0.327198
Si Si7 0.067245 0.399348 0.330103
O O1 0.285406 0.584165 0.260165
O O2 0.305254 0.681452 0.206656
O O3 0.202055 0.647961 0.222616
O O4 0.267592 0.619420 0.000000
O O5 0.333900 0.444086 0.500000
O O6 0.345920 0.500000 0.738619
O O7 0.397940 0.412518 0.721013
O O8 0.090399 0.450379 0.251997
O O9 0.000000 0.500000 0.166889
O O10 0.091574 0.500000 0.000000
O O11 0.868913 0.226269 0.500000
O O12 0.852425 0.266015 0.761862
O O13 0.916228 0.185356 0.733012
O O14 0.908173 0.350738 0.753669
O O15 0.861941 0.319717 0.000000
O O16 0.426048 0.648999 0.500000
O O17 0.500000 0.623535 0.290533
O O18 0.087394 0.399940 0.500000
O O19 0.000000 0.395684 0.317908
#
# Coordination Sequence:
#
# PCOD8290809 Si02
#       7
#    16  16   8  16  16  16  16
#     4   9  20  37  55  77 104 138 177 218 267 321
#     4   9  18  33  54  80 109 142 180 223 269 315
#     4   9  17  33  57  79 101 133 169 205 250 303
#     4  10  20  35  55  77 105 139 175 219 270 319
#     4  11  22  36  55  80 106 136 178 221 266 320
#     4   9  18  33  53  78 109 145 183 221 264 316
#     4  10  21  37  56  79 107 138 173 214 261 312
#
# _framework density 18.611640999999999
#
# number of rings (size 3 to 8) (size 9 to 14) (size 15 to 20)
#    0.000    2.385    0.000    2.077    0.000    5.231 
#    1.385    1.538    0.000    0.000    0.000    4.308 
#    0.000    0.000    0.000    0.000    0.000    0.000 
#
# Total GULP energy -644959.239769 kJ/mol
# GULP energy per Si atom -12403.062303 kJ/mol
# Density = 1.856928 g / cm^3
# Si number density = 18.611641 Si / 1000 Ang^3
#
#
#
# Elastic Constant Matrix: (Units=GPa)
#
#
# Indices 1 2 3 4 5 6 
#
# 1 67.2815 58.5854 41.8348 0.0000 0.0000 0.0000
# 2 58.5854 105.5178 60.2261 0.0000 0.0000 0.0000
# 3 41.8348 60.2261 92.9246 0.0000 0.0000 0.0000
# 4 0.0000 0.0000 0.0000 34.7131 0.0000 0.0000
# 5 0.0000 0.0000 0.0000 0.0000 27.9280 0.0000
# 6 0.0000 0.0000 0.0000 0.0000 0.0000 16.6313
#
#
#
# Elastic Compliance Matrix: (Units=1/GPa)
#
#
# Indices 1 2 3 4 5 6 
#
# 1 0.029806 -0.014109 -0.004274 0.000000 0.000000 0.000000
# 2 -0.014109 0.021720 -0.007725 0.000000 0.000000 0.000000
# 3 -0.004274 -0.007725 0.017693 0.000000 0.000000 0.000000
# 4 0.000000 0.000000 0.000000 0.028808 0.000000 0.000000
# 5 0.000000 0.000000 0.000000 0.000000 0.035806 0.000000
# 6 0.000000 0.000000 0.000000 0.000000 0.000000 0.060128
#
#
# Mechanical properties :
#
#
# Convention : Reuss Voigt Hill
#
# Bulk Modulus (GPa) = 58.81895 65.22406 62.02151
# Shear Modulus (GPa) = 19.85342 22.85964 21.35653
#
# Velocity S-wave (km/s) = 3.26961 3.50843 3.39113
# Velocity P-wave (km/s) = 6.77685 7.17865 6.98064
#
# Compressibility (1/GPa) = 0.01700132
#
# Stress axis : x y z
#
# Youngs Moduli (GPa) = 33.54976 46.04021 56.52104
#
# Poissons Ratio (x) = 0.64960 0.24159
# Poissons Ratio (y) = 0.47337 0.43663
# Poissons Ratio (z) = 0.14340 0.35567
#
# Static dielectric constant tensor:
#      x y z
#    x 3.363810 0.000000 0.000000 
#    y 0.000000 3.527550 0.000000 
#    z 0.000000 0.000000 3.479030 
# 
# 
# High freq. dielectric constant tensor:
#      x y z
#    x 1.712500 0.000000 0.000000 
#    y 0.000000 1.727020 0.000000 
#    z 0.000000 0.000000 1.727510 
# 
# From -- ./inp_files/13283.got.cif
#   From: 2010.06.25/outbox.cif.g09.slc.cpg/sg71_7_cif.got.tgz:13283.got - 2010.06.28 04:59:45.
