data_PCOD8290766
_publ_section_title
;
Structure prediction by ZEFSAII (Michael W. Deem and Ramdas Pophale) SiO2 
 PCOD8290766
Probable space group: I M M M
;
_chemical_formula_sum "Si O2"
_cell_formula_units_Z 88
_cell_length_a 24.400263
_cell_length_b 22.619056
_cell_length_c 8.857909
_cell_angle_alpha 90.000000
_cell_angle_beta 90.000000
_cell_angle_gamma 90.000000
_cell_volume 4888.776663
_symmetry_space_group_name_H-M "I M M M"
_symmetry_group_IT_number 71
_symmetry_cell_setting 'orthorhombic'
loop_
_space_group_symop_operation_xyz
x,y,z
-x,-y,z
x,-y,-z
-x,y,-z
-x,-y,-z
x,y,-z
-x,y,z
x,-y,z
1/2+x,1/2+y,1/2+z
1/2-x,1/2-y,1/2+z
1/2+x,1/2-y,1/2-z
1/2-x,1/2+y,1/2-z
1/2-x,1/2-y,1/2-z
1/2+x,1/2+y,1/2-z
1/2-x,1/2+y,1/2+z
1/2+x,1/2-y,1/2+z
loop_
_atom_site_type_symbol
_atom_site_label
_atom_site_fract_x
_atom_site_fract_y
_atom_site_fract_z
Si Si1 0.060370 0.846849 0.678843
Si Si2 0.875511 0.391188 0.177398
Si Si3 0.654646 0.567896 0.823006
Si Si4 0.231703 0.568841 0.324407
Si Si5 0.064750 0.500000 0.326749
Si Si6 0.436167 0.213031 0.826133
O O1 0.057439 0.852098 0.500000
O O2 0.105045 0.892631 0.742853
O O3 0.076811 0.780173 0.723073
O O4 0.000000 0.862303 0.745245
O O5 0.813695 0.393295 0.238084
O O6 0.912472 0.441591 0.250415
O O7 0.900405 0.327853 0.218047
O O8 0.875167 0.400492 0.000000
O O9 0.640142 0.500000 0.787895
O O10 0.709298 0.587880 0.737667
O O11 0.663792 0.578455 0.000000
O O12 0.229052 0.583709 0.500000
O O13 0.220325 0.500000 0.291880
O O14 0.083979 0.500000 0.500000
O O15 0.000000 0.500000 0.310775
O O16 0.500000 0.198681 0.803066
O O17 0.419683 0.201791 0.000000
#
# Coordination Sequence:
#
# PCOD8290766 Si02
#       6
#    16  16  16  16   8  16
#     4   8  15  30  53  80 108 140 175 210 255 314
#     4  12  23  34  52  77 104 133 173 223 269 307
#     4   9  17  30  52  82 112 136 167 216 266 309
#     4  10  20  35  54  73 100 139 179 214 258 319
#     4  11  23  37  53  75 105 139 174 211 256 313
#     4   9  18  34  54  73 100 141 182 214 252 312
#
# _framework density 18.000413000000002
#
# number of rings (size 3 to 8) (size 9 to 14) (size 15 to 20)
#    0.000    2.273    0.909    4.091    0.000    4.364 
#    0.000    3.636    0.000    1.636    0.000    2.545 
#    0.000    0.000    0.000    0.000    0.000    0.000 
#
# Total GULP energy -545674.872961 kJ/mol
# GULP energy per Si atom -12401.701658 kJ/mol
# Density = 1.795944 g / cm^3
# Si number density = 18.000413 Si / 1000 Ang^3
#
#
#
# Elastic Constant Matrix: (Units=GPa)
#
#
# Indices 1 2 3 4 5 6 
#
# 1 135.4608 81.5820 63.2036 0.0000 0.0000 0.0000
# 2 81.5820 101.4157 44.1466 0.0000 0.0000 0.0000
# 3 63.2036 44.1466 90.6359 0.0000 0.0000 0.0000
# 4 0.0000 0.0000 0.0000 14.1131 0.0000 0.0000
# 5 0.0000 0.0000 0.0000 0.0000 25.0004 0.0000
# 6 0.0000 0.0000 0.0000 0.0000 0.0000 19.7607
#
#
#
# Elastic Compliance Matrix: (Units=1/GPa)
#
#
# Indices 1 2 3 4 5 6 
#
# 1 0.016921 -0.010756 -0.006561 0.000000 0.000000 0.000000
# 2 -0.010756 0.019351 -0.001925 0.000000 0.000000 0.000000
# 3 -0.006561 -0.001925 0.016546 0.000000 0.000000 0.000000
# 4 0.000000 0.000000 0.000000 0.070856 0.000000 0.000000
# 5 0.000000 0.000000 0.000000 0.000000 0.039999 0.000000
# 6 0.000000 0.000000 0.000000 0.000000 0.000000 0.050606
#
#
# Mechanical properties :
#
#
# Convention : Reuss Voigt Hill
#
# Bulk Modulus (GPa) = 69.76120 78.37522 74.06821
# Shear Modulus (GPa) = 19.41444 21.01350 20.21397
#
# Velocity S-wave (km/s) = 3.28770 3.42042 3.35471
# Velocity P-wave (km/s) = 7.29736 7.69638 7.49952
#
# Compressibility (1/GPa) = 0.01433462
#
# Stress axis : x y z
#
# Youngs Moduli (GPa) = 59.09724 51.67751 60.43867
#
# Poissons Ratio (x) = 0.55585 0.39652
# Poissons Ratio (y) = 0.63565 0.11633
# Poissons Ratio (z) = 0.38772 0.09946
#
# Static dielectric constant tensor:
#      x y z
#    x 3.565950 0.000000 0.000000 
#    y 0.000000 3.342930 0.000000 
#    z 0.000000 0.000000 3.160130 
# 
# 
# High freq. dielectric constant tensor:
#      x y z
#    x 1.704400 0.000000 0.000000 
#    y 0.000000 1.688210 0.000000 
#    z 0.000000 0.000000 1.680940 
# 
# From -- ./inp_files/12516.got.cif
#   From: 2010.06.25/outbox.cif.g09.slc.cpg/sg71_7_cif.got.tgz:12516.got - 2010.06.28 04:59:45.
