data_PCOD8290337
_publ_section_title
;
Structure prediction by ZEFSAII (Michael W. Deem and Ramdas Pophale) SiO2 
 PCOD8290337
Probable space group: I M M M
;
_chemical_formula_sum "Si O2"
_cell_formula_units_Z 92
_cell_length_a 28.447759
_cell_length_b 16.119884
_cell_length_c 11.650452
_cell_angle_alpha 90.000000
_cell_angle_beta 90.000000
_cell_angle_gamma 90.000000
_cell_volume 5342.601076
_symmetry_space_group_name_H-M "I M M M"
_symmetry_group_IT_number 71
_symmetry_cell_setting 'orthorhombic'
loop_
_space_group_symop_operation_xyz
x,y,z
-x,-y,z
x,-y,-z
-x,y,-z
-x,-y,-z
x,y,-z
-x,y,z
x,-y,z
1/2+x,1/2+y,1/2+z
1/2-x,1/2-y,1/2+z
1/2+x,1/2-y,1/2-z
1/2-x,1/2+y,1/2-z
1/2-x,1/2-y,1/2-z
1/2+x,1/2+y,1/2-z
1/2-x,1/2+y,1/2+z
1/2+x,1/2-y,1/2+z
loop_
_atom_site_type_symbol
_atom_site_label
_atom_site_fract_x
_atom_site_fract_y
_atom_site_fract_z
Si Si1 0.947147 0.500000 0.752334
Si Si2 0.722371 0.335192 0.266088
Si Si3 0.362502 0.230055 0.756970
Si Si4 0.256359 0.097635 0.000000
Si Si5 0.641498 0.834498 0.000000
Si Si6 0.084637 0.500000 0.500000
Si Si7 0.554233 0.167450 0.364526
Si Si8 0.200176 0.594906 0.868377
O O1 0.946792 0.500000 0.614379
O O2 0.925047 0.416763 0.806444
O O3 0.000000 0.500000 0.797557
O O4 0.750000 0.250000 0.250000
O O5 0.666955 0.315805 0.250485
O O6 0.726466 0.377107 0.389840
O O7 0.745134 0.396717 0.171402
O O8 0.411271 0.238952 0.685009
O O9 0.332603 0.151896 0.710191
O O10 0.375222 0.216343 0.889464
O O11 0.302818 0.153299 0.000000
O O12 0.267916 0.000000 0.000000
O O13 0.618051 0.922687 0.000000
O O14 0.559884 0.160008 0.500000
O O15 0.500000 0.186143 0.330261
O O16 0.184119 0.500000 0.851821
O O17 0.195651 0.623381 0.000000
#
# Coordination Sequence:
#
# PCOD8290337 Si02
#       8
#     8  16  16   8   8   4  16  16
#     4  10  20  34  49  69  94 130 172 219 263 299
#     4  10  22  32  53  71 103 135 173 213 256 305
#     4  11  23  34  51  72 100 131 178 207 261 304
#     4  12  22  36  53  76 107 140 180 218 258 309
#     4  12  22  31  50  70  98 141 171 210 246 303
#     4  12  21  32  46  72  98 136 180 212 251 288
#     4  10  21  36  52  69  96 128 170 218 263 309
#     4  10  21  33  49  72 101 134 169 210 249 295
#
# _framework density 17.220075999999999
#
# number of rings (size 3 to 8) (size 9 to 14) (size 15 to 20)
#    0.000    1.391    5.652    1.435    9.739    1.043 
#    0.000    0.435    0.000    0.000    0.000    0.000 
#    0.000    3.478    0.000    1.913    0.000    0.000 
#
# Total GULP energy -570232.856242 kJ/mol
# GULP energy per Si atom -12396.366440 kJ/mol
# Density = 1.718088 g / cm^3
# Si number density = 17.220076 Si / 1000 Ang^3
#
#
#
# Elastic Constant Matrix: (Units=GPa)
#
#
# Indices 1 2 3 4 5 6 
#
# 1 85.0413 10.8269 24.3916 0.0000 0.0000 0.0000
# 2 10.8269 21.1805 13.0745 0.0000 0.0000 0.0000
# 3 24.3916 13.0745 118.1239 0.0000 0.0000 0.0000
# 4 0.0000 0.0000 0.0000 33.7747 0.0000 0.0000
# 5 0.0000 0.0000 0.0000 0.0000 -11.2445 0.0000
# 6 0.0000 0.0000 0.0000 0.0000 0.0000 24.3939
#
#
#
# Elastic Compliance Matrix: (Units=1/GPa)
#
#
# Indices 1 2 3 4 5 6 
#
# 1 0.013045 -0.005373 -0.002099 0.000000 0.000000 0.000000
# 2 -0.005373 0.052888 -0.004745 0.000000 0.000000 0.000000
# 3 -0.002099 -0.004745 0.009424 0.000000 0.000000 0.000000
# 4 0.000000 0.000000 0.000000 0.029608 0.000000 0.000000
# 5 0.000000 0.000000 0.000000 0.000000 -0.088932 0.000000
# 6 0.000000 0.000000 0.000000 0.000000 0.000000 0.040994
#
#
# Mechanical properties :
#
#
# Convention : Reuss Voigt Hill
#
# Bulk Modulus (GPa) = 19.63660 35.65906 27.64783
# Shear Modulus (GPa) = 50.79530 21.12167 35.95849
#
# Velocity S-wave (km/s) = 5.43707 3.50605 4.57461
# Velocity P-wave (km/s) = 7.13048 6.09447 6.63273
#
# Compressibility (1/GPa) = 0.05092533
#
# Stress axis : x y z
#
# Youngs Moduli (GPa) = 76.65750 18.90780 106.10904
#
# Poissons Ratio (x) = 0.10158 0.22273
# Poissons Ratio (y) = 0.41185 0.50344
# Poissons Ratio (z) = 0.16091 0.08971
#
# Static dielectric constant tensor:
#      x y z
#    x 3.397270 0.000000 0.000000 
#    y 0.000000 3.123430 0.000000 
#    z 0.000000 0.000000 3.368490 
# 
# 
# High freq. dielectric constant tensor:
#      x y z
#    x 1.651060 0.000000 0.000000 
#    y 0.000000 1.618140 0.000000 
#    z 0.000000 0.000000 1.685100 
# 
# From -- ./inp_files/28878.got.cif
#   From: 2010.06.25/outbox.cif.g09.slc.cpg/sg71_15_cif.got.tgz:28878.got - 2010.06.28 04:59:45.
