data_PCOD8290969
_publ_section_title
;
Structure prediction by ZEFSAII (Michael W. Deem and Ramdas Pophale) SiO2 
 PCOD8290969
Probable space group: I M M M
;
_chemical_formula_sum "Si O2"
_cell_formula_units_Z 68
_cell_length_a 26.621252
_cell_length_b 11.317400
_cell_length_c 12.552443
_cell_angle_alpha 90.000000
_cell_angle_beta 90.000000
_cell_angle_gamma 90.000000
_cell_volume 3781.842170
_symmetry_space_group_name_H-M "I M M M"
_symmetry_group_IT_number 71
_symmetry_cell_setting 'orthorhombic'
loop_
_space_group_symop_operation_xyz
x,y,z
-x,-y,z
x,-y,-z
-x,y,-z
-x,-y,-z
x,y,-z
-x,y,z
x,-y,z
1/2+x,1/2+y,1/2+z
1/2-x,1/2-y,1/2+z
1/2+x,1/2-y,1/2-z
1/2-x,1/2+y,1/2-z
1/2-x,1/2-y,1/2-z
1/2+x,1/2+y,1/2-z
1/2-x,1/2+y,1/2+z
1/2+x,1/2-y,1/2+z
loop_
_atom_site_type_symbol
_atom_site_label
_atom_site_fract_x
_atom_site_fract_y
_atom_site_fract_z
Si Si1 0.000000 0.726054 0.377668
Si Si2 0.830068 0.705534 0.767349
Si Si3 0.256637 0.630684 0.618554
Si Si4 0.000000 0.500000 0.227901
Si Si5 0.392813 0.000000 0.373674
Si Si6 0.101054 0.863322 0.376778
O O1 0.000000 0.613092 0.303136
O O2 0.047528 0.806565 0.352054
O O3 0.000000 0.682621 0.500000
O O4 0.790605 0.634149 0.696802
O O5 0.800029 0.775486 0.857775
O O6 0.868535 0.616669 0.822896
O O7 0.857424 0.799741 0.693232
O O8 0.236560 0.656200 0.500000
O O9 0.280316 0.500000 0.627503
O O10 0.048253 0.500000 0.151812
O O11 0.384324 0.000000 0.500000
O O12 0.115870 0.848006 0.500000
O O13 0.098825 0.000000 0.344273
#
# Coordination Sequence:
#
# PCOD8290969 Si02
#       6
#     8  16  16   4   8  16
#     4  10  20  35  58  88 119 150 190 235 294 358
#     4  11  21  38  58  84 116 155 192 243 287 351
#     4  10  21  37  58  84 114 151 192 238 292 348
#     4  12  22  42  60  88 118 158 194 252 298 354
#     4  12  25  41  61  86 115 159 204 248 300 354
#     4  10  20  35  57  86 118 153 191 235 291 352
#
# _framework density 17.980654000000001
#
# number of rings (size 3 to 8) (size 9 to 14) (size 15 to 20)
#    0.000    1.412    3.529    2.824    0.000    1.412 
#    0.000    0.000    0.000    0.000    0.000    1.647 
#    0.000    0.000    0.000    0.000    0.000    0.000 
#
# Total GULP energy -421669.074745 kJ/mol
# GULP energy per Si atom -12402.031610 kJ/mol
# Density = 1.793973 g / cm^3
# Si number density = 17.980654 Si / 1000 Ang^3
#
#
#
# Elastic Constant Matrix: (Units=GPa)
#
#
# Indices 1 2 3 4 5 6 
#
# 1 97.2276 45.9052 37.2279 0.0000 0.0000 0.0000
# 2 45.9052 130.0577 60.8734 0.0000 0.0000 0.0000
# 3 37.2279 60.8734 91.2755 0.0000 0.0000 0.0000
# 4 0.0000 0.0000 0.0000 32.1005 0.0000 0.0000
# 5 0.0000 0.0000 0.0000 0.0000 18.1768 0.0000
# 6 0.0000 0.0000 0.0000 0.0000 0.0000 24.0565
#
#
#
# Elastic Compliance Matrix: (Units=1/GPa)
#
#
# Indices 1 2 3 4 5 6 
#
# 1 0.012974 -0.003057 -0.003253 0.000000 0.000000 0.000000
# 2 -0.003057 0.011898 -0.006689 0.000000 0.000000 0.000000
# 3 -0.003253 -0.006689 0.016743 0.000000 0.000000 0.000000
# 4 0.000000 0.000000 0.000000 0.031152 0.000000 0.000000
# 5 0.000000 0.000000 0.000000 0.000000 0.055015 0.000000
# 6 0.000000 0.000000 0.000000 0.000000 0.000000 0.041569
#
#
# Mechanical properties :
#
#
# Convention : Reuss Voigt Hill
#
# Bulk Modulus (GPa) = 64.02408 67.39709 65.71059
# Shear Modulus (GPa) = 24.93090 26.50374 25.71732
#
# Velocity S-wave (km/s) = 3.72767 3.84345 3.78600
# Velocity P-wave (km/s) = 7.36287 7.56708 7.46567
#
# Compressibility (1/GPa) = 0.01561912
#
# Stress axis : x y z
#
# Youngs Moduli (GPa) = 77.07790 84.04530 59.72532
#
# Poissons Ratio (x) = 0.25690 0.19429
# Poissons Ratio (y) = 0.23560 0.39947
# Poissons Ratio (z) = 0.25073 0.56214
#
# Static dielectric constant tensor:
#      x y z
#    x 3.344470 0.000000 0.000000 
#    y 0.000000 3.467950 0.000000 
#    z 0.000000 0.000000 3.304030 
# 
# 
# High freq. dielectric constant tensor:
#      x y z
#    x 1.700200 0.000000 0.000000 
#    y 0.000000 1.712220 0.000000 
#    z 0.000000 0.000000 1.696160 
# 
# From -- ./inp_files/19918.got.cif
#   From: 2010.06.25/outbox.cif.g09.slc.cpg/sg71_10_cif.got.tgz:19918.got - 2010.06.28 04:59:45.
