data_PCOD8290534
_publ_section_title
;
Structure prediction by ZEFSAII (Michael W. Deem and Ramdas Pophale) SiO2 
 PCOD8290534
Probable space group: I M M M
;
_chemical_formula_sum "Si O2"
_cell_formula_units_Z 72
_cell_length_a 20.472019
_cell_length_b 11.542207
_cell_length_c 17.405248
_cell_angle_alpha 90.000000
_cell_angle_beta 90.000000
_cell_angle_gamma 90.000000
_cell_volume 4112.725751
_symmetry_space_group_name_H-M "I M M M"
_symmetry_group_IT_number 71
_symmetry_cell_setting 'orthorhombic'
loop_
_space_group_symop_operation_xyz
x,y,z
-x,-y,z
x,-y,-z
-x,y,-z
-x,-y,-z
x,y,-z
-x,y,z
x,-y,z
1/2+x,1/2+y,1/2+z
1/2-x,1/2-y,1/2+z
1/2+x,1/2-y,1/2-z
1/2-x,1/2+y,1/2-z
1/2-x,1/2-y,1/2-z
1/2+x,1/2+y,1/2-z
1/2-x,1/2+y,1/2+z
1/2+x,1/2-y,1/2+z
loop_
_atom_site_type_symbol
_atom_site_label
_atom_site_fract_x
_atom_site_fract_y
_atom_site_fract_z
Si Si1 0.243414 0.132847 0.911102
Si Si2 0.000000 0.362943 0.414768
Si Si3 0.875372 0.365018 0.319472
Si Si4 0.500000 0.362906 0.411727
Si Si5 0.927076 0.500000 0.910130
Si Si6 0.877826 0.266353 0.845464
O O1 0.311127 0.156185 0.868916
O O2 0.189685 0.213970 0.873725
O O3 0.221210 0.000000 0.901524
O O4 0.252546 0.164859 0.000000
O O5 0.064004 0.321433 0.369923
O O6 0.000000 0.500000 0.422146
O O7 0.000000 0.307508 0.500000
O O8 0.882849 0.500000 0.295339
O O9 0.874042 0.283008 0.245592
O O10 0.500000 0.500000 0.409987
O O11 0.500000 0.317399 0.500000
O O12 0.563491 0.318365 0.367794
O O13 0.886561 0.389144 0.885416
O O14 0.000000 0.500000 0.872171
O O15 0.935290 0.500000 0.000000
#
# Coordination Sequence:
#
# PCOD8290534 Si02
#       6
#    16   8  16   8   8  16
#     4  10  21  37  56  77 108 146 183 225 272 320
#     4   9  17  30  52  78 106 137 173 217 268 325
#     4  10  20  34  53  81 111 140 176 222 276 324
#     4  11  23  37  55  79 107 143 184 222 265 321
#     4  11  22  34  52  78 110 147 179 215 266 324
#     4  12  21  35  54  80 111 141 182 223 268 324
#
# _framework density 17.506636
#
# number of rings (size 3 to 8) (size 9 to 14) (size 15 to 20)
#    0.000    1.444    2.222    4.667    0.000    4.444 
#    0.000    0.000    0.000    0.000    0.000    0.000 
#    0.000    6.222    0.000    0.000    0.000    0.000 
#
# Total GULP energy -446524.081676 kJ/mol
# GULP energy per Si atom -12403.446713 kJ/mol
# Density = 1.746679 g / cm^3
# Si number density = 17.506636 Si / 1000 Ang^3
#
#
#
# Elastic Constant Matrix: (Units=GPa)
#
#
# Indices 1 2 3 4 5 6 
#
# 1 154.3065 59.0817 76.6832 0.0000 0.0000 0.0000
# 2 59.0817 76.1947 55.1517 0.0000 0.0000 0.0000
# 3 76.6832 55.1517 161.6196 0.0000 0.0000 0.0000
# 4 0.0000 0.0000 0.0000 28.1897 0.0000 0.0000
# 5 0.0000 0.0000 0.0000 0.0000 44.3673 0.0000
# 6 0.0000 0.0000 0.0000 0.0000 0.0000 117.2729
#
#
#
# Elastic Compliance Matrix: (Units=1/GPa)
#
#
# Indices 1 2 3 4 5 6 
#
# 1 0.010097 -0.005792 -0.002814 0.000000 0.000000 0.000000
# 2 -0.005792 0.020752 -0.004333 0.000000 0.000000 0.000000
# 3 -0.002814 -0.004333 0.009001 0.000000 0.000000 0.000000
# 4 0.000000 0.000000 0.000000 0.035474 0.000000 0.000000
# 5 0.000000 0.000000 0.000000 0.000000 0.022539 0.000000
# 6 0.000000 0.000000 0.000000 0.000000 0.000000 0.008527
#
#
# Mechanical properties :
#
#
# Convention : Reuss Voigt Hill
#
# Bulk Modulus (GPa) = 71.57666 85.99488 78.78577
# Shear Modulus (GPa) = 36.51591 51.37961 43.94776
#
# Velocity S-wave (km/s) = 4.57205 5.42332 5.01577
# Velocity P-wave (km/s) = 8.29733 9.40449 8.86820
#
# Compressibility (1/GPa) = 0.01397104
#
# Stress axis : x y z
#
# Youngs Moduli (GPa) = 99.04107 48.18774 111.09564
#
# Poissons Ratio (x) = 0.27912 0.31263
# Poissons Ratio (y) = 0.57367 0.48141
# Poissons Ratio (z) = 0.27871 0.20881
#
# Static dielectric constant tensor:
#      x y z
#    x 3.375590 0.000000 0.000000 
#    y 0.000000 3.089490 0.000000 
#    z 0.000000 0.000000 3.449720 
# 
# 
# High freq. dielectric constant tensor:
#      x y z
#    x 1.690930 0.000000 0.000000 
#    y 0.000000 1.653740 0.000000 
#    z 0.000000 0.000000 1.692110 
# 
# From -- ./inp_files/23752.got.cif
#   From: 2010.06.25/outbox.cif.g09.slc.cpg/sg71_12_cif.got.tgz:23752.got - 2010.06.28 04:59:45.
