data_PCOD8290657
_publ_section_title
;
Structure prediction by ZEFSAII (Michael W. Deem and Ramdas Pophale) SiO2 
 PCOD8290657
Probable space group: I M M M
;
_chemical_formula_sum "Si O2"
_cell_formula_units_Z 96
_cell_length_a 8.888713
_cell_length_b 30.026836
_cell_length_c 19.453166
_cell_angle_alpha 90.000000
_cell_angle_beta 90.000000
_cell_angle_gamma 90.000000
_cell_volume 5192.048595
_symmetry_space_group_name_H-M "I M M M"
_symmetry_group_IT_number 71
_symmetry_cell_setting 'orthorhombic'
loop_
_space_group_symop_operation_xyz
x,y,z
-x,-y,z
x,-y,-z
-x,y,-z
-x,-y,-z
x,y,-z
-x,y,z
x,-y,z
1/2+x,1/2+y,1/2+z
1/2-x,1/2-y,1/2+z
1/2+x,1/2-y,1/2-z
1/2-x,1/2+y,1/2-z
1/2-x,1/2-y,1/2-z
1/2+x,1/2+y,1/2-z
1/2-x,1/2+y,1/2+z
1/2+x,1/2-y,1/2+z
loop_
_atom_site_type_symbol
_atom_site_label
_atom_site_fract_x
_atom_site_fract_y
_atom_site_fract_z
Si Si1 0.828514 0.753987 0.423640
Si Si2 0.831364 0.552855 0.075233
Si Si3 0.675289 0.661842 0.578000
Si Si4 0.826775 0.052231 0.289438
Si Si5 0.822766 0.374616 0.293299
Si Si6 0.324928 0.293064 0.783015
O O1 0.795779 0.773760 0.500000
O O2 0.719653 0.712804 0.407892
O O3 0.801042 0.791556 0.365857
O O4 0.000000 0.736287 0.418914
O O5 0.831561 0.500000 0.073799
O O6 0.719566 0.569672 0.134606
O O7 0.000000 0.570207 0.091124
O O8 0.778171 0.570562 0.000000
O O9 0.714860 0.648092 0.500000
O O10 0.500000 0.656560 0.593615
O O11 0.767386 0.629830 0.628396
O O12 0.727436 0.076908 0.232520
O O13 0.000000 0.064261 0.278153
O O14 0.795091 0.000000 0.281066
O O15 0.750923 0.337495 0.244369
O O16 0.000000 0.369816 0.290462
O O17 0.500000 0.293702 0.763240
O O18 0.250000 0.250000 0.750000
#
# Coordination Sequence:
#
# PCOD8290657 Si02
#       6
#    16  16  16  16  16  16
#     4   9  18  33  53  77 107 145 185 224 271 325
#     4   8  14  27  49  76 105 137 174 217 266 322
#     4  10  20  34  55  82 110 140 178 226 274 325
#     4  10  21  37  57  81 109 142 184 236 287 333
#     4  12  24  37  56  81 111 149 187 227 274 329
#     4  11  21  34  54  80 112 146 182 227 273 323
#
# _framework density 18.489811
#
# number of rings (size 3 to 8) (size 9 to 14) (size 15 to 20)
#    0.000    2.000    1.667    3.500    0.000    3.000 
#    0.000    2.500    0.000    3.500    0.000    3.500 
#    0.000    0.000    0.000    0.000    0.000    0.000 
#
# Total GULP energy -595144.299980 kJ/mol
# GULP energy per Si atom -12398.839583 kJ/mol
# Density = 1.844773 g / cm^3
# Si number density = 18.489811 Si / 1000 Ang^3
#
#
#
# Elastic Constant Matrix: (Units=GPa)
#
#
# Indices 1 2 3 4 5 6 
#
# 1 124.9871 41.9325 63.5921 0.0000 0.0000 0.0000
# 2 41.9325 54.8284 45.6481 -0.0001 0.0000 0.0000
# 3 63.5921 45.6481 139.1695 -0.0004 0.0000 0.0000
# 4 0.0000 -0.0001 -0.0004 25.9158 0.0000 0.0000
# 5 0.0000 0.0000 0.0000 0.0000 32.4176 0.0000
# 6 0.0000 0.0000 0.0000 0.0000 0.0000 26.8750
#
#
#
# Elastic Compliance Matrix: (Units=1/GPa)
#
#
# Indices 1 2 3 4 5 6 
#
# 1 0.011794 -0.006236 -0.003344 0.000000 0.000000 0.000000
# 2 -0.006236 0.028388 -0.006462 0.000000 0.000000 0.000000
# 3 -0.003344 -0.006462 0.010833 0.000000 0.000000 0.000000
# 4 0.000000 0.000000 0.000000 0.038586 0.000000 0.000000
# 5 0.000000 0.000000 0.000000 0.000000 0.030847 0.000000
# 6 0.000000 0.000000 0.000000 0.000000 0.000000 0.037209
#
#
# Mechanical properties :
#
#
# Convention : Reuss Voigt Hill
#
# Bulk Modulus (GPa) = 52.82192 69.03671 60.92932
# Shear Modulus (GPa) = 25.50333 28.22917 26.86625
#
# Velocity S-wave (km/s) = 3.71795 3.91159 3.81600
# Velocity P-wave (km/s) = 6.86010 7.60391 7.24156
#
# Compressibility (1/GPa) = 0.01893153
#
# Stress axis : x y z
#
# Youngs Moduli (GPa) = 84.78622 35.22602 92.31171
#
# Poissons Ratio (x) = 0.21968 0.30867
# Poissons Ratio (y) = 0.52876 0.59650
# Poissons Ratio (z) = 0.28350 0.22762
#
# Static dielectric constant tensor:
#      x y z
#    x 3.516010 0.000000 0.000000 
#    y 0.000000 3.062170 0.000000 
#    z 0.000000 0.000000 3.858470 
# 
# 
# High freq. dielectric constant tensor:
#      x y z
#    x 1.727780 0.000000 0.000000 
#    y 0.000000 1.672660 0.000000 
#    z 0.000000 0.000000 1.732240 
# 
# From -- ./inp_files/50801.got.cif
#   From: 2010.06.25/outbox.cif.g09.slc.cpg/sg71_26_cif.got.tgz:50801.got - 2010.06.28 04:59:45.
