data_PCOD8290641
_publ_section_title
;
Structure prediction by ZEFSAII (Michael W. Deem and Ramdas Pophale) SiO2 
 PCOD8290641
Probable space group: I M M M
;
_chemical_formula_sum "Si O2"
_cell_formula_units_Z 104
_cell_length_a 21.707691
_cell_length_b 17.659082
_cell_length_c 14.746314
_cell_angle_alpha 90.000000
_cell_angle_beta 90.000000
_cell_angle_gamma 90.000000
_cell_volume 5652.820974
_symmetry_space_group_name_H-M "I M M M"
_symmetry_group_IT_number 71
_symmetry_cell_setting 'orthorhombic'
loop_
_space_group_symop_operation_xyz
x,y,z
-x,-y,z
x,-y,-z
-x,y,-z
-x,-y,-z
x,y,-z
-x,y,z
x,-y,z
1/2+x,1/2+y,1/2+z
1/2-x,1/2-y,1/2+z
1/2+x,1/2-y,1/2-z
1/2-x,1/2+y,1/2-z
1/2-x,1/2-y,1/2-z
1/2+x,1/2+y,1/2-z
1/2-x,1/2+y,1/2+z
1/2+x,1/2-y,1/2+z
loop_
_atom_site_type_symbol
_atom_site_label
_atom_site_fract_x
_atom_site_fract_y
_atom_site_fract_z
Si Si1 0.069083 0.500000 0.607740
Si Si2 0.226941 0.144719 0.102128
Si Si3 0.858634 0.714561 0.898201
Si Si4 0.427644 0.724978 0.232862
Si Si5 0.132301 0.346731 0.392841
Si Si6 0.731366 0.913427 0.395359
Si Si7 0.158958 0.085750 0.734129
O O1 0.068842 0.500000 0.500000
O O2 0.103199 0.574966 0.643213
O O3 0.000000 0.500000 0.646849
O O4 0.198003 0.227614 0.107699
O O5 0.296675 0.152237 0.136641
O O6 0.189240 0.087889 0.165990
O O7 0.224611 0.111692 0.000000
O O8 0.912834 0.736666 0.829741
O O9 0.829643 0.633946 0.869901
O O10 0.886478 0.712760 0.000000
O O11 0.500000 0.716416 0.222011
O O12 0.401592 0.776176 0.152435
O O13 0.399209 0.641042 0.226791
O O14 0.124241 0.337105 0.500000
O O15 0.748902 0.900256 0.500000
O O16 0.790313 0.886773 0.338198
O O17 0.714957 0.000000 0.373636
O O18 0.136719 0.000000 0.714794
#
# Coordination Sequence:
#
# PCOD8290641 Si02
#       7
#     8  16  16  16  16  16  16
#     4   9  18  32  48  70 105 143 172 200 241 298
#     4   9  18  32  54  81 105 131 165 213 274 326
#     4   9  18  35  55  75 102 133 171 222 270 312
#     4  11  23  37  53  74 102 143 188 219 254 305
#     4  10  20  34  55  81 108 139 173 212 257 313
#     4   9  17  31  54  81 107 134 164 205 264 323
#     4  10  21  35  53  78 108 137 171 220 267 314
#
# _framework density 18.397894000000001
#
# number of rings (size 3 to 8) (size 9 to 14) (size 15 to 20)
#    0.000    2.385    0.000    2.308    1.077    6.154 
#    1.385    0.000    0.000    0.000    0.000    9.692 
#    0.000    0.000    0.000    0.000    0.000    0.000 
#
# Total GULP energy -644901.428368 kJ/mol
# GULP energy per Si atom -12401.950546 kJ/mol
# Density = 1.835602 g / cm^3
# Si number density = 18.397894 Si / 1000 Ang^3
#
#
#
# Elastic Constant Matrix: (Units=GPa)
#
#
# Indices 1 2 3 4 5 6 
#
# 1 94.9526 41.7566 20.6757 0.0000 0.0000 0.0000
# 2 41.7566 87.7758 30.9276 0.0000 0.0000 0.0000
# 3 20.6757 30.9276 51.7197 0.0000 0.0000 0.0000
# 4 0.0000 0.0000 0.0000 24.1611 0.0000 0.0000
# 5 0.0000 0.0000 0.0000 0.0000 19.5895 0.0000
# 6 0.0000 0.0000 0.0000 0.0000 0.0000 15.2897
#
#
#
# Elastic Compliance Matrix: (Units=1/GPa)
#
#
# Indices 1 2 3 4 5 6 
#
# 1 0.013474 -0.005716 -0.001968 0.000000 0.000000 0.000000
# 2 -0.005716 0.016859 -0.007796 0.000000 0.000000 0.000000
# 3 -0.001968 -0.007796 0.024784 0.000000 0.000000 0.000000
# 4 0.000000 0.000000 0.000000 0.041389 0.000000 0.000000
# 5 0.000000 0.000000 0.000000 0.000000 0.051048 0.000000
# 6 0.000000 0.000000 0.000000 0.000000 0.000000 0.065404
#
#
# Mechanical properties :
#
#
# Convention : Reuss Voigt Hill
#
# Bulk Modulus (GPa) = 41.39866 46.79642 44.09754
# Shear Modulus (GPa) = 19.84361 21.21394 20.52877
#
# Velocity S-wave (km/s) = 3.28774 3.39936 3.34402
# Velocity P-wave (km/s) = 6.07972 6.39520 6.23945
#
# Compressibility (1/GPa) = 0.02415537
#
# Stress axis : x y z
#
# Youngs Moduli (GPa) = 74.21721 59.31543 40.34885
#
# Poissons Ratio (x) = 0.33907 0.07941
# Poissons Ratio (y) = 0.42425 0.31457
# Poissons Ratio (z) = 0.14607 0.46244
#
# Static dielectric constant tensor:
#      x y z
#    x 3.174020 0.000000 0.000000 
#    y 0.000000 3.431800 0.000000 
#    z 0.000000 0.000000 3.505980 
# 
# 
# High freq. dielectric constant tensor:
#      x y z
#    x 1.690640 0.000000 0.000000 
#    y 0.000000 1.719000 0.000000 
#    z 0.000000 0.000000 1.717290 
# 
# From -- ./inp_files/38070.got.cif
#   From: 2010.06.25/outbox.cif.g09.slc.cpg/sg71_20_cif.got.tgz:38070.got - 2010.06.28 04:59:45.
