data_PCOD8290966
_publ_section_title
;
Structure prediction by ZEFSAII (Michael W. Deem and Ramdas Pophale) SiO2 
 PCOD8290966
Probable space group: I M M M
;
_chemical_formula_sum "Si O2"
_cell_formula_units_Z 80
_cell_length_a 14.959398
_cell_length_b 30.952822
_cell_length_c 8.787072
_cell_angle_alpha 90.000000
_cell_angle_beta 90.000000
_cell_angle_gamma 90.000000
_cell_volume 4068.727011
_symmetry_space_group_name_H-M "I M M M"
_symmetry_group_IT_number 71
_symmetry_cell_setting 'orthorhombic'
loop_
_space_group_symop_operation_xyz
x,y,z
-x,-y,z
x,-y,-z
-x,y,-z
-x,-y,-z
x,y,-z
-x,y,z
x,-y,z
1/2+x,1/2+y,1/2+z
1/2-x,1/2-y,1/2+z
1/2+x,1/2-y,1/2-z
1/2-x,1/2+y,1/2-z
1/2-x,1/2-y,1/2-z
1/2+x,1/2+y,1/2-z
1/2-x,1/2+y,1/2+z
1/2+x,1/2-y,1/2+z
loop_
_atom_site_type_symbol
_atom_site_label
_atom_site_fract_x
_atom_site_fract_y
_atom_site_fract_z
Si Si1 0.214679 0.547710 0.176243
Si Si2 0.596102 0.577974 0.171884
Si Si3 0.000000 0.682786 0.178205
Si Si4 0.336783 0.134843 0.177886
Si Si5 0.640800 0.336405 0.323956
Si Si6 0.500000 0.723992 0.178903
O O1 0.177982 0.500000 0.220236
O O2 0.321722 0.546212 0.206395
O O3 0.169519 0.584101 0.280010
O O4 0.193828 0.557914 0.000000
O O5 0.500000 0.553862 0.192075
O O6 0.595437 0.618281 0.285243
O O7 0.605350 0.596158 0.000000
O O8 0.913270 0.655535 0.221374
O O9 0.000000 0.727065 0.268375
O O10 0.000000 0.692266 0.000000
O O11 0.245748 0.160490 0.218523
O O12 0.359696 0.138379 0.000000
O O13 0.627248 0.326552 0.500000
O O14 0.591490 0.298225 0.234839
O O15 0.500000 0.722681 0.000000
#
# Coordination Sequence:
#
# PCOD8290966 Si02
#       6
#    16  16   8  16  16   8
#     4   9  18  33  54  82 116 153 195 240 285 340
#     4   9  16  27  47  77 114 157 197 234 280 331
#     4  12  26  44  65  87 112 145 189 243 296 348
#     4  10  22  41  63  86 117 154 191 238 294 347
#     4  10  20  35  57  85 118 157 196 233 280 337
#     4  12  24  38  60  89 122 155 192 236 278 336
#
# _framework density 19.662168999999999
#
# number of rings (size 3 to 8) (size 9 to 14) (size 15 to 20)
#    0.000    2.000    1.000    3.000    0.000    4.000 
#    0.000    2.500    0.000    3.000    0.000    5.600 
#    0.000    0.000    0.000    0.000    0.000    0.000 
#
# Total GULP energy -495879.666872 kJ/mol
# GULP energy per Si atom -12396.991672 kJ/mol
# Density = 1.961742 g / cm^3
# Si number density = 19.662169 Si / 1000 Ang^3
#
#
#
# Elastic Constant Matrix: (Units=GPa)
#
#
# Indices 1 2 3 4 5 6 
#
# 1 91.1899 36.7811 39.2414 -0.0023 -0.0018 0.0011
# 2 36.7811 96.7892 31.0883 -0.0028 -0.0018 -0.0003
# 3 39.2414 31.0883 90.6626 -0.0105 0.0115 -0.0017
# 4 -0.0023 -0.0028 -0.0105 31.1490 -0.0012 -0.0001
# 5 -0.0018 -0.0018 0.0115 -0.0012 23.6498 0.0019
# 6 0.0011 -0.0003 -0.0017 -0.0001 0.0019 20.6096
#
#
#
# Elastic Compliance Matrix: (Units=1/GPa)
#
#
# Indices 1 2 3 4 5 6 
#
# 1 0.014730 -0.003989 -0.005008 -0.000001 0.000003 -0.000001
# 2 -0.003989 0.012691 -0.002625 0.000000 0.000002 0.000000
# 3 -0.005008 -0.002625 0.014098 0.000004 -0.000007 0.000001
# 4 -0.000001 0.000000 0.000004 0.032104 0.000002 0.000000
# 5 0.000003 0.000002 -0.000007 0.000002 0.042284 -0.000004
# 6 -0.000001 0.000000 0.000001 0.000000 -0.000004 0.048521
#
#
# Mechanical properties :
#
#
# Convention : Reuss Voigt Hill
#
# Bulk Modulus (GPa) = 54.72094 54.76259 54.74176
# Shear Modulus (GPa) = 25.80478 26.51706 26.16092
#
# Velocity S-wave (km/s) = 3.62665 3.67636 3.65159
# Velocity P-wave (km/s) = 6.74001 6.77739 6.75873
#
# Compressibility (1/GPa) = 0.01827454
#
# Stress axis : x y z
#
# Youngs Moduli (GPa) = 67.88825 78.79709 70.93438
#
# Poissons Ratio (x) = 0.31433 0.35522
# Poissons Ratio (y) = 0.27082 0.18621
# Poissons Ratio (z) = 0.33997 0.20685
#
# Static dielectric constant tensor:
#      x y z
#    x 3.681470 -0.000010 0.000010 
#    y -0.000010 3.447040 -0.000020 
#    z 0.000010 -0.000020 3.587130 
# 
# 
# High freq. dielectric constant tensor:
#      x y z
#    x 1.765000 0.000000 0.000000 
#    y 0.000000 1.752940 0.000000 
#    z 0.000000 0.000000 1.768190 
# 
# From -- ./inp_files/8403.got.cif
#   From: 2010.06.25/outbox.cif.g09.slc.cpg/sg71_5_cif.got.tgz:8403.got - 2010.06.28 04:59:45.
