data_PCOD8290095
_publ_section_title
;
Structure prediction by ZEFSAII (Michael W. Deem and Ramdas Pophale) SiO2 
 PCOD8290095
Probable space group: I M M M
;
_chemical_formula_sum "Si O2"
_cell_formula_units_Z 104
_cell_length_a 18.624732
_cell_length_b 33.258755
_cell_length_c 9.084456
_cell_angle_alpha 90.000000
_cell_angle_beta 90.000000
_cell_angle_gamma 90.000000
_cell_volume 5627.233623
_symmetry_space_group_name_H-M "I M M M"
_symmetry_group_IT_number 71
_symmetry_cell_setting 'orthorhombic'
loop_
_space_group_symop_operation_xyz
x,y,z
-x,-y,z
x,-y,-z
-x,y,-z
-x,-y,-z
x,y,-z
-x,y,z
x,-y,z
1/2+x,1/2+y,1/2+z
1/2-x,1/2-y,1/2+z
1/2+x,1/2-y,1/2-z
1/2-x,1/2+y,1/2-z
1/2-x,1/2-y,1/2-z
1/2+x,1/2+y,1/2-z
1/2-x,1/2+y,1/2+z
1/2+x,1/2-y,1/2+z
loop_
_atom_site_type_symbol
_atom_site_label
_atom_site_fract_x
_atom_site_fract_y
_atom_site_fract_z
Si Si1 0.914385 0.000000 0.165423
Si Si2 0.330193 0.713025 0.828760
Si Si3 0.914248 0.922444 0.334595
Si Si4 0.416579 0.869258 0.324669
Si Si5 0.585172 0.042911 0.334787
Si Si6 0.916015 0.153950 0.836718
Si Si7 0.812954 0.694430 0.672399
O O1 0.884611 0.038577 0.250995
O O2 0.000000 0.000000 0.162594
O O3 0.883789 0.000000 0.000000
O O4 0.401210 0.693626 0.759111
O O5 0.264456 0.690709 0.747654
O O6 0.338289 0.760106 0.797734
O O7 0.323504 0.703568 0.000000
O O8 0.883572 0.922105 0.500000
O O9 0.882843 0.884295 0.247740
O O10 0.000000 0.922244 0.337582
O O11 0.405729 0.866343 0.500000
O O12 0.500000 0.861633 0.284262
O O13 0.390839 0.913924 0.265596
O O14 0.369417 0.835739 0.244693
O O15 0.615379 0.041503 0.500000
O O16 0.500000 0.044223 0.339126
O O17 0.609506 0.000000 0.256479
O O18 0.000000 0.148243 0.850774
O O19 0.881946 0.157155 0.000000
O O20 0.806628 0.685017 0.500000
#
# Coordination Sequence:
#
# PCOD8290095 Si02
#       7
#     8  16  16  16  16  16  16
#     4   9  15  23  37  59  89 123 157 195 240 285
#     4  10  21  37  55  72  93 126 168 210 251 301
#     4   9  16  26  41  63  92 124 158 195 235 284
#     4   9  17  29  48  76 107 137 170 208 249 294
#     4   7  10  19  38  66  99 132 166 203 239 277
#     4  10  20  33  50  74 102 129 159 199 249 302
#     4  10  21  36  53  73  98 129 166 207 252 303
#
# _framework density 18.481549999999999
#
# number of rings (size 3 to 8) (size 9 to 14) (size 15 to 20)
#    0.000    2.846    0.000    3.462    0.000    6.462 
#    0.000    3.077    0.000    0.462    2.000    2.154 
#    0.000    0.000    0.000    0.000    0.000    0.000 
#
# Total GULP energy -644252.574274 kJ/mol
# GULP energy per Si atom -12389.472582 kJ/mol
# Density = 1.843949 g / cm^3
# Si number density = 18.481550 Si / 1000 Ang^3
#
#
#
# Elastic Constant Matrix: (Units=GPa)
#
#
# Indices 1 2 3 4 5 6 
#
# 1 29.0241 41.6240 28.1921 0.0060 -0.0006 0.0005
# 2 41.6240 143.5154 74.0096 0.0128 0.0006 -0.0014
# 3 28.1921 74.0096 109.9187 0.0531 0.0027 -0.0023
# 4 0.0060 0.0128 0.0531 32.8142 0.0010 -0.0013
# 5 -0.0006 0.0006 0.0027 0.0010 23.0829 -0.0019
# 6 0.0005 -0.0014 -0.0023 -0.0013 -0.0019 8.5248
#
#
#
# Elastic Compliance Matrix: (Units=1/GPa)
#
#
# Indices 1 2 3 4 5 6 
#
# 1 0.061270 -0.014808 -0.005744 0.000004 0.000003 -0.000008
# 2 -0.014808 0.014253 -0.005799 0.000006 0.000000 0.000002
# 3 -0.005744 -0.005799 0.014475 -0.000020 -0.000002 0.000003
# 4 0.000004 0.000006 -0.000020 0.030475 -0.000001 0.000005
# 5 0.000003 0.000000 -0.000002 -0.000001 0.043322 0.000010
# 6 -0.000008 0.000002 0.000003 0.000005 0.000010 0.117304
#
#
# Mechanical properties :
#
#
# Convention : Reuss Voigt Hill
#
# Bulk Modulus (GPa) = 26.81220 63.34550 45.07885
# Shear Modulus (GPa) = 14.44110 22.12655 18.28383
#
# Velocity S-wave (km/s) = 2.79835 3.46385 3.14873
# Velocity P-wave (km/s) = 4.99801 7.09556 6.13706
#
# Compressibility (1/GPa) = 0.03729645
#
# Stress axis : x y z
#
# Youngs Moduli (GPa) = 16.32115 70.16035 69.08305
#
# Poissons Ratio (x) = 1.03894 0.39683
# Poissons Ratio (y) = 0.24168 0.40060
# Poissons Ratio (z) = 0.09375 0.40684
#
# Static dielectric constant tensor:
#      x y z
#    x 2.902000 0.000000 0.000010 
#    y 0.000000 3.810750 -0.000040 
#    z 0.000010 -0.000040 3.428420 
# 
# 
# High freq. dielectric constant tensor:
#      x y z
#    x 1.661190 0.000000 0.000000 
#    y 0.000000 1.738170 0.000000 
#    z 0.000000 0.000000 1.710710 
# 
# From -- ./inp_files/11542.got.cif
#   From: 2010.06.25/outbox.cif.g09.slc.cpg/sg71_6_cif.got.tgz:11542.got - 2010.06.28 04:59:45.
