data_PCOD8290583
_publ_section_title
;
Structure prediction by ZEFSAII (Michael W. Deem and Ramdas Pophale) SiO2 
 PCOD8290583
Probable space group: I M M M
;
_chemical_formula_sum "Si O2"
_cell_formula_units_Z 96
_cell_length_a 19.453489
_cell_length_b 8.854704
_cell_length_c 30.197388
_cell_angle_alpha 90.000000
_cell_angle_beta 90.000000
_cell_angle_gamma 90.000000
_cell_volume 5201.647653
_symmetry_space_group_name_H-M "I M M M"
_symmetry_group_IT_number 71
_symmetry_cell_setting 'orthorhombic'
loop_
_space_group_symop_operation_xyz
x,y,z
-x,-y,z
x,-y,-z
-x,y,-z
-x,-y,-z
x,y,-z
-x,y,z
x,-y,z
1/2+x,1/2+y,1/2+z
1/2-x,1/2-y,1/2+z
1/2+x,1/2-y,1/2-z
1/2-x,1/2+y,1/2-z
1/2-x,1/2-y,1/2-z
1/2+x,1/2+y,1/2-z
1/2-x,1/2+y,1/2+z
1/2+x,1/2-y,1/2+z
loop_
_atom_site_type_symbol
_atom_site_label
_atom_site_fract_x
_atom_site_fract_y
_atom_site_fract_z
Si Si1 0.289253 0.678409 0.208529
Si Si2 0.424880 0.830546 0.947459
Si Si3 0.423885 0.328482 0.328874
Si Si4 0.286021 0.325278 0.627229
Si Si5 0.288800 0.675365 0.948623
Si Si6 0.922109 0.676227 0.262713
O O1 0.285181 0.500000 0.213092
O O2 0.250000 0.750000 0.250000
O O3 0.255472 0.728983 0.162907
O O4 0.368706 0.731101 0.207358
O O5 0.500000 0.776844 0.929586
O O6 0.364857 0.719831 0.930776
O O7 0.409461 0.000000 0.930224
O O8 0.426873 0.829914 0.000000
O O9 0.500000 0.300297 0.349013
O O10 0.417250 0.500000 0.310755
O O11 0.367693 0.298736 0.366820
O O12 0.409561 0.216126 0.288536
O O13 0.266174 0.500000 0.632646
O O14 0.268121 0.268306 0.578182
O O15 0.277758 0.500000 0.940097
O O16 0.280053 0.718502 0.000000
O O17 0.907933 0.500000 0.269059
O O18 0.000000 0.719051 0.276842
#
# Coordination Sequence:
#
# PCOD8290583 Si02
#       6
#    16  16  16  16  16  16
#     4  12  23  36  55  80 113 148 182 224 270 323
#     4   8  14  27  49  75 101 131 170 216 265 318
#     4   9  18  33  54  80 108 139 178 224 272 325
#     4  11  22  36  57  83 110 143 182 227 276 329
#     4  10  21  36  54  78 109 144 183 229 277 327
#     4  10  20  34  54  80 111 148 187 226 271 324
#
# _framework density 18.455691000000002
#
# number of rings (size 3 to 8) (size 9 to 14) (size 15 to 20)
#    0.000    2.000    1.667    3.500    0.000    3.000 
#    0.000    2.500    0.000    5.500    0.000    3.500 
#    0.000    0.000    0.000    0.000    0.000    0.000 
#
# Total GULP energy -595151.843726 kJ/mol
# GULP energy per Si atom -12398.996744 kJ/mol
# Density = 1.841369 g / cm^3
# Si number density = 18.455691 Si / 1000 Ang^3
#
#
#
# Elastic Constant Matrix: (Units=GPa)
#
#
# Indices 1 2 3 4 5 6 
#
# 1 138.9075 56.7867 49.3587 0.0000 0.0000 0.0000
# 2 56.7867 107.2616 35.3115 0.0000 0.0000 0.0000
# 3 49.3587 35.3115 60.7391 0.0000 0.0000 0.0000
# 4 0.0000 0.0000 0.0000 27.1941 0.0000 0.0000
# 5 0.0000 0.0000 0.0000 0.0000 26.2815 0.0000
# 6 0.0000 0.0000 0.0000 0.0000 0.0000 27.3907
#
#
#
# Elastic Compliance Matrix: (Units=1/GPa)
#
#
# Indices 1 2 3 4 5 6 
#
# 1 0.011148 -0.003611 -0.006960 0.000000 0.000000 0.000000
# 2 -0.003611 0.012699 -0.004449 0.000000 0.000000 0.000000
# 3 -0.006960 -0.004449 0.024706 0.000000 0.000000 0.000000
# 4 0.000000 0.000000 0.000000 0.036773 0.000000 0.000000
# 5 0.000000 0.000000 0.000000 0.000000 0.038050 0.000000
# 6 0.000000 0.000000 0.000000 0.000000 0.000000 0.036509
#
#
# Mechanical properties :
#
#
# Convention : Reuss Voigt Hill
#
# Bulk Modulus (GPa) = 54.01205 65.53579 59.77392
# Shear Modulus (GPa) = 25.49770 27.20333 26.35051
#
# Velocity S-wave (km/s) = 3.72097 3.84341 3.78269
# Velocity P-wave (km/s) = 6.91304 7.43523 7.17889
#
# Compressibility (1/GPa) = 0.01851439
#
# Stress axis : x y z
#
# Youngs Moduli (GPa) = 89.69857 78.74547 40.47536
#
# Poissons Ratio (x) = 0.28433 0.28173
# Poissons Ratio (y) = 0.32388 0.18006
# Poissons Ratio (z) = 0.62434 0.35030
#
# Static dielectric constant tensor:
#      x y z
#    x 3.829560 0.000000 0.000000 
#    y 0.000000 3.481340 0.000000 
#    z 0.000000 0.000000 3.072050 
# 
# 
# High freq. dielectric constant tensor:
#      x y z
#    x 1.727710 0.000000 0.000000 
#    y 0.000000 1.723530 0.000000 
#    z 0.000000 0.000000 1.673820 
# 
# From -- ./inp_files/10843.got.cif
#   From: 2010.06.25/outbox.cif.g09.slc.cpg/sg71_6_cif.got.tgz:10843.got - 2010.06.28 04:59:45.
