data_PCOD8290220
_publ_section_title
;
Structure prediction by ZEFSAII (Michael W. Deem and Ramdas Pophale) SiO2 
 PCOD8290220
Probable space group: I M M M
;
_chemical_formula_sum "Si O2"
_cell_formula_units_Z 56
_cell_length_a 9.228748
_cell_length_b 10.123336
_cell_length_c 28.026774
_cell_angle_alpha 90.000000
_cell_angle_beta 90.000000
_cell_angle_gamma 90.000000
_cell_volume 2618.421452
_symmetry_space_group_name_H-M "I M M M"
_symmetry_group_IT_number 71
_symmetry_cell_setting 'orthorhombic'
loop_
_space_group_symop_operation_xyz
x,y,z
-x,-y,z
x,-y,-z
-x,y,-z
-x,-y,-z
x,y,-z
-x,y,z
x,-y,z
1/2+x,1/2+y,1/2+z
1/2-x,1/2-y,1/2+z
1/2+x,1/2-y,1/2-z
1/2-x,1/2+y,1/2-z
1/2-x,1/2-y,1/2-z
1/2+x,1/2+y,1/2-z
1/2-x,1/2+y,1/2+z
1/2+x,1/2-y,1/2+z
loop_
_atom_site_type_symbol
_atom_site_label
_atom_site_fract_x
_atom_site_fract_y
_atom_site_fract_z
Si Si1 0.668161 0.783494 0.357468
Si Si2 0.168628 0.500000 0.782557
Si Si3 0.171387 0.763962 0.553695
Si Si4 0.834060 0.000000 0.815731
Si Si5 0.841599 0.000000 0.946139
O O1 0.500000 0.804256 0.369647
O O2 0.713618 0.868705 0.311554
O O3 0.757855 0.845791 0.402747
O O4 0.704302 0.629119 0.347239
O O5 0.245665 0.500000 0.732448
O O6 0.000000 0.500000 0.771672
O O7 0.209712 0.816585 0.500000
O O8 0.242340 0.623814 0.564523
O O9 0.000000 0.756501 0.559441
O O10 0.000000 0.000000 0.799768
O O11 0.000000 0.000000 0.917824
O O12 0.889465 0.000000 0.000000
#
# Coordination Sequence:
#
# PCOD8290220 Si02
#       5
#    16   8  16   8   8
#     4  10  21  37  57  83 113 147 188 231 279 338
#     4  10  22  39  58  82 113 146 184 233 286 339
#     4  10  20  33  51  79 113 148 189 235 279 327
#     4  10  21  37  59  85 110 140 183 231 281 341
#     4   9  16  27  46  72 104 143 182 223 274 325
#
# _framework density 21.386931000000001
#
# number of rings (size 3 to 8) (size 9 to 14) (size 15 to 20)
#    0.000    2.143    0.000    3.000    0.000    6.857 
#    0.000    0.714    0.000    4.286    0.000    0.000 
#    0.000    0.000    0.000    0.000    0.000    0.000 
#
# Total GULP energy -346890.149153 kJ/mol
# GULP energy per Si atom -12388.933898 kJ/mol
# Density = 2.133825 g / cm^3
# Si number density = 21.386931 Si / 1000 Ang^3
#
#
#
# Elastic Constant Matrix: (Units=GPa)
#
#
# Indices 1 2 3 4 5 6 
#
# 1 93.4072 18.3744 86.0215 0.0000 0.0000 0.0000
# 2 18.3744 65.9007 21.1599 0.0000 0.0000 0.0000
# 3 86.0215 21.1599 188.3679 0.0000 0.0000 0.0000
# 4 0.0000 0.0000 0.0000 -13.0949 0.0000 0.0000
# 5 0.0000 0.0000 0.0000 0.0000 45.5989 0.0000
# 6 0.0000 0.0000 0.0000 0.0000 0.0000 8.3508
#
#
#
# Elastic Compliance Matrix: (Units=1/GPa)
#
#
# Indices 1 2 3 4 5 6 
#
# 1 0.018893 -0.002591 -0.008337 0.000000 0.000000 0.000000
# 2 -0.002591 0.016097 -0.000625 0.000000 0.000000 0.000000
# 3 -0.008337 -0.000625 0.009186 0.000000 0.000000 0.000000
# 4 0.000000 0.000000 0.000000 -0.076366 0.000000 0.000000
# 5 0.000000 0.000000 0.000000 0.000000 0.021930 0.000000
# 6 0.000000 0.000000 0.000000 0.000000 0.000000 0.119749
#
#
# Mechanical properties :
#
#
# Convention : Reuss Voigt Hill
#
# Bulk Modulus (GPa) = 47.45849 66.53194 56.99521
# Shear Modulus (GPa) = 35.81163 22.97895 29.39529
#
# Velocity S-wave (km/s) = 4.09646 3.28142 3.71138
# Velocity P-wave (km/s) = 6.67931 6.74783 6.71366
#
# Compressibility (1/GPa) = 0.02107105
#
# Stress axis : x y z
#
# Youngs Moduli (GPa) = 52.92928 62.12159 108.85963
#
# Poissons Ratio (x) = 0.16095 0.90754
# Poissons Ratio (y) = 0.13714 0.06805
# Poissons Ratio (z) = 0.44126 0.03883
#
# Static dielectric constant tensor:
#      x y z
#    x 3.758790 0.000000 0.000000 
#    y 0.000000 3.758910 0.000000 
#    z 0.000000 0.000000 4.184100 
# 
# 
# High freq. dielectric constant tensor:
#      x y z
#    x 1.832780 0.000000 0.000000 
#    y 0.000000 1.817570 0.000000 
#    z 0.000000 0.000000 1.866160 
# 
# From -- ./inp_files/14019.got.cif
#   From: 2010.06.25/outbox.cif.g09.slc.cpg/sg71_8_cif.got.tgz:14019.got - 2010.06.28 04:59:45.
