data_PCOD8290781
_publ_section_title
;
Structure prediction by ZEFSAII (Michael W. Deem and Ramdas Pophale) SiO2 
 PCOD8290781
Probable space group: I M M M
;
_chemical_formula_sum "Si O2"
_cell_formula_units_Z 120
_cell_length_a 15.310390
_cell_length_b 14.704661
_cell_length_c 30.873198
_cell_angle_alpha 90.000000
_cell_angle_beta 90.000000
_cell_angle_gamma 90.000000
_cell_volume 6950.609483
_symmetry_space_group_name_H-M "I M M M"
_symmetry_group_IT_number 71
_symmetry_cell_setting 'orthorhombic'
loop_
_space_group_symop_operation_xyz
x,y,z
-x,-y,z
x,-y,-z
-x,y,-z
-x,-y,-z
x,y,-z
-x,y,z
x,-y,z
1/2+x,1/2+y,1/2+z
1/2-x,1/2-y,1/2+z
1/2+x,1/2-y,1/2-z
1/2-x,1/2+y,1/2-z
1/2-x,1/2-y,1/2-z
1/2+x,1/2+y,1/2-z
1/2-x,1/2+y,1/2+z
1/2+x,1/2-y,1/2+z
loop_
_atom_site_type_symbol
_atom_site_label
_atom_site_fract_x
_atom_site_fract_y
_atom_site_fract_z
Si Si1 0.348244 0.898672 0.205984
Si Si2 0.101178 0.392823 0.000000
Si Si3 0.727637 0.103782 0.331112
Si Si4 0.747213 0.894235 0.567907
Si Si5 0.102518 0.602516 0.612502
Si Si6 0.098612 0.239784 0.451155
Si Si7 0.663203 0.400457 0.751419
Si Si8 0.906738 0.281521 0.780052
O O1 0.347554 0.867295 0.156152
O O2 0.251982 0.894920 0.224779
O O3 0.407688 0.832850 0.234260
O O4 0.387794 0.000000 0.208795
O O5 0.158520 0.362483 0.042433
O O6 0.090446 0.500000 0.000000
O O7 0.000000 0.352302 0.000000
O O8 0.740300 0.125083 0.381212
O O9 0.816200 0.115704 0.302758
O O10 0.661165 0.178983 0.313986
O O11 0.692438 0.000000 0.324362
O O12 0.833587 0.842887 0.552055
O O13 0.763169 0.000000 0.558125
O O14 0.129429 0.500000 0.598233
O O15 0.131924 0.673906 0.576219
O O16 0.000000 0.607533 0.621468
O O17 0.096180 0.275043 0.500000
O O18 0.000000 0.208846 0.437006
O O19 0.619488 0.500000 0.745583
O O20 0.602133 0.324654 0.731169
O O21 0.000000 0.293995 0.802645
#
# Coordination Sequence:
#
# PCOD8290781 Si02
#       8
#    16   8  16  16  16  16  16  16
#     4   9  17  31  51  71  93 125 165 206 245 293
#     4   9  18  34  55  77 100 131 171 213 261 308
#     4   9  19  34  52  71  96 129 166 209 255 303
#     4  10  20  35  54  76 104 137 169 210 259 306
#     4   9  18  31  49  75 103 131 165 207 253 295
#     4  10  21  34  51  77 107 139 172 206 249 307
#     4   9  19  34  48  67  96 134 171 200 240 295
#     4  11  21  30  47  73 100 131 164 207 256 297
#
# _framework density 17.264672999999998
#
# number of rings (size 3 to 8) (size 9 to 14) (size 15 to 20)
#    0.000    2.467    0.667    3.200    3.733    2.933 
#    0.000    3.333    0.000    2.400    0.000    0.000 
#    0.000    1.067    0.000    0.000    0.000    0.133 
#
# Total GULP energy -743512.326267 kJ/mol
# GULP energy per Si atom -12391.872104 kJ/mol
# Density = 1.722538 g / cm^3
# Si number density = 17.264673 Si / 1000 Ang^3
#
#
#
# Elastic Constant Matrix: (Units=GPa)
#
#
# Indices 1 2 3 4 5 6 
#
# 1 60.8242 24.9303 22.0046 0.0000 0.0000 0.0000
# 2 24.9303 72.1416 30.5516 0.0000 0.0000 0.0000
# 3 22.0046 30.5516 104.2145 0.0000 0.0000 0.0000
# 4 0.0000 0.0000 0.0000 23.9647 0.0000 0.0000
# 5 0.0000 0.0000 0.0000 0.0000 6.8404 0.0000
# 6 0.0000 0.0000 0.0000 0.0000 0.0000 9.0914
#
#
#
# Elastic Compliance Matrix: (Units=1/GPa)
#
#
# Indices 1 2 3 4 5 6 
#
# 1 0.019695 -0.005760 -0.002470 0.000000 0.000000 0.000000
# 2 -0.005760 0.017511 -0.003917 0.000000 0.000000 0.000000
# 3 -0.002470 -0.003917 0.011266 0.000000 0.000000 0.000000
# 4 0.000000 0.000000 0.000000 0.041728 0.000000 0.000000
# 5 0.000000 0.000000 0.000000 0.000000 0.146190 0.000000
# 6 0.000000 0.000000 0.000000 0.000000 0.000000 0.109994
#
#
# Mechanical properties :
#
#
# Convention : Reuss Voigt Hill
#
# Bulk Modulus (GPa) = 41.36150 43.57259 42.46704
# Shear Modulus (GPa) = 13.20172 18.62555 15.91364
#
# Velocity S-wave (km/s) = 2.76826 3.28811 3.03932
# Velocity P-wave (km/s) = 5.85038 6.30146 6.08010
#
# Compressibility (1/GPa) = 0.02417708
#
# Stress axis : x y z
#
# Youngs Moduli (GPa) = 50.77339 57.10639 88.76637
#
# Poissons Ratio (x) = 0.32894 0.21925
# Poissons Ratio (y) = 0.29246 0.34773
# Poissons Ratio (z) = 0.12541 0.22371
#
# Static dielectric constant tensor:
#      x y z
#    x 3.118500 0.000000 0.000000 
#    y 0.000000 3.327510 0.000000 
#    z 0.000000 0.000000 3.324240 
# 
# 
# High freq. dielectric constant tensor:
#      x y z
#    x 1.643880 0.000000 0.000000 
#    y 0.000000 1.663740 0.000000 
#    z 0.000000 0.000000 1.667280 
# 
# From -- ./inp_files/41163.got.cif
#   From: 2010.06.25/outbox.cif.g09.slc.cpg/sg71_21_cif.got.tgz:41163.got - 2010.06.28 04:59:45.
