data_PCOD8290849
_publ_section_title
;
Structure prediction by ZEFSAII (Michael W. Deem and Ramdas Pophale) SiO2 
 PCOD8290849
Probable space group: I M M M
;
_chemical_formula_sum "Si O2"
_cell_formula_units_Z 80
_cell_length_a 22.603792
_cell_length_b 21.670925
_cell_length_c 7.794196
_cell_angle_alpha 90.000000
_cell_angle_beta 90.000000
_cell_angle_gamma 90.000000
_cell_volume 3817.948572
_symmetry_space_group_name_H-M "I M M M"
_symmetry_group_IT_number 71
_symmetry_cell_setting 'orthorhombic'
loop_
_space_group_symop_operation_xyz
x,y,z
-x,-y,z
x,-y,-z
-x,y,-z
-x,-y,-z
x,y,-z
-x,y,z
x,-y,z
1/2+x,1/2+y,1/2+z
1/2-x,1/2-y,1/2+z
1/2+x,1/2-y,1/2-z
1/2-x,1/2+y,1/2-z
1/2-x,1/2-y,1/2-z
1/2+x,1/2+y,1/2-z
1/2-x,1/2+y,1/2+z
1/2+x,1/2-y,1/2+z
loop_
_atom_site_type_symbol
_atom_site_label
_atom_site_fract_x
_atom_site_fract_y
_atom_site_fract_z
Si Si1 0.133585 0.382063 0.203960
Si Si2 0.569189 0.241126 0.295896
Si Si3 0.378566 0.633524 0.195091
Si Si4 0.067155 0.934654 0.000000
Si Si5 0.565436 0.000000 0.295247
Si Si6 0.757541 0.070480 0.702510
O O1 0.101255 0.320696 0.272000
O O2 0.097269 0.439660 0.276734
O O3 0.200536 0.391944 0.272964
O O4 0.132820 0.380603 0.000000
O O5 0.572786 0.247844 0.500000
O O6 0.500000 0.242661 0.237610
O O7 0.608857 0.293811 0.207207
O O8 0.423025 0.602197 0.325776
O O9 0.313111 0.612940 0.255828
O O10 0.389879 0.610949 0.000000
O O11 0.000000 0.951373 0.000000
O O12 0.102833 0.000000 0.000000
O O13 0.500000 0.000000 0.220436
O O14 0.566000 0.000000 0.500000
O O15 0.752525 0.064668 0.500000
O O16 0.761617 0.000000 0.777181
#
# Coordination Sequence:
#
# PCOD8290849 Si02
#       6
#    16  16  16   8   8  16
#     4   9  16  28  50  80 116 159 201 249 307 362
#     4  10  20  35  55  83 121 161 204 252 305 363
#     4  11  23  39  62  90 120 164 207 247 299 366
#     4  11  24  42  64  92 124 155 199 259 313 359
#     4   9  14  22  42  78 119 155 199 251 304 361
#     4   9  17  32  54  82 117 155 199 251 306 365
#
# _framework density 20.953661
#
# number of rings (size 3 to 8) (size 9 to 14) (size 15 to 20)
#    0.000    2.200    2.000    1.800    0.000    6.000 
#    0.000    1.000    2.200    0.000    0.000    0.700 
#    0.000    2.400    0.000    0.000    0.000    0.000 
#
# Total GULP energy -495700.046843 kJ/mol
# GULP energy per Si atom -12392.501171 kJ/mol
# Density = 2.090597 g / cm^3
# Si number density = 20.953661 Si / 1000 Ang^3
#
#
#
# Elastic Constant Matrix: (Units=GPa)
#
#
# Indices 1 2 3 4 5 6 
#
# 1 165.6144 89.0019 17.0961 0.0000 0.0000 0.0000
# 2 89.0019 181.6957 23.1058 0.0000 0.0000 0.0000
# 3 17.0961 23.1058 55.9902 0.0000 0.0000 0.0000
# 4 0.0000 0.0000 0.0000 0.8335 0.0000 0.0000
# 5 0.0000 0.0000 0.0000 0.0000 11.8405 0.0000
# 6 0.0000 0.0000 0.0000 0.0000 0.0000 45.8780
#
#
#
# Elastic Compliance Matrix: (Units=1/GPa)
#
#
# Indices 1 2 3 4 5 6 
#
# 1 0.008238 -0.003921 -0.000897 0.000000 0.000000 0.000000
# 2 -0.003921 0.007675 -0.001970 0.000000 0.000000 0.000000
# 3 -0.000897 -0.001970 0.018947 0.000000 0.000000 0.000000
# 4 0.000000 0.000000 0.000000 1.199759 0.000000 0.000000
# 5 0.000000 0.000000 0.000000 0.000000 0.084456 0.000000
# 6 0.000000 0.000000 0.000000 0.000000 0.000000 0.021797
#
#
# Mechanical properties :
#
#
# Convention : Reuss Voigt Hill
#
# Bulk Modulus (GPa) = 46.98498 73.52310 60.25404
# Shear Modulus (GPa) = 3.67230 29.98350 16.82790
#
# Velocity S-wave (km/s) = 1.32529 3.78688 2.83698
# Velocity P-wave (km/s) = 4.98135 7.36785 6.28884
#
# Compressibility (1/GPa) = 0.02128340
#
# Stress axis : x y z
#
# Youngs Moduli (GPa) = 121.38845 130.29320 52.77824
#
# Poissons Ratio (x) = 0.51091 0.04735
# Poissons Ratio (y) = 0.47599 0.10397
# Poissons Ratio (z) = 0.10891 0.25668
#
# Static dielectric constant tensor:
#      x y z
#    x 3.997950 0.000000 0.000000 
#    y 0.000000 4.017390 0.000000 
#    z 0.000000 0.000000 3.312550 
# 
# 
# High freq. dielectric constant tensor:
#      x y z
#    x 1.827500 0.000000 0.000000 
#    y 0.000000 1.829570 0.000000 
#    z 0.000000 0.000000 1.784060 
# 
# From -- ./inp_files/12397.got.cif
#   From: 2010.06.25/outbox.cif.g09.slc.cpg/sg71_7_cif.got.tgz:12397.got - 2010.06.28 04:59:45.
