data_PCOD8290437
_publ_section_title
;
Structure prediction by ZEFSAII (Michael W. Deem and Ramdas Pophale) SiO2 
 PCOD8290437
Probable space group: I M M M
;
_chemical_formula_sum "Si O2"
_cell_formula_units_Z 120
_cell_length_a 29.354814
_cell_length_b 9.033740
_cell_length_c 24.195476
_cell_angle_alpha 90.000000
_cell_angle_beta 90.000000
_cell_angle_gamma 90.000000
_cell_volume 6416.247238
_symmetry_space_group_name_H-M "I M M M"
_symmetry_group_IT_number 71
_symmetry_cell_setting 'orthorhombic'
loop_
_space_group_symop_operation_xyz
x,y,z
-x,-y,z
x,-y,-z
-x,y,-z
-x,-y,-z
x,y,-z
-x,y,z
x,-y,z
1/2+x,1/2+y,1/2+z
1/2-x,1/2-y,1/2+z
1/2+x,1/2-y,1/2-z
1/2-x,1/2+y,1/2-z
1/2-x,1/2-y,1/2-z
1/2+x,1/2+y,1/2-z
1/2-x,1/2+y,1/2+z
1/2+x,1/2-y,1/2+z
loop_
_atom_site_type_symbol
_atom_site_label
_atom_site_fract_x
_atom_site_fract_y
_atom_site_fract_z
Si Si1 0.158037 0.171717 0.562469
Si Si2 0.124224 0.176109 0.821830
Si Si3 0.918570 0.326169 0.374476
Si Si4 0.947034 0.672505 0.748158
Si Si5 0.715196 0.830753 0.710255
Si Si6 0.651791 0.673232 0.440467
Si Si7 0.000000 0.830060 0.434882
Si Si8 0.759101 0.333263 0.085655
O O1 0.139967 0.195992 0.500000
O O2 0.130612 0.271313 0.605814
O O3 0.210152 0.224476 0.565872
O O4 0.153307 0.000000 0.579756
O O5 0.077366 0.233378 0.795787
O O6 0.166712 0.247555 0.789503
O O7 0.124346 0.230378 0.886443
O O8 0.127219 0.000000 0.816446
O O9 0.923832 0.500000 0.383482
O O10 0.925343 0.284153 0.310581
O O11 0.955412 0.246030 0.411685
O O12 0.940196 0.500000 0.760904
O O13 0.000000 0.715854 0.747825
O O14 0.750000 0.750000 0.750000
O O15 0.738776 0.823640 0.651263
O O16 0.707017 0.000000 0.729425
O O17 0.628262 0.714966 0.500000
O O18 0.656486 0.500000 0.434599
O O19 0.702713 0.734398 0.442337
O O20 0.000000 0.812453 0.500000
O O21 0.000000 0.000000 0.416433
O O22 0.766876 0.500000 0.064836
#
# Coordination Sequence:
#
# PCOD8290437 Si02
#       8
#    16  16  16  16  16  16   8  16
#     4  10  21  36  52  75 109 145 182 227 275 319
#     4  10  21  36  57  86 114 145 186 227 275 334
#     4  11  23  39  57  79 104 137 181 227 279 332
#     4  10  22  42  62  82 110 141 179 232 289 338
#     4  10  20  34  52  78 112 149 189 231 277 325
#     4   9  18  34  56  83 116 149 181 221 267 318
#     4  11  23  39  59  81 105 135 174 225 282 335
#     4   9  19  34  52  76 107 146 189 227 265 314
#
# _framework density 18.702521000000001
#
# number of rings (size 3 to 8) (size 9 to 14) (size 15 to 20)
#    0.000    2.067    0.667    2.200    1.867    6.133 
#    0.000    0.000    0.000    0.400    0.000    2.800 
#    0.000    0.000    0.000    0.000    0.000    0.000 
#
# Total GULP energy -743991.672381 kJ/mol
# GULP energy per Si atom -12399.861206 kJ/mol
# Density = 1.865995 g / cm^3
# Si number density = 18.702521 Si / 1000 Ang^3
#
#
#
# Elastic Constant Matrix: (Units=GPa)
#
#
# Indices 1 2 3 4 5 6 
#
# 1 78.5480 33.2699 62.8033 0.0000 0.0000 0.0000
# 2 33.2699 65.5032 54.0538 0.0000 0.0000 0.0000
# 3 62.8033 54.0538 111.4825 0.0000 0.0000 0.0000
# 4 0.0000 0.0000 0.0000 23.9678 0.0000 0.0000
# 5 0.0000 0.0000 0.0000 0.0000 26.2629 0.0000
# 6 0.0000 0.0000 0.0000 0.0000 0.0000 9.2441
#
#
#
# Elastic Compliance Matrix: (Units=1/GPa)
#
#
# Indices 1 2 3 4 5 6 
#
# 1 0.023274 -0.001670 -0.012302 0.000000 0.000000 0.000000
# 2 -0.001670 0.025569 -0.011457 0.000000 0.000000 0.000000
# 3 -0.012302 -0.011457 0.021455 0.000000 0.000000 0.000000
# 4 0.000000 0.000000 0.000000 0.041723 0.000000 0.000000
# 5 0.000000 0.000000 0.000000 0.000000 0.038077 0.000000
# 6 0.000000 0.000000 0.000000 0.000000 0.000000 0.108177
#
#
# Mechanical properties :
#
#
# Convention : Reuss Voigt Hill
#
# Bulk Modulus (GPa) = 51.43621 61.75417 56.59519
# Shear Modulus (GPa) = 15.84225 18.92207 17.38216
#
# Velocity S-wave (km/s) = 2.91360 3.18424 3.05192
# Velocity P-wave (km/s) = 6.23544 6.82715 6.53799
#
# Compressibility (1/GPa) = 0.01944156
#
# Stress axis : x y z
#
# Youngs Moduli (GPa) = 42.96576 39.11045 46.60870
#
# Poissons Ratio (x) = 0.06530 0.57338
# Poissons Ratio (y) = 0.07174 0.53398
# Poissons Ratio (z) = 0.52856 0.44808
#
# Static dielectric constant tensor:
#      x y z
#    x 3.373280 0.000000 0.000000 
#    y 0.000000 3.471900 0.000000 
#    z 0.000000 0.000000 3.746740 
# 
# 
# High freq. dielectric constant tensor:
#      x y z
#    x 1.711600 0.000000 0.000000 
#    y 0.000000 1.727920 0.000000 
#    z 0.000000 0.000000 1.737200 
# 
# From -- ./inp_files/67202.got.cif
#   From: 2010.06.25/outbox.cif.g09.slc.cpg/sg71_34_cif.got.tgz:67202.got - 2010.06.28 04:59:45.
