data_PCOD8290773
_publ_section_title
;
Structure prediction by ZEFSAII (Michael W. Deem and Ramdas Pophale) SiO2 
 PCOD8290773
Probable space group: I M M M
;
_chemical_formula_sum "Si O2"
_cell_formula_units_Z 104
_cell_length_a 26.465086
_cell_length_b 8.401413
_cell_length_c 24.266298
_cell_angle_alpha 90.000000
_cell_angle_beta 90.000000
_cell_angle_gamma 90.000000
_cell_volume 5395.468615
_symmetry_space_group_name_H-M "I M M M"
_symmetry_group_IT_number 71
_symmetry_cell_setting 'orthorhombic'
loop_
_space_group_symop_operation_xyz
x,y,z
-x,-y,z
x,-y,-z
-x,y,-z
-x,-y,-z
x,y,-z
-x,y,z
x,-y,z
1/2+x,1/2+y,1/2+z
1/2-x,1/2-y,1/2+z
1/2+x,1/2-y,1/2-z
1/2-x,1/2+y,1/2-z
1/2-x,1/2-y,1/2-z
1/2+x,1/2+y,1/2-z
1/2-x,1/2+y,1/2+z
1/2+x,1/2-y,1/2+z
loop_
_atom_site_type_symbol
_atom_site_label
_atom_site_fract_x
_atom_site_fract_y
_atom_site_fract_z
Si Si1 0.820275 0.685495 0.156142
Si Si2 0.365226 0.813186 0.938841
Si Si3 0.107622 0.309667 0.938772
Si Si4 0.289707 0.816102 0.847710
Si Si5 0.057584 0.310929 0.652476
Si Si6 0.865334 0.816419 0.263642
Si Si7 0.000000 0.326847 0.065178
O O1 0.806880 0.500000 0.152043
O O2 0.849609 0.749273 0.102594
O O3 0.769359 0.786522 0.157134
O O4 0.855610 0.715926 0.208602
O O5 0.312087 0.773501 0.908316
O O6 0.411817 0.748988 0.901454
O O7 0.371679 0.000000 0.945874
O O8 0.365807 0.733516 0.000000
O O9 0.103132 0.500000 0.938256
O O10 0.052709 0.238109 0.919345
O O11 0.121876 0.248861 0.000000
O O12 0.317525 0.707169 0.803315
O O13 0.301571 0.000000 0.833931
O O14 0.060221 0.500000 0.656071
O O15 0.083056 0.241615 0.707595
O O16 0.000000 0.249895 0.648386
O O17 0.870268 0.000000 0.247818
O O18 0.000000 0.500000 0.094274
O O19 0.000000 0.351018 0.000000
#
# Coordination Sequence:
#
# PCOD8290773 Si02
#       7
#    16  16  16  16  16  16   8
#     4  11  21  33  51  78 107 134 171 217 265 315
#     4   8  15  29  51  80 110 139 174 215 259 310
#     4   8  15  28  47  72 102 133 165 205 252 303
#     4  10  20  35  54  75 103 138 176 216 261 312
#     4   9  18  34  56  81 110 143 179 220 263 310
#     4  11  22  37  55  74 101 137 178 220 266 314
#     4   7  10  22  44  66  91 125 161 193 230 279
#
# _framework density 19.275435000000002
#
# number of rings (size 3 to 8) (size 9 to 14) (size 15 to 20)
#    0.000    2.692    0.000    4.615    0.000    1.231 
#    1.385    1.538    0.000   12.462    0.000    4.308 
#    0.000    7.385    0.000    0.000    0.000    0.000 
#
# Total GULP energy -644476.376477 kJ/mol
# GULP energy per Si atom -12393.776471 kJ/mol
# Density = 1.923156 g / cm^3
# Si number density = 19.275435 Si / 1000 Ang^3
#
#
#
# Elastic Constant Matrix: (Units=GPa)
#
#
# Indices 1 2 3 4 5 6 
#
# 1 90.3230 13.7814 53.1014 0.0000 0.0000 0.0000
# 2 13.7814 30.0704 7.5922 0.0000 0.0000 0.0000
# 3 53.1014 7.5922 119.2576 0.0000 0.0000 0.0000
# 4 0.0000 0.0000 0.0000 8.0999 0.0000 0.0000
# 5 0.0000 0.0000 0.0000 0.0000 20.2371 0.0000
# 6 0.0000 0.0000 0.0000 0.0000 0.0000 20.5671
#
#
#
# Elastic Compliance Matrix: (Units=1/GPa)
#
#
# Indices 1 2 3 4 5 6 
#
# 1 0.015867 -0.005578 -0.006710 0.000000 0.000000 0.000000
# 2 -0.005578 0.035759 0.000207 0.000000 0.000000 0.000000
# 3 -0.006710 0.000207 0.011360 0.000000 0.000000 0.000000
# 4 0.000000 0.000000 0.000000 0.123459 0.000000 0.000000
# 5 0.000000 0.000000 0.000000 0.000000 0.049414 0.000000
# 6 0.000000 0.000000 0.000000 0.000000 0.000000 0.048621
#
#
# Mechanical properties :
#
#
# Convention : Reuss Voigt Hill
#
# Bulk Modulus (GPa) = 25.75674 43.17790 34.46732
# Shear Modulus (GPa) = 15.54801 20.79253 18.17027
#
# Velocity S-wave (km/s) = 2.84319 3.28793 3.07362
# Velocity P-wave (km/s) = 4.91628 6.07150 5.52417
#
# Compressibility (1/GPa) = 0.03882479
#
# Stress axis : x y z
#
# Youngs Moduli (GPa) = 63.02243 27.96467 88.02971
#
# Poissons Ratio (x) = 0.15599 0.59069
# Poissons Ratio (y) = 0.35154 -0.01824
# Poissons Ratio (z) = 0.42289 -0.00579
#
# Static dielectric constant tensor:
#      x y z
#    x 3.734600 0.000000 0.000000 
#    y 0.000000 3.071220 0.000000 
#    z 0.000000 0.000000 3.721190 
# 
# 
# High freq. dielectric constant tensor:
#      x y z
#    x 1.756040 0.000000 0.000000 
#    y 0.000000 1.712170 0.000000 
#    z 0.000000 0.000000 1.744880 
# 
# From -- ./inp_files/61956.got.cif
#   From: 2010.06.25/outbox.cif.g09.slc.cpg/sg71_31_cif.got.tgz:61956.got - 2010.06.28 04:59:45.
