data_PCOD8290587
_publ_section_title
;
Structure prediction by ZEFSAII (Michael W. Deem and Ramdas Pophale) SiO2 
 PCOD8290587
Probable space group: I M M M
;
_chemical_formula_sum "Si O2"
_cell_formula_units_Z 80
_cell_length_a 29.742204
_cell_length_b 9.181449
_cell_length_c 14.909251
_cell_angle_alpha 90.000000
_cell_angle_beta 90.000000
_cell_angle_gamma 90.000000
_cell_volume 4071.366516
_symmetry_space_group_name_H-M "I M M M"
_symmetry_group_IT_number 71
_symmetry_cell_setting 'orthorhombic'
loop_
_space_group_symop_operation_xyz
x,y,z
-x,-y,z
x,-y,-z
-x,y,-z
-x,-y,-z
x,y,-z
-x,y,z
x,-y,z
1/2+x,1/2+y,1/2+z
1/2-x,1/2-y,1/2+z
1/2+x,1/2-y,1/2-z
1/2-x,1/2+y,1/2-z
1/2-x,1/2-y,1/2-z
1/2+x,1/2+y,1/2-z
1/2-x,1/2+y,1/2+z
1/2+x,1/2-y,1/2+z
loop_
_atom_site_type_symbol
_atom_site_label
_atom_site_fract_x
_atom_site_fract_y
_atom_site_fract_z
Si Si1 0.450491 0.336705 0.142900
Si Si2 0.451034 0.663198 0.355552
Si Si3 0.364641 0.829535 0.350515
Si Si4 0.363598 0.171680 0.856667
Si Si5 0.797623 0.327577 0.000000
Si Si6 0.304400 0.325504 0.000000
O O1 0.500000 0.290222 0.106473
O O2 0.438872 0.500000 0.108728
O O3 0.451363 0.335052 0.249092
O O4 0.412666 0.224319 0.108662
O O5 0.500000 0.719799 0.390018
O O6 0.443018 0.500000 0.391106
O O7 0.410570 0.762620 0.390674
O O8 0.355898 0.786474 0.247294
O O9 0.323177 0.771547 0.410467
O O10 0.370741 0.000000 0.360267
O O11 0.326173 0.259091 0.910908
O O12 0.359337 0.000000 0.874464
O O13 0.797062 0.500000 0.000000
O O14 0.746957 0.269772 0.000000
O O15 0.308838 0.500000 0.000000
#
# Coordination Sequence:
#
# PCOD8290587 Si02
#       6
#    16  16  16  16   8   8
#     4   8  14  27  49  76 106 141 177 208 244 300
#     4   8  14  26  46  74 108 142 174 209 249 297
#     4   9  18  34  56  79 105 138 174 214 259 307
#     4  10  20  34  54  81 110 136 168 216 266 307
#     4   9  20  39  58  77 102 134 176 220 262 313
#     4  11  23  39  58  75  98 137 178 217 264 319
#
# _framework density 19.649421
#
# number of rings (size 3 to 8) (size 9 to 14) (size 15 to 20)
#    0.000    3.000    0.000    2.100    0.000    2.400 
#    0.000    7.500    0.000    6.000    0.000    0.000 
#    0.000    0.000    0.000    0.000    0.000    0.000 
#
# Total GULP energy -495734.837218 kJ/mol
# GULP energy per Si atom -12393.370930 kJ/mol
# Density = 1.960470 g / cm^3
# Si number density = 19.649421 Si / 1000 Ang^3
#
#
#
# Elastic Constant Matrix: (Units=GPa)
#
#
# Indices 1 2 3 4 5 6 
#
# 1 200.8084 69.4011 66.1201 0.0000 0.0000 0.0000
# 2 69.4011 76.7921 36.7689 0.0000 0.0000 0.0000
# 3 66.1201 36.7689 81.6393 0.0000 0.0000 0.0000
# 4 0.0000 0.0000 0.0000 13.6413 0.0000 0.0000
# 5 0.0000 0.0000 0.0000 0.0000 28.3185 0.0000
# 6 0.0000 0.0000 0.0000 0.0000 0.0000 30.5979
#
#
#
# Elastic Compliance Matrix: (Units=1/GPa)
#
#
# Indices 1 2 3 4 5 6 
#
# 1 0.008251 -0.005428 -0.004238 0.000000 0.000000 0.000000
# 2 -0.005428 0.020173 -0.004690 0.000000 0.000000 0.000000
# 3 -0.004238 -0.004690 0.017794 0.000000 0.000000 0.000000
# 4 0.000000 0.000000 0.000000 0.073307 0.000000 0.000000
# 5 0.000000 0.000000 0.000000 0.000000 0.035313 0.000000
# 6 0.000000 0.000000 0.000000 0.000000 0.000000 0.032682
#
#
# Mechanical properties :
#
#
# Convention : Reuss Voigt Hill
#
# Bulk Modulus (GPa) = 57.12062 78.20225 67.66144
# Shear Modulus (GPa) = 22.51587 26.97486 24.74537
#
# Velocity S-wave (km/s) = 3.38876 3.70916 3.55257
# Velocity P-wave (km/s) = 6.66667 7.63079 7.16497
#
# Compressibility (1/GPa) = 0.01750681
#
# Stress axis : x y z
#
# Youngs Moduli (GPa) = 121.19336 49.57123 56.20006
#
# Poissons Ratio (x) = 0.26906 0.23818
# Poissons Ratio (y) = 0.65782 0.26355
# Poissons Ratio (z) = 0.51364 0.23247
#
# Static dielectric constant tensor:
#      x y z
#    x 4.069240 0.000000 0.000000 
#    y 0.000000 3.505890 0.000000 
#    z 0.000000 0.000000 3.484460 
# 
# 
# High freq. dielectric constant tensor:
#      x y z
#    x 1.769440 0.000000 0.000000 
#    y 0.000000 1.746970 0.000000 
#    z 0.000000 0.000000 1.756570 
# 
# From -- ./inp_files/48621.got.cif
#   From: 2010.06.25/outbox.cif.g09.slc.cpg/sg71_25_cif.got.tgz:48621.got - 2010.06.28 04:59:45.
