data_PCOD8290140
_publ_section_title
;
Structure prediction by ZEFSAII (Michael W. Deem and Ramdas Pophale) SiO2 
 PCOD8290140
Probable space group: I M M M
;
_chemical_formula_sum "Si O2"
_cell_formula_units_Z 88
_cell_length_a 18.101004
_cell_length_b 8.802976
_cell_length_c 30.546343
_cell_angle_alpha 90.000000
_cell_angle_beta 90.000000
_cell_angle_gamma 90.000000
_cell_volume 4867.336884
_symmetry_space_group_name_H-M "I M M M"
_symmetry_group_IT_number 71
_symmetry_cell_setting 'orthorhombic'
loop_
_space_group_symop_operation_xyz
x,y,z
-x,-y,z
x,-y,-z
-x,y,-z
-x,-y,-z
x,y,-z
-x,y,z
x,-y,z
1/2+x,1/2+y,1/2+z
1/2-x,1/2-y,1/2+z
1/2+x,1/2-y,1/2-z
1/2-x,1/2+y,1/2-z
1/2-x,1/2-y,1/2-z
1/2+x,1/2+y,1/2-z
1/2-x,1/2+y,1/2+z
1/2+x,1/2-y,1/2+z
loop_
_atom_site_type_symbol
_atom_site_label
_atom_site_fract_x
_atom_site_fract_y
_atom_site_fract_z
Si Si1 0.417925 0.327901 0.260620
Si Si2 0.500000 0.833759 0.051919
Si Si3 0.340496 0.818263 0.950827
Si Si4 0.724987 0.320510 0.620448
Si Si5 0.916176 0.321535 0.849620
Si Si6 0.216825 0.825336 0.707254
O O1 0.500000 0.278659 0.247257
O O2 0.414326 0.500000 0.278811
O O3 0.389442 0.221851 0.300504
O O4 0.370972 0.313288 0.216209
O O5 0.578339 0.752505 0.064717
O O6 0.500000 0.000000 0.074041
O O7 0.500000 0.851980 0.000000
O O8 0.275456 0.758112 0.919303
O O9 0.345011 0.000000 0.949638
O O10 0.321995 0.762129 0.000000
O O11 0.718534 0.500000 0.619046
O O12 0.642104 0.252059 0.616459
O O13 0.764174 0.270574 0.664914
O O14 0.913395 0.500000 0.855466
O O15 0.000000 0.260915 0.858084
O O16 0.250000 0.750000 0.750000
O O17 0.242813 0.000000 0.701463
#
# Coordination Sequence:
#
# PCOD8290140 Si02
#       6
#    16   8  16  16  16  16
#     4   9  18  33  51  68  90 127 172 211 249 292
#     4   7  10  22  46  72  99 131 165 203 245 285
#     4   8  15  29  50  75 102 132 168 208 248 295
#     4  11  21  32  50  77 105 133 166 206 258 308
#     4  10  20  33  51  73  96 127 170 214 251 297
#     4  11  21  33  50  71 101 136 170 208 250 297
#
# _framework density 18.079702000000001
#
# number of rings (size 3 to 8) (size 9 to 14) (size 15 to 20)
#    0.000    2.455    1.818    2.727    0.000    1.818 
#    1.636    0.000    0.000    2.727    0.000    3.818 
#    0.000    8.727    0.000    0.000    0.000    0.000 
#
# Total GULP energy -545196.844472 kJ/mol
# GULP energy per Si atom -12390.837374 kJ/mol
# Density = 1.803855 g / cm^3
# Si number density = 18.079702 Si / 1000 Ang^3
#
#
#
# Elastic Constant Matrix: (Units=GPa)
#
#
# Indices 1 2 3 4 5 6 
#
# 1 138.0286 28.5480 64.0496 0.0000 0.0000 0.0000
# 2 28.5480 47.1361 16.1799 0.0000 0.0000 0.0000
# 3 64.0496 16.1799 85.2616 0.0000 0.0000 0.0000
# 4 0.0000 0.0000 0.0000 14.3441 0.0000 0.0000
# 5 0.0000 0.0000 0.0000 0.0000 31.7611 0.0000
# 6 0.0000 0.0000 0.0000 0.0000 0.0000 23.0528
#
#
#
# Elastic Compliance Matrix: (Units=1/GPa)
#
#
# Indices 1 2 3 4 5 6 
#
# 1 0.011931 -0.004439 -0.008120 0.000000 0.000000 0.000000
# 2 -0.004439 0.024345 -0.001285 0.000000 0.000000 0.000000
# 3 -0.008120 -0.001285 0.018073 0.000000 0.000000 0.000000
# 4 0.000000 0.000000 0.000000 0.069715 0.000000 0.000000
# 5 0.000000 0.000000 0.000000 0.000000 0.031485 0.000000
# 6 0.000000 0.000000 0.000000 0.000000 0.000000 0.043379
#
#
# Mechanical properties :
#
#
# Convention : Reuss Voigt Hill
#
# Bulk Modulus (GPa) = 37.51033 54.22015 45.86524
# Shear Modulus (GPa) = 21.23117 24.60818 22.91967
#
# Velocity S-wave (km/s) = 3.43054 3.69330 3.56434
# Velocity P-wave (km/s) = 6.04017 6.94564 6.50867
#
# Compressibility (1/GPa) = 0.02665933
#
# Stress axis : x y z
#
# Youngs Moduli (GPa) = 83.81502 41.07677 55.33200
#
# Poissons Ratio (x) = 0.18232 0.44932
# Poissons Ratio (y) = 0.37202 0.07113
# Poissons Ratio (z) = 0.68061 0.05280
#
# Static dielectric constant tensor:
#      x y z
#    x 4.033310 0.000000 0.000000 
#    y 0.000000 3.127250 0.000000 
#    z 0.000000 0.000000 3.016860 
# 
# 
# High freq. dielectric constant tensor:
#      x y z
#    x 1.725790 0.000000 0.000000 
#    y 0.000000 1.677890 0.000000 
#    z 0.000000 0.000000 1.655700 
# 
# From -- ./inp_files/70367.got.cif
#   From: 2010.06.25/outbox.cif.g09.slc.cpg/sg71_36_cif.got.tgz:70367.got - 2010.06.28 04:59:45.
