data_PCOD8290181
_publ_section_title
;
Structure prediction by ZEFSAII (Michael W. Deem and Ramdas Pophale) SiO2 
 PCOD8290181
Probable space group: I M M M
;
_chemical_formula_sum "Si O2"
_cell_formula_units_Z 96
_cell_length_a 23.794709
_cell_length_b 23.265487
_cell_length_c 9.296166
_cell_angle_alpha 90.000000
_cell_angle_beta 90.000000
_cell_angle_gamma 90.000000
_cell_volume 5146.315599
_symmetry_space_group_name_H-M "I M M M"
_symmetry_group_IT_number 71
_symmetry_cell_setting 'orthorhombic'
loop_
_space_group_symop_operation_xyz
x,y,z
-x,-y,z
x,-y,-z
-x,y,-z
-x,-y,-z
x,y,-z
-x,y,z
x,-y,z
1/2+x,1/2+y,1/2+z
1/2-x,1/2-y,1/2+z
1/2+x,1/2-y,1/2-z
1/2-x,1/2+y,1/2-z
1/2-x,1/2-y,1/2-z
1/2+x,1/2+y,1/2-z
1/2-x,1/2+y,1/2+z
1/2+x,1/2-y,1/2+z
loop_
_atom_site_type_symbol
_atom_site_label
_atom_site_fract_x
_atom_site_fract_y
_atom_site_fract_z
Si Si1 0.669783 0.932376 0.832367
Si Si2 0.433241 0.562596 0.160736
Si Si3 0.437961 0.068151 0.661013
Si Si4 0.236678 0.659308 0.168470
Si Si5 0.937753 0.170184 0.834037
Si Si6 0.173099 0.772875 0.834990
O O1 0.609552 0.910711 0.771529
O O2 0.719094 0.898984 0.749270
O O3 0.678754 0.000000 0.804713
O O4 0.671892 0.917162 0.000000
O O5 0.500000 0.562566 0.161654
O O6 0.411472 0.500000 0.215046
O O7 0.411330 0.613237 0.262033
O O8 0.410660 0.573833 0.000000
O O9 0.423342 0.090648 0.500000
O O10 0.500000 0.091185 0.707477
O O11 0.439543 0.000000 0.659715
O O12 0.189187 0.707393 0.199029
O O13 0.295095 0.682472 0.231859
O O14 0.244155 0.646363 0.000000
O O15 0.893894 0.221790 0.806252
O O16 0.000000 0.186778 0.773236
O O17 0.942893 0.155280 0.000000
O O18 0.188308 0.788334 0.000000
#
# Coordination Sequence:
#
# PCOD8290181 Si02
#       6
#    16  16  16  16  16  16
#     4  10  20  33  51  76 106 137 167 207 260 309
#     4   8  14  25  41  63  94 130 163 194 231 278
#     4   8  14  26  45  69  98 133 171 207 244 293
#     4  10  20  35  56  77  97 129 173 214 251 296
#     4   9  17  30  50  75 101 128 159 198 245 297
#     4   9  19  36  55  75 100 130 166 207 251 299
#
# _framework density 18.654121
#
# number of rings (size 3 to 8) (size 9 to 14) (size 15 to 20)
#    0.000    3.000    0.000    2.000    0.000    3.000 
#    0.000    5.000    0.000    4.000    0.000    0.000 
#    0.000    0.000    0.000    0.000    0.000    0.000 
#
# Total GULP energy -594901.299733 kJ/mol
# GULP energy per Si atom -12393.777078 kJ/mol
# Density = 1.861166 g / cm^3
# Si number density = 18.654121 Si / 1000 Ang^3
#
#
#
# Elastic Constant Matrix: (Units=GPa)
#
#
# Indices 1 2 3 4 5 6 
#
# 1 78.6532 36.8939 41.9290 0.0000 0.0000 0.0000
# 2 36.8939 56.1829 35.7566 0.0000 0.0000 0.0000
# 3 41.9290 35.7566 90.9711 0.0000 0.0000 0.0000
# 4 0.0000 0.0000 0.0000 26.1071 0.0000 0.0000
# 5 0.0000 0.0000 0.0000 0.0000 27.2281 0.0000
# 6 0.0000 0.0000 0.0000 0.0000 0.0000 22.7305
#
#
#
# Elastic Compliance Matrix: (Units=1/GPa)
#
#
# Indices 1 2 3 4 5 6 
#
# 1 0.020228 -0.009802 -0.005471 0.000000 0.000000 0.000000
# 2 -0.009802 0.028486 -0.006679 0.000000 0.000000 0.000000
# 3 -0.005471 -0.006679 0.016139 0.000000 0.000000 0.000000
# 4 0.000000 0.000000 0.000000 0.038304 0.000000 0.000000
# 5 0.000000 0.000000 0.000000 0.000000 0.036727 0.000000
# 6 0.000000 0.000000 0.000000 0.000000 0.000000 0.043994
#
#
# Mechanical properties :
#
#
# Convention : Reuss Voigt Hill
#
# Bulk Modulus (GPa) = 47.73063 50.55183 49.14123
# Shear Modulus (GPa) = 21.29801 22.62832 21.96316
#
# Velocity S-wave (km/s) = 3.38262 3.48666 3.43503
# Velocity P-wave (km/s) = 6.39522 6.58540 6.49101
#
# Compressibility (1/GPa) = 0.02095091
#
# Stress axis : x y z
#
# Youngs Moduli (GPa) = 49.43649 35.10470 61.96099
#
# Poissons Ratio (x) = 0.34408 0.33897
# Poissons Ratio (y) = 0.48455 0.41384
# Poissons Ratio (z) = 0.27045 0.23447
#
# Static dielectric constant tensor:
#      x y z
#    x 3.431230 0.000000 0.000000 
#    y 0.000000 3.368410 0.000000 
#    z 0.000000 0.000000 3.503900 
# 
# 
# High freq. dielectric constant tensor:
#      x y z
#    x 1.710860 0.000000 0.000000 
#    y 0.000000 1.701270 0.000000 
#    z 0.000000 0.000000 1.722490 
# 
# From -- ./inp_files/12853.got.cif
#   From: 2010.06.25/outbox.cif.g09.slc.cpg/sg71_7_cif.got.tgz:12853.got - 2010.06.28 04:59:45.
