data_PCOD8290645
_publ_section_title
;
Structure prediction by ZEFSAII (Michael W. Deem and Ramdas Pophale) SiO2 
 PCOD8290645
Probable space group: I M M M
;
_chemical_formula_sum "Si O2"
_cell_formula_units_Z 80
_cell_length_a 9.449025
_cell_length_b 22.902253
_cell_length_c 19.607868
_cell_angle_alpha 90.000000
_cell_angle_beta 90.000000
_cell_angle_gamma 90.000000
_cell_volume 4243.220305
_symmetry_space_group_name_H-M "I M M M"
_symmetry_group_IT_number 71
_symmetry_cell_setting 'orthorhombic'
loop_
_space_group_symop_operation_xyz
x,y,z
-x,-y,z
x,-y,-z
-x,y,-z
-x,-y,-z
x,y,-z
-x,y,z
x,-y,z
1/2+x,1/2+y,1/2+z
1/2-x,1/2-y,1/2+z
1/2+x,1/2-y,1/2-z
1/2-x,1/2+y,1/2-z
1/2-x,1/2-y,1/2-z
1/2+x,1/2+y,1/2-z
1/2-x,1/2+y,1/2+z
1/2+x,1/2-y,1/2+z
loop_
_atom_site_type_symbol
_atom_site_label
_atom_site_fract_x
_atom_site_fract_y
_atom_site_fract_z
Si Si1 0.836720 0.254393 0.319179
Si Si2 0.846972 0.067500 0.073179
Si Si3 0.833814 0.672726 0.079828
Si Si4 0.167059 0.565644 0.168038
Si Si5 0.341057 0.111486 0.811299
O O1 0.750000 0.250000 0.250000
O O2 0.759643 0.219894 0.379887
O O3 0.833627 0.322339 0.336388
O O4 0.000000 0.232853 0.310593
O O5 0.737689 0.074580 0.132970
O O6 0.000000 0.096201 0.091608
O O7 0.870090 0.000000 0.063183
O O8 0.793794 0.093695 0.000000
O O9 0.790895 0.607433 0.104733
O O10 0.000000 0.684603 0.094767
O O11 0.799046 0.677655 0.000000
O O12 0.232443 0.500000 0.159856
O O13 0.224917 0.598065 0.236431
O O14 0.000000 0.559943 0.171237
O O15 0.500000 0.088281 0.809753
#
# Coordination Sequence:
#
# PCOD8290645 Si02
#       5
#    16  16  16  16  16
#     4  11  22  38  60  83 112 147 187 233 281 335
#     4   9  19  35  52  74 109 148 183 223 272 326
#     4  10  21  38  59  85 118 153 191 233 281 338
#     4   9  17  32  55  83 114 146 185 233 280 328
#     4  10  20  34  55  81 109 142 183 231 278 331
#
# _framework density 18.853605000000002
#
# number of rings (size 3 to 8) (size 9 to 14) (size 15 to 20)
#    0.000    2.200    2.000    1.800    0.000    4.800 
#    0.000    7.000    0.000    0.600    0.000    1.400 
#    0.000    0.000    0.000    0.000    0.000    0.000 
#
# Total GULP energy -495625.296334 kJ/mol
# GULP energy per Si atom -12390.632408 kJ/mol
# Density = 1.881069 g / cm^3
# Si number density = 18.853605 Si / 1000 Ang^3
#
#
#
# Elastic Constant Matrix: (Units=GPa)
#
#
# Indices 1 2 3 4 5 6 
#
# 1 76.8712 36.2323 62.2669 0.0000 0.0000 0.0000
# 2 36.2323 91.5940 51.2777 0.0000 0.0000 0.0000
# 3 62.2669 51.2777 153.1916 0.0000 0.0000 0.0000
# 4 0.0000 0.0000 0.0000 33.2493 0.0000 0.0000
# 5 0.0000 0.0000 0.0000 0.0000 25.9171 0.0000
# 6 0.0000 0.0000 0.0000 0.0000 0.0000 25.8611
#
#
#
# Elastic Compliance Matrix: (Units=1/GPa)
#
#
# Indices 1 2 3 4 5 6 
#
# 1 0.020670 -0.004274 -0.006971 0.000000 0.000000 0.000000
# 2 -0.004274 0.014319 -0.003056 0.000000 0.000000 0.000000
# 3 -0.006971 -0.003056 0.010384 0.000000 0.000000 0.000000
# 4 0.000000 0.000000 0.000000 0.030076 0.000000 0.000000
# 5 0.000000 0.000000 0.000000 0.000000 0.038585 0.000000
# 6 0.000000 0.000000 0.000000 0.000000 0.000000 0.038668
#
#
# Mechanical properties :
#
#
# Convention : Reuss Voigt Hill
#
# Bulk Modulus (GPa) = 59.62425 69.02341 64.32383
# Shear Modulus (GPa) = 26.75320 28.46416 27.60868
#
# Velocity S-wave (km/s) = 3.77104 3.88976 3.83086
# Velocity P-wave (km/s) = 7.11720 7.54078 7.33205
#
# Compressibility (1/GPa) = 0.01677170
#
# Stress axis : x y z
#
# Youngs Moduli (GPa) = 48.37981 69.83642 96.30110
#
# Poissons Ratio (x) = 0.29847 0.67131
# Poissons Ratio (y) = 0.20677 0.29428
# Poissons Ratio (z) = 0.33725 0.21341
#
# Static dielectric constant tensor:
#      x y z
#    x 3.377850 0.000000 0.000000 
#    y 0.000000 3.770860 0.000000 
#    z 0.000000 0.000000 3.511370 
# 
# 
# High freq. dielectric constant tensor:
#      x y z
#    x 1.708550 0.000000 0.000000 
#    y 0.000000 1.731640 0.000000 
#    z 0.000000 0.000000 1.738040 
# 
# From -- ./inp_files/8376.got.cif
#   From: 2010.06.25/outbox.cif.g09.slc.cpg/sg71_5_cif.got.tgz:8376.got - 2010.06.28 04:59:45.
