data_PCOD8290997
_publ_section_title
;
Structure prediction by ZEFSAII (Michael W. Deem and Ramdas Pophale) SiO2 
 PCOD8290997
Probable space group: I M M M
;
_chemical_formula_sum "Si O2"
_cell_formula_units_Z 104
_cell_length_a 8.657292
_cell_length_b 27.967369
_cell_length_c 22.456447
_cell_angle_alpha 90.000000
_cell_angle_beta 90.000000
_cell_angle_gamma 90.000000
_cell_volume 5437.192672
_symmetry_space_group_name_H-M "I M M M"
_symmetry_group_IT_number 71
_symmetry_cell_setting 'orthorhombic'
loop_
_space_group_symop_operation_xyz
x,y,z
-x,-y,z
x,-y,-z
-x,y,-z
-x,-y,-z
x,y,-z
-x,y,z
x,-y,z
1/2+x,1/2+y,1/2+z
1/2-x,1/2-y,1/2+z
1/2+x,1/2-y,1/2-z
1/2-x,1/2+y,1/2-z
1/2-x,1/2-y,1/2-z
1/2+x,1/2+y,1/2-z
1/2-x,1/2+y,1/2+z
1/2+x,1/2-y,1/2+z
loop_
_atom_site_type_symbol
_atom_site_label
_atom_site_fract_x
_atom_site_fract_y
_atom_site_fract_z
Si Si1 0.823893 0.607004 0.168181
Si Si2 0.316517 0.444246 0.500000
Si Si3 0.681295 0.105001 0.116839
Si Si4 0.823099 0.945317 0.776031
Si Si5 0.672106 0.443720 0.933862
Si Si6 0.319270 0.698998 0.675540
Si Si7 0.820451 0.201662 0.685063
O O1 0.715045 0.587393 0.220118
O O2 0.803394 0.576332 0.108916
O O3 0.773060 0.660488 0.151198
O O4 0.000000 0.604787 0.189674
O O5 0.259387 0.500000 0.500000
O O6 0.500000 0.443179 0.500000
O O7 0.256384 0.415485 0.442917
O O8 0.500000 0.110673 0.106846
O O9 0.714481 0.066809 0.168531
O O10 0.749759 0.156308 0.136114
O O11 0.000000 0.935348 0.794788
O O12 0.796352 0.000000 0.757448
O O13 0.500000 0.428926 0.911763
O O14 0.687147 0.500000 0.934484
O O15 0.700655 0.423377 0.000000
O O16 0.500000 0.701904 0.662676
O O17 0.239669 0.748725 0.657621
O O18 0.283579 0.692892 0.745337
O O19 0.000000 0.197818 0.671293
#
# Coordination Sequence:
#
# PCOD8290997 Si02
#       7
#    16   8  16  16  16  16  16
#     4  12  23  34  54  85 119 152 189 237 292 345
#     4  11  25  45  67  89 119 163 211 255 304 365
#     4  12  24  39  62  90 121 155 197 247 302 359
#     4  11  23  38  56  81 116 156 196 239 291 349
#     4   9  19  37  59  80 107 149 196 236 280 340
#     4  10  20  36  60  87 118 153 191 235 288 348
#     4  10  20  35  58  86 119 154 192 236 287 344
#
# _framework density 19.127518999999999
#
# number of rings (size 3 to 8) (size 9 to 14) (size 15 to 20)
#    0.000    1.308    1.538    5.769    0.000    7.385 
#    0.000    0.769    1.692    0.000    0.000    0.000 
#    0.000    0.000    0.000    0.000    0.000    0.000 
#
# Total GULP energy -644892.240192 kJ/mol
# GULP energy per Si atom -12401.773850 kJ/mol
# Density = 1.908398 g / cm^3
# Si number density = 19.127519 Si / 1000 Ang^3
#
#
#
# Elastic Constant Matrix: (Units=GPa)
#
#
# Indices 1 2 3 4 5 6 
#
# 1 101.1151 47.5109 34.8651 0.0000 0.0000 0.0000
# 2 47.5109 113.6151 46.9295 0.0000 0.0000 0.0000
# 3 34.8651 46.9295 83.5736 0.0000 0.0000 0.0000
# 4 0.0000 0.0000 0.0000 -97.6326 0.0002 0.0000
# 5 0.0000 0.0000 0.0000 0.0002 19.2814 0.0000
# 6 0.0000 0.0000 0.0000 0.0000 0.0000 35.4578
#
#
#
# Elastic Compliance Matrix: (Units=1/GPa)
#
#
# Indices 1 2 3 4 5 6 
#
# 1 0.012882 -0.004123 -0.003059 0.000000 0.000000 0.000000
# 2 -0.004123 0.012780 -0.005456 0.000000 0.000000 0.000000
# 3 -0.003059 -0.005456 0.016305 0.000000 0.000000 0.000000
# 4 0.000000 0.000000 0.000000 -0.010242 0.000000 0.000000
# 5 0.000000 0.000000 0.000000 0.000000 0.051864 0.000000
# 6 0.000000 0.000000 0.000000 0.000000 0.000000 0.028203
#
#
# Mechanical properties :
#
#
# Convention : Reuss Voigt Hill
#
# Bulk Modulus (GPa) = 59.91388 61.87941 60.89665
# Shear Modulus (GPa) = 35.05581 2.68787 18.87184
#
# Velocity S-wave (km/s) = 4.28570 1.18671 3.14448
# Velocity P-wave (km/s) = 7.47536 5.85653 6.71491
#
# Compressibility (1/GPa) = 0.01669062
#
# Stress axis : x y z
#
# Youngs Moduli (GPa) = 77.62882 78.24962 61.33019
#
# Poissons Ratio (x) = 0.32266 0.18758
# Poissons Ratio (y) = 0.32010 0.33462
# Poissons Ratio (z) = 0.23743 0.42693
#
# Static dielectric constant tensor:
#      x y z
#    x 3.593470 0.000000 0.000000 
#    y 0.000000 3.668720 0.000000 
#    z 0.000000 0.000000 3.454690 
# 
# 
# High freq. dielectric constant tensor:
#      x y z
#    x 1.754210 0.000000 0.000000 
#    y 0.000000 1.755070 0.000000 
#    z 0.000000 0.000000 1.721240 
# 
# From -- ./inp_files/50911.got.cif
#   From: 2010.06.25/outbox.cif.g09.slc.cpg/sg71_26_cif.got.tgz:50911.got - 2010.06.28 04:59:45.
