data_PCOD8290163
_publ_section_title
;
Structure prediction by ZEFSAII (Michael W. Deem and Ramdas Pophale) SiO2 
 PCOD8290163
Probable space group: I M M M
;
_chemical_formula_sum "Si O2"
_cell_formula_units_Z 80
_cell_length_a 19.695209
_cell_length_b 25.169283
_cell_length_c 9.163049
_cell_angle_alpha 90.000000
_cell_angle_beta 90.000000
_cell_angle_gamma 90.000000
_cell_volume 4542.254321
_symmetry_space_group_name_H-M "I M M M"
_symmetry_group_IT_number 71
_symmetry_cell_setting 'orthorhombic'
loop_
_space_group_symop_operation_xyz
x,y,z
-x,-y,z
x,-y,-z
-x,y,-z
-x,-y,-z
x,y,-z
-x,y,z
x,-y,z
1/2+x,1/2+y,1/2+z
1/2-x,1/2-y,1/2+z
1/2+x,1/2-y,1/2-z
1/2-x,1/2+y,1/2-z
1/2-x,1/2-y,1/2-z
1/2+x,1/2+y,1/2-z
1/2-x,1/2+y,1/2+z
1/2+x,1/2-y,1/2+z
loop_
_atom_site_type_symbol
_atom_site_label
_atom_site_fract_x
_atom_site_fract_y
_atom_site_fract_z
Si Si1 0.419392 0.757343 0.662118
Si Si2 0.424575 0.359529 0.326374
Si Si3 0.080465 0.358969 0.333271
Si Si4 0.173217 0.561812 0.830250
Si Si5 0.810106 0.061116 0.170747
O O1 0.389079 0.767309 0.500000
O O2 0.500000 0.759068 0.652946
O O3 0.398267 0.699038 0.722406
O O4 0.392160 0.802889 0.770161
O O5 0.428582 0.360618 0.500000
O O6 0.500000 0.371353 0.262510
O O7 0.372693 0.404011 0.268805
O O8 0.104293 0.363003 0.500000
O O9 0.111281 0.407163 0.242135
O O10 0.000000 0.363221 0.318215
O O11 0.159289 0.500000 0.802373
O O12 0.243468 0.579544 0.756468
O O13 0.176951 0.575700 0.000000
O O14 0.828023 0.000000 0.203396
O O15 0.797157 0.070864 0.000000
#
# Coordination Sequence:
#
# PCOD8290163 Si02
#       5
#    16  16  16  16  16
#     4   8  14  27  47  69  96 129 160 191 231 280
#     4   8  14  26  47  75 102 128 161 199 237 279
#     4  10  20  33  51  75  99 121 151 195 242 286
#     4  10  21  36  52  69  93 127 163 196 233 283
#     4   9  17  30  49  72  99 130 162 199 242 283
#
# _framework density 17.612399
#
# number of rings (size 3 to 8) (size 9 to 14) (size 15 to 20)
#    0.000    3.000    0.000    2.400    0.000    3.200 
#    0.000    6.000    0.000    1.800    0.000    2.800 
#    0.000    0.000    0.000    0.000    0.000    0.000 
#
# Total GULP energy -495899.340691 kJ/mol
# GULP energy per Si atom -12397.483517 kJ/mol
# Density = 1.757231 g / cm^3
# Si number density = 17.612399 Si / 1000 Ang^3
#
#
#
# Elastic Constant Matrix: (Units=GPa)
#
#
# Indices 1 2 3 4 5 6 
#
# 1 60.7155 52.3212 37.8282 0.0000 0.0000 0.0000
# 2 52.3212 103.2857 49.3358 0.0000 0.0000 0.0000
# 3 37.8282 49.3358 77.3989 0.0000 0.0000 0.0000
# 4 0.0000 0.0000 0.0000 20.5610 0.0000 0.0000
# 5 0.0000 0.0000 0.0000 0.0000 17.3493 0.0000
# 6 0.0000 0.0000 0.0000 0.0000 0.0000 13.4644
#
#
#
# Elastic Compliance Matrix: (Units=1/GPa)
#
#
# Indices 1 2 3 4 5 6 
#
# 1 0.032102 -0.012606 -0.007655 0.000000 0.000000 0.000000
# 2 -0.012606 0.018870 -0.005867 0.000000 0.000000 0.000000
# 3 -0.007655 -0.005867 0.020401 0.000000 0.000000 0.000000
# 4 0.000000 0.000000 0.000000 0.048636 0.000000 0.000000
# 5 0.000000 0.000000 0.000000 0.000000 0.057639 0.000000
# 6 0.000000 0.000000 0.000000 0.000000 0.000000 0.074270
#
#
# Mechanical properties :
#
#
# Convention : Reuss Voigt Hill
#
# Bulk Modulus (GPa) = 52.30574 57.81894 55.06234
# Shear Modulus (GPa) = 16.10065 17.06926 16.58496
#
# Velocity S-wave (km/s) = 3.02680 3.11651 3.07198
# Velocity P-wave (km/s) = 6.47905 6.77126 6.62677
#
# Compressibility (1/GPa) = 0.01911836
#
# Stress axis : x y z
#
# Youngs Moduli (GPa) = 31.15049 52.99398 49.01674
#
# Poissons Ratio (x) = 0.66802 0.37521
# Poissons Ratio (y) = 0.39267 0.28760
# Poissons Ratio (z) = 0.23845 0.31093
#
# Static dielectric constant tensor:
#      x y z
#    x 3.157120 0.000000 0.000000 
#    y 0.000000 3.527780 0.000000 
#    z 0.000000 0.000000 3.211390 
# 
# 
# High freq. dielectric constant tensor:
#      x y z
#    x 1.657960 0.000000 0.000000 
#    y 0.000000 1.689660 0.000000 
#    z 0.000000 0.000000 1.663140 
# 
# From -- ./inp_files/8285.got.cif
#   From: 2010.06.25/outbox.cif.g09.slc.cpg/sg71_5_cif.got.tgz:8285.got - 2010.06.28 04:59:45.
