data_PCOD8290252
_publ_section_title
;
Structure prediction by ZEFSAII (Michael W. Deem and Ramdas Pophale) SiO2 
 PCOD8290252
Probable space group: I M M M
;
_chemical_formula_sum "Si O2"
_cell_formula_units_Z 120
_cell_length_a 25.933501
_cell_length_b 9.395898
_cell_length_c 26.949902
_cell_angle_alpha 90.000000
_cell_angle_beta 90.000000
_cell_angle_gamma 90.000000
_cell_volume 6566.843009
_symmetry_space_group_name_H-M "I M M M"
_symmetry_group_IT_number 71
_symmetry_cell_setting 'orthorhombic'
loop_
_space_group_symop_operation_xyz
x,y,z
-x,-y,z
x,-y,-z
-x,y,-z
-x,-y,-z
x,y,-z
-x,y,z
x,-y,z
1/2+x,1/2+y,1/2+z
1/2-x,1/2-y,1/2+z
1/2+x,1/2-y,1/2-z
1/2-x,1/2+y,1/2-z
1/2-x,1/2-y,1/2-z
1/2+x,1/2+y,1/2-z
1/2-x,1/2+y,1/2+z
1/2+x,1/2-y,1/2+z
loop_
_atom_site_type_symbol
_atom_site_label
_atom_site_fract_x
_atom_site_fract_y
_atom_site_fract_z
Si Si1 0.755891 0.160799 0.641933
Si Si2 0.703806 0.835368 0.944049
Si Si3 0.558344 0.830015 0.392457
Si Si4 0.143422 0.661946 0.185630
Si Si5 0.060916 0.655263 0.000000
Si Si6 0.601170 0.338137 0.054534
Si Si7 0.555178 0.333477 0.845035
Si Si8 0.846989 0.831103 0.286056
O O1 0.757602 0.259096 0.593546
O O2 0.697392 0.168023 0.658145
O O3 0.794920 0.215751 0.685059
O O4 0.772013 0.000000 0.627827
O O5 0.648014 0.767787 0.937572
O O6 0.699779 0.000000 0.930100
O O7 0.724584 0.813573 0.000000
O O8 0.500000 0.779432 0.378714
O O9 0.598288 0.777114 0.350367
O O10 0.575339 0.767709 0.447315
O O11 0.559863 0.000000 0.396186
O O12 0.130555 0.500000 0.201670
O O13 0.149403 0.761146 0.232767
O O14 0.087698 0.500000 0.000000
O O15 0.000000 0.635412 0.000000
O O16 0.621679 0.500000 0.061183
O O17 0.559050 0.302764 0.096120
O O18 0.576189 0.317375 0.000000
O O19 0.500000 0.268067 0.827278
O O20 0.554789 0.500000 0.834556
O O21 0.603887 0.268961 0.816204
O O22 0.848309 0.000000 0.279239
#
# Coordination Sequence:
#
# PCOD8290252 Si02
#       8
#    16  16  16  16   8  16  16  16
#     4  10  20  36  54  74 101 133 172 214 255 302
#     4  10  20  33  52  78 106 137 171 205 252 314
#     4   8  14  27  47  72 104 134 158 194 246 300
#     4  10  21  34  51  79 104 126 168 216 254 296
#     4   7  10  20  42  68  95 129 159 181 224 292
#     4   9  16  29  51  75 101 134 171 214 261 303
#     4   9  17  30  49  74 102 132 172 218 257 300
#     4  10  20  35  52  69  97 138 175 210 258 306
#
# _framework density 18.273622
#
# number of rings (size 3 to 8) (size 9 to 14) (size 15 to 20)
#    0.000    2.733    1.333    1.600    0.000    2.667 
#    1.200    1.333    0.000    1.200    0.000    1.867 
#    0.000    1.600    0.000    0.000    0.000    0.000 
#
# Total GULP energy -743446.938180 kJ/mol
# GULP energy per Si atom -12390.782303 kJ/mol
# Density = 1.823203 g / cm^3
# Si number density = 18.273622 Si / 1000 Ang^3
#
#
#
# Elastic Constant Matrix: (Units=GPa)
#
#
# Indices 1 2 3 4 5 6 
#
# 1 95.5753 22.9922 43.2831 0.0000 0.0000 0.0000
# 2 22.9922 50.0339 45.2795 0.0000 0.0000 0.0000
# 3 43.2831 45.2795 109.0375 0.0000 0.0000 0.0000
# 4 0.0000 0.0000 0.0000 26.8157 0.0000 0.0000
# 5 0.0000 0.0000 0.0000 0.0000 15.4246 0.0000
# 6 0.0000 0.0000 0.0000 0.0000 0.0000 6.6913
#
#
#
# Elastic Compliance Matrix: (Units=1/GPa)
#
#
# Indices 1 2 3 4 5 6 
#
# 1 0.012889 -0.002071 -0.004256 0.000000 0.000000 0.000000
# 2 -0.002071 0.032352 -0.012613 0.000000 0.000000 0.000000
# 3 -0.004256 -0.012613 0.016098 0.000000 0.000000 0.000000
# 4 0.000000 0.000000 0.000000 0.037292 0.000000 0.000000
# 5 0.000000 0.000000 0.000000 0.000000 0.064832 0.000000
# 6 0.000000 0.000000 0.000000 0.000000 0.000000 0.149448
#
#
# Mechanical properties :
#
#
# Convention : Reuss Voigt Hill
#
# Bulk Modulus (GPa) = 42.62666 53.08405 47.85535
# Shear Modulus (GPa) = 13.94272 19.32578 16.63425
#
# Velocity S-wave (km/s) = 2.76524 3.25557 3.02037
# Velocity P-wave (km/s) = 5.79421 6.57604 6.19747
#
# Compressibility (1/GPa) = 0.02345950
#
# Stress axis : x y z
#
# Youngs Moduli (GPa) = 77.58751 30.90960 62.11818
#
# Poissons Ratio (x) = 0.06401 0.26439
# Poissons Ratio (y) = 0.16068 0.78348
# Poissons Ratio (z) = 0.33023 0.38986
#
# Static dielectric constant tensor:
#      x y z
#    x 3.451570 0.000000 0.000000 
#    y 0.000000 3.074350 0.000000 
#    z 0.000000 0.000000 3.649430 
# 
# 
# High freq. dielectric constant tensor:
#      x y z
#    x 1.700160 0.000000 0.000000 
#    y 0.000000 1.662900 0.000000 
#    z 0.000000 0.000000 1.719840 
# 
# From -- ./inp_files/67180.got.cif
#   From: 2010.06.25/outbox.cif.g09.slc.cpg/sg71_34_cif.got.tgz:67180.got - 2010.06.28 04:59:45.
