data_PCOD8290257
_publ_section_title
;
Structure prediction by ZEFSAII (Michael W. Deem and Ramdas Pophale) SiO2 
 PCOD8290257
Probable space group: I M M M
;
_chemical_formula_sum "Si O2"
_cell_formula_units_Z 88
_cell_length_a 18.686085
_cell_length_b 9.384506
_cell_length_c 27.280633
_cell_angle_alpha 90.000000
_cell_angle_beta 90.000000
_cell_angle_gamma 90.000000
_cell_volume 4783.922986
_symmetry_space_group_name_H-M "I M M M"
_symmetry_group_IT_number 71
_symmetry_cell_setting 'orthorhombic'
loop_
_space_group_symop_operation_xyz
x,y,z
-x,-y,z
x,-y,-z
-x,y,-z
-x,-y,-z
x,y,-z
-x,y,z
x,-y,z
1/2+x,1/2+y,1/2+z
1/2-x,1/2-y,1/2+z
1/2+x,1/2-y,1/2-z
1/2-x,1/2+y,1/2-z
1/2-x,1/2-y,1/2-z
1/2+x,1/2+y,1/2-z
1/2-x,1/2+y,1/2+z
1/2+x,1/2-y,1/2+z
loop_
_atom_site_type_symbol
_atom_site_label
_atom_site_fract_x
_atom_site_fract_y
_atom_site_fract_z
Si Si1 0.833167 0.160861 0.087675
Si Si2 0.349297 0.331588 0.847785
Si Si3 0.581539 0.165046 0.234773
Si Si4 0.188248 0.665445 0.820780
Si Si5 0.328169 0.837743 0.943860
Si Si6 0.421586 0.670427 0.500000
O O1 0.847925 0.252294 0.135237
O O2 0.756053 0.169044 0.063214
O O3 0.885426 0.230950 0.048410
O O4 0.853008 0.000000 0.101754
O O5 0.361174 0.500000 0.851582
O O6 0.409211 0.260724 0.813600
O O7 0.272756 0.294726 0.821901
O O8 0.360660 0.266801 0.902452
O O9 0.500000 0.188876 0.254696
O O10 0.643784 0.212914 0.272807
O O11 0.593008 0.000000 0.220763
O O12 0.177775 0.500000 0.830049
O O13 0.355581 0.000000 0.935559
O O14 0.347104 0.789260 0.000000
O O15 0.415586 0.500000 0.500000
O O16 0.500000 0.731528 0.500000
#
# Coordination Sequence:
#
# PCOD8290257 Si02
#       6
#    16  16  16  16  16   8
#     4   9  16  28  46  69  96 128 169 211 248 290
#     4  10  20  33  52  79 107 133 165 211 261 304
#     4  10  21  37  55  73  99 137 175 210 252 306
#     4   9  19  34  51  74 102 132 168 211 257 300
#     4   9  16  29  51  75 100 131 168 207 247 297
#     4   9  16  26  41  63  95 133 170 209 250 291
#
# _framework density 18.394946000000001
#
# number of rings (size 3 to 8) (size 9 to 14) (size 15 to 20)
#    0.000    2.636    0.909    1.091    0.000    2.909 
#    0.000    0.455    0.000    1.091    0.000    3.818 
#    0.000    0.000    0.000    0.000    0.000    0.000 
#
# Total GULP energy -545234.941122 kJ/mol
# GULP energy per Si atom -12391.703207 kJ/mol
# Density = 1.835308 g / cm^3
# Si number density = 18.394946 Si / 1000 Ang^3
#
#
#
# Elastic Constant Matrix: (Units=GPa)
#
#
# Indices 1 2 3 4 5 6 
#
# 1 40.1880 21.2693 30.8090 0.0000 0.0000 0.0000
# 2 21.2693 49.8508 52.4170 0.0000 0.0000 0.0000
# 3 30.8090 52.4170 127.7648 0.0000 0.0000 0.0000
# 4 0.0000 0.0000 0.0000 33.8862 0.0000 0.0000
# 5 0.0000 0.0000 0.0000 0.0000 8.6492 0.0000
# 6 0.0000 0.0000 0.0000 0.0000 0.0000 17.1209
#
#
#
# Elastic Compliance Matrix: (Units=1/GPa)
#
#
# Indices 1 2 3 4 5 6 
#
# 1 0.033188 -0.010103 -0.003858 0.000000 0.000000 0.000000
# 2 -0.010103 0.038354 -0.013299 0.000000 0.000000 0.000000
# 3 -0.003858 -0.013299 0.014213 0.000000 0.000000 0.000000
# 4 0.000000 0.000000 0.000000 0.029511 0.000000 0.000000
# 5 0.000000 0.000000 0.000000 0.000000 0.115617 0.000000
# 6 0.000000 0.000000 0.000000 0.000000 0.000000 0.058408
#
#
# Mechanical properties :
#
#
# Convention : Reuss Voigt Hill
#
# Bulk Modulus (GPa) = 32.01572 47.42158 39.71865
# Shear Modulus (GPa) = 14.11542 19.48516 16.80029
#
# Velocity S-wave (km/s) = 2.77312 3.25817 3.02538
# Velocity P-wave (km/s) = 5.26270 6.32375 5.81747
#
# Compressibility (1/GPa) = 0.03123465
#
# Stress axis : x y z
#
# Youngs Moduli (GPa) = 30.13167 26.07293 70.35750
#
# Poissons Ratio (x) = 0.26343 0.27142
# Poissons Ratio (y) = 0.30444 0.93567
# Poissons Ratio (z) = 0.11624 0.34674
#
# Static dielectric constant tensor:
#      x y z
#    x 3.212860 0.000000 0.000000 
#    y 0.000000 3.279970 0.000000 
#    z 0.000000 0.000000 3.472330 
# 
# 
# High freq. dielectric constant tensor:
#      x y z
#    x 1.689780 0.000000 0.000000 
#    y 0.000000 1.699680 0.000000 
#    z 0.000000 0.000000 1.719340 
# 
# From -- ./inp_files/57560.got.cif
#   From: 2010.06.25/outbox.cif.g09.slc.cpg/sg71_29_cif.got.tgz:57560.got - 2010.06.28 04:59:45.
