data_PCOD8290883
_publ_section_title
;
Structure prediction by ZEFSAII (Michael W. Deem and Ramdas Pophale) SiO2 
 PCOD8290883
Probable space group: I M M M
;
_chemical_formula_sum "Si O2"
_cell_formula_units_Z 88
_cell_length_a 12.731591
_cell_length_b 28.939293
_cell_length_c 13.550935
_cell_angle_alpha 90.000000
_cell_angle_beta 90.000000
_cell_angle_gamma 90.000000
_cell_volume 4992.750428
_symmetry_space_group_name_H-M "I M M M"
_symmetry_group_IT_number 71
_symmetry_cell_setting 'orthorhombic'
loop_
_space_group_symop_operation_xyz
x,y,z
-x,-y,z
x,-y,-z
-x,y,-z
-x,-y,-z
x,y,-z
-x,y,z
x,-y,z
1/2+x,1/2+y,1/2+z
1/2-x,1/2-y,1/2+z
1/2+x,1/2-y,1/2-z
1/2-x,1/2+y,1/2-z
1/2-x,1/2-y,1/2-z
1/2+x,1/2+y,1/2-z
1/2-x,1/2+y,1/2+z
1/2+x,1/2-y,1/2+z
loop_
_atom_site_type_symbol
_atom_site_label
_atom_site_fract_x
_atom_site_fract_y
_atom_site_fract_z
Si Si1 0.500000 0.445059 0.889656
Si Si2 0.376274 0.615045 0.387475
Si Si3 0.795531 0.945269 0.726469
Si Si4 0.206534 0.709132 0.115040
Si Si5 0.879133 0.608198 0.886292
Si Si6 0.619541 0.706827 0.273691
O O1 0.500000 0.500000 0.890014
O O2 0.604693 0.426706 0.836358
O O3 0.500000 0.424894 0.000000
O O4 0.339079 0.617751 0.500000
O O5 0.500000 0.605552 0.379893
O O6 0.312379 0.573166 0.337203
O O7 0.342777 0.662322 0.334594
O O8 0.689165 0.925858 0.680338
O O9 0.788529 0.000000 0.728346
O O10 0.148373 0.661139 0.135304
O O11 0.316073 0.711317 0.172884
O O12 0.131033 0.749176 0.155125
O O13 0.229806 0.716840 0.000000
O O14 0.000000 0.599730 0.858549
O O15 0.857255 0.595832 0.000000
O O16 0.500000 0.701814 0.240587
#
# Coordination Sequence:
#
# PCOD8290883 Si02
#       6
#     8  16  16  16  16  16
#     4   9  18  32  51  75 107 143 174 220 289 347
#     4  10  20  35  56  82 112 145 183 228 280 335
#     4  11  21  35  53  79 111 143 188 237 281 329
#     4  10  20  35  57  84 114 148 183 222 271 327
#     4  10  21  37  57  82 112 147 187 227 273 332
#     4  10  20  35  56  84 116 146 180 224 274 328
#
# _framework density 17.625554999999999
#
# number of rings (size 3 to 8) (size 9 to 14) (size 15 to 20)
#    0.000    1.909    2.727    1.636    0.000    4.000 
#    0.000    1.818    0.000    0.545    0.000    1.273 
#    0.000    0.000    0.000    0.000    0.000    0.000 
#
# Total GULP energy -545755.517151 kJ/mol
# GULP energy per Si atom -12403.534481 kJ/mol
# Density = 1.758544 g / cm^3
# Si number density = 17.625555 Si / 1000 Ang^3
#
#
#
# Elastic Constant Matrix: (Units=GPa)
#
#
# Indices 1 2 3 4 5 6 
#
# 1 85.7517 31.7488 40.1194 0.0005 0.0001 0.0000
# 2 31.7488 86.1975 31.2993 0.0000 0.0008 -0.0001
# 3 40.1194 31.2993 82.4398 0.0018 -0.0001 -0.0004
# 4 0.0005 0.0000 0.0018 23.9123 -0.0001 -0.0001
# 5 0.0001 0.0008 -0.0001 -0.0001 22.1105 0.0003
# 6 0.0000 -0.0001 -0.0004 -0.0001 0.0003 24.2075
#
#
#
# Elastic Compliance Matrix: (Units=1/GPa)
#
#
# Indices 1 2 3 4 5 6 
#
# 1 0.015986 -0.003553 -0.006430 0.000000 0.000000 0.000000
# 2 -0.003553 0.014246 -0.003680 0.000000 -0.000001 0.000000
# 3 -0.006430 -0.003680 0.016656 -0.000001 0.000000 0.000000
# 4 0.000000 0.000000 -0.000001 0.041820 0.000000 0.000000
# 5 0.000000 -0.000001 0.000000 0.000000 0.045227 -0.000001
# 6 0.000000 0.000000 0.000000 0.000000 -0.000001 0.041310
#
#
# Mechanical properties :
#
#
# Convention : Reuss Voigt Hill
#
# Bulk Modulus (GPa) = 51.11958 51.19155 51.15556
# Shear Modulus (GPa) = 23.91301 24.12748 24.02024
#
# Velocity S-wave (km/s) = 3.68737 3.70387 3.69563
# Velocity P-wave (km/s) = 6.86986 6.88466 6.87726
#
# Compressibility (1/GPa) = 0.01956198
#
# Stress axis : x y z
#
# Youngs Moduli (GPa) = 62.55649 70.19505 60.03672
#
# Poissons Ratio (x) = 0.24940 0.38606
# Poissons Ratio (y) = 0.22226 0.22091
# Poissons Ratio (z) = 0.40227 0.25829
#
# Static dielectric constant tensor:
#      x y z
#    x 3.183140 0.000000 0.000000 
#    y 0.000000 3.261230 0.000000 
#    z 0.000000 0.000000 3.310340 
# 
# 
# High freq. dielectric constant tensor:
#      x y z
#    x 1.672410 0.000000 0.000000 
#    y 0.000000 1.686390 0.000000 
#    z 0.000000 0.000000 1.680960 
# 
# From -- ./inp_files/20263.got.cif
#   From: 2010.06.25/outbox.cif.g09.slc.cpg/sg71_11_cif.got.tgz:20263.got - 2010.06.28 04:59:45.
