data_PCOD8290443
_publ_section_title
;
Structure prediction by ZEFSAII (Michael W. Deem and Ramdas Pophale) SiO2 
 PCOD8290443
Probable space group: I M M M
;
_chemical_formula_sum "Si O2"
_cell_formula_units_Z 72
_cell_length_a 30.296953
_cell_length_b 14.995130
_cell_length_c 7.895006
_cell_angle_alpha 90.000000
_cell_angle_beta 90.000000
_cell_angle_gamma 90.000000
_cell_volume 3586.754508
_symmetry_space_group_name_H-M "I M M M"
_symmetry_group_IT_number 71
_symmetry_cell_setting 'orthorhombic'
loop_
_space_group_symop_operation_xyz
x,y,z
-x,-y,z
x,-y,-z
-x,y,-z
-x,-y,-z
x,y,-z
-x,y,z
x,-y,z
1/2+x,1/2+y,1/2+z
1/2-x,1/2-y,1/2+z
1/2+x,1/2-y,1/2-z
1/2-x,1/2+y,1/2-z
1/2-x,1/2-y,1/2-z
1/2+x,1/2+y,1/2-z
1/2-x,1/2+y,1/2+z
1/2+x,1/2-y,1/2+z
loop_
_atom_site_type_symbol
_atom_site_label
_atom_site_fract_x
_atom_site_fract_y
_atom_site_fract_z
Si Si1 0.728334 0.500000 0.693262
Si Si2 0.052107 0.902343 0.000000
Si Si3 0.949711 0.217724 0.690182
Si Si4 0.792211 0.192684 0.200221
Si Si5 0.673707 0.000000 0.698930
Si Si6 0.129442 0.317114 0.799979
O O1 0.713030 0.500000 0.500000
O O2 0.710202 0.408040 0.779048
O O3 0.781031 0.500000 0.700008
O O4 0.067581 0.853707 0.171805
O O5 0.000000 0.911062 0.000000
O O6 0.074253 0.000000 0.000000
O O7 0.946806 0.177586 0.500000
O O8 0.917587 0.302604 0.708109
O O9 0.000000 0.247421 0.730248
O O10 0.750000 0.250000 0.250000
O O11 0.835980 0.242513 0.266484
O O12 0.793148 0.186064 0.000000
O O13 0.645936 0.085873 0.754198
O O14 0.684590 0.000000 0.500000
O O15 0.122909 0.310653 0.000000
#
# Coordination Sequence:
#
# PCOD8290443 Si02
#       6
#     8   8  16  16   8  16
#     4  10  20  34  52  81 114 149 188 234 292 349
#     4   9  18  36  62  87 115 155 193 238 300 351
#     4  10  21  38  61  88 119 156 201 248 296 355
#     4  10  20  34  54  79 111 148 189 235 287 348
#     4  10  20  34  57  83 112 148 200 243 290 359
#     4  10  20  36  56  83 114 156 199 247 300 356
#
# _framework density 20.073858999999999
#
# number of rings (size 3 to 8) (size 9 to 14) (size 15 to 20)
#    0.000    2.111    3.333    0.000    0.000    2.222 
#    2.000    2.778    0.000    3.333    0.000    0.000 
#    0.000    0.000    0.000    0.000    0.000    0.000 
#
# Total GULP energy -446258.135758 kJ/mol
# GULP energy per Si atom -12396.059327 kJ/mol
# Density = 2.002817 g / cm^3
# Si number density = 20.073859 Si / 1000 Ang^3
#
#
#
# Elastic Constant Matrix: (Units=GPa)
#
#
# Indices 1 2 3 4 5 6 
#
# 1 110.1893 69.1688 23.4605 0.0000 0.0000 0.0000
# 2 69.1688 183.0130 33.8084 0.0000 0.0000 0.0000
# 3 23.4605 33.8084 65.8289 0.0000 0.0000 0.0000
# 4 0.0000 0.0000 0.0000 15.9161 0.0000 0.0000
# 5 0.0000 0.0000 0.0000 0.0000 25.9850 0.0000
# 6 0.0000 0.0000 0.0000 0.0000 0.0000 25.0833
#
#
#
# Elastic Compliance Matrix: (Units=1/GPa)
#
#
# Indices 1 2 3 4 5 6 
#
# 1 0.012176 -0.004198 -0.002183 0.000000 0.000000 0.000000
# 2 -0.004198 0.007485 -0.002348 0.000000 0.000000 0.000000
# 3 -0.002183 -0.002348 0.017175 0.000000 0.000000 0.000000
# 4 0.000000 0.000000 0.000000 0.062830 0.000000 0.000000
# 5 0.000000 0.000000 0.000000 0.000000 0.038484 0.000000
# 6 0.000000 0.000000 0.000000 0.000000 0.000000 0.039867
#
#
# Mechanical properties :
#
#
# Convention : Reuss Voigt Hill
#
# Bulk Modulus (GPa) = 51.60867 67.98961 59.79914
# Shear Modulus (GPa) = 24.76082 28.90312 26.83197
#
# Velocity S-wave (km/s) = 3.51591 3.79864 3.66001
# Velocity P-wave (km/s) = 6.49980 7.29265 6.90761
#
# Compressibility (1/GPa) = 0.01937659
#
# Stress axis : x y z
#
# Youngs Moduli (GPa) = 82.13200 133.60856 58.22557
#
# Poissons Ratio (x) = 0.56094 0.12710
# Poissons Ratio (y) = 0.34482 0.13669
# Poissons Ratio (z) = 0.17929 0.31367
#
# Static dielectric constant tensor:
#      x y z
#    x 3.612560 0.000000 0.000000 
#    y 0.000000 4.028220 0.000000 
#    z 0.000000 0.000000 3.540580 
# 
# 
# High freq. dielectric constant tensor:
#      x y z
#    x 1.776250 0.000000 0.000000 
#    y 0.000000 1.780200 0.000000 
#    z 0.000000 0.000000 1.773420 
# 
# From -- ./inp_files/6155.got.cif
#   From: 2010.06.25/outbox.cif.g09.slc.cpg/sg71_4_cif.got.tgz:6155.got - 2010.06.28 04:59:45.
