data_PCOD8290393
_publ_section_title
;
Structure prediction by ZEFSAII (Michael W. Deem and Ramdas Pophale) SiO2 
 PCOD8290393
Probable space group: I M M M
;
_chemical_formula_sum "Si O2"
_cell_formula_units_Z 120
_cell_length_a 8.756539
_cell_length_b 27.929697
_cell_length_c 26.926439
_cell_angle_alpha 90.000000
_cell_angle_beta 90.000000
_cell_angle_gamma 90.000000
_cell_volume 6585.331360
_symmetry_space_group_name_H-M "I M M M"
_symmetry_group_IT_number 71
_symmetry_cell_setting 'orthorhombic'
loop_
_space_group_symop_operation_xyz
x,y,z
-x,-y,z
x,-y,-z
-x,y,-z
-x,-y,-z
x,y,-z
-x,y,z
x,-y,z
1/2+x,1/2+y,1/2+z
1/2-x,1/2-y,1/2+z
1/2+x,1/2-y,1/2-z
1/2-x,1/2+y,1/2-z
1/2-x,1/2-y,1/2-z
1/2+x,1/2+y,1/2-z
1/2-x,1/2+y,1/2+z
1/2+x,1/2-y,1/2+z
loop_
_atom_site_type_symbol
_atom_site_label
_atom_site_fract_x
_atom_site_fract_y
_atom_site_fract_z
Si Si1 0.177838 0.857358 0.943614
Si Si2 0.825487 0.946559 0.880373
Si Si3 0.176949 0.696641 0.642460
Si Si4 0.822204 0.555296 0.000000
Si Si5 0.819155 0.556250 0.108209
Si Si6 0.823517 0.603956 0.293667
Si Si7 0.179274 0.275004 0.797974
Si Si8 0.179351 0.121155 0.693160
O O1 0.213651 0.911208 0.925571
O O2 0.276802 0.820051 0.912319
O O3 0.000000 0.845054 0.937318
O O4 0.232069 0.853074 0.000000
O O5 0.718847 0.936782 0.833119
O O6 0.000000 0.939506 0.863105
O O7 0.794323 0.000000 0.899857
O O8 0.213981 0.655753 0.682929
O O9 0.277656 0.743012 0.654559
O O10 0.000000 0.710498 0.643179
O O11 0.760700 0.574958 0.053260
O O12 0.784078 0.500000 0.000000
O O13 0.000000 0.564692 0.000000
O O14 0.780486 0.500000 0.115490
O O15 0.730860 0.587563 0.148241
O O16 0.000000 0.564277 0.113918
O O17 0.723632 0.595519 0.244663
O O18 0.000000 0.599404 0.279358
O O19 0.250000 0.250000 0.750000
O O20 0.239167 0.327798 0.808574
O O21 0.000000 0.277915 0.789881
O O22 0.000000 0.129110 0.690267
#
# Coordination Sequence:
#
# PCOD8290393 Si02
#       8
#    16  16  16   8  16  16  16  16
#     4   9  18  33  54  79 107 142 186 233 282 338
#     4   9  18  32  50  74 106 143 184 231 282 334
#     4  10  20  35  56  80 106 138 179 226 277 331
#     4   7  12  28  57  85 105 135 179 221 263 315
#     4   9  18  35  59  85 113 146 185 227 270 320
#     4  10  20  34  52  73 102 140 181 224 271 330
#     4  12  23  37  59  85 112 143 180 223 271 327
#     4  12  24  36  54  82 116 149 183 225 270 323
#
# _framework density 18.222318000000001
#
# number of rings (size 3 to 8) (size 9 to 14) (size 15 to 20)
#    0.000    2.067    1.333    4.000    0.000    2.667 
#    0.000    1.667    1.467    1.200    0.000    3.733 
#    0.000    0.000    0.000    0.000    0.000    0.000 
#
# Total GULP energy -743870.466762 kJ/mol
# GULP energy per Si atom -12397.841113 kJ/mol
# Density = 1.818084 g / cm^3
# Si number density = 18.222318 Si / 1000 Ang^3
#
#
#
# Elastic Constant Matrix: (Units=GPa)
#
#
# Indices 1 2 3 4 5 6 
#
# 1 98.0350 40.0306 52.6901 0.0000 0.0000 0.0000
# 2 40.0306 79.6085 45.8355 0.0000 0.0000 0.0000
# 3 52.6901 45.8355 140.6353 0.0000 0.0000 0.0000
# 4 0.0000 0.0000 0.0000 18.5549 0.0000 0.0000
# 5 0.0000 0.0000 0.0000 0.0000 28.6162 0.0000
# 6 0.0000 0.0000 0.0000 0.0000 0.0000 26.0595
#
#
#
# Elastic Compliance Matrix: (Units=1/GPa)
#
#
# Indices 1 2 3 4 5 6 
#
# 1 0.014242 -0.005034 -0.003695 0.000000 0.000000 0.000000
# 2 -0.005034 0.017242 -0.003734 0.000000 0.000000 0.000000
# 3 -0.003695 -0.003734 0.009712 0.000000 0.000000 0.000000
# 4 0.000000 0.000000 0.000000 0.053894 0.000000 0.000000
# 5 0.000000 0.000000 0.000000 0.000000 0.034945 0.000000
# 6 0.000000 0.000000 0.000000 0.000000 0.000000 0.038374
#
#
# Mechanical properties :
#
#
# Convention : Reuss Voigt Hill
#
# Bulk Modulus (GPa) = 61.45992 66.15460 63.80726
# Shear Modulus (GPa) = 25.15616 26.62761 25.89189
#
# Velocity S-wave (km/s) = 3.71956 3.82680 3.77356
# Velocity P-wave (km/s) = 7.22827 7.47722 7.35380
#
# Compressibility (1/GPa) = 0.01627077
#
# Stress axis : x y z
#
# Youngs Moduli (GPa) = 70.21487 57.99653 102.96658
#
# Poissons Ratio (x) = 0.29195 0.38049
# Poissons Ratio (y) = 0.35346 0.38444
# Poissons Ratio (z) = 0.25946 0.21654
#
# Static dielectric constant tensor:
#      x y z
#    x 3.350640 0.000000 0.000000 
#    y 0.000000 3.340720 0.000000 
#    z 0.000000 0.000000 3.518910 
# 
# 
# High freq. dielectric constant tensor:
#      x y z
#    x 1.703190 0.000000 0.000000 
#    y 0.000000 1.691350 0.000000 
#    z 0.000000 0.000000 1.708340 
# 
# From -- ./inp_files/63799.got.cif
#   From: 2010.06.25/outbox.cif.g09.slc.cpg/sg71_32_cif.got.tgz:63799.got - 2010.06.28 04:59:45.
