data_PCOD8290771
_publ_section_title
;
Structure prediction by ZEFSAII (Michael W. Deem and Ramdas Pophale) SiO2 
 PCOD8290771
Probable space group: I M M M
;
_chemical_formula_sum "Si O2"
_cell_formula_units_Z 72
_cell_length_a 12.847039
_cell_length_b 16.504121
_cell_length_c 20.455743
_cell_angle_alpha 90.000000
_cell_angle_beta 90.000000
_cell_angle_gamma 90.000000
_cell_volume 4337.212495
_symmetry_space_group_name_H-M "I M M M"
_symmetry_group_IT_number 71
_symmetry_cell_setting 'orthorhombic'
loop_
_space_group_symop_operation_xyz
x,y,z
-x,-y,z
x,-y,-z
-x,y,-z
-x,-y,-z
x,y,-z
-x,y,z
x,-y,z
1/2+x,1/2+y,1/2+z
1/2-x,1/2-y,1/2+z
1/2+x,1/2-y,1/2-z
1/2-x,1/2+y,1/2-z
1/2-x,1/2-y,1/2-z
1/2+x,1/2+y,1/2-z
1/2-x,1/2+y,1/2+z
1/2+x,1/2-y,1/2+z
loop_
_atom_site_type_symbol
_atom_site_label
_atom_site_fract_x
_atom_site_fract_y
_atom_site_fract_z
Si Si1 0.121263 0.191119 0.375728
Si Si2 0.377785 0.000000 0.925237
Si Si3 0.380468 0.406240 0.744054
Si Si4 0.749325 0.854671 0.122062
Si Si5 0.121330 0.903898 0.000000
Si Si6 0.876943 0.089745 0.500000
O O1 0.141151 0.139787 0.311047
O O2 0.193182 0.269179 0.375843
O O3 0.160177 0.137020 0.435949
O O4 0.000000 0.215913 0.382914
O O5 0.339282 0.078475 0.887046
O O6 0.500000 0.000000 0.924346
O O7 0.335845 0.000000 0.000000
O O8 0.500000 0.396880 0.721993
O O9 0.351752 0.500000 0.754031
O O10 0.308346 0.366795 0.689702
O O11 0.831602 0.861197 0.063597
O O12 0.000000 0.885971 0.000000
O O13 0.143935 0.000000 0.000000
O O14 0.000000 0.081618 0.500000
O O15 0.826690 0.000000 0.500000
#
# Coordination Sequence:
#
# PCOD8290771 Si02
#       6
#    16   8  16  16   8   8
#     4  10  21  33  51  78 106 135 169 217 263 313
#     4  11  22  34  50  74 108 145 174 205 251 316
#     4  10  20  35  54  75 103 137 175 217 266 310
#     4  12  19  35  50  77 104 140 174 212 255 312
#     4  11  21  34  52  76 102 134 177 214 252 303
#     4   9  17  32  52  73 101 131 164 206 260 309
#
# _framework density 16.600524
#
# number of rings (size 3 to 8) (size 9 to 14) (size 15 to 20)
#    0.000    1.444    3.333    3.333    0.000    4.444 
#    0.000    0.000    0.000    0.000    0.000    0.000 
#    0.000    6.222    0.000    0.000    0.000    0.000 
#
# Total GULP energy -446474.986540 kJ/mol
# GULP energy per Si atom -12402.082959 kJ/mol
# Density = 1.656274 g / cm^3
# Si number density = 16.600524 Si / 1000 Ang^3
#
#
#
# Elastic Constant Matrix: (Units=GPa)
#
#
# Indices 1 2 3 4 5 6 
#
# 1 88.5776 66.4696 61.1832 0.0000 0.0000 0.0000
# 2 66.4696 158.8749 75.8934 0.0000 0.0000 0.0000
# 3 61.1832 75.8934 143.9190 0.0000 0.0000 0.0000
# 4 0.0000 0.0000 0.0000 17.0566 0.0000 0.0000
# 5 0.0000 0.0000 0.0000 0.0000 86.2775 0.0000
# 6 0.0000 0.0000 0.0000 0.0000 0.0000 34.8877
#
#
#
# Elastic Compliance Matrix: (Units=1/GPa)
#
#
# Indices 1 2 3 4 5 6 
#
# 1 0.018967 -0.005459 -0.005185 0.000000 0.000000 0.000000
# 2 -0.005459 0.009985 -0.002945 0.000000 0.000000 0.000000
# 3 -0.005185 -0.002945 0.010705 0.000000 0.000000 0.000000
# 4 0.000000 0.000000 0.000000 0.058628 0.000000 0.000000
# 5 0.000000 0.000000 0.000000 0.000000 0.011591 0.000000
# 6 0.000000 0.000000 0.000000 0.000000 0.000000 0.028663
#
#
# Mechanical properties :
#
#
# Convention : Reuss Voigt Hill
#
# Bulk Modulus (GPa) = 80.12261 88.71821 84.42041
# Shear Modulus (GPa) = 29.43326 40.16605 34.79965
#
# Velocity S-wave (km/s) = 4.21531 4.92424 4.58350
# Velocity P-wave (km/s) = 8.48891 9.26768 8.88683
#
# Compressibility (1/GPa) = 0.01248087
#
# Stress axis : x y z
#
# Youngs Moduli (GPa) = 52.72302 100.15341 93.41127
#
# Poissons Ratio (x) = 0.54670 0.48432
# Poissons Ratio (y) = 0.28780 0.27507
# Poissons Ratio (z) = 0.27336 0.29492
#
# Static dielectric constant tensor:
#      x y z
#    x 3.029680 0.000000 0.000000 
#    y 0.000000 3.198170 0.000000 
#    z 0.000000 0.000000 3.258320 
# 
# 
# High freq. dielectric constant tensor:
#      x y z
#    x 1.628280 0.000000 0.000000 
#    y 0.000000 1.644420 0.000000 
#    z 0.000000 0.000000 1.653480 
# 
# From -- ./inp_files/34127.got.cif
#   From: 2010.06.25/outbox.cif.g09.slc.cpg/sg71_18_cif.got.tgz:34127.got - 2010.06.28 04:59:45.
