data_PCOD8290730
_publ_section_title
;
Structure prediction by ZEFSAII (Michael W. Deem and Ramdas Pophale) SiO2 
 PCOD8290730
Probable space group: I M M M
;
_chemical_formula_sum "Si O2"
_cell_formula_units_Z 104
_cell_length_a 17.784266
_cell_length_b 16.507197
_cell_length_c 18.491949
_cell_angle_alpha 90.000000
_cell_angle_beta 90.000000
_cell_angle_gamma 90.000000
_cell_volume 5428.651555
_symmetry_space_group_name_H-M "I M M M"
_symmetry_group_IT_number 71
_symmetry_cell_setting 'orthorhombic'
loop_
_space_group_symop_operation_xyz
x,y,z
-x,-y,z
x,-y,-z
-x,y,-z
-x,-y,-z
x,y,-z
-x,y,z
x,-y,z
1/2+x,1/2+y,1/2+z
1/2-x,1/2-y,1/2+z
1/2+x,1/2-y,1/2-z
1/2-x,1/2+y,1/2-z
1/2-x,1/2-y,1/2-z
1/2+x,1/2+y,1/2-z
1/2-x,1/2+y,1/2+z
1/2+x,1/2-y,1/2+z
loop_
_atom_site_type_symbol
_atom_site_label
_atom_site_fract_x
_atom_site_fract_y
_atom_site_fract_z
Si Si1 0.000000 0.593638 0.685757
Si Si2 0.000000 0.730524 0.813309
Si Si3 0.836315 0.090154 0.707300
Si Si4 0.873815 0.237972 0.919906
Si Si5 0.292887 0.302037 0.079669
Si Si6 0.800920 0.091524 0.863391
Si Si7 0.861292 0.633980 0.416535
Si Si8 0.000000 0.909096 0.749614
O O1 0.073177 0.603562 0.635844
O O2 0.000000 0.500000 0.716427
O O3 0.000000 0.663803 0.748342
O O4 0.926278 0.716389 0.862136
O O5 0.000000 0.826934 0.796712
O O6 0.801572 0.130134 0.638044
O O7 0.804835 0.128885 0.781888
O O8 0.926315 0.095647 0.700191
O O9 0.805506 0.000000 0.704723
O O10 0.790592 0.270715 0.911204
O O11 0.863003 0.141326 0.908808
O O12 0.906872 0.253277 0.000000
O O13 0.352771 0.230320 0.092641
O O14 0.305324 0.339143 0.000000
O O15 0.717076 0.092277 0.894959
O O16 0.831346 0.000000 0.862507
O O17 0.879928 0.611454 0.500000
O O18 0.000000 0.000000 0.788859
#
# Coordination Sequence:
#
# PCOD8290730 Si02
#       8
#     8   8  16  16  16  16  16   8
#     4  12  27  41  59  87 117 158 205 243 293 351
#     4  12  23  39  62  84 120 157 196 249 286 345
#     4  10  20  34  57  84 119 157 194 239 287 343
#     4  10  22  38  59  85 114 152 192 241 298 350
#     4   9  20  38  58  84 115 150 197 244 294 351
#     4  10  20  34  58  90 118 150 189 234 289 355
#     4  10  22  39  60  85 118 155 191 240 297 350
#     4  10  20  37  57  89 123 154 187 228 291 351
#
# _framework density 19.157612
#
# number of rings (size 3 to 8) (size 9 to 14) (size 15 to 20)
#    0.000    1.846    1.538    3.231    2.154    4.000 
#    0.000    1.154    0.000    4.615    0.000    0.000 
#    0.000    0.000    0.000    0.000    0.000    0.000 
#
# Total GULP energy -644306.256833 kJ/mol
# GULP energy per Si atom -12390.504939 kJ/mol
# Density = 1.911401 g / cm^3
# Si number density = 19.157612 Si / 1000 Ang^3
#
#
#
# Elastic Constant Matrix: (Units=GPa)
#
#
# Indices 1 2 3 4 5 6 
#
# 1 65.2441 25.5845 40.3859 0.0000 0.0000 0.0000
# 2 25.5845 76.5976 59.1965 0.0000 0.0000 0.0000
# 3 40.3859 59.1965 123.3592 0.0000 0.0000 0.0000
# 4 0.0000 0.0000 0.0000 24.8894 0.0000 0.0000
# 5 0.0000 0.0000 0.0000 0.0000 13.6703 0.0000
# 6 0.0000 0.0000 0.0000 0.0000 0.0000 8.2745
#
#
#
# Elastic Compliance Matrix: (Units=1/GPa)
#
#
# Indices 1 2 3 4 5 6 
#
# 1 0.019522 -0.002513 -0.005185 0.000000 0.000000 0.000000
# 2 -0.002513 0.021074 -0.009290 0.000000 0.000000 0.000000
# 3 -0.005185 -0.009290 0.014262 0.000000 0.000000 0.000000
# 4 0.000000 0.000000 0.000000 0.040178 0.000000 0.000000
# 5 0.000000 0.000000 0.000000 0.000000 0.073151 0.000000
# 6 0.000000 0.000000 0.000000 0.000000 0.000000 0.120853
#
#
# Mechanical properties :
#
#
# Convention : Reuss Voigt Hill
#
# Bulk Modulus (GPa) = 47.89000 57.28165 52.58582
# Shear Modulus (GPa) = 15.15248 18.70244 16.92746
#
# Velocity S-wave (km/s) = 2.81541 3.12787 2.97575
# Velocity P-wave (km/s) = 5.96832 6.55819 6.27020
#
# Compressibility (1/GPa) = 0.02088119
#
# Stress axis : x y z
#
# Youngs Moduli (GPa) = 51.22360 47.45094 70.11635
#
# Poissons Ratio (x) = 0.11927 0.36356
# Poissons Ratio (y) = 0.12875 0.65139
# Poissons Ratio (z) = 0.26560 0.44083
#
# Static dielectric constant tensor:
#      x y z
#    x 3.553640 0.000000 0.000000 
#    y 0.000000 3.579080 0.000000 
#    z 0.000000 0.000000 3.592820 
# 
# 
# High freq. dielectric constant tensor:
#      x y z
#    x 1.748140 0.000000 0.000000 
#    y 0.000000 1.735030 0.000000 
#    z 0.000000 0.000000 1.743870 
# 
# From -- ./inp_files/46192.got.cif
#   From: 2010.06.25/outbox.cif.g09.slc.cpg/sg71_24_cif.got.tgz:46192.got - 2010.06.28 04:59:45.
