data_PCOD8290461
_publ_section_title
;
Structure prediction by ZEFSAII (Michael W. Deem and Ramdas Pophale) SiO2 
 PCOD8290461
Probable space group: I M M M
;
_chemical_formula_sum "Si O2"
_cell_formula_units_Z 104
_cell_length_a 17.564054
_cell_length_b 13.575441
_cell_length_c 23.363222
_cell_angle_alpha 90.000000
_cell_angle_beta 90.000000
_cell_angle_gamma 90.000000
_cell_volume 5570.721486
_symmetry_space_group_name_H-M "I M M M"
_symmetry_group_IT_number 71
_symmetry_cell_setting 'orthorhombic'
loop_
_space_group_symop_operation_xyz
x,y,z
-x,-y,z
x,-y,-z
-x,y,-z
-x,-y,-z
x,y,-z
-x,y,z
x,-y,z
1/2+x,1/2+y,1/2+z
1/2-x,1/2-y,1/2+z
1/2+x,1/2-y,1/2-z
1/2-x,1/2+y,1/2-z
1/2-x,1/2-y,1/2-z
1/2+x,1/2+y,1/2-z
1/2-x,1/2+y,1/2+z
1/2+x,1/2-y,1/2+z
loop_
_atom_site_type_symbol
_atom_site_label
_atom_site_fract_x
_atom_site_fract_y
_atom_site_fract_z
Si Si1 0.311952 0.388400 0.328705
Si Si2 0.085542 0.265330 0.774151
Si Si3 0.500000 0.609679 0.932510
Si Si4 0.134853 0.611732 0.330165
Si Si5 0.912383 0.613102 0.884785
Si Si6 0.869036 0.743974 0.565792
Si Si7 0.303820 0.739640 0.436345
O O1 0.342033 0.500000 0.327751
O O2 0.357391 0.326752 0.280723
O O3 0.223366 0.383251 0.313836
O O4 0.327286 0.345468 0.392018
O O5 0.091257 0.316123 0.712616
O O6 0.105226 0.347194 0.821456
O O7 0.000000 0.225123 0.782076
O O8 0.500000 0.500000 0.904575
O O9 0.424200 0.668169 0.913119
O O10 0.500000 0.598464 0.000000
O O11 0.104378 0.500000 0.325061
O O12 0.118093 0.647913 0.394795
O O13 0.889096 0.500000 0.885608
O O14 0.860214 0.668203 0.930788
O O15 0.000000 0.629112 0.902058
O O16 0.886888 0.714318 0.500000
O O17 0.781998 0.779388 0.573698
O O18 0.311457 0.694780 0.500000
#
# Coordination Sequence:
#
# PCOD8290461 Si02
#       7
#    16  16   8  16  16  16  16
#     4   9  19  36  55  76 104 139 173 212 262 309
#     4  10  20  34  53  76 104 136 173 216 260 310
#     4   9  18  34  53  69  95 139 180 214 256 303
#     4  10  20  34  56  81 105 136 174 213 259 315
#     4   9  18  32  49  72 104 138 170 209 261 311
#     4   9  19  35  53  76 106 137 173 215 260 310
#     4   9  18  32  51  77 106 136 173 215 256 309
#
# _framework density 18.669035999999998
#
# number of rings (size 3 to 8) (size 9 to 14) (size 15 to 20)
#    0.000    2.692    0.000    0.923    1.077    3.077 
#    0.000    6.154    0.000    1.385    0.000    4.308 
#    0.000    0.000    0.000    0.000    0.000    0.000 
#
# Total GULP energy -644796.007137 kJ/mol
# GULP energy per Si atom -12399.923214 kJ/mol
# Density = 1.862654 g / cm^3
# Si number density = 18.669036 Si / 1000 Ang^3
#
#
#
# Elastic Constant Matrix: (Units=GPa)
#
#
# Indices 1 2 3 4 5 6 
#
# 1 66.1458 52.1535 26.0908 0.0000 0.0000 0.0000
# 2 52.1535 134.2095 37.4723 0.0000 0.0000 0.0000
# 3 26.0908 37.4723 77.7500 0.0000 0.0000 0.0000
# 4 0.0000 0.0000 0.0000 21.5353 0.0000 0.0000
# 5 0.0000 0.0000 0.0000 0.0000 23.2572 0.0000
# 6 0.0000 0.0000 0.0000 0.0000 0.0000 26.6544
#
#
#
# Elastic Compliance Matrix: (Units=1/GPa)
#
#
# Indices 1 2 3 4 5 6 
#
# 1 0.022777 -0.007761 -0.003903 0.000000 0.000000 0.000000
# 2 -0.007761 0.011254 -0.002820 0.000000 0.000000 0.000000
# 3 -0.003903 -0.002820 0.015530 0.000000 0.000000 0.000000
# 4 0.000000 0.000000 0.000000 0.046435 0.000000 0.000000
# 5 0.000000 0.000000 0.000000 0.000000 0.042997 0.000000
# 6 0.000000 0.000000 0.000000 0.000000 0.000000 0.037517
#
#
# Mechanical properties :
#
#
# Convention : Reuss Voigt Hill
#
# Bulk Modulus (GPa) = 48.55712 56.61537 52.58624
# Shear Modulus (GPa) = 23.54667 25.11529 24.33098
#
# Velocity S-wave (km/s) = 3.55529 3.67180 3.61401
# Velocity P-wave (km/s) = 6.55128 6.95470 6.75600
#
# Compressibility (1/GPa) = 0.02059430
#
# Stress axis : x y z
#
# Youngs Moduli (GPa) = 43.90362 88.85423 64.39021
#
# Poissons Ratio (x) = 0.68964 0.25129
# Poissons Ratio (y) = 0.34076 0.18155
# Poissons Ratio (z) = 0.17134 0.25053
#
# Static dielectric constant tensor:
#      x y z
#    x 3.497060 0.000000 0.000000 
#    y 0.000000 3.424270 0.000000 
#    z 0.000000 0.000000 3.332820 
# 
# 
# High freq. dielectric constant tensor:
#      x y z
#    x 1.729000 0.000000 0.000000 
#    y 0.000000 1.712310 0.000000 
#    z 0.000000 0.000000 1.716680 
# 
# From -- ./inp_files/66040.got.cif
#   From: 2010.06.25/outbox.cif.g09.slc.cpg/sg71_34_cif.got.tgz:66040.got - 2010.06.28 04:59:45.
