data_PCOD8290961
_publ_section_title
;
Structure prediction by ZEFSAII (Michael W. Deem and Ramdas Pophale) SiO2 
 PCOD8290961
Probable space group: I M M M
;
_chemical_formula_sum "Si O2"
_cell_formula_units_Z 88
_cell_length_a 18.758768
_cell_length_b 17.821540
_cell_length_c 13.680427
_cell_angle_alpha 90.000000
_cell_angle_beta 90.000000
_cell_angle_gamma 90.000000
_cell_volume 4573.505387
_symmetry_space_group_name_H-M "I M M M"
_symmetry_group_IT_number 71
_symmetry_cell_setting 'orthorhombic'
loop_
_space_group_symop_operation_xyz
x,y,z
-x,-y,z
x,-y,-z
-x,y,-z
-x,-y,-z
x,y,-z
-x,y,z
x,-y,z
1/2+x,1/2+y,1/2+z
1/2-x,1/2-y,1/2+z
1/2+x,1/2-y,1/2-z
1/2-x,1/2+y,1/2-z
1/2-x,1/2-y,1/2-z
1/2+x,1/2+y,1/2-z
1/2-x,1/2+y,1/2+z
1/2+x,1/2-y,1/2+z
loop_
_atom_site_type_symbol
_atom_site_label
_atom_site_fract_x
_atom_site_fract_y
_atom_site_fract_z
Si Si1 0.651757 0.358427 0.705986
Si Si2 0.082097 0.087630 0.611809
Si Si3 0.289798 0.912444 0.888312
Si Si4 0.082601 0.716198 0.888064
Si Si5 0.916341 0.000000 0.107325
Si Si6 0.580595 0.085257 0.755952
O O1 0.635792 0.362731 0.822156
O O2 0.734801 0.368113 0.680814
O O3 0.628564 0.278723 0.665409
O O4 0.605910 0.424542 0.659803
O O5 0.100501 0.106489 0.500000
O O6 0.000000 0.108620 0.634807
O O7 0.094485 0.000000 0.633596
O O8 0.368632 0.896148 0.847496
O O9 0.270228 0.000000 0.882869
O O10 0.286018 0.883655 0.000000
O O11 0.098157 0.636846 0.836867
O O12 0.000000 0.738703 0.880639
O O13 0.107135 0.709262 0.000000
O O14 0.000000 0.000000 0.099655
O O15 0.880777 0.000000 0.000000
O O16 0.500000 0.098539 0.793341
O O17 0.592048 0.000000 0.720100
#
# Coordination Sequence:
#
# PCOD8290961 Si02
#       6
#    16  16  16  16   8  16
#     4  12  20  32  52  81 121 155 185 226 274 330
#     4   9  17  30  48  70 102 153 208 240 260 299
#     4  10  20  35  57  85 116 149 185 230 287 345
#     4  10  21  36  56  84 116 148 185 233 285 339
#     4  11  20  28  45  75 112 158 197 216 247 313
#     4   9  20  40  62  81 103 139 193 249 302 353
#
# _framework density 19.241258999999999
#
# number of rings (size 3 to 8) (size 9 to 14) (size 15 to 20)
#    0.000    1.909    1.818    3.818    0.000    2.909 
#    0.000    5.455    0.000    2.182    0.000    0.000 
#    0.000    0.000    0.000    0.000    0.000    0.000 
#
# Total GULP energy -545662.086214 kJ/mol
# GULP energy per Si atom -12401.411050 kJ/mol
# Density = 1.919746 g / cm^3
# Si number density = 19.241259 Si / 1000 Ang^3
#
#
#
# Elastic Constant Matrix: (Units=GPa)
#
#
# Indices 1 2 3 4 5 6 
#
# 1 104.4159 51.4238 72.2688 0.0000 0.0000 0.0000
# 2 51.4238 84.4151 50.2274 0.0000 0.0000 0.0000
# 3 72.2688 50.2274 147.6881 0.0000 0.0000 0.0000
# 4 0.0000 0.0000 0.0000 31.5664 0.0000 0.0000
# 5 0.0000 0.0000 0.0000 0.0000 30.2807 0.0000
# 6 0.0000 0.0000 0.0000 0.0000 0.0000 22.5373
#
#
#
# Elastic Compliance Matrix: (Units=1/GPa)
#
#
# Indices 1 2 3 4 5 6 
#
# 1 0.017138 -0.006833 -0.006062 0.000000 0.000000 0.000000
# 2 -0.006833 0.017576 -0.002634 0.000000 0.000000 0.000000
# 3 -0.006062 -0.002634 0.010633 0.000000 0.000000 0.000000
# 4 0.000000 0.000000 0.000000 0.031679 0.000000 0.000000
# 5 0.000000 0.000000 0.000000 0.000000 0.033024 0.000000
# 6 0.000000 0.000000 0.000000 0.000000 0.000000 0.044371
#
#
# Mechanical properties :
#
#
# Convention : Reuss Voigt Hill
#
# Bulk Modulus (GPa) = 69.98442 76.03990 73.01216
# Shear Modulus (GPa) = 26.28210 27.71682 26.99946
#
# Velocity S-wave (km/s) = 3.69985 3.79949 3.75000
# Velocity P-wave (km/s) = 7.39614 7.67158 7.53512
#
# Compressibility (1/GPa) = 0.01428889
#
# Stress axis : x y z
#
# Youngs Moduli (GPa) = 58.34882 56.89614 94.04409
#
# Poissons Ratio (x) = 0.38878 0.57014
# Poissons Ratio (y) = 0.39870 0.24769
# Poissons Ratio (z) = 0.35374 0.14985
#
# Static dielectric constant tensor:
#      x y z
#    x 3.471780 0.000000 0.000000 
#    y 0.000000 3.547620 0.000000 
#    z 0.000000 0.000000 3.680240 
# 
# 
# High freq. dielectric constant tensor:
#      x y z
#    x 1.742190 0.000000 0.000000 
#    y 0.000000 1.732580 0.000000 
#    z 0.000000 0.000000 1.752340 
# 
# From -- ./inp_files/36400.got.cif
#   From: 2010.06.25/outbox.cif.g09.slc.cpg/sg71_19_cif.got.tgz:36400.got - 2010.06.28 04:59:45.
