data_PCOD8290147
_publ_section_title
;
Structure prediction by ZEFSAII (Michael W. Deem and Ramdas Pophale) SiO2 
 PCOD8290147
Probable space group: I M M M
;
_chemical_formula_sum "Si O2"
_cell_formula_units_Z 88
_cell_length_a 12.730521
_cell_length_b 30.908354
_cell_length_c 12.820501
_cell_angle_alpha 90.000000
_cell_angle_beta 90.000000
_cell_angle_gamma 90.000000
_cell_volume 5044.603678
_symmetry_space_group_name_H-M "I M M M"
_symmetry_group_IT_number 71
_symmetry_cell_setting 'orthorhombic'
loop_
_space_group_symop_operation_xyz
x,y,z
-x,-y,z
x,-y,-z
-x,y,-z
-x,-y,-z
x,y,-z
-x,y,z
x,-y,z
1/2+x,1/2+y,1/2+z
1/2-x,1/2-y,1/2+z
1/2+x,1/2-y,1/2-z
1/2-x,1/2+y,1/2-z
1/2-x,1/2-y,1/2-z
1/2+x,1/2+y,1/2-z
1/2-x,1/2+y,1/2+z
1/2+x,1/2-y,1/2+z
loop_
_atom_site_type_symbol
_atom_site_label
_atom_site_fract_x
_atom_site_fract_y
_atom_site_fract_z
Si Si1 0.124234 0.750452 0.377569
Si Si2 0.878469 0.615752 0.884551
Si Si3 0.378947 0.050224 0.208548
Si Si4 0.000000 0.952140 0.875921
Si Si5 0.747961 0.819128 0.748337
Si Si6 0.303402 0.398406 0.380897
O O1 0.153180 0.753551 0.500000
O O2 0.166607 0.791940 0.315513
O O3 0.177941 0.708361 0.328342
O O4 0.000000 0.747276 0.361474
O O5 0.857882 0.571543 0.821253
O O6 0.826426 0.657722 0.834492
O O7 0.000000 0.626880 0.888939
O O8 0.832239 0.608246 0.000000
O O9 0.500000 0.056140 0.173666
O O10 0.306525 0.075495 0.126077
O O11 0.347936 0.000000 0.213862
O O12 0.103845 0.928119 0.835421
O O13 0.000000 0.000000 0.827106
O O14 0.000000 0.954687 0.000000
O O15 0.808643 0.854547 0.815901
O O16 0.323514 0.385901 0.500000
#
# Coordination Sequence:
#
# PCOD8290147 Si02
#       6
#    16  16  16   8  16  16
#     4  10  21  36  54  75 101 133 168 209 259 315
#     4   9  17  30  49  72  99 131 167 208 253 301
#     4   9  18  31  47  72 103 134 170 209 252 304
#     4   9  18  32  50  72  99 133 171 207 246 296
#     4  10  20  34  53  74 102 129 169 210 256 306
#     4  10  20  33  51  74 101 134 170 211 255 303
#
# _framework density 17.444383999999999
#
# number of rings (size 3 to 8) (size 9 to 14) (size 15 to 20)
#    0.000    2.455    0.000    2.182    1.273    2.545 
#    0.000    2.727    0.000    3.273    0.000    0.000 
#    0.000    7.636    0.000    0.000    0.000    0.000 
#
# Total GULP energy -545583.156890 kJ/mol
# GULP energy per Si atom -12399.617202 kJ/mol
# Density = 1.740468 g / cm^3
# Si number density = 17.444384 Si / 1000 Ang^3
#
#
#
# Elastic Constant Matrix: (Units=GPa)
#
#
# Indices 1 2 3 4 5 6 
#
# 1 82.7303 44.6501 37.9207 -0.0007 0.0003 0.0002
# 2 44.6501 116.5972 36.7110 -0.0019 0.0005 0.0002
# 3 37.9207 36.7110 87.5172 -0.0032 0.0005 -0.0003
# 4 -0.0007 -0.0019 -0.0032 20.2668 0.0000 0.0000
# 5 0.0003 0.0005 0.0005 0.0000 22.1442 0.0000
# 6 0.0002 0.0002 -0.0003 0.0000 0.0000 27.5714
#
#
#
# Elastic Compliance Matrix: (Units=1/GPa)
#
#
# Indices 1 2 3 4 5 6 
#
# 1 0.017201 -0.004886 -0.005404 -0.000001 0.000000 0.000000
# 2 -0.004886 0.011269 -0.002610 0.000000 0.000000 0.000000
# 3 -0.005404 -0.002610 0.014863 0.000002 0.000000 0.000000
# 4 -0.000001 0.000000 0.000002 0.049342 0.000000 0.000000
# 5 0.000000 0.000000 0.000000 0.000000 0.045159 0.000000
# 6 0.000000 0.000000 0.000000 0.000000 0.000000 0.036269
#
#
# Mechanical properties :
#
#
# Convention : Reuss Voigt Hill
#
# Bulk Modulus (GPa) = 57.03264 58.37870 57.70567
# Shear Modulus (GPa) = 24.30169 25.16734 24.73452
#
# Velocity S-wave (km/s) = 3.73647 3.80243 3.76960
# Velocity P-wave (km/s) = 7.16798 7.26748 7.21790
#
# Compressibility (1/GPa) = 0.01753382
#
# Stress axis : x y z
#
# Youngs Moduli (GPa) = 58.13545 88.73659 67.28268
#
# Poissons Ratio (x) = 0.43354 0.36358
# Poissons Ratio (y) = 0.28403 0.17562
# Poissons Ratio (z) = 0.31415 0.23162
#
# Static dielectric constant tensor:
#      x y z
#    x 3.246400 0.000000 0.000000 
#    y 0.000000 3.311650 0.000000 
#    z 0.000000 0.000000 3.270490 
# 
# 
# High freq. dielectric constant tensor:
#      x y z
#    x 1.673720 0.000000 0.000000 
#    y 0.000000 1.684000 0.000000 
#    z 0.000000 0.000000 1.668010 
# 
# From -- ./inp_files/20260.got.cif
#   From: 2010.06.25/outbox.cif.g09.slc.cpg/sg71_11_cif.got.tgz:20260.got - 2010.06.28 04:59:45.
