data_PCOD8290685
_publ_section_title
;
Structure prediction by ZEFSAII (Michael W. Deem and Ramdas Pophale) SiO2 
 PCOD8290685
Probable space group: I M M M
;
_chemical_formula_sum "Si O2"
_cell_formula_units_Z 80
_cell_length_a 18.713093
_cell_length_b 7.636715
_cell_length_c 26.734535
_cell_angle_alpha 90.000000
_cell_angle_beta 90.000000
_cell_angle_gamma 90.000000
_cell_volume 3820.540377
_symmetry_space_group_name_H-M "I M M M"
_symmetry_group_IT_number 71
_symmetry_cell_setting 'orthorhombic'
loop_
_space_group_symop_operation_xyz
x,y,z
-x,-y,z
x,-y,-z
-x,y,-z
-x,-y,-z
x,y,-z
-x,y,z
x,-y,z
1/2+x,1/2+y,1/2+z
1/2-x,1/2-y,1/2+z
1/2+x,1/2-y,1/2-z
1/2-x,1/2+y,1/2-z
1/2-x,1/2-y,1/2-z
1/2+x,1/2+y,1/2-z
1/2-x,1/2+y,1/2+z
1/2+x,1/2-y,1/2+z
loop_
_atom_site_type_symbol
_atom_site_label
_atom_site_fract_x
_atom_site_fract_y
_atom_site_fract_z
Si Si1 0.416319 0.500000 0.558693
Si Si2 0.173446 0.707841 0.111447
Si Si3 0.166240 0.207971 0.595668
Si Si4 0.921927 0.800552 0.312694
Si Si5 0.174448 0.702948 0.226767
Si Si6 0.580973 0.291365 0.000000
O O1 0.500000 0.500000 0.570658
O O2 0.400703 0.500000 0.500000
O O3 0.384075 0.678300 0.581620
O O4 0.159045 0.500000 0.103249
O O5 0.251498 0.765982 0.091800
O O6 0.169281 0.761672 0.169498
O O7 0.129909 0.287904 0.645867
O O8 0.122443 0.281123 0.548404
O O9 0.164460 0.000000 0.597949
O O10 0.887962 0.795811 0.257703
O O11 0.000000 0.708296 0.312443
O O12 0.932531 0.000000 0.328554
O O13 0.161096 0.500000 0.231601
O O14 0.250000 0.750000 0.250000
O O15 0.580653 0.500000 0.000000
O O16 0.500000 0.219071 0.000000
#
# Coordination Sequence:
#
# PCOD8290685 Si02
#       6
#     8  16  16  16  16   8
#     4  11  28  50  72 100 128 164 220 279 347 418
#     4  10  23  42  68  98 130 168 213 271 327 392
#     4   9  17  32  54  85 121 161 210 254 305 371
#     4  10  20  34  55  84 122 165 206 252 308 370
#     4  11  22  37  60  89 124 166 214 264 319 383
#     4   9  16  26  48  83 121 158 201 257 308 364
#
# _framework density 20.939447999999999
#
# number of rings (size 3 to 8) (size 9 to 14) (size 15 to 20)
#    0.000    2.000    2.000    1.200    4.200    4.400 
#    0.000    3.000    0.000    0.000    0.000    0.700 
#    0.000    0.000    0.000    0.000    0.000    0.000 
#
# Total GULP energy -495919.504906 kJ/mol
# GULP energy per Si atom -12397.987623 kJ/mol
# Density = 2.089179 g / cm^3
# Si number density = 20.939448 Si / 1000 Ang^3
#
#
#
# Elastic Constant Matrix: (Units=GPa)
#
#
# Indices 1 2 3 4 5 6 
#
# 1 180.7697 39.0920 93.3356 0.0000 0.0000 0.0000
# 2 39.0920 54.6242 34.7286 0.0000 0.0000 0.0000
# 3 93.3356 34.7286 162.0533 0.0000 0.0000 0.0000
# 4 0.0000 0.0000 0.0000 21.4528 0.0000 0.0000
# 5 0.0000 0.0000 0.0000 0.0000 39.1853 0.0000
# 6 0.0000 0.0000 0.0000 0.0000 0.0000 23.0858
#
#
#
# Elastic Compliance Matrix: (Units=1/GPa)
#
#
# Indices 1 2 3 4 5 6 
#
# 1 0.008383 -0.003392 -0.004101 0.000000 0.000000 0.000000
# 2 -0.003392 0.022567 -0.002883 0.000000 0.000000 0.000000
# 3 -0.004101 -0.002883 0.009151 0.000000 0.000000 0.000000
# 4 0.000000 0.000000 0.000000 0.046614 0.000000 0.000000
# 5 0.000000 0.000000 0.000000 0.000000 0.025520 0.000000
# 6 0.000000 0.000000 0.000000 0.000000 0.000000 0.043317
#
#
# Mechanical properties :
#
#
# Convention : Reuss Voigt Hill
#
# Bulk Modulus (GPa) = 51.68195 81.30662 66.49428
# Shear Modulus (GPa) = 27.35940 32.09751 29.72845
#
# Velocity S-wave (km/s) = 3.61861 3.91944 3.77202
# Velocity P-wave (km/s) = 6.49571 7.70690 7.12708
#
# Compressibility (1/GPa) = 0.01934911
#
# Stress axis : x y z
#
# Youngs Moduli (GPa) = 119.28870 44.31256 109.28019
#
# Poissons Ratio (x) = 0.15030 0.44820
# Poissons Ratio (y) = 0.40460 0.31502
# Poissons Ratio (z) = 0.48925 0.12774
#
# Static dielectric constant tensor:
#      x y z
#    x 3.965420 0.000000 0.000000 
#    y 0.000000 3.495020 0.000000 
#    z 0.000000 0.000000 4.011930 
# 
# 
# High freq. dielectric constant tensor:
#      x y z
#    x 1.825420 0.000000 0.000000 
#    y 0.000000 1.798360 0.000000 
#    z 0.000000 0.000000 1.827070 
# 
# From -- ./inp_files/65819.got.cif
#   From: 2010.06.25/outbox.cif.g09.slc.cpg/sg71_33_cif.got.tgz:65819.got - 2010.06.28 04:59:45.
