data_PCOD8290478
_publ_section_title
;
Structure prediction by ZEFSAII (Michael W. Deem and Ramdas Pophale) SiO2 
 PCOD8290478
Probable space group: I M M M
;
_chemical_formula_sum "Si O2"
_cell_formula_units_Z 64
_cell_length_a 18.360924
_cell_length_b 7.617030
_cell_length_c 24.299833
_cell_angle_alpha 90.000000
_cell_angle_beta 90.000000
_cell_angle_gamma 90.000000
_cell_volume 3398.470371
_symmetry_space_group_name_H-M "I M M M"
_symmetry_group_IT_number 71
_symmetry_cell_setting 'orthorhombic'
loop_
_space_group_symop_operation_xyz
x,y,z
-x,-y,z
x,-y,-z
-x,y,-z
-x,-y,-z
x,y,-z
-x,y,z
x,-y,z
1/2+x,1/2+y,1/2+z
1/2-x,1/2-y,1/2+z
1/2+x,1/2-y,1/2-z
1/2-x,1/2+y,1/2-z
1/2-x,1/2-y,1/2-z
1/2+x,1/2+y,1/2-z
1/2-x,1/2+y,1/2+z
1/2+x,1/2-y,1/2+z
loop_
_atom_site_type_symbol
_atom_site_label
_atom_site_fract_x
_atom_site_fract_y
_atom_site_fract_z
Si Si1 0.667829 0.291875 0.000000
Si Si2 0.414390 0.798409 0.608407
Si Si3 0.333589 0.207320 0.500000
Si Si4 0.913802 0.000000 0.809714
Si Si5 0.583434 0.802819 0.891966
Si Si6 0.086427 0.000000 0.312605
O O1 0.750859 0.226071 0.000000
O O2 0.629963 0.213487 0.053279
O O3 0.661042 0.500000 0.000000
O O4 0.500000 0.780950 0.597435
O O5 0.374147 0.724065 0.554399
O O6 0.388428 0.676519 0.658916
O O7 0.393026 0.000000 0.622001
O O8 0.337802 0.000000 0.500000
O O9 0.879028 0.000000 0.748549
O O10 0.000000 0.000000 0.805129
O O11 0.500000 0.755552 0.906635
O O12 0.613751 0.672411 0.845133
O O13 0.589932 0.000000 0.868673
O O14 0.000000 0.000000 0.307932
#
# Coordination Sequence:
#
# PCOD8290478 Si02
#       6
#     8  16   8   8  16   8
#     4  11  20  33  53  77 105 139 166 211 261 308
#     4   9  17  32  53  76 106 138 168 209 256 301
#     4   9  19  33  51  79 105 138 171 209 256 311
#     4   9  18  31  51  81 105 130 173 212 250 303
#     4  10  20  34  53  77 104 134 170 210 255 309
#     4   9  18  33  53  77 105 134 167 212 258 297
#
# _framework density 18.832001000000002
#
# number of rings (size 3 to 8) (size 9 to 14) (size 15 to 20)
#    0.000    2.500    1.250    1.125    0.000    4.500 
#    4.500    6.875    0.000    1.500    0.000    0.000 
#    0.000    0.000    0.000    0.000    0.000    0.000 
#
# Total GULP energy -396780.293787 kJ/mol
# GULP energy per Si atom -12399.384181 kJ/mol
# Density = 1.878914 g / cm^3
# Si number density = 18.832001 Si / 1000 Ang^3
#
#
#
# Elastic Constant Matrix: (Units=GPa)
#
#
# Indices 1 2 3 4 5 6 
#
# 1 56.0717 28.2338 45.5065 0.0000 0.0000 0.0000
# 2 28.2338 124.2485 75.8495 0.0000 0.0000 0.0000
# 3 45.5065 75.8495 185.5535 0.0000 0.0000 0.0000
# 4 0.0000 0.0000 0.0000 8.5444 0.0000 0.0000
# 5 0.0000 0.0000 0.0000 0.0000 2369.0901 0.0000
# 6 0.0000 0.0000 0.0000 0.0000 0.0000 12.8238
#
#
#
# Elastic Compliance Matrix: (Units=1/GPa)
#
#
# Indices 1 2 3 4 5 6 
#
# 1 0.022771 -0.002352 -0.004623 0.000000 0.000000 0.000000
# 2 -0.002352 0.010968 -0.003906 0.000000 0.000000 0.000000
# 3 -0.004623 -0.003906 0.008120 0.000000 0.000000 0.000000
# 4 0.000000 0.000000 0.000000 0.117036 0.000000 0.000000
# 5 0.000000 0.000000 0.000000 0.000000 0.000422 0.000000
# 6 0.000000 0.000000 0.000000 0.000000 0.000000 0.077980
#
#
# Mechanical properties :
#
#
# Convention : Reuss Voigt Hill
#
# Bulk Modulus (GPa) = 49.76349 73.89483 61.82916
# Shear Modulus (GPa) = 18.81411 492.51056 255.66234
#
# Velocity S-wave (km/s) = 3.16420 16.18939 11.66423
# Velocity P-wave (km/s) = 6.31125 19.71765 14.63929
#
# Compressibility (1/GPa) = 0.02009505
#
# Stress axis : x y z
#
# Youngs Moduli (GPa) = 43.91633 91.17747 123.15447
#
# Poissons Ratio (x) = 0.21447 0.56933
# Poissons Ratio (y) = 0.10330 0.48109
# Poissons Ratio (z) = 0.20302 0.35618
#
# Static dielectric constant tensor:
#      x y z
#    x 3.221200 0.000000 0.000000 
#    y 0.000000 3.608420 0.000000 
#    z 0.000000 0.000000 3.660320 
# 
# 
# High freq. dielectric constant tensor:
#      x y z
#    x 1.695040 0.000000 0.000000 
#    y 0.000000 1.742280 0.000000 
#    z 0.000000 0.000000 1.728000 
# 
# From -- ./inp_files/60352.got.cif
#   From: 2010.06.25/outbox.cif.g09.slc.cpg/sg71_31_cif.got.tgz:60352.got - 2010.06.28 04:59:45.
