data_PCOD8290247
_publ_section_title
;
Structure prediction by ZEFSAII (Michael W. Deem and Ramdas Pophale) SiO2 
 PCOD8290247
Probable space group: I M M M
;
_chemical_formula_sum "Si O2"
_cell_formula_units_Z 96
_cell_length_a 9.087146
_cell_length_b 19.305169
_cell_length_c 30.408348
_cell_angle_alpha 90.000000
_cell_angle_beta 90.000000
_cell_angle_gamma 90.000000
_cell_volume 5334.502714
_symmetry_space_group_name_H-M "I M M M"
_symmetry_group_IT_number 71
_symmetry_cell_setting 'orthorhombic'
loop_
_space_group_symop_operation_xyz
x,y,z
-x,-y,z
x,-y,-z
-x,y,-z
-x,-y,-z
x,y,-z
-x,y,z
x,-y,z
1/2+x,1/2+y,1/2+z
1/2-x,1/2-y,1/2+z
1/2+x,1/2-y,1/2-z
1/2-x,1/2+y,1/2-z
1/2-x,1/2-y,1/2-z
1/2+x,1/2+y,1/2-z
1/2-x,1/2+y,1/2+z
1/2+x,1/2-y,1/2+z
loop_
_atom_site_type_symbol
_atom_site_label
_atom_site_fract_x
_atom_site_fract_y
_atom_site_fract_z
Si Si1 0.170295 0.804377 0.872454
Si Si2 0.834851 0.924737 0.447735
Si Si3 0.327685 0.209337 0.710628
Si Si4 0.668857 0.078488 0.171481
Si Si5 0.672887 0.421236 0.762931
Si Si6 0.672447 0.791040 0.549471
O O1 0.202382 0.748517 0.834682
O O2 0.271130 0.871937 0.866770
O O3 0.217554 0.772318 0.919270
O O4 0.000000 0.826646 0.872300
O O5 0.832338 0.924067 0.500000
O O6 0.736692 0.861945 0.429978
O O7 0.000000 0.913846 0.430191
O O8 0.775672 0.000000 0.431130
O O9 0.500000 0.202759 0.720980
O O10 0.250000 0.250000 0.750000
O O11 0.256793 0.132646 0.705457
O O12 0.500000 0.096317 0.183000
O O13 0.768650 0.091400 0.213928
O O14 0.683802 0.000000 0.154522
O O15 0.500000 0.405342 0.763081
O O16 0.705930 0.500000 0.778411
O O17 0.731280 0.775895 0.500000
O O18 0.500000 0.801793 0.549325
#
# Coordination Sequence:
#
# PCOD8290247 Si02
#       6
#    16  16  16  16  16  16
#     4  10  21  35  52  76 104 135 169 209 258 306
#     4   8  14  26  45  69  96 126 162 204 250 299
#     4  11  21  33  51  75 104 136 171 210 253 304
#     4  10  20  33  52  78 103 130 168 210 251 302
#     4  10  20  34  52  74 103 139 175 211 254 303
#     4   9  18  33  52  74 100 131 171 216 259 304
#
# _framework density 17.996054000000001
#
# number of rings (size 3 to 8) (size 9 to 14) (size 15 to 20)
#    0.000    2.333    1.667    2.000    0.000    3.667 
#    0.000    2.500    0.000    5.500    0.000    3.500 
#    0.000    0.000    0.000    0.000    0.000    0.000 
#
# Total GULP energy -595108.123677 kJ/mol
# GULP energy per Si atom -12398.085910 kJ/mol
# Density = 1.795509 g / cm^3
# Si number density = 17.996054 Si / 1000 Ang^3
#
#
#
# Elastic Constant Matrix: (Units=GPa)
#
#
# Indices 1 2 3 4 5 6 
#
# 1 81.0687 58.4825 32.5304 0.0000 0.0000 0.0000
# 2 58.4825 123.8003 40.9361 0.0000 0.0000 0.0000
# 3 32.5304 40.9361 61.5565 0.0000 0.0000 0.0000
# 4 0.0000 0.0000 0.0000 21.7339 0.0000 0.0000
# 5 0.0000 0.0000 0.0000 0.0000 17.5982 0.0000
# 6 0.0000 0.0000 0.0000 0.0000 0.0000 38.2197
#
#
#
# Elastic Compliance Matrix: (Units=1/GPa)
#
#
# Indices 1 2 3 4 5 6 
#
# 1 0.020073 -0.007659 -0.005515 0.000000 0.000000 0.000000
# 2 -0.007659 0.013277 -0.004782 0.000000 0.000000 0.000000
# 3 -0.005515 -0.004782 0.022339 0.000000 0.000000 0.000000
# 4 0.000000 0.000000 0.000000 0.046011 0.000000 0.000000
# 5 0.000000 0.000000 0.000000 0.000000 0.056824 0.000000
# 6 0.000000 0.000000 0.000000 0.000000 0.000000 0.026165
#
#
# Mechanical properties :
#
#
# Convention : Reuss Voigt Hill
#
# Bulk Modulus (GPa) = 50.55947 58.92483 54.74215
# Shear Modulus (GPa) = 22.00778 24.47546 23.24162
#
# Velocity S-wave (km/s) = 3.50082 3.69188 3.59762
# Velocity P-wave (km/s) = 6.67059 7.14056 6.90957
#
# Compressibility (1/GPa) = 0.01977869
#
# Stress axis : x y z
#
# Youngs Moduli (GPa) = 49.81767 75.31987 44.76388
#
# Poissons Ratio (x) = 0.57687 0.24686
# Poissons Ratio (y) = 0.38155 0.21405
# Poissons Ratio (z) = 0.27473 0.36016
#
# Static dielectric constant tensor:
#      x y z
#    x 3.408350 0.000000 0.000000 
#    y 0.000000 3.656720 0.000000 
#    z 0.000000 0.000000 3.166100 
# 
# 
# High freq. dielectric constant tensor:
#      x y z
#    x 1.701700 0.000000 0.000000 
#    y 0.000000 1.705650 0.000000 
#    z 0.000000 0.000000 1.657490 
# 
# From -- ./inp_files/50828.got.cif
#   From: 2010.06.25/outbox.cif.g09.slc.cpg/sg71_26_cif.got.tgz:50828.got - 2010.06.28 04:59:45.
