data_PCOD8290210
_publ_section_title
;
Structure prediction by ZEFSAII (Michael W. Deem and Ramdas Pophale) SiO2 
 PCOD8290210
Probable space group: I M M M
;
_chemical_formula_sum "Si O2"
_cell_formula_units_Z 104
_cell_length_a 20.566438
_cell_length_b 8.910272
_cell_length_c 28.984884
_cell_angle_alpha 90.000000
_cell_angle_beta 90.000000
_cell_angle_gamma 90.000000
_cell_volume 5311.554097
_symmetry_space_group_name_H-M "I M M M"
_symmetry_group_IT_number 71
_symmetry_cell_setting 'orthorhombic'
loop_
_space_group_symop_operation_xyz
x,y,z
-x,-y,z
x,-y,-z
-x,y,-z
-x,-y,-z
x,y,-z
-x,y,z
x,-y,z
1/2+x,1/2+y,1/2+z
1/2-x,1/2-y,1/2+z
1/2+x,1/2-y,1/2-z
1/2-x,1/2+y,1/2-z
1/2-x,1/2-y,1/2-z
1/2+x,1/2+y,1/2-z
1/2-x,1/2+y,1/2+z
1/2+x,1/2-y,1/2+z
loop_
_atom_site_type_symbol
_atom_site_label
_atom_site_fract_x
_atom_site_fract_y
_atom_site_fract_z
Si Si1 0.265971 0.669453 0.446680
Si Si2 0.134075 0.830271 0.449054
Si Si3 0.677103 0.675865 0.302646
Si Si4 0.500000 0.821432 0.552754
Si Si5 0.175063 0.674942 0.706882
Si Si6 0.072977 0.828176 0.355816
Si Si7 0.374763 0.176488 0.609028
O O1 0.285043 0.679520 0.500000
O O2 0.275241 0.500000 0.427764
O O3 0.192026 0.716001 0.438394
O O4 0.310942 0.783492 0.419430
O O5 0.104612 0.798218 0.500000
O O6 0.078355 0.806523 0.411057
O O7 0.161783 0.000000 0.446741
O O8 0.665354 0.500000 0.304010
O O9 0.752896 0.717778 0.311446
O O10 0.656219 0.735768 0.252821
O O11 0.630146 0.749498 0.340610
O O12 0.500000 0.757943 0.500000
O O13 0.562870 0.762354 0.580752
O O14 0.500000 0.000000 0.550570
O O15 0.171133 0.500000 0.718193
O O16 0.123488 0.717852 0.668142
O O17 0.000000 0.784513 0.341111
O O18 0.088515 0.000000 0.342010
O O19 0.379553 0.000000 0.615961
#
# Coordination Sequence:
#
# PCOD8290210 Si02
#       7
#    16  16  16   8  16  16  16
#     4  10  20  33  51  78 111 144 181 229 282 330
#     4   9  18  33  54  80 109 144 187 231 273 323
#     4  10  21  38  61  87 114 141 177 229 286 337
#     4   9  20  38  57  79 111 151 193 235 276 327
#     4  10  21  38  60  85 111 144 185 229 278 335
#     4  10  21  36  54  79 112 149 186 225 274 326
#     4  11  21  35  57  83 110 145 188 231 279 336
#
# _framework density 19.579957
#
# number of rings (size 3 to 8) (size 9 to 14) (size 15 to 20)
#    0.000    2.077    0.000    3.231    0.000    7.077 
#    1.385    3.077    0.000    2.769    0.000    3.231 
#    0.000    0.000    0.000    0.000    0.000    0.000 
#
# Total GULP energy -644866.829437 kJ/mol
# GULP energy per Si atom -12401.285181 kJ/mol
# Density = 1.953539 g / cm^3
# Si number density = 19.579957 Si / 1000 Ang^3
#
#
#
# Elastic Constant Matrix: (Units=GPa)
#
#
# Indices 1 2 3 4 5 6 
#
# 1 66.2291 23.5852 53.0277 0.0000 0.0000 0.0000
# 2 23.5852 67.1738 40.5214 0.0000 0.0000 0.0000
# 3 53.0277 40.5214 114.7311 0.0000 0.0000 0.0000
# 4 0.0000 0.0000 0.0000 34.0372 0.0000 0.0000
# 5 0.0000 0.0000 0.0000 0.0000 32.2278 0.0000
# 6 0.0000 0.0000 0.0000 0.0000 0.0000 20.6314
#
#
#
# Elastic Compliance Matrix: (Units=1/GPa)
#
#
# Indices 1 2 3 4 5 6 
#
# 1 0.024228 -0.002226 -0.010412 0.000000 0.000000 0.000000
# 2 -0.002226 0.019122 -0.005725 0.000000 0.000000 0.000000
# 3 -0.010412 -0.005725 0.015550 0.000000 0.000000 0.000000
# 4 0.000000 0.000000 0.000000 0.029380 0.000000 0.000000
# 5 0.000000 0.000000 0.000000 0.000000 0.031029 0.000000
# 6 0.000000 0.000000 0.000000 0.000000 0.000000 0.048470
#
#
# Mechanical properties :
#
#
# Convention : Reuss Voigt Hill
#
# Bulk Modulus (GPa) = 45.09571 53.60028 49.34800
# Shear Modulus (GPa) = 23.59653 26.11260 24.85456
#
# Velocity S-wave (km/s) = 3.47527 3.65586 3.56671
# Velocity P-wave (km/s) = 6.25979 6.72718 6.49769
#
# Compressibility (1/GPa) = 0.02217506
#
# Stress axis : x y z
#
# Youngs Moduli (GPa) = 41.27395 52.29690 64.30765
#
# Poissons Ratio (x) = 0.11641 0.66957
# Poissons Ratio (y) = 0.09187 0.36814
# Poissons Ratio (z) = 0.42974 0.29938
#
# Static dielectric constant tensor:
#      x y z
#    x 3.416130 0.000000 0.000000 
#    y 0.000000 3.509850 0.000000 
#    z 0.000000 0.000000 3.701120 
# 
# 
# High freq. dielectric constant tensor:
#      x y z
#    x 1.744490 0.000000 0.000000 
#    y 0.000000 1.758280 0.000000 
#    z 0.000000 0.000000 1.774250 
# 
# From -- ./inp_files/66418.got.cif
#   From: 2010.06.25/outbox.cif.g09.slc.cpg/sg71_34_cif.got.tgz:66418.got - 2010.06.28 04:59:45.
