data_PCOD8290846
_publ_section_title
;
Structure prediction by ZEFSAII (Michael W. Deem and Ramdas Pophale) SiO2 
 PCOD8290846
Probable space group: I M M M
;
_chemical_formula_sum "Si O2"
_cell_formula_units_Z 88
_cell_length_a 27.641491
_cell_length_b 11.711073
_cell_length_c 13.773226
_cell_angle_alpha 90.000000
_cell_angle_beta 90.000000
_cell_angle_gamma 90.000000
_cell_volume 4458.551909
_symmetry_space_group_name_H-M "I M M M"
_symmetry_group_IT_number 71
_symmetry_cell_setting 'orthorhombic'
loop_
_space_group_symop_operation_xyz
x,y,z
-x,-y,z
x,-y,-z
-x,y,-z
-x,-y,-z
x,y,-z
-x,y,z
x,-y,z
1/2+x,1/2+y,1/2+z
1/2-x,1/2-y,1/2+z
1/2+x,1/2-y,1/2-z
1/2-x,1/2+y,1/2-z
1/2-x,1/2-y,1/2-z
1/2+x,1/2+y,1/2-z
1/2-x,1/2+y,1/2+z
1/2+x,1/2-y,1/2+z
loop_
_atom_site_type_symbol
_atom_site_label
_atom_site_fract_x
_atom_site_fract_y
_atom_site_fract_z
Si Si1 0.500000 0.867549 0.614911
Si Si2 0.173771 0.131907 0.885242
Si Si3 0.098750 0.710922 0.800460
Si Si4 0.269827 0.746199 0.114598
Si Si5 0.650112 0.000000 0.607597
Si Si6 0.131973 0.634711 0.390363
Si Si7 0.235784 0.000000 0.392552
O O1 0.500000 0.860761 0.500000
O O2 0.545681 0.799452 0.655688
O O3 0.500000 0.000000 0.649622
O O4 0.124143 0.171584 0.833171
O O5 0.220047 0.201564 0.842766
O O6 0.182221 0.000000 0.861066
O O7 0.168080 0.152430 0.000000
O O8 0.133279 0.610814 0.836473
O O9 0.095737 0.700036 0.683004
O O10 0.313351 0.831558 0.138297
O O11 0.280440 0.618843 0.159611
O O12 0.262358 0.732598 0.000000
O O13 0.626404 0.000000 0.500000
O O14 0.706863 0.000000 0.600122
O O15 0.119439 0.673692 0.500000
O O16 0.126454 0.500000 0.379041
O O17 0.212666 0.000000 0.500000
#
# Coordination Sequence:
#
# PCOD8290846 Si02
#       7
#     8  16  16  16   8  16   8
#     4  11  22  36  60  92 118 137 170 229 293 350
#     4  10  20  35  55  82 117 154 188 228 279 339
#     4  12  22  37  57  84 112 146 187 231 282 341
#     4   9  17  31  52  78 113 152 189 231 277 325
#     4  11  18  31  55  82 112 142 174 224 286 340
#     4  10  21  38  56  77 112 154 193 232 274 324
#     4   9  16  28  49  81 116 147 181 231 284 324
#
# _framework density 19.737348999999998
#
# number of rings (size 3 to 8) (size 9 to 14) (size 15 to 20)
#    0.000    1.727    3.636    2.182    0.000    2.909 
#    1.636    0.909    0.000    3.273    0.000    0.000 
#    0.000    1.455    0.000    0.000    0.000    0.000 
#
# Total GULP energy -545522.036997 kJ/mol
# GULP energy per Si atom -12398.228114 kJ/mol
# Density = 1.969243 g / cm^3
# Si number density = 19.737349 Si / 1000 Ang^3
#
#
#
# Elastic Constant Matrix: (Units=GPa)
#
#
# Indices 1 2 3 4 5 6 
#
# 1 73.8017 20.9151 18.3250 0.0000 0.0000 0.0000
# 2 20.9151 89.5622 23.6038 0.0000 0.0000 0.0000
# 3 18.3250 23.6038 74.0914 0.0000 0.0000 0.0000
# 4 0.0000 0.0000 0.0000 22.0262 0.0000 0.0000
# 5 0.0000 0.0000 0.0000 0.0000 21.7069 0.0000
# 6 0.0000 0.0000 0.0000 0.0000 0.0000 18.7406
#
#
#
# Elastic Compliance Matrix: (Units=1/GPa)
#
#
# Indices 1 2 3 4 5 6 
#
# 1 0.015038 -0.002764 -0.002839 0.000000 0.000000 0.000000
# 2 -0.002764 0.012697 -0.003361 0.000000 0.000000 0.000000
# 3 -0.002839 -0.003361 0.015270 0.000000 0.000000 0.000000
# 4 0.000000 0.000000 0.000000 0.045401 0.000000 0.000000
# 5 0.000000 0.000000 0.000000 0.000000 0.046068 0.000000
# 6 0.000000 0.000000 0.000000 0.000000 0.000000 0.053360
#
#
# Mechanical properties :
#
#
# Convention : Reuss Voigt Hill
#
# Bulk Modulus (GPa) = 39.87756 40.34923 40.11339
# Shear Modulus (GPa) = 23.35139 24.13549 23.74344
#
# Velocity S-wave (km/s) = 3.44336 3.50070 3.47215
# Velocity P-wave (km/s) = 6.00475 6.06855 6.03673
#
# Compressibility (1/GPa) = 0.02507676
#
# Stress axis : x y z
#
# Youngs Moduli (GPa) = 66.49865 78.76090 65.48856
#
# Poissons Ratio (x) = 0.21766 0.18592
# Poissons Ratio (y) = 0.18377 0.22013
# Poissons Ratio (z) = 0.18878 0.26474
#
# Static dielectric constant tensor:
#      x y z
#    x 3.251770 0.000000 0.000000 
#    y 0.000000 3.842450 0.000000 
#    z 0.000000 0.000000 3.814990 
# 
# 
# High freq. dielectric constant tensor:
#      x y z
#    x 1.726730 0.000000 0.000000 
#    y 0.000000 1.765890 0.000000 
#    z 0.000000 0.000000 1.779920 
# 
# From -- ./inp_files/40210.got.cif
#   From: 2010.06.25/outbox.cif.g09.slc.cpg/sg71_21_cif.got.tgz:40210.got - 2010.06.28 04:59:45.
