data_PCOD8290522
_publ_section_title
;
Structure prediction by ZEFSAII (Michael W. Deem and Ramdas Pophale) SiO2 
 PCOD8290522
Probable space group: I M M M
;
_chemical_formula_sum "Si O2"
_cell_formula_units_Z 96
_cell_length_a 21.436806
_cell_length_b 12.378780
_cell_length_c 18.694994
_cell_angle_alpha 90.000000
_cell_angle_beta 90.000000
_cell_angle_gamma 90.000000
_cell_volume 4960.931751
_symmetry_space_group_name_H-M "I M M M"
_symmetry_group_IT_number 71
_symmetry_cell_setting 'orthorhombic'
loop_
_space_group_symop_operation_xyz
x,y,z
-x,-y,z
x,-y,-z
-x,y,-z
-x,-y,-z
x,y,-z
-x,y,z
x,-y,z
1/2+x,1/2+y,1/2+z
1/2-x,1/2-y,1/2+z
1/2+x,1/2-y,1/2-z
1/2-x,1/2+y,1/2-z
1/2-x,1/2-y,1/2-z
1/2+x,1/2+y,1/2-z
1/2-x,1/2+y,1/2+z
1/2+x,1/2-y,1/2+z
loop_
_atom_site_type_symbol
_atom_site_label
_atom_site_fract_x
_atom_site_fract_y
_atom_site_fract_z
Si Si1 0.570712 0.731694 0.583139
Si Si2 0.677391 0.211987 0.917107
Si Si3 0.112188 0.000000 0.083589
Si Si4 0.429981 0.874268 0.836632
Si Si5 0.287185 0.622863 0.801831
Si Si6 0.749194 0.000000 0.085079
Si Si7 0.652825 0.200750 0.709827
O O1 0.589085 0.749551 0.500000
O O2 0.500000 0.772507 0.597243
O O3 0.573088 0.605476 0.605003
O O4 0.621361 0.793915 0.631283
O O5 0.604944 0.189256 0.900367
O O6 0.700062 0.318752 0.877135
O O7 0.715619 0.108438 0.886543
O O8 0.688695 0.231691 0.000000
O O9 0.181415 0.000000 0.118203
O O10 0.124633 0.000000 0.000000
O O11 0.500000 0.829200 0.833641
O O12 0.398447 0.851501 0.760786
O O13 0.428982 0.000000 0.854694
O O14 0.310802 0.500000 0.805331
O O15 0.325317 0.681605 0.738227
O O16 0.212862 0.623555 0.790012
O O17 0.745920 0.000000 0.000000
#
# Coordination Sequence:
#
# PCOD8290522 Si02
#       7
#    16  16   8  16  16   8  16
#     4  10  20  34  53  79 110 143 183 227 274 331
#     4  10  20  35  56  84 115 148 184 233 288 338
#     4   9  17  28  45  73 106 137 172 217 270 325
#     4  10  20  35  57  83 112 148 190 234 280 333
#     4  10  22  38  56  83 113 148 191 232 281 344
#     4   9  16  29  51  79 111 142 176 219 278 331
#     4  10  21  37  57  80 110 150 185 237 282 335
#
# _framework density 19.351203999999999
#
# number of rings (size 3 to 8) (size 9 to 14) (size 15 to 20)
#    0.000    2.167    0.833    2.250    1.167    3.667 
#    1.500    0.833    0.000    6.000    0.000   10.500 
#    0.000    0.000    0.000    0.000    0.000    0.000 
#
# Total GULP energy -595156.887499 kJ/mol
# GULP energy per Si atom -12399.101823 kJ/mol
# Density = 1.930716 g / cm^3
# Si number density = 19.351204 Si / 1000 Ang^3
#
#
#
# Elastic Constant Matrix: (Units=GPa)
#
#
# Indices 1 2 3 4 5 6 
#
# 1 114.0155 19.2321 29.5004 0.0000 0.0000 0.0000
# 2 19.2321 83.4240 17.2315 0.0000 0.0000 0.0000
# 3 29.5004 17.2315 84.4895 0.0000 0.0000 0.0000
# 4 0.0000 0.0000 0.0000 23.4192 0.0000 0.0000
# 5 0.0000 0.0000 0.0000 0.0000 28.8775 0.0000
# 6 0.0000 0.0000 0.0000 0.0000 0.0000 20.3646
#
#
#
# Elastic Compliance Matrix: (Units=1/GPa)
#
#
# Indices 1 2 3 4 5 6 
#
# 1 0.009849 -0.001629 -0.003107 0.000000 0.000000 0.000000
# 2 -0.001629 0.012784 -0.002038 0.000000 0.000000 0.000000
# 3 -0.003107 -0.002038 0.013336 0.000000 0.000000 0.000000
# 4 0.000000 0.000000 0.000000 0.042700 0.000000 0.000000
# 5 0.000000 0.000000 0.000000 0.000000 0.034629 0.000000
# 6 0.000000 0.000000 0.000000 0.000000 0.000000 0.049105
#
#
# Mechanical properties :
#
#
# Convention : Reuss Voigt Hill
#
# Bulk Modulus (GPa) = 44.60122 45.98412 45.29267
# Shear Modulus (GPa) = 27.25911 28.92993 28.09452
#
# Velocity S-wave (km/s) = 3.75727 3.87071 3.81441
# Velocity P-wave (km/s) = 6.47465 6.61748 6.54646
#
# Compressibility (1/GPa) = 0.02242091
#
# Stress axis : x y z
#
# Youngs Moduli (GPa) = 101.52955 78.22574 74.98331
#
# Poissons Ratio (x) = 0.12742 0.23296
# Poissons Ratio (y) = 0.16538 0.15285
# Poissons Ratio (z) = 0.31543 0.15946
#
# Static dielectric constant tensor:
#      x y z
#    x 3.655520 0.000000 0.000000 
#    y 0.000000 3.317710 0.000000 
#    z 0.000000 0.000000 3.408660 
# 
# 
# High freq. dielectric constant tensor:
#      x y z
#    x 1.759890 0.000000 0.000000 
#    y 0.000000 1.730190 0.000000 
#    z 0.000000 0.000000 1.747070 
# 
# From -- ./inp_files/54925.got.cif
#   From: 2010.06.25/outbox.cif.g09.slc.cpg/sg71_28_cif.got.tgz:54925.got - 2010.06.28 04:59:45.
