data_PCOD8290879
_publ_section_title
;
Structure prediction by ZEFSAII (Michael W. Deem and Ramdas Pophale) SiO2 
 PCOD8290879
Probable space group: I M M M
;
_chemical_formula_sum "Si O2"
_cell_formula_units_Z 88
_cell_length_a 13.612781
_cell_length_b 28.878177
_cell_length_c 12.690676
_cell_angle_alpha 90.000000
_cell_angle_beta 90.000000
_cell_angle_gamma 90.000000
_cell_volume 4988.860821
_symmetry_space_group_name_H-M "I M M M"
_symmetry_group_IT_number 71
_symmetry_cell_setting 'orthorhombic'
loop_
_space_group_symop_operation_xyz
x,y,z
-x,-y,z
x,-y,-z
-x,y,-z
-x,-y,-z
x,y,-z
-x,y,z
x,-y,z
1/2+x,1/2+y,1/2+z
1/2-x,1/2-y,1/2+z
1/2+x,1/2-y,1/2-z
1/2-x,1/2+y,1/2-z
1/2-x,1/2-y,1/2-z
1/2+x,1/2+y,1/2-z
1/2-x,1/2+y,1/2+z
1/2+x,1/2-y,1/2+z
loop_
_atom_site_type_symbol
_atom_site_label
_atom_site_fract_x
_atom_site_fract_y
_atom_site_fract_z
Si Si1 0.218182 0.296881 0.121990
Si Si2 0.722705 0.945537 0.794061
Si Si3 0.608769 0.945049 0.000000
Si Si4 0.885332 0.391706 0.122551
Si Si5 0.112648 0.112792 0.879390
Si Si6 0.613586 0.288737 0.714247
O O1 0.164188 0.343731 0.157666
O O2 0.321393 0.290964 0.180768
O O3 0.143352 0.255352 0.145088
O O4 0.244352 0.298026 0.000000
O O5 0.662062 0.927467 0.894965
O O6 0.664204 0.933052 0.688159
O O7 0.826895 0.919550 0.799334
O O8 0.741570 0.000000 0.796347
O O9 0.500000 0.923550 0.000000
O O10 0.604341 0.000000 0.000000
O O11 0.000000 0.389234 0.149233
O O12 0.867538 0.402391 0.000000
O O13 0.133420 0.166535 0.857302
O O14 0.000000 0.100495 0.857865
O O15 0.141456 0.101960 0.000000
O O16 0.500000 0.284888 0.748117
#
# Coordination Sequence:
#
# PCOD8290879 Si02
#       6
#    16  16   8  16  16  16
#     4  10  20  35  57  83 111 142 176 218 266 318
#     4  11  21  35  54  78 109 142 184 234 277 324
#     4   9  18  32  51  75 103 139 176 220 283 335
#     4  10  21  37  57  81 109 144 186 227 270 323
#     4  10  20  35  56  82 111 143 181 223 271 327
#     4  10  20  35  57  83 111 143 177 216 265 321
#
# _framework density 17.639296999999999
#
# number of rings (size 3 to 8) (size 9 to 14) (size 15 to 20)
#    0.000    1.909    2.727    1.636    0.000    4.000 
#    0.000    1.818    0.000    0.545    0.000    1.273 
#    0.000    0.000    0.000    0.000    0.000    0.000 
#
# Total GULP energy -545745.700624 kJ/mol
# GULP energy per Si atom -12403.311378 kJ/mol
# Density = 1.759915 g / cm^3
# Si number density = 17.639297 Si / 1000 Ang^3
#
#
#
# Elastic Constant Matrix: (Units=GPa)
#
#
# Indices 1 2 3 4 5 6 
#
# 1 108.5955 44.8407 40.2987 0.0001 -0.0001 0.0000
# 2 44.8407 83.7978 29.8547 0.0000 0.0000 0.0000
# 3 40.2987 29.8547 68.9382 0.0014 -0.0004 -0.0002
# 4 0.0001 0.0000 0.0014 28.8843 0.0000 0.0000
# 5 -0.0001 0.0000 -0.0004 0.0000 26.4185 0.0001
# 6 0.0000 0.0000 -0.0002 0.0000 0.0001 26.1302
#
#
#
# Elastic Compliance Matrix: (Units=1/GPa)
#
#
# Indices 1 2 3 4 5 6 
#
# 1 0.013431 -0.005191 -0.005603 0.000000 0.000000 0.000000
# 2 -0.005191 0.016117 -0.003945 0.000000 0.000000 0.000000
# 3 -0.005603 -0.003945 0.019490 -0.000001 0.000000 0.000000
# 4 0.000000 0.000000 -0.000001 0.034621 0.000000 0.000000
# 5 0.000000 0.000000 0.000000 0.000000 0.037852 0.000000
# 6 0.000000 0.000000 0.000000 0.000000 0.000000 0.038270
#
#
# Mechanical properties :
#
#
# Convention : Reuss Voigt Hill
#
# Bulk Modulus (GPa) = 51.12780 54.59109 52.85945
# Shear Modulus (GPa) = 25.53896 26.04243 25.79070
#
# Velocity S-wave (km/s) = 3.80918 3.84655 3.82791
# Velocity P-wave (km/s) = 6.95662 7.12346 7.04053
#
# Compressibility (1/GPa) = 0.01955883
#
# Stress axis : x y z
#
# Youngs Moduli (GPa) = 74.45341 62.04756 51.30878
#
# Poissons Ratio (x) = 0.32208 0.28751
# Poissons Ratio (y) = 0.38647 0.20242
# Poissons Ratio (z) = 0.41720 0.24479
#
# Static dielectric constant tensor:
#      x y z
#    x 3.346050 0.000000 0.000000 
#    y 0.000000 3.212060 0.000000 
#    z 0.000000 0.000000 3.209070 
# 
# 
# High freq. dielectric constant tensor:
#      x y z
#    x 1.690510 0.000000 0.000000 
#    y 0.000000 1.680650 0.000000 
#    z 0.000000 0.000000 1.678160 
# 
# From -- ./inp_files/20286.got.cif
#   From: 2010.06.25/outbox.cif.g09.slc.cpg/sg71_11_cif.got.tgz:20286.got - 2010.06.28 04:59:45.
