data_PCOD8290970
_publ_section_title
;
Structure prediction by ZEFSAII (Michael W. Deem and Ramdas Pophale) SiO2 
 PCOD8290970
Probable space group: I M M M
;
_chemical_formula_sum "Si O2"
_cell_formula_units_Z 96
_cell_length_a 14.337299
_cell_length_b 12.323669
_cell_length_c 27.650610
_cell_angle_alpha 90.000000
_cell_angle_beta 90.000000
_cell_angle_gamma 90.000000
_cell_volume 4885.534498
_symmetry_space_group_name_H-M "I M M M"
_symmetry_group_IT_number 71
_symmetry_cell_setting 'orthorhombic'
loop_
_space_group_symop_operation_xyz
x,y,z
-x,-y,z
x,-y,-z
-x,y,-z
-x,-y,-z
x,y,-z
-x,y,z
x,-y,z
1/2+x,1/2+y,1/2+z
1/2-x,1/2-y,1/2+z
1/2+x,1/2-y,1/2-z
1/2-x,1/2+y,1/2-z
1/2-x,1/2-y,1/2-z
1/2+x,1/2+y,1/2-z
1/2-x,1/2+y,1/2+z
1/2+x,1/2-y,1/2+z
loop_
_atom_site_type_symbol
_atom_site_label
_atom_site_fract_x
_atom_site_fract_y
_atom_site_fract_z
Si Si1 0.894322 0.878337 0.870564
Si Si2 0.726941 0.377704 0.116116
Si Si3 0.107378 0.694047 0.056583
Si Si4 0.897260 0.730356 0.444996
Si Si5 0.604651 0.000000 0.810256
Si Si6 0.736979 0.203031 0.197373
Si Si7 0.102841 0.500000 0.577083
O O1 0.878062 0.812982 0.920321
O O2 0.831511 0.845221 0.824981
O O3 0.000000 0.864800 0.852160
O O4 0.869320 0.000000 0.885396
O O5 0.699402 0.500000 0.130389
O O6 0.829536 0.382225 0.090987
O O7 0.658667 0.329856 0.076322
O O8 0.710634 0.303964 0.163206
O O9 0.000000 0.655151 0.060483
O O10 0.138785 0.694362 0.000000
O O11 0.907123 0.760463 0.500000
O O12 0.845756 0.612352 0.438419
O O13 0.000000 0.723258 0.420397
O O14 0.658785 0.889842 0.796394
O O15 0.593701 0.000000 0.866577
O O16 0.500000 0.000000 0.786565
O O17 0.750000 0.250000 0.250000
O O18 0.000000 0.500000 0.552131
#
# Coordination Sequence:
#
# PCOD8290970 Si02
#       7
#    16  16  16  16   8  16   8
#     4   9  18  35  60  88 119 152 192 242 300 362
#     4  11  24  39  56  83 119 156 200 245 296 352
#     4   9  19  36  57  83 116 156 200 245 293 347
#     4  10  20  35  57  86 120 158 197 238 286 345
#     4  11  22  41  69  96 121 153 197 253 305 355
#     4  11  24  41  65  87 119 154 200 248 309 360
#     4   9  17  34  59  87 117 149 191 241 289 336
#
# _framework density 19.649844999999999
#
# number of rings (size 3 to 8) (size 9 to 14) (size 15 to 20)
#    0.000    2.000    2.500    0.750    1.167    4.000 
#    0.000    3.333    0.000    0.000    0.000    0.000 
#    0.000    0.000    0.000    0.000    0.000    0.000 
#
# Total GULP energy -594758.710750 kJ/mol
# GULP energy per Si atom -12390.806474 kJ/mol
# Density = 1.960512 g / cm^3
# Si number density = 19.649845 Si / 1000 Ang^3
#
#
#
# Elastic Constant Matrix: (Units=GPa)
#
#
# Indices 1 2 3 4 5 6 
#
# 1 76.5572 53.5219 29.8470 0.0000 0.0000 0.0000
# 2 53.5219 162.0890 40.3245 0.0000 0.0000 0.0000
# 3 29.8470 40.3245 99.0632 0.0000 0.0000 0.0000
# 4 0.0000 0.0000 0.0000 25.0361 0.0000 0.0000
# 5 0.0000 0.0000 0.0000 0.0000 19.9652 0.0000
# 6 0.0000 0.0000 0.0000 0.0000 0.0000 96.3296
#
#
#
# Elastic Compliance Matrix: (Units=1/GPa)
#
#
# Indices 1 2 3 4 5 6 
#
# 1 0.017916 -0.005088 -0.003327 0.000000 0.000000 0.000000
# 2 -0.005088 0.008310 -0.001849 0.000000 0.000000 0.000000
# 3 -0.003327 -0.001849 0.011850 0.000000 0.000000 0.000000
# 4 0.000000 0.000000 0.000000 0.039942 0.000000 0.000000
# 5 0.000000 0.000000 0.000000 0.000000 0.050087 0.000000
# 6 0.000000 0.000000 0.000000 0.000000 0.000000 0.010381
#
#
# Mechanical properties :
#
#
# Convention : Reuss Voigt Hill
#
# Bulk Modulus (GPa) = 56.99102 65.01071 61.00087
# Shear Modulus (GPa) = 30.32789 42.53392 36.43091
#
# Velocity S-wave (km/s) = 3.93290 4.65757 4.31049
# Velocity P-wave (km/s) = 7.04910 7.87911 7.47563
#
# Compressibility (1/GPa) = 0.01754662
#
# Stress axis : x y z
#
# Youngs Moduli (GPa) = 55.81451 120.34060 84.38997
#
# Poissons Ratio (x) = 0.61234 0.28075
# Poissons Ratio (y) = 0.28401 0.15608
# Poissons Ratio (z) = 0.18569 0.22256
#
# Static dielectric constant tensor:
#      x y z
#    x 4.192860 0.000000 0.000000 
#    y 0.000000 3.418700 0.000000 
#    z 0.000000 0.000000 3.396400 
# 
# 
# High freq. dielectric constant tensor:
#      x y z
#    x 1.765170 0.000000 0.000000 
#    y 0.000000 1.769040 0.000000 
#    z 0.000000 0.000000 1.750730 
# 
# From -- ./inp_files/69891.got.cif
#   From: 2010.06.25/outbox.cif.g09.slc.cpg/sg71_35_cif.got.tgz:69891.got - 2010.06.28 04:59:45.
