data_PCOD8290188
_publ_section_title
;
Structure prediction by ZEFSAII (Michael W. Deem and Ramdas Pophale) SiO2 
 PCOD8290188
Probable space group: I M M M
;
_chemical_formula_sum "Si O2"
_cell_formula_units_Z 104
_cell_length_a 9.292620
_cell_length_b 23.888308
_cell_length_c 26.023551
_cell_angle_alpha 90.000000
_cell_angle_beta 90.000000
_cell_angle_gamma 90.000000
_cell_volume 5776.837154
_symmetry_space_group_name_H-M "I M M M"
_symmetry_group_IT_number 71
_symmetry_cell_setting 'orthorhombic'
loop_
_space_group_symop_operation_xyz
x,y,z
-x,-y,z
x,-y,-z
-x,y,-z
-x,-y,-z
x,y,-z
-x,y,z
x,-y,z
1/2+x,1/2+y,1/2+z
1/2-x,1/2-y,1/2+z
1/2+x,1/2-y,1/2-z
1/2-x,1/2+y,1/2-z
1/2-x,1/2-y,1/2-z
1/2+x,1/2+y,1/2-z
1/2-x,1/2+y,1/2+z
1/2+x,1/2-y,1/2+z
loop_
_atom_site_type_symbol
_atom_site_label
_atom_site_fract_x
_atom_site_fract_y
_atom_site_fract_z
Si Si1 0.668727 0.064775 0.879958
Si Si2 0.338087 0.933304 0.500000
Si Si3 0.166041 0.064090 0.597121
Si Si4 0.332055 0.342702 0.439704
Si Si5 0.832144 0.151168 0.317759
Si Si6 0.335058 0.765819 0.865360
Si Si7 0.338308 0.137108 0.214675
O O1 0.500000 0.075328 0.890656
O O2 0.758317 0.099518 0.921754
O O3 0.707128 0.085761 0.822505
O O4 0.710987 0.000000 0.885069
O O5 0.500000 0.910390 0.500000
O O6 0.258260 0.910461 0.449560
O O7 0.331429 0.000000 0.500000
O O8 0.204723 0.097327 0.648312
O O9 0.000000 0.070880 0.581665
O O10 0.206566 0.000000 0.608172
O O11 0.306841 0.335510 0.500000
O O12 0.500000 0.345192 0.425625
O O13 0.261210 0.289226 0.411819
O O14 0.772495 0.206000 0.347134
O O15 0.764645 0.140294 0.262821
O O16 0.000000 0.159550 0.308436
O O17 0.500000 0.761201 0.884774
O O18 0.324344 0.805646 0.816373
O O19 0.500000 0.128305 0.234882
#
# Coordination Sequence:
#
# PCOD8290188 Si02
#       7
#    16   8  16  16  16  16  16
#     4   9  19  36  56  79 108 143 182 216 251 306
#     4   9  17  31  51  71  91 121 161 199 238 289
#     4   9  18  33  51  71  99 132 163 201 251 303
#     4  10  21  36  54  78 108 138 171 218 273 319
#     4  10  20  33  51  77 103 132 175 216 253 306
#     4   9  19  36  54  73  99 135 178 217 255 308
#     4   9  18  32  51  74 102 135 169 210 260 302
#
# _framework density 18.002929999999999
#
# number of rings (size 3 to 8) (size 9 to 14) (size 15 to 20)
#    0.000    2.692    0.000    2.077    0.000    7.077 
#    1.385    1.538    0.000    0.000    0.000    0.000 
#    0.000    0.000    0.000    0.000    0.000    0.000 
#
# Total GULP energy -644834.074877 kJ/mol
# GULP energy per Si atom -12400.655286 kJ/mol
# Density = 1.796195 g / cm^3
# Si number density = 18.002930 Si / 1000 Ang^3
#
#
#
# Elastic Constant Matrix: (Units=GPa)
#
#
# Indices 1 2 3 4 5 6 
#
# 1 77.6890 33.7762 65.8321 0.0000 0.0000 0.0000
# 2 33.7762 66.0490 50.0884 0.0000 0.0000 0.0000
# 3 65.8321 50.0884 123.8088 0.0000 0.0000 0.0000
# 4 0.0000 0.0000 0.0000 12.0855 0.0000 0.0000
# 5 0.0000 0.0000 0.0000 0.0000 34.8745 0.0000
# 6 0.0000 0.0000 0.0000 0.0000 0.0000 17.1628
#
#
#
# Elastic Compliance Matrix: (Units=1/GPa)
#
#
# Indices 1 2 3 4 5 6 
#
# 1 0.024056 -0.003753 -0.011273 0.000000 0.000000 0.000000
# 2 -0.003753 0.022427 -0.007077 0.000000 0.000000 0.000000
# 3 -0.011273 -0.007077 0.016934 0.000000 0.000000 0.000000
# 4 0.000000 0.000000 0.000000 0.082744 0.000000 0.000000
# 5 0.000000 0.000000 0.000000 0.000000 0.028674 0.000000
# 6 0.000000 0.000000 0.000000 0.000000 0.000000 0.058266
#
#
# Mechanical properties :
#
#
# Convention : Reuss Voigt Hill
#
# Bulk Modulus (GPa) = 52.05520 62.99333 57.52427
# Shear Modulus (GPa) = 17.62363 20.68124 19.15243
#
# Velocity S-wave (km/s) = 3.13218 3.39303 3.26521
# Velocity P-wave (km/s) = 6.48524 7.10048 6.79982
#
# Compressibility (1/GPa) = 0.01921038
#
# Stress axis : x y z
#
# Youngs Moduli (GPa) = 41.57010 44.58985 59.05216
#
# Poissons Ratio (x) = 0.16734 0.66568
# Poissons Ratio (y) = 0.15601 0.41794
# Poissons Ratio (z) = 0.46861 0.31558
#
# Static dielectric constant tensor:
#      x y z
#    x 3.328010 0.000000 0.000000 
#    y 0.000000 3.390220 0.000000 
#    z 0.000000 0.000000 3.217760 
# 
# 
# High freq. dielectric constant tensor:
#      x y z
#    x 1.693620 0.000000 0.000000 
#    y 0.000000 1.693490 0.000000 
#    z 0.000000 0.000000 1.695670 
# 
# From -- ./inp_files/13297.got.cif
#   From: 2010.06.25/outbox.cif.g09.slc.cpg/sg71_7_cif.got.tgz:13297.got - 2010.06.28 04:59:45.
