data_PCOD8290675
_publ_section_title
;
Structure prediction by ZEFSAII (Michael W. Deem and Ramdas Pophale) SiO2 
 PCOD8290675
Probable space group: I M M M
;
_chemical_formula_sum "Si O2"
_cell_formula_units_Z 112
_cell_length_a 15.146472
_cell_length_b 14.305510
_cell_length_c 26.475031
_cell_angle_alpha 90.000000
_cell_angle_beta 90.000000
_cell_angle_gamma 90.000000
_cell_volume 5736.556943
_symmetry_space_group_name_H-M "I M M M"
_symmetry_group_IT_number 71
_symmetry_cell_setting 'orthorhombic'
loop_
_space_group_symop_operation_xyz
x,y,z
-x,-y,z
x,-y,-z
-x,y,-z
-x,-y,-z
x,y,-z
-x,y,z
x,-y,z
1/2+x,1/2+y,1/2+z
1/2-x,1/2-y,1/2+z
1/2+x,1/2-y,1/2-z
1/2-x,1/2+y,1/2-z
1/2-x,1/2-y,1/2-z
1/2+x,1/2+y,1/2-z
1/2-x,1/2+y,1/2+z
1/2+x,1/2-y,1/2+z
loop_
_atom_site_type_symbol
_atom_site_label
_atom_site_fract_x
_atom_site_fract_y
_atom_site_fract_z
Si Si1 0.850874 0.895393 0.941824
Si Si2 0.099490 0.275919 0.119286
Si Si3 0.704133 0.309468 0.292848
Si Si4 0.680805 0.895550 0.878470
Si Si5 0.241758 0.607905 0.058703
Si Si6 0.399509 0.395005 0.208839
Si Si7 0.898850 0.793075 0.389987
O O1 0.908249 0.822529 0.910117
O O2 0.749609 0.891104 0.924353
O O3 0.888951 0.000000 0.933346
O O4 0.854917 0.866262 0.000000
O O5 0.142750 0.258823 0.173896
O O6 0.159993 0.349082 0.089323
O O7 0.000000 0.316011 0.125337
O O8 0.750000 0.250000 0.250000
O O9 0.772090 0.368316 0.326245
O O10 0.646016 0.384683 0.262915
O O11 0.605168 0.819884 0.890946
O O12 0.640104 0.000000 0.873754
O O13 0.252630 0.500000 0.074386
O O14 0.333720 0.661807 0.068940
O O15 0.219381 0.618582 0.000000
O O16 0.500000 0.368413 0.218032
O O17 0.387081 0.500000 0.188934
O O18 0.362800 0.327282 0.164709
O O19 0.000000 0.824735 0.400375
#
# Coordination Sequence:
#
# PCOD8290675 Si02
#       7
#    16  16  16  16  16  16  16
#     4   9  18  34  58  86 118 157 196 234 286 354
#     4  11  23  38  60  91 126 158 198 249 297 355
#     4  11  19  36  59  84 116 161 201 246 292 347
#     4  10  20  35  57  86 118 156 198 245 299 356
#     4  11  24  43  65  88 118 157 201 249 305 366
#     4  10  20  34  55  83 115 151 194 243 295 350
#     4  11  22  39  62  88 120 155 200 254 307 362
#
# _framework density 19.523907000000001
#
# number of rings (size 3 to 8) (size 9 to 14) (size 15 to 20)
#    0.000    1.571    4.286    1.714    0.000    3.714 
#    0.000    2.857    0.000    0.000    0.000    3.000 
#    0.000    0.000    0.000    0.000    0.000    0.000 
#
# Total GULP energy -694327.659885 kJ/mol
# GULP energy per Si atom -12398.708212 kJ/mol
# Density = 1.947947 g / cm^3
# Si number density = 19.523907 Si / 1000 Ang^3
#
#
#
# Elastic Constant Matrix: (Units=GPa)
#
#
# Indices 1 2 3 4 5 6 
#
# 1 92.5026 39.3712 37.4207 0.0000 0.0000 0.0000
# 2 39.3712 120.7960 33.8097 0.0000 0.0000 0.0000
# 3 37.4207 33.8097 93.6089 0.0000 0.0000 0.0000
# 4 0.0000 0.0000 0.0000 30.9777 0.0000 0.0000
# 5 0.0000 0.0000 0.0000 0.0000 16.0697 0.0000
# 6 0.0000 0.0000 0.0000 0.0000 0.0000 22.9952
#
#
#
# Elastic Compliance Matrix: (Units=1/GPa)
#
#
# Indices 1 2 3 4 5 6 
#
# 1 0.014008 -0.003336 -0.004395 0.000000 0.000000 0.000000
# 2 -0.003336 0.010004 -0.002280 0.000000 0.000000 0.000000
# 3 -0.004395 -0.002280 0.013263 0.000000 0.000000 0.000000
# 4 0.000000 0.000000 0.000000 0.032281 0.000000 0.000000
# 5 0.000000 0.000000 0.000000 0.000000 0.062229 0.000000
# 6 0.000000 0.000000 0.000000 0.000000 0.000000 0.043487
#
#
# Mechanical properties :
#
#
# Convention : Reuss Voigt Hill
#
# Bulk Modulus (GPa) = 57.95701 58.67898 58.31800
# Shear Modulus (GPa) = 24.87011 27.09558 25.98285
#
# Velocity S-wave (km/s) = 3.57295 3.72938 3.65200
# Velocity P-wave (km/s) = 6.83892 6.97600 6.90780
#
# Compressibility (1/GPa) = 0.01725417
#
# Stress axis : x y z
#
# Youngs Moduli (GPa) = 71.38691 99.96350 75.39719
#
# Poissons Ratio (x) = 0.33343 0.33138
# Poissons Ratio (y) = 0.23811 0.17188
# Poissons Ratio (z) = 0.31375 0.22789
#
# Static dielectric constant tensor:
#      x y z
#    x 3.388360 0.000000 0.000000 
#    y 0.000000 3.770990 0.000000 
#    z 0.000000 0.000000 3.759320 
# 
# 
# High freq. dielectric constant tensor:
#      x y z
#    x 1.745430 0.000000 0.000000 
#    y 0.000000 1.764320 0.000000 
#    z 0.000000 0.000000 1.764800 
# 
# From -- ./inp_files/34862.got.cif
#   From: 2010.06.25/outbox.cif.g09.slc.cpg/sg71_18_cif.got.tgz:34862.got - 2010.06.28 04:59:45.
