data_PCOD8290111
_publ_section_title
;
Structure prediction by ZEFSAII (Michael W. Deem and Ramdas Pophale) SiO2 
 PCOD8290111
Probable space group: I M M M
;
_chemical_formula_sum "Si O2"
_cell_formula_units_Z 88
_cell_length_a 18.327565
_cell_length_b 29.165228
_cell_length_c 9.414211
_cell_angle_alpha 90.000000
_cell_angle_beta 90.000000
_cell_angle_gamma 90.000000
_cell_volume 5032.155724
_symmetry_space_group_name_H-M "I M M M"
_symmetry_group_IT_number 71
_symmetry_cell_setting 'orthorhombic'
loop_
_space_group_symop_operation_xyz
x,y,z
-x,-y,z
x,-y,-z
-x,y,-z
-x,-y,-z
x,y,-z
-x,y,z
x,-y,z
1/2+x,1/2+y,1/2+z
1/2-x,1/2-y,1/2+z
1/2+x,1/2-y,1/2-z
1/2-x,1/2+y,1/2-z
1/2-x,1/2-y,1/2-z
1/2+x,1/2+y,1/2-z
1/2-x,1/2+y,1/2+z
1/2+x,1/2-y,1/2+z
loop_
_atom_site_type_symbol
_atom_site_label
_atom_site_fract_x
_atom_site_fract_y
_atom_site_fract_z
Si Si1 0.579646 0.353558 0.668916
Si Si2 0.083284 0.749785 0.159885
Si Si3 0.000000 0.449501 0.831242
Si Si4 0.341944 0.945449 0.337605
Si Si5 0.703352 0.213142 0.834737
Si Si6 0.768428 0.113472 0.164271
O O1 0.578548 0.352015 0.500000
O O2 0.500000 0.371564 0.724370
O O3 0.592368 0.301431 0.720198
O O4 0.646996 0.385508 0.719999
O O5 0.122926 0.714893 0.266703
O O6 0.000000 0.734419 0.157101
O O7 0.116287 0.746543 0.000000
O O8 0.077570 0.426075 0.786324
O O9 0.000000 0.500000 0.763055
O O10 0.000000 0.454063 0.000000
O O11 0.328446 0.931214 0.500000
O O12 0.276712 0.924545 0.247042
O O13 0.340485 0.000000 0.319852
O O14 0.750000 0.250000 0.750000
O O15 0.734729 0.163041 0.809324
O O16 0.701173 0.225912 0.000000
O O17 0.765915 0.099730 0.000000
#
# Coordination Sequence:
#
# PCOD8290111 Si02
#       6
#    16  16   8  16  16  16
#     4   8  14  28  50  71  94 127 167 207 242 283
#     4   9  17  32  52  70  93 131 176 214 249 293
#     4   7  12  28  53  75  95 123 161 201 237 283
#     4   9  18  34  56  78  99 126 163 206 249 294
#     4  11  21  33  49  71 103 137 170 210 254 299
#     4  10  20  33  50  75 102 130 165 204 252 302
#
# _framework density 17.487535000000001
#
# number of rings (size 3 to 8) (size 9 to 14) (size 15 to 20)
#    0.000    2.818    1.818    2.727    0.000    2.182 
#    1.636    0.455    0.000    2.727    0.000    3.818 
#    0.000    0.000    0.000    0.000    0.000    0.000 
#
# Total GULP energy -545112.527591 kJ/mol
# GULP energy per Si atom -12388.921082 kJ/mol
# Density = 1.744773 g / cm^3
# Si number density = 17.487535 Si / 1000 Ang^3
#
#
#
# Elastic Constant Matrix: (Units=GPa)
#
#
# Indices 1 2 3 4 5 6 
#
# 1 161.7609 41.8700 49.2564 -0.0001 0.0001 0.0000
# 2 41.8700 34.3797 30.5264 0.0000 0.0000 0.0000
# 3 49.2564 30.5264 59.5783 -0.0017 -0.0003 0.0005
# 4 -0.0001 0.0000 -0.0017 26.7268 0.0000 0.0002
# 5 0.0001 0.0000 -0.0003 0.0000 29.1607 0.0000
# 6 0.0000 0.0000 0.0005 0.0002 0.0000 27.8011
#
#
#
# Elastic Compliance Matrix: (Units=1/GPa)
#
#
# Indices 1 2 3 4 5 6 
#
# 1 0.009410 -0.008352 -0.003500 0.000000 0.000000 0.000000
# 2 -0.008352 0.060778 -0.024236 -0.000002 0.000000 0.000001
# 3 -0.003500 -0.024236 0.032096 0.000002 0.000000 -0.000001
# 4 0.000000 -0.000002 0.000002 0.037416 0.000000 0.000000
# 5 0.000000 0.000000 0.000000 0.000000 0.034293 0.000000
# 6 0.000000 0.000001 -0.000001 0.000000 0.000000 0.035970
#
#
# Mechanical properties :
#
#
# Convention : Reuss Voigt Hill
#
# Bulk Modulus (GPa) = 33.21404 55.44715 44.33059
# Shear Modulus (GPa) = 17.11305 25.67545 21.39425
#
# Velocity S-wave (km/s) = 3.13163 3.83589 3.50151
# Velocity P-wave (km/s) = 5.66660 7.16897 6.46160
#
# Compressibility (1/GPa) = 0.03010775
#
# Stress axis : x y z
#
# Youngs Moduli (GPa) = 106.27543 16.45325 31.15619
#
# Poissons Ratio (x) = 0.13741 0.10905
# Poissons Ratio (y) = 0.88759 0.75511
# Poissons Ratio (z) = 0.37197 0.39877
#
# Static dielectric constant tensor:
#      x y z
#    x 3.935010 0.000000 0.000000 
#    y 0.000000 2.921710 0.000000 
#    z 0.000000 0.000000 3.145520 
# 
# 
# High freq. dielectric constant tensor:
#      x y z
#    x 1.700260 0.000000 0.000000 
#    y 0.000000 1.634180 0.000000 
#    z 0.000000 0.000000 1.645830 
# 
# From -- ./inp_files/8728.got.cif
#   From: 2010.06.25/outbox.cif.g09.slc.cpg/sg71_5_cif.got.tgz:8728.got - 2010.06.28 04:59:45.
