data_PCOD8290857
_publ_section_title
;
Structure prediction by ZEFSAII (Michael W. Deem and Ramdas Pophale) SiO2 
 PCOD8290857
Probable space group: I M M M
;
_chemical_formula_sum "Si O2"
_cell_formula_units_Z 72
_cell_length_a 14.242711
_cell_length_b 12.469182
_cell_length_c 23.051660
_cell_angle_alpha 90.000000
_cell_angle_beta 90.000000
_cell_angle_gamma 90.000000
_cell_volume 4093.858535
_symmetry_space_group_name_H-M "I M M M"
_symmetry_group_IT_number 71
_symmetry_cell_setting 'orthorhombic'
loop_
_space_group_symop_operation_xyz
x,y,z
-x,-y,z
x,-y,-z
-x,y,-z
-x,-y,-z
x,y,-z
-x,y,z
x,-y,z
1/2+x,1/2+y,1/2+z
1/2-x,1/2-y,1/2+z
1/2+x,1/2-y,1/2-z
1/2-x,1/2+y,1/2-z
1/2-x,1/2-y,1/2-z
1/2+x,1/2+y,1/2-z
1/2-x,1/2+y,1/2+z
1/2+x,1/2-y,1/2+z
loop_
_atom_site_type_symbol
_atom_site_label
_atom_site_fract_x
_atom_site_fract_y
_atom_site_fract_z
Si Si1 0.609246 0.874562 0.500000
Si Si2 0.270905 0.375520 0.681845
Si Si3 0.393209 0.379425 0.112930
Si Si4 0.392368 0.741761 0.228387
Si Si5 0.259883 0.732768 0.562843
O O1 0.500000 0.850350 0.500000
O O2 0.654762 0.819163 0.442539
O O3 0.631748 0.000000 0.500000
O O4 0.288135 0.500000 0.693120
O O5 0.352419 0.305771 0.711831
O O6 0.169105 0.343715 0.707692
O O7 0.278128 0.353135 0.613085
O O8 0.500000 0.368843 0.092073
O O9 0.355860 0.500000 0.104380
O O10 0.383793 0.351510 0.180777
O O11 0.334738 0.298461 0.074113
O O12 0.500000 0.779266 0.237247
O O13 0.248376 0.673516 0.500000
#
# Coordination Sequence:
#
# PCOD8290857 Si02
#       5
#     8  16  16  16  16
#     4   9  18  34  52  68  96 139 178 214 256 296
#     4  10  20  35  56  79 105 140 177 217 265 315
#     4   9  16  28  50  78 104 130 163 209 266 318
#     4   9  19  35  54  79 108 135 171 218 265 318
#     4   9  20  33  48  73 105 139 176 217 253 304
#
# _framework density 17.587319000000001
#
# number of rings (size 3 to 8) (size 9 to 14) (size 15 to 20)
#    0.667    2.111    0.000    1.333    0.000    3.556 
#    0.000    2.222    0.000    0.667    0.000    6.222 
#    0.000    0.000    0.000    0.000    0.000    0.000 
#
# Total GULP energy -446198.984139 kJ/mol
# GULP energy per Si atom -12394.416226 kJ/mol
# Density = 1.754729 g / cm^3
# Si number density = 17.587319 Si / 1000 Ang^3
#
#
#
# Elastic Constant Matrix: (Units=GPa)
#
#
# Indices 1 2 3 4 5 6 
#
# 1 88.5713 12.8564 27.9952 0.0000 0.0000 0.0000
# 2 12.8564 56.8734 20.8358 0.0000 0.0000 0.0000
# 3 27.9952 20.8358 109.2216 0.0000 0.0000 0.0000
# 4 0.0000 0.0000 0.0000 17.0256 0.0000 0.0000
# 5 0.0000 0.0000 0.0000 0.0000 22.7292 0.0000
# 6 0.0000 0.0000 0.0000 0.0000 0.0000 18.7657
#
#
#
# Elastic Compliance Matrix: (Units=1/GPa)
#
#
# Indices 1 2 3 4 5 6 
#
# 1 0.012449 -0.001769 -0.002853 0.000000 0.000000 0.000000
# 2 -0.001769 0.019155 -0.003201 0.000000 0.000000 0.000000
# 3 -0.002853 -0.003201 0.010498 0.000000 0.000000 0.000000
# 4 0.000000 0.000000 0.000000 0.058735 0.000000 0.000000
# 5 0.000000 0.000000 0.000000 0.000000 0.043996 0.000000
# 6 0.000000 0.000000 0.000000 0.000000 0.000000 0.053289
#
#
# Mechanical properties :
#
#
# Convention : Reuss Voigt Hill
#
# Bulk Modulus (GPa) = 37.79865 42.00457 39.90161
# Shear Modulus (GPa) = 22.46312 24.56935 23.51624
#
# Velocity S-wave (km/s) = 3.57772 3.74169 3.66062
# Velocity P-wave (km/s) = 6.21332 6.52704 6.37211
#
# Compressibility (1/GPa) = 0.02645597
#
# Stress axis : x y z
#
# Youngs Moduli (GPa) = 80.32787 52.20460 95.25904
#
# Poissons Ratio (x) = 0.09234 0.27182
# Poissons Ratio (y) = 0.14208 0.30491
# Poissons Ratio (z) = 0.22921 0.16710
#
# Static dielectric constant tensor:
#      x y z
#    x 3.314460 0.000000 0.000000 
#    y 0.000000 2.982600 0.000000 
#    z 0.000000 0.000000 3.254410 
# 
# 
# High freq. dielectric constant tensor:
#      x y z
#    x 1.681810 0.000000 0.000000 
#    y 0.000000 1.658440 0.000000 
#    z 0.000000 0.000000 1.678060 
# 
# From -- ./inp_files/59574.got.cif
#   From: 2010.06.25/outbox.cif.g09.slc.cpg/sg71_30_cif.got.tgz:59574.got - 2010.06.28 04:59:45.
