data_PCOD8290467
_publ_section_title
;
Structure prediction by ZEFSAII (Michael W. Deem and Ramdas Pophale) SiO2 
 PCOD8290467
Probable space group: I M M M
;
_chemical_formula_sum "Si O2"
_cell_formula_units_Z 88
_cell_length_a 27.905742
_cell_length_b 8.523393
_cell_length_c 18.774805
_cell_angle_alpha 90.000000
_cell_angle_beta 90.000000
_cell_angle_gamma 90.000000
_cell_volume 4465.617522
_symmetry_space_group_name_H-M "I M M M"
_symmetry_group_IT_number 71
_symmetry_cell_setting 'orthorhombic'
loop_
_space_group_symop_operation_xyz
x,y,z
-x,-y,z
x,-y,-z
-x,y,-z
-x,-y,-z
x,y,-z
-x,y,z
x,-y,z
1/2+x,1/2+y,1/2+z
1/2-x,1/2-y,1/2+z
1/2+x,1/2-y,1/2-z
1/2-x,1/2+y,1/2-z
1/2-x,1/2-y,1/2-z
1/2+x,1/2+y,1/2-z
1/2-x,1/2+y,1/2+z
1/2+x,1/2-y,1/2+z
loop_
_atom_site_type_symbol
_atom_site_label
_atom_site_fract_x
_atom_site_fract_y
_atom_site_fract_z
Si Si1 0.812540 0.319111 0.314280
Si Si2 0.734364 0.183718 0.418626
Si Si3 0.447816 0.316073 0.286866
Si Si4 0.945020 0.671729 0.500000
Si Si5 0.845299 0.185138 0.831654
Si Si6 0.093513 0.818615 0.637951
O O1 0.807859 0.500000 0.293037
O O2 0.767639 0.272750 0.362615
O O3 0.816361 0.220074 0.241406
O O4 0.859446 0.288545 0.361082
O O5 0.744023 0.238473 0.500000
O O6 0.679739 0.227190 0.397669
O O7 0.743209 0.000000 0.411508
O O8 0.500000 0.244031 0.310938
O O9 0.449667 0.500000 0.300015
O O10 0.400607 0.250812 0.327938
O O11 0.441377 0.278528 0.203491
O O12 0.918788 0.500000 0.500000
O O13 0.933701 0.779234 0.433223
O O14 0.000000 0.634745 0.500000
O O15 0.844492 0.000000 0.844345
O O16 0.109376 0.000000 0.640267
#
# Coordination Sequence:
#
# PCOD8290467 Si02
#       6
#    16  16  16   8  16  16
#     4  11  22  37  58  82 112 146 184 229 279 334
#     4  11  24  40  58  80 110 147 188 232 281 336
#     4   8  15  30  54  82 107 134 174 223 271 321
#     4  11  23  35  47  69 105 147 189 235 286 333
#     4  10  20  36  59  86 115 146 184 228 275 330
#     4  10  20  34  53  76 105 142 187 232 276 330
#
# _framework density 19.706121
#
# number of rings (size 3 to 8) (size 9 to 14) (size 15 to 20)
#    0.000    1.909    0.000    5.727    1.273    2.909 
#    0.000    0.000    0.000   11.455    0.000    3.818 
#    0.000    0.000    0.000    0.000    0.000    0.000 
#
# Total GULP energy -545388.936669 kJ/mol
# GULP energy per Si atom -12395.203106 kJ/mol
# Density = 1.966127 g / cm^3
# Si number density = 19.706121 Si / 1000 Ang^3
#
#
#
# Elastic Constant Matrix: (Units=GPa)
#
#
# Indices 1 2 3 4 5 6 
#
# 1 112.6772 14.9335 30.3568 0.0000 0.0000 0.0000
# 2 14.9335 52.9572 6.8937 0.0000 0.0000 0.0000
# 3 30.3568 6.8937 43.3551 0.0000 0.0000 0.0000
# 4 0.0000 0.0000 0.0000 27.0341 0.0000 0.0000
# 5 0.0000 0.0000 0.0000 0.0000 16.9993 0.0000
# 6 0.0000 0.0000 0.0000 0.0000 0.0000 25.5755
#
#
#
# Elastic Compliance Matrix: (Units=1/GPa)
#
#
# Indices 1 2 3 4 5 6 
#
# 1 0.011179 -0.002179 -0.007481 0.000000 0.000000 0.000000
# 2 -0.002179 0.019707 -0.001608 0.000000 0.000000 0.000000
# 3 -0.007481 -0.001608 0.028559 0.000000 0.000000 0.000000
# 4 0.000000 0.000000 0.000000 0.036990 0.000000 0.000000
# 5 0.000000 0.000000 0.000000 0.000000 0.058826 0.000000
# 6 0.000000 0.000000 0.000000 0.000000 0.000000 0.039100
#
#
# Mechanical properties :
#
#
# Convention : Reuss Voigt Hill
#
# Bulk Modulus (GPa) = 27.09316 34.81750 30.95533
# Shear Modulus (GPa) = 21.81499 24.37547 23.09523
#
# Velocity S-wave (km/s) = 3.33079 3.52084 3.42714
# Velocity P-wave (km/s) = 5.34516 5.85108 5.60383
#
# Compressibility (1/GPa) = 0.03690968
#
# Stress axis : x y z
#
# Youngs Moduli (GPa) = 89.45221 50.74375 35.01497
#
# Poissons Ratio (x) = 0.11055 0.26195
# Poissons Ratio (y) = 0.19488 0.05631
# Poissons Ratio (z) = 0.66920 0.08160
#
# Static dielectric constant tensor:
#      x y z
#    x 4.039400 0.000000 0.000000 
#    y 0.000000 3.449870 0.000000 
#    z 0.000000 0.000000 3.431650 
# 
# 
# High freq. dielectric constant tensor:
#      x y z
#    x 1.778180 0.000000 0.000000 
#    y 0.000000 1.759350 0.000000 
#    z 0.000000 0.000000 1.742290 
# 
# From -- ./inp_files/49217.got.cif
#   From: 2010.06.25/outbox.cif.g09.slc.cpg/sg71_25_cif.got.tgz:49217.got - 2010.06.28 04:59:45.
