data_PCOD8290715
_publ_section_title
;
Structure prediction by ZEFSAII (Michael W. Deem and Ramdas Pophale) SiO2 
 PCOD8290715
Probable space group: I M M M
;
_chemical_formula_sum "Si O2"
_cell_formula_units_Z 104
_cell_length_a 17.453897
_cell_length_b 28.065985
_cell_length_c 11.570798
_cell_angle_alpha 90.000000
_cell_angle_beta 90.000000
_cell_angle_gamma 90.000000
_cell_volume 5668.080497
_symmetry_space_group_name_H-M "I M M M"
_symmetry_group_IT_number 71
_symmetry_cell_setting 'orthorhombic'
loop_
_space_group_symop_operation_xyz
x,y,z
-x,-y,z
x,-y,-z
-x,y,-z
-x,-y,-z
x,y,-z
-x,y,z
x,-y,z
1/2+x,1/2+y,1/2+z
1/2-x,1/2-y,1/2+z
1/2+x,1/2-y,1/2-z
1/2-x,1/2+y,1/2-z
1/2-x,1/2-y,1/2-z
1/2+x,1/2+y,1/2-z
1/2-x,1/2+y,1/2+z
1/2+x,1/2-y,1/2+z
loop_
_atom_site_type_symbol
_atom_site_label
_atom_site_fract_x
_atom_site_fract_y
_atom_site_fract_z
Si Si1 0.410530 0.202729 0.500000
Si Si2 0.661391 0.715417 0.135018
Si Si3 0.329091 0.193989 0.721910
Si Si4 0.590201 0.364017 0.724451
Si Si5 0.844612 0.601475 0.633389
Si Si6 0.500000 0.053643 0.137829
Si Si7 0.409264 0.308864 0.500000
Si Si8 0.313475 0.554502 0.633283
O O1 0.500000 0.204139 0.500000
O O2 0.383717 0.177220 0.617167
O O3 0.374363 0.256035 0.500000
O O4 0.633691 0.761512 0.208302
O O5 0.749091 0.706771 0.164292
O O6 0.611382 0.668499 0.165537
O O7 0.650204 0.726054 0.000000
O O8 0.319597 0.150015 0.806658
O O9 0.500000 0.374465 0.722669
O O10 0.620921 0.335480 0.612954
O O11 0.635080 0.414143 0.721082
O O12 0.856218 0.613655 0.500000
O O13 0.923928 0.580371 0.684158
O O14 0.776733 0.563592 0.652446
O O15 0.500000 0.000000 0.187332
O O16 0.500000 0.051947 0.000000
O O17 0.500000 0.307077 0.500000
O O18 0.336422 0.565190 0.500000
O O19 0.330465 0.500000 0.664879
#
# Coordination Sequence:
#
# PCOD8290715 Si02
#       8
#     8  16  16  16  16   8   8  16
#     4  11  22  36  56  83 115 150 188 229 276 330
#     4  11  23  38  56  82 115 151 192 230 270 331
#     4  11  22  36  57  84 114 151 189 229 277 330
#     4  11  21  36  57  81 115 154 186 227 283 336
#     4  10  20  35  56  84 118 151 184 228 285 343
#     4   9  18  34  56  83 117 153 187 228 284 347
#     4   9  18  34  53  78 113 154 187 216 272 340
#     4  10  20  34  56  86 115 143 183 237 290 337
#
# _framework density 18.348362999999999
#
# number of rings (size 3 to 8) (size 9 to 14) (size 15 to 20)
#    0.000    1.615    4.615    0.923    1.077    2.462 
#    0.000    0.769    0.000    0.462    0.000    3.231 
#    0.000    0.000    0.000    0.000    0.000    0.000 
#
# Total GULP energy -644861.423945 kJ/mol
# GULP energy per Si atom -12401.181230 kJ/mol
# Density = 1.830660 g / cm^3
# Si number density = 18.348363 Si / 1000 Ang^3
#
#
#
# Elastic Constant Matrix: (Units=GPa)
#
#
# Indices 1 2 3 4 5 6 
#
# 1 72.1316 14.9585 28.8902 -0.0002 0.0001 0.0001
# 2 14.9585 80.4280 28.8640 0.0002 0.0002 0.0001
# 3 28.8902 28.8640 83.4252 -0.0025 0.0018 0.0005
# 4 -0.0002 0.0002 -0.0025 19.4192 0.0003 0.0001
# 5 0.0001 0.0002 0.0018 0.0003 23.8487 0.0002
# 6 0.0001 0.0001 0.0005 0.0001 0.0002 23.1454
#
#
#
# Elastic Compliance Matrix: (Units=1/GPa)
#
#
# Indices 1 2 3 4 5 6 
#
# 1 0.016187 -0.001140 -0.005211 0.000000 0.000000 0.000000
# 2 -0.001140 0.014277 -0.004545 -0.000001 0.000000 0.000000
# 3 -0.005211 -0.004545 0.015364 0.000002 -0.000001 0.000000
# 4 0.000000 -0.000001 0.000002 0.051495 -0.000001 0.000000
# 5 0.000000 0.000000 -0.000001 -0.000001 0.041931 0.000000
# 6 0.000000 0.000000 0.000000 0.000000 0.000000 0.043205
#
#
# Mechanical properties :
#
#
# Convention : Reuss Voigt Hill
#
# Bulk Modulus (GPa) = 41.60540 42.37893 41.99216
# Shear Modulus (GPa) = 23.55569 24.16746 23.86158
#
# Velocity S-wave (km/s) = 3.58691 3.63319 3.61012
# Velocity P-wave (km/s) = 6.31498 6.38334 6.34926
#
# Compressibility (1/GPa) = 0.02403534
#
# Stress axis : x y z
#
# Youngs Moduli (GPa) = 61.77726 70.04493 65.08828
#
# Poissons Ratio (x) = 0.07988 0.33918
# Poissons Ratio (y) = 0.07045 0.29580
# Poissons Ratio (z) = 0.32193 0.31832
#
# Static dielectric constant tensor:
#      x y z
#    x 3.316440 0.000000 0.000000 
#    y 0.000000 3.370690 0.000000 
#    z 0.000000 0.000000 3.329330 
# 
# 
# High freq. dielectric constant tensor:
#      x y z
#    x 1.714820 0.000000 0.000000 
#    y 0.000000 1.705070 0.000000 
#    z 0.000000 0.000000 1.684720 
# 
# From -- ./inp_files/24638.got.cif
#   From: 2010.06.25/outbox.cif.g09.slc.cpg/sg71_13_cif.got.tgz:24638.got - 2010.06.28 04:59:45.
