data_PCOD8290454
_publ_section_title
;
Structure prediction by ZEFSAII (Michael W. Deem and Ramdas Pophale) SiO2 
 PCOD8290454
Probable space group: I M M M
;
_chemical_formula_sum "Si O2"
_cell_formula_units_Z 112
_cell_length_a 30.307017
_cell_length_b 14.102978
_cell_length_c 14.562601
_cell_angle_alpha 90.000000
_cell_angle_beta 90.000000
_cell_angle_gamma 90.000000
_cell_volume 6224.335182
_symmetry_space_group_name_H-M "I M M M"
_symmetry_group_IT_number 71
_symmetry_cell_setting 'orthorhombic'
loop_
_space_group_symop_operation_xyz
x,y,z
-x,-y,z
x,-y,-z
-x,y,-z
-x,-y,-z
x,y,-z
-x,y,z
x,-y,z
1/2+x,1/2+y,1/2+z
1/2-x,1/2-y,1/2+z
1/2+x,1/2-y,1/2-z
1/2-x,1/2+y,1/2-z
1/2-x,1/2-y,1/2-z
1/2+x,1/2+y,1/2-z
1/2-x,1/2+y,1/2+z
1/2+x,1/2-y,1/2+z
loop_
_atom_site_type_symbol
_atom_site_label
_atom_site_fract_x
_atom_site_fract_y
_atom_site_fract_z
Si Si1 0.449900 0.242828 0.104168
Si Si2 0.876620 0.891432 0.606828
Si Si3 0.665550 0.607035 0.397264
Si Si4 0.551165 0.891823 0.733917
Si Si5 0.118363 0.708588 0.104750
Si Si6 0.707966 0.610214 0.786953
Si Si7 0.791578 0.611029 0.106017
O O1 0.500000 0.278372 0.117014
O O2 0.419305 0.330362 0.133724
O O3 0.440398 0.150177 0.165074
O O4 0.440445 0.211339 0.000000
O O5 0.864855 0.883246 0.500000
O O6 0.835515 0.848136 0.663469
O O7 0.886733 0.000000 0.634562
O O8 0.685621 0.621598 0.500000
O O9 0.647461 0.500000 0.384144
O O10 0.624127 0.677735 0.383276
O O11 0.704233 0.627670 0.322914
O O12 0.500000 0.886581 0.706424
O O13 0.577228 0.828201 0.661627
O O14 0.568167 0.000000 0.732680
O O15 0.163870 0.661562 0.138709
O O16 0.109077 0.679961 0.000000
O O17 0.709454 0.500000 0.812249
O O18 0.752732 0.654102 0.829310
O O19 0.798400 0.500000 0.121267
O O20 0.780398 0.634384 0.000000
#
# Coordination Sequence:
#
# PCOD8290454 Si02
#       7
#    16  16  16  16  16  16  16
#     4   9  18  32  49  70  97 130 167 202 237 283
#     4   9  16  26  44  72 103 132 163 202 246 287
#     4   9  18  32  49  69  95 130 169 200 228 274
#     4  10  21  36  54  75  97 122 155 197 244 293
#     4  10  20  34  53  75  98 125 157 196 244 293
#     4   9  16  27  45  68  96 130 164 200 240 278
#     4   9  17  29  46  70  98 125 156 196 242 290
#
# _framework density 17.99389
#
# number of rings (size 3 to 8) (size 9 to 14) (size 15 to 20)
#    0.000    2.714    0.000    1.714    0.000    4.000 
#    0.000    3.571    0.000    2.143    0.000    4.000 
#    0.000    0.000    0.000    0.000    0.000    0.000 
#
# Total GULP energy -694247.768927 kJ/mol
# GULP energy per Si atom -12397.281588 kJ/mol
# Density = 1.795294 g / cm^3
# Si number density = 17.993890 Si / 1000 Ang^3
#
#
#
# Elastic Constant Matrix: (Units=GPa)
#
#
# Indices 1 2 3 4 5 6 
#
# 1 90.7583 43.5190 55.2918 0.0000 0.0000 0.0000
# 2 43.5190 84.5808 41.3009 0.0000 0.0000 0.0000
# 3 55.2918 41.3009 94.5511 0.0000 0.0000 0.0000
# 4 0.0000 0.0000 0.0000 22.5200 0.0000 0.0000
# 5 0.0000 0.0000 0.0000 0.0000 24.2230 0.0000
# 6 0.0000 0.0000 0.0000 0.0000 0.0000 20.5343
#
#
#
# Elastic Compliance Matrix: (Units=1/GPa)
#
#
# Indices 1 2 3 4 5 6 
#
# 1 0.018944 -0.005514 -0.008670 0.000000 0.000000 0.000000
# 2 -0.005514 0.016633 -0.004041 0.000000 0.000000 0.000000
# 3 -0.008670 -0.004041 0.017411 0.000000 0.000000 0.000000
# 4 0.000000 0.000000 0.000000 0.044405 0.000000 0.000000
# 5 0.000000 0.000000 0.000000 0.000000 0.041283 0.000000
# 6 0.000000 0.000000 0.000000 0.000000 0.000000 0.048699
#
#
# Mechanical properties :
#
#
# Convention : Reuss Voigt Hill
#
# Bulk Modulus (GPa) = 60.46175 61.12376 60.79275
# Shear Modulus (GPa) = 21.80191 22.10736 21.95464
#
# Velocity S-wave (km/s) = 3.48462 3.50895 3.49681
# Velocity P-wave (km/s) = 7.06147 7.10351 7.08252
#
# Compressibility (1/GPa) = 0.01653938
#
# Stress axis : x y z
#
# Youngs Moduli (GPa) = 52.78771 60.12020 57.43372
#
# Poissons Ratio (x) = 0.33149 0.49792
# Poissons Ratio (y) = 0.29106 0.23211
# Poissons Ratio (z) = 0.45765 0.24296
#
# Static dielectric constant tensor:
#      x y z
#    x 3.243130 0.000000 0.000000 
#    y 0.000000 3.344470 0.000000 
#    z 0.000000 0.000000 3.429850 
# 
# 
# High freq. dielectric constant tensor:
#      x y z
#    x 1.677590 0.000000 0.000000 
#    y 0.000000 1.691400 0.000000 
#    z 0.000000 0.000000 1.702760 
# 
# From -- ./inp_files/35136.got.cif
#   From: 2010.06.25/outbox.cif.g09.slc.cpg/sg71_18_cif.got.tgz:35136.got - 2010.06.28 04:59:45.
