data_PCOD8290581
_publ_section_title
;
Structure prediction by ZEFSAII (Michael W. Deem and Ramdas Pophale) SiO2 
 PCOD8290581
Probable space group: I M M M
;
_chemical_formula_sum "Si O2"
_cell_formula_units_Z 96
_cell_length_a 30.333390
_cell_length_b 19.637928
_cell_length_c 8.798386
_cell_angle_alpha 90.000000
_cell_angle_beta 90.000000
_cell_angle_gamma 90.000000
_cell_volume 5241.065938
_symmetry_space_group_name_H-M "I M M M"
_symmetry_group_IT_number 71
_symmetry_cell_setting 'orthorhombic'
loop_
_space_group_symop_operation_xyz
x,y,z
-x,-y,z
x,-y,-z
-x,y,-z
-x,-y,-z
x,y,-z
-x,y,z
x,-y,z
1/2+x,1/2+y,1/2+z
1/2-x,1/2-y,1/2+z
1/2+x,1/2-y,1/2-z
1/2-x,1/2+y,1/2-z
1/2-x,1/2-y,1/2-z
1/2+x,1/2+y,1/2-z
1/2-x,1/2+y,1/2+z
1/2+x,1/2-y,1/2+z
loop_
_atom_site_type_symbol
_atom_site_label
_atom_site_fract_x
_atom_site_fract_y
_atom_site_fract_z
Si Si1 0.673850 0.424676 0.672575
Si Si2 0.051490 0.718971 0.678400
Si Si3 0.734705 0.076905 0.322454
Si Si4 0.208516 0.711050 0.679056
Si Si5 0.371144 0.711039 0.675454
Si Si6 0.549665 0.928373 0.180249
O O1 0.691865 0.417581 0.500000
O O2 0.653704 0.500000 0.699940
O O3 0.714046 0.410940 0.785789
O O4 0.636078 0.369363 0.703983
O O5 0.059150 0.729591 0.500000
O O6 0.079195 0.774348 0.770748
O O7 0.070000 0.643945 0.732970
O O8 0.000000 0.727265 0.718786
O O9 0.727441 0.088492 0.500000
O O10 0.706077 0.132300 0.231944
O O11 0.720655 0.000000 0.274147
O O12 0.213804 0.713949 0.500000
O O13 0.250000 0.750000 0.750000
O O14 0.163161 0.745829 0.726606
O O15 0.364995 0.730477 0.500000
O O16 0.500000 0.930501 0.242026
O O17 0.573315 0.000000 0.235161
O O18 0.548768 0.926857 0.000000
#
# Coordination Sequence:
#
# PCOD8290581 Si02
#       6
#    16  16  16  16  16  16
#     4   9  18  33  53  76 102 135 177 223 269 322
#     4   9  18  33  53  77 105 138 177 223 274 327
#     4  10  20  34  54  80 110 144 181 222 269 320
#     4  12  23  36  55  79 110 145 180 221 267 321
#     4  11  22  35  54  80 108 140 178 223 273 326
#     4   7  10  20  42  70  95 121 160 209 255 300
#
# _framework density 18.316884999999999
#
# number of rings (size 3 to 8) (size 9 to 14) (size 15 to 20)
#    0.000    2.333    1.667    4.000    0.000    2.000 
#    0.000    0.833    0.000    4.000    0.000    5.833 
#    0.000    0.000    0.000    0.000    0.000    0.000 
#
# Total GULP energy -594769.050958 kJ/mol
# GULP energy per Si atom -12391.021895 kJ/mol
# Density = 1.827520 g / cm^3
# Si number density = 18.316885 Si / 1000 Ang^3
#
#
#
# Elastic Constant Matrix: (Units=GPa)
#
#
# Indices 1 2 3 4 5 6 
#
# 1 62.8364 50.7312 29.4031 0.0000 0.0000 0.0000
# 2 50.7312 142.7512 49.5583 0.0000 0.0000 0.0000
# 3 29.4031 49.5583 84.9625 0.0000 0.0000 0.0000
# 4 0.0000 0.0000 0.0000 26.1570 0.0000 0.0000
# 5 0.0000 0.0000 0.0000 0.0000 25.2863 0.0000
# 6 0.0000 0.0000 0.0000 0.0000 0.0000 25.7636
#
#
#
# Elastic Compliance Matrix: (Units=1/GPa)
#
#
# Indices 1 2 3 4 5 6 
#
# 1 0.023389 -0.006899 -0.004070 0.000000 0.000000 0.000000
# 2 -0.006899 0.010819 -0.003923 0.000000 0.000000 0.000000
# 3 -0.004070 -0.003923 0.015467 0.000000 0.000000 0.000000
# 4 0.000000 0.000000 0.000000 0.038231 0.000000 0.000000
# 5 0.000000 0.000000 0.000000 0.000000 0.039547 0.000000
# 6 0.000000 0.000000 0.000000 0.000000 0.000000 0.038814
#
#
# Mechanical properties :
#
#
# Convention : Reuss Voigt Hill
#
# Bulk Modulus (GPa) = 50.27602 61.10394 55.68998
# Shear Modulus (GPa) = 24.66931 26.16520 25.41725
#
# Velocity S-wave (km/s) = 3.67387 3.78362 3.72915
# Velocity P-wave (km/s) = 6.74566 7.24703 7.00083
#
# Compressibility (1/GPa) = 0.01989020
#
# Stress axis : x y z
#
# Youngs Moduli (GPa) = 42.75566 92.43065 64.65474
#
# Poissons Ratio (x) = 0.63767 0.26315
# Poissons Ratio (y) = 0.29497 0.25365
# Poissons Ratio (z) = 0.17402 0.36262
#
# Static dielectric constant tensor:
#      x y z
#    x 3.001720 0.000000 0.000000 
#    y 0.000000 3.924010 0.000000 
#    z 0.000000 0.000000 3.242630 
# 
# 
# High freq. dielectric constant tensor:
#      x y z
#    x 1.664660 0.000000 0.000000 
#    y 0.000000 1.729090 0.000000 
#    z 0.000000 0.000000 1.698670 
# 
# From -- ./inp_files/14863.got.cif
#   From: 2010.06.25/outbox.cif.g09.slc.cpg/sg71_8_cif.got.tgz:14863.got - 2010.06.28 04:59:45.
