data_PCOD8290034
_publ_section_title
;
Structure prediction by ZEFSAII (Michael W. Deem and Ramdas Pophale) SiO2 
 PCOD8290034
Probable space group: I M M M
;
_chemical_formula_sum "Si O2"
_cell_formula_units_Z 72
_cell_length_a 32.245287
_cell_length_b 9.301472
_cell_length_c 13.589750
_cell_angle_alpha 90.000000
_cell_angle_beta 90.000000
_cell_angle_gamma 90.000000
_cell_volume 4075.955156
_symmetry_space_group_name_H-M "I M M M"
_symmetry_group_IT_number 71
_symmetry_cell_setting 'orthorhombic'
loop_
_space_group_symop_operation_xyz
x,y,z
-x,-y,z
x,-y,-z
-x,y,-z
-x,-y,-z
x,y,-z
-x,y,z
x,-y,z
1/2+x,1/2+y,1/2+z
1/2-x,1/2-y,1/2+z
1/2+x,1/2-y,1/2-z
1/2-x,1/2+y,1/2-z
1/2-x,1/2-y,1/2-z
1/2+x,1/2+y,1/2-z
1/2-x,1/2+y,1/2+z
1/2+x,1/2-y,1/2+z
loop_
_atom_site_type_symbol
_atom_site_label
_atom_site_fract_x
_atom_site_fract_y
_atom_site_fract_z
Si Si1 0.000000 0.828462 0.113876
Si Si2 0.842698 0.157900 0.110809
Si Si3 0.922615 0.160690 0.760131
Si Si4 0.792913 0.667874 0.749205
Si Si5 0.631154 0.169097 0.886382
O O1 0.960892 0.772392 0.178203
O O2 0.000000 0.000000 0.108028
O O3 0.000000 0.768963 0.000000
O O4 0.886168 0.154245 0.162956
O O5 0.814112 0.285810 0.149466
O O6 0.821082 0.000000 0.122352
O O7 0.852377 0.195966 0.000000
O O8 0.908089 0.255905 0.666840
O O9 0.933442 0.000000 0.721445
O O10 0.783822 0.500000 0.747554
O O11 0.750000 0.750000 0.750000
O O12 0.824211 0.713801 0.660578
O O13 0.624578 0.000000 0.874245
O O14 0.631830 0.216985 0.000000
#
# Coordination Sequence:
#
# PCOD8290034 Si02
#       5
#     8  16  16  16  16
#     4   9  16  28  50  79 108 134 159 193 242 297
#     4   9  17  30  48  69  95 127 159 192 235 287
#     4   9  17  30  50  76 101 126 161 202 240 284
#     4  10  20  33  49  71  97 124 159 203 247 292
#     4   9  19  36  54  69  92 131 171 204 244 292
#
# _framework density 17.664570000000001
#
# number of rings (size 3 to 8) (size 9 to 14) (size 15 to 20)
#    0.000    2.778    0.000    1.333    0.000    5.333 
#    0.000    3.333    0.000    6.000    0.000    0.000 
#    0.000    0.000    0.000    0.000    0.000    0.000 
#
# Total GULP energy -446089.309093 kJ/mol
# GULP energy per Si atom -12391.369697 kJ/mol
# Density = 1.762436 g / cm^3
# Si number density = 17.664570 Si / 1000 Ang^3
#
#
#
# Elastic Constant Matrix: (Units=GPa)
#
#
# Indices 1 2 3 4 5 6 
#
# 1 85.9453 39.2095 36.0403 0.0000 0.0000 0.0000
# 2 39.2095 53.2579 42.4629 0.0000 0.0000 0.0000
# 3 36.0403 42.4629 125.2817 0.0000 0.0000 0.0000
# 4 0.0000 0.0000 0.0000 26.3333 0.0000 0.0000
# 5 0.0000 0.0000 0.0000 0.0000 10.8419 0.0000
# 6 0.0000 0.0000 0.0000 0.0000 0.0000 23.5888
#
#
#
# Elastic Compliance Matrix: (Units=1/GPa)
#
#
# Indices 1 2 3 4 5 6 
#
# 1 0.017597 -0.012222 -0.000920 0.000000 0.000000 0.000000
# 2 -0.012222 0.034218 -0.008082 0.000000 0.000000 0.000000
# 3 -0.000920 -0.008082 0.010986 0.000000 0.000000 0.000000
# 4 0.000000 0.000000 0.000000 0.037975 0.000000 0.000000
# 5 0.000000 0.000000 0.000000 0.000000 0.092235 0.000000
# 6 0.000000 0.000000 0.000000 0.000000 0.000000 0.042393
#
#
# Mechanical properties :
#
#
# Convention : Reuss Voigt Hill
#
# Bulk Modulus (GPa) = 49.13053 55.54560 52.33806
# Shear Modulus (GPa) = 17.56633 21.93760 19.75196
#
# Velocity S-wave (km/s) = 3.15689 3.52788 3.34753
# Velocity P-wave (km/s) = 6.41571 6.93596 6.68090
#
# Compressibility (1/GPa) = 0.02035394
#
# Stress axis : x y z
#
# Youngs Moduli (GPa) = 56.82875 29.22410 91.02571
#
# Poissons Ratio (x) = 0.35717 0.08372
# Poissons Ratio (y) = 0.69455 0.73567
# Poissons Ratio (z) = 0.05226 0.23619
#
# Static dielectric constant tensor:
#      x y z
#    x 3.529940 0.000000 0.000000 
#    y 0.000000 6.069940 0.000000 
#    z 0.000000 0.000000 3.454160 
# 
# 
# High freq. dielectric constant tensor:
#      x y z
#    x 1.680200 0.000000 0.000000 
#    y 0.000000 1.667660 0.000000 
#    z 0.000000 0.000000 1.682670 
# 
# From -- ./inp_files/6444.got.cif
#   From: 2010.06.25/outbox.cif.g09.slc.cpg/sg71_4_cif.got.tgz:6444.got - 2010.06.28 04:59:45.
