data_PCOD8290191
_publ_section_title
;
Structure prediction by ZEFSAII (Michael W. Deem and Ramdas Pophale) SiO2 
 PCOD8290191
Probable space group: I M M M
;
_chemical_formula_sum "Si O2"
_cell_formula_units_Z 80
_cell_length_a 9.237329
_cell_length_b 19.366126
_cell_length_c 25.287452
_cell_angle_alpha 90.000000
_cell_angle_beta 90.000000
_cell_angle_gamma 90.000000
_cell_volume 4523.704588
_symmetry_space_group_name_H-M "I M M M"
_symmetry_group_IT_number 71
_symmetry_cell_setting 'orthorhombic'
loop_
_space_group_symop_operation_xyz
x,y,z
-x,-y,z
x,-y,-z
-x,y,-z
-x,-y,-z
x,y,-z
-x,y,z
x,-y,z
1/2+x,1/2+y,1/2+z
1/2-x,1/2-y,1/2+z
1/2+x,1/2-y,1/2-z
1/2-x,1/2+y,1/2-z
1/2-x,1/2-y,1/2-z
1/2+x,1/2+y,1/2-z
1/2-x,1/2+y,1/2+z
1/2+x,1/2-y,1/2+z
loop_
_atom_site_type_symbol
_atom_site_label
_atom_site_fract_x
_atom_site_fract_y
_atom_site_fract_z
Si Si1 0.667718 0.678847 0.244359
Si Si2 0.830595 0.333674 0.855146
Si Si3 0.329065 0.922645 0.940597
Si Si4 0.165058 0.920255 0.438672
Si Si5 0.836311 0.827543 0.138889
O O1 0.500000 0.691654 0.230153
O O2 0.750000 0.750000 0.250000
O O3 0.745312 0.637132 0.196726
O O4 0.681206 0.641625 0.301511
O O5 0.776738 0.374199 0.906256
O O6 0.794783 0.253092 0.862877
O O7 0.000000 0.346613 0.846654
O O8 0.500000 0.919180 0.936553
O O9 0.266761 0.868124 0.899979
O O10 0.275180 0.000000 0.926626
O O11 0.278975 0.903355 0.000000
O O12 0.194925 0.905626 0.500000
O O13 0.000000 0.900471 0.424284
O O14 0.193582 0.000000 0.425253
O O15 0.000000 0.837554 0.119253
#
# Coordination Sequence:
#
# PCOD8290191 Si02
#       5
#    16  16  16  16  16
#     4   9  17  31  50  73 102 133 165 204 250 298
#     4  10  20  33  51  77 105 132 166 207 249 297
#     4   9  19  35  52  71  97 129 165 204 245 290
#     4   9  19  36  55  74  99 133 171 209 252 302
#     4   9  19  33  50  75 102 128 162 203 245 291
#
# _framework density 17.684621
#
# number of rings (size 3 to 8) (size 9 to 14) (size 15 to 20)
#    0.000    2.800    0.000    3.600    0.000    7.200 
#    0.000    7.000    0.000    1.200    0.000    0.000 
#    0.000    0.000    0.000    0.000    0.000    0.000 
#
# Total GULP energy -495821.287164 kJ/mol
# GULP energy per Si atom -12395.532179 kJ/mol
# Density = 1.764437 g / cm^3
# Si number density = 17.684621 Si / 1000 Ang^3
#
#
#
# Elastic Constant Matrix: (Units=GPa)
#
#
# Indices 1 2 3 4 5 6 
#
# 1 101.4393 43.6353 67.3553 0.0000 0.0000 0.0000
# 2 43.6353 57.9639 55.1077 0.0000 0.0000 0.0000
# 3 67.3553 55.1077 118.5240 0.0000 0.0000 0.0000
# 4 0.0000 0.0000 0.0000 -21.9703 0.0000 0.0000
# 5 0.0000 0.0000 0.0000 0.0000 38.7309 0.0000
# 6 0.0000 0.0000 0.0000 0.0000 0.0000 27.8139
#
#
#
# Elastic Compliance Matrix: (Units=1/GPa)
#
#
# Indices 1 2 3 4 5 6 
#
# 1 0.017103 -0.006514 -0.006690 0.000000 0.000000 0.000000
# 2 -0.006514 0.033401 -0.011828 0.000000 0.000000 0.000000
# 3 -0.006690 -0.011828 0.017739 0.000000 0.000000 0.000000
# 4 0.000000 0.000000 0.000000 -0.045516 0.000000 0.000000
# 5 0.000000 0.000000 0.000000 0.000000 0.025819 0.000000
# 6 0.000000 0.000000 0.000000 0.000000 0.000000 0.035953
#
#
# Mechanical properties :
#
#
# Convention : Reuss Voigt Hill
#
# Bulk Modulus (GPa) = 55.01371 67.79153 61.40262
# Shear Modulus (GPa) = 35.55613 16.37016 25.96315
#
# Velocity S-wave (km/s) = 4.48880 3.04579 3.83576
# Velocity P-wave (km/s) = 7.61850 7.12642 7.37657
#
# Compressibility (1/GPa) = 0.01817729
#
# Stress axis : x y z
#
# Youngs Moduli (GPa) = 58.47045 29.93918 56.37437
#
# Poissons Ratio (x) = 0.19503 0.37717
# Poissons Ratio (y) = 0.38089 0.66679
# Poissons Ratio (z) = 0.39119 0.35412
#
# Static dielectric constant tensor:
#      x y z
#    x 3.302160 0.000000 0.000000 
#    y 0.000000 3.020600 0.000000 
#    z 0.000000 0.000000 3.737720 
# 
# 
# High freq. dielectric constant tensor:
#      x y z
#    x 1.690370 0.000000 0.000000 
#    y 0.000000 1.652350 0.000000 
#    z 0.000000 0.000000 1.696980 
# 
# From -- ./inp_files/8300.got.cif
#   From: 2010.06.25/outbox.cif.g09.slc.cpg/sg71_5_cif.got.tgz:8300.got - 2010.06.28 04:59:45.
