data_PCOD8290533
_publ_section_title
;
Structure prediction by ZEFSAII (Michael W. Deem and Ramdas Pophale) SiO2 
 PCOD8290533
Probable space group: I M M M
;
_chemical_formula_sum "Si O2"
_cell_formula_units_Z 72
_cell_length_a 7.762593
_cell_length_b 23.279200
_cell_length_c 19.015653
_cell_angle_alpha 90.000000
_cell_angle_beta 90.000000
_cell_angle_gamma 90.000000
_cell_volume 3436.260750
_symmetry_space_group_name_H-M "I M M M"
_symmetry_group_IT_number 71
_symmetry_cell_setting 'orthorhombic'
loop_
_space_group_symop_operation_xyz
x,y,z
-x,-y,z
x,-y,-z
-x,y,-z
-x,-y,-z
x,y,-z
-x,y,z
x,-y,z
1/2+x,1/2+y,1/2+z
1/2-x,1/2-y,1/2+z
1/2+x,1/2-y,1/2-z
1/2-x,1/2+y,1/2-z
1/2-x,1/2-y,1/2-z
1/2+x,1/2+y,1/2-z
1/2-x,1/2+y,1/2+z
1/2+x,1/2-y,1/2+z
loop_
_atom_site_type_symbol
_atom_site_label
_atom_site_fract_x
_atom_site_fract_y
_atom_site_fract_z
Si Si1 0.500000 0.062735 0.582246
Si Si2 0.697065 0.628570 0.848117
Si Si3 0.202764 0.241260 0.577950
Si Si4 0.704669 0.868282 0.078065
Si Si5 0.795253 0.565343 0.287830
O O1 0.500000 0.059064 0.500000
O O2 0.676890 0.091143 0.605262
O O3 0.500000 0.000000 0.617473
O O4 0.500000 0.619290 0.873281
O O5 0.754569 0.694867 0.862206
O O6 0.713722 0.610090 0.767200
O O7 0.271335 0.222531 0.500000
O O8 0.276443 0.304444 0.597204
O O9 0.000000 0.246770 0.573890
O O10 0.500000 0.867759 0.078871
O O11 0.770444 0.914084 0.135517
O O12 0.770155 0.886237 0.000000
O O13 0.730388 0.500000 0.275584
O O14 0.000000 0.568671 0.280557
#
# Coordination Sequence:
#
# PCOD8290533 Si02
#       5
#     8  16  16  16  16
#     4  11  24  40  58  84 117 151 194 244 285 330
#     4  11  22  37  59  85 114 155 194 234 283 345
#     4   8  15  30  53  81 111 144 187 236 287 342
#     4   8  15  30  54  83 113 147 189 240 294 347
#     4  10  20  34  53  80 116 154 194 239 287 340
#
# _framework density 20.953008000000001
#
# number of rings (size 3 to 8) (size 9 to 14) (size 15 to 20)
#    0.000    2.556    1.111    2.667    0.000    4.444 
#    0.000    3.333    2.444    0.667    0.000    1.556 
#    0.000    0.000    0.000    0.000    0.000    0.000 
#
# Total GULP energy -446072.010484 kJ/mol
# GULP energy per Si atom -12390.889180 kJ/mol
# Density = 2.090532 g / cm^3
# Si number density = 20.953008 Si / 1000 Ang^3
#
#
#
# Elastic Constant Matrix: (Units=GPa)
#
#
# Indices 1 2 3 4 5 6 
#
# 1 60.1132 11.3689 9.1977 -0.0001 0.0000 0.0000
# 2 11.3689 110.9547 65.9005 -0.0002 0.0000 0.0000
# 3 9.1977 65.9005 118.8345 -0.0012 0.0001 0.0000
# 4 -0.0001 -0.0002 -0.0012 84.3479 -0.0001 -0.0001
# 5 0.0000 0.0000 0.0001 -0.0001 16.9046 0.0000
# 6 0.0000 0.0000 0.0000 -0.0001 0.0000 16.6833
#
#
#
# Elastic Compliance Matrix: (Units=1/GPa)
#
#
# Indices 1 2 3 4 5 6 
#
# 1 0.016986 -0.001431 -0.000521 0.000000 0.000000 0.000000
# 2 -0.001431 0.013560 -0.007409 0.000000 0.000000 0.000000
# 3 -0.000521 -0.007409 0.012564 0.000000 0.000000 0.000000
# 4 0.000000 0.000000 0.000000 0.011856 0.000000 0.000000
# 5 0.000000 0.000000 0.000000 0.000000 0.059155 0.000000
# 6 0.000000 0.000000 0.000000 0.000000 0.000000 0.059940
#
#
# Mechanical properties :
#
#
# Convention : Reuss Voigt Hill
#
# Bulk Modulus (GPa) = 41.00453 51.42630 46.21542
# Shear Modulus (GPa) = 24.88652 37.14951 31.01802
#
# Velocity S-wave (km/s) = 3.45009 4.21526 3.85172
# Velocity P-wave (km/s) = 5.95676 6.94897 6.47191
#
# Compressibility (1/GPa) = 0.02438755
#
# Stress axis : x y z
#
# Youngs Moduli (GPa) = 58.87322 73.74763 79.59201
#
# Poissons Ratio (x) = 0.10552 0.04148
# Poissons Ratio (y) = 0.08424 0.58969
# Poissons Ratio (z) = 0.03068 0.54639
#
# Static dielectric constant tensor:
#      x y z
#    x 3.424120 0.000000 0.000000 
#    y 0.000000 4.198090 0.000000 
#    z 0.000000 0.000000 4.001510 
# 
# 
# High freq. dielectric constant tensor:
#      x y z
#    x 1.790480 0.000000 0.000000 
#    y 0.000000 1.823450 0.000000 
#    z 0.000000 0.000000 1.818140 
# 
# From -- ./inp_files/12196.got.cif
#   From: 2010.06.25/outbox.cif.g09.slc.cpg/sg71_7_cif.got.tgz:12196.got - 2010.06.28 04:59:45.
