data_PCOD8290335
_publ_section_title
;
Structure prediction by ZEFSAII (Michael W. Deem and Ramdas Pophale) SiO2 
 PCOD8290335
Probable space group: I M M M
;
_chemical_formula_sum "Si O2"
_cell_formula_units_Z 72
_cell_length_a 14.183299
_cell_length_b 18.511721
_cell_length_c 13.871508
_cell_angle_alpha 90.000000
_cell_angle_beta 90.000000
_cell_angle_gamma 90.000000
_cell_volume 3642.065326
_symmetry_space_group_name_H-M "I M M M"
_symmetry_group_IT_number 71
_symmetry_cell_setting 'orthorhombic'
loop_
_space_group_symop_operation_xyz
x,y,z
-x,-y,z
x,-y,-z
-x,y,-z
-x,-y,-z
x,y,-z
-x,y,z
x,-y,z
1/2+x,1/2+y,1/2+z
1/2-x,1/2-y,1/2+z
1/2+x,1/2-y,1/2-z
1/2-x,1/2+y,1/2-z
1/2-x,1/2-y,1/2-z
1/2+x,1/2+y,1/2-z
1/2-x,1/2+y,1/2+z
1/2+x,1/2-y,1/2+z
loop_
_atom_site_type_symbol
_atom_site_label
_atom_site_fract_x
_atom_site_fract_y
_atom_site_fract_z
Si Si1 0.289032 0.419936 0.211635
Si Si2 0.393934 0.192275 0.000000
Si Si3 0.606027 0.855381 0.792627
Si Si4 0.392017 0.291415 0.688541
Si Si5 0.739886 0.079886 0.500000
Si Si6 0.204046 0.263756 0.000000
O O1 0.315678 0.500000 0.247315
O O2 0.179189 0.406139 0.237222
O O3 0.357943 0.365208 0.263984
O O4 0.303099 0.414284 0.096257
O O5 0.380052 0.140171 0.907690
O O6 0.500000 0.226107 0.000000
O O7 0.317997 0.257252 0.000000
O O8 0.500000 0.879196 0.762754
O O9 0.624918 0.772217 0.764547
O O10 0.500000 0.299679 0.659008
O O11 0.333673 0.276972 0.592850
O O12 0.672376 0.151341 0.500000
O O13 0.688170 0.000000 0.500000
#
# Coordination Sequence:
#
# PCOD8290335 Si02
#       6
#    16   8  16  16   8   8
#     4  11  22  40  61  88 128 162 195 249 315 372
#     4  10  20  33  59  93 117 148 200 256 299 352
#     4  10  20  37  60  87 117 153 205 252 299 362
#     4  11  23  38  61  91 119 162 214 253 298 362
#     4  10  22  37  63  96 123 157 201 252 316 379
#     4  12  19  38  68  86 128 159 206 261 305 354
#
# _framework density 19.769000999999999
#
# number of rings (size 3 to 8) (size 9 to 14) (size 15 to 20)
#    0.000    1.333    4.444    2.333    0.000    0.889 
#    0.000    3.333    0.000   10.333    0.000    0.000 
#    0.000    0.000    0.000    0.000    0.000    0.000 
#
# Total GULP energy -446313.638453 kJ/mol
# GULP energy per Si atom -12397.601068 kJ/mol
# Density = 1.972401 g / cm^3
# Si number density = 19.769001 Si / 1000 Ang^3
#
#
#
# Elastic Constant Matrix: (Units=GPa)
#
#
# Indices 1 2 3 4 5 6 
#
# 1 90.2403 28.0730 38.6972 0.0000 0.0000 0.0000
# 2 28.0730 123.9048 46.4123 0.0000 0.0000 0.0000
# 3 38.6972 46.4123 125.3588 0.0000 0.0000 0.0000
# 4 0.0000 0.0000 0.0000 23.8415 0.0000 0.0000
# 5 0.0000 0.0000 0.0000 0.0000 16.8781 0.0000
# 6 0.0000 0.0000 0.0000 0.0000 0.0000 21.2922
#
#
#
# Elastic Compliance Matrix: (Units=1/GPa)
#
#
# Indices 1 2 3 4 5 6 
#
# 1 0.013068 -0.001683 -0.003411 0.000000 0.000000 0.000000
# 2 -0.001683 0.009587 -0.003030 0.000000 0.000000 0.000000
# 3 -0.003411 -0.003030 0.010152 0.000000 0.000000 0.000000
# 4 0.000000 0.000000 0.000000 0.041944 0.000000 0.000000
# 5 0.000000 0.000000 0.000000 0.000000 0.059248 0.000000
# 6 0.000000 0.000000 0.000000 0.000000 0.000000 0.046966
#
#
# Mechanical properties :
#
#
# Convention : Reuss Voigt Hill
#
# Bulk Modulus (GPa) = 60.39031 62.87432 61.63231
# Shear Modulus (GPa) = 24.66320 27.49045 26.07683
#
# Velocity S-wave (km/s) = 3.53593 3.73310 3.63585
# Velocity P-wave (km/s) = 6.87638 7.10316 6.99069
#
# Compressibility (1/GPa) = 0.01655895
#
# Stress axis : x y z
#
# Youngs Moduli (GPa) = 76.52424 104.30798 98.50534
#
# Poissons Ratio (x) = 0.17557 0.33598
# Poissons Ratio (y) = 0.12880 0.29846
# Poissons Ratio (z) = 0.26100 0.31604
#
# Static dielectric constant tensor:
#      x y z
#    x 3.588470 0.000000 0.000000 
#    y 0.000000 3.509280 0.000000 
#    z 0.000000 0.000000 3.845500 
# 
# 
# High freq. dielectric constant tensor:
#      x y z
#    x 1.755250 0.000000 0.000000 
#    y 0.000000 1.755520 0.000000 
#    z 0.000000 0.000000 1.790610 
# 
# From -- ./inp_files/34121.got.cif
#   From: 2010.06.25/outbox.cif.g09.slc.cpg/sg71_18_cif.got.tgz:34121.got - 2010.06.28 04:59:45.
