data_PCOD8290251
_publ_section_title
;
Structure prediction by ZEFSAII (Michael W. Deem and Ramdas Pophale) SiO2 
 PCOD8290251
Probable space group: I M M M
;
_chemical_formula_sum "Si O2"
_cell_formula_units_Z 88
_cell_length_a 8.882297
_cell_length_b 27.936847
_cell_length_c 18.163584
_cell_angle_alpha 90.000000
_cell_angle_beta 90.000000
_cell_angle_gamma 90.000000
_cell_volume 4507.172987
_symmetry_space_group_name_H-M "I M M M"
_symmetry_group_IT_number 71
_symmetry_cell_setting 'orthorhombic'
loop_
_space_group_symop_operation_xyz
x,y,z
-x,-y,z
x,-y,-z
-x,y,-z
-x,-y,-z
x,y,-z
-x,y,z
x,-y,z
1/2+x,1/2+y,1/2+z
1/2-x,1/2-y,1/2+z
1/2+x,1/2-y,1/2-z
1/2-x,1/2+y,1/2-z
1/2-x,1/2-y,1/2-z
1/2+x,1/2+y,1/2-z
1/2-x,1/2+y,1/2+z
1/2+x,1/2-y,1/2+z
loop_
_atom_site_type_symbol
_atom_site_label
_atom_site_fract_x
_atom_site_fract_y
_atom_site_fract_z
Si Si1 0.833870 0.447120 0.413814
Si Si2 0.321171 0.904832 0.669824
Si Si3 0.820793 0.500000 0.085101
Si Si4 0.173563 0.877719 0.819776
Si Si5 0.821199 0.314809 0.081875
Si Si6 0.678997 0.708794 0.583356
O O1 0.815460 0.449943 0.500000
O O2 0.819230 0.500000 0.379457
O O3 0.696713 0.415453 0.384794
O O4 0.000000 0.426254 0.393057
O O5 0.500000 0.905705 0.667695
O O6 0.260741 0.952749 0.628565
O O7 0.268001 0.899844 0.753133
O O8 0.253757 0.857318 0.631052
O O9 0.000000 0.500000 0.084305
O O10 0.762163 0.500000 0.000000
O O11 0.237676 0.827593 0.853440
O O12 0.000000 0.873282 0.797137
O O13 0.767898 0.262026 0.108236
O O14 0.000000 0.317006 0.083326
O O15 0.761015 0.323787 0.000000
O O16 0.739870 0.697359 0.500000
O O17 0.500000 0.705676 0.580085
#
# Coordination Sequence:
#
# PCOD8290251 Si02
#       6
#    16  16   8  16  16  16
#     4   9  19  36  56  75  97 130 173 220 265 304
#     4  10  20  33  52  78 104 133 168 215 269 313
#     4   9  18  34  57  81 100 123 166 221 267 308
#     4  11  22  33  48  74 109 144 174 206 247 309
#     4   8  14  28  52  77  98 126 172 223 265 309
#     4   8  15  29  49  73 101 134 172 215 258 298
#
# _framework density 19.524432999999998
#
# number of rings (size 3 to 8) (size 9 to 14) (size 15 to 20)
#    0.000    2.818    0.000    3.273    1.273    4.364 
#    0.000    0.909    0.000    3.818    0.000    5.091 
#    0.000    0.000    0.000    0.000    0.000    0.000 
#
# Total GULP energy -545138.358482 kJ/mol
# GULP energy per Si atom -12389.508147 kJ/mol
# Density = 1.947999 g / cm^3
# Si number density = 19.524433 Si / 1000 Ang^3
#
#
#
# Elastic Constant Matrix: (Units=GPa)
#
#
# Indices 1 2 3 4 5 6 
#
# 1 12.6264 19.4052 14.7844 0.0002 -0.0001 0.0000
# 2 19.4052 158.4300 77.3739 0.0002 0.0000 0.0000
# 3 14.7844 77.3739 88.6239 0.0025 -0.0004 -0.0001
# 4 0.0002 0.0002 0.0025 19.9801 -0.0002 0.0000
# 5 -0.0001 0.0000 -0.0004 -0.0002 17.9583 0.0001
# 6 0.0000 0.0000 -0.0001 0.0000 0.0001 13.5037
#
#
#
# Elastic Compliance Matrix: (Units=1/GPa)
#
#
# Indices 1 2 3 4 5 6 
#
# 1 0.103141 -0.007374 -0.010768 0.000000 0.000000 0.000000
# 2 -0.007374 0.011531 -0.008837 0.000001 0.000000 0.000000
# 3 -0.010768 -0.008837 0.020795 -0.000002 0.000000 0.000000
# 4 0.000000 0.000001 -0.000002 0.050050 0.000001 0.000000
# 5 0.000000 0.000000 0.000000 0.000001 0.055684 0.000000
# 6 0.000000 0.000000 0.000000 0.000000 0.000000 0.074054
#
#
# Mechanical properties :
#
#
# Convention : Reuss Voigt Hill
#
# Bulk Modulus (GPa) = 12.26862 53.64526 32.95694
# Shear Modulus (GPa) = 12.61404 20.16289 16.38846
#
# Velocity S-wave (km/s) = 2.54454 3.21705 2.90035
# Velocity P-wave (km/s) = 3.86397 6.42922 5.30401
#
# Compressibility (1/GPa) = 0.08150879
#
# Stress axis : x y z
#
# Youngs Moduli (GPa) = 9.69544 86.72262 48.08798
#
# Poissons Ratio (x) = 0.63953 0.51781
# Poissons Ratio (y) = 0.07150 0.42496
# Poissons Ratio (z) = 0.10440 0.76637
#
# Static dielectric constant tensor:
#      x y z
#    x 2.997540 0.000000 0.000000 
#    y 0.000000 4.090430 0.000000 
#    z 0.000000 0.000000 3.569090 
# 
# 
# High freq. dielectric constant tensor:
#      x y z
#    x 1.699870 0.000000 0.000000 
#    y 0.000000 1.777820 0.000000 
#    z 0.000000 0.000000 1.758940 
# 
# From -- ./inp_files/42512.got.cif
#   From: 2010.06.25/outbox.cif.g09.slc.cpg/sg71_22_cif.got.tgz:42512.got - 2010.06.28 04:59:45.
