data_PCOD8290537
_publ_section_title
;
Structure prediction by ZEFSAII (Michael W. Deem and Ramdas Pophale) SiO2 
 PCOD8290537
Probable space group: I M M M
;
_chemical_formula_sum "Si O2"
_cell_formula_units_Z 104
_cell_length_a 17.430912
_cell_length_b 22.035700
_cell_length_c 14.173273
_cell_angle_alpha 90.000000
_cell_angle_beta 90.000000
_cell_angle_gamma 90.000000
_cell_volume 5443.987432
_symmetry_space_group_name_H-M "I M M M"
_symmetry_group_IT_number 71
_symmetry_cell_setting 'orthorhombic'
loop_
_space_group_symop_operation_xyz
x,y,z
-x,-y,z
x,-y,-z
-x,y,-z
-x,-y,-z
x,y,-z
-x,y,z
x,-y,z
1/2+x,1/2+y,1/2+z
1/2-x,1/2-y,1/2+z
1/2+x,1/2-y,1/2-z
1/2-x,1/2+y,1/2-z
1/2-x,1/2-y,1/2-z
1/2+x,1/2+y,1/2-z
1/2-x,1/2+y,1/2+z
1/2+x,1/2-y,1/2+z
loop_
_atom_site_type_symbol
_atom_site_label
_atom_site_fract_x
_atom_site_fract_y
_atom_site_fract_z
Si Si1 0.912199 0.216506 0.212465
Si Si2 0.171741 0.885921 0.108266
Si Si3 0.159439 0.675797 0.889342
Si Si4 0.414597 0.500000 0.612717
Si Si5 0.674179 0.270344 0.893294
Si Si6 0.411146 0.070809 0.717876
Si Si7 0.341188 0.128462 0.894805
O O1 0.851617 0.175750 0.157857
O O2 0.899287 0.284244 0.172822
O O3 0.893615 0.209370 0.323459
O O4 0.000000 0.197073 0.195536
O O5 0.124848 0.940586 0.155154
O O6 0.260166 0.904923 0.119665
O O7 0.149636 0.876013 0.000000
O O8 0.246434 0.695992 0.866253
O O9 0.143318 0.606389 0.856721
O O10 0.141800 0.683036 0.000000
O O11 0.500000 0.500000 0.650417
O O12 0.408002 0.500000 0.500000
O O13 0.681590 0.198444 0.880264
O O14 0.650396 0.287346 0.000000
O O15 0.500000 0.077427 0.688686
O O16 0.401381 0.100820 0.821467
O O17 0.386944 0.000000 0.718843
O O18 0.374724 0.117686 0.000000
#
# Coordination Sequence:
#
# PCOD8290537 Si02
#       7
#    16  16  16   8  16  16  16
#     4  12  22  33  56  87 115 143 180 229 284 344
#     4  10  20  34  53  81 114 148 184 222 272 340
#     4  11  22  39  61  83 111 149 191 237 288 339
#     4   9  18  32  48  72 112 148 172 211 268 330
#     4  10  21  39  61  83 111 145 183 232 286 339
#     4  11  25  41  56  81 117 155 198 245 289 337
#     4  10  20  37  60  82 109 148 190 233 283 337
#
# _framework density 19.103645
#
# number of rings (size 3 to 8) (size 9 to 14) (size 15 to 20)
#    0.000    1.462    3.077    2.769    1.077    4.000 
#    0.000    3.077    0.000    0.000    0.000    0.000 
#    0.000    1.846    0.000    0.000    0.000    0.000 
#
# Total GULP energy -644734.476262 kJ/mol
# GULP energy per Si atom -12398.739928 kJ/mol
# Density = 1.906016 g / cm^3
# Si number density = 19.103645 Si / 1000 Ang^3
#
#
#
# Elastic Constant Matrix: (Units=GPa)
#
#
# Indices 1 2 3 4 5 6 
#
# 1 52.8610 19.3124 28.0220 0.0000 0.0000 0.0000
# 2 19.3124 88.7369 25.6890 0.0000 0.0000 0.0000
# 3 28.0220 25.6890 96.4904 0.0000 0.0000 0.0000
# 4 0.0000 0.0000 0.0000 9.4521 0.0000 0.0000
# 5 0.0000 0.0000 0.0000 0.0000 25.8962 0.0000
# 6 0.0000 0.0000 0.0000 0.0000 0.0000 28.3667
#
#
#
# Elastic Compliance Matrix: (Units=1/GPa)
#
#
# Indices 1 2 3 4 5 6 
#
# 1 0.023252 -0.003365 -0.005857 0.000000 0.000000 0.000000
# 2 -0.003365 0.012697 -0.002403 0.000000 0.000000 0.000000
# 3 -0.005857 -0.002403 0.012704 0.000000 0.000000 0.000000
# 4 0.000000 0.000000 0.000000 0.105796 0.000000 0.000000
# 5 0.000000 0.000000 0.000000 0.000000 0.038616 0.000000
# 6 0.000000 0.000000 0.000000 0.000000 0.000000 0.035253
#
#
# Mechanical properties :
#
#
# Convention : Reuss Voigt Hill
#
# Bulk Modulus (GPa) = 39.36450 42.68170 41.02310
# Shear Modulus (GPa) = 19.22815 23.74734 21.48775
#
# Velocity S-wave (km/s) = 3.17601 3.52956 3.35744
# Velocity P-wave (km/s) = 5.83951 6.24508 6.04570
#
# Compressibility (1/GPa) = 0.02540360
#
# Stress axis : x y z
#
# Youngs Moduli (GPa) = 43.00788 78.75669 78.71288
#
# Poissons Ratio (x) = 0.26501 0.46100
# Poissons Ratio (y) = 0.14472 0.18917
# Poissons Ratio (z) = 0.25188 0.18927
#
# Static dielectric constant tensor:
#      x y z
#    x 3.347770 0.000000 0.000000 
#    y 0.000000 3.559530 0.000000 
#    z 0.000000 0.000000 3.545040 
# 
# 
# High freq. dielectric constant tensor:
#      x y z
#    x 1.736530 0.000000 0.000000 
#    y 0.000000 1.736080 0.000000 
#    z 0.000000 0.000000 1.735000 
# 
# From -- ./inp_files/36722.got.cif
#   From: 2010.06.25/outbox.cif.g09.slc.cpg/sg71_19_cif.got.tgz:36722.got - 2010.06.28 04:59:45.
