data_PCOD8290991
_publ_section_title
;
Structure prediction by ZEFSAII (Michael W. Deem and Ramdas Pophale) SiO2 
 PCOD8290991
Probable space group: I M M M
;
_chemical_formula_sum "Si O2"
_cell_formula_units_Z 80
_cell_length_a 8.941405
_cell_length_b 18.331188
_cell_length_c 25.185945
_cell_angle_alpha 90.000000
_cell_angle_beta 90.000000
_cell_angle_gamma 90.000000
_cell_volume 4128.142009
_symmetry_space_group_name_H-M "I M M M"
_symmetry_group_IT_number 71
_symmetry_cell_setting 'orthorhombic'
loop_
_space_group_symop_operation_xyz
x,y,z
-x,-y,z
x,-y,-z
-x,y,-z
-x,-y,-z
x,y,-z
-x,y,z
x,-y,z
1/2+x,1/2+y,1/2+z
1/2-x,1/2-y,1/2+z
1/2+x,1/2-y,1/2-z
1/2-x,1/2+y,1/2-z
1/2-x,1/2-y,1/2-z
1/2+x,1/2+y,1/2-z
1/2-x,1/2+y,1/2+z
1/2+x,1/2-y,1/2+z
loop_
_atom_site_type_symbol
_atom_site_label
_atom_site_fract_x
_atom_site_fract_y
_atom_site_fract_z
Si Si1 0.325817 0.329852 0.811766
Si Si2 0.323874 0.831370 0.000000
Si Si3 0.674194 0.085203 0.401889
Si Si4 0.677224 0.664587 0.000000
Si Si5 0.173296 0.917050 0.093581
Si Si6 0.828493 0.818540 0.809097
O O1 0.500000 0.337916 0.824958
O O2 0.234633 0.389195 0.844983
O O3 0.275127 0.248347 0.827318
O O4 0.288953 0.344995 0.750144
O O5 0.265409 0.870148 0.947665
O O6 0.500000 0.836316 0.000000
O O7 0.268713 0.748117 0.000000
O O8 0.500000 0.103612 0.406444
O O9 0.760647 0.126817 0.447784
O O10 0.705340 0.000000 0.408187
O O11 0.500000 0.657850 0.000000
O O12 0.201605 0.886470 0.152490
O O13 0.000000 0.912412 0.077809
O O14 0.230495 0.000000 0.092375
O O15 0.000000 0.791763 0.811872
#
# Coordination Sequence:
#
# PCOD8290991 Si02
#       6
#    16   8  16   8  16  16
#     4  10  20  35  58  86 114 147 189 234 278 329
#     4  11  24  39  56  82 112 141 178 225 278 332
#     4  11  24  40  58  83 116 151 186 227 279 338
#     4  11  24  41  62  86 110 141 186 235 280 334
#     4  10  21  37  57  81 109 144 186 227 270 325
#     4   9  19  36  58  83 113 149 188 233 281 328
#
# _framework density 19.379178
#
# number of rings (size 3 to 8) (size 9 to 14) (size 15 to 20)
#    0.000    1.800    0.000    3.600    0.000   11.600 
#    0.000    2.000    0.000    0.000    0.000    0.000 
#    0.000    0.000    0.000    0.000    0.000    0.000 
#
# Total GULP energy -496214.998532 kJ/mol
# GULP energy per Si atom -12405.374963 kJ/mol
# Density = 1.933507 g / cm^3
# Si number density = 19.379178 Si / 1000 Ang^3
#
#
#
# Elastic Constant Matrix: (Units=GPa)
#
#
# Indices 1 2 3 4 5 6 
#
# 1 73.6702 67.1181 45.9355 0.0000 0.0000 0.0000
# 2 67.1181 144.0080 73.2727 0.0000 0.0000 0.0000
# 3 45.9355 73.2727 117.1605 0.0000 0.0000 0.0000
# 4 0.0000 0.0000 0.0000 14.9125 0.0000 0.0000
# 5 0.0000 0.0000 0.0000 0.0000 32.2063 0.0000
# 6 0.0000 0.0000 0.0000 0.0000 0.0000 30.9028
#
#
#
# Elastic Compliance Matrix: (Units=1/GPa)
#
#
# Indices 1 2 3 4 5 6 
#
# 1 0.024601 -0.009619 -0.003630 0.000000 0.000000 0.000000
# 2 -0.009619 0.013946 -0.004951 0.000000 0.000000 0.000000
# 3 -0.003630 -0.004951 0.013054 0.000000 0.000000 0.000000
# 4 0.000000 0.000000 0.000000 0.067058 0.000000 0.000000
# 5 0.000000 0.000000 0.000000 0.000000 0.031050 0.000000
# 6 0.000000 0.000000 0.000000 0.000000 0.000000 0.032359
#
#
# Mechanical properties :
#
#
# Convention : Reuss Voigt Hill
#
# Bulk Modulus (GPa) = 65.77640 78.61015 72.19328
# Shear Modulus (GPa) = 22.36795 25.50515 23.93655
#
# Velocity S-wave (km/s) = 3.40108 3.63176 3.51831
# Velocity P-wave (km/s) = 7.03126 7.63142 7.33748
#
# Compressibility (1/GPa) = 0.01520302
#
# Stress axis : x y z
#
# Youngs Moduli (GPa) = 40.64956 71.70473 76.60203
#
# Poissons Ratio (x) = 0.68972 0.27803
# Poissons Ratio (y) = 0.39100 0.37923
# Poissons Ratio (z) = 0.14754 0.35498
#
# Static dielectric constant tensor:
#      x y z
#    x 3.638920 0.000000 0.000000 
#    y 0.000000 3.593480 0.000000 
#    z 0.000000 0.000000 3.706780 
# 
# 
# High freq. dielectric constant tensor:
#      x y z
#    x 1.759150 0.000000 0.000000 
#    y 0.000000 1.756630 0.000000 
#    z 0.000000 0.000000 1.769070 
# 
# From -- ./inp_files/63087.got.cif
#   From: 2010.06.25/outbox.cif.g09.slc.cpg/sg71_32_cif.got.tgz:63087.got - 2010.06.28 04:59:45.
