data_PCOD8290321
_publ_section_title
;
Structure prediction by ZEFSAII (Michael W. Deem and Ramdas Pophale) SiO2 
 PCOD8290321
Probable space group: I M M M
;
_chemical_formula_sum "Si O2"
_cell_formula_units_Z 68
_cell_length_a 11.211367
_cell_length_b 10.161653
_cell_length_c 30.955766
_cell_angle_alpha 90.000000
_cell_angle_beta 90.000000
_cell_angle_gamma 90.000000
_cell_volume 3526.667251
_symmetry_space_group_name_H-M "I M M M"
_symmetry_group_IT_number 71
_symmetry_cell_setting 'orthorhombic'
loop_
_space_group_symop_operation_xyz
x,y,z
-x,-y,z
x,-y,-z
-x,y,-z
-x,-y,-z
x,y,-z
-x,y,z
x,-y,z
1/2+x,1/2+y,1/2+z
1/2-x,1/2-y,1/2+z
1/2+x,1/2-y,1/2-z
1/2-x,1/2+y,1/2-z
1/2-x,1/2-y,1/2-z
1/2+x,1/2+y,1/2-z
1/2-x,1/2+y,1/2+z
1/2+x,1/2-y,1/2+z
loop_
_atom_site_type_symbol
_atom_site_label
_atom_site_fract_x
_atom_site_fract_y
_atom_site_fract_z
Si Si1 0.500000 0.152476 0.098676
Si Si2 0.500000 0.750117 0.000000
Si Si3 0.865023 0.000000 0.699843
Si Si4 0.636773 0.146700 0.417078
Si Si5 0.750197 0.850781 0.500000
Si Si6 0.726576 0.240474 0.845090
Si Si7 0.359300 0.500000 0.697957
O O1 0.500000 0.170221 0.045968
O O2 0.384044 0.210750 0.122887
O O3 0.500000 0.000000 0.108302
O O4 0.608917 0.651418 0.000000
O O5 0.801704 0.133253 0.684178
O O6 0.862271 0.000000 0.750999
O O7 0.000000 0.000000 0.682334
O O8 0.500000 0.140629 0.428077
O O9 0.700677 0.220096 0.457237
O O10 0.659219 0.228495 0.374334
O O11 0.690801 0.000000 0.410778
O O12 0.701798 0.000000 0.500000
O O13 0.777274 0.122793 0.816253
O O14 0.500000 0.500000 0.681456
#
# Coordination Sequence:
#
# PCOD8290321 Si02
#       7
#     8   4   8  16   8  16   8
#     4  12  25  42  66  92 128 171 215 264 323 395
#     4  12  22  38  60  90 126 173 213 268 320 375
#     4  11  24  42  68 100 127 160 213 273 336 388
#     4  10  20  35  58  87 125 165 206 257 312 379
#     4  10  20  33  54  90 125 160 211 260 316 373
#     4  12  22  42  68  91 128 166 211 265 324 391
#     4  11  26  45  65  93 130 169 215 267 324 399
#
# _framework density 19.281661
#
# number of rings (size 3 to 8) (size 9 to 14) (size 15 to 20)
#    0.000    0.941    5.882    2.118    0.000    1.412 
#    2.118    0.000    2.588    0.000    0.000    4.941 
#    0.000    0.000    0.000    0.000    0.000    0.000 
#
# Total GULP energy -421232.242424 kJ/mol
# GULP energy per Si atom -12389.183601 kJ/mol
# Density = 1.923778 g / cm^3
# Si number density = 19.281661 Si / 1000 Ang^3
#
#
#
# Elastic Constant Matrix: (Units=GPa)
#
#
# Indices 1 2 3 4 5 6 
#
# 1 109.1764 38.5577 46.2969 0.0000 0.0000 0.0000
# 2 38.5577 109.3331 45.9642 0.0000 0.0000 0.0000
# 3 46.2969 45.9642 111.3585 0.0000 0.0000 0.0000
# 4 0.0000 0.0000 0.0000 0.0771 0.0000 0.0000
# 5 0.0000 0.0000 0.0000 0.0000 32.0791 0.0000
# 6 0.0000 0.0000 0.0000 0.0000 0.0000 29.5854
#
#
#
# Elastic Compliance Matrix: (Units=1/GPa)
#
#
# Indices 1 2 3 4 5 6 
#
# 1 0.011663 -0.002510 -0.003813 0.000000 0.000000 0.000000
# 2 -0.002510 0.011607 -0.003747 -0.000001 0.000000 0.000000
# 3 -0.003813 -0.003747 0.012112 -0.000001 0.000000 0.000000
# 4 0.000000 -0.000001 -0.000001 12.967871 -0.000001 0.000000
# 5 0.000000 0.000000 0.000000 -0.000001 0.031173 0.000000
# 6 0.000000 0.000000 0.000000 0.000000 0.000000 0.033800
#
#
# Mechanical properties :
#
#
# Convention : Reuss Voigt Hill
#
# Bulk Modulus (GPa) = 65.61099 65.72287 65.66693
# Shear Modulus (GPa) = 0.38187 25.61828 13.00008
#
# Velocity S-wave (km/s) = 0.44551 3.64900 2.59939
# Velocity P-wave (km/s) = 5.86227 7.20509 6.56808
#
# Compressibility (1/GPa) = 0.01524135
#
# Stress axis : x y z
#
# Youngs Moduli (GPa) = 85.74282 86.15501 82.56384
#
# Poissons Ratio (x) = 0.21626 0.31479
# Poissons Ratio (y) = 0.21523 0.30939
# Poissons Ratio (z) = 0.32691 0.32285
#
# Static dielectric constant tensor:
#      x y z
#    x 3.579840 0.000000 0.000000 
#    y 0.000000 3.461340 0.000000 
#    z 0.000000 0.000000 3.700450 
# 
# 
# High freq. dielectric constant tensor:
#      x y z
#    x 1.762180 0.000000 0.000000 
#    y 0.000000 1.735660 0.000000 
#    z 0.000000 0.000000 1.767470 
# 
# From -- ./inp_files/64290.got.cif
#   From: 2010.06.25/outbox.cif.g09.slc.cpg/sg71_33_cif.got.tgz:64290.got - 2010.06.28 04:59:45.
