data_PCOD8290738
_publ_section_title
;
Structure prediction by ZEFSAII (Michael W. Deem and Ramdas Pophale) SiO2 
 PCOD8290738
Probable space group: I M M M
;
_chemical_formula_sum "Si O2"
_cell_formula_units_Z 96
_cell_length_a 11.901567
_cell_length_b 21.637816
_cell_length_c 20.826957
_cell_angle_alpha 90.000000
_cell_angle_beta 90.000000
_cell_angle_gamma 90.000000
_cell_volume 5363.439543
_symmetry_space_group_name_H-M "I M M M"
_symmetry_group_IT_number 71
_symmetry_cell_setting 'orthorhombic'
loop_
_space_group_symop_operation_xyz
x,y,z
-x,-y,z
x,-y,-z
-x,y,-z
-x,-y,-z
x,y,-z
-x,y,z
x,-y,z
1/2+x,1/2+y,1/2+z
1/2-x,1/2-y,1/2+z
1/2+x,1/2-y,1/2-z
1/2-x,1/2+y,1/2-z
1/2-x,1/2-y,1/2-z
1/2+x,1/2+y,1/2-z
1/2-x,1/2+y,1/2+z
1/2+x,1/2-y,1/2+z
loop_
_atom_site_type_symbol
_atom_site_label
_atom_site_fract_x
_atom_site_fract_y
_atom_site_fract_z
Si Si1 0.618724 0.000000 0.070953
Si Si2 0.000000 0.427900 0.842845
Si Si3 0.500000 0.193528 0.577114
Si Si4 0.500000 0.428532 0.428569
Si Si5 0.695316 0.734098 0.351028
Si Si6 0.764537 0.898078 0.874950
Si Si7 0.270980 0.930167 0.268837
Si Si8 0.627653 0.683897 0.786111
O O1 0.691360 0.062113 0.076871
O O2 0.500000 0.000000 0.111807
O O3 0.576324 0.000000 0.000000
O O4 0.000000 0.378768 0.901469
O O5 0.109022 0.413594 0.799862
O O6 0.000000 0.500000 0.866965
O O7 0.500000 0.195772 0.500000
O O8 0.609136 0.228949 0.604055
O O9 0.500000 0.500000 0.441733
O O10 0.500000 0.396241 0.500000
O O11 0.395816 0.410404 0.384596
O O12 0.749413 0.675045 0.387049
O O13 0.635305 0.709907 0.286231
O O14 0.801135 0.776016 0.335278
O O15 0.718304 0.920774 0.806749
O O16 0.172981 0.885695 0.293783
O O17 0.236042 0.000000 0.285701
O O18 0.500000 0.685211 0.809194
#
# Coordination Sequence:
#
# PCOD8290738 Si02
#       8
#     8   8   8   8  16  16  16  16
#     4  11  24  39  53  73 111 154 203 249 284 342
#     4  10  22  40  63  91 122 151 195 247 324 358
#     4  12  23  41  65  90 126 157 200 246 292 373
#     4  11  21  35  54  76 115 159 194 236 286 339
#     4  10  22  37  55  89 115 156 197 236 301 350
#     4  11  22  35  55  81 111 151 198 241 289 343
#     4  10  20  34  58  88 116 149 188 249 295 360
#     4  10  20  36  59  83 124 153 189 245 291 348
#
# _framework density 17.898961
#
# number of rings (size 3 to 8) (size 9 to 14) (size 15 to 20)
#    0.000    1.500    4.167    1.000    4.667    3.167 
#    0.000    0.000    0.000    0.500    0.000    0.000 
#    0.000    2.667    0.000    0.000    0.000    0.000 
#
# Total GULP energy -594907.204502 kJ/mol
# GULP energy per Si atom -12393.900094 kJ/mol
# Density = 1.785822 g / cm^3
# Si number density = 17.898961 Si / 1000 Ang^3
#
#
#
# Elastic Constant Matrix: (Units=GPa)
#
#
# Indices 1 2 3 4 5 6 
#
# 1 146.5192 69.6384 48.6121 0.0000 0.0000 0.0000
# 2 69.6384 139.8855 53.2580 0.0000 0.0000 0.0000
# 3 48.6121 53.2580 80.9446 0.0000 0.0000 0.0000
# 4 0.0000 0.0000 0.0000 20.7826 0.0000 0.0000
# 5 0.0000 0.0000 0.0000 0.0000 21.8320 0.0000
# 6 0.0000 0.0000 0.0000 0.0000 0.0000 19.5514
#
#
#
# Elastic Compliance Matrix: (Units=1/GPa)
#
#
# Indices 1 2 3 4 5 6 
#
# 1 0.009634 -0.003460 -0.003509 0.000000 0.000000 0.000000
# 2 -0.003460 0.010781 -0.005015 0.000000 0.000000 0.000000
# 3 -0.003509 -0.005015 0.017761 0.000000 0.000000 0.000000
# 4 0.000000 0.000000 0.000000 0.048117 0.000000 0.000000
# 5 0.000000 0.000000 0.000000 0.000000 0.045804 0.000000
# 6 0.000000 0.000000 0.000000 0.000000 0.000000 0.051147
#
#
# Mechanical properties :
#
#
# Convention : Reuss Voigt Hill
#
# Bulk Modulus (GPa) = 70.38754 78.92958 74.65856
# Shear Modulus (GPa) = 23.59059 25.48925 24.53992
#
# Velocity S-wave (km/s) = 3.63435 3.77777 3.70675
# Velocity P-wave (km/s) = 7.55127 7.95121 7.75382
#
# Compressibility (1/GPa) = 0.01420706
#
# Stress axis : x y z
#
# Youngs Moduli (GPa) = 103.80173 92.75960 56.30171
#
# Poissons Ratio (x) = 0.32094 0.19757
# Poissons Ratio (y) = 0.35914 0.28237
# Poissons Ratio (z) = 0.36426 0.46521
#
# Static dielectric constant tensor:
#      x y z
#    x 3.319840 0.000000 0.000000 
#    y 0.000000 3.689400 0.000000 
#    z 0.000000 0.000000 3.099110 
# 
# 
# High freq. dielectric constant tensor:
#      x y z
#    x 1.700350 0.000000 0.000000 
#    y 0.000000 1.709460 0.000000 
#    z 0.000000 0.000000 1.659050 
# 
# From -- ./inp_files/52084.got.cif
#   From: 2010.06.25/outbox.cif.g09.slc.cpg/sg71_27_cif.got.tgz:52084.got - 2010.06.28 04:59:45.
