data_PCOD8291828
_publ_section_title
;
Structure prediction by ZEFSAII (Michael W. Deem and Ramdas Pophale) SiO2 
 PCOD8291828
Probable space group: I M M M
;
_chemical_formula_sum "Si O2"
_cell_formula_units_Z 72
_cell_length_a 15.376215
_cell_length_b 26.470965
_cell_length_c 8.677897
_cell_angle_alpha 90.000000
_cell_angle_beta 90.000000
_cell_angle_gamma 90.000000
_cell_volume 3532.105832
_symmetry_space_group_name_H-M "I M M M"
_symmetry_group_IT_number 71
_symmetry_cell_setting 'orthorhombic'
loop_
_space_group_symop_operation_xyz
x,y,z
-x,-y,z
x,-y,-z
-x,y,-z
-x,-y,-z
x,y,-z
-x,y,z
x,-y,z
1/2+x,1/2+y,1/2+z
1/2-x,1/2-y,1/2+z
1/2+x,1/2-y,1/2-z
1/2-x,1/2+y,1/2-z
1/2-x,1/2-y,1/2-z
1/2+x,1/2+y,1/2-z
1/2-x,1/2+y,1/2+z
1/2+x,1/2-y,1/2+z
loop_
_atom_site_type_symbol
_atom_site_label
_atom_site_fract_x
_atom_site_fract_y
_atom_site_fract_z
Si Si1 0.500000 0.895052 0.677494
Si Si2 0.839262 0.883995 0.819044
Si Si3 0.500000 0.559811 0.176522
Si Si4 0.835738 0.774094 0.317428
Si Si5 0.000000 0.286781 0.318860
Si Si6 0.183283 0.558066 0.821065
O O1 0.500000 0.878560 0.500000
O O2 0.500000 0.845199 0.778518
O O3 0.583975 0.928370 0.717857
O O4 0.849587 0.830959 0.735511
O O5 0.745621 0.907554 0.781649
O O6 0.914255 0.920926 0.761039
O O7 0.847496 0.875713 0.000000
O O8 0.500000 0.500000 0.185995
O O9 0.500000 0.578592 0.000000
O O10 0.830348 0.772580 0.500000
O O11 0.750000 0.750000 0.250000
O O12 0.915039 0.740748 0.251457
O O13 0.000000 0.280606 0.500000
O O14 0.198941 0.500000 0.777473
O O15 0.204517 0.567927 0.000000
#
# Coordination Sequence:
#
# PCOD8291828 Si02
#       6
#     8  16   8  16   8  16
#     4  10  21  37  61  90 119 155 200 247 292 347
#     4  12  25  40  61  91 124 158 200 249 303 365
#     4  11  24  43  66  90 119 159 204 251 306 363
#     4  11  23  41  63  88 120 159 203 249 300 358
#     4  10  23  40  59  84 116 153 192 239 296 356
#     4  10  21  39  62  88 120 159 202 247 297 354
#
# _framework density 20.384440000000001
#
# number of rings (size 3 to 8) (size 9 to 14) (size 15 to 20)
#    0.000    1.222    0.000    6.000    0.000   12.444 
#    0.000    0.000    0.000    2.000    0.000    0.000 
#    0.000    0.000    0.000    0.000    0.000    0.000 
#
# Total GULP energy -446629.149110 kJ/mol
# GULP energy per Si atom -12406.365253 kJ/mol
# Density = 2.033804 g / cm^3
# Si number density = 20.384440 Si / 1000 Ang^3
#
#
#
# Elastic Constant Matrix: (Units=GPa)
#
#
# Indices 1 2 3 4 5 6 
#
# 1 116.5138 13.1403 35.0789 -0.0007 0.0007 0.0000
# 2 13.1403 89.0826 19.8733 0.0005 0.0017 0.0014
# 3 35.0789 19.8733 71.9786 -0.0045 0.0127 0.0069
# 4 -0.0007 0.0005 -0.0045 34.3594 0.0026 0.0014
# 5 0.0007 0.0017 0.0127 0.0026 22.9565 0.0021
# 6 0.0000 0.0014 0.0069 0.0014 0.0021 48.9829
#
#
#
# Elastic Compliance Matrix: (Units=1/GPa)
#
#
# Indices 1 2 3 4 5 6 
#
# 1 0.010073 -0.000416 -0.004794 0.000000 0.000002 0.000001
# 2 -0.000416 0.011980 -0.003105 -0.000001 0.000001 0.000000
# 3 -0.004794 -0.003105 0.017087 0.000002 -0.000009 -0.000002
# 4 0.000000 -0.000001 0.000002 0.029104 -0.000003 -0.000001
# 5 0.000002 0.000001 -0.000009 -0.000003 0.043561 -0.000002
# 6 0.000001 0.000000 -0.000002 -0.000001 -0.000002 0.020415
#
#
# Mechanical properties :
#
#
# Convention : Reuss Voigt Hill
#
# Bulk Modulus (GPa) = 44.42677 45.97334 45.20005
# Shear Modulus (GPa) = 31.97901 35.22526 33.60214
#
# Velocity S-wave (km/s) = 3.96510 4.16149 4.06448
# Velocity P-wave (km/s) = 6.54251 6.75964 6.65196
#
# Compressibility (1/GPa) = 0.02250895
#
# Stress axis : x y z
#
# Youngs Moduli (GPa) = 99.27514 83.47554 58.52513
#
# Poissons Ratio (x) = 0.03475 0.28058
# Poissons Ratio (y) = 0.04133 0.18170
# Poissons Ratio (z) = 0.47594 0.25916
#
# Static dielectric constant tensor:
#      x y z
#    x 4.148280 0.000510 0.000000 
#    y 0.000510 2.817450 0.000090 
#    z 0.000000 0.000090 3.699740 
# 
# 
# High freq. dielectric constant tensor:
#      x y z
#    x 1.818160 0.000000 0.000000 
#    y 0.000000 1.812560 0.000000 
#    z 0.000000 0.000000 1.793600 
# 
# From -- ./inp_files/6156.got.cif
#   From: 2010.06.25/outbox.cif.g09.slc.cpg/sg71_4_cif.got.tgz:6156.got - 2010.06.28 04:59:45.
