data_PCOD8291556
_publ_section_title
;
Structure prediction by ZEFSAII (Michael W. Deem and Ramdas Pophale) SiO2 
 PCOD8291556
Probable space group: I M M M
;
_chemical_formula_sum "Si O2"
_cell_formula_units_Z 64
_cell_length_a 9.342217
_cell_length_b 9.466353
_cell_length_c 41.198823
_cell_angle_alpha 90.000000
_cell_angle_beta 90.000000
_cell_angle_gamma 90.000000
_cell_volume 3643.488936
_symmetry_space_group_name_H-M "I M M M"
_symmetry_group_IT_number 71
_symmetry_cell_setting 'orthorhombic'
loop_
_space_group_symop_operation_xyz
x,y,z
-x,-y,z
x,-y,-z
-x,y,-z
-x,-y,-z
x,y,-z
-x,y,z
x,-y,z
1/2+x,1/2+y,1/2+z
1/2-x,1/2-y,1/2+z
1/2+x,1/2-y,1/2-z
1/2-x,1/2+y,1/2-z
1/2-x,1/2-y,1/2-z
1/2+x,1/2+y,1/2-z
1/2-x,1/2+y,1/2+z
1/2+x,1/2-y,1/2+z
loop_
_atom_site_type_symbol
_atom_site_label
_atom_site_fract_x
_atom_site_fract_y
_atom_site_fract_z
Si Si1 0.338683 0.832111 0.464443
Si Si2 0.333070 0.337033 0.096526
Si Si3 0.835464 0.663812 0.341317
Si Si4 0.333659 0.334664 0.277192
O O1 0.285100 0.778593 0.500000
O O2 0.500000 0.779574 0.458525
O O3 0.241256 0.771688 0.435502
O O4 0.331706 0.000000 0.464010
O O5 0.500000 0.316802 0.091043
O O6 0.291258 0.500000 0.101962
O O7 0.280325 0.251756 0.127886
O O8 0.819385 0.500000 0.349975
O O9 0.735003 0.707266 0.311530
O O10 0.000000 0.701405 0.332591
O O11 0.500000 0.291159 0.277273
O O12 0.313847 0.500000 0.270198
O O13 0.250000 0.250000 0.250000
#
# Coordination Sequence:
#
# PCOD8291556 Si02
#       4
#    16  16  16  16
#     4   8  14  25  41  62  89 119 149 184 229 277
#     4   9  17  28  44  68  93 116 149 193 233 269
#     4   9  18  33  50  67  93 128 158 186 229 283
#     4  10  21  36  54  76 100 127 161 199 239 285
#
# _framework density 17.565581000000002
#
# number of rings (size 3 to 8) (size 9 to 14) (size 15 to 20)
#    0.000    3.000    0.000    1.500    0.000    4.000 
#    0.000    5.000    0.000    0.750    0.000    5.250 
#    0.000    0.000    0.000    0.000    0.000    0.000 
#
# Total GULP energy -396725.344640 kJ/mol
# GULP energy per Si atom -12397.667020 kJ/mol
# Density = 1.752560 g / cm^3
# Si number density = 17.565581 Si / 1000 Ang^3
#
#
#
# Elastic Constant Matrix: (Units=GPa)
#
#
# Indices 1 2 3 4 5 6 
#
# 1 97.7243 37.4999 96.4578 0.0000 0.0000 0.0000
# 2 37.4999 39.5286 63.0196 0.0000 0.0000 0.0000
# 3 96.4578 63.0196 195.8950 0.0000 0.0000 0.0000
# 4 0.0000 0.0000 0.0000 25.6233 0.0000 0.0000
# 5 0.0000 0.0000 0.0000 0.0000 40.3704 0.0000
# 6 0.0000 0.0000 0.0000 0.0000 0.0000 18.2761
#
#
#
# Elastic Compliance Matrix: (Units=1/GPa)
#
#
# Indices 1 2 3 4 5 6 
#
# 1 0.020809 -0.006992 -0.007997 0.000000 0.000000 0.000000
# 2 -0.006992 0.054283 -0.014020 0.000000 0.000000 0.000000
# 3 -0.007997 -0.014020 0.013553 0.000000 0.000000 0.000000
# 4 0.000000 0.000000 0.000000 0.039027 0.000000 0.000000
# 5 0.000000 0.000000 0.000000 0.000000 0.024771 0.000000
# 6 0.000000 0.000000 0.000000 0.000000 0.000000 0.054716
#
#
# Mechanical properties :
#
#
# Convention : Reuss Voigt Hill
#
# Bulk Modulus (GPa) = 32.65070 80.78917 56.71994
# Shear Modulus (GPa) = 18.15630 25.93201 22.04416
#
# Velocity S-wave (km/s) = 3.21850 3.84643 3.54639
# Velocity P-wave (km/s) = 5.69560 8.11292 7.00925
#
# Compressibility (1/GPa) = 0.03062722
#
# Stress axis : x y z
#
# Youngs Moduli (GPa) = 48.05536 18.42191 73.78468
#
# Poissons Ratio (x) = 0.12880 0.59007
# Poissons Ratio (y) = 0.33598 1.03449
# Poissons Ratio (z) = 0.38431 0.25828
#
# Static dielectric constant tensor:
#      x y z
#    x 3.329190 0.000000 0.000000 
#    y 0.000000 2.995130 0.000000 
#    z 0.000000 0.000000 3.604200 
# 
# 
# High freq. dielectric constant tensor:
#      x y z
#    x 1.677930 0.000000 0.000000 
#    y 0.000000 1.644030 0.000000 
#    z 0.000000 0.000000 1.693150 
# 
# From -- ./inp_files/3686.got.cif
#   From: 2010.06.25/outbox.cif.g09.slc.cpg/sg71_2_cif.got.tgz:3686.got - 2010.06.28 04:59:45.
