data_PCOD8291703
_publ_section_title
;
Structure prediction by ZEFSAII (Michael W. Deem and Ramdas Pophale) SiO2 
 PCOD8291703
Probable space group: I M M M
;
_chemical_formula_sum "Si O2"
_cell_formula_units_Z 88
_cell_length_a 9.288557
_cell_length_b 19.027921
_cell_length_c 27.421423
_cell_angle_alpha 90.000000
_cell_angle_beta 90.000000
_cell_angle_gamma 90.000000
_cell_volume 4846.515191
_symmetry_space_group_name_H-M "I M M M"
_symmetry_group_IT_number 71
_symmetry_cell_setting 'orthorhombic'
loop_
_space_group_symop_operation_xyz
x,y,z
-x,-y,z
x,-y,-z
-x,y,-z
-x,-y,-z
x,y,-z
-x,y,z
x,-y,z
1/2+x,1/2+y,1/2+z
1/2-x,1/2-y,1/2+z
1/2+x,1/2-y,1/2-z
1/2-x,1/2+y,1/2-z
1/2-x,1/2-y,1/2-z
1/2+x,1/2+y,1/2-z
1/2-x,1/2+y,1/2+z
1/2+x,1/2-y,1/2+z
loop_
_atom_site_type_symbol
_atom_site_label
_atom_site_fract_x
_atom_site_fract_y
_atom_site_fract_z
Si Si1 0.158501 0.916614 0.784621
Si Si2 0.332205 0.795485 0.056235
Si Si3 0.669001 0.581597 0.824222
Si Si4 0.171692 0.335641 0.906645
Si Si5 0.829370 0.421845 0.000000
Si Si6 0.166813 0.578914 0.624091
O O1 0.211082 0.894555 0.730677
O O2 0.261042 0.888316 0.827358
O O3 0.000000 0.885356 0.794311
O O4 0.152682 0.000000 0.785899
O O5 0.500000 0.775891 0.061858
O O6 0.236623 0.741614 0.087025
O O7 0.299540 0.872798 0.077500
O O8 0.284175 0.795399 0.000000
O O9 0.500000 0.594550 0.834007
O O10 0.707172 0.500000 0.833224
O O11 0.766779 0.629440 0.858264
O O12 0.225850 0.381737 0.952310
O O13 0.000000 0.331098 0.903425
O O14 0.762671 0.500000 0.000000
O O15 0.000000 0.425532 0.000000
O O16 0.223431 0.500000 0.612371
O O17 0.000000 0.577250 0.636153
#
# Coordination Sequence:
#
# PCOD8291703 Si02
#       6
#    16  16  16  16   8  16
#     4   8  15  30  52  77 106 138 168 206 259 311
#     4  10  21  37  55  74 103 141 174 211 263 317
#     4   9  18  33  53  78 108 140 175 214 257 308
#     4  11  21  34  52  75 105 140 177 217 260 307
#     4   9  18  32  49  71 100 131 166 212 259 297
#     4   9  18  33  55  82 106 130 168 216 261 311
#
# _framework density 18.157374999999998
#
# number of rings (size 3 to 8) (size 9 to 14) (size 15 to 20)
#    0.000    2.636    0.909    2.182    0.000    2.909 
#    0.000    4.545    0.000    2.182    0.000    3.818 
#    0.000    0.000    0.000    0.000    0.000    0.000 
#
# Total GULP energy -545510.154631 kJ/mol
# GULP energy per Si atom -12397.958060 kJ/mol
# Density = 1.811605 g / cm^3
# Si number density = 18.157375 Si / 1000 Ang^3
#
#
#
# Elastic Constant Matrix: (Units=GPa)
#
#
# Indices 1 2 3 4 5 6 
#
# 1 61.6762 43.1792 48.3526 0.0000 0.0000 0.0000
# 2 43.1792 89.0903 49.6834 0.0000 0.0000 0.0000
# 3 48.3526 49.6834 108.1668 0.0000 0.0000 0.0000
# 4 0.0000 0.0000 0.0000 10.2824 0.0000 0.0000
# 5 0.0000 0.0000 0.0000 0.0000 28.8104 0.0000
# 6 0.0000 0.0000 0.0000 0.0000 0.0000 22.1585
#
#
#
# Elastic Compliance Matrix: (Units=1/GPa)
#
#
# Indices 1 2 3 4 5 6 
#
# 1 0.029917 -0.009467 -0.009025 0.000000 0.000000 0.000000
# 2 -0.009467 0.018085 -0.004075 0.000000 0.000000 0.000000
# 3 -0.009025 -0.004075 0.015151 0.000000 0.000000 0.000000
# 4 0.000000 0.000000 0.000000 0.097254 0.000000 0.000000
# 5 0.000000 0.000000 0.000000 0.000000 0.034710 0.000000
# 6 0.000000 0.000000 0.000000 0.000000 0.000000 0.045129
#
#
# Mechanical properties :
#
#
# Convention : Reuss Voigt Hill
#
# Bulk Modulus (GPa) = 55.49583 60.15153 57.82368
# Shear Modulus (GPa) = 17.15932 20.09812 18.62872
#
# Velocity S-wave (km/s) = 3.07747 3.33060 3.20653
# Velocity P-wave (km/s) = 6.57708 6.92750 6.75456
#
# Compressibility (1/GPa) = 0.01801937
#
# Stress axis : x y z
#
# Youngs Moduli (GPa) = 33.42619 55.29334 66.00110
#
# Poissons Ratio (x) = 0.52344 0.59567
# Poissons Ratio (y) = 0.31643 0.26897
# Poissons Ratio (z) = 0.30168 0.22534
#
# Static dielectric constant tensor:
#      x y z
#    x 3.310840 0.000000 0.000000 
#    y 0.000000 3.271590 0.000000 
#    z 0.000000 0.000000 3.522110 
# 
# 
# High freq. dielectric constant tensor:
#      x y z
#    x 1.692090 0.000000 0.000000 
#    y 0.000000 1.686200 0.000000 
#    z 0.000000 0.000000 1.711440 
# 
# From -- ./inp_files/10453.got.cif
#   From: 2010.06.25/outbox.cif.g09.slc.cpg/sg71_6_cif.got.tgz:10453.got - 2010.06.28 04:59:45.
