data_PCOD8291775
_publ_section_title
;
Structure prediction by ZEFSAII (Michael W. Deem and Ramdas Pophale) SiO2 
 PCOD8291775
Probable space group: I M M M
;
_chemical_formula_sum "Si O2"
_cell_formula_units_Z 80
_cell_length_a 15.717735
_cell_length_b 29.313996
_cell_length_c 8.778183
_cell_angle_alpha 90.000000
_cell_angle_beta 90.000000
_cell_angle_gamma 90.000000
_cell_volume 4044.544490
_symmetry_space_group_name_H-M "I M M M"
_symmetry_group_IT_number 71
_symmetry_cell_setting 'orthorhombic'
loop_
_space_group_symop_operation_xyz
x,y,z
-x,-y,z
x,-y,-z
-x,y,-z
-x,-y,-z
x,y,-z
-x,y,z
x,-y,z
1/2+x,1/2+y,1/2+z
1/2-x,1/2-y,1/2+z
1/2+x,1/2-y,1/2-z
1/2-x,1/2+y,1/2-z
1/2-x,1/2-y,1/2-z
1/2+x,1/2+y,1/2-z
1/2-x,1/2+y,1/2+z
1/2+x,1/2-y,1/2+z
loop_
_atom_site_type_symbol
_atom_site_label
_atom_site_fract_x
_atom_site_fract_y
_atom_site_fract_z
Si Si1 0.747648 0.700298 0.819289
Si Si2 0.407477 0.143239 0.679446
Si Si3 0.404625 0.354522 0.321849
Si Si4 0.848442 0.950758 0.821038
Si Si5 0.669743 0.050364 0.325163
O O1 0.750000 0.750000 0.750000
O O2 0.829640 0.672897 0.752984
O O3 0.660607 0.675953 0.771943
O O4 0.750897 0.703288 0.000000
O O5 0.408064 0.150377 0.500000
O O6 0.500000 0.158557 0.745989
O O7 0.396875 0.089642 0.719650
O O8 0.380710 0.351650 0.500000
O O9 0.500000 0.336093 0.292857
O O10 0.401408 0.407122 0.262379
O O11 0.750710 0.942832 0.780732
O O12 0.879880 0.000000 0.752150
O O13 0.858089 0.953504 0.000000
O O14 0.699411 0.056461 0.500000
O O15 0.628755 0.000000 0.300321
#
# Coordination Sequence:
#
# PCOD8291775 Si02
#       5
#    16  16  16  16  16
#     4  11  23  40  61  83 109 143 183 233 289 342
#     4   9  18  33  54  81 110 140 176 219 270 326
#     4  10  21  37  58  84 114 149 189 232 279 332
#     4   9  17  30  51  79 112 149 186 225 271 324
#     4   9  16  28  50  79 109 141 178 219 264 320
#
# _framework density 19.779729
#
# number of rings (size 3 to 8) (size 9 to 14) (size 15 to 20)
#    0.000    2.400    2.000    0.600    0.000    2.000 
#    0.000    6.000    0.000    4.800    0.000    7.000 
#    0.000    0.000    0.000    0.000    0.000    0.000 
#
# Total GULP energy -495657.625736 kJ/mol
# GULP energy per Si atom -12391.440643 kJ/mol
# Density = 1.973471 g / cm^3
# Si number density = 19.779729 Si / 1000 Ang^3
#
#
#
# Elastic Constant Matrix: (Units=GPa)
#
#
# Indices 1 2 3 4 5 6 
#
# 1 131.1424 75.2699 20.9970 -0.0001 -0.0015 -0.0003
# 2 75.2699 153.0622 34.4450 -0.0002 0.0008 0.0008
# 3 20.9970 34.4450 24.4511 -0.0116 0.0070 0.0042
# 4 -0.0001 -0.0002 -0.0116 25.2970 0.0039 0.0019
# 5 -0.0015 0.0008 0.0070 0.0039 23.3419 -0.0040
# 6 -0.0003 0.0008 0.0042 0.0019 -0.0040 11.9461
#
#
#
# Elastic Compliance Matrix: (Units=1/GPa)
#
#
# Indices 1 2 3 4 5 6 
#
# 1 0.010736 -0.004693 -0.002609 -0.000001 0.000002 0.000002
# 2 -0.004693 0.011617 -0.012335 -0.000006 0.000003 0.000004
# 3 -0.002609 -0.012335 0.060516 0.000028 -0.000018 -0.000021
# 4 -0.000001 -0.000006 0.000028 0.039530 -0.000007 -0.000006
# 5 0.000002 0.000003 -0.000018 -0.000007 0.042841 0.000014
# 6 0.000002 0.000004 -0.000021 -0.000006 0.000014 0.083709
#
#
# Mechanical properties :
#
#
# Convention : Reuss Voigt Hill
#
# Bulk Modulus (GPa) = 22.93852 63.34216 43.14034
# Shear Modulus (GPa) = 16.51497 23.97992 20.24744
#
# Velocity S-wave (km/s) = 2.89267 3.48566 3.20292
# Velocity P-wave (km/s) = 4.77273 6.94932 5.96121
#
# Compressibility (1/GPa) = 0.04359479
#
# Stress axis : x y z
#
# Youngs Moduli (GPa) = 93.14145 86.08194 16.52466
#
# Poissons Ratio (x) = 0.40394 0.04311
# Poissons Ratio (y) = 0.43707 0.20384
# Poissons Ratio (z) = 0.24302 1.06185
#
# Static dielectric constant tensor:
#      x y z
#    x 3.838360 -0.000170 -0.000010 
#    y -0.000170 3.640020 -0.000050 
#    z -0.000010 -0.000050 3.314820 
# 
# 
# High freq. dielectric constant tensor:
#      x y z
#    x 1.763340 0.000000 0.000000 
#    y 0.000000 1.784050 0.000000 
#    z 0.000000 0.000000 1.735060 
# 
# From -- ./inp_files/8365.got.cif
#   From: 2010.06.25/outbox.cif.g09.slc.cpg/sg71_5_cif.got.tgz:8365.got - 2010.06.28 04:59:45.
