data_PCOD8291430
_publ_section_title
;
Structure prediction by ZEFSAII (Michael W. Deem and Ramdas Pophale) SiO2 
 PCOD8291430
Probable space group: I M M M
;
_chemical_formula_sum "Si O2"
_cell_formula_units_Z 96
_cell_length_a 17.617897
_cell_length_b 10.328458
_cell_length_c 29.956554
_cell_angle_alpha 90.000000
_cell_angle_beta 90.000000
_cell_angle_gamma 90.000000
_cell_volume 5451.065594
_symmetry_space_group_name_H-M "I M M M"
_symmetry_group_IT_number 71
_symmetry_cell_setting 'orthorhombic'
loop_
_space_group_symop_operation_xyz
x,y,z
-x,-y,z
x,-y,-z
-x,y,-z
-x,-y,-z
x,y,-z
-x,y,z
x,-y,z
1/2+x,1/2+y,1/2+z
1/2-x,1/2-y,1/2+z
1/2+x,1/2-y,1/2-z
1/2-x,1/2+y,1/2-z
1/2-x,1/2-y,1/2-z
1/2+x,1/2+y,1/2-z
1/2-x,1/2+y,1/2+z
1/2+x,1/2-y,1/2+z
loop_
_atom_site_type_symbol
_atom_site_label
_atom_site_fract_x
_atom_site_fract_y
_atom_site_fract_z
Si Si1 0.294536 0.854717 0.884737
Si Si2 0.847532 0.140928 0.270877
Si Si3 0.198658 0.720197 0.813713
Si Si4 0.414308 0.856650 0.611959
Si Si5 0.340158 0.647074 0.551758
Si Si6 0.586233 0.650600 0.861330
O O1 0.241116 0.833954 0.841312
O O2 0.244668 0.838905 0.929197
O O3 0.360630 0.747338 0.889493
O O4 0.328854 0.000000 0.881496
O O5 0.851850 0.229131 0.227328
O O6 0.763572 0.129955 0.292750
O O7 0.905711 0.189299 0.309065
O O8 0.872286 0.000000 0.254564
O O9 0.142206 0.644336 0.845993
O O10 0.500000 0.832847 0.628956
O O11 0.396213 0.747420 0.575588
O O12 0.406726 0.000000 0.590225
O O13 0.337491 0.682438 0.500000
O O14 0.369891 0.500000 0.559564
O O15 0.500000 0.671600 0.876797
O O16 0.611073 0.500000 0.868517
#
# Coordination Sequence:
#
# PCOD8291430 Si02
#       6
#    16  16  16  16  16  16
#     4   9  17  30  50  73  94 120 156 196 238 285
#     4   9  16  27  45  66  89 124 168 206 239 279
#     4   9  17  29  46  66  94 127 162 203 246 281
#     4  10  21  35  50  71 100 132 164 197 236 284
#     4   9  19  36  56  77  99 122 153 195 240 287
#     4   9  18  31  46  68  99 131 161 195 237 284
#
# _framework density 17.611236000000002
#
# number of rings (size 3 to 8) (size 9 to 14) (size 15 to 20)
#    0.000    2.833    0.000    1.000    0.000    6.667 
#    0.000    2.500    0.000    0.500    0.000    3.500 
#    0.000    0.000    0.000    0.000    0.000    0.000 
#
# Total GULP energy -594877.723225 kJ/mol
# GULP energy per Si atom -12393.285901 kJ/mol
# Density = 1.757115 g / cm^3
# Si number density = 17.611236 Si / 1000 Ang^3
#
#
#
# Elastic Constant Matrix: (Units=GPa)
#
#
# Indices 1 2 3 4 5 6 
#
# 1 77.5633 45.4964 22.5960 0.0000 0.0000 0.0000
# 2 45.4964 106.1211 33.9698 0.0000 0.0000 0.0000
# 3 22.5960 33.9698 74.1537 0.0000 0.0000 0.0000
# 4 0.0000 0.0000 0.0000 16.3490 0.0000 0.0000
# 5 0.0000 0.0000 0.0000 0.0000 14.7617 0.0000
# 6 0.0000 0.0000 0.0000 0.0000 0.0000 26.7928
#
#
#
# Elastic Compliance Matrix: (Units=1/GPa)
#
#
# Indices 1 2 3 4 5 6 
#
# 1 0.017532 -0.006804 -0.002225 0.000000 0.000000 0.000000
# 2 -0.006804 0.013683 -0.004195 0.000000 0.000000 0.000000
# 3 -0.002225 -0.004195 0.016085 0.000000 0.000000 0.000000
# 4 0.000000 0.000000 0.000000 0.061166 0.000000 0.000000
# 5 0.000000 0.000000 0.000000 0.000000 0.067743 0.000000
# 6 0.000000 0.000000 0.000000 0.000000 0.000000 0.037323
#
#
# Mechanical properties :
#
#
# Convention : Reuss Voigt Hill
#
# Bulk Modulus (GPa) = 47.95758 51.32914 49.64336
# Shear Modulus (GPa) = 20.24851 21.96576 21.10714
#
# Velocity S-wave (km/s) = 3.39447 3.53549 3.46570
# Velocity P-wave (km/s) = 6.53097 6.77312 6.65315
#
# Compressibility (1/GPa) = 0.02085176
#
# Stress axis : x y z
#
# Youngs Moduli (GPa) = 57.03839 73.08331 62.16854
#
# Poissons Ratio (x) = 0.49726 0.13835
# Poissons Ratio (y) = 0.38809 0.26079
# Poissons Ratio (z) = 0.12694 0.30658
#
# Static dielectric constant tensor:
#      x y z
#    x 3.128340 0.000000 0.000000 
#    y 0.000000 3.322060 0.000000 
#    z 0.000000 0.000000 3.098240 
# 
# 
# High freq. dielectric constant tensor:
#      x y z
#    x 1.666130 0.000000 0.000000 
#    y 0.000000 1.685500 0.000000 
#    z 0.000000 0.000000 1.660470 
# 
# From -- ./inp_files/64598.got.cif
#   From: 2010.06.25/outbox.cif.g09.slc.cpg/sg71_33_cif.got.tgz:64598.got - 2010.06.28 04:59:45.
