data_PCOD8291704
_publ_section_title
;
Structure prediction by ZEFSAII (Michael W. Deem and Ramdas Pophale) SiO2 
 PCOD8291704
Probable space group: I M M M
;
_chemical_formula_sum "Si O2"
_cell_formula_units_Z 104
_cell_length_a 26.651235
_cell_length_b 8.965323
_cell_length_c 23.735187
_cell_angle_alpha 90.000000
_cell_angle_beta 90.000000
_cell_angle_gamma 90.000000
_cell_volume 5671.212718
_symmetry_space_group_name_H-M "I M M M"
_symmetry_group_IT_number 71
_symmetry_cell_setting 'orthorhombic'
loop_
_space_group_symop_operation_xyz
x,y,z
-x,-y,z
x,-y,-z
-x,y,-z
-x,-y,-z
x,y,-z
-x,y,z
x,-y,z
1/2+x,1/2+y,1/2+z
1/2-x,1/2-y,1/2+z
1/2+x,1/2-y,1/2-z
1/2-x,1/2+y,1/2-z
1/2-x,1/2-y,1/2-z
1/2+x,1/2+y,1/2-z
1/2-x,1/2+y,1/2+z
1/2+x,1/2-y,1/2+z
loop_
_atom_site_type_symbol
_atom_site_label
_atom_site_fract_x
_atom_site_fract_y
_atom_site_fract_z
Si Si1 0.821580 0.677011 0.140724
Si Si2 0.375473 0.823824 0.937524
Si Si3 0.099135 0.169719 0.933203
Si Si4 0.284254 0.825313 0.860591
Si Si5 0.056227 0.321755 0.662192
Si Si6 0.855984 0.323662 0.261120
Si Si7 0.000000 0.667949 0.067098
O O1 0.824326 0.500000 0.138632
O O2 0.852850 0.743991 0.089548
O O3 0.764813 0.727035 0.132724
O O4 0.844607 0.741212 0.199258
O O5 0.320966 0.784625 0.912301
O O6 0.419425 0.762971 0.896419
O O7 0.380875 0.000000 0.941310
O O8 0.380848 0.752508 0.000000
O O9 0.048897 0.247718 0.909721
O O10 0.099451 0.000000 0.912040
O O11 0.101208 0.178727 0.000000
O O12 0.310864 0.777204 0.802456
O O13 0.270370 0.000000 0.860723
O O14 0.055498 0.500000 0.661747
O O15 0.090729 0.264195 0.714305
O O16 0.000000 0.256851 0.668576
O O17 0.858711 0.500000 0.258556
O O18 0.000000 0.500000 0.091086
O O19 0.000000 0.667599 0.000000
#
# Coordination Sequence:
#
# PCOD8291704 Si02
#       7
#    16  16  16  16  16  16   8
#     4  11  21  32  48  73 100 125 165 216 257 295
#     4   8  14  24  40  65  94 124 160 199 239 287
#     4  10  21  37  55  74  99 132 165 197 243 305
#     4   9  17  31  49  66  94 135 171 204 248 301
#     4   8  13  23  40  62  93 130 160 191 237 293
#     4   8  16  30  45  65  94 129 168 208 251 301
#     4   9  17  33  57  79  99 125 157 195 238 281
#
# _framework density 18.338229999999999
#
# number of rings (size 3 to 8) (size 9 to 14) (size 15 to 20)
#    0.000    3.000    0.000    3.462    0.000    2.769 
#    1.385    3.846    0.000    0.000    0.000    0.000 
#    0.000    6.000    0.000    5.538    0.000    6.154 
#
# Total GULP energy -644584.484904 kJ/mol
# GULP energy per Si atom -12395.855479 kJ/mol
# Density = 1.829649 g / cm^3
# Si number density = 18.338230 Si / 1000 Ang^3
#
#
#
# Elastic Constant Matrix: (Units=GPa)
#
#
# Indices 1 2 3 4 5 6 
#
# 1 154.6795 42.6023 38.6829 0.0000 0.0000 0.0000
# 2 42.6023 60.4184 16.6506 0.0000 0.0000 0.0000
# 3 38.6829 16.6506 40.7453 0.0000 0.0000 0.0000
# 4 0.0000 0.0000 0.0000 13.2774 0.0000 0.0000
# 5 0.0000 0.0000 0.0000 0.0000 17.8437 0.0000
# 6 0.0000 0.0000 0.0000 0.0000 0.0000 17.2578
#
#
#
# Elastic Compliance Matrix: (Units=1/GPa)
#
#
# Indices 1 2 3 4 5 6 
#
# 1 0.009564 -0.004780 -0.007126 0.000000 0.000000 0.000000
# 2 -0.004780 0.021040 -0.004061 0.000000 0.000000 0.000000
# 3 -0.007126 -0.004061 0.032968 0.000000 0.000000 0.000000
# 4 0.000000 0.000000 0.000000 0.075316 0.000000 0.000000
# 5 0.000000 0.000000 0.000000 0.000000 0.056042 0.000000
# 6 0.000000 0.000000 0.000000 0.000000 0.000000 0.057945
#
#
# Mechanical properties :
#
#
# Convention : Reuss Voigt Hill
#
# Bulk Modulus (GPa) = 31.60679 50.19053 40.89866
# Shear Modulus (GPa) = 16.92884 20.20293 18.56589
#
# Velocity S-wave (km/s) = 3.04163 3.32276 3.18530
# Velocity P-wave (km/s) = 5.44134 6.49229 5.98991
#
# Compressibility (1/GPa) = 0.03163877
#
# Stress axis : x y z
#
# Youngs Moduli (GPa) = 104.56369 47.52750 30.33277
#
# Poissons Ratio (x) = 0.22716 0.21616
# Poissons Ratio (y) = 0.49977 0.12317
# Poissons Ratio (z) = 0.74515 0.19299
#
# Static dielectric constant tensor:
#      x y z
#    x 3.528620 0.000000 0.000000 
#    y 0.000000 2.962960 0.000000 
#    z 0.000000 0.000000 3.709150 
# 
# 
# High freq. dielectric constant tensor:
#      x y z
#    x 1.720150 0.000000 0.000000 
#    y 0.000000 1.665500 0.000000 
#    z 0.000000 0.000000 1.705590 
# 
# From -- ./inp_files/61955.got.cif
#   From: 2010.06.25/outbox.cif.g09.slc.cpg/sg71_31_cif.got.tgz:61955.got - 2010.06.28 04:59:45.
