data_PCOD8291979
_publ_section_title
;
Structure prediction by ZEFSAII (Michael W. Deem and Ramdas Pophale) SiO2 
 PCOD8291979
Probable space group: I M M M
;
_chemical_formula_sum "Si O2"
_cell_formula_units_Z 60
_cell_length_a 22.605972
_cell_length_b 10.523428
_cell_length_c 12.725301
_cell_angle_alpha 90.000000
_cell_angle_beta 90.000000
_cell_angle_gamma 90.000000
_cell_volume 3027.251361
_symmetry_space_group_name_H-M "I M M M"
_symmetry_group_IT_number 71
_symmetry_cell_setting 'orthorhombic'
loop_
_space_group_symop_operation_xyz
x,y,z
-x,-y,z
x,-y,-z
-x,y,-z
-x,-y,-z
x,y,-z
-x,y,z
x,-y,z
1/2+x,1/2+y,1/2+z
1/2-x,1/2-y,1/2+z
1/2+x,1/2-y,1/2-z
1/2-x,1/2+y,1/2-z
1/2-x,1/2-y,1/2-z
1/2+x,1/2+y,1/2-z
1/2-x,1/2+y,1/2+z
1/2+x,1/2-y,1/2+z
loop_
_atom_site_type_symbol
_atom_site_label
_atom_site_fract_x
_atom_site_fract_y
_atom_site_fract_z
Si Si1 0.653304 0.261032 0.384387
Si Si2 0.661776 0.000000 0.000000
Si Si3 0.220989 0.500000 0.117207
Si Si4 0.932062 0.856993 0.282566
Si Si5 0.266713 0.500000 0.660079
Si Si6 0.567545 0.223104 0.000000
O O1 0.624302 0.269995 0.500000
O O2 0.682231 0.124872 0.368487
O O3 0.602635 0.268625 0.297940
O O4 0.701366 0.372273 0.376085
O O5 0.617996 0.118548 0.000000
O O6 0.701882 0.000000 0.105468
O O7 0.267252 0.500000 0.212695
O O8 0.250952 0.500000 0.000000
O O9 0.922114 0.811809 0.400380
O O10 0.000000 0.849801 0.250021
O O11 0.907688 0.000000 0.272387
O O12 0.500000 0.166980 0.000000
#
# Coordination Sequence:
#
# PCOD8291979 Si02
#       6
#    16   4   8  16   8   8
#     4  11  22  42  60  88 125 160 201 266 301 360
#     4  12  23  38  68  90 121 174 204 250 322 362
#     4  10  24  40  60  83 121 162 201 251 313 363
#     4  10  21  39  64  91 122 163 206 256 314 368
#     4  12  22  41  61  87 124 159 212 252 297 371
#     4  10  22  40  61  93 128 157 207 261 308 372
#
# _framework density 19.819959999999998
#
# number of rings (size 3 to 8) (size 9 to 14) (size 15 to 20)
#    0.000    1.333    2.667    3.000    0.000    2.133 
#    2.400    3.333    0.000    2.400    0.000    0.000 
#    0.000    0.000    0.000    0.000    0.000    0.000 
#
# Total GULP energy -371974.985736 kJ/mol
# GULP energy per Si atom -12399.166191 kJ/mol
# Density = 1.977485 g / cm^3
# Si number density = 19.819960 Si / 1000 Ang^3
#
#
#
# Elastic Constant Matrix: (Units=GPa)
#
#
# Indices 1 2 3 4 5 6 
#
# 1 64.1366 32.9112 34.7965 0.0000 0.0000 0.0000
# 2 32.9112 130.2336 27.0762 0.0000 0.0000 0.0000
# 3 34.7965 27.0762 145.0992 0.0000 0.0000 0.0000
# 4 0.0000 0.0000 0.0000 30.2198 0.0000 0.0000
# 5 0.0000 0.0000 0.0000 0.0000 18.4977 0.0000
# 6 0.0000 0.0000 0.0000 0.0000 0.0000 15.7631
#
#
#
# Elastic Compliance Matrix: (Units=1/GPa)
#
#
# Indices 1 2 3 4 5 6 
#
# 1 0.019914 -0.004203 -0.003991 0.000000 0.000000 0.000000
# 2 -0.004203 0.008875 -0.000648 0.000000 0.000000 0.000000
# 3 -0.003991 -0.000648 0.007970 0.000000 0.000000 0.000000
# 4 0.000000 0.000000 0.000000 0.033091 0.000000 0.000000
# 5 0.000000 0.000000 0.000000 0.000000 0.054061 0.000000
# 6 0.000000 0.000000 0.000000 0.000000 0.000000 0.063439
#
#
# Mechanical properties :
#
#
# Convention : Reuss Voigt Hill
#
# Bulk Modulus (GPa) = 52.42592 58.78192 55.60392
# Shear Modulus (GPa) = 23.65266 29.20848 26.43057
#
# Velocity S-wave (km/s) = 3.45827 3.84303 3.65572
# Velocity P-wave (km/s) = 6.51573 7.02952 6.77750
#
# Compressibility (1/GPa) = 0.01907453
#
# Stress axis : x y z
#
# Youngs Moduli (GPa) = 50.21676 112.67187 125.47069
#
# Poissons Ratio (x) = 0.47351 0.50079
# Poissons Ratio (y) = 0.21104 0.08135
# Poissons Ratio (z) = 0.20043 0.07305
#
# Static dielectric constant tensor:
#      x y z
#    x 3.486110 0.000000 0.000000 
#    y 0.000000 3.753440 0.000000 
#    z 0.000000 0.000000 3.958980 
# 
# 
# High freq. dielectric constant tensor:
#      x y z
#    x 1.760230 0.000000 0.000000 
#    y 0.000000 1.786010 0.000000 
#    z 0.000000 0.000000 1.795310 
# 
# From -- ./inp_files/19677.got.cif
#   From: 2010.06.25/outbox.cif.g09.slc.cpg/sg71_10_cif.got.tgz:19677.got - 2010.06.28 04:59:45.
