data_PCOD8291439
_publ_section_title
;
Structure prediction by ZEFSAII (Michael W. Deem and Ramdas Pophale) SiO2 
 PCOD8291439
Probable space group: I M M M
;
_chemical_formula_sum "Si O2"
_cell_formula_units_Z 56
_cell_length_a 7.852060
_cell_length_b 9.656500
_cell_length_c 39.661015
_cell_angle_alpha 90.000000
_cell_angle_beta 90.000000
_cell_angle_gamma 90.000000
_cell_volume 3007.233694
_symmetry_space_group_name_H-M "I M M M"
_symmetry_group_IT_number 71
_symmetry_cell_setting 'orthorhombic'
loop_
_space_group_symop_operation_xyz
x,y,z
-x,-y,z
x,-y,-z
-x,y,-z
-x,-y,-z
x,y,-z
-x,y,z
x,-y,z
1/2+x,1/2+y,1/2+z
1/2-x,1/2-y,1/2+z
1/2+x,1/2-y,1/2-z
1/2-x,1/2+y,1/2-z
1/2-x,1/2-y,1/2-z
1/2+x,1/2+y,1/2-z
1/2-x,1/2+y,1/2+z
1/2+x,1/2-y,1/2+z
loop_
_atom_site_type_symbol
_atom_site_label
_atom_site_fract_x
_atom_site_fract_y
_atom_site_fract_z
Si Si1 0.801637 0.846185 0.352718
Si Si2 0.500000 0.663676 0.537457
Si Si3 0.697421 0.837762 0.085546
Si Si4 0.198893 0.346794 0.780384
O O1 0.735076 0.742285 0.381347
O O2 0.761488 0.782870 0.315884
O O3 0.000000 0.860518 0.357512
O O4 0.717549 0.000000 0.356318
O O5 0.500000 0.500000 0.534882
O O6 0.500000 0.729705 0.500000
O O7 0.674796 0.710771 0.555901
O O8 0.500000 0.802434 0.076010
O O9 0.716382 0.000000 0.093143
O O10 0.280696 0.500000 0.775333
O O11 0.250000 0.250000 0.750000
O O12 0.000000 0.360174 0.781549
#
# Coordination Sequence:
#
# PCOD8291439 Si02
#       4
#    16   8  16  16
#     4   9  18  33  52  73  99 131 165 205 254 304
#     4   9  18  32  51  77 107 135 167 211 259 305
#     4   9  18  32  51  76 103 132 170 211 251 301
#     4  10  21  35  51  73 100 132 171 212 256 308
#
# _framework density 18.621763999999999
#
# number of rings (size 3 to 8) (size 9 to 14) (size 15 to 20)
#    0.000    2.714    0.000    0.857    2.000    3.429 
#    0.000    5.714    0.000    1.714    0.000    4.000 
#    0.000    0.000    0.000    0.000    0.000    0.000 
#
# Total GULP energy -347027.699805 kJ/mol
# GULP energy per Si atom -12393.846422 kJ/mol
# Density = 1.857938 g / cm^3
# Si number density = 18.621764 Si / 1000 Ang^3
#
#
#
# Elastic Constant Matrix: (Units=GPa)
#
#
# Indices 1 2 3 4 5 6 
#
# 1 68.3407 29.4381 56.7930 0.0000 0.0000 0.0000
# 2 29.4381 57.8726 67.4032 0.0000 0.0000 0.0000
# 3 56.7930 67.4032 192.1031 0.0000 0.0000 0.0000
# 4 0.0000 0.0000 0.0000 23.6169 0.0000 0.0000
# 5 0.0000 0.0000 0.0000 0.0000 34.4242 0.0000
# 6 0.0000 0.0000 0.0000 0.0000 0.0000 15.1701
#
#
#
# Elastic Compliance Matrix: (Units=1/GPa)
#
#
# Indices 1 2 3 4 5 6 
#
# 1 0.020447 -0.005683 -0.004051 0.000000 0.000000 0.000000
# 2 -0.005683 0.030799 -0.009127 0.000000 0.000000 0.000000
# 3 -0.004051 -0.009127 0.009605 0.000000 0.000000 0.000000
# 4 0.000000 0.000000 0.000000 0.042343 0.000000 0.000000
# 5 0.000000 0.000000 0.000000 0.000000 0.029049 0.000000
# 6 0.000000 0.000000 0.000000 0.000000 0.000000 0.065919
#
#
# Mechanical properties :
#
#
# Convention : Reuss Voigt Hill
#
# Bulk Modulus (GPa) = 43.23136 69.50946 56.37041
# Shear Modulus (GPa) = 20.52599 25.62106 23.07353
#
# Velocity S-wave (km/s) = 3.32363 3.71329 3.52385
# Velocity P-wave (km/s) = 6.16397 7.46945 6.84789
#
# Compressibility (1/GPa) = 0.02313136
#
# Stress axis : x y z
#
# Youngs Moduli (GPa) = 48.90723 32.46809 104.10768
#
# Poissons Ratio (x) = 0.18450 0.42174
# Poissons Ratio (y) = 0.27792 0.95015
# Poissons Ratio (z) = 0.19813 0.29632
#
# Static dielectric constant tensor:
#      x y z
#    x 3.485680 0.000000 0.000000 
#    y 0.000000 3.739490 0.000000 
#    z 0.000000 0.000000 3.501820 
# 
# 
# High freq. dielectric constant tensor:
#      x y z
#    x 1.728400 0.000000 0.000000 
#    y 0.000000 1.698870 0.000000 
#    z 0.000000 0.000000 1.721610 
# 
# From -- ./inp_files/3572.got.cif
#   From: 2010.06.25/outbox.cif.g09.slc.cpg/sg71_2_cif.got.tgz:3572.got - 2010.06.28 04:59:45.
