data_PCOD8291839
_publ_section_title
;
Structure prediction by ZEFSAII (Michael W. Deem and Ramdas Pophale) SiO2 
 PCOD8291839
Probable space group: I M M M
;
_chemical_formula_sum "Si O2"
_cell_formula_units_Z 112
_cell_length_a 14.714402
_cell_length_b 15.344274
_cell_length_c 24.404657
_cell_angle_alpha 90.000000
_cell_angle_beta 90.000000
_cell_angle_gamma 90.000000
_cell_volume 5510.127777
_symmetry_space_group_name_H-M "I M M M"
_symmetry_group_IT_number 71
_symmetry_cell_setting 'orthorhombic'
loop_
_space_group_symop_operation_xyz
x,y,z
-x,-y,z
x,-y,-z
-x,y,-z
-x,-y,-z
x,y,-z
-x,y,z
x,-y,z
1/2+x,1/2+y,1/2+z
1/2-x,1/2-y,1/2+z
1/2+x,1/2-y,1/2-z
1/2-x,1/2+y,1/2-z
1/2-x,1/2-y,1/2-z
1/2+x,1/2+y,1/2-z
1/2-x,1/2+y,1/2+z
1/2+x,1/2-y,1/2+z
loop_
_atom_site_type_symbol
_atom_site_label
_atom_site_fract_x
_atom_site_fract_y
_atom_site_fract_z
Si Si1 0.399631 0.220075 0.938268
Si Si2 0.264061 0.600821 0.438563
Si Si3 0.793341 0.598617 0.832922
Si Si4 0.399216 0.662846 0.161935
Si Si5 0.102397 0.396703 0.060519
Si Si6 0.397056 0.240666 0.268490
Si Si7 0.394602 0.401527 0.657370
O O1 0.500000 0.177872 0.933119
O O2 0.327528 0.148298 0.919893
O O3 0.392346 0.303898 0.899854
O O4 0.381319 0.252904 0.000000
O O5 0.294037 0.627284 0.500000
O O6 0.241008 0.500000 0.434785
O O7 0.344901 0.627430 0.398208
O O8 0.828374 0.500000 0.822768
O O9 0.683630 0.595702 0.830648
O O10 0.829618 0.635812 0.891617
O O11 0.831251 0.662119 0.785836
O O12 0.500000 0.619722 0.172225
O O13 0.387626 0.744792 0.203368
O O14 0.103831 0.500000 0.058894
O O15 0.000000 0.363956 0.073720
O O16 0.132724 0.361559 0.000000
O O17 0.500000 0.215455 0.284992
O O18 0.368306 0.333232 0.295411
O O19 0.500000 0.398003 0.643309
O O20 0.366571 0.500000 0.675961
#
# Coordination Sequence:
#
# PCOD8291839 Si02
#       7
#    16  16  16  16  16  16  16
#     4   9  18  34  55  75  97 131 176 224 272 321
#     4   9  17  29  48  76 108 139 171 214 268 321
#     4  11  22  35  56  84 113 147 183 223 275 331
#     4  10  22  39  56  75 104 143 185 229 274 319
#     4   8  15  30  52  78 109 143 178 218 266 321
#     4  10  21  38  58  80 110 144 180 226 275 324
#     4   9  18  33  54  79 107 143 183 218 257 310
#
# _framework density 20.326208000000001
#
# number of rings (size 3 to 8) (size 9 to 14) (size 15 to 20)
#    0.000    2.571    0.000    2.143    0.000    2.857 
#    0.000    7.143    0.000    3.429    0.000    4.000 
#    0.000    0.000    0.000    0.000    0.000    0.000 
#
# Total GULP energy -694154.508058 kJ/mol
# GULP energy per Si atom -12395.616215 kJ/mol
# Density = 2.027994 g / cm^3
# Si number density = 20.326208 Si / 1000 Ang^3
#
#
#
# Elastic Constant Matrix: (Units=GPa)
#
#
# Indices 1 2 3 4 5 6 
#
# 1 96.9215 33.5859 30.9755 0.0000 0.0000 0.0000
# 2 33.5859 62.0857 27.0078 0.0000 0.0000 0.0000
# 3 30.9755 27.0078 80.1502 0.0000 0.0000 0.0000
# 4 0.0000 0.0000 0.0000 20.5112 0.0000 0.0000
# 5 0.0000 0.0000 0.0000 0.0000 25.1731 0.0000
# 6 0.0000 0.0000 0.0000 0.0000 0.0000 22.2657
#
#
#
# Elastic Compliance Matrix: (Units=1/GPa)
#
#
# Indices 1 2 3 4 5 6 
#
# 1 0.013362 -0.005838 -0.003197 0.000000 0.000000 0.000000
# 2 -0.005838 0.021424 -0.004963 0.000000 0.000000 0.000000
# 3 -0.003197 -0.004963 0.015384 0.000000 0.000000 0.000000
# 4 0.000000 0.000000 0.000000 0.048754 0.000000 0.000000
# 5 0.000000 0.000000 0.000000 0.000000 0.039725 0.000000
# 6 0.000000 0.000000 0.000000 0.000000 0.000000 0.044912
#
#
# Mechanical properties :
#
#
# Convention : Reuss Voigt Hill
#
# Bulk Modulus (GPa) = 45.09565 46.92177 46.00871
# Shear Modulus (GPa) = 22.83643 23.42921 23.13282
#
# Velocity S-wave (km/s) = 3.35550 3.39877 3.37720
# Velocity P-wave (km/s) = 6.10300 6.20779 6.15562
#
# Compressibility (1/GPa) = 0.02217509
#
# Stress axis : x y z
#
# Youngs Moduli (GPa) = 74.83739 46.67725 65.00078
#
# Poissons Ratio (x) = 0.27249 0.20781
# Poissons Ratio (y) = 0.43688 0.32259
# Poissons Ratio (z) = 0.23925 0.23166
#
# Static dielectric constant tensor:
#      x y z
#    x 3.840110 0.000000 0.000000 
#    y 0.000000 3.310440 0.000000 
#    z 0.000000 0.000000 3.909690 
# 
# 
# High freq. dielectric constant tensor:
#      x y z
#    x 1.801000 0.000000 0.000000 
#    y 0.000000 1.760400 0.000000 
#    z 0.000000 0.000000 1.800210 
# 
# From -- ./inp_files/34907.got.cif
#   From: 2010.06.25/outbox.cif.g09.slc.cpg/sg71_18_cif.got.tgz:34907.got - 2010.06.28 04:59:45.
