data_PCOD8291334
_publ_section_title
;
Structure prediction by ZEFSAII (Michael W. Deem and Ramdas Pophale) SiO2 
 PCOD8291334
Probable space group: I M M M
;
_chemical_formula_sum "Si O2"
_cell_formula_units_Z 104
_cell_length_a 30.136743
_cell_length_b 20.236804
_cell_length_c 8.287665
_cell_angle_alpha 90.000000
_cell_angle_beta 90.000000
_cell_angle_gamma 90.000000
_cell_volume 5054.409535
_symmetry_space_group_name_H-M "I M M M"
_symmetry_group_IT_number 71
_symmetry_cell_setting 'orthorhombic'
loop_
_space_group_symop_operation_xyz
x,y,z
-x,-y,z
x,-y,-z
-x,y,-z
-x,-y,-z
x,y,-z
-x,y,z
x,-y,z
1/2+x,1/2+y,1/2+z
1/2-x,1/2-y,1/2+z
1/2+x,1/2-y,1/2-z
1/2-x,1/2+y,1/2-z
1/2-x,1/2-y,1/2-z
1/2+x,1/2+y,1/2-z
1/2-x,1/2+y,1/2+z
1/2+x,1/2-y,1/2+z
loop_
_atom_site_type_symbol
_atom_site_label
_atom_site_fract_x
_atom_site_fract_y
_atom_site_fract_z
Si Si1 0.167145 0.887823 0.319052
Si Si2 0.077824 0.860165 0.181517
Si Si3 0.229300 0.000000 0.191465
Si Si4 0.949738 0.711634 0.185338
Si Si5 0.450861 0.569557 0.000000
Si Si6 0.330933 0.000000 0.191557
Si Si7 0.797823 0.258290 0.322331
Si Si8 0.132424 0.361692 0.690733
O O1 0.150441 0.908460 0.500000
O O2 0.127506 0.889448 0.190254
O O3 0.206628 0.934633 0.262065
O O4 0.181612 0.813169 0.325795
O O5 0.074176 0.781929 0.208722
O O6 0.053180 0.890578 0.333462
O O7 0.059365 0.877979 0.000000
O O8 0.280002 0.000000 0.251389
O O9 0.225498 0.000000 0.000000
O O10 0.918138 0.656803 0.265572
O O11 0.000000 0.711365 0.260229
O O12 0.953712 0.693083 0.000000
O O13 0.422646 0.500000 0.000000
O O14 0.500000 0.545308 0.000000
O O15 0.355970 0.065242 0.258210
O O16 0.331739 0.000000 0.000000
O O17 0.790550 0.287109 0.500000
O O18 0.750000 0.250000 0.250000
O O19 0.831489 0.309690 0.233484
O O20 0.136262 0.359806 0.500000
#
# Coordination Sequence:
#
# PCOD8291334 Si02
#       8
#    16  16   8  16   8   8  16  16
#     4  11  22  38  58  87 123 161 208 262 311 368
#     4  11  23  41  65  92 125 168 213 265 326 379
#     4  11  23  39  61  88 120 172 217 255 310 375
#     4  10  22  40  63  93 123 156 207 268 324 385
#     4  11  26  44  64  92 126 167 211 261 321 382
#     4   9  20  39  62  88 127 164 207 261 313 381
#     4  10  21  35  56  84 119 158 204 257 310 370
#     4  10  20  38  62  90 120 162 207 255 319 383
#
# _framework density 20.576094000000001
#
# number of rings (size 3 to 8) (size 9 to 14) (size 15 to 20)
#    0.000    1.615    2.308    2.077    2.154    4.615 
#    0.000    3.077    0.000    2.308    0.000    0.000 
#    0.000    0.000    0.000    0.000    0.000    0.000 
#
# Total GULP energy -644241.107231 kJ/mol
# GULP energy per Si atom -12389.252062 kJ/mol
# Density = 2.052926 g / cm^3
# Si number density = 20.576094 Si / 1000 Ang^3
#
#
#
# Elastic Constant Matrix: (Units=GPa)
#
#
# Indices 1 2 3 4 5 6 
#
# 1 126.5445 57.8630 30.9686 0.0000 0.0000 0.0000
# 2 57.8630 139.4326 44.7815 0.0000 0.0000 0.0000
# 3 30.9686 44.7815 91.0859 0.0000 0.0000 0.0000
# 4 0.0000 0.0000 0.0000 23.4685 0.0000 0.0000
# 5 0.0000 0.0000 0.0000 0.0000 17.6400 0.0000
# 6 0.0000 0.0000 0.0000 0.0000 0.0000 15.5461
#
#
#
# Elastic Compliance Matrix: (Units=1/GPa)
#
#
# Indices 1 2 3 4 5 6 
#
# 1 0.009947 -0.003612 -0.001606 0.000000 0.000000 0.000000
# 2 -0.003612 0.009828 -0.003604 0.000000 0.000000 0.000000
# 3 -0.001606 -0.003604 0.013297 0.000000 0.000000 0.000000
# 4 0.000000 0.000000 0.000000 0.042610 0.000000 0.000000
# 5 0.000000 0.000000 0.000000 0.000000 0.056689 0.000000
# 6 0.000000 0.000000 0.000000 0.000000 0.000000 0.064325
#
#
# Mechanical properties :
#
#
# Convention : Reuss Voigt Hill
#
# Bulk Modulus (GPa) = 64.81828 69.36547 67.09187
# Shear Modulus (GPa) = 22.78079 26.22758 24.50419
#
# Velocity S-wave (km/s) = 3.33099 3.57412 3.45469
# Velocity P-wave (km/s) = 6.80912 7.12862 6.97070
#
# Compressibility (1/GPa) = 0.01542775
#
# Stress axis : x y z
#
# Youngs Moduli (GPa) = 100.53227 101.74622 75.20755
#
# Poissons Ratio (x) = 0.36752 0.12079
# Poissons Ratio (y) = 0.36313 0.27104
# Poissons Ratio (z) = 0.16146 0.36669
#
# Static dielectric constant tensor:
#      x y z
#    x 3.939420 0.000000 0.000000 
#    y 0.000000 3.844490 0.000000 
#    z 0.000000 0.000000 3.728650 
# 
# 
# High freq. dielectric constant tensor:
#      x y z
#    x 1.809270 0.000000 0.000000 
#    y 0.000000 1.805340 0.000000 
#    z 0.000000 0.000000 1.792820 
# 
# From -- ./inp_files/17078.got.cif
#   From: 2010.06.25/outbox.cif.g09.slc.cpg/sg71_9_cif.got.tgz:17078.got - 2010.06.28 04:59:45.
