data_PCOD8291674
_publ_section_title
;
Structure prediction by ZEFSAII (Michael W. Deem and Ramdas Pophale) SiO2 
 PCOD8291674
Probable space group: I M M M
;
_chemical_formula_sum "Si O2"
_cell_formula_units_Z 88
_cell_length_a 24.100570
_cell_length_b 20.102437
_cell_length_c 8.830910
_cell_angle_alpha 90.000000
_cell_angle_beta 90.000000
_cell_angle_gamma 90.000000
_cell_volume 4278.400955
_symmetry_space_group_name_H-M "I M M M"
_symmetry_group_IT_number 71
_symmetry_cell_setting 'orthorhombic'
loop_
_space_group_symop_operation_xyz
x,y,z
-x,-y,z
x,-y,-z
-x,y,-z
-x,-y,-z
x,y,-z
-x,y,z
x,-y,z
1/2+x,1/2+y,1/2+z
1/2-x,1/2-y,1/2+z
1/2+x,1/2-y,1/2-z
1/2-x,1/2+y,1/2-z
1/2-x,1/2-y,1/2-z
1/2+x,1/2+y,1/2-z
1/2-x,1/2+y,1/2+z
1/2+x,1/2-y,1/2+z
loop_
_atom_site_type_symbol
_atom_site_label
_atom_site_fract_x
_atom_site_fract_y
_atom_site_fract_z
Si Si1 0.368022 0.377754 0.321224
Si Si2 0.438686 0.115169 0.823280
Si Si3 0.833000 0.427492 0.173478
Si Si4 0.257631 0.323502 0.180964
Si Si5 0.934715 0.000000 0.680144
Si Si6 0.062972 0.250588 0.829940
O O1 0.361872 0.391514 0.500000
O O2 0.308446 0.366289 0.246023
O O3 0.402741 0.436558 0.245607
O O4 0.400074 0.310837 0.283739
O O5 0.500000 0.098438 0.755510
O O6 0.391986 0.067834 0.756632
O O7 0.422705 0.190922 0.785293
O O8 0.439997 0.104827 0.000000
O O9 0.804079 0.500000 0.197005
O O10 0.794924 0.367566 0.233725
O O11 0.846052 0.414082 0.000000
O O12 0.250000 0.250000 0.250000
O O13 0.262594 0.317977 0.000000
O O14 0.929810 0.000000 0.500000
O O15 0.000000 0.000000 0.729367
O O16 0.000000 0.226596 0.815786
O O17 0.076520 0.275298 0.000000
#
# Coordination Sequence:
#
# PCOD8291674 Si02
#       6
#    16  16  16  16   8  16
#     4  11  23  39  62  91 123 162 210 262 318 380
#     4  10  21  36  57  88 122 153 190 242 302 360
#     4  10  23  42  62  84 114 157 203 246 295 357
#     4  11  24  42  65  92 125 163 209 264 319 379
#     4  11  25  43  63  91 129 173 218 265 324 393
#     4   9  18  34  57  84 116 155 198 245 296 354
#
# _framework density 20.568432999999999
#
# number of rings (size 3 to 8) (size 9 to 14) (size 15 to 20)
#    0.000    1.727    0.000    3.545    1.273   10.545 
#    0.000    3.636    0.000    0.000    0.000    0.000 
#    0.000    0.000    0.000    0.000    0.000    0.000 
#
# Total GULP energy -545477.480308 kJ/mol
# GULP energy per Si atom -12397.215462 kJ/mol
# Density = 2.052162 g / cm^3
# Si number density = 20.568433 Si / 1000 Ang^3
#
#
#
# Elastic Constant Matrix: (Units=GPa)
#
#
# Indices 1 2 3 4 5 6 
#
# 1 136.2333 74.1022 49.4350 0.0000 0.0000 0.0000
# 2 74.1022 109.4035 46.8716 0.0000 0.0000 0.0000
# 3 49.4350 46.8716 75.8566 0.0000 0.0000 0.0000
# 4 0.0000 0.0000 0.0000 33.7299 0.0000 0.0000
# 5 0.0000 0.0000 0.0000 0.0000 34.5067 0.0000
# 6 0.0000 0.0000 0.0000 0.0000 0.0000 41.1252
#
#
#
# Elastic Compliance Matrix: (Units=1/GPa)
#
#
# Indices 1 2 3 4 5 6 
#
# 1 0.012433 -0.006732 -0.003943 0.000000 0.000000 0.000000
# 2 -0.006732 0.016076 -0.005546 0.000000 0.000000 0.000000
# 3 -0.003943 -0.005546 0.019179 0.000000 0.000000 0.000000
# 4 0.000000 0.000000 0.000000 0.029647 0.000000 0.000000
# 5 0.000000 0.000000 0.000000 0.000000 0.028980 0.000000
# 6 0.000000 0.000000 0.000000 0.000000 0.000000 0.024316
#
#
# Mechanical properties :
#
#
# Convention : Reuss Voigt Hill
#
# Bulk Modulus (GPa) = 65.58924 73.59012 69.58968
# Shear Modulus (GPa) = 29.73429 31.94467 30.83948
#
# Velocity S-wave (km/s) = 3.80627 3.94520 3.87636
# Velocity P-wave (km/s) = 7.16061 7.52388 7.34449
#
# Compressibility (1/GPa) = 0.01524640
#
# Stress axis : x y z
#
# Youngs Moduli (GPa) = 80.43261 62.20266 52.13947
#
# Poissons Ratio (x) = 0.41874 0.20557
# Poissons Ratio (y) = 0.54147 0.28919
# Poissons Ratio (z) = 0.31712 0.34501
#
# Static dielectric constant tensor:
#      x y z
#    x 4.075220 0.000000 0.000000 
#    y 0.000000 5.506860 0.000000 
#    z 0.000000 0.000000 3.727410 
# 
# 
# High freq. dielectric constant tensor:
#      x y z
#    x 1.816840 0.000000 0.000000 
#    y 0.000000 1.813670 0.000000 
#    z 0.000000 0.000000 1.802710 
# 
# From -- ./inp_files/12530.got.cif
#   From: 2010.06.25/outbox.cif.g09.slc.cpg/sg71_7_cif.got.tgz:12530.got - 2010.06.28 04:59:45.
