data_PCOD8291475
_publ_section_title
;
Structure prediction by ZEFSAII (Michael W. Deem and Ramdas Pophale) SiO2 
 PCOD8291475
Probable space group: I M M M
;
_chemical_formula_sum "Si O2"
_cell_formula_units_Z 104
_cell_length_a 19.941310
_cell_length_b 28.626413
_cell_length_c 9.556044
_cell_angle_alpha 90.000000
_cell_angle_beta 90.000000
_cell_angle_gamma 90.000000
_cell_volume 5455.050285
_symmetry_space_group_name_H-M "I M M M"
_symmetry_group_IT_number 71
_symmetry_cell_setting 'orthorhombic'
loop_
_space_group_symop_operation_xyz
x,y,z
-x,-y,z
x,-y,-z
-x,y,-z
-x,-y,-z
x,y,-z
-x,y,z
x,-y,z
1/2+x,1/2+y,1/2+z
1/2-x,1/2-y,1/2+z
1/2+x,1/2-y,1/2-z
1/2-x,1/2+y,1/2-z
1/2-x,1/2-y,1/2-z
1/2+x,1/2+y,1/2-z
1/2-x,1/2+y,1/2+z
1/2+x,1/2-y,1/2+z
loop_
_atom_site_type_symbol
_atom_site_label
_atom_site_fract_x
_atom_site_fract_y
_atom_site_fract_z
Si Si1 0.196740 0.726966 0.654437
Si Si2 0.922407 0.587484 0.162768
Si Si3 0.075464 0.787999 0.337465
Si Si4 0.694240 0.447002 0.334506
Si Si5 0.077135 0.879249 0.163662
Si Si6 0.078886 0.500000 0.344420
Si Si7 0.185905 0.379613 0.657951
O O1 0.208531 0.746842 0.500000
O O2 0.250000 0.750000 0.750000
O O3 0.121884 0.743270 0.700261
O O4 0.213295 0.672430 0.656639
O O5 0.897739 0.543641 0.254240
O O6 0.875495 0.626375 0.231360
O O7 0.000000 0.599893 0.186163
O O8 0.907501 0.578616 0.000000
O O9 0.080141 0.802065 0.500000
O O10 0.097833 0.832948 0.247893
O O11 0.000000 0.772990 0.297029
O O12 0.695353 0.450041 0.500000
O O13 0.698028 0.500000 0.271850
O O14 0.625254 0.421772 0.286443
O O15 0.757889 0.415799 0.285517
O O16 0.000000 0.893661 0.194617
O O17 0.088107 0.868553 0.000000
O O18 0.112259 0.500000 0.500000
O O19 0.000000 0.500000 0.360842
O O20 0.161840 0.393399 0.500000
#
# Coordination Sequence:
#
# PCOD8291475 Si02
#       7
#    16  16  16  16  16   8  16
#     4  10  21  36  55  79 106 139 179 222 269 322
#     4  10  21  36  53  76 107 139 174 222 275 319
#     4   9  18  33  53  77 106 139 173 212 263 320
#     4   9  18  32  50  75 107 139 174 218 263 307
#     4   9  17  31  54  82 108 135 170 212 259 314
#     4   9  17  31  53  77  99 131 174 213 254 309
#     4  10  21  35  53  77 104 140 185 227 266 316
#
# _framework density 19.064900999999999
#
# number of rings (size 3 to 8) (size 9 to 14) (size 15 to 20)
#    0.000    2.538    0.000    1.615    1.077    5.231 
#    0.000    3.846    0.000    3.231    0.000    2.154 
#    0.000    0.000    0.000    0.000    0.000    0.000 
#
# Total GULP energy -644416.085097 kJ/mol
# GULP energy per Si atom -12392.617021 kJ/mol
# Density = 1.902151 g / cm^3
# Si number density = 19.064901 Si / 1000 Ang^3
#
#
#
# Elastic Constant Matrix: (Units=GPa)
#
#
# Indices 1 2 3 4 5 6 
#
# 1 113.4090 57.4525 48.7496 0.0000 0.0000 0.0000
# 2 57.4525 105.4515 31.7948 0.0000 0.0000 0.0000
# 3 48.7496 31.7948 77.4255 0.0000 0.0000 0.0000
# 4 0.0000 0.0000 0.0000 14.9135 0.0000 0.0000
# 5 0.0000 0.0000 0.0000 0.0000 28.2144 0.0000
# 6 0.0000 0.0000 0.0000 0.0000 0.0000 35.9356
#
#
#
# Elastic Compliance Matrix: (Units=1/GPa)
#
#
# Indices 1 2 3 4 5 6 
#
# 1 0.014804 -0.005998 -0.006858 0.000000 0.000000 0.000000
# 2 -0.005998 0.013253 -0.001666 0.000000 0.000000 0.000000
# 3 -0.006858 -0.001666 0.017918 0.000000 0.000000 0.000000
# 4 0.000000 0.000000 0.000000 0.067053 0.000000 0.000000
# 5 0.000000 0.000000 0.000000 0.000000 0.035443 0.000000
# 6 0.000000 0.000000 0.000000 0.000000 0.000000 0.027828
#
#
# Mechanical properties :
#
#
# Convention : Reuss Voigt Hill
#
# Bulk Modulus (GPa) = 59.06248 63.58667 61.32457
# Shear Modulus (GPa) = 23.69821 26.36532 25.03176
#
# Velocity S-wave (km/s) = 3.52949 3.72280 3.62743
# Velocity P-wave (km/s) = 6.90338 7.20445 7.05552
#
# Compressibility (1/GPa) = 0.01693122
#
# Stress axis : x y z
#
# Youngs Moduli (GPa) = 67.54865 75.45402 55.81017
#
# Poissons Ratio (x) = 0.45256 0.38275
# Poissons Ratio (y) = 0.40515 0.09298
# Poissons Ratio (z) = 0.46326 0.12570
#
# Static dielectric constant tensor:
#      x y z
#    x 3.271870 0.000000 0.000000 
#    y 0.000000 4.346900 0.000000 
#    z 0.000000 0.000000 3.430220 
# 
# 
# High freq. dielectric constant tensor:
#      x y z
#    x 1.746520 0.000000 0.000000 
#    y 0.000000 1.733990 0.000000 
#    z 0.000000 0.000000 1.723180 
# 
# From -- ./inp_files/11059.got.cif
#   From: 2010.06.25/outbox.cif.g09.slc.cpg/sg71_6_cif.got.tgz:11059.got - 2010.06.28 04:59:45.
