data_PCOD8291767
_publ_section_title
;
Structure prediction by ZEFSAII (Michael W. Deem and Ramdas Pophale) SiO2 
 PCOD8291767
Probable space group: I M M M
;
_chemical_formula_sum "Si O2"
_cell_formula_units_Z 64
_cell_length_a 14.674946
_cell_length_b 27.887488
_cell_length_c 7.720729
_cell_angle_alpha 90.000000
_cell_angle_beta 90.000000
_cell_angle_gamma 90.000000
_cell_volume 3159.688119
_symmetry_space_group_name_H-M "I M M M"
_symmetry_group_IT_number 71
_symmetry_cell_setting 'orthorhombic'
loop_
_space_group_symop_operation_xyz
x,y,z
-x,-y,z
x,-y,-z
-x,y,-z
-x,-y,-z
x,y,-z
-x,y,z
x,-y,z
1/2+x,1/2+y,1/2+z
1/2-x,1/2-y,1/2+z
1/2+x,1/2-y,1/2-z
1/2-x,1/2+y,1/2-z
1/2-x,1/2-y,1/2-z
1/2+x,1/2+y,1/2-z
1/2-x,1/2+y,1/2+z
1/2+x,1/2-y,1/2+z
loop_
_atom_site_type_symbol
_atom_site_label
_atom_site_fract_x
_atom_site_fract_y
_atom_site_fract_z
Si Si1 0.895812 0.871796 0.807173
Si Si2 0.894627 0.370527 0.803000
Si Si3 0.607979 0.198257 0.000000
Si Si4 0.391617 0.305041 0.000000
Si Si5 0.244595 0.946149 0.298822
O O1 0.856739 0.833034 0.670741
O O2 0.837952 0.920379 0.799610
O O3 0.000000 0.884960 0.762203
O O4 0.888149 0.849603 0.000000
O O5 0.859170 0.329347 0.672828
O O6 0.839533 0.418986 0.764223
O O7 0.000000 0.382830 0.769092
O O8 0.878708 0.352426 0.000000
O O9 0.650684 0.251626 0.000000
O O10 0.500000 0.202137 0.000000
O O11 0.500000 0.301886 0.000000
O O12 0.219999 0.946508 0.500000
O O13 0.254681 0.000000 0.226160
#
# Coordination Sequence:
#
# PCOD8291767 Si02
#       5
#    16  16   8   8  16
#     4  10  21  37  58  82 112 148 186 230 279 333
#     4   9  19  36  57  82 115 148 184 230 274 329
#     4   9  18  34  59  85 110 147 187 227 281 331
#     4   9  18  36  59  83 112 145 185 233 279 329
#     4  10  21  37  59  83 112 150 188 231 283 333
#
# _framework density 20.255164000000001
#
# number of rings (size 3 to 8) (size 9 to 14) (size 15 to 20)
#    0.000    2.500    1.250    0.000    1.750    2.500 
#    0.000   11.250    0.000    2.250    0.000    0.000 
#    0.000    0.000    0.000    0.000    0.000    0.000 
#
# Total GULP energy -396805.462930 kJ/mol
# GULP energy per Si atom -12400.170717 kJ/mol
# Density = 2.020906 g / cm^3
# Si number density = 20.255164 Si / 1000 Ang^3
#
#
#
# Elastic Constant Matrix: (Units=GPa)
#
#
# Indices 1 2 3 4 5 6 
#
# 1 63.5472 48.9631 41.1990 0.0004 -0.0009 -0.0019
# 2 48.9631 178.4921 85.0225 -0.0048 -0.0025 -0.0026
# 3 41.1990 85.0225 132.9873 0.0029 -0.0077 -0.0045
# 4 0.0004 -0.0048 0.0029 21.4287 -0.0028 -0.0012
# 5 -0.0009 -0.0025 -0.0077 -0.0028 21.2485 0.0017
# 6 -0.0019 -0.0026 -0.0045 -0.0012 0.0017 25.6893
#
#
#
# Elastic Compliance Matrix: (Units=1/GPa)
#
#
# Indices 1 2 3 4 5 6 
#
# 1 0.021431 -0.003906 -0.004142 -0.000001 -0.000001 0.000000
# 2 -0.003906 0.008768 -0.004395 0.000003 -0.000001 0.000000
# 3 -0.004142 -0.004395 0.011613 -0.000002 0.000004 0.000001
# 4 -0.000001 0.000003 -0.000002 0.046666 0.000006 0.000002
# 5 -0.000001 -0.000001 0.000004 0.000006 0.047062 -0.000003
# 6 0.000000 0.000000 0.000001 0.000002 -0.000003 0.038927
#
#
# Mechanical properties :
#
#
# Convention : Reuss Voigt Hill
#
# Bulk Modulus (GPa) = 59.08464 80.59955 69.84210
# Shear Modulus (GPa) = 24.39078 26.99608 25.69343
#
# Velocity S-wave (km/s) = 3.47389 3.65471 3.56545
# Velocity P-wave (km/s) = 6.73231 7.59524 7.17676
#
# Compressibility (1/GPa) = 0.01692487
#
# Stress axis : x y z
#
# Youngs Moduli (GPa) = 46.66083 114.05638 86.11160
#
# Poissons Ratio (x) = 0.44548 0.35669
# Poissons Ratio (y) = 0.18225 0.37849
# Poissons Ratio (z) = 0.19328 0.50132
#
# Static dielectric constant tensor:
#      x y z
#    x 3.493760 0.000000 0.000010 
#    y 0.000000 3.760040 -0.000010 
#    z 0.000010 -0.000010 3.832790 
# 
# 
# High freq. dielectric constant tensor:
#      x y z
#    x 1.781110 0.000000 0.000000 
#    y 0.000000 1.775090 0.000000 
#    z 0.000000 0.000000 1.801070 
# 
# From -- ./inp_files/5534.got.cif
#   From: 2010.06.25/outbox.cif.g09.slc.cpg/sg71_3_cif.got.tgz:5534.got - 2010.06.28 04:59:45.
