data_PCOD8291913
_publ_section_title
;
Structure prediction by ZEFSAII (Michael W. Deem and Ramdas Pophale) SiO2 
 PCOD8291913
Probable space group: I M M M
;
_chemical_formula_sum "Si O2"
_cell_formula_units_Z 88
_cell_length_a 22.532752
_cell_length_b 8.864114
_cell_length_c 22.318572
_cell_angle_alpha 90.000000
_cell_angle_beta 90.000000
_cell_angle_gamma 90.000000
_cell_volume 4457.752718
_symmetry_space_group_name_H-M "I M M M"
_symmetry_group_IT_number 71
_symmetry_cell_setting 'orthorhombic'
loop_
_space_group_symop_operation_xyz
x,y,z
-x,-y,z
x,-y,-z
-x,y,-z
-x,-y,-z
x,y,-z
-x,y,z
x,-y,z
1/2+x,1/2+y,1/2+z
1/2-x,1/2-y,1/2+z
1/2+x,1/2-y,1/2-z
1/2-x,1/2+y,1/2-z
1/2-x,1/2-y,1/2-z
1/2+x,1/2+y,1/2-z
1/2-x,1/2+y,1/2+z
1/2+x,1/2-y,1/2+z
loop_
_atom_site_type_symbol
_atom_site_label
_atom_site_fract_x
_atom_site_fract_y
_atom_site_fract_z
Si Si1 0.567668 0.321427 0.000000
Si Si2 0.141201 0.175027 0.162328
Si Si3 0.757229 0.177686 0.684760
Si Si4 0.067332 0.325892 0.735736
Si Si5 0.430647 0.168197 0.433168
Si Si6 0.618601 0.321657 0.126407
O O1 0.604558 0.267417 0.941416
O O2 0.563729 0.500000 0.000000
O O3 0.500000 0.256173 0.000000
O O4 0.201258 0.264652 0.146632
O O5 0.112306 0.230945 0.223951
O O6 0.097248 0.203244 0.107563
O O7 0.155282 0.000000 0.169533
O O8 0.750000 0.250000 0.750000
O O9 0.815654 0.228078 0.648013
O O10 0.755957 0.000000 0.692574
O O11 0.086440 0.500000 0.737679
O O12 0.071283 0.262509 0.668517
O O13 0.000000 0.306115 0.759083
O O14 0.404628 0.182756 0.500000
O O15 0.500000 0.196926 0.434309
O O16 0.416985 0.000000 0.407585
O O17 0.609674 0.500000 0.132607
#
# Coordination Sequence:
#
# PCOD8291913 Si02
#       6
#     8  16  16  16  16  16
#     4   9  18  36  63  93 123 153 192 247 304 361
#     4  12  24  37  57  85 118 156 197 244 296 355
#     4  11  22  38  60  86 117 154 197 244 295 355
#     4  11  23  37  57  86 119 153 192 243 300 358
#     4   9  19  38  62  86 115 152 193 240 297 357
#     4  10  21  38  62  89 117 154 198 245 299 360
#
# _framework density 19.740888999999999
#
# number of rings (size 3 to 8) (size 9 to 14) (size 15 to 20)
#    0.000    1.545    1.818    4.364    0.000    5.818 
#    1.636    1.364    0.000    1.636    0.000    0.000 
#    0.000    0.000    0.000    0.000    0.000    0.000 
#
# Total GULP energy -545636.974810 kJ/mol
# GULP energy per Si atom -12400.840337 kJ/mol
# Density = 1.969596 g / cm^3
# Si number density = 19.740889 Si / 1000 Ang^3
#
#
#
# Elastic Constant Matrix: (Units=GPa)
#
#
# Indices 1 2 3 4 5 6 
#
# 1 102.9656 38.0420 52.7009 0.0000 0.0000 0.0000
# 2 38.0420 70.4958 30.7504 0.0000 0.0000 0.0000
# 3 52.7009 30.7504 121.9600 0.0000 0.0000 0.0000
# 4 0.0000 0.0000 0.0000 30.6823 0.0000 0.0000
# 5 0.0000 0.0000 0.0000 0.0000 31.5831 0.0000
# 6 0.0000 0.0000 0.0000 0.0000 0.0000 27.4192
#
#
#
# Elastic Compliance Matrix: (Units=1/GPa)
#
#
# Indices 1 2 3 4 5 6 
#
# 1 0.014199 -0.005602 -0.004723 0.000000 0.000000 0.000000
# 2 -0.005602 0.018148 -0.002155 0.000000 0.000000 0.000000
# 3 -0.004723 -0.002155 0.010784 0.000000 0.000000 0.000000
# 4 0.000000 0.000000 0.000000 0.032592 0.000000 0.000000
# 5 0.000000 0.000000 0.000000 0.000000 0.031663 0.000000
# 6 0.000000 0.000000 0.000000 0.000000 0.000000 0.036471
#
#
# Mechanical properties :
#
#
# Convention : Reuss Voigt Hill
#
# Bulk Modulus (GPa) = 55.03414 59.82309 57.42861
# Shear Modulus (GPa) = 28.59194 29.53214 29.06204
#
# Velocity S-wave (km/s) = 3.80986 3.87200 3.84106
# Velocity P-wave (km/s) = 6.87693 7.09646 6.98756
#
# Compressibility (1/GPa) = 0.01817054
#
# Stress axis : x y z
#
# Youngs Moduli (GPa) = 70.42625 55.10129 92.73201
#
# Poissons Ratio (x) = 0.30868 0.43799
# Poissons Ratio (y) = 0.39454 0.19984
# Poissons Ratio (z) = 0.33264 0.11875
#
# Static dielectric constant tensor:
#      x y z
#    x 3.886850 0.000000 0.000000 
#    y 0.000000 3.454370 0.000000 
#    z 0.000000 0.000000 3.711700 
# 
# 
# High freq. dielectric constant tensor:
#      x y z
#    x 1.775950 0.000000 0.000000 
#    y 0.000000 1.758800 0.000000 
#    z 0.000000 0.000000 1.768530 
# 
# From -- ./inp_files/10473.got.cif
#   From: 2010.06.25/outbox.cif.g09.slc.cpg/sg71_6_cif.got.tgz:10473.got - 2010.06.28 04:59:45.
