data_PCOD8291717
_publ_section_title
;
Structure prediction by ZEFSAII (Michael W. Deem and Ramdas Pophale) SiO2 
 PCOD8291717
Probable space group: I M M M
;
_chemical_formula_sum "Si O2"
_cell_formula_units_Z 104
_cell_length_a 19.848989
_cell_length_b 32.353311
_cell_length_c 8.911562
_cell_angle_alpha 90.000000
_cell_angle_beta 90.000000
_cell_angle_gamma 90.000000
_cell_volume 5722.831467
_symmetry_space_group_name_H-M "I M M M"
_symmetry_group_IT_number 71
_symmetry_cell_setting 'orthorhombic'
loop_
_space_group_symop_operation_xyz
x,y,z
-x,-y,z
x,-y,-z
-x,y,-z
-x,-y,-z
x,y,-z
-x,y,z
x,-y,z
1/2+x,1/2+y,1/2+z
1/2-x,1/2-y,1/2+z
1/2+x,1/2-y,1/2-z
1/2-x,1/2+y,1/2-z
1/2-x,1/2-y,1/2-z
1/2+x,1/2+y,1/2-z
1/2-x,1/2+y,1/2+z
1/2+x,1/2-y,1/2+z
loop_
_atom_site_type_symbol
_atom_site_label
_atom_site_fract_x
_atom_site_fract_y
_atom_site_fract_z
Si Si1 0.718310 0.545635 0.171307
Si Si2 0.323728 0.365711 0.172211
Si Si3 0.923179 0.193707 0.171975
Si Si4 0.148250 0.430678 0.323737
Si Si5 0.669738 0.153204 0.324349
Si Si6 0.923379 0.500000 0.162986
Si Si7 0.077087 0.720525 0.676677
O O1 0.683799 0.500000 0.193803
O O2 0.669966 0.584766 0.204854
O O3 0.781066 0.548322 0.281996
O O4 0.744266 0.550511 0.000000
O O5 0.376839 0.344396 0.280605
O O6 0.249593 0.347833 0.210848
O O7 0.341928 0.356134 0.000000
O O8 0.906865 0.232789 0.275621
O O9 0.000000 0.179356 0.193460
O O10 0.908320 0.205650 0.000000
O O11 0.142325 0.425927 0.500000
O O12 0.135929 0.386388 0.250264
O O13 0.090529 0.459743 0.261147
O O14 0.656201 0.152086 0.500000
O O15 0.633177 0.192992 0.257030
O O16 0.000000 0.500000 0.123235
O O17 0.884606 0.500000 0.000000
O O18 0.086566 0.716322 0.500000
O O19 0.000000 0.708722 0.723690
#
# Coordination Sequence:
#
# PCOD8291717 Si02
#       7
#    16  16  16  16  16   8  16
#     4   9  17  32  55  78 106 140 173 212 260 318
#     4   9  19  34  54  83 110 139 180 222 268 317
#     4  10  21  37  57  80 107 142 180 218 267 328
#     4  11  21  33  51  75 102 133 172 220 269 315
#     4  10  21  37  56  79 109 143 179 221 269 323
#     4  11  23  37  51  67  93 135 182 223 268 319
#     4  10  21  37  57  80 106 140 182 226 271 320
#
# _framework density 18.172820999999999
#
# number of rings (size 3 to 8) (size 9 to 14) (size 15 to 20)
#    0.000    2.077    0.769    3.923    0.000    6.769 
#    0.000    0.000    0.000    0.462    0.000    3.231 
#    0.000    0.000    0.000    0.000    0.000    0.000 
#
# Total GULP energy -644667.049374 kJ/mol
# GULP energy per Si atom -12397.443257 kJ/mol
# Density = 1.813146 g / cm^3
# Si number density = 18.172821 Si / 1000 Ang^3
#
#
#
# Elastic Constant Matrix: (Units=GPa)
#
#
# Indices 1 2 3 4 5 6 
#
# 1 68.2757 57.3884 45.6173 -0.0008 0.0003 0.0005
# 2 57.3884 123.6085 54.9089 0.0006 -0.0005 0.0000
# 3 45.6173 54.9089 104.1011 -0.0010 -0.0068 -0.0055
# 4 -0.0008 0.0006 -0.0010 36.9596 -0.0006 -0.0006
# 5 0.0003 -0.0005 -0.0068 -0.0006 26.8992 -0.0005
# 6 0.0005 0.0000 -0.0055 -0.0006 -0.0005 38.7331
#
#
#
# Elastic Compliance Matrix: (Units=1/GPa)
#
#
# Indices 1 2 3 4 5 6 
#
# 1 0.027359 -0.009634 -0.006907 0.000001 -0.000002 -0.000001
# 2 -0.009634 0.013958 -0.003141 -0.000001 0.000000 0.000000
# 3 -0.006907 -0.003141 0.014289 0.000000 0.000004 0.000002
# 4 0.000001 -0.000001 0.000000 0.027057 0.000001 0.000000
# 5 -0.000002 0.000000 0.000004 0.000001 0.037176 0.000000
# 6 -0.000001 0.000000 0.000002 0.000000 0.000000 0.025818
#
#
# Mechanical properties :
#
#
# Convention : Reuss Voigt Hill
#
# Bulk Modulus (GPa) = 61.56579 67.97940 64.77259
# Shear Modulus (GPa) = 26.25570 29.72308 27.98939
#
# Velocity S-wave (km/s) = 3.80515 4.04862 3.92877
# Velocity P-wave (km/s) = 7.29774 7.70347 7.50335
#
# Compressibility (1/GPa) = 0.01624279
#
# Stress axis : x y z
#
# Youngs Moduli (GPa) = 36.55076 71.64382 69.98158
#
# Poissons Ratio (x) = 0.69020 0.48339
# Poissons Ratio (y) = 0.35212 0.21979
# Poissons Ratio (z) = 0.25247 0.22501
#
# Static dielectric constant tensor:
#      x y z
#    x 3.107030 0.000000 0.000000 
#    y 0.000000 3.501530 0.000000 
#    z 0.000000 0.000000 3.411350 
# 
# 
# High freq. dielectric constant tensor:
#      x y z
#    x 1.672910 0.000000 0.000000 
#    y 0.000000 1.713380 0.000000 
#    z 0.000000 0.000000 1.715850 
# 
# From -- ./inp_files/11548.got.cif
#   From: 2010.06.25/outbox.cif.g09.slc.cpg/sg71_6_cif.got.tgz:11548.got - 2010.06.28 04:59:45.
