data_PCOD8291405
_publ_section_title
;
Structure prediction by ZEFSAII (Michael W. Deem and Ramdas Pophale) SiO2 
 PCOD8291405
Probable space group: I M M M
;
_chemical_formula_sum "Si O2"
_cell_formula_units_Z 88
_cell_length_a 9.189694
_cell_length_b 34.765453
_cell_length_c 14.878337
_cell_angle_alpha 90.000000
_cell_angle_beta 90.000000
_cell_angle_gamma 90.000000
_cell_volume 4753.388756
_symmetry_space_group_name_H-M "I M M M"
_symmetry_group_IT_number 71
_symmetry_cell_setting 'orthorhombic'
loop_
_space_group_symop_operation_xyz
x,y,z
-x,-y,z
x,-y,-z
-x,y,-z
-x,-y,-z
x,y,-z
-x,y,z
x,-y,z
1/2+x,1/2+y,1/2+z
1/2-x,1/2-y,1/2+z
1/2+x,1/2-y,1/2-z
1/2-x,1/2+y,1/2-z
1/2-x,1/2-y,1/2-z
1/2+x,1/2+y,1/2-z
1/2-x,1/2+y,1/2+z
1/2+x,1/2-y,1/2+z
loop_
_atom_site_type_symbol
_atom_site_label
_atom_site_fract_x
_atom_site_fract_y
_atom_site_fract_z
Si Si1 0.339556 0.454639 0.000000
Si Si2 0.329433 0.672331 0.104584
Si Si3 0.663876 0.248060 0.606731
Si Si4 0.330746 0.822759 0.897851
Si Si5 0.667217 0.042698 0.673993
Si Si6 0.832825 0.378315 0.241978
O O1 0.254914 0.441693 0.911554
O O2 0.353700 0.500000 0.000000
O O3 0.500000 0.435314 0.000000
O O4 0.500000 0.677143 0.120673
O O5 0.251639 0.710961 0.140524
O O6 0.268532 0.637162 0.162373
O O7 0.294183 0.664363 0.000000
O O8 0.664688 0.248818 0.500000
O O9 0.500000 0.246466 0.645033
O O10 0.742322 0.286578 0.641938
O O11 0.500000 0.811987 0.893011
O O12 0.291418 0.859833 0.837753
O O13 0.284517 0.832549 0.000000
O O14 0.500000 0.040225 0.644660
O O15 0.690345 0.075300 0.750514
O O16 0.719570 0.000000 0.706787
O O17 0.000000 0.368833 0.217146
#
# Coordination Sequence:
#
# PCOD8291405 Si02
#       6
#     8  16  16  16  16  16
#     4   9  17  29  47  71  97 127 163 199 237 285
#     4  10  21  35  50  72 104 138 168 202 246 294
#     4   9  17  31  52  75  99 131 169 206 246 294
#     4   9  18  34  54  74  98 128 166 212 256 297
#     4   9  18  33  51  71  98 132 168 203 242 294
#     4  10  21  34  51  75  99 131 170 207 251 298
#
# _framework density 18.513107999999999
#
# number of rings (size 3 to 8) (size 9 to 14) (size 15 to 20)
#    0.000    2.636    0.000    1.364    1.273    6.545 
#    0.000    0.000    0.000    0.545    0.000    3.818 
#    0.000    0.000    0.000   10.727    0.000   11.273 
#
# Total GULP energy -545477.595585 kJ/mol
# GULP energy per Si atom -12397.218081 kJ/mol
# Density = 1.847097 g / cm^3
# Si number density = 18.513108 Si / 1000 Ang^3
#
#
#
# Elastic Constant Matrix: (Units=GPa)
#
#
# Indices 1 2 3 4 5 6 
#
# 1 83.6939 46.6282 32.1016 0.0000 0.0000 0.0000
# 2 46.6282 138.8598 51.8133 0.0006 0.0002 0.0001
# 3 32.1016 51.8133 59.4294 0.0006 0.0001 0.0001
# 4 0.0000 0.0006 0.0006 28.6209 0.0001 0.0001
# 5 0.0000 0.0002 0.0001 0.0001 17.0309 0.0001
# 6 0.0000 0.0001 0.0001 0.0001 0.0001 21.8439
#
#
#
# Elastic Compliance Matrix: (Units=1/GPa)
#
#
# Indices 1 2 3 4 5 6 
#
# 1 0.015963 -0.003176 -0.005854 0.000000 0.000000 0.000000
# 2 -0.003176 0.011306 -0.008141 0.000000 0.000000 0.000000
# 3 -0.005854 -0.008141 0.027087 0.000000 0.000000 0.000000
# 4 0.000000 0.000000 0.000000 0.034939 0.000000 0.000000
# 5 0.000000 0.000000 0.000000 0.000000 0.058717 0.000000
# 6 0.000000 0.000000 0.000000 0.000000 0.000000 0.045779
#
#
# Mechanical properties :
#
#
# Convention : Reuss Voigt Hill
#
# Bulk Modulus (GPa) = 49.96653 60.34104 55.15378
# Shear Modulus (GPa) = 21.29435 23.59515 22.44475
#
# Velocity S-wave (km/s) = 3.39518 3.57390 3.48569
# Velocity P-wave (km/s) = 6.51292 7.04945 6.78649
#
# Compressibility (1/GPa) = 0.02001340
#
# Stress axis : x y z
#
# Youngs Moduli (GPa) = 62.64492 88.44992 36.91866
#
# Poissons Ratio (x) = 0.28093 0.21611
# Poissons Ratio (y) = 0.19897 0.30057
# Poissons Ratio (z) = 0.36670 0.72010
#
# Static dielectric constant tensor:
#      x y z
#    x 3.547880 0.000000 0.000000 
#    y 0.000000 3.511130 0.000000 
#    z 0.000000 0.000000 3.176390 
# 
# 
# High freq. dielectric constant tensor:
#      x y z
#    x 1.720830 0.000000 0.000000 
#    y 0.000000 1.718660 0.000000 
#    z 0.000000 0.000000 1.685210 
# 
# From -- ./inp_files/42476.got.cif
#   From: 2010.06.25/outbox.cif.g09.slc.cpg/sg71_22_cif.got.tgz:42476.got - 2010.06.28 04:59:45.
