data_PCOD8291108
_publ_section_title
;
Structure prediction by ZEFSAII (Michael W. Deem and Ramdas Pophale) SiO2 
 PCOD8291108
Probable space group: I M M M
;
_chemical_formula_sum "Si O2"
_cell_formula_units_Z 88
_cell_length_a 19.423485
_cell_length_b 14.148605
_cell_length_c 17.094377
_cell_angle_alpha 90.000000
_cell_angle_beta 90.000000
_cell_angle_gamma 90.000000
_cell_volume 4697.794925
_symmetry_space_group_name_H-M "I M M M"
_symmetry_group_IT_number 71
_symmetry_cell_setting 'orthorhombic'
loop_
_space_group_symop_operation_xyz
x,y,z
-x,-y,z
x,-y,-z
-x,y,-z
-x,-y,-z
x,y,-z
-x,y,z
x,-y,z
1/2+x,1/2+y,1/2+z
1/2-x,1/2-y,1/2+z
1/2+x,1/2-y,1/2-z
1/2-x,1/2+y,1/2-z
1/2-x,1/2-y,1/2-z
1/2+x,1/2+y,1/2-z
1/2-x,1/2+y,1/2+z
1/2+x,1/2-y,1/2+z
loop_
_atom_site_type_symbol
_atom_site_label
_atom_site_fract_x
_atom_site_fract_y
_atom_site_fract_z
Si Si1 0.422682 0.307620 0.674443
Si Si2 0.817398 0.897458 0.588401
Si Si3 0.920124 0.000000 0.912219
Si Si4 0.178268 0.390245 0.592149
Si Si5 0.923001 0.758631 0.352832
Si Si6 0.276973 0.754410 0.662000
O O1 0.500000 0.276859 0.644638
O O2 0.400919 0.409085 0.639769
O O3 0.422750 0.306955 0.767913
O O4 0.359834 0.238771 0.650468
O O5 0.795167 0.909318 0.500000
O O6 0.885152 0.832920 0.591584
O O7 0.752150 0.852260 0.630638
O O8 0.832572 0.000000 0.626216
O O9 0.000000 0.000000 0.928146
O O10 0.884695 0.000000 0.000000
O O11 0.163770 0.379239 0.500000
O O12 0.184124 0.500000 0.616297
O O13 0.116272 0.342066 0.641790
O O14 0.248842 0.336465 0.614063
O O15 0.000000 0.742012 0.383157
O O16 0.250000 0.750000 0.750000
#
# Coordination Sequence:
#
# PCOD8291108 Si02
#       6
#    16  16   8  16  16  16
#     4  10  21  36  56  83 115 148 186 233 285 338
#     4  10  22  38  56  81 113 149 188 230 281 339
#     4   9  20  36  54  82 117 151 186 230 288 345
#     4  10  22  38  57  84 116 152 194 237 286 343
#     4  10  20  36  57  84 117 150 190 235 278 336
#     4  11  20  36  58  83 108 147 190 233 282 336
#
# _framework density 18.732192999999999
#
# number of rings (size 3 to 8) (size 9 to 14) (size 15 to 20)
#    0.000    1.909    3.636    2.182    2.545    4.364 
#    0.000    1.818    0.000    0.545    0.000    1.273 
#    0.000    0.000    0.000    0.000    0.000    0.000 
#
# Total GULP energy -545166.649190 kJ/mol
# GULP energy per Si atom -12390.151118 kJ/mol
# Density = 1.868956 g / cm^3
# Si number density = 18.732193 Si / 1000 Ang^3
#
#
#
# Elastic Constant Matrix: (Units=GPa)
#
#
# Indices 1 2 3 4 5 6 
#
# 1 151.4330 32.3186 11.8196 0.0000 0.0000 0.0000
# 2 32.3186 109.7725 29.1054 0.0000 0.0000 0.0000
# 3 11.8196 29.1054 78.1135 0.0000 0.0000 0.0000
# 4 0.0000 0.0000 0.0000 31.3210 0.0000 0.0000
# 5 0.0000 0.0000 0.0000 0.0000 24.6143 0.0000
# 6 0.0000 0.0000 0.0000 0.0000 0.0000 15.7573
#
#
#
# Elastic Compliance Matrix: (Units=1/GPa)
#
#
# Indices 1 2 3 4 5 6 
#
# 1 0.007054 -0.001990 -0.000326 0.000000 0.000000 0.000000
# 2 -0.001990 0.010670 -0.003675 0.000000 0.000000 0.000000
# 3 -0.000326 -0.003675 0.014220 0.000000 0.000000 0.000000
# 4 0.000000 0.000000 0.000000 0.031927 0.000000 0.000000
# 5 0.000000 0.000000 0.000000 0.000000 0.040627 0.000000
# 6 0.000000 0.000000 0.000000 0.000000 0.000000 0.063463
#
#
# Mechanical properties :
#
#
# Convention : Reuss Voigt Hill
#
# Bulk Modulus (GPa) = 50.09292 53.97847 52.03570
# Shear Modulus (GPa) = 26.79579 32.07689 29.43634
#
# Velocity S-wave (km/s) = 3.78625 4.14260 3.96843
# Velocity P-wave (km/s) = 6.77599 7.19444 6.98834
#
# Compressibility (1/GPa) = 0.01996290
#
# Stress axis : x y z
#
# Youngs Moduli (GPa) = 141.76789 93.72056 70.32191
#
# Poissons Ratio (x) = 0.18654 0.02290
# Poissons Ratio (y) = 0.28217 0.25840
# Poissons Ratio (z) = 0.04618 0.34438
#
# Static dielectric constant tensor:
#      x y z
#    x 3.695240 0.000000 0.000000 
#    y 0.000000 3.964940 0.000000 
#    z 0.000000 0.000000 3.552790 
# 
# 
# High freq. dielectric constant tensor:
#      x y z
#    x 1.729100 0.000000 0.000000 
#    y 0.000000 1.713670 0.000000 
#    z 0.000000 0.000000 1.729090 
# 
# From -- ./inp_files/37749.got.cif
#   From: 2010.06.25/outbox.cif.g09.slc.cpg/sg71_19_cif.got.tgz:37749.got - 2010.06.28 04:59:45.
