data_PCOD8291908
_publ_section_title
;
Structure prediction by ZEFSAII (Michael W. Deem and Ramdas Pophale) SiO2 
 PCOD8291908
Probable space group: I M M M
;
_chemical_formula_sum "Si O2"
_cell_formula_units_Z 80
_cell_length_a 26.609300
_cell_length_b 17.397661
_cell_length_c 9.871674
_cell_angle_alpha 90.000000
_cell_angle_beta 90.000000
_cell_angle_gamma 90.000000
_cell_volume 4569.988624
_symmetry_space_group_name_H-M "I M M M"
_symmetry_group_IT_number 71
_symmetry_cell_setting 'orthorhombic'
loop_
_space_group_symop_operation_xyz
x,y,z
-x,-y,z
x,-y,-z
-x,y,-z
-x,-y,-z
x,y,-z
-x,y,z
x,-y,z
1/2+x,1/2+y,1/2+z
1/2-x,1/2-y,1/2+z
1/2+x,1/2-y,1/2-z
1/2-x,1/2+y,1/2-z
1/2-x,1/2-y,1/2-z
1/2+x,1/2+y,1/2-z
1/2-x,1/2+y,1/2+z
1/2+x,1/2-y,1/2+z
loop_
_atom_site_type_symbol
_atom_site_label
_atom_site_fract_x
_atom_site_fract_y
_atom_site_fract_z
Si Si1 0.443967 0.327366 0.156804
Si Si2 0.200645 0.238662 0.337253
Si Si3 0.649410 0.417056 0.840950
Si Si4 0.443854 0.090305 0.000000
Si Si5 0.899109 0.675945 0.257347
Si Si6 0.059864 0.591746 0.000000
O O1 0.500000 0.358242 0.178205
O O2 0.406826 0.394279 0.207068
O O3 0.435312 0.249989 0.241373
O O4 0.432364 0.306006 0.000000
O O5 0.208007 0.250350 0.500000
O O6 0.250000 0.250000 0.250000
O O7 0.187023 0.150675 0.300727
O O8 0.158410 0.296665 0.279712
O O9 0.663857 0.500000 0.774281
O O10 0.649561 0.427279 0.000000
O O11 0.412788 0.115748 0.871525
O O12 0.500000 0.127007 0.000000
O O13 0.448681 0.000000 0.000000
O O14 0.909568 0.629301 0.122152
O O15 0.066966 0.500000 0.000000
O O16 0.000000 0.611520 0.000000
#
# Coordination Sequence:
#
# PCOD8291908 Si02
#       6
#    16  16  16   8  16   8
#     4   9  15  25  47  77 105 137 174 213 260 320
#     4  10  21  38  62  84 107 143 188 234 285 337
#     4   8  15  29  48  75 108 136 166 208 261 318
#     4  11  20  32  55  80 109 151 186 225 288 348
#     4  11  20  36  54  79 110 144 190 237 277 340
#     4  11  24  38  53  80 119 157 192 237 294 348
#
# _framework density 17.505514000000002
#
# number of rings (size 3 to 8) (size 9 to 14) (size 15 to 20)
#    0.000    2.200    2.000    3.600    1.400    2.000 
#    0.000    4.000    0.000    0.000    0.000    0.000 
#    0.000    7.600    0.000    0.000    0.000    0.000 
#
# Total GULP energy -495623.555638 kJ/mol
# GULP energy per Si atom -12390.588891 kJ/mol
# Density = 1.746567 g / cm^3
# Si number density = 17.505514 Si / 1000 Ang^3
#
#
#
# Elastic Constant Matrix: (Units=GPa)
#
#
# Indices 1 2 3 4 5 6 
#
# 1 135.4901 67.9421 55.1211 0.0000 0.0000 0.0000
# 2 67.9421 127.4818 50.0535 0.0000 0.0000 0.0000
# 3 55.1211 50.0535 103.1024 0.0000 0.0000 0.0000
# 4 0.0000 0.0000 0.0000 21.0877 0.0000 0.0000
# 5 0.0000 0.0000 0.0000 0.0000 29.9132 0.0000
# 6 0.0000 0.0000 0.0000 0.0000 0.0000 18.6050
#
#
#
# Elastic Compliance Matrix: (Units=1/GPa)
#
#
# Indices 1 2 3 4 5 6 
#
# 1 0.011163 -0.004455 -0.003805 0.000000 0.000000 0.000000
# 2 -0.004455 0.011470 -0.003186 0.000000 0.000000 0.000000
# 3 -0.003805 -0.003186 0.013280 0.000000 0.000000 0.000000
# 4 0.000000 0.000000 0.000000 0.047421 0.000000 0.000000
# 5 0.000000 0.000000 0.000000 0.000000 0.033430 0.000000
# 6 0.000000 0.000000 0.000000 0.000000 0.000000 0.053749
#
#
# Mechanical properties :
#
#
# Convention : Reuss Voigt Hill
#
# Bulk Modulus (GPa) = 76.80777 79.14530 77.97653
# Shear Modulus (GPa) = 25.28498 26.78501 26.03500
#
# Velocity S-wave (km/s) = 3.80465 3.91588 3.86067
# Velocity P-wave (km/s) = 7.95437 8.10896 8.03204
#
# Compressibility (1/GPa) = 0.01301952
#
# Stress axis : x y z
#
# Youngs Moduli (GPa) = 89.58435 87.18555 75.30007
#
# Poissons Ratio (x) = 0.38843 0.28651
# Poissons Ratio (y) = 0.39912 0.23994
# Poissons Ratio (z) = 0.34086 0.27781
#
# Static dielectric constant tensor:
#      x y z
#    x 3.255590 0.000000 0.000000 
#    y 0.000000 3.532180 0.000000 
#    z 0.000000 0.000000 3.063030 
# 
# 
# High freq. dielectric constant tensor:
#      x y z
#    x 1.673500 0.000000 0.000000 
#    y 0.000000 1.685590 0.000000 
#    z 0.000000 0.000000 1.647540 
# 
# From -- ./inp_files/14596.got.cif
#   From: 2010.06.25/outbox.cif.g09.slc.cpg/sg71_8_cif.got.tgz:14596.got - 2010.06.28 04:59:45.
