data_PCOD8291525
_publ_section_title
;
Structure prediction by ZEFSAII (Michael W. Deem and Ramdas Pophale) SiO2 
 PCOD8291525
Probable space group: I M M M
;
_chemical_formula_sum "Si O2"
_cell_formula_units_Z 104
_cell_length_a 19.908230
_cell_length_b 27.871184
_cell_length_c 10.403833
_cell_angle_alpha 90.000000
_cell_angle_beta 90.000000
_cell_angle_gamma 90.000000
_cell_volume 5772.732592
_symmetry_space_group_name_H-M "I M M M"
_symmetry_group_IT_number 71
_symmetry_cell_setting 'orthorhombic'
loop_
_space_group_symop_operation_xyz
x,y,z
-x,-y,z
x,-y,-z
-x,y,-z
-x,-y,-z
x,y,-z
-x,y,z
x,-y,z
1/2+x,1/2+y,1/2+z
1/2-x,1/2-y,1/2+z
1/2+x,1/2-y,1/2-z
1/2-x,1/2+y,1/2-z
1/2-x,1/2-y,1/2-z
1/2+x,1/2+y,1/2-z
1/2-x,1/2+y,1/2+z
1/2+x,1/2-y,1/2+z
loop_
_atom_site_type_symbol
_atom_site_label
_atom_site_fract_x
_atom_site_fract_y
_atom_site_fract_z
Si Si1 0.809946 0.690163 0.720327
Si Si2 0.331522 0.715446 0.639423
Si Si3 0.000000 0.054309 0.848440
Si Si4 0.073961 0.623826 0.640837
Si Si5 0.878986 0.555015 0.856118
Si Si6 0.632137 0.388131 0.652085
Si Si7 0.255253 0.605436 0.855971
O O1 0.746824 0.700261 0.628509
O O2 0.841752 0.740486 0.765330
O O3 0.869779 0.664652 0.645846
O O4 0.782019 0.656765 0.836022
O O5 0.355386 0.732854 0.500000
O O6 0.375911 0.668969 0.679814
O O7 0.934527 0.083792 0.804112
O O8 0.000000 0.000000 0.790192
O O9 0.000000 0.050489 0.000000
O O10 0.080791 0.599260 0.500000
O O11 0.080341 0.584670 0.751536
O O12 0.000000 0.647397 0.655473
O O13 0.894686 0.500000 0.829259
O O14 0.799379 0.563518 0.843566
O O15 0.902756 0.569792 0.000000
O O16 0.649196 0.396762 0.500000
O O17 0.691046 0.406969 0.745121
O O18 0.287188 0.606009 0.000000
#
# Coordination Sequence:
#
# PCOD8291525 Si02
#       7
#    16  16   8  16  16  16  16
#     4   9  17  30  49  73  99 135 164 200 250 312
#     4   9  16  28  49  75  98 124 164 211 251 294
#     4   9  18  34  53  71  99 139 175 209 256 311
#     4  10  21  36  52  72 102 136 171 209 248 296
#     4   9  19  35  53  74 101 133 169 211 258 303
#     4   9  18  32  50  74 101 131 170 214 255 299
#     4   9  17  30  50  74 102 130 161 206 257 309
#
# _framework density 18.015732
#
# number of rings (size 3 to 8) (size 9 to 14) (size 15 to 20)
#    0.000    2.846    0.000    0.923    0.000    5.846 
#    1.385    2.692    0.000    0.462    0.000    0.000 
#    0.000    0.000    0.000    0.000    0.000    0.000 
#
# Total GULP energy -644341.156290 kJ/mol
# GULP energy per Si atom -12391.176082 kJ/mol
# Density = 1.797473 g / cm^3
# Si number density = 18.015732 Si / 1000 Ang^3
#
#
#
# Elastic Constant Matrix: (Units=GPa)
#
#
# Indices 1 2 3 4 5 6 
#
# 1 88.6608 45.5080 43.3536 0.0000 0.0000 0.0000
# 2 45.5080 97.3319 36.5955 0.0000 0.0000 0.0000
# 3 43.3536 36.5955 101.1681 0.0000 0.0000 0.0000
# 4 0.0000 0.0000 0.0000 15.3943 0.0000 0.0000
# 5 0.0000 0.0000 0.0000 0.0000 21.6068 0.0000
# 6 0.0000 0.0000 0.0000 0.0000 0.0000 24.5000
#
#
#
# Elastic Compliance Matrix: (Units=1/GPa)
#
#
# Indices 1 2 3 4 5 6 
#
# 1 0.016806 -0.005960 -0.005046 0.000000 0.000000 0.000000
# 2 -0.005960 0.014005 -0.002512 0.000000 0.000000 0.000000
# 3 -0.005046 -0.002512 0.012955 0.000000 0.000000 0.000000
# 4 0.000000 0.000000 0.000000 0.064959 0.000000 0.000000
# 5 0.000000 0.000000 0.000000 0.000000 0.046282 0.000000
# 6 0.000000 0.000000 0.000000 0.000000 0.000000 0.040816
#
#
# Mechanical properties :
#
#
# Convention : Reuss Voigt Hill
#
# Bulk Modulus (GPa) = 59.77163 59.78611 59.77887
# Shear Modulus (GPa) = 21.88793 23.08047 22.48420
#
# Velocity S-wave (km/s) = 3.48937 3.58317 3.53658
# Velocity P-wave (km/s) = 7.03447 7.09763 7.06612
#
# Compressibility (1/GPa) = 0.01673035
#
# Stress axis : x y z
#
# Youngs Moduli (GPa) = 59.50412 71.40099 77.18797
#
# Poissons Ratio (x) = 0.42558 0.38946
# Poissons Ratio (y) = 0.35467 0.19389
# Poissons Ratio (z) = 0.30024 0.17935
#
# Static dielectric constant tensor:
#      x y z
#    x 3.216600 0.000000 0.000000 
#    y 0.000000 3.315410 0.000000 
#    z 0.000000 0.000000 3.323020 
# 
# 
# High freq. dielectric constant tensor:
#      x y z
#    x 1.680260 0.000000 0.000000 
#    y 0.000000 1.690350 0.000000 
#    z 0.000000 0.000000 1.694090 
# 
# From -- ./inp_files/24805.got.cif
#   From: 2010.06.25/outbox.cif.g09.slc.cpg/sg71_13_cif.got.tgz:24805.got - 2010.06.28 04:59:45.
