data_PCOD8291061
_publ_section_title
;
Structure prediction by ZEFSAII (Michael W. Deem and Ramdas Pophale) SiO2 
 PCOD8291061
Probable space group: I M M M
;
_chemical_formula_sum "Si O2"
_cell_formula_units_Z 80
_cell_length_a 17.460699
_cell_length_b 13.811172
_cell_length_c 18.551519
_cell_angle_alpha 90.000000
_cell_angle_beta 90.000000
_cell_angle_gamma 90.000000
_cell_volume 4473.749214
_symmetry_space_group_name_H-M "I M M M"
_symmetry_group_IT_number 71
_symmetry_cell_setting 'orthorhombic'
loop_
_space_group_symop_operation_xyz
x,y,z
-x,-y,z
x,-y,-z
-x,y,-z
-x,-y,-z
x,y,-z
-x,y,z
x,-y,z
1/2+x,1/2+y,1/2+z
1/2-x,1/2-y,1/2+z
1/2+x,1/2-y,1/2-z
1/2-x,1/2+y,1/2-z
1/2-x,1/2-y,1/2-z
1/2+x,1/2+y,1/2-z
1/2-x,1/2+y,1/2+z
1/2+x,1/2-y,1/2+z
loop_
_atom_site_type_symbol
_atom_site_label
_atom_site_fract_x
_atom_site_fract_y
_atom_site_fract_z
Si Si1 0.290591 0.887238 0.360665
Si Si2 0.200463 0.110972 0.779416
Si Si3 0.091120 0.289808 0.500000
Si Si4 0.645676 0.113208 0.146565
Si Si5 0.696499 0.386131 0.000000
Si Si6 0.911572 0.721262 0.214064
O O1 0.239123 0.851362 0.294201
O O2 0.248095 0.856006 0.432658
O O3 0.373452 0.838380 0.351731
O O4 0.305130 0.000000 0.357457
O O5 0.262522 0.126036 0.843359
O O6 0.123751 0.171471 0.789614
O O7 0.174991 0.000000 0.772796
O O8 0.121891 0.345886 0.430520
O O9 0.119939 0.178343 0.500000
O O10 0.000000 0.287319 0.500000
O O11 0.600009 0.169394 0.208996
O O12 0.623595 0.000000 0.151816
O O13 0.673551 0.500000 0.000000
O O14 0.000000 0.731491 0.196707
#
# Coordination Sequence:
#
# PCOD8291061 Si02
#       6
#    16  16   8  16   8  16
#     4   9  18  33  53  73  95 128 168 205 240 289
#     4   9  18  34  53  72  97 131 170 205 239 290
#     4  12  23  33  50  78 109 133 158 201 248 291
#     4  10  21  36  53  72  99 136 171 202 240 292
#     4  10  20  36  56  74  97 133 171 202 238 290
#     4  11  20  31  51  76 102 130 161 205 255 296
#
# _framework density 17.882093000000001
#
# number of rings (size 3 to 8) (size 9 to 14) (size 15 to 20)
#    0.000    2.000    0.000    7.500    0.000    3.800 
#    0.000    0.500    0.000    7.800    0.000    0.000 
#    0.000    8.000    0.000    0.000    0.000    0.400 
#
# Total GULP energy -495988.370289 kJ/mol
# GULP energy per Si atom -12399.709257 kJ/mol
# Density = 1.784139 g / cm^3
# Si number density = 17.882093 Si / 1000 Ang^3
#
#
#
# Elastic Constant Matrix: (Units=GPa)
#
#
# Indices 1 2 3 4 5 6 
#
# 1 124.0075 68.3675 41.3213 0.0000 0.0000 0.0000
# 2 68.3675 83.5488 42.9856 0.0000 0.0000 0.0000
# 3 41.3213 42.9856 103.9332 0.0000 0.0000 0.0000
# 4 0.0000 0.0000 0.0000 25.0126 0.0000 0.0000
# 5 0.0000 0.0000 0.0000 0.0000 6.8154 0.0000
# 6 0.0000 0.0000 0.0000 0.0000 0.0000 17.7437
#
#
#
# Elastic Compliance Matrix: (Units=1/GPa)
#
#
# Indices 1 2 3 4 5 6 
#
# 1 0.014793 -0.011533 -0.001111 0.000000 0.000000 0.000000
# 2 -0.011533 0.024196 -0.005422 0.000000 0.000000 0.000000
# 3 -0.001111 -0.005422 0.012306 0.000000 0.000000 0.000000
# 4 0.000000 0.000000 0.000000 0.039980 0.000000 0.000000
# 5 0.000000 0.000000 0.000000 0.000000 0.146727 0.000000
# 6 0.000000 0.000000 0.000000 0.000000 0.000000 0.056358
#
#
# Mechanical properties :
#
#
# Convention : Reuss Voigt Hill
#
# Bulk Modulus (GPa) = 65.95419 68.53758 67.24588
# Shear Modulus (GPa) = 14.90108 20.50202 17.70155
#
# Velocity S-wave (km/s) = 2.88982 3.38969 3.14969
# Velocity P-wave (km/s) = 6.93524 7.33012 7.13542
#
# Compressibility (1/GPa) = 0.01516204
#
# Stress axis : x y z
#
# Youngs Moduli (GPa) = 67.60105 41.32910 81.26213
#
# Poissons Ratio (x) = 0.47665 0.09031
# Poissons Ratio (y) = 0.77964 0.44060
# Poissons Ratio (z) = 0.07512 0.22409
#
# Static dielectric constant tensor:
#      x y z
#    x 3.147360 0.000000 0.000000 
#    y 0.000000 3.432890 0.000000 
#    z 0.000000 0.000000 3.664710 
# 
# 
# High freq. dielectric constant tensor:
#      x y z
#    x 1.674080 0.000000 0.000000 
#    y 0.000000 1.711470 0.000000 
#    z 0.000000 0.000000 1.682560 
# 
# From -- ./inp_files/36295.got.cif
#   From: 2010.06.25/outbox.cif.g09.slc.cpg/sg71_19_cif.got.tgz:36295.got - 2010.06.28 04:59:45.
