data_PCOD8291500
_publ_section_title
;
Structure prediction by ZEFSAII (Michael W. Deem and Ramdas Pophale) SiO2 
 PCOD8291500
Probable space group: I M M M
;
_chemical_formula_sum "Si O2"
_cell_formula_units_Z 88
_cell_length_a 12.066149
_cell_length_b 12.348794
_cell_length_c 31.118506
_cell_angle_alpha 90.000000
_cell_angle_beta 90.000000
_cell_angle_gamma 90.000000
_cell_volume 4636.731717
_symmetry_space_group_name_H-M "I M M M"
_symmetry_group_IT_number 71
_symmetry_cell_setting 'orthorhombic'
loop_
_space_group_symop_operation_xyz
x,y,z
-x,-y,z
x,-y,-z
-x,y,-z
-x,-y,-z
x,y,-z
-x,y,z
x,-y,z
1/2+x,1/2+y,1/2+z
1/2-x,1/2-y,1/2+z
1/2+x,1/2-y,1/2-z
1/2-x,1/2+y,1/2-z
1/2-x,1/2-y,1/2-z
1/2+x,1/2+y,1/2-z
1/2-x,1/2+y,1/2+z
1/2+x,1/2-y,1/2+z
loop_
_atom_site_type_symbol
_atom_site_label
_atom_site_fract_x
_atom_site_fract_y
_atom_site_fract_z
Si Si1 0.620997 0.000000 0.811000
Si Si2 0.225653 0.198328 0.089393
Si Si3 0.874281 0.126094 0.549777
Si Si4 0.876057 0.500000 0.412626
Si Si5 0.737528 0.296664 0.310738
Si Si6 0.000000 0.123528 0.949208
Si Si7 0.874668 0.124751 0.732573
O O1 0.613136 0.000000 0.862040
O O2 0.679545 0.891186 0.795571
O O3 0.500000 0.000000 0.789947
O O4 0.284266 0.311260 0.078236
O O5 0.201419 0.191591 0.140121
O O6 0.107710 0.187831 0.066594
O O7 0.307908 0.104997 0.072191
O O8 0.855437 0.154349 0.500000
O O9 0.000000 0.157919 0.563303
O O10 0.854533 0.000000 0.558326
O O11 0.000000 0.500000 0.433332
O O12 0.796000 0.181282 0.302793
O O13 0.633592 0.314113 0.278825
O O14 0.000000 0.000000 0.931246
O O15 0.000000 0.122853 0.000000
O O16 0.000000 0.134652 0.716124
O O17 0.838788 0.000000 0.736826
#
# Coordination Sequence:
#
# PCOD8291500 Si02
#       7
#     8  16  16   8  16   8  16
#     4   9  16  30  50  74 109 146 183 233 284 341
#     4  11  21  37  59  85 120 155 199 247 291 357
#     4   9  19  37  61  88 117 150 189 239 300 359
#     4   9  18  31  51  84 115 147 191 244 298 348
#     4  10  21  35  54  84 111 147 196 237 285 345
#     4  11  24  40  59  87 125 165 202 243 297 353
#     4  10  21  37  57  81 115 150 188 238 291 345
#
# _framework density 18.978885999999999
#
# number of rings (size 3 to 8) (size 9 to 14) (size 15 to 20)
#    0.000    2.091    1.818    2.182    1.273    2.909 
#    0.000    2.273    0.000    3.818    0.000    0.000 
#    0.000    0.000    0.000    0.000    0.000    0.000 
#
# Total GULP energy -545583.795512 kJ/mol
# GULP energy per Si atom -12399.631716 kJ/mol
# Density = 1.893569 g / cm^3
# Si number density = 18.978886 Si / 1000 Ang^3
#
#
#
# Elastic Constant Matrix: (Units=GPa)
#
#
# Indices 1 2 3 4 5 6 
#
# 1 107.9528 43.0192 23.7655 0.0000 0.0000 0.0000
# 2 43.0192 95.9771 23.6776 0.0000 0.0000 0.0000
# 3 23.7655 23.6776 59.3946 0.0000 0.0000 0.0000
# 4 0.0000 0.0000 0.0000 26.8260 0.0000 0.0000
# 5 0.0000 0.0000 0.0000 0.0000 22.8411 0.0000
# 6 0.0000 0.0000 0.0000 0.0000 0.0000 30.1313
#
#
#
# Elastic Compliance Matrix: (Units=1/GPa)
#
#
# Indices 1 2 3 4 5 6 
#
# 1 0.011704 -0.004537 -0.002875 0.000000 0.000000 0.000000
# 2 -0.004537 0.013314 -0.003492 0.000000 0.000000 0.000000
# 3 -0.002875 -0.003492 0.019379 0.000000 0.000000 0.000000
# 4 0.000000 0.000000 0.000000 0.037277 0.000000 0.000000
# 5 0.000000 0.000000 0.000000 0.000000 0.043781 0.000000
# 6 0.000000 0.000000 0.000000 0.000000 0.000000 0.033188
#
#
# Mechanical properties :
#
#
# Convention : Reuss Voigt Hill
#
# Bulk Modulus (GPa) = 44.26791 49.36102 46.81446
# Shear Modulus (GPa) = 26.59845 27.48382 27.04114
#
# Velocity S-wave (km/s) = 3.74769 3.80955 3.77875
# Velocity P-wave (km/s) = 6.48863 6.73907 6.61504
#
# Compressibility (1/GPa) = 0.02258973
#
# Stress axis : x y z
#
# Youngs Moduli (GPa) = 85.44031 75.10742 51.60240
#
# Poissons Ratio (x) = 0.34075 0.14833
# Poissons Ratio (y) = 0.38763 0.18021
# Poissons Ratio (z) = 0.24560 0.26230
#
# Static dielectric constant tensor:
#      x y z
#    x 3.507220 0.000000 0.000000 
#    y 0.000000 3.490030 0.000000 
#    z 0.000000 0.000000 3.215590 
# 
# 
# High freq. dielectric constant tensor:
#      x y z
#    x 1.734640 0.000000 0.000000 
#    y 0.000000 1.740400 0.000000 
#    z 0.000000 0.000000 1.722060 
# 
# From -- ./inp_files/69105.got.cif
#   From: 2010.06.25/outbox.cif.g09.slc.cpg/sg71_35_cif.got.tgz:69105.got - 2010.06.28 04:59:45.
