data_PCOD8291375
_publ_section_title
;
Structure prediction by ZEFSAII (Michael W. Deem and Ramdas Pophale) SiO2 
 PCOD8291375
Probable space group: I M M M
;
_chemical_formula_sum "Si O2"
_cell_formula_units_Z 120
_cell_length_a 12.665636
_cell_length_b 19.072115
_cell_length_c 29.331613
_cell_angle_alpha 90.000000
_cell_angle_beta 90.000000
_cell_angle_gamma 90.000000
_cell_volume 7085.358115
_symmetry_space_group_name_H-M "I M M M"
_symmetry_group_IT_number 71
_symmetry_cell_setting 'orthorhombic'
loop_
_space_group_symop_operation_xyz
x,y,z
-x,-y,z
x,-y,-z
-x,y,-z
-x,-y,-z
x,y,-z
-x,y,z
x,-y,z
1/2+x,1/2+y,1/2+z
1/2-x,1/2-y,1/2+z
1/2+x,1/2-y,1/2-z
1/2-x,1/2+y,1/2-z
1/2-x,1/2-y,1/2-z
1/2+x,1/2+y,1/2-z
1/2-x,1/2+y,1/2+z
1/2+x,1/2-y,1/2+z
loop_
_atom_site_type_symbol
_atom_site_label
_atom_site_fract_x
_atom_site_fract_y
_atom_site_fract_z
Si Si1 0.754182 0.169237 0.620547
Si Si2 0.382876 0.235567 0.549805
Si Si3 0.623980 0.077087 0.205479
Si Si4 0.619515 0.500000 0.554109
Si Si5 0.624095 0.187759 0.132181
Si Si6 0.621367 0.918131 0.309860
Si Si7 0.624574 0.421655 0.949648
Si Si8 0.259021 0.129110 0.949024
O O1 0.655417 0.181303 0.587433
O O2 0.809973 0.240599 0.637035
O O3 0.707835 0.126386 0.662800
O O4 0.838792 0.126125 0.591747
O O5 0.379312 0.199005 0.500000
O O6 0.500000 0.259711 0.562553
O O7 0.312698 0.303557 0.548997
O O8 0.500000 0.071832 0.198034
O O9 0.668076 0.137426 0.172321
O O10 0.649426 0.097156 0.257398
O O11 0.672953 0.000000 0.193985
O O12 0.500000 0.500000 0.574853
O O13 0.609772 0.500000 0.500000
O O14 0.686192 0.432977 0.570771
O O15 0.500000 0.204423 0.136328
O O16 0.643846 0.146575 0.084575
O O17 0.500000 0.895546 0.320354
O O18 0.635356 0.000000 0.321476
O O19 0.500000 0.423615 0.947305
O O20 0.670434 0.500000 0.943291
O O21 0.659061 0.392760 0.000000
O O22 0.302658 0.111313 0.000000
#
# Coordination Sequence:
#
# PCOD8291375 Si02
#       8
#    16  16  16   8  16  16  16  16
#     4  11  19  29  47  73 100 120 154 200 251 288
#     4   9  17  29  43  61  91 128 157 182 222 281
#     4   8  16  33  53  69  90 124 162 198 238 291
#     4   9  16  28  47  69  93 121 158 206 251 289
#     4  10  21  33  47  70  99 132 167 202 242 290
#     4   9  18  33  53  75  96 119 153 200 249 297
#     4   9  18  32  48  66  92 129 168 199 229 276
#     4   9  18  30  45  68  95 125 164 203 240 283
#
# _framework density 16.936336000000001
#
# number of rings (size 3 to 8) (size 9 to 14) (size 15 to 20)
#    0.000    2.733    0.000    3.200    0.933    2.933 
#    0.000    0.000    0.000    1.200    0.000    8.400 
#    0.000    0.000    0.000    0.000    0.000    0.000 
#
# Total GULP energy -743593.406934 kJ/mol
# GULP energy per Si atom -12393.223449 kJ/mol
# Density = 1.689779 g / cm^3
# Si number density = 16.936336 Si / 1000 Ang^3
#
#
#
# Elastic Constant Matrix: (Units=GPa)
#
#
# Indices 1 2 3 4 5 6 
#
# 1 55.4385 29.5766 39.5053 0.0000 0.0000 0.0000
# 2 29.5766 91.2867 62.6734 0.0000 0.0000 0.0000
# 3 39.5053 62.6734 102.1752 0.0000 0.0000 0.0000
# 4 0.0000 0.0000 0.0000 91.1654 0.0000 0.0000
# 5 0.0000 0.0000 0.0000 0.0000 22.4485 0.0000
# 6 0.0000 0.0000 0.0000 0.0000 0.0000 36.1744
#
#
#
# Elastic Compliance Matrix: (Units=1/GPa)
#
#
# Indices 1 2 3 4 5 6 
#
# 1 0.025238 -0.002552 -0.008192 0.000000 0.000000 0.000000
# 2 -0.002552 0.019182 -0.010779 0.000000 0.000000 0.000000
# 3 -0.008192 -0.010779 0.019566 0.000000 0.000000 0.000000
# 4 0.000000 0.000000 0.000000 0.010969 0.000000 0.000000
# 5 0.000000 0.000000 0.000000 0.000000 0.044546 0.000000
# 6 0.000000 0.000000 0.000000 0.000000 0.000000 0.027644
#
#
# Mechanical properties :
#
#
# Convention : Reuss Voigt Hill
#
# Bulk Modulus (GPa) = 47.75961 56.93456 52.34708
# Shear Modulus (GPa) = 25.35850 37.76734 31.56292
#
# Velocity S-wave (km/s) = 3.87367 4.72737 4.32165
# Velocity P-wave (km/s) = 6.94751 7.96788 7.47512
#
# Compressibility (1/GPa) = 0.02093820
#
# Stress axis : x y z
#
# Youngs Moduli (GPa) = 39.62353 52.13221 51.10785
#
# Poissons Ratio (x) = 0.13306 0.41869
# Poissons Ratio (y) = 0.10114 0.55090
# Poissons Ratio (z) = 0.32461 0.56194
#
# Static dielectric constant tensor:
#      x y z
#    x 2.994650 0.000000 0.000000 
#    y 0.000000 3.345130 0.000000 
#    z 0.000000 0.000000 3.561940 
# 
# 
# High freq. dielectric constant tensor:
#      x y z
#    x 1.635170 0.000000 0.000000 
#    y 0.000000 1.655980 0.000000 
#    z 0.000000 0.000000 1.645970 
# 
# From -- ./inp_files/59085.got.cif
#   From: 2010.06.25/outbox.cif.g09.slc.cpg/sg71_30_cif.got.tgz:59085.got - 2010.06.28 04:59:45.
