data_PCOD8291212
_publ_section_title
;
Structure prediction by ZEFSAII (Michael W. Deem and Ramdas Pophale) SiO2 
 PCOD8291212
Probable space group: I M M M
;
_chemical_formula_sum "Si O2"
_cell_formula_units_Z 88
_cell_length_a 22.467838
_cell_length_b 8.749332
_cell_length_c 22.648612
_cell_angle_alpha 90.000000
_cell_angle_beta 90.000000
_cell_angle_gamma 90.000000
_cell_volume 4452.231850
_symmetry_space_group_name_H-M "I M M M"
_symmetry_group_IT_number 71
_symmetry_cell_setting 'orthorhombic'
loop_
_space_group_symop_operation_xyz
x,y,z
-x,-y,z
x,-y,-z
-x,y,-z
-x,-y,-z
x,y,-z
-x,y,z
x,-y,z
1/2+x,1/2+y,1/2+z
1/2-x,1/2-y,1/2+z
1/2+x,1/2-y,1/2-z
1/2-x,1/2+y,1/2-z
1/2-x,1/2-y,1/2-z
1/2+x,1/2+y,1/2-z
1/2-x,1/2+y,1/2+z
1/2+x,1/2-y,1/2+z
loop_
_atom_site_type_symbol
_atom_site_label
_atom_site_fract_x
_atom_site_fract_y
_atom_site_fract_z
Si Si1 0.262733 0.167765 0.000000
Si Si2 0.220190 0.327451 0.371937
Si Si3 0.591928 0.181761 0.156772
Si Si4 0.500000 0.318986 0.068891
Si Si5 0.566075 0.673952 0.278399
Si Si6 0.353397 0.173581 0.500000
Si Si7 0.652938 0.818452 0.627841
O O1 0.301025 0.179511 0.059419
O O2 0.217711 0.309957 0.000000
O O3 0.229581 0.000000 0.000000
O O4 0.235553 0.500000 0.352497
O O5 0.161497 0.266887 0.338709
O O6 0.278925 0.228799 0.359220
O O7 0.559013 0.253635 0.100389
O O8 0.562119 0.240573 0.216282
O O9 0.586397 0.000000 0.152126
O O10 0.500000 0.500000 0.075816
O O11 0.500000 0.270326 0.000000
O O12 0.500000 0.680476 0.306418
O O13 0.586863 0.500000 0.268875
O O14 0.611382 0.756462 0.321512
O O15 0.372163 0.246113 0.563817
O O16 0.374148 0.000000 0.500000
O O17 0.650799 0.000000 0.627235
#
# Coordination Sequence:
#
# PCOD8291212 Si02
#       7
#     8  16  16   8  16   8  16
#     4   8  14  28  50  76 112 150 183 222 276 343
#     4   9  19  34  55  86 119 151 190 239 297 350
#     4  11  23  39  63  89 117 155 202 251 296 347
#     4  11  25  43  61  87 125 166 205 248 297 347
#     4  11  24  42  62  82 113 155 198 244 299 357
#     4   8  16  32  53  83 117 146 180 229 283 337
#     4  10  20  36  61  89 119 153 193 238 291 354
#
# _framework density 19.765367000000001
#
# number of rings (size 3 to 8) (size 9 to 14) (size 15 to 20)
#    0.000    2.091    0.909    1.909    1.273    4.727 
#    0.000    0.455    0.000    2.727    0.000    0.000 
#    0.000    0.000    0.000    0.000    0.000    0.000 
#
# Total GULP energy -545091.752256 kJ/mol
# GULP energy per Si atom -12388.448915 kJ/mol
# Density = 1.972038 g / cm^3
# Si number density = 19.765367 Si / 1000 Ang^3
#
#
#
# Elastic Constant Matrix: (Units=GPa)
#
#
# Indices 1 2 3 4 5 6 
#
# 1 109.3862 46.0682 56.2299 0.0000 0.0000 0.0000
# 2 46.0682 83.3032 43.5694 0.0000 0.0000 0.0000
# 3 56.2299 43.5694 111.9343 0.0000 0.0000 0.0000
# 4 0.0000 0.0000 0.0000 29.4150 0.0000 0.0000
# 5 0.0000 0.0000 0.0000 0.0000 32.0614 0.0000
# 6 0.0000 0.0000 0.0000 0.0000 0.0000 27.5630
#
#
#
# Elastic Compliance Matrix: (Units=1/GPa)
#
#
# Indices 1 2 3 4 5 6 
#
# 1 0.013826 -0.005039 -0.004984 0.000000 0.000000 0.000000
# 2 -0.005039 0.016910 -0.004050 0.000000 0.000000 0.000000
# 3 -0.004984 -0.004050 0.013014 0.000000 0.000000 0.000000
# 4 0.000000 0.000000 0.000000 0.033996 0.000000 0.000000
# 5 0.000000 0.000000 0.000000 0.000000 0.031190 0.000000
# 6 0.000000 0.000000 0.000000 0.000000 0.000000 0.036281
#
#
# Mechanical properties :
#
#
# Convention : Reuss Voigt Hill
#
# Bulk Modulus (GPa) = 64.09293 66.26210 65.17752
# Shear Modulus (GPa) = 28.00088 28.39161 28.19624
#
# Velocity S-wave (km/s) = 3.76794 3.79414 3.78106
# Velocity P-wave (km/s) = 7.17127 7.26575 7.21867
#
# Compressibility (1/GPa) = 0.01560234
#
# Stress axis : x y z
#
# Youngs Moduli (GPa) = 72.32556 59.13767 76.83952
#
# Poissons Ratio (x) = 0.29802 0.38297
# Poissons Ratio (y) = 0.36448 0.31123
# Poissons Ratio (z) = 0.36048 0.23953
#
# Static dielectric constant tensor:
#      x y z
#    x 3.369590 0.000000 0.000000 
#    y 0.000000 3.618630 0.000000 
#    z 0.000000 0.000000 3.893740 
# 
# 
# High freq. dielectric constant tensor:
#      x y z
#    x 1.753410 0.000000 0.000000 
#    y 0.000000 1.771140 0.000000 
#    z 0.000000 0.000000 1.778400 
# 
# From -- ./inp_files/55595.got.cif
#   From: 2010.06.25/outbox.cif.g09.slc.cpg/sg71_28_cif.got.tgz:55595.got - 2010.06.28 04:59:45.
