data_PCOD8291256
_publ_section_title
;
Structure prediction by ZEFSAII (Michael W. Deem and Ramdas Pophale) SiO2 
 PCOD8291256
Probable space group: I M M M
;
_chemical_formula_sum "Si O2"
_cell_formula_units_Z 96
_cell_length_a 22.114149
_cell_length_b 11.137553
_cell_length_c 21.271836
_cell_angle_alpha 90.000000
_cell_angle_beta 90.000000
_cell_angle_gamma 90.000000
_cell_volume 5239.200166
_symmetry_space_group_name_H-M "I M M M"
_symmetry_group_IT_number 71
_symmetry_cell_setting 'orthorhombic'
loop_
_space_group_symop_operation_xyz
x,y,z
-x,-y,z
x,-y,-z
-x,y,-z
-x,-y,-z
x,y,-z
-x,y,z
x,-y,z
1/2+x,1/2+y,1/2+z
1/2-x,1/2-y,1/2+z
1/2+x,1/2-y,1/2-z
1/2-x,1/2+y,1/2-z
1/2-x,1/2-y,1/2-z
1/2+x,1/2+y,1/2-z
1/2-x,1/2+y,1/2+z
1/2+x,1/2-y,1/2+z
loop_
_atom_site_type_symbol
_atom_site_label
_atom_site_fract_x
_atom_site_fract_y
_atom_site_fract_z
Si Si1 0.570145 0.130024 0.572782
Si Si2 0.875078 0.738586 0.385501
Si Si3 0.930205 0.863418 0.267915
Si Si4 0.625575 0.365217 0.367589
Si Si5 0.746064 0.863854 0.927253
Si Si6 0.066022 0.861248 0.500000
Si Si7 0.929243 0.500000 0.429815
O O1 0.584905 0.132031 0.500000
O O2 0.500000 0.132574 0.587222
O O3 0.595607 0.252837 0.599275
O O4 0.595449 0.000000 0.599520
O O5 0.891872 0.787618 0.317421
O O6 0.803385 0.722983 0.395783
O O7 0.897503 0.829112 0.438235
O O8 0.908869 0.613725 0.390937
O O9 0.891073 0.852051 0.204992
O O10 0.000000 0.817172 0.259620
O O11 0.932503 0.000000 0.291198
O O12 0.603980 0.500000 0.390742
O O13 0.696300 0.353103 0.382021
O O14 0.721142 0.000000 0.926495
O O15 0.760429 0.826707 0.000000
O O16 0.000000 0.795815 0.500000
O O17 0.054638 0.000000 0.500000
O O18 0.899837 0.500000 0.500000
O O19 0.000000 0.500000 0.436198
#
# Coordination Sequence:
#
# PCOD8291256 Si02
#       7
#    16  16  16  16  16   8   8
#     4   9  18  34  56  84 119 153 189 247 316 362
#     4  12  21  36  57  81 117 154 190 237 302 357
#     4  10  22  40  59  83 118 155 194 246 299 346
#     4  10  21  38  62  86 114 159 207 244 286 349
#     4  10  20  37  59  87 120 153 192 245 299 344
#     4  11  22  35  55  83 113 150 198 247 296 351
#     4  11  20  32  54  84 112 144 190 244 296 353
#
# _framework density 18.323408000000001
#
# number of rings (size 3 to 8) (size 9 to 14) (size 15 to 20)
#    0.000    1.667    2.500    3.500    0.000    4.000 
#    1.500    2.500    0.000    0.000    0.000    0.000 
#    0.000    0.000    0.000    0.000    0.000    0.000 
#
# Total GULP energy -594774.119389 kJ/mol
# GULP energy per Si atom -12391.127487 kJ/mol
# Density = 1.828170 g / cm^3
# Si number density = 18.323408 Si / 1000 Ang^3
#
#
#
# Elastic Constant Matrix: (Units=GPa)
#
#
# Indices 1 2 3 4 5 6 
#
# 1 117.0628 53.3559 59.2229 0.0000 0.0000 0.0000
# 2 53.3559 140.6501 62.5684 0.0000 0.0000 0.0000
# 3 59.2229 62.5684 113.3192 0.0000 0.0000 0.0000
# 4 0.0000 0.0000 0.0000 31.6844 0.0000 0.0000
# 5 0.0000 0.0000 0.0000 0.0000 35.4283 0.0000
# 6 0.0000 0.0000 0.0000 0.0000 0.0000 29.4040
#
#
#
# Elastic Compliance Matrix: (Units=1/GPa)
#
#
# Indices 1 2 3 4 5 6 
#
# 1 0.012182 -0.002372 -0.005057 0.000000 0.000000 0.000000
# 2 -0.002372 0.009886 -0.004219 0.000000 0.000000 0.000000
# 3 -0.005057 -0.004219 0.013797 0.000000 0.000000 0.000000
# 4 0.000000 0.000000 0.000000 0.031561 0.000000 0.000000
# 5 0.000000 0.000000 0.000000 0.000000 0.028226 0.000000
# 6 0.000000 0.000000 0.000000 0.000000 0.000000 0.034009
#
#
# Mechanical properties :
#
#
# Convention : Reuss Voigt Hill
#
# Bulk Modulus (GPa) = 79.55667 80.14739 79.85203
# Shear Modulus (GPa) = 31.81731 32.36234 32.08983
#
# Velocity S-wave (km/s) = 4.17157 4.20715 4.18940
# Velocity P-wave (km/s) = 8.16792 8.21191 8.18995
#
# Compressibility (1/GPa) = 0.01256966
#
# Stress axis : x y z
#
# Youngs Moduli (GPa) = 82.09029 101.14830 72.47867
#
# Poissons Ratio (x) = 0.23988 0.36652
# Poissons Ratio (y) = 0.19468 0.30581
# Poissons Ratio (z) = 0.41513 0.42678
#
# Static dielectric constant tensor:
#      x y z
#    x 3.406300 0.000000 0.000000 
#    y 0.000000 3.663360 0.000000 
#    z 0.000000 0.000000 3.348480 
# 
# 
# High freq. dielectric constant tensor:
#      x y z
#    x 1.709620 0.000000 0.000000 
#    y 0.000000 1.721850 0.000000 
#    z 0.000000 0.000000 1.699000 
# 
# From -- ./inp_files/54899.got.cif
#   From: 2010.06.25/outbox.cif.g09.slc.cpg/sg71_28_cif.got.tgz:54899.got - 2010.06.28 04:59:45.
