data_PCOD8291866
_publ_section_title
;
Structure prediction by ZEFSAII (Michael W. Deem and Ramdas Pophale) SiO2 
 PCOD8291866
Probable space group: I M M M
;
_chemical_formula_sum "Si O2"
_cell_formula_units_Z 96
_cell_length_a 25.143623
_cell_length_b 23.775398
_cell_length_c 8.608191
_cell_angle_alpha 90.000000
_cell_angle_beta 90.000000
_cell_angle_gamma 90.000000
_cell_volume 5145.973515
_symmetry_space_group_name_H-M "I M M M"
_symmetry_group_IT_number 71
_symmetry_cell_setting 'orthorhombic'
loop_
_space_group_symop_operation_xyz
x,y,z
-x,-y,z
x,-y,-z
-x,y,-z
-x,-y,-z
x,y,-z
-x,y,z
x,-y,z
1/2+x,1/2+y,1/2+z
1/2-x,1/2-y,1/2+z
1/2+x,1/2-y,1/2-z
1/2-x,1/2+y,1/2-z
1/2-x,1/2-y,1/2-z
1/2+x,1/2+y,1/2-z
1/2-x,1/2+y,1/2+z
1/2+x,1/2-y,1/2+z
loop_
_atom_site_type_symbol
_atom_site_label
_atom_site_fract_x
_atom_site_fract_y
_atom_site_fract_z
Si Si1 0.253338 0.811754 0.684076
Si Si2 0.060512 0.199393 0.682152
Si Si3 0.846470 0.615248 0.317739
Si Si4 0.652347 0.619110 0.815627
Si Si5 0.561484 0.818593 0.319304
Si Si6 0.191820 0.500000 0.184390
Si Si7 0.186715 0.000000 0.685042
O O1 0.253715 0.809717 0.500000
O O2 0.250000 0.750000 0.750000
O O3 0.306710 0.840519 0.741745
O O4 0.202860 0.846455 0.747512
O O5 0.068516 0.210895 0.500000
O O6 0.097935 0.148492 0.741383
O O7 0.077811 0.255484 0.771519
O O8 0.000000 0.182193 0.720904
O O9 0.837159 0.612949 0.500000
O O10 0.905838 0.635942 0.279101
O O11 0.838861 0.553971 0.246697
O O12 0.656113 0.555251 0.751029
O O13 0.654089 0.617738 0.000000
O O14 0.573868 0.826670 0.500000
O O15 0.500000 0.829097 0.279553
O O16 0.252552 0.500000 0.245420
O O17 0.190293 0.500000 0.000000
O O18 0.187437 0.000000 0.500000
#
# Coordination Sequence:
#
# PCOD8291866 Si02
#       7
#    16  16  16  16  16   8   8
#     4  11  21  34  53  80 112 148 190 237 289 342
#     4   9  17  31  53  82 115 147 181 229 286 339
#     4  12  24  38  57  84 116 148 185 233 287 346
#     4   9  17  30  50  76 106 143 188 228 273 331
#     4  10  21  38  60  84 110 145 189 232 277 337
#     4  11  21  39  62  81 107 151 194 236 283 335
#     4   9  16  31  54  76 101 143 189 230 274 323
#
# _framework density 18.655362
#
# number of rings (size 3 to 8) (size 9 to 14) (size 15 to 20)
#    0.000    1.833    1.667    3.750    0.000    2.333 
#    0.000    1.667    0.000    5.000    0.000    0.000 
#    0.000    2.667    0.000    0.000    0.000    0.000 
#
# Total GULP energy -595298.934246 kJ/mol
# GULP energy per Si atom -12402.061130 kJ/mol
# Density = 1.861290 g / cm^3
# Si number density = 18.655362 Si / 1000 Ang^3
#
#
#
# Elastic Constant Matrix: (Units=GPa)
#
#
# Indices 1 2 3 4 5 6 
#
# 1 105.8487 73.1135 23.7317 0.0000 0.0000 0.0000
# 2 73.1135 169.2982 34.0975 0.0000 0.0000 0.0000
# 3 23.7317 34.0975 57.3363 0.0000 0.0000 0.0000
# 4 0.0000 0.0000 0.0000 28.7189 0.0000 0.0000
# 5 0.0000 0.0000 0.0000 0.0000 19.7202 0.0000
# 6 0.0000 0.0000 0.0000 0.0000 0.0000 31.9671
#
#
#
# Elastic Compliance Matrix: (Units=1/GPa)
#
#
# Indices 1 2 3 4 5 6 
#
# 1 0.013761 -0.005448 -0.002456 0.000000 0.000000 0.000000
# 2 -0.005448 0.008868 -0.003018 0.000000 0.000000 0.000000
# 3 -0.002456 -0.003018 0.020252 0.000000 0.000000 0.000000
# 4 0.000000 0.000000 0.000000 0.034820 0.000000 0.000000
# 5 0.000000 0.000000 0.000000 0.000000 0.050709 0.000000
# 6 0.000000 0.000000 0.000000 0.000000 0.000000 0.031282
#
#
# Mechanical properties :
#
#
# Convention : Reuss Voigt Hill
#
# Bulk Modulus (GPa) = 47.53684 66.04096 56.78890
# Shear Modulus (GPa) = 26.51807 29.51728 28.01767
#
# Velocity S-wave (km/s) = 3.77433 3.98205 3.87958
# Velocity P-wave (km/s) = 6.67316 7.52461 7.11164
#
# Compressibility (1/GPa) = 0.02103631
#
# Stress axis : x y z
#
# Youngs Moduli (GPa) = 72.66658 112.76955 49.37685
#
# Poissons Ratio (x) = 0.61442 0.12126
# Poissons Ratio (y) = 0.39592 0.14904
# Poissons Ratio (z) = 0.17845 0.34038
#
# Static dielectric constant tensor:
#      x y z
#    x 3.549500 0.000000 0.000000 
#    y 0.000000 3.847930 0.000000 
#    z 0.000000 0.000000 3.263000 
# 
# 
# High freq. dielectric constant tensor:
#      x y z
#    x 1.726400 0.000000 0.000000 
#    y 0.000000 1.729900 0.000000 
#    z 0.000000 0.000000 1.707810 
# 
# From -- ./inp_files/12903.got.cif
#   From: 2010.06.25/outbox.cif.g09.slc.cpg/sg71_7_cif.got.tgz:12903.got - 2010.06.28 04:59:45.
