data_PCOD8291561
_publ_section_title
;
Structure prediction by ZEFSAII (Michael W. Deem and Ramdas Pophale) SiO2 
 PCOD8291561
Probable space group: I M M M
;
_chemical_formula_sum "Si O2"
_cell_formula_units_Z 104
_cell_length_a 23.800034
_cell_length_b 8.313975
_cell_length_c 29.517633
_cell_angle_alpha 90.000000
_cell_angle_beta 90.000000
_cell_angle_gamma 90.000000
_cell_volume 5840.739279
_symmetry_space_group_name_H-M "I M M M"
_symmetry_group_IT_number 71
_symmetry_cell_setting 'orthorhombic'
loop_
_space_group_symop_operation_xyz
x,y,z
-x,-y,z
x,-y,-z
-x,y,-z
-x,-y,-z
x,y,-z
-x,y,z
x,-y,z
1/2+x,1/2+y,1/2+z
1/2-x,1/2-y,1/2+z
1/2+x,1/2-y,1/2-z
1/2-x,1/2+y,1/2-z
1/2-x,1/2-y,1/2-z
1/2+x,1/2+y,1/2-z
1/2-x,1/2+y,1/2+z
1/2+x,1/2-y,1/2+z
loop_
_atom_site_type_symbol
_atom_site_label
_atom_site_fract_x
_atom_site_fract_y
_atom_site_fract_z
Si Si1 0.265810 0.683819 0.551043
Si Si2 0.351985 0.312184 0.050330
Si Si3 0.062750 0.187981 0.623450
Si Si4 0.118640 0.812641 0.096436
Si Si5 0.566102 0.181205 0.216888
Si Si6 0.563049 0.685361 0.309654
Si Si7 0.564719 0.000000 0.447737
O O1 0.285003 0.734724 0.500000
O O2 0.247118 0.500000 0.551247
O O3 0.211725 0.784060 0.567083
O O4 0.315632 0.714139 0.586694
O O5 0.363084 0.500000 0.048161
O O6 0.396318 0.233729 0.085568
O O7 0.360507 0.236401 0.000000
O O8 0.088177 0.219466 0.673555
O O9 0.000000 0.264413 0.618840
O O10 0.059064 0.000000 0.615580
O O11 0.105483 0.783219 0.149085
O O12 0.087232 0.670770 0.070265
O O13 0.101451 0.000000 0.082677
O O14 0.500000 0.207472 0.221515
O O15 0.591506 0.235699 0.265141
O O16 0.583795 0.000000 0.207569
O O17 0.500000 0.754129 0.320692
O O18 0.557150 0.500000 0.298701
O O19 0.500000 0.000000 0.435948
O O20 0.578845 0.000000 0.500000
#
# Coordination Sequence:
#
# PCOD8291561 Si02
#       7
#    16  16  16  16  16  16   8
#     4   9  18  33  52  72  95 128 171 215 258 302
#     4   9  18  31  49  74 100 129 167 211 254 297
#     4   9  17  30  48  71 102 136 166 199 247 309
#     4  10  21  36  54  76 103 138 178 223 266 315
#     4   9  17  28  45  70  98 129 164 204 248 299
#     4   9  17  30  49  72  98 129 165 208 259 308
#     4  11  24  36  50  76 106 140 177 215 268 324
#
# _framework density 17.805963999999999
#
# number of rings (size 3 to 8) (size 9 to 14) (size 15 to 20)
#    0.000    2.692    0.000    1.385    2.154    4.615 
#    0.000    2.308    0.000    0.923    0.000    4.308 
#    0.000    0.000    0.000    0.000    0.000    0.000 
#
# Total GULP energy -644299.494655 kJ/mol
# GULP energy per Si atom -12390.374897 kJ/mol
# Density = 1.776544 g / cm^3
# Si number density = 17.805964 Si / 1000 Ang^3
#
#
#
# Elastic Constant Matrix: (Units=GPa)
#
#
# Indices 1 2 3 4 5 6 
#
# 1 90.5440 27.3420 75.3841 0.0000 0.0000 0.0000
# 2 27.3420 57.8254 39.3761 0.0000 0.0000 0.0000
# 3 75.3841 39.3761 144.6162 0.0000 0.0000 0.0000
# 4 0.0000 0.0000 0.0000 21.6910 0.0000 0.0000
# 5 0.0000 0.0000 0.0000 0.0000 38.6256 0.0000
# 6 0.0000 0.0000 0.0000 0.0000 0.0000 19.8276
#
#
#
# Elastic Compliance Matrix: (Units=1/GPa)
#
#
# Indices 1 2 3 4 5 6 
#
# 1 0.019896 -0.002879 -0.009587 0.000000 0.000000 0.000000
# 2 -0.002879 0.021646 -0.004393 0.000000 0.000000 0.000000
# 3 -0.009587 -0.004393 0.013108 0.000000 0.000000 0.000000
# 4 0.000000 0.000000 0.000000 0.046102 0.000000 0.000000
# 5 0.000000 0.000000 0.000000 0.000000 0.025890 0.000000
# 6 0.000000 0.000000 0.000000 0.000000 0.000000 0.050435
#
#
# Mechanical properties :
#
#
# Convention : Reuss Voigt Hill
#
# Bulk Modulus (GPa) = 47.77403 64.13222 55.95312
# Shear Modulus (GPa) = 22.95973 26.08773 24.52373
#
# Velocity S-wave (km/s) = 3.59477 3.83183 3.71519
# Velocity P-wave (km/s) = 6.64217 7.46141 7.06368
#
# Compressibility (1/GPa) = 0.02093188
#
# Stress axis : x y z
#
# Youngs Moduli (GPa) = 50.26216 46.19742 76.28663
#
# Poissons Ratio (x) = 0.13301 0.73137
# Poissons Ratio (y) = 0.14471 0.33513
# Poissons Ratio (z) = 0.48187 0.20295
#
# Static dielectric constant tensor:
#      x y z
#    x 3.170520 0.000000 0.000000 
#    y 0.000000 3.296370 0.000000 
#    z 0.000000 0.000000 3.524390 
# 
# 
# High freq. dielectric constant tensor:
#      x y z
#    x 1.655760 0.000000 0.000000 
#    y 0.000000 1.687330 0.000000 
#    z 0.000000 0.000000 1.692000 
# 
# From -- ./inp_files/70971.got.cif
#   From: 2010.06.25/outbox.cif.g09.slc.cpg/sg71_36_cif.got.tgz:70971.got - 2010.06.28 04:59:45.
