data_PCOD8291628
_publ_section_title
;
Structure prediction by ZEFSAII (Michael W. Deem and Ramdas Pophale) SiO2 
 PCOD8291628
Probable space group: I M M M
;
_chemical_formula_sum "Si O2"
_cell_formula_units_Z 112
_cell_length_a 14.539534
_cell_length_b 23.309853
_cell_length_c 15.691983
_cell_angle_alpha 90.000000
_cell_angle_beta 90.000000
_cell_angle_gamma 90.000000
_cell_volume 5318.239007
_symmetry_space_group_name_H-M "I M M M"
_symmetry_group_IT_number 71
_symmetry_cell_setting 'orthorhombic'
loop_
_space_group_symop_operation_xyz
x,y,z
-x,-y,z
x,-y,-z
-x,y,-z
-x,-y,-z
x,y,-z
-x,y,z
x,-y,z
1/2+x,1/2+y,1/2+z
1/2-x,1/2-y,1/2+z
1/2+x,1/2-y,1/2-z
1/2-x,1/2+y,1/2-z
1/2-x,1/2-y,1/2-z
1/2+x,1/2+y,1/2-z
1/2-x,1/2+y,1/2+z
1/2+x,1/2-y,1/2+z
loop_
_atom_site_type_symbol
_atom_site_label
_atom_site_fract_x
_atom_site_fract_y
_atom_site_fract_z
Si Si1 0.256802 0.751665 0.150136
Si Si2 0.108208 0.567361 0.756093
Si Si3 0.392658 0.851489 0.098107
Si Si4 0.107914 0.061430 0.178474
Si Si5 0.600128 0.564977 0.874867
Si Si6 0.775680 0.373548 0.907267
Si Si7 0.399957 0.327505 0.402332
O O1 0.250000 0.750000 0.250000
O O2 0.338401 0.792752 0.117969
O O3 0.266607 0.687765 0.116860
O O4 0.158969 0.771885 0.114885
O O5 0.137203 0.500000 0.751041
O O6 0.134220 0.598312 0.666113
O O7 0.159521 0.598764 0.834739
O O8 0.000000 0.572842 0.773898
O O9 0.500000 0.836892 0.107803
O O10 0.370960 0.871083 0.000000
O O11 0.128339 0.070094 0.276742
O O12 0.153621 0.115623 0.131331
O O13 0.000000 0.060814 0.158523
O O14 0.149804 0.000000 0.147997
O O15 0.500000 0.594804 0.891589
O O16 0.590032 0.500000 0.903460
O O17 0.683315 0.591305 0.926526
O O18 0.827403 0.371610 0.000000
O O19 0.415795 0.337272 0.500000
O O20 0.500000 0.319559 0.357511
#
# Coordination Sequence:
#
# PCOD8291628 Si02
#       7
#    16  16  16  16  16  16  16
#     4  12  24  42  65  88 125 169 210 261 313 375
#     4  10  23  44  68  95 127 166 216 270 327 387
#     4  10  22  43  70  98 129 164 209 270 331 385
#     4   8  15  30  53  80 112 154 198 238 290 354
#     4   9  19  37  59  85 120 159 202 252 302 359
#     4  12  25  40  62  93 128 170 215 260 312 375
#     4  10  21  36  55  84 122 159 198 246 298 360
#
# _framework density 21.059602000000002
#
# number of rings (size 3 to 8) (size 9 to 14) (size 15 to 20)
#    0.000    1.857    1.429    3.429    0.000    4.000 
#    0.000    4.286    0.000    1.714    0.000    0.000 
#    0.000    0.000    0.000    0.000    0.000    0.143 
#
# Total GULP energy -693843.386897 kJ/mol
# GULP energy per Si atom -12390.060480 kJ/mol
# Density = 2.101167 g / cm^3
# Si number density = 21.059602 Si / 1000 Ang^3
#
#
#
# Elastic Constant Matrix: (Units=GPa)
#
#
# Indices 1 2 3 4 5 6 
#
# 1 76.0456 39.4513 36.7856 0.0000 0.0000 0.0004
# 2 39.4513 115.1688 59.1848 0.0002 -0.0001 0.0018
# 3 36.7856 59.1848 147.6005 -0.0002 -0.0002 0.0050
# 4 0.0000 0.0002 -0.0002 8.6226 -0.0001 0.0034
# 5 0.0000 -0.0001 -0.0002 -0.0001 25.4205 -0.0002
# 6 0.0004 0.0018 0.0050 0.0034 -0.0002 -248.8252
#
#
#
# Elastic Compliance Matrix: (Units=1/GPa)
#
#
# Indices 1 2 3 4 5 6 
#
# 1 0.016610 -0.004487 -0.002340 0.000000 0.000000 0.000000
# 2 -0.004487 0.012149 -0.003753 0.000000 0.000000 0.000000
# 3 -0.002340 -0.003753 0.008863 0.000000 0.000000 0.000000
# 4 0.000000 0.000000 0.000000 0.115974 0.000001 0.000002
# 5 0.000000 0.000000 0.000000 0.000001 0.039338 0.000000
# 6 0.000000 0.000000 0.000000 0.000002 0.000000 -0.004019
#
#
# Mechanical properties :
#
#
# Convention : Reuss Voigt Hill
#
# Bulk Modulus (GPa) = 60.75042 67.73980 64.24511
# Shear Modulus (GPa) = 23.19506 -29.39685 -3.10090
#
# Velocity S-wave (km/s) = 3.32234 -3.74021 -1.21476
# Velocity P-wave (km/s) = 6.60505 3.68556 5.34837
#
# Compressibility (1/GPa) = 0.01646079
#
# Stress axis : x y z
#
# Youngs Moduli (GPa) = 60.20501 82.31378 112.82571
#
# Poissons Ratio (x) = 0.36935 0.26405
# Poissons Ratio (y) = 0.27014 0.42344
# Poissons Ratio (z) = 0.14090 0.30893
#
# Static dielectric constant tensor:
#      x y z
#    x 4.272960 0.000000 0.000000 
#    y 0.000000 4.095260 0.000000 
#    z 0.000000 0.000000 3.893720 
# 
# 
# High freq. dielectric constant tensor:
#      x y z
#    x 1.822570 0.000000 0.000000 
#    y 0.000000 1.825750 0.000000 
#    z 0.000000 0.000000 1.834030 
# 
# From -- ./inp_files/34880.got.cif
#   From: 2010.06.25/outbox.cif.g09.slc.cpg/sg71_18_cif.got.tgz:34880.got - 2010.06.28 04:59:45.
