data_PCOD8291672
_publ_section_title
;
Structure prediction by ZEFSAII (Michael W. Deem and Ramdas Pophale) SiO2 
 PCOD8291672
Probable space group: I M M M
;
_chemical_formula_sum "Si O2"
_cell_formula_units_Z 96
_cell_length_a 26.292022
_cell_length_b 14.530576
_cell_length_c 13.461561
_cell_angle_alpha 90.000000
_cell_angle_beta 90.000000
_cell_angle_gamma 90.000000
_cell_volume 5142.830855
_symmetry_space_group_name_H-M "I M M M"
_symmetry_group_IT_number 71
_symmetry_cell_setting 'orthorhombic'
loop_
_space_group_symop_operation_xyz
x,y,z
-x,-y,z
x,-y,-z
-x,y,-z
-x,-y,-z
x,y,-z
-x,y,z
x,-y,z
1/2+x,1/2+y,1/2+z
1/2-x,1/2-y,1/2+z
1/2+x,1/2-y,1/2-z
1/2-x,1/2+y,1/2-z
1/2-x,1/2-y,1/2-z
1/2+x,1/2+y,1/2-z
1/2-x,1/2+y,1/2+z
1/2+x,1/2-y,1/2+z
loop_
_atom_site_type_symbol
_atom_site_label
_atom_site_fract_x
_atom_site_fract_y
_atom_site_fract_z
Si Si1 0.773270 0.500000 0.118097
Si Si2 0.611136 0.000000 0.617086
Si Si3 0.443715 0.398423 0.883015
Si Si4 0.732123 0.352669 0.258530
Si Si5 0.628640 0.727435 0.769218
Si Si6 0.179212 0.395795 0.385205
Si Si7 0.441148 0.814219 0.616484
O O1 0.831321 0.500000 0.159796
O O2 0.745613 0.408927 0.158611
O O3 0.769668 0.500000 0.000000
O O4 0.578937 0.087007 0.652623
O O5 0.616690 0.000000 0.500000
O O6 0.500000 0.372093 0.842922
O O7 0.428591 0.500000 0.842142
O O8 0.403410 0.321769 0.853762
O O9 0.444773 0.401529 0.000000
O O10 0.750000 0.250000 0.250000
O O11 0.671412 0.344620 0.268924
O O12 0.761014 0.397745 0.352762
O O13 0.649204 0.823891 0.814900
O O14 0.592508 0.740352 0.674304
O O15 0.175515 0.364859 0.500000
O O16 0.157273 0.500000 0.372424
O O17 0.432771 0.798817 0.500000
O O18 0.500000 0.804895 0.645770
#
# Coordination Sequence:
#
# PCOD8291672 Si02
#       7
#     8   8  16  16  16  16  16
#     4  11  22  37  59  88 125 159 195 250 299 350
#     4   9  17  32  55  81 112 151 185 219 276 342
#     4   9  19  36  57  81 110 145 187 238 295 343
#     4  10  22  36  54  83 116 149 194 236 290 354
#     4  11  22  35  59  85 112 149 193 244 288 348
#     4  10  21  38  58  79 114 155 190 229 283 352
#     4  10  21  36  57  87 119 152 191 237 290 350
#
# _framework density 18.666763
#
# number of rings (size 3 to 8) (size 9 to 14) (size 15 to 20)
#    0.000    2.000    0.833    3.750    2.333    5.000 
#    0.000    0.000    0.000    0.500    0.000    5.833 
#    0.000    0.000    0.000    0.000    0.000    0.000 
#
# Total GULP energy -594894.471604 kJ/mol
# GULP energy per Si atom -12393.634825 kJ/mol
# Density = 1.862428 g / cm^3
# Si number density = 18.666763 Si / 1000 Ang^3
#
#
#
# Elastic Constant Matrix: (Units=GPa)
#
#
# Indices 1 2 3 4 5 6 
#
# 1 144.8986 54.9465 48.8005 0.0000 0.0000 0.0000
# 2 54.9465 95.9009 36.7337 0.0000 0.0000 0.0000
# 3 48.8005 36.7337 70.5061 0.0000 0.0000 0.0000
# 4 0.0000 0.0000 0.0000 30.1879 0.0000 0.0000
# 5 0.0000 0.0000 0.0000 0.0000 31.4556 0.0000
# 6 0.0000 0.0000 0.0000 0.0000 0.0000 28.9732
#
#
#
# Elastic Compliance Matrix: (Units=1/GPa)
#
#
# Indices 1 2 3 4 5 6 
#
# 1 0.010023 -0.003855 -0.004929 0.000000 0.000000 0.000000
# 2 -0.003855 0.014510 -0.004891 0.000000 0.000000 0.000000
# 3 -0.004929 -0.004891 0.020143 0.000000 0.000000 0.000000
# 4 0.000000 0.000000 0.000000 0.033126 0.000000 0.000000
# 5 0.000000 0.000000 0.000000 0.000000 0.031791 0.000000
# 6 0.000000 0.000000 0.000000 0.000000 0.000000 0.034515
#
#
# Mechanical properties :
#
#
# Convention : Reuss Voigt Hill
#
# Bulk Modulus (GPa) = 57.71887 65.80744 61.76316
# Shear Modulus (GPa) = 28.21137 29.51168 28.86152
#
# Velocity S-wave (km/s) = 3.89178 3.98046 3.93637
# Velocity P-wave (km/s) = 7.15419 7.51370 7.33615
#
# Compressibility (1/GPa) = 0.01732536
#
# Stress axis : x y z
#
# Youngs Moduli (GPa) = 99.76811 68.91973 49.64415
#
# Poissons Ratio (x) = 0.26567 0.24471
# Poissons Ratio (y) = 0.38458 0.24283
# Poissons Ratio (z) = 0.49178 0.33712
#
# Static dielectric constant tensor:
#      x y z
#    x 4.295490 0.000000 0.000000 
#    y 0.000000 3.693730 0.000000 
#    z 0.000000 0.000000 3.295560 
# 
# 
# High freq. dielectric constant tensor:
#      x y z
#    x 1.728260 0.000000 0.000000 
#    y 0.000000 1.727480 0.000000 
#    z 0.000000 0.000000 1.711230 
# 
# From -- ./inp_files/39221.got.cif
#   From: 2010.06.25/outbox.cif.g09.slc.cpg/sg71_20_cif.got.tgz:39221.got - 2010.06.28 04:59:45.
