data_PCOD8291237
_publ_section_title
;
Structure prediction by ZEFSAII (Michael W. Deem and Ramdas Pophale) SiO2 
 PCOD8291237
Probable space group: I M M M
;
_chemical_formula_sum "Si O2"
_cell_formula_units_Z 96
_cell_length_a 18.726290
_cell_length_b 29.371294
_cell_length_c 9.439709
_cell_angle_alpha 90.000000
_cell_angle_beta 90.000000
_cell_angle_gamma 90.000000
_cell_volume 5191.985030
_symmetry_space_group_name_H-M "I M M M"
_symmetry_group_IT_number 71
_symmetry_cell_setting 'orthorhombic'
loop_
_space_group_symop_operation_xyz
x,y,z
-x,-y,z
x,-y,-z
-x,y,-z
-x,-y,-z
x,y,-z
-x,y,z
x,-y,z
1/2+x,1/2+y,1/2+z
1/2-x,1/2-y,1/2+z
1/2+x,1/2-y,1/2-z
1/2-x,1/2+y,1/2-z
1/2-x,1/2-y,1/2-z
1/2+x,1/2+y,1/2-z
1/2-x,1/2+y,1/2+z
1/2+x,1/2-y,1/2+z
loop_
_atom_site_type_symbol
_atom_site_label
_atom_site_fract_x
_atom_site_fract_y
_atom_site_fract_z
Si Si1 0.582826 0.551783 0.665539
Si Si2 0.918761 0.305490 0.662462
Si Si3 0.186238 0.773174 0.336768
Si Si4 0.420632 0.946973 0.156414
Si Si5 0.660098 0.880923 0.661059
Si Si6 0.173942 0.124647 0.661875
O O1 0.597782 0.558249 0.500000
O O2 0.500000 0.560314 0.700346
O O3 0.603837 0.500000 0.710737
O O4 0.628693 0.589052 0.747898
O O5 0.916597 0.321889 0.500000
O O6 0.886617 0.255121 0.677736
O O7 0.868550 0.338390 0.751426
O O8 0.000000 0.305084 0.719542
O O9 0.212377 0.776513 0.500000
O O10 0.250000 0.750000 0.250000
O O11 0.166417 0.823581 0.280278
O O12 0.500000 0.925637 0.166966
O O13 0.372397 0.927114 0.279247
O O14 0.424748 0.000000 0.182490
O O15 0.389149 0.936110 0.000000
O O16 0.636241 0.873749 0.500000
O O17 0.743741 0.887933 0.675910
O O18 0.147332 0.121393 0.500000
#
# Coordination Sequence:
#
# PCOD8291237 Si02
#       6
#    16  16  16  16  16  16
#     4   9  20  40  63  87 116 149 189 238 288 341
#     4  10  21  36  56  81 107 143 190 232 274 330
#     4  10  20  37  58  80 111 150 189 233 282 334
#     4   9  19  36  55  74 100 138 184 229 271 322
#     4  11  22  35  52  79 113 145 179 225 278 329
#     4  10  22  37  56  85 117 149 186 227 278 340
#
# _framework density 18.490037999999998
#
# number of rings (size 3 to 8) (size 9 to 14) (size 15 to 20)
#    0.000    2.167    1.667    2.000    0.000    7.000 
#    0.000    6.667    0.000    0.000    0.000    0.000 
#    0.000    0.000    0.000    0.000    0.000    0.000 
#
# Total GULP energy -595125.698277 kJ/mol
# GULP energy per Si atom -12398.452047 kJ/mol
# Density = 1.844795 g / cm^3
# Si number density = 18.490038 Si / 1000 Ang^3
#
#
#
# Elastic Constant Matrix: (Units=GPa)
#
#
# Indices 1 2 3 4 5 6 
#
# 1 81.3555 60.3953 53.4907 -0.0001 0.0001 -0.0002
# 2 60.3953 131.6956 64.2289 -0.0001 -0.0001 0.0000
# 3 53.4907 64.2289 89.0821 -0.0006 -0.0007 0.0002
# 4 -0.0001 -0.0001 -0.0006 32.6641 -0.0002 0.0000
# 5 0.0001 -0.0001 -0.0007 -0.0002 31.4004 -0.0001
# 6 -0.0002 0.0000 0.0002 0.0000 -0.0001 36.6243
#
#
#
# Elastic Compliance Matrix: (Units=1/GPa)
#
#
# Indices 1 2 3 4 5 6 
#
# 1 0.022906 -0.005856 -0.009532 0.000000 0.000000 0.000000
# 2 -0.005856 0.013208 -0.006007 0.000000 0.000000 0.000000
# 3 -0.009532 -0.006007 0.021281 0.000000 0.000000 0.000000
# 4 0.000000 0.000000 0.000000 0.030615 0.000000 0.000000
# 5 0.000000 0.000000 0.000000 0.000000 0.031847 0.000000
# 6 0.000000 0.000000 0.000000 0.000000 0.000000 0.027304
#
#
# Mechanical properties :
#
#
# Convention : Reuss Voigt Hill
#
# Bulk Modulus (GPa) = 68.47091 73.15143 70.81117
# Shear Modulus (GPa) = 25.66470 28.40566 27.03518
#
# Velocity S-wave (km/s) = 3.72967 3.92378 3.82795
# Velocity P-wave (km/s) = 7.46049 7.75735 7.61037
#
# Compressibility (1/GPa) = 0.01460474
#
# Stress axis : x y z
#
# Youngs Moduli (GPa) = 43.65608 75.70896 46.99088
#
# Poissons Ratio (x) = 0.44333 0.44794
# Poissons Ratio (y) = 0.25564 0.28228
# Poissons Ratio (z) = 0.41615 0.45480
#
# Static dielectric constant tensor:
#      x y z
#    x 3.450120 0.000000 0.000000 
#    y 0.000000 3.495410 0.000000 
#    z 0.000000 0.000000 3.456990 
# 
# 
# High freq. dielectric constant tensor:
#      x y z
#    x 1.714620 0.000000 0.000000 
#    y 0.000000 1.729520 0.000000 
#    z 0.000000 0.000000 1.712630 
# 
# From -- ./inp_files/10817.got.cif
#   From: 2010.06.25/outbox.cif.g09.slc.cpg/sg71_6_cif.got.tgz:10817.got - 2010.06.28 04:59:45.
