data_PCOD8291637
_publ_section_title
;
Structure prediction by ZEFSAII (Michael W. Deem and Ramdas Pophale) SiO2 
 PCOD8291637
Probable space group: I M M M
;
_chemical_formula_sum "Si O2"
_cell_formula_units_Z 96
_cell_length_a 23.908077
_cell_length_b 23.525787
_cell_length_c 9.291272
_cell_angle_alpha 90.000000
_cell_angle_beta 90.000000
_cell_angle_gamma 90.000000
_cell_volume 5225.934723
_symmetry_space_group_name_H-M "I M M M"
_symmetry_group_IT_number 71
_symmetry_cell_setting 'orthorhombic'
loop_
_space_group_symop_operation_xyz
x,y,z
-x,-y,z
x,-y,-z
-x,y,-z
-x,-y,-z
x,y,-z
-x,y,z
x,-y,z
1/2+x,1/2+y,1/2+z
1/2-x,1/2-y,1/2+z
1/2+x,1/2-y,1/2-z
1/2-x,1/2+y,1/2-z
1/2-x,1/2-y,1/2-z
1/2+x,1/2+y,1/2-z
1/2-x,1/2+y,1/2+z
1/2+x,1/2-y,1/2+z
loop_
_atom_site_type_symbol
_atom_site_label
_atom_site_fract_x
_atom_site_fract_y
_atom_site_fract_z
Si Si1 0.435435 0.153170 0.166956
Si Si2 0.064194 0.767187 0.831138
Si Si3 0.060719 0.933799 0.656503
Si Si4 0.636913 0.065583 0.663715
Si Si5 0.233515 0.935279 0.667784
Si Si6 0.642913 0.629192 0.668005
O O1 0.500000 0.138364 0.193839
O O2 0.418486 0.210559 0.248152
O O3 0.399665 0.101297 0.226423
O O4 0.421917 0.161678 0.000000
O O5 0.110525 0.813572 0.782473
O O6 0.000000 0.785525 0.792710
O O7 0.069148 0.755611 0.000000
O O8 0.083281 0.911550 0.500000
O O9 0.101371 0.921121 0.788218
O O10 0.000000 0.906060 0.686964
O O11 0.053729 0.000000 0.647262
O O12 0.624017 0.084281 0.500000
O O13 0.701706 0.075687 0.699440
O O14 0.621129 0.000000 0.685601
O O15 0.219951 0.929273 0.500000
O O16 0.200906 0.884946 0.751467
O O17 0.217247 0.000000 0.716924
O O18 0.655106 0.629167 0.500000
#
# Coordination Sequence:
#
# PCOD8291637 Si02
#       6
#    16  16  16  16  16  16
#     4  10  21  36  56  84 113 137 165 207 259 311
#     4   9  19  36  54  72 101 141 180 218 260 308
#     4   9  18  31  45  63  91 129 171 215 265 318
#     4   9  19  37  60  83 107 139 176 209 247 303
#     4   9  19  36  55  75 103 140 180 219 258 305
#     4  11  21  31  48  75 102 132 175 222 267 312
#
# _framework density 18.36992
#
# number of rings (size 3 to 8) (size 9 to 14) (size 15 to 20)
#    0.000    2.500    0.000    3.500    0.000    7.333 
#    0.000    6.667    0.000    0.000    0.000    0.000 
#    0.000    0.000    0.000    0.000    0.000    0.000 
#
# Total GULP energy -594880.457423 kJ/mol
# GULP energy per Si atom -12393.342863 kJ/mol
# Density = 1.832811 g / cm^3
# Si number density = 18.369920 Si / 1000 Ang^3
#
#
#
# Elastic Constant Matrix: (Units=GPa)
#
#
# Indices 1 2 3 4 5 6 
#
# 1 84.9834 57.9201 45.1354 0.0000 0.0000 0.0000
# 2 57.9201 92.9369 51.7921 0.0000 0.0000 0.0000
# 3 45.1354 51.7921 64.6997 0.0000 0.0000 0.0000
# 4 0.0000 0.0000 0.0000 31.2821 0.0000 0.0000
# 5 0.0000 0.0000 0.0000 0.0000 30.3157 0.0000
# 6 0.0000 0.0000 0.0000 0.0000 0.0000 32.2076
#
#
#
# Elastic Compliance Matrix: (Units=1/GPa)
#
#
# Indices 1 2 3 4 5 6 
#
# 1 0.022587 -0.009561 -0.008104 0.000000 0.000000 0.000000
# 2 -0.009561 0.023473 -0.012120 0.000000 0.000000 0.000000
# 3 -0.008104 -0.012120 0.030812 0.000000 0.000000 0.000000
# 4 0.000000 0.000000 0.000000 0.031967 0.000000 0.000000
# 5 0.000000 0.000000 0.000000 0.000000 0.032986 0.000000
# 6 0.000000 0.000000 0.000000 0.000000 0.000000 0.031049
#
#
# Mechanical properties :
#
#
# Convention : Reuss Voigt Hill
#
# Bulk Modulus (GPa) = 57.79667 61.36836 59.58251
# Shear Modulus (GPa) = 20.98990 24.61259 22.80125
#
# Velocity S-wave (km/s) = 3.38394 3.66434 3.52693
# Velocity P-wave (km/s) = 6.84098 7.16817 7.00649
#
# Compressibility (1/GPa) = 0.01730204
#
# Stress axis : x y z
#
# Youngs Moduli (GPa) = 44.27346 42.60258 32.45523
#
# Poissons Ratio (x) = 0.40730 0.26301
# Poissons Ratio (y) = 0.42328 0.39337
# Poissons Ratio (z) = 0.35878 0.51636
#
# Static dielectric constant tensor:
#      x y z
#    x 3.390990 0.000000 0.000000 
#    y 0.000000 3.254370 0.000000 
#    z 0.000000 0.000000 3.397320 
# 
# 
# High freq. dielectric constant tensor:
#      x y z
#    x 1.710630 0.000000 0.000000 
#    y 0.000000 1.699040 0.000000 
#    z 0.000000 0.000000 1.711110 
# 
# From -- ./inp_files/12845.got.cif
#   From: 2010.06.25/outbox.cif.g09.slc.cpg/sg71_7_cif.got.tgz:12845.got - 2010.06.28 04:59:45.
