data_PCOD8291287
_publ_section_title
;
Structure prediction by ZEFSAII (Michael W. Deem and Ramdas Pophale) SiO2 
 PCOD8291287
Probable space group: I M M M
;
_chemical_formula_sum "Si O2"
_cell_formula_units_Z 80
_cell_length_a 24.508483
_cell_length_b 17.958115
_cell_length_c 9.196894
_cell_angle_alpha 90.000000
_cell_angle_beta 90.000000
_cell_angle_gamma 90.000000
_cell_volume 4047.793605
_symmetry_space_group_name_H-M "I M M M"
_symmetry_group_IT_number 71
_symmetry_cell_setting 'orthorhombic'
loop_
_space_group_symop_operation_xyz
x,y,z
-x,-y,z
x,-y,-z
-x,y,-z
-x,-y,-z
x,y,-z
-x,y,z
x,-y,z
1/2+x,1/2+y,1/2+z
1/2-x,1/2-y,1/2+z
1/2+x,1/2-y,1/2-z
1/2-x,1/2+y,1/2-z
1/2-x,1/2-y,1/2-z
1/2+x,1/2+y,1/2-z
1/2-x,1/2+y,1/2+z
1/2+x,1/2-y,1/2+z
loop_
_atom_site_type_symbol
_atom_site_label
_atom_site_fract_x
_atom_site_fract_y
_atom_site_fract_z
Si Si1 0.216927 0.187119 0.665494
Si Si2 0.094575 0.173660 0.667335
Si Si3 0.000000 0.413784 0.158282
Si Si4 0.812893 0.584569 0.834597
Si Si5 0.905577 0.655953 0.666220
Si Si6 0.500000 0.587541 0.329227
O O1 0.209617 0.215910 0.500000
O O2 0.250000 0.250000 0.750000
O O3 0.156650 0.169615 0.728786
O O4 0.249985 0.109830 0.672311
O O5 0.091503 0.146648 0.500000
O O6 0.075496 0.258949 0.680897
O O7 0.054724 0.122598 0.761670
O O8 0.053339 0.394921 0.247176
O O9 0.000000 0.500000 0.130502
O O10 0.000000 0.373437 0.000000
O O11 0.817355 0.500000 0.777238
O O12 0.846085 0.641552 0.733407
O O13 0.834804 0.590123 0.000000
O O14 0.904926 0.630381 0.500000
O O15 0.500000 0.500000 0.295810
O O16 0.500000 0.604214 0.500000
#
# Coordination Sequence:
#
# PCOD8291287 Si02
#       6
#    16  16   8  16  16   8
#     4  10  20  37  61  89 121 158 202 250 298 358
#     4  10  22  40  64  92 120 157 202 247 300 365
#     4  11  24  39  54  76 110 153 198 239 288 352
#     4  10  21  36  56  85 120 158 198 241 295 359
#     4  11  22  37  58  86 117 149 195 247 294 352
#     4  11  26  45  64  92 126 159 204 261 316 368
#
# _framework density 19.763853000000001
#
# number of rings (size 3 to 8) (size 9 to 14) (size 15 to 20)
#    0.000    1.600    2.000    2.400    0.000   10.000 
#    0.000    2.000    0.000    0.000    0.000    0.000 
#    0.000    0.000    0.000    0.000    0.000    0.000 
#
# Total GULP energy -496039.222965 kJ/mol
# GULP energy per Si atom -12400.980574 kJ/mol
# Density = 1.971887 g / cm^3
# Si number density = 19.763853 Si / 1000 Ang^3
#
#
#
# Elastic Constant Matrix: (Units=GPa)
#
#
# Indices 1 2 3 4 5 6 
#
# 1 150.0446 48.3244 66.1551 0.0000 0.0000 0.0000
# 2 48.3244 93.5478 54.2256 0.0000 0.0000 0.0000
# 3 66.1551 54.2256 118.0541 0.0000 0.0000 0.0000
# 4 0.0000 0.0000 0.0000 26.8168 0.0000 0.0000
# 5 0.0000 0.0000 0.0000 0.0000 5.8205 0.0000
# 6 0.0000 0.0000 0.0000 0.0000 0.0000 32.4803
#
#
#
# Elastic Compliance Matrix: (Units=1/GPa)
#
#
# Indices 1 2 3 4 5 6 
#
# 1 0.009235 -0.002413 -0.004067 0.000000 0.000000 0.000000
# 2 -0.002413 0.015199 -0.005629 0.000000 0.000000 0.000000
# 3 -0.004067 -0.005629 0.013335 0.000000 0.000000 0.000000
# 4 0.000000 0.000000 0.000000 0.037290 0.000000 0.000000
# 5 0.000000 0.000000 0.000000 0.000000 0.171806 0.000000
# 6 0.000000 0.000000 0.000000 0.000000 0.000000 0.030788
#
#
# Mechanical properties :
#
#
# Convention : Reuss Voigt Hill
#
# Bulk Modulus (GPa) = 73.79313 77.67298 75.73305
# Shear Modulus (GPa) = 16.31916 25.88628 21.10272
#
# Velocity S-wave (km/s) = 2.87663 3.62301 3.27118
# Velocity P-wave (km/s) = 6.96073 7.54238 7.25739
#
# Compressibility (1/GPa) = 0.01355140
#
# Stress axis : x y z
#
# Youngs Moduli (GPa) = 108.28517 65.79237 74.99003
#
# Poissons Ratio (x) = 0.15878 0.30495
# Poissons Ratio (y) = 0.26133 0.42213
# Poissons Ratio (z) = 0.44035 0.37035
#
# Static dielectric constant tensor:
#      x y z
#    x 4.055990 0.000000 0.000000 
#    y 0.000000 3.490240 0.000000 
#    z 0.000000 0.000000 3.632800 
# 
# 
# High freq. dielectric constant tensor:
#      x y z
#    x 1.783570 0.000000 0.000000 
#    y 0.000000 1.764920 0.000000 
#    z 0.000000 0.000000 1.769640 
# 
# From -- ./inp_files/14567.got.cif
#   From: 2010.06.25/outbox.cif.g09.slc.cpg/sg71_8_cif.got.tgz:14567.got - 2010.06.28 04:59:45.
