data_PCOD8291517
_publ_section_title
;
Structure prediction by ZEFSAII (Michael W. Deem and Ramdas Pophale) SiO2 
 PCOD8291517
Probable space group: I M M M
;
_chemical_formula_sum "Si O2"
_cell_formula_units_Z 88
_cell_length_a 30.032657
_cell_length_b 8.672750
_cell_length_c 20.268763
_cell_angle_alpha 90.000000
_cell_angle_beta 90.000000
_cell_angle_gamma 90.000000
_cell_volume 5279.318070
_symmetry_space_group_name_H-M "I M M M"
_symmetry_group_IT_number 71
_symmetry_cell_setting 'orthorhombic'
loop_
_space_group_symop_operation_xyz
x,y,z
-x,-y,z
x,-y,-z
-x,y,-z
-x,-y,-z
x,y,-z
-x,y,z
x,-y,z
1/2+x,1/2+y,1/2+z
1/2-x,1/2-y,1/2+z
1/2+x,1/2-y,1/2-z
1/2-x,1/2+y,1/2-z
1/2-x,1/2-y,1/2-z
1/2+x,1/2+y,1/2-z
1/2-x,1/2+y,1/2+z
1/2+x,1/2-y,1/2+z
loop_
_atom_site_type_symbol
_atom_site_label
_atom_site_fract_x
_atom_site_fract_y
_atom_site_fract_z
Si Si1 0.772681 0.682942 0.570724
Si Si2 0.948894 0.318439 0.862723
Si Si3 0.370995 0.682921 0.701658
Si Si4 0.947095 0.825871 0.000000
Si Si5 0.206167 0.683220 0.713978
Si Si6 0.326924 0.681652 0.429017
O O1 0.794793 0.737014 0.500000
O O2 0.771204 0.500000 0.571501
O O3 0.796673 0.739989 0.637467
O O4 0.722748 0.749721 0.572388
O O5 0.943189 0.500000 0.862345
O O6 0.921840 0.244475 0.800515
O O7 0.930278 0.255292 0.932910
O O8 0.000000 0.269025 0.852402
O O9 0.369840 0.500000 0.709389
O O10 0.340436 0.756367 0.757793
O O11 0.353116 0.751028 0.632279
O O12 0.000000 0.821743 0.000000
O O13 0.928283 0.000000 0.000000
O O14 0.209145 0.500000 0.719765
O O15 0.250000 0.750000 0.750000
O O16 0.349799 0.722595 0.500000
O O17 0.324350 0.500000 0.419246
#
# Coordination Sequence:
#
# PCOD8291517 Si02
#       6
#    16  16  16   8  16  16
#     4   8  14  27  47  67  88 121 163 200 233 274
#     4  10  21  36  50  67  94 125 161 209 257 293
#     4  11  21  32  49  71  94 126 165 203 247 299
#     4   9  17  31  51  71  91 123 165 205 249 299
#     4  11  20  32  49  70  99 129 161 202 246 291
#     4   8  14  25  41  63  89 119 160 202 234 269
#
# _framework density 16.668818999999999
#
# number of rings (size 3 to 8) (size 9 to 14) (size 15 to 20)
#    0.000    2.455    1.818    3.000    1.273    2.182 
#    0.000    0.000    0.000    3.273    0.000    0.000 
#    0.000    0.727    0.000    8.364    0.000    2.364 
#
# Total GULP energy -545083.336535 kJ/mol
# GULP energy per Si atom -12388.257649 kJ/mol
# Density = 1.663088 g / cm^3
# Si number density = 16.668819 Si / 1000 Ang^3
#
#
#
# Elastic Constant Matrix: (Units=GPa)
#
#
# Indices 1 2 3 4 5 6 
#
# 1 65.8967 24.5691 50.5720 0.0000 0.0000 0.0000
# 2 24.5691 56.6485 32.3445 0.0000 0.0000 0.0000
# 3 50.5720 32.3445 127.5905 0.0000 0.0000 0.0000
# 4 0.0000 0.0000 0.0000 20.3933 0.0000 0.0000
# 5 0.0000 0.0000 0.0000 0.0000 32.8412 0.0000
# 6 0.0000 0.0000 0.0000 0.0000 0.0000 21.9117
#
#
#
# Elastic Compliance Matrix: (Units=1/GPa)
#
#
# Indices 1 2 3 4 5 6 
#
# 1 0.023254 -0.005639 -0.007788 0.000000 0.000000 0.000000
# 2 -0.005639 0.022008 -0.003344 0.000000 0.000000 0.000000
# 3 -0.007788 -0.003344 0.011772 0.000000 0.000000 0.000000
# 4 0.000000 0.000000 0.000000 0.049036 0.000000 0.000000
# 5 0.000000 0.000000 0.000000 0.000000 0.030450 0.000000
# 6 0.000000 0.000000 0.000000 0.000000 0.000000 0.045638
#
#
# Mechanical properties :
#
#
# Convention : Reuss Voigt Hill
#
# Bulk Modulus (GPa) = 42.56630 51.67853 47.12242
# Shear Modulus (GPa) = 22.36844 24.53925 23.45385
#
# Velocity S-wave (km/s) = 3.66722 3.84104 3.75513
# Velocity P-wave (km/s) = 6.59721 7.12333 6.86532
#
# Compressibility (1/GPa) = 0.02349276
#
# Stress axis : x y z
#
# Youngs Moduli (GPa) = 43.00273 45.43856 84.94778
#
# Poissons Ratio (x) = 0.25624 0.66154
# Poissons Ratio (y) = 0.24250 0.28405
# Poissons Ratio (z) = 0.33489 0.15194
#
# Static dielectric constant tensor:
#      x y z
#    x 3.119780 0.000000 0.000000 
#    y 0.000000 2.909130 0.000000 
#    z 0.000000 0.000000 3.474780 
# 
# 
# High freq. dielectric constant tensor:
#      x y z
#    x 1.623570 0.000000 0.000000 
#    y 0.000000 1.624330 0.000000 
#    z 0.000000 0.000000 1.627720 
# 
# From -- ./inp_files/50790.got.cif
#   From: 2010.06.25/outbox.cif.g09.slc.cpg/sg71_26_cif.got.tgz:50790.got - 2010.06.28 04:59:45.
