data_PCOD8291336
_publ_section_title
;
Structure prediction by ZEFSAII (Michael W. Deem and Ramdas Pophale) SiO2 
 PCOD8291336
Probable space group: I M M M
;
_chemical_formula_sum "Si O2"
_cell_formula_units_Z 88
_cell_length_a 27.996125
_cell_length_b 12.816489
_cell_length_c 12.519285
_cell_angle_alpha 90.000000
_cell_angle_beta 90.000000
_cell_angle_gamma 90.000000
_cell_volume 4492.070041
_symmetry_space_group_name_H-M "I M M M"
_symmetry_group_IT_number 71
_symmetry_cell_setting 'orthorhombic'
loop_
_space_group_symop_operation_xyz
x,y,z
-x,-y,z
x,-y,-z
-x,y,-z
-x,-y,-z
x,y,-z
-x,y,z
x,-y,z
1/2+x,1/2+y,1/2+z
1/2-x,1/2-y,1/2+z
1/2+x,1/2-y,1/2-z
1/2-x,1/2+y,1/2-z
1/2-x,1/2-y,1/2-z
1/2+x,1/2+y,1/2-z
1/2-x,1/2+y,1/2+z
1/2+x,1/2-y,1/2+z
loop_
_atom_site_type_symbol
_atom_site_label
_atom_site_fract_x
_atom_site_fract_y
_atom_site_fract_z
Si Si1 0.858197 0.378804 0.000000
Si Si2 0.703952 0.207047 0.882930
Si Si3 0.278081 0.881813 0.337079
Si Si4 0.056719 0.774828 0.000000
Si Si5 0.054164 0.500000 0.373292
Si Si6 0.444134 0.614766 0.283565
Si Si7 0.405963 0.219128 0.122192
O O1 0.827304 0.346828 0.105078
O O2 0.910297 0.327439 0.000000
O O3 0.869414 0.500000 0.000000
O O4 0.717880 0.125713 0.791097
O O5 0.734958 0.311472 0.877742
O O6 0.649714 0.240899 0.867152
O O7 0.710794 0.154171 0.000000
O O8 0.265780 0.000000 0.368867
O O9 0.072558 0.840889 0.102724
O O10 0.000000 0.745261 0.000000
O O11 0.055576 0.500000 0.500000
O O12 0.080907 0.604038 0.331050
O O13 0.000000 0.500000 0.329831
O O14 0.500000 0.601247 0.286669
O O15 0.420594 0.500000 0.265882
O O16 0.431952 0.691786 0.187875
O O17 0.423717 0.227335 0.000000
#
# Coordination Sequence:
#
# PCOD8291336 Si02
#       7
#     8  16  16   8   8  16  16
#     4  10  20  38  63  86 116 159 198 242 306 360
#     4  10  21  37  57  84 116 146 194 243 288 349
#     4  10  21  37  59  83 111 154 195 238 296 354
#     4  10  21  39  60  85 117 155 204 251 292 352
#     4   9  18  34  56  85 121 159 197 230 287 359
#     4  10  21  38  59  84 116 158 202 245 296 349
#     4  10  21  36  59  89 119 156 192 246 299 357
#
# _framework density 19.590078999999999
#
# number of rings (size 3 to 8) (size 9 to 14) (size 15 to 20)
#    0.000    2.091    0.909    1.909    1.273    3.818 
#    1.636    2.727    0.000    1.091    0.000    0.000 
#    0.000    0.000    0.000    0.000    0.000    0.000 
#
# Total GULP energy -545507.163952 kJ/mol
# GULP energy per Si atom -12397.890090 kJ/mol
# Density = 1.954549 g / cm^3
# Si number density = 19.590079 Si / 1000 Ang^3
#
#
#
# Elastic Constant Matrix: (Units=GPa)
#
#
# Indices 1 2 3 4 5 6 
#
# 1 73.3257 49.5873 21.7758 0.0000 0.0000 0.0000
# 2 49.5873 138.5560 48.8769 0.0000 0.0000 0.0000
# 3 21.7758 48.8769 109.2025 0.0000 0.0000 0.0000
# 4 0.0000 0.0000 0.0000 26.0742 0.0000 0.0000
# 5 0.0000 0.0000 0.0000 0.0000 22.7598 0.0000
# 6 0.0000 0.0000 0.0000 0.0000 0.0000 30.1699
#
#
#
# Elastic Compliance Matrix: (Units=1/GPa)
#
#
# Indices 1 2 3 4 5 6 
#
# 1 0.018057 -0.006166 -0.000841 0.000000 0.000000 0.000000
# 2 -0.006166 0.010676 -0.003549 0.000000 0.000000 0.000000
# 3 -0.000841 -0.003549 0.010913 0.000000 0.000000 0.000000
# 4 0.000000 0.000000 0.000000 0.038352 0.000000 0.000000
# 5 0.000000 0.000000 0.000000 0.000000 0.043937 0.000000
# 6 0.000000 0.000000 0.000000 0.000000 0.000000 0.033146
#
#
# Mechanical properties :
#
#
# Convention : Reuss Voigt Hill
#
# Bulk Modulus (GPa) = 53.95142 62.39601 58.17371
# Shear Modulus (GPa) = 27.41668 29.19040 28.30354
#
# Velocity S-wave (km/s) = 3.74507 3.86432 3.80516
# Velocity P-wave (km/s) = 6.80446 7.19934 7.00469
#
# Compressibility (1/GPa) = 0.01853519
#
# Stress axis : x y z
#
# Youngs Moduli (GPa) = 55.37960 93.66986 91.63065
#
# Poissons Ratio (x) = 0.57754 0.07707
# Poissons Ratio (y) = 0.34146 0.32518
# Poissons Ratio (z) = 0.04658 0.33241
#
# Static dielectric constant tensor:
#      x y z
#    x 3.533550 0.000000 0.000000 
#    y 0.000000 3.587190 0.000000 
#    z 0.000000 0.000000 3.833360 
# 
# 
# High freq. dielectric constant tensor:
#      x y z
#    x 1.757830 0.000000 0.000000 
#    y 0.000000 1.757130 0.000000 
#    z 0.000000 0.000000 1.772950 
# 
# From -- ./inp_files/29796.got.cif
#   From: 2010.06.25/outbox.cif.g09.slc.cpg/sg71_15_cif.got.tgz:29796.got - 2010.06.28 04:59:45.
