data_PCOD8291574
_publ_section_title
;
Structure prediction by ZEFSAII (Michael W. Deem and Ramdas Pophale) SiO2 
 PCOD8291574
Probable space group: I M M M
;
_chemical_formula_sum "Si O2"
_cell_formula_units_Z 104
_cell_length_a 21.069982
_cell_length_b 27.788693
_cell_length_c 9.005148
_cell_angle_alpha 90.000000
_cell_angle_beta 90.000000
_cell_angle_gamma 90.000000
_cell_volume 5272.579543
_symmetry_space_group_name_H-M "I M M M"
_symmetry_group_IT_number 71
_symmetry_cell_setting 'orthorhombic'
loop_
_space_group_symop_operation_xyz
x,y,z
-x,-y,z
x,-y,-z
-x,y,-z
-x,-y,-z
x,y,-z
-x,y,z
x,-y,z
1/2+x,1/2+y,1/2+z
1/2-x,1/2-y,1/2+z
1/2+x,1/2-y,1/2-z
1/2-x,1/2+y,1/2-z
1/2-x,1/2-y,1/2-z
1/2+x,1/2+y,1/2-z
1/2-x,1/2+y,1/2+z
1/2+x,1/2-y,1/2+z
loop_
_atom_site_type_symbol
_atom_site_label
_atom_site_fract_x
_atom_site_fract_y
_atom_site_fract_z
Si Si1 0.101417 0.368107 0.676019
Si Si2 0.647014 0.306079 0.830551
Si Si3 0.763588 0.630557 0.173655
Si Si4 0.818200 0.054981 0.167229
Si Si5 0.500000 0.054556 0.175899
Si Si6 0.070193 0.727519 0.830349
Si Si7 0.572403 0.402681 0.828927
O O1 0.102168 0.365002 0.500000
O O2 0.172637 0.367475 0.734201
O O3 0.066473 0.321557 0.738789
O O4 0.062933 0.416016 0.727695
O O5 0.718551 0.323368 0.790518
O O6 0.625814 0.262092 0.727911
O O7 0.598461 0.349304 0.802719
O O8 0.643706 0.288469 0.000000
O O9 0.727473 0.582392 0.220061
O O10 0.778943 0.628005 0.000000
O O11 0.890257 0.060007 0.224918
O O12 0.797215 0.000000 0.168690
O O13 0.812727 0.075929 0.000000
O O14 0.500000 0.000000 0.243603
O O15 0.500000 0.050737 0.000000
O O16 0.000000 0.751534 0.816683
O O17 0.086991 0.715311 0.000000
O O18 0.500000 0.404099 0.778502
O O19 0.581028 0.417965 0.000000
#
# Coordination Sequence:
#
# PCOD8291574 Si02
#       7
#    16  16  16  16   8  16  16
#     4  11  22  39  64  90 117 152 189 231 289 350
#     4   9  19  36  57  81 112 153 197 238 285 344
#     4  10  22  40  60  84 116 151 191 242 295 352
#     4  10  21  36  54  78 109 147 192 240 289 345
#     4   9  20  40  65  93 121 149 189 239 290 349
#     4  11  23  37  57  86 121 156 193 240 287 338
#     4   9  18  33  53  78 110 149 193 242 292 344
#
# _framework density 19.724691
#
# number of rings (size 3 to 8) (size 9 to 14) (size 15 to 20)
#    0.000    2.077    0.769    3.231    0.000    7.692 
#    0.000    3.077    0.000    3.231    0.000    0.000 
#    0.000    0.000    0.000    0.000    0.000    0.000 
#
# Total GULP energy -644753.186545 kJ/mol
# GULP energy per Si atom -12399.099741 kJ/mol
# Density = 1.967980 g / cm^3
# Si number density = 19.724691 Si / 1000 Ang^3
#
#
#
# Elastic Constant Matrix: (Units=GPa)
#
#
# Indices 1 2 3 4 5 6 
#
# 1 119.9070 47.0286 42.6296 0.0000 0.0000 0.0000
# 2 47.0286 102.7439 49.9259 0.0000 0.0000 0.0000
# 3 42.6296 49.9259 91.8708 0.0000 0.0000 0.0000
# 4 0.0000 0.0000 0.0000 28.0676 0.0000 0.0000
# 5 0.0000 0.0000 0.0000 0.0000 30.5834 0.0000
# 6 0.0000 0.0000 0.0000 0.0000 0.0000 20.8418
#
#
#
# Elastic Compliance Matrix: (Units=1/GPa)
#
#
# Indices 1 2 3 4 5 6 
#
# 1 0.010800 -0.003408 -0.003159 0.000000 0.000000 0.000000
# 2 -0.003408 0.014301 -0.006190 0.000000 0.000000 0.000000
# 3 -0.003159 -0.006190 0.015715 0.000000 0.000000 0.000000
# 4 0.000000 0.000000 0.000000 0.035628 0.000000 0.000000
# 5 0.000000 0.000000 0.000000 0.000000 0.032697 0.000000
# 6 0.000000 0.000000 0.000000 0.000000 0.000000 0.047980
#
#
# Mechanical properties :
#
#
# Convention : Reuss Voigt Hill
#
# Bulk Modulus (GPa) = 65.35802 65.96554 65.66178
# Shear Modulus (GPa) = 26.63309 27.56108 27.09709
#
# Velocity S-wave (km/s) = 3.67855 3.74209 3.71045
# Velocity P-wave (km/s) = 7.15887 7.22404 7.19152
#
# Compressibility (1/GPa) = 0.01530034
#
# Stress axis : x y z
#
# Youngs Moduli (GPa) = 92.59560 69.92554 63.63476
#
# Poissons Ratio (x) = 0.23832 0.20103
# Poissons Ratio (y) = 0.31558 0.39391
# Poissons Ratio (z) = 0.29252 0.43285
#
# Static dielectric constant tensor:
#      x y z
#    x 3.767120 0.000000 0.000000 
#    y 0.000000 3.547760 0.000000 
#    z 0.000000 0.000000 3.592450 
# 
# 
# High freq. dielectric constant tensor:
#      x y z
#    x 1.777200 0.000000 0.000000 
#    y 0.000000 1.758550 0.000000 
#    z 0.000000 0.000000 1.767600 
# 
# From -- ./inp_files/11156.got.cif
#   From: 2010.06.25/outbox.cif.g09.slc.cpg/sg71_6_cif.got.tgz:11156.got - 2010.06.28 04:59:45.
