data_PCOD8291041
_publ_section_title
;
Structure prediction by ZEFSAII (Michael W. Deem and Ramdas Pophale) SiO2 
 PCOD8291041
Probable space group: I M M M
;
_chemical_formula_sum "Si O2"
_cell_formula_units_Z 64
_cell_length_a 19.897835
_cell_length_b 14.060669
_cell_length_c 10.754695
_cell_angle_alpha 90.000000
_cell_angle_beta 90.000000
_cell_angle_gamma 90.000000
_cell_volume 3008.914924
_symmetry_space_group_name_H-M "I M M M"
_symmetry_group_IT_number 71
_symmetry_cell_setting 'orthorhombic'
loop_
_space_group_symop_operation_xyz
x,y,z
-x,-y,z
x,-y,-z
-x,y,-z
-x,-y,-z
x,y,-z
-x,y,z
x,-y,z
1/2+x,1/2+y,1/2+z
1/2-x,1/2-y,1/2+z
1/2+x,1/2-y,1/2-z
1/2-x,1/2+y,1/2-z
1/2-x,1/2-y,1/2-z
1/2+x,1/2+y,1/2-z
1/2-x,1/2+y,1/2+z
1/2+x,1/2-y,1/2+z
loop_
_atom_site_type_symbol
_atom_site_label
_atom_site_fract_x
_atom_site_fract_y
_atom_site_fract_z
Si Si1 0.190895 0.825440 0.242376
Si Si2 0.078999 0.315621 0.768935
Si Si3 0.256019 0.000000 0.137311
Si Si4 0.075147 0.298379 0.500000
Si Si5 0.139343 0.500000 0.138132
Si Si6 0.859938 0.107927 0.500000
O O1 0.250000 0.750000 0.250000
O O2 0.122748 0.775655 0.189636
O O3 0.209290 0.907058 0.144744
O O4 0.184520 0.873174 0.378045
O O5 0.106664 0.339157 0.627791
O O6 0.092128 0.407175 0.853073
O O7 0.000000 0.288654 0.771425
O O8 0.306885 0.000000 0.252851
O O9 0.290676 0.000000 0.000000
O O10 0.078553 0.182944 0.500000
O O11 0.000000 0.334083 0.500000
O O12 0.172600 0.500000 0.000000
O O13 0.887660 0.000000 0.500000
#
# Coordination Sequence:
#
# PCOD8291041 Si02
#       6
#    16  16   8   8   8   8
#     4  11  23  40  64  93 130 173 220 270 329 394
#     4  10  22  41  66  97 136 175 220 274 330 394
#     4  12  28  43  66 101 130 169 222 276 330 392
#     4   8  18  36  60  94 129 170 212 258 325 387
#     4  12  27  42  67 100 133 174 221 273 337 401
#     4  10  20  35  61  89 123 166 213 270 325 378
#
# _framework density 21.270126999999999
#
# number of rings (size 3 to 8) (size 9 to 14) (size 15 to 20)
#    0.000    1.500    3.750    0.375    5.250    2.250 
#    0.000    2.500    0.000    0.750    0.000    0.000 
#    0.000    0.000    0.000    0.000    0.000    0.000 
#
# Total GULP energy -396588.001320 kJ/mol
# GULP energy per Si atom -12393.375041 kJ/mol
# Density = 2.122172 g / cm^3
# Si number density = 21.270127 Si / 1000 Ang^3
#
#
#
# Elastic Constant Matrix: (Units=GPa)
#
#
# Indices 1 2 3 4 5 6 
#
# 1 104.5848 37.0887 30.0496 0.0000 0.0000 0.0000
# 2 37.0887 128.8020 39.3799 0.0000 0.0000 0.0000
# 3 30.0496 39.3799 122.6683 0.0000 0.0000 0.0000
# 4 0.0000 0.0000 0.0000 28.6428 0.0000 0.0000
# 5 0.0000 0.0000 0.0000 0.0000 25.2091 0.0000
# 6 0.0000 0.0000 0.0000 0.0000 0.0000 28.1705
#
#
#
# Elastic Compliance Matrix: (Units=1/GPa)
#
#
# Indices 1 2 3 4 5 6 
#
# 1 0.011020 -0.002603 -0.001864 0.000000 0.000000 0.000000
# 2 -0.002603 0.009224 -0.002323 0.000000 0.000000 0.000000
# 3 -0.001864 -0.002323 0.009355 0.000000 0.000000 0.000000
# 4 0.000000 0.000000 0.000000 0.034913 0.000000 0.000000
# 5 0.000000 0.000000 0.000000 0.000000 0.039668 0.000000
# 6 0.000000 0.000000 0.000000 0.000000 0.000000 0.035498
#
#
# Mechanical properties :
#
#
# Convention : Reuss Voigt Hill
#
# Bulk Modulus (GPa) = 62.43198 63.23238 62.83218
# Shear Modulus (GPa) = 31.52615 33.04026 32.28321
#
# Velocity S-wave (km/s) = 3.85409 3.94555 3.90009
# Velocity P-wave (km/s) = 7.01577 7.10980 7.06294
#
# Compressibility (1/GPa) = 0.01601743
#
# Stress axis : x y z
#
# Youngs Moduli (GPa) = 90.74068 108.41431 106.90039
#
# Poissons Ratio (x) = 0.28226 0.19925
# Poissons Ratio (y) = 0.23624 0.24837
# Poissons Ratio (z) = 0.16913 0.25188
#
# Static dielectric constant tensor:
#      x y z
#    x 3.643260 0.000000 0.000000 
#    y 0.000000 4.007390 0.000000 
#    z 0.000000 0.000000 4.050680 
# 
# 
# High freq. dielectric constant tensor:
#      x y z
#    x 1.817860 0.000000 0.000000 
#    y 0.000000 1.838130 0.000000 
#    z 0.000000 0.000000 1.835020 
# 
# From -- ./inp_files/23247.got.cif
#   From: 2010.06.25/outbox.cif.g09.slc.cpg/sg71_12_cif.got.tgz:23247.got - 2010.06.28 04:59:45.
