data_PCOD8291673
_publ_section_title
;
Structure prediction by ZEFSAII (Michael W. Deem and Ramdas Pophale) SiO2 
 PCOD8291673
Probable space group: I M M M
;
_chemical_formula_sum "Si O2"
_cell_formula_units_Z 88
_cell_length_a 22.842281
_cell_length_b 22.477339
_cell_length_c 8.563942
_cell_angle_alpha 90.000000
_cell_angle_beta 90.000000
_cell_angle_gamma 90.000000
_cell_volume 4397.016373
_symmetry_space_group_name_H-M "I M M M"
_symmetry_group_IT_number 71
_symmetry_cell_setting 'orthorhombic'
loop_
_space_group_symop_operation_xyz
x,y,z
-x,-y,z
x,-y,-z
-x,y,-z
-x,-y,-z
x,y,-z
-x,y,z
x,-y,z
1/2+x,1/2+y,1/2+z
1/2-x,1/2-y,1/2+z
1/2+x,1/2-y,1/2-z
1/2-x,1/2+y,1/2-z
1/2-x,1/2-y,1/2-z
1/2+x,1/2+y,1/2-z
1/2-x,1/2+y,1/2+z
1/2+x,1/2-y,1/2+z
loop_
_atom_site_type_symbol
_atom_site_label
_atom_site_fract_x
_atom_site_fract_y
_atom_site_fract_z
Si Si1 0.567252 0.000000 0.315812
Si Si2 0.564483 0.435616 0.315193
Si Si3 0.375623 0.882027 0.820581
Si Si4 0.565763 0.762176 0.820292
Si Si5 0.236305 0.315208 0.182043
Si Si6 0.354217 0.666267 0.316215
O O1 0.603479 0.058247 0.264747
O O2 0.500000 0.000000 0.248603
O O3 0.564280 0.000000 0.500000
O O4 0.560846 0.428999 0.500000
O O5 0.500000 0.429304 0.242552
O O6 0.591132 0.500000 0.270111
O O7 0.603135 0.383415 0.246151
O O8 0.426412 0.832907 0.800212
O O9 0.315885 0.853131 0.756536
O O10 0.365055 0.898518 0.000000
O O11 0.500000 0.745802 0.763119
O O12 0.615679 0.729971 0.717936
O O13 0.574815 0.743684 0.000000
O O14 0.250000 0.250000 0.250000
O O15 0.296054 0.349231 0.220335
O O16 0.223713 0.308959 0.000000
O O17 0.341492 0.661633 0.500000
#
# Coordination Sequence:
#
# PCOD8291673 Si02
#       6
#     8  16  16  16  16  16
#     4  11  25  45  69  99 135 173 214 265 324 385
#     4   8  15  30  52  80 115 152 191 237 287 343
#     4  11  23  42  67  93 123 166 214 260 315 378
#     4  10  21  36  57  87 122 157 196 248 310 372
#     4  12  24  41  63  88 121 160 202 253 311 374
#     4  11  21  34  57  87 118 156 202 251 304 368
#
# _framework density 20.013572
#
# number of rings (size 3 to 8) (size 9 to 14) (size 15 to 20)
#    0.000    1.545    1.818    4.636    0.000    3.273 
#    1.636    0.000    0.000    1.636    0.000    6.364 
#    0.000    0.000    0.000    0.000    0.000    0.000 
#
# Total GULP energy -545371.510471 kJ/mol
# GULP energy per Si atom -12394.807056 kJ/mol
# Density = 1.996802 g / cm^3
# Si number density = 20.013572 Si / 1000 Ang^3
#
#
#
# Elastic Constant Matrix: (Units=GPa)
#
#
# Indices 1 2 3 4 5 6 
#
# 1 125.1817 51.3575 28.3546 0.0000 0.0000 0.0000
# 2 51.3575 127.1175 26.6227 0.0000 0.0000 0.0000
# 3 28.3546 26.6227 75.3819 0.0000 0.0000 0.0000
# 4 0.0000 0.0000 0.0000 25.4063 0.0000 0.0000
# 5 0.0000 0.0000 0.0000 0.0000 30.6874 0.0000
# 6 0.0000 0.0000 0.0000 0.0000 0.0000 28.5428
#
#
#
# Elastic Compliance Matrix: (Units=1/GPa)
#
#
# Indices 1 2 3 4 5 6 
#
# 1 0.010000 -0.003512 -0.002521 0.000000 0.000000 0.000000
# 2 -0.003512 0.009729 -0.002115 0.000000 0.000000 0.000000
# 3 -0.002521 -0.002115 0.014961 0.000000 0.000000 0.000000
# 4 0.000000 0.000000 0.000000 0.039360 0.000000 0.000000
# 5 0.000000 0.000000 0.000000 0.000000 0.032587 0.000000
# 6 0.000000 0.000000 0.000000 0.000000 0.000000 0.035035
#
#
# Mechanical properties :
#
#
# Convention : Reuss Voigt Hill
#
# Bulk Modulus (GPa) = 54.36669 60.03898 57.20283
# Shear Modulus (GPa) = 30.46927 31.68373 31.07650
#
# Velocity S-wave (km/s) = 3.90607 3.98315 3.94480
# Velocity P-wave (km/s) = 6.89688 7.15669 7.02799
#
# Compressibility (1/GPa) = 0.01839362
#
# Stress axis : x y z
#
# Youngs Moduli (GPa) = 99.99572 102.78902 66.84053
#
# Poissons Ratio (x) = 0.36103 0.16852
# Poissons Ratio (y) = 0.35122 0.14135
# Poissons Ratio (z) = 0.25211 0.21737
#
# Static dielectric constant tensor:
#      x y z
#    x 4.338570 0.000000 0.000000 
#    y 0.000000 3.770470 0.000000 
#    z 0.000000 0.000000 3.524390 
# 
# 
# High freq. dielectric constant tensor:
#      x y z
#    x 1.792810 0.000000 0.000000 
#    y 0.000000 1.782430 0.000000 
#    z 0.000000 0.000000 1.767200 
# 
# From -- ./inp_files/12499.got.cif
#   From: 2010.06.25/outbox.cif.g09.slc.cpg/sg71_7_cif.got.tgz:12499.got - 2010.06.28 04:59:45.
