data_PCOD8291520
_publ_section_title
;
Structure prediction by ZEFSAII (Michael W. Deem and Ramdas Pophale) SiO2 
 PCOD8291520
Probable space group: I M M M
;
_chemical_formula_sum "Si O2"
_cell_formula_units_Z 64
_cell_length_a 42.033229
_cell_length_b 9.008878
_cell_length_c 9.342888
_cell_angle_alpha 90.000000
_cell_angle_beta 90.000000
_cell_angle_gamma 90.000000
_cell_volume 3537.892252
_symmetry_space_group_name_H-M "I M M M"
_symmetry_group_IT_number 71
_symmetry_cell_setting 'orthorhombic'
loop_
_space_group_symop_operation_xyz
x,y,z
-x,-y,z
x,-y,-z
-x,y,-z
-x,-y,-z
x,y,-z
-x,y,z
x,-y,z
1/2+x,1/2+y,1/2+z
1/2-x,1/2-y,1/2+z
1/2+x,1/2-y,1/2-z
1/2-x,1/2+y,1/2-z
1/2-x,1/2-y,1/2-z
1/2+x,1/2+y,1/2-z
1/2-x,1/2+y,1/2+z
1/2+x,1/2-y,1/2+z
loop_
_atom_site_type_symbol
_atom_site_label
_atom_site_fract_x
_atom_site_fract_y
_atom_site_fract_z
Si Si1 0.966365 0.323934 0.840040
Si Si2 0.102317 0.670037 0.829193
Si Si3 0.657310 0.673073 0.835444
Si Si4 0.221826 0.327856 0.667199
O O1 0.965141 0.500000 0.848295
O O2 0.932653 0.275074 0.769961
O O3 0.000000 0.274495 0.762013
O O4 0.967584 0.258819 0.000000
O O5 0.109118 0.500000 0.783247
O O6 0.127832 0.777573 0.759841
O O7 0.103473 0.684835 0.000000
O O8 0.663475 0.500000 0.813136
O O9 0.688557 0.758568 0.781653
O O10 0.649876 0.712157 0.000000
O O11 0.227127 0.299572 0.500000
O O12 0.221460 0.500000 0.706768
O O13 0.250000 0.250000 0.750000
#
# Coordination Sequence:
#
# PCOD8291520 Si02
#       4
#    16  16  16  16
#     4   7  10  19  38  65  95 123 152 192 242 290
#     4   9  17  29  48  75 101 125 159 203 248 292
#     4  10  21  36  52  70  96 132 169 201 237 283
#     4  10  21  37  57  79 101 127 160 197 239 286
#
# _framework density 18.089867000000002
#
# number of rings (size 3 to 8) (size 9 to 14) (size 15 to 20)
#    0.000    3.000    0.000    3.750    0.000    4.500 
#    0.000    0.000    0.000    1.500    0.000    8.750 
#    0.000    0.000    0.000    0.000    0.000    0.000 
#
# Total GULP energy -396421.017486 kJ/mol
# GULP energy per Si atom -12388.156796 kJ/mol
# Density = 1.804869 g / cm^3
# Si number density = 18.089867 Si / 1000 Ang^3
#
#
#
# Elastic Constant Matrix: (Units=GPa)
#
#
# Indices 1 2 3 4 5 6 
#
# 1 194.3396 63.9420 47.6710 0.0000 0.0000 0.0000
# 2 63.9420 75.4350 27.1580 0.0000 0.0000 0.0000
# 3 47.6710 27.1580 31.0173 0.0000 0.0000 0.0000
# 4 0.0000 0.0000 0.0000 24.4312 0.0000 0.0000
# 5 0.0000 0.0000 0.0000 0.0000 20.9929 0.0000
# 6 0.0000 0.0000 0.0000 0.0000 0.0000 25.1131
#
#
#
# Elastic Compliance Matrix: (Units=1/GPa)
#
#
# Indices 1 2 3 4 5 6 
#
# 1 0.008966 -0.003854 -0.010406 0.000000 0.000000 0.000000
# 2 -0.003854 0.021015 -0.012477 0.000000 0.000000 0.000000
# 3 -0.010406 -0.012477 0.059158 0.000000 0.000000 0.000000
# 4 0.000000 0.000000 0.000000 0.040931 0.000000 0.000000
# 5 0.000000 0.000000 0.000000 0.000000 0.047635 0.000000
# 6 0.000000 0.000000 0.000000 0.000000 0.000000 0.039820
#
#
# Mechanical properties :
#
#
# Convention : Reuss Voigt Hill
#
# Bulk Modulus (GPa) = 28.03862 64.25932 46.14897
# Shear Modulus (GPa) = 17.67481 24.90884 21.29182
#
# Velocity S-wave (km/s) = 3.12918 3.71475 3.43447
# Velocity P-wave (km/s) = 5.34687 7.34837 6.42602
#
# Compressibility (1/GPa) = 0.03566510
#
# Stress axis : x y z
#
# Youngs Moduli (GPa) = 111.53027 47.58474 16.90384
#
# Poissons Ratio (x) = 0.18338 0.17590
# Poissons Ratio (y) = 0.42981 0.21092
# Poissons Ratio (z) = 1.16059 0.59373
#
# Static dielectric constant tensor:
#      x y z
#    x 3.944690 0.000000 0.000000 
#    y 0.000000 3.141170 0.000000 
#    z 0.000000 0.000000 2.983070 
# 
# 
# High freq. dielectric constant tensor:
#      x y z
#    x 1.731340 0.000000 0.000000 
#    y 0.000000 1.678190 0.000000 
#    z 0.000000 0.000000 1.656950 
# 
# From -- ./inp_files/29448.got.cif
#   From: 2010.06.25/outbox.cif.g09.slc.cpg/sg71_15_cif.got.tgz:29448.got - 2010.06.28 04:59:45.
