data_PCOD8291723
_publ_section_title
;
Structure prediction by ZEFSAII (Michael W. Deem and Ramdas Pophale) SiO2 
 PCOD8291723
Probable space group: I M M M
;
_chemical_formula_sum "Si O2"
_cell_formula_units_Z 112
_cell_length_a 13.739184
_cell_length_b 27.403030
_cell_length_c 14.589250
_cell_angle_alpha 90.000000
_cell_angle_beta 90.000000
_cell_angle_gamma 90.000000
_cell_volume 5492.783637
_symmetry_space_group_name_H-M "I M M M"
_symmetry_group_IT_number 71
_symmetry_cell_setting 'orthorhombic'
loop_
_space_group_symop_operation_xyz
x,y,z
-x,-y,z
x,-y,-z
-x,y,-z
-x,-y,-z
x,y,-z
-x,y,z
x,-y,z
1/2+x,1/2+y,1/2+z
1/2-x,1/2-y,1/2+z
1/2+x,1/2-y,1/2-z
1/2-x,1/2+y,1/2-z
1/2-x,1/2-y,1/2-z
1/2+x,1/2+y,1/2-z
1/2-x,1/2+y,1/2+z
1/2+x,1/2-y,1/2+z
loop_
_atom_site_type_symbol
_atom_site_label
_atom_site_fract_x
_atom_site_fract_y
_atom_site_fract_z
Si Si1 0.817373 0.554024 0.218541
Si Si2 0.803893 0.808210 0.394759
Si Si3 0.386319 0.898717 0.895035
Si Si4 0.607565 0.858683 0.395247
Si Si5 0.278450 0.801491 0.104168
Si Si6 0.607174 0.658678 0.716886
Si Si7 0.106756 0.946699 0.752991
O O1 0.859342 0.500000 0.200592
O O2 0.826240 0.566167 0.327306
O O3 0.879944 0.592172 0.162342
O O4 0.702841 0.556036 0.188501
O O5 0.829082 0.822133 0.500000
O O6 0.689975 0.818852 0.371794
O O7 0.824562 0.751237 0.375666
O O8 0.871129 0.839565 0.326530
O O9 0.500000 0.904968 0.875733
O O10 0.358847 0.842402 0.873929
O O11 0.360418 0.912580 0.000000
O O12 0.615744 0.874853 0.500000
O O13 0.500000 0.836865 0.373664
O O14 0.183103 0.807848 0.165111
O O15 0.242464 0.804483 0.000000
O O16 0.500000 0.679668 0.697527
O O17 0.613143 0.601822 0.683221
O O18 0.000000 0.943995 0.701939
O O19 0.111942 0.000000 0.804821
#
# Coordination Sequence:
#
# PCOD8291723 Si02
#       7
#    16  16  16  16  16  16  16
#     4  11  21  36  60  83 109 145 182 225 276 327
#     4  10  21  38  58  81 112 147 186 229 273 324
#     4  10  21  37  56  80 112 147 183 225 274 327
#     4  10  21  37  56  80 112 147 183 225 274 327
#     4  10  21  38  58  81 112 147 186 229 273 324
#     4  11  21  35  58  85 113 144 181 227 276 326
#     4   9  18  34  57  83 111 144 181 224 275 328
#
# _framework density 20.390388999999999
#
# number of rings (size 3 to 8) (size 9 to 14) (size 15 to 20)
#    0.000    1.857    2.857    0.857    0.000    3.429 
#    0.000    4.286    0.000    1.714    0.000    8.000 
#    0.000    0.000    0.000    0.000    0.000    0.000 
#
# Total GULP energy -693801.151334 kJ/mol
# GULP energy per Si atom -12389.306274 kJ/mol
# Density = 2.034398 g / cm^3
# Si number density = 20.390389 Si / 1000 Ang^3
#
#
#
# Elastic Constant Matrix: (Units=GPa)
#
#
# Indices 1 2 3 4 5 6 
#
# 1 82.7990 -3.6245 11.6720 -0.0001 0.0000 0.0000
# 2 -3.6245 80.5971 12.4309 -0.0002 0.0001 0.0001
# 3 11.6720 12.4309 49.3440 0.0003 -0.0002 0.0000
# 4 -0.0001 -0.0002 0.0003 17.3441 0.0000 0.0000
# 5 0.0000 0.0001 -0.0002 0.0000 18.0118 0.0000
# 6 0.0000 0.0001 0.0000 0.0000 0.0000 23.3846
#
#
#
# Elastic Compliance Matrix: (Units=1/GPa)
#
#
# Indices 1 2 3 4 5 6 
#
# 1 0.012582 0.001066 -0.003245 0.000000 0.000000 0.000000
# 2 0.001066 0.012999 -0.003527 0.000000 0.000000 0.000000
# 3 -0.003245 -0.003527 0.021922 0.000000 0.000000 0.000000
# 4 0.000000 0.000000 0.000000 0.057656 0.000000 0.000000
# 5 0.000000 0.000000 0.000000 0.000000 0.055519 0.000000
# 6 0.000000 0.000000 0.000000 0.000000 0.000000 0.042763
#
#
# Mechanical properties :
#
#
# Convention : Reuss Voigt Hill
#
# Bulk Modulus (GPa) = 27.70714 28.18857 27.94786
# Shear Modulus (GPa) = 22.03776 24.56554 23.30165
#
# Velocity S-wave (km/s) = 3.29111 3.47473 3.38416
# Velocity P-wave (km/s) = 5.29714 5.47292 5.38574
#
# Compressibility (1/GPa) = 0.03609177
#
# Stress axis : x y z
#
# Youngs Moduli (GPa) = 79.48173 76.92702 45.61642
#
# Poissons Ratio (x) = -0.08202 0.14801
# Poissons Ratio (y) = -0.08475 0.16089
# Poissons Ratio (z) = 0.25789 0.27133
#
# Static dielectric constant tensor:
#      x y z
#    x 3.871040 0.000000 0.000000 
#    y 0.000000 3.825410 0.000000 
#    z 0.000000 0.000000 3.545570 
# 
# 
# High freq. dielectric constant tensor:
#      x y z
#    x 1.806600 0.000000 0.000000 
#    y 0.000000 1.803740 0.000000 
#    z 0.000000 0.000000 1.760800 
# 
# From -- ./inp_files/35130.got.cif
#   From: 2010.06.25/outbox.cif.g09.slc.cpg/sg71_18_cif.got.tgz:35130.got - 2010.06.28 04:59:45.
