data_PCOD8291724
_publ_section_title
;
Structure prediction by ZEFSAII (Michael W. Deem and Ramdas Pophale) SiO2 
 PCOD8291724
Probable space group: I M M M
;
_chemical_formula_sum "Si O2"
_cell_formula_units_Z 88
_cell_length_a 14.551810
_cell_length_b 9.034301
_cell_length_c 34.180296
_cell_angle_alpha 90.000000
_cell_angle_beta 90.000000
_cell_angle_gamma 90.000000
_cell_volume 4493.527367
_symmetry_space_group_name_H-M "I M M M"
_symmetry_group_IT_number 71
_symmetry_cell_setting 'orthorhombic'
loop_
_space_group_symop_operation_xyz
x,y,z
-x,-y,z
x,-y,-z
-x,y,-z
-x,-y,-z
x,y,-z
-x,y,z
x,-y,z
1/2+x,1/2+y,1/2+z
1/2-x,1/2-y,1/2+z
1/2+x,1/2-y,1/2-z
1/2-x,1/2+y,1/2-z
1/2-x,1/2-y,1/2-z
1/2+x,1/2+y,1/2-z
1/2-x,1/2+y,1/2+z
1/2+x,1/2-y,1/2+z
loop_
_atom_site_type_symbol
_atom_site_label
_atom_site_fract_x
_atom_site_fract_y
_atom_site_fract_z
Si Si1 0.500000 0.835299 0.546059
Si Si2 0.184584 0.826135 0.954823
Si Si3 0.609189 0.333853 0.250666
Si Si4 0.109024 0.330805 0.326082
Si Si5 0.104480 0.329231 0.172019
Si Si6 0.233774 0.827018 0.614009
O O1 0.500000 0.853318 0.500000
O O2 0.589125 0.745586 0.559240
O O3 0.500000 0.000000 0.565621
O O4 0.263691 0.753141 0.928219
O O5 0.178959 0.000000 0.947445
O O6 0.206680 0.790143 0.000000
O O7 0.500000 0.332556 0.249792
O O8 0.648082 0.500000 0.247279
O O9 0.647161 0.239402 0.214210
O O10 0.642790 0.262820 0.291185
O O11 0.142134 0.500000 0.327999
O O12 0.149085 0.240150 0.362330
O O13 0.000000 0.318172 0.328573
O O14 0.108608 0.500000 0.184355
O O15 0.169925 0.294310 0.135656
O O16 0.000000 0.283760 0.160597
O O17 0.216441 0.000000 0.607859
#
# Coordination Sequence:
#
# PCOD8291724 Si02
#       6
#     8  16  16  16  16  16
#     4   9  17  31  53  79 107 143 185 223 261 311
#     4  10  21  37  56  80 112 148 185 225 271 328
#     4   9  17  31  53  79 106 140 183 228 272 320
#     4  10  21  38  59  80 106 142 183 230 282 334
#     4   9  19  35  52  75 111 150 184 219 265 323
#     4  11  23  36  56  84 111 144 184 230 280 327
#
# _framework density 19.583724
#
# number of rings (size 3 to 8) (size 9 to 14) (size 15 to 20)
#    0.000    2.273    0.000    2.455    1.273    7.636 
#    0.000    0.000    0.000    0.545    0.000    3.818 
#    0.000    0.000    0.000    0.000    0.000    0.000 
#
# Total GULP energy -545705.352530 kJ/mol
# GULP energy per Si atom -12402.394376 kJ/mol
# Density = 1.953915 g / cm^3
# Si number density = 19.583724 Si / 1000 Ang^3
#
#
#
# Elastic Constant Matrix: (Units=GPa)
#
#
# Indices 1 2 3 4 5 6 
#
# 1 27.6923 28.4140 18.6551 0.0000 0.0000 0.0000
# 2 28.4140 142.2635 66.8639 0.0000 0.0000 0.0000
# 3 18.6551 66.8639 103.5532 0.0000 0.0000 0.0000
# 4 0.0000 0.0000 0.0000 36.1981 0.0000 0.0000
# 5 0.0000 0.0000 0.0000 0.0000 25.9999 0.0000
# 6 0.0000 0.0000 0.0000 0.0000 0.0000 28.3969
#
#
#
# Elastic Compliance Matrix: (Units=1/GPa)
#
#
# Indices 1 2 3 4 5 6 
#
# 1 0.046237 -0.007638 -0.003398 0.000000 0.000000 0.000000
# 2 -0.007638 0.011354 -0.005955 0.000000 0.000000 0.000000
# 3 -0.003398 -0.005955 0.014114 0.000000 0.000000 0.000000
# 4 0.000000 0.000000 0.000000 0.027626 0.000000 0.000000
# 5 0.000000 0.000000 0.000000 0.000000 0.038462 0.000000
# 6 0.000000 0.000000 0.000000 0.000000 0.000000 0.035215
#
#
# Mechanical properties :
#
#
# Convention : Reuss Voigt Hill
#
# Bulk Modulus (GPa) = 26.50885 55.70832 41.10858
# Shear Modulus (GPa) = 22.77252 28.75737 25.76494
#
# Velocity S-wave (km/s) = 3.41373 3.83617 3.63110
# Velocity P-wave (km/s) = 5.39477 6.93755 6.21422
#
# Compressibility (1/GPa) = 0.03772325
#
# Stress axis : x y z
#
# Youngs Moduli (GPa) = 21.62775 88.07832 70.85111
#
# Poissons Ratio (x) = 0.67272 0.24074
# Poissons Ratio (y) = 0.16519 0.42192
# Poissons Ratio (z) = 0.07349 0.52451
#
# Static dielectric constant tensor:
#      x y z
#    x 3.317770 0.000000 0.000000 
#    y 0.000000 3.753440 0.000000 
#    z 0.000000 0.000000 3.522920 
# 
# 
# High freq. dielectric constant tensor:
#      x y z
#    x 1.736790 0.000000 0.000000 
#    y 0.000000 1.776380 0.000000 
#    z 0.000000 0.000000 1.759480 
# 
# From -- ./inp_files/70386.got.cif
#   From: 2010.06.25/outbox.cif.g09.slc.cpg/sg71_36_cif.got.tgz:70386.got - 2010.06.28 04:59:45.
