data_PCOD8291184
_publ_section_title
;
Structure prediction by ZEFSAII (Michael W. Deem and Ramdas Pophale) SiO2 
 PCOD8291184
Probable space group: I M M M
;
_chemical_formula_sum "Si O2"
_cell_formula_units_Z 72
_cell_length_a 19.704818
_cell_length_b 9.886714
_cell_length_c 18.680679
_cell_angle_alpha 90.000000
_cell_angle_beta 90.000000
_cell_angle_gamma 90.000000
_cell_volume 3639.293292
_symmetry_space_group_name_H-M "I M M M"
_symmetry_group_IT_number 71
_symmetry_cell_setting 'orthorhombic'
loop_
_space_group_symop_operation_xyz
x,y,z
-x,-y,z
x,-y,-z
-x,y,-z
-x,-y,-z
x,y,-z
-x,y,z
x,-y,z
1/2+x,1/2+y,1/2+z
1/2-x,1/2-y,1/2+z
1/2+x,1/2-y,1/2-z
1/2-x,1/2+y,1/2-z
1/2-x,1/2-y,1/2-z
1/2+x,1/2+y,1/2-z
1/2-x,1/2+y,1/2+z
1/2+x,1/2-y,1/2+z
loop_
_atom_site_type_symbol
_atom_site_label
_atom_site_fract_x
_atom_site_fract_y
_atom_site_fract_z
Si Si1 0.621145 0.153467 0.081316
Si Si2 0.419870 0.245636 0.672535
Si Si3 0.189558 0.342893 0.722809
Si Si4 0.580069 0.000000 0.422342
Si Si5 0.580367 0.500000 0.418692
Si Si6 0.000000 0.847869 0.415937
O O1 0.683993 0.167518 0.136395
O O2 0.565487 0.261958 0.106873
O O3 0.591334 0.000000 0.086186
O O4 0.646079 0.182704 0.000000
O O5 0.500000 0.247715 0.690318
O O6 0.380065 0.220817 0.746021
O O7 0.395884 0.129591 0.619651
O O8 0.394840 0.375635 0.629063
O O9 0.199806 0.500000 0.745876
O O10 0.250000 0.250000 0.750000
O O11 0.500000 0.000000 0.430992
O O12 0.615095 0.000000 0.500000
O O13 0.500000 0.500000 0.426689
O O14 0.611156 0.500000 0.500000
O O15 0.000000 0.865043 0.500000
O O16 0.000000 0.000000 0.380859
#
# Coordination Sequence:
#
# PCOD8291184 Si02
#       6
#    16  16  16   8   8   8
#     4   9  19  38  62  86 115 158 207 246 291 355
#     4  10  20  36  59  90 119 153 200 247 298 353
#     4  11  25  42  62  85 123 161 197 249 307 363
#     4   9  16  30  55  84 117 151 189 242 294 342
#     4   9  18  34  57  88 125 159 197 246 296 350
#     4   9  17  31  55  93 127 149 186 247 306 347
#
# _framework density 19.78406
#
# number of rings (size 3 to 8) (size 9 to 14) (size 15 to 20)
#    0.000    2.333    1.111    1.000    3.111    4.889 
#    0.000    2.222    0.000    0.000    0.000    0.000 
#    0.000    0.000    0.000    0.000    0.000    0.000 
#
# Total GULP energy -446106.962675 kJ/mol
# GULP energy per Si atom -12391.860074 kJ/mol
# Density = 1.973903 g / cm^3
# Si number density = 19.784060 Si / 1000 Ang^3
#
#
#
# Elastic Constant Matrix: (Units=GPa)
#
#
# Indices 1 2 3 4 5 6 
#
# 1 75.0762 48.3711 47.8987 0.0000 0.0000 0.0000
# 2 48.3711 164.4010 57.0897 0.0000 0.0000 0.0000
# 3 47.8987 57.0897 125.3422 0.0000 0.0000 0.0000
# 4 0.0000 0.0000 0.0000 35.5614 0.0000 0.0000
# 5 0.0000 0.0000 0.0000 0.0000 22.6026 0.0000
# 6 0.0000 0.0000 0.0000 0.0000 0.0000 35.1298
#
#
#
# Elastic Compliance Matrix: (Units=1/GPa)
#
#
# Indices 1 2 3 4 5 6 
#
# 1 0.019351 -0.003713 -0.005704 0.000000 0.000000 0.000000
# 2 -0.003713 0.007938 -0.002197 0.000000 0.000000 0.000000
# 3 -0.005704 -0.002197 0.011158 0.000000 0.000000 0.000000
# 4 0.000000 0.000000 0.000000 0.028120 0.000000 0.000000
# 5 0.000000 0.000000 0.000000 0.000000 0.044243 0.000000
# 6 0.000000 0.000000 0.000000 0.000000 0.000000 0.028466
#
#
# Mechanical properties :
#
#
# Convention : Reuss Voigt Hill
#
# Bulk Modulus (GPa) = 65.70006 74.61538 70.15772
# Shear Modulus (GPa) = 29.83715 32.75608 31.29661
#
# Velocity S-wave (km/s) = 3.88769 4.07342 3.98164
# Velocity P-wave (km/s) = 7.30978 7.74083 7.52839
#
# Compressibility (1/GPa) = 0.01522069
#
# Stress axis : x y z
#
# Youngs Moduli (GPa) = 51.67691 125.97749 89.61930
#
# Poissons Ratio (x) = 0.46774 0.51117
# Poissons Ratio (y) = 0.19187 0.19686
# Poissons Ratio (z) = 0.29475 0.27673
#
# Static dielectric constant tensor:
#      x y z
#    x 3.109420 0.000000 0.000000 
#    y 0.000000 4.007900 0.000000 
#    z 0.000000 0.000000 3.758370 
# 
# 
# High freq. dielectric constant tensor:
#      x y z
#    x 1.721040 0.000000 0.000000 
#    y 0.000000 1.786860 0.000000 
#    z 0.000000 0.000000 1.780710 
# 
# From -- ./inp_files/54705.got.cif
#   From: 2010.06.25/outbox.cif.g09.slc.cpg/sg71_28_cif.got.tgz:54705.got - 2010.06.28 04:59:45.
