data_PCOD8291105
_publ_section_title
;
Structure prediction by ZEFSAII (Michael W. Deem and Ramdas Pophale) SiO2 
 PCOD8291105
Probable space group: I M M M
;
_chemical_formula_sum "Si O2"
_cell_formula_units_Z 88
_cell_length_a 26.297136
_cell_length_b 10.762927
_cell_length_c 16.709163
_cell_angle_alpha 90.000000
_cell_angle_beta 90.000000
_cell_angle_gamma 90.000000
_cell_volume 4729.263832
_symmetry_space_group_name_H-M "I M M M"
_symmetry_group_IT_number 71
_symmetry_cell_setting 'orthorhombic'
loop_
_space_group_symop_operation_xyz
x,y,z
-x,-y,z
x,-y,-z
-x,y,-z
-x,-y,-z
x,y,-z
-x,y,z
x,-y,z
1/2+x,1/2+y,1/2+z
1/2-x,1/2-y,1/2+z
1/2+x,1/2-y,1/2-z
1/2-x,1/2+y,1/2-z
1/2-x,1/2-y,1/2-z
1/2+x,1/2+y,1/2-z
1/2-x,1/2+y,1/2+z
1/2+x,1/2-y,1/2+z
loop_
_atom_site_type_symbol
_atom_site_label
_atom_site_fract_x
_atom_site_fract_y
_atom_site_fract_z
Si Si1 0.059838 0.500000 0.095115
Si Si2 0.182303 0.361806 0.665953
Si Si3 0.368574 0.202666 0.327690
Si Si4 0.879275 0.140057 0.408723
Si Si5 0.445595 0.640817 0.234603
Si Si6 0.212627 0.139466 0.909635
O O1 0.089921 0.616763 0.130058
O O2 0.000000 0.500000 0.121412
O O3 0.063581 0.500000 0.000000
O O4 0.167373 0.500000 0.632132
O O5 0.165449 0.361903 0.758871
O O6 0.159097 0.248825 0.615817
O O7 0.242776 0.343837 0.655784
O O8 0.400519 0.311546 0.288731
O O9 0.331398 0.260771 0.393485
O O10 0.894706 0.158214 0.500000
O O11 0.930818 0.155489 0.358429
O O12 0.856039 0.000000 0.394278
O O13 0.500000 0.710041 0.247303
O O14 0.452682 0.500000 0.259439
O O15 0.190279 0.000000 0.902237
O O16 0.233155 0.162646 0.000000
#
# Coordination Sequence:
#
# PCOD8291105 Si02
#       6
#     8  16  16  16  16  16
#     4  11  24  40  58  80 111 151 193 237 289 340
#     4  10  20  36  57  83 112 151 191 229 281 343
#     4  11  20  37  56  81 107 145 186 237 281 335
#     4   9  18  32  51  78 113 149 186 232 284 336
#     4   9  18  32  53  79 104 137 183 233 284 337
#     4  10  21  36  56  82 113 145 180 227 284 346
#
# _framework density 18.607548000000001
#
# number of rings (size 3 to 8) (size 9 to 14) (size 15 to 20)
#    0.000    2.091    0.909    2.727    0.000    2.182 
#    1.636    1.818    0.000    0.000    0.000   10.182 
#    0.000    0.000    0.000    0.000    0.000    0.000 
#
# Total GULP energy -545183.013986 kJ/mol
# GULP energy per Si atom -12390.523045 kJ/mol
# Density = 1.856520 g / cm^3
# Si number density = 18.607548 Si / 1000 Ang^3
#
#
#
# Elastic Constant Matrix: (Units=GPa)
#
#
# Indices 1 2 3 4 5 6 
#
# 1 119.7835 53.7540 47.7416 0.0000 0.0000 0.0000
# 2 53.7540 95.1891 31.8551 0.0000 0.0000 0.0000
# 3 47.7416 31.8551 94.1654 0.0000 0.0000 0.0000
# 4 0.0000 0.0000 0.0000 24.0766 0.0000 0.0000
# 5 0.0000 0.0000 0.0000 0.0000 26.5903 0.0000
# 6 0.0000 0.0000 0.0000 0.0000 0.0000 25.0721
#
#
#
# Elastic Compliance Matrix: (Units=1/GPa)
#
#
# Indices 1 2 3 4 5 6 
#
# 1 0.012686 -0.005651 -0.004520 0.000000 0.000000 0.000000
# 2 -0.005651 0.014364 -0.001994 0.000000 0.000000 0.000000
# 3 -0.004520 -0.001994 0.013586 0.000000 0.000000 0.000000
# 4 0.000000 0.000000 0.000000 0.041534 0.000000 0.000000
# 5 0.000000 0.000000 0.000000 0.000000 0.037608 0.000000
# 6 0.000000 0.000000 0.000000 0.000000 0.000000 0.039885
#
#
# Mechanical properties :
#
#
# Convention : Reuss Voigt Hill
#
# Bulk Modulus (GPa) = 61.32996 63.98217 62.65606
# Shear Modulus (GPa) = 26.39523 26.86695 26.63109
#
# Velocity S-wave (km/s) = 3.77041 3.80396 3.78722
# Velocity P-wave (km/s) = 7.21013 7.33165 7.27115
#
# Compressibility (1/GPa) = 0.01630525
#
# Stress axis : x y z
#
# Youngs Moduli (GPa) = 78.82735 69.61845 73.60625
#
# Poissons Ratio (x) = 0.39343 0.33270
# Poissons Ratio (y) = 0.44547 0.14677
# Poissons Ratio (z) = 0.35630 0.13882
#
# Static dielectric constant tensor:
#      x y z
#    x 3.499620 0.000000 0.000000 
#    y 0.000000 3.598710 0.000000 
#    z 0.000000 0.000000 3.389170 
# 
# 
# High freq. dielectric constant tensor:
#      x y z
#    x 1.716780 0.000000 0.000000 
#    y 0.000000 1.728580 0.000000 
#    z 0.000000 0.000000 1.720000 
# 
# From -- ./inp_files/21993.got.cif
#   From: 2010.06.25/outbox.cif.g09.slc.cpg/sg71_11_cif.got.tgz:21993.got - 2010.06.28 04:59:45.
