data_PCOD8291246
_publ_section_title
;
Structure prediction by ZEFSAII (Michael W. Deem and Ramdas Pophale) SiO2 
 PCOD8291246
Probable space group: I M M M
;
_chemical_formula_sum "Si O2"
_cell_formula_units_Z 80
_cell_length_a 11.963725
_cell_length_b 24.218052
_cell_length_c 14.402614
_cell_angle_alpha 90.000000
_cell_angle_beta 90.000000
_cell_angle_gamma 90.000000
_cell_volume 4172.986219
_symmetry_space_group_name_H-M "I M M M"
_symmetry_group_IT_number 71
_symmetry_cell_setting 'orthorhombic'
loop_
_space_group_symop_operation_xyz
x,y,z
-x,-y,z
x,-y,-z
-x,y,-z
-x,-y,-z
x,y,-z
-x,y,z
x,-y,z
1/2+x,1/2+y,1/2+z
1/2-x,1/2-y,1/2+z
1/2+x,1/2-y,1/2-z
1/2-x,1/2+y,1/2-z
1/2-x,1/2-y,1/2-z
1/2+x,1/2+y,1/2-z
1/2-x,1/2+y,1/2+z
1/2+x,1/2-y,1/2+z
loop_
_atom_site_type_symbol
_atom_site_label
_atom_site_fract_x
_atom_site_fract_y
_atom_site_fract_z
Si Si1 0.129836 0.763517 0.897974
Si Si2 0.801589 0.359286 0.891403
Si Si3 0.131482 0.858847 0.766020
Si Si4 0.759062 0.434383 0.394797
Si Si5 0.500000 0.939763 0.890523
Si Si6 0.000000 0.562559 0.109860
O O1 0.146898 0.700347 0.869603
O O2 0.178972 0.804453 0.819581
O O3 0.000000 0.776366 0.905289
O O4 0.184586 0.774881 0.000000
O O5 0.687230 0.365057 0.834643
O O6 0.889415 0.405418 0.855591
O O7 0.774195 0.367062 0.000000
O O8 0.162760 0.911338 0.828785
O O9 0.000000 0.856912 0.748910
O O10 0.731859 0.416076 0.500000
O O11 0.760868 0.500000 0.387054
O O12 0.882413 0.410134 0.363338
O O13 0.500000 0.000000 0.842716
O O14 0.500000 0.947964 0.000000
O O15 0.000000 0.500000 0.148854
O O16 0.000000 0.563070 0.000000
#
# Coordination Sequence:
#
# PCOD8291246 Si02
#       6
#    16  16  16  16   8   8
#     4   9  17  34  59  82 106 137 178 228 280 325
#     4  10  20  37  59  79 106 143 176 224 287 331
#     4  11  23  34  50  80 112 148 191 222 252 316
#     4   9  18  34  55  78 108 144 181 227 279 324
#     4   7  12  27  51  75 100 135 175 216 271 326
#     4   9  18  35  61  89 106 125 176 241 293 337
#
# _framework density 19.170925
#
# number of rings (size 3 to 8) (size 9 to 14) (size 15 to 20)
#    0.000    2.600    1.000    2.400    0.000    3.600 
#    0.000    2.000    2.200    0.000    0.000    4.200 
#    0.000    0.000    0.000    0.000    0.000    0.000 
#
# Total GULP energy -495679.587174 kJ/mol
# GULP energy per Si atom -12391.989679 kJ/mol
# Density = 1.912729 g / cm^3
# Si number density = 19.170925 Si / 1000 Ang^3
#
#
#
# Elastic Constant Matrix: (Units=GPa)
#
#
# Indices 1 2 3 4 5 6 
#
# 1 97.0524 46.6079 51.6566 0.0000 0.0000 0.0000
# 2 46.6079 89.2514 41.8876 0.0000 0.0000 0.0000
# 3 51.6566 41.8876 96.1718 -0.0001 0.0000 0.0000
# 4 0.0000 0.0000 -0.0001 -0.9704 0.0000 0.0000
# 5 0.0000 0.0000 0.0000 0.0000 31.9642 0.0000
# 6 0.0000 0.0000 0.0000 0.0000 0.0000 19.8904
#
#
#
# Elastic Compliance Matrix: (Units=1/GPa)
#
#
# Indices 1 2 3 4 5 6 
#
# 1 0.016361 -0.005555 -0.006369 0.000000 0.000000 0.000000
# 2 -0.005555 0.015969 -0.003972 0.000001 0.000000 0.000000
# 3 -0.006369 -0.003972 0.015549 -0.000001 0.000000 0.000000
# 4 0.000000 0.000001 -0.000001 -1.030483 0.000000 0.000001
# 5 0.000000 0.000000 0.000000 0.000000 0.031285 0.000000
# 6 0.000000 0.000000 0.000000 0.000001 0.000000 0.050276
#
#
# Mechanical properties :
#
#
# Convention : Reuss Voigt Hill
#
# Bulk Modulus (GPa) = 62.15596 62.53108 62.34352
# Shear Modulus (GPa) = -5.78777 19.66507 6.93865
#
# Velocity S-wave (km/s) = -1.73942 3.20625 1.90453
# Velocity P-wave (km/s) = 5.33463 6.81140 6.11774
#
# Compressibility (1/GPa) = 0.01608856
#
# Stress axis : x y z
#
# Youngs Moduli (GPa) = 61.12063 62.62075 64.31454
#
# Poissons Ratio (x) = 0.34786 0.40959
# Poissons Ratio (y) = 0.33953 0.25543
# Poissons Ratio (z) = 0.38925 0.24870
#
# Static dielectric constant tensor:
#      x y z
#    x 3.492320 0.000000 0.000000 
#    y 0.000000 3.470370 0.000000 
#    z 0.000000 0.000000 3.468850 
# 
# 
# High freq. dielectric constant tensor:
#      x y z
#    x 1.728860 0.000000 0.000000 
#    y 0.000000 1.734480 0.000000 
#    z 0.000000 0.000000 1.744900 
# 
# From -- ./inp_files/32690.got.cif
#   From: 2010.06.25/outbox.cif.g09.slc.cpg/sg71_17_cif.got.tgz:32690.got - 2010.06.28 04:59:45.
