data_PCOD8291763
_publ_section_title
;
Structure prediction by ZEFSAII (Michael W. Deem and Ramdas Pophale) SiO2 
 PCOD8291763
Probable space group: I M M M
;
_chemical_formula_sum "Si O2"
_cell_formula_units_Z 72
_cell_length_a 7.942229
_cell_length_b 28.632294
_cell_length_c 14.559311
_cell_angle_alpha 90.000000
_cell_angle_beta 90.000000
_cell_angle_gamma 90.000000
_cell_volume 3310.848991
_symmetry_space_group_name_H-M "I M M M"
_symmetry_group_IT_number 71
_symmetry_cell_setting 'orthorhombic'
loop_
_space_group_symop_operation_xyz
x,y,z
-x,-y,z
x,-y,-z
-x,y,-z
-x,-y,-z
x,y,-z
-x,y,z
x,-y,z
1/2+x,1/2+y,1/2+z
1/2-x,1/2-y,1/2+z
1/2+x,1/2-y,1/2-z
1/2-x,1/2+y,1/2-z
1/2-x,1/2-y,1/2-z
1/2+x,1/2+y,1/2-z
1/2-x,1/2+y,1/2+z
1/2+x,1/2-y,1/2+z
loop_
_atom_site_type_symbol
_atom_site_label
_atom_site_fract_x
_atom_site_fract_y
_atom_site_fract_z
Si Si1 0.312935 0.801693 0.267025
Si Si2 0.689270 0.353887 0.604346
Si Si3 0.312010 0.949994 0.108926
Si Si4 0.000000 0.553426 0.108927
Si Si5 0.690844 0.381206 0.106664
O O1 0.500000 0.800437 0.307505
O O2 0.250000 0.750000 0.250000
O O3 0.314016 0.824217 0.166075
O O4 0.202528 0.832508 0.337221
O O5 0.753501 0.349840 0.500000
O O6 0.500000 0.335001 0.614832
O O7 0.692311 0.407683 0.639591
O O8 0.500000 0.941624 0.148807
O O9 0.241726 0.000000 0.145374
O O10 0.321029 0.951741 0.000000
O O11 0.169601 0.581038 0.141972
O O12 0.000000 0.500000 0.148266
O O13 0.000000 0.550775 0.000000
O O14 0.500000 0.400882 0.120273
O O15 0.724144 0.369575 0.000000
#
# Coordination Sequence:
#
# PCOD8291763 Si02
#       5
#    16  16  16   8  16
#     4  12  25  42  64  88 119 160 211 267 319 382
#     4  10  21  37  57  84 119 156 198 250 304 362
#     4   8  14  27  49  76 107 146 189 231 281 341
#     4   9  18  36  64  98 133 171 215 263 325 394
#     4  10  21  40  66  96 132 170 211 264 324 390
#
# _framework density 21.746687000000001
#
# number of rings (size 3 to 8) (size 9 to 14) (size 15 to 20)
#    0.000    2.111    1.111    3.333    0.000    3.111 
#    0.000    5.556    0.000    2.667    0.000    0.000 
#    0.000    0.000    0.000    0.000    0.000    0.000 
#
# Total GULP energy -446144.227798 kJ/mol
# GULP energy per Si atom -12392.895217 kJ/mol
# Density = 2.169719 g / cm^3
# Si number density = 21.746687 Si / 1000 Ang^3
#
#
#
# Elastic Constant Matrix: (Units=GPa)
#
#
# Indices 1 2 3 4 5 6 
#
# 1 120.8457 47.5936 23.4365 0.0000 0.0000 0.0000
# 2 47.5936 160.4718 45.0662 0.0001 0.0000 0.0000
# 3 23.4365 45.0662 57.6095 -0.0004 -0.0001 0.0000
# 4 0.0000 0.0001 -0.0004 28.5439 0.0000 0.0000
# 5 0.0000 0.0000 -0.0001 0.0000 24.9821 0.0000
# 6 0.0000 0.0000 0.0000 0.0000 0.0000 34.9845
#
#
#
# Elastic Compliance Matrix: (Units=1/GPa)
#
#
# Indices 1 2 3 4 5 6 
#
# 1 0.009572 -0.002237 -0.002144 0.000000 0.000000 0.000000
# 2 -0.002237 0.008509 -0.005746 0.000000 0.000000 0.000000
# 3 -0.002144 -0.005746 0.022726 0.000000 0.000000 0.000000
# 4 0.000000 0.000000 0.000000 0.035034 0.000000 0.000000
# 5 0.000000 0.000000 0.000000 0.000000 0.040029 0.000000
# 6 0.000000 0.000000 0.000000 0.000000 0.000000 0.028584
#
#
# Mechanical properties :
#
#
# Convention : Reuss Voigt Hill
#
# Bulk Modulus (GPa) = 48.65741 63.45773 56.05757
# Shear Modulus (GPa) = 29.14474 32.55748 30.85111
#
# Velocity S-wave (km/s) = 3.66483 3.87347 3.77059
# Velocity P-wave (km/s) = 6.35069 7.01775 6.69253
#
# Compressibility (1/GPa) = 0.02055186
#
# Stress axis : x y z
#
# Youngs Moduli (GPa) = 104.47413 117.52642 44.00309
#
# Poissons Ratio (x) = 0.26287 0.09435
# Poissons Ratio (y) = 0.23367 0.25285
# Poissons Ratio (z) = 0.22402 0.67533
#
# Static dielectric constant tensor:
#      x y z
#    x 3.949700 0.000000 0.000000 
#    y 0.000000 4.084380 0.000000 
#    z 0.000000 0.000000 3.765520 
# 
# 
# High freq. dielectric constant tensor:
#      x y z
#    x 1.851460 0.000000 0.000000 
#    y 0.000000 1.851250 0.000000 
#    z 0.000000 0.000000 1.840310 
# 
# From -- ./inp_files/31445.got.cif
#   From: 2010.06.25/outbox.cif.g09.slc.cpg/sg71_16_cif.got.tgz:31445.got - 2010.06.28 04:59:45.
