data_PCOD8291188
_publ_section_title
;
Structure prediction by ZEFSAII (Michael W. Deem and Ramdas Pophale) SiO2 
 PCOD8291188
Probable space group: I M M M
;
_chemical_formula_sum "Si O2"
_cell_formula_units_Z 64
_cell_length_a 32.854570
_cell_length_b 10.707446
_cell_length_c 9.146787
_cell_angle_alpha 90.000000
_cell_angle_beta 90.000000
_cell_angle_gamma 90.000000
_cell_volume 3217.734791
_symmetry_space_group_name_H-M "I M M M"
_symmetry_group_IT_number 71
_symmetry_cell_setting 'orthorhombic'
loop_
_space_group_symop_operation_xyz
x,y,z
-x,-y,z
x,-y,-z
-x,y,-z
-x,-y,-z
x,y,-z
-x,y,z
x,-y,z
1/2+x,1/2+y,1/2+z
1/2-x,1/2-y,1/2+z
1/2+x,1/2-y,1/2-z
1/2-x,1/2+y,1/2-z
1/2-x,1/2-y,1/2-z
1/2+x,1/2+y,1/2-z
1/2-x,1/2+y,1/2+z
1/2+x,1/2-y,1/2+z
loop_
_atom_site_type_symbol
_atom_site_label
_atom_site_fract_x
_atom_site_fract_y
_atom_site_fract_z
Si Si1 0.195006 0.500000 0.332361
Si Si2 0.045234 0.500000 0.327694
Si Si3 0.574717 0.260725 0.170252
Si Si4 0.832968 0.230007 0.327152
Si Si5 0.209066 0.000000 0.830043
Si Si6 0.000000 0.858860 0.843624
O O1 0.181577 0.500000 0.500000
O O2 0.177023 0.629950 0.265764
O O3 0.242904 0.500000 0.309637
O O4 0.040131 0.500000 0.500000
O O5 0.070887 0.381690 0.276127
O O6 0.000000 0.500000 0.256529
O O7 0.620212 0.305252 0.205973
O O8 0.540988 0.337926 0.253870
O O9 0.565027 0.274998 0.000000
O O10 0.823338 0.222951 0.500000
O O11 0.806736 0.126260 0.244825
O O12 0.196464 0.000000 0.000000
O O13 0.000000 0.000000 0.886194
O O14 0.000000 0.784659 0.000000
#
# Coordination Sequence:
#
# PCOD8291188 Si02
#       6
#     8   8  16  16   8   8
#     4   9  19  39  64  90 119 152 194 244 297 350
#     4   9  15  29  55  83 106 130 172 231 286 329
#     4  10  20  36  60  86 110 142 187 238 285 333
#     4  10  21  38  62  90 118 151 197 249 293 342
#     4  11  23  38  59  87 123 162 193 233 294 359
#     4  11  25  40  53  74 112 159 192 227 278 335
#
# _framework density 19.889768
#
# number of rings (size 3 to 8) (size 9 to 14) (size 15 to 20)
#    0.000    2.000    1.250    2.250    1.750    5.000 
#    0.000    3.125    0.000    3.000    0.000    0.000 
#    0.000    0.000    0.000    0.000    0.000    0.000 
#
# Total GULP energy -396596.435913 kJ/mol
# GULP energy per Si atom -12393.638622 kJ/mol
# Density = 1.984450 g / cm^3
# Si number density = 19.889768 Si / 1000 Ang^3
#
#
#
# Elastic Constant Matrix: (Units=GPa)
#
#
# Indices 1 2 3 4 5 6 
#
# 1 96.5299 40.8986 48.4428 0.0000 0.0000 0.0000
# 2 40.8986 124.4262 42.7824 0.0000 0.0000 0.0000
# 3 48.4428 42.7824 70.0656 0.0000 0.0000 0.0000
# 4 0.0000 0.0000 0.0000 20.5916 0.0000 0.0000
# 5 0.0000 0.0000 0.0000 0.0000 40.6050 0.0000
# 6 0.0000 0.0000 0.0000 0.0000 0.0000 51.2667
#
#
#
# Elastic Compliance Matrix: (Units=1/GPa)
#
#
# Indices 1 2 3 4 5 6 
#
# 1 0.016199 -0.001865 -0.010061 0.000000 0.000000 0.000000
# 2 -0.001865 0.010387 -0.005053 0.000000 0.000000 0.000000
# 3 -0.010061 -0.005053 0.024314 0.000000 0.000000 0.000000
# 4 0.000000 0.000000 0.000000 0.048563 0.000000 0.000000
# 5 0.000000 0.000000 0.000000 0.000000 0.024627 0.000000
# 6 0.000000 0.000000 0.000000 0.000000 0.000000 0.019506
#
#
# Mechanical properties :
#
#
# Convention : Reuss Voigt Hill
#
# Bulk Modulus (GPa) = 59.02554 61.69658 60.36106
# Shear Modulus (GPa) = 27.29236 33.08587 30.18911
#
# Velocity S-wave (km/s) = 3.70831 4.08298 3.90015
# Velocity P-wave (km/s) = 6.93370 7.30166 7.12006
#
# Compressibility (1/GPa) = 0.01694182
#
# Stress axis : x y z
#
# Youngs Moduli (GPa) = 61.73354 96.27061 41.12922
#
# Poissons Ratio (x) = 0.17956 0.41379
# Poissons Ratio (y) = 0.11515 0.20783
# Poissons Ratio (z) = 0.62108 0.48646
#
# Static dielectric constant tensor:
#      x y z
#    x 3.730180 0.000000 0.000000 
#    y 0.000000 2.735060 0.000000 
#    z 0.000000 0.000000 3.354150 
# 
# 
# High freq. dielectric constant tensor:
#      x y z
#    x 1.788720 0.000000 0.000000 
#    y 0.000000 1.787860 0.000000 
#    z 0.000000 0.000000 1.742180 
# 
# From -- ./inp_files/16218.got.cif
#   From: 2010.06.25/outbox.cif.g09.slc.cpg/sg71_9_cif.got.tgz:16218.got - 2010.06.28 04:59:45.
