data_PCOD8291458
_publ_section_title
;
Structure prediction by ZEFSAII (Michael W. Deem and Ramdas Pophale) SiO2 
 PCOD8291458
Probable space group: I M M M
;
_chemical_formula_sum "Si O2"
_cell_formula_units_Z 88
_cell_length_a 19.307867
_cell_length_b 13.233331
_cell_length_c 19.081126
_cell_angle_alpha 90.000000
_cell_angle_beta 90.000000
_cell_angle_gamma 90.000000
_cell_volume 4875.368796
_symmetry_space_group_name_H-M "I M M M"
_symmetry_group_IT_number 71
_symmetry_cell_setting 'orthorhombic'
loop_
_space_group_symop_operation_xyz
x,y,z
-x,-y,z
x,-y,-z
-x,y,-z
-x,-y,-z
x,y,-z
-x,y,z
x,-y,z
1/2+x,1/2+y,1/2+z
1/2-x,1/2-y,1/2+z
1/2+x,1/2-y,1/2-z
1/2-x,1/2+y,1/2-z
1/2-x,1/2-y,1/2-z
1/2+x,1/2+y,1/2-z
1/2-x,1/2+y,1/2+z
1/2+x,1/2-y,1/2+z
loop_
_atom_site_type_symbol
_atom_site_label
_atom_site_fract_x
_atom_site_fract_y
_atom_site_fract_z
Si Si1 0.146823 0.799373 0.215437
Si Si2 0.153474 0.298226 0.920439
Si Si3 0.309820 0.251450 0.920531
Si Si4 0.921914 0.117612 0.343229
Si Si5 0.577035 0.000000 0.582433
Si Si6 0.793731 0.616006 0.706357
O O1 0.126667 0.789499 0.132995
O O2 0.086514 0.848094 0.262065
O O3 0.162192 0.685096 0.241089
O O4 0.213159 0.871268 0.225375
O O5 0.236510 0.309576 0.914304
O O6 0.119613 0.402001 0.894374
O O7 0.131629 0.269166 0.000000
O O8 0.369399 0.326200 0.894535
O O9 0.308087 0.150583 0.873644
O O10 0.325175 0.218532 0.000000
O O11 0.000000 0.143929 0.366226
O O12 0.906948 0.000000 0.350215
O O13 0.500000 0.000000 0.616680
O O14 0.569229 0.000000 0.500000
O O15 0.816429 0.500000 0.715136
#
# Coordination Sequence:
#
# PCOD8291458 Si02
#       6
#    16  16  16  16   8  16
#     4   9  18  31  49  73 100 135 170 216 256 305
#     4   9  18  31  49  74 102 133 170 209 256 311
#     4   9  19  34  51  76 104 133 172 216 264 313
#     4  10  21  35  52  75 103 138 179 220 264 312
#     4   9  18  30  44  68  99 129 162 200 247 304
#     4   9  17  30  50  75 100 131 172 213 259 309
#
# _framework density 18.049917000000001
#
# number of rings (size 3 to 8) (size 9 to 14) (size 15 to 20)
#    0.000    2.818    0.000    1.636    2.545    1.818 
#    0.000    0.909    0.000    6.545    0.000    6.364 
#    0.000    0.000    0.000    0.000    0.000    0.000 
#
# Total GULP energy -545402.066819 kJ/mol
# GULP energy per Si atom -12395.501519 kJ/mol
# Density = 1.800883 g / cm^3
# Si number density = 18.049917 Si / 1000 Ang^3
#
#
#
# Elastic Constant Matrix: (Units=GPa)
#
#
# Indices 1 2 3 4 5 6 
#
# 1 57.2771 28.5042 15.0477 0.0000 0.0000 0.0000
# 2 28.5042 76.9255 12.4499 0.0000 0.0000 0.0000
# 3 15.0477 12.4499 91.6512 0.0000 0.0000 0.0000
# 4 0.0000 0.0000 0.0000 19.1200 0.0000 0.0000
# 5 0.0000 0.0000 0.0000 0.0000 20.1391 0.0000
# 6 0.0000 0.0000 0.0000 0.0000 0.0000 19.0872
#
#
#
# Elastic Compliance Matrix: (Units=1/GPa)
#
#
# Indices 1 2 3 4 5 6 
#
# 1 0.021978 -0.007730 -0.002558 0.000000 0.000000 0.000000
# 2 -0.007730 0.016010 -0.000906 0.000000 0.000000 0.000000
# 3 -0.002558 -0.000906 0.011454 0.000000 0.000000 0.000000
# 4 0.000000 0.000000 0.000000 0.052301 0.000000 0.000000
# 5 0.000000 0.000000 0.000000 0.000000 0.049655 0.000000
# 6 0.000000 0.000000 0.000000 0.000000 0.000000 0.052391
#
#
# Mechanical properties :
#
#
# Convention : Reuss Voigt Hill
#
# Bulk Modulus (GPa) = 36.96240 37.53972 37.25106
# Shear Modulus (GPa) = 21.25894 22.99272 22.12583
#
# Velocity S-wave (km/s) = 3.43561 3.57296 3.50496
# Velocity P-wave (km/s) = 6.02165 6.15340 6.08788
#
# Compressibility (1/GPa) = 0.02705452
#
# Stress axis : x y z
#
# Youngs Moduli (GPa) = 45.50041 62.45959 87.30554
#
# Poissons Ratio (x) = 0.48279 0.22336
# Poissons Ratio (y) = 0.35170 0.07908
# Poissons Ratio (z) = 0.11641 0.05657
#
# Static dielectric constant tensor:
#      x y z
#    x 3.244540 0.000000 0.000000 
#    y 0.000000 3.108580 0.000000 
#    z 0.000000 0.000000 3.582190 
# 
# 
# High freq. dielectric constant tensor:
#      x y z
#    x 1.680820 0.000000 0.000000 
#    y 0.000000 1.678040 0.000000 
#    z 0.000000 0.000000 1.707130 
# 
# From -- ./inp_files/47123.got.cif
#   From: 2010.06.25/outbox.cif.g09.slc.cpg/sg71_24_cif.got.tgz:47123.got - 2010.06.28 04:59:45.
