data_PCOD8291354
_publ_section_title
;
Structure prediction by ZEFSAII (Michael W. Deem and Ramdas Pophale) SiO2 
 PCOD8291354
Probable space group: I M M M
;
_chemical_formula_sum "Si O2"
_cell_formula_units_Z 88
_cell_length_a 19.938747
_cell_length_b 24.929120
_cell_length_c 9.156858
_cell_angle_alpha 90.000000
_cell_angle_beta 90.000000
_cell_angle_gamma 90.000000
_cell_volume 4551.465868
_symmetry_space_group_name_H-M "I M M M"
_symmetry_group_IT_number 71
_symmetry_cell_setting 'orthorhombic'
loop_
_space_group_symop_operation_xyz
x,y,z
-x,-y,z
x,-y,-z
-x,y,-z
-x,-y,-z
x,y,-z
-x,y,z
x,-y,z
1/2+x,1/2+y,1/2+z
1/2-x,1/2-y,1/2+z
1/2+x,1/2-y,1/2-z
1/2-x,1/2+y,1/2-z
1/2-x,1/2-y,1/2-z
1/2+x,1/2+y,1/2-z
1/2-x,1/2+y,1/2+z
1/2+x,1/2-y,1/2+z
loop_
_atom_site_type_symbol
_atom_site_label
_atom_site_fract_x
_atom_site_fract_y
_atom_site_fract_z
Si Si1 0.000000 0.329997 0.328064
Si Si2 0.387473 0.652157 0.339999
Si Si3 0.580836 0.000000 0.675282
Si Si4 0.000000 0.788284 0.327188
Si Si5 0.630210 0.892303 0.825573
Si Si6 0.739976 0.805012 0.162217
Si Si7 0.421611 0.559956 0.838813
O O1 0.935120 0.360721 0.273754
O O2 0.000000 0.324712 0.500000
O O3 0.000000 0.270965 0.259022
O O4 0.420882 0.654844 0.500000
O O5 0.432586 0.683662 0.225351
O O6 0.313234 0.672278 0.346668
O O7 0.381747 0.591321 0.285145
O O8 0.622220 0.949036 0.741176
O O9 0.500000 0.000000 0.718290
O O10 0.587669 0.000000 0.500000
O O11 0.000000 0.788871 0.500000
O O12 0.691462 0.852561 0.773912
O O13 0.633876 0.903225 0.000000
O O14 0.750000 0.750000 0.250000
O O15 0.712661 0.790494 0.000000
O O16 0.500000 0.563198 0.804206
O O17 0.394661 0.500000 0.831538
O O18 0.407617 0.583871 0.000000
#
# Coordination Sequence:
#
# PCOD8291354 Si02
#       7
#     8  16   8   8  16  16  16
#     4   9  18  32  58  88 107 138 196 245 281 340
#     4  11  22  36  54  83 118 150 188 240 298 350
#     4  11  23  39  61  95 131 158 195 254 319 371
#     4  11  21  35  57  85 115 152 196 244 287 348
#     4  10  20  39  64  88 116 159 207 247 296 366
#     4  10  23  41  61  87 122 160 201 249 302 361
#     4   9  18  34  56  80 106 140 185 232 276 332
#
# _framework density 19.334429
#
# number of rings (size 3 to 8) (size 9 to 14) (size 15 to 20)
#    0.000    1.909    1.818    2.727    0.000    4.364 
#    1.636    2.727    0.000    0.000    0.000    0.000 
#    0.000    0.000    0.000    0.000    0.000    0.000 
#
# Total GULP energy -545115.767432 kJ/mol
# GULP energy per Si atom -12388.994714 kJ/mol
# Density = 1.929042 g / cm^3
# Si number density = 19.334429 Si / 1000 Ang^3
#
#
#
# Elastic Constant Matrix: (Units=GPa)
#
#
# Indices 1 2 3 4 5 6 
#
# 1 77.4476 46.1273 37.8360 0.0000 0.0000 0.0000
# 2 46.1273 150.5853 65.0009 0.0000 0.0000 0.0000
# 3 37.8360 65.0009 90.6778 0.0000 0.0000 0.0000
# 4 0.0000 0.0000 0.0000 29.1680 0.0000 0.0000
# 5 0.0000 0.0000 0.0000 0.0000 541.4650 0.0000
# 6 0.0000 0.0000 0.0000 0.0000 0.0000 -80.3972
#
#
#
# Elastic Compliance Matrix: (Units=1/GPa)
#
#
# Indices 1 2 3 4 5 6 
#
# 1 0.017186 -0.003141 -0.004919 0.000000 0.000000 0.000000
# 2 -0.003141 0.010190 -0.005994 0.000000 0.000000 0.000000
# 3 -0.004919 -0.005994 0.017378 0.000000 0.000000 0.000000
# 4 0.000000 0.000000 0.000000 0.034284 0.000000 0.000000
# 5 0.000000 0.000000 0.000000 0.000000 0.001847 0.000000
# 6 0.000000 0.000000 0.000000 0.000000 0.000000 -0.012438
#
#
# Mechanical properties :
#
#
# Convention : Reuss Voigt Hill
#
# Bulk Modulus (GPa) = 60.07905 68.51547 64.29726
# Shear Modulus (GPa) = 48.96965 109.36358 79.16661
#
# Velocity S-wave (km/s) = 5.03812 7.52907 6.40584
# Velocity P-wave (km/s) = 8.06130 10.54024 9.38300
#
# Compressibility (1/GPa) = 0.01664474
#
# Stress axis : x y z
#
# Youngs Moduli (GPa) = 58.18691 98.13256 57.54535
#
# Poissons Ratio (x) = 0.30822 0.28309
# Poissons Ratio (y) = 0.18276 0.34494
# Poissons Ratio (z) = 0.28625 0.58823
#
# Static dielectric constant tensor:
#      x y z
#    x 3.569310 0.000000 0.000000 
#    y 0.000000 4.194660 0.000000 
#    z 0.000000 0.000000 2.957600 
# 
# 
# High freq. dielectric constant tensor:
#      x y z
#    x 1.743970 0.000000 0.000000 
#    y 0.000000 1.768830 0.000000 
#    z 0.000000 0.000000 1.741860 
# 
# From -- ./inp_files/10544.got.cif
#   From: 2010.06.25/outbox.cif.g09.slc.cpg/sg71_6_cif.got.tgz:10544.got - 2010.06.28 04:59:45.
