data_PCOD8291160
_publ_section_title
;
Structure prediction by ZEFSAII (Michael W. Deem and Ramdas Pophale) SiO2 
 PCOD8291160
Probable space group: I M M M
;
_chemical_formula_sum "Si O2"
_cell_formula_units_Z 104
_cell_length_a 27.602627
_cell_length_b 9.327512
_cell_length_c 21.259329
_cell_angle_alpha 90.000000
_cell_angle_beta 90.000000
_cell_angle_gamma 90.000000
_cell_volume 5473.508365
_symmetry_space_group_name_H-M "I M M M"
_symmetry_group_IT_number 71
_symmetry_cell_setting 'orthorhombic'
loop_
_space_group_symop_operation_xyz
x,y,z
-x,-y,z
x,-y,-z
-x,y,-z
-x,-y,-z
x,y,-z
-x,y,z
x,-y,z
1/2+x,1/2+y,1/2+z
1/2-x,1/2-y,1/2+z
1/2+x,1/2-y,1/2-z
1/2-x,1/2+y,1/2-z
1/2-x,1/2-y,1/2-z
1/2+x,1/2+y,1/2-z
1/2-x,1/2+y,1/2+z
1/2+x,1/2-y,1/2+z
loop_
_atom_site_type_symbol
_atom_site_label
_atom_site_fract_x
_atom_site_fract_y
_atom_site_fract_z
Si Si1 0.824502 0.839793 0.783054
Si Si2 0.916026 0.336568 0.429832
Si Si3 0.500000 0.665114 0.291236
Si Si4 0.286064 0.840249 0.176973
Si Si5 0.680345 0.662350 0.070837
Si Si6 0.591165 0.667985 0.376901
Si Si7 0.057289 0.328825 0.000000
Si Si8 0.500000 0.832475 0.162501
O O1 0.768494 0.843836 0.800275
O O2 0.825857 0.731649 0.723960
O O3 0.858970 0.788350 0.840605
O O4 0.841555 0.000000 0.762934
O O5 0.938464 0.322961 0.500000
O O6 0.898973 0.500000 0.418248
O O7 0.872071 0.229664 0.421941
O O8 0.953984 0.286094 0.378112
O O9 0.500000 0.500000 0.272215
O O10 0.547178 0.705617 0.330901
O O11 0.500000 0.754342 0.228203
O O12 0.282459 0.750900 0.112925
O O13 0.305480 0.000000 0.164832
O O14 0.678123 0.500000 0.094868
O O15 0.699769 0.671517 0.000000
O O16 0.591359 0.500000 0.395697
O O17 0.584366 0.762556 0.439417
O O18 0.064080 0.500000 0.000000
O O19 0.000000 0.287931 0.000000
O O20 0.500000 0.000000 0.175890
#
# Coordination Sequence:
#
# PCOD8291160 Si02
#       8
#    16  16   8  16  16  16   8   8
#     4   9  20  38  60  87 115 145 184 229 277 334
#     4   9  18  34  54  76 105 144 188 229 275 331
#     4  10  22  36  54  83 113 147 186 223 270 331
#     4  10  20  36  59  85 113 147 185 230 285 336
#     4  10  21  36  54  77 107 146 189 231 274 322
#     4  10  21  40  63  85 112 150 190 226 273 336
#     4  11  23  39  61  89 119 151 187 233 285 334
#     4  10  21  34  51  79 112 145 179 227 284 328
#
# _framework density 19.000610999999999
#
# number of rings (size 3 to 8) (size 9 to 14) (size 15 to 20)
#    0.000    2.231    0.769    1.385    2.154    4.615 
#    1.385    0.000    0.000    2.308    0.000    0.000 
#    0.000    0.000    0.000    0.000    0.000    0.000 
#
# Total GULP energy -644633.881835 kJ/mol
# GULP energy per Si atom -12396.805420 kJ/mol
# Density = 1.895736 g / cm^3
# Si number density = 19.000611 Si / 1000 Ang^3
#
#
#
# Elastic Constant Matrix: (Units=GPa)
#
#
# Indices 1 2 3 4 5 6 
#
# 1 40.6802 21.5190 25.6670 0.0000 0.0000 0.0000
# 2 21.5190 111.3499 56.8773 0.0000 0.0000 0.0000
# 3 25.6670 56.8773 106.4987 0.0000 0.0000 0.0000
# 4 0.0000 0.0000 0.0000 41.0305 0.0000 0.0000
# 5 0.0000 0.0000 0.0000 0.0000 26.2127 0.0000
# 6 0.0000 0.0000 0.0000 0.0000 0.0000 16.4130
#
#
#
# Elastic Compliance Matrix: (Units=1/GPa)
#
#
# Indices 1 2 3 4 5 6 
#
# 1 0.029638 -0.002859 -0.005616 0.000000 0.000000 0.000000
# 2 -0.002859 0.012625 -0.006054 0.000000 0.000000 0.000000
# 3 -0.005616 -0.006054 0.013976 0.000000 0.000000 0.000000
# 4 0.000000 0.000000 0.000000 0.024372 0.000000 0.000000
# 5 0.000000 0.000000 0.000000 0.000000 0.038149 0.000000
# 6 0.000000 0.000000 0.000000 0.000000 0.000000 0.060927
#
#
# Mechanical properties :
#
#
# Convention : Reuss Voigt Hill
#
# Bulk Modulus (GPa) = 36.78906 51.85061 44.31984
# Shear Modulus (GPa) = 22.95610 27.02892 24.99251
#
# Velocity S-wave (km/s) = 3.47965 3.77573 3.63071
# Velocity P-wave (km/s) = 5.96222 6.80855 6.39939
#
# Compressibility (1/GPa) = 0.02718199
#
# Stress axis : x y z
#
# Youngs Moduli (GPa) = 33.74070 79.20486 71.54905
#
# Poissons Ratio (x) = 0.22645 0.40182
# Poissons Ratio (y) = 0.09647 0.43314
# Poissons Ratio (z) = 0.18949 0.47949
#
# Static dielectric constant tensor:
#      x y z
#    x 3.368670 0.000000 0.000000 
#    y 0.000000 3.663690 0.000000 
#    z 0.000000 0.000000 3.639530 
# 
# 
# High freq. dielectric constant tensor:
#      x y z
#    x 1.728300 0.000000 0.000000 
#    y 0.000000 1.742110 0.000000 
#    z 0.000000 0.000000 1.745660 
# 
# From -- ./inp_files/56293.got.cif
#   From: 2010.06.25/outbox.cif.g09.slc.cpg/sg71_29_cif.got.tgz:56293.got - 2010.06.28 04:59:45.
