data_PCOD8291290
_publ_section_title
;
Structure prediction by ZEFSAII (Michael W. Deem and Ramdas Pophale) SiO2 
 PCOD8291290
Probable space group: I M M M
;
_chemical_formula_sum "Si O2"
_cell_formula_units_Z 68
_cell_length_a 11.391656
_cell_length_b 17.697549
_cell_length_c 17.403034
_cell_angle_alpha 90.000000
_cell_angle_beta 90.000000
_cell_angle_gamma 90.000000
_cell_volume 3508.528058
_symmetry_space_group_name_H-M "I M M M"
_symmetry_group_IT_number 71
_symmetry_cell_setting 'orthorhombic'
loop_
_space_group_symop_operation_xyz
x,y,z
-x,-y,z
x,-y,-z
-x,y,-z
-x,-y,-z
x,y,-z
-x,y,z
x,-y,z
1/2+x,1/2+y,1/2+z
1/2-x,1/2-y,1/2+z
1/2+x,1/2-y,1/2-z
1/2-x,1/2+y,1/2-z
1/2-x,1/2-y,1/2-z
1/2+x,1/2+y,1/2-z
1/2-x,1/2+y,1/2+z
1/2+x,1/2-y,1/2+z
loop_
_atom_site_type_symbol
_atom_site_label
_atom_site_fract_x
_atom_site_fract_y
_atom_site_fract_z
Si Si1 0.737016 0.000000 0.500000
Si Si2 0.000000 0.080511 0.843031
Si Si3 0.228659 0.124979 0.764575
Si Si4 0.363892 0.661270 0.000000
Si Si5 0.137096 0.500000 0.828519
Si Si6 0.500000 0.738683 0.411090
Si Si7 0.256917 0.257260 0.141319
O O1 0.809590 0.922522 0.500000
O O2 0.664614 0.000000 0.419905
O O3 0.112739 0.080017 0.787435
O O4 0.000000 0.147595 0.904479
O O5 0.000000 0.000000 0.887474
O O6 0.282085 0.167689 0.840721
O O7 0.191350 0.194654 0.711275
O O8 0.316467 0.072918 0.716772
O O9 0.328752 0.714525 0.069494
O O10 0.500000 0.645509 0.000000
O O11 0.000000 0.500000 0.819545
O O12 0.500000 0.762058 0.500000
O O13 0.383381 0.771859 0.371197
#
# Coordination Sequence:
#
# PCOD8291290 Si02
#       7
#     4   8  16   8   8   8  16
#     4  12  26  44  56  94 128 158 200 244 290 364
#     4  10  20  37  62  86 114 152 195 251 303 349
#     4  10  22  39  60  86 116 157 204 246 291 350
#     4  12  25  40  62  89 123 164 196 242 305 356
#     4  12  25  40  62  89 123 164 196 242 305 356
#     4  10  20  37  62  86 114 152 195 251 303 349
#     4  10  22  39  60  86 116 157 204 246 291 350
#
# _framework density 19.381347000000002
#
# number of rings (size 3 to 8) (size 9 to 14) (size 15 to 20)
#    0.000    1.412    4.706    0.353    3.294    1.176 
#    4.235    0.000    0.000    0.706    0.000    1.647 
#    0.000    0.000    0.000    0.000    0.000    0.000 
#
# Total GULP energy -421227.366566 kJ/mol
# GULP energy per Si atom -12389.040193 kJ/mol
# Density = 1.933723 g / cm^3
# Si number density = 19.381347 Si / 1000 Ang^3
#
#
#
# Elastic Constant Matrix: (Units=GPa)
#
#
# Indices 1 2 3 4 5 6 
#
# 1 80.1603 28.7354 20.1650 0.0000 0.0000 0.0000
# 2 28.7354 111.5533 38.7802 0.0000 0.0000 0.0000
# 3 20.1650 38.7802 86.0046 0.0000 0.0000 0.0000
# 4 0.0000 0.0000 0.0000 38.2074 0.0000 0.0000
# 5 0.0000 0.0000 0.0000 0.0000 9.4012 0.0000
# 6 0.0000 0.0000 0.0000 0.0000 0.0000 16.6002
#
#
#
# Elastic Compliance Matrix: (Units=1/GPa)
#
#
# Indices 1 2 3 4 5 6 
#
# 1 0.014019 -0.002927 -0.001967 0.000000 0.000000 0.000000
# 2 -0.002927 0.011242 -0.004383 0.000000 0.000000 0.000000
# 3 -0.001967 -0.004383 0.014065 0.000000 0.000000 0.000000
# 4 0.000000 0.000000 0.000000 0.026173 0.000000 0.000000
# 5 0.000000 0.000000 0.000000 0.000000 0.106369 0.000000
# 6 0.000000 0.000000 0.000000 0.000000 0.000000 0.060240
#
#
# Mechanical properties :
#
#
# Convention : Reuss Voigt Hill
#
# Bulk Modulus (GPa) = 48.14272 50.34214 49.24243
# Shear Modulus (GPa) = 19.41097 25.51094 22.46095
#
# Velocity S-wave (km/s) = 3.16813 3.63197 3.40795
# Velocity P-wave (km/s) = 6.18679 6.60448 6.39904
#
# Compressibility (1/GPa) = 0.02077157
#
# Stress axis : x y z
#
# Youngs Moduli (GPa) = 71.33054 88.95196 71.10005
#
# Poissons Ratio (x) = 0.26040 0.13985
# Poissons Ratio (y) = 0.20882 0.31161
# Poissons Ratio (z) = 0.14031 0.38985
#
# Static dielectric constant tensor:
#      x y z
#    x 3.451040 0.000000 0.000000 
#    y 0.000000 3.834100 0.000000 
#    z 0.000000 0.000000 2.663330 
# 
# 
# High freq. dielectric constant tensor:
#      x y z
#    x 1.743230 0.000000 0.000000 
#    y 0.000000 1.768150 0.000000 
#    z 0.000000 0.000000 1.755190 
# 
# From -- ./inp_files/23577.got.cif
#   From: 2010.06.25/outbox.cif.g09.slc.cpg/sg71_12_cif.got.tgz:23577.got - 2010.06.28 04:59:45.
