data_PCOD8291051
_publ_section_title
;
Structure prediction by ZEFSAII (Michael W. Deem and Ramdas Pophale) SiO2 
 PCOD8291051
Probable space group: I M M M
;
_chemical_formula_sum "Si O2"
_cell_formula_units_Z 72
_cell_length_a 14.234436
_cell_length_b 17.891997
_cell_length_c 14.689318
_cell_angle_alpha 90.000000
_cell_angle_beta 90.000000
_cell_angle_gamma 90.000000
_cell_volume 3741.112029
_symmetry_space_group_name_H-M "I M M M"
_symmetry_group_IT_number 71
_symmetry_cell_setting 'orthorhombic'
loop_
_space_group_symop_operation_xyz
x,y,z
-x,-y,z
x,-y,-z
-x,y,-z
-x,-y,-z
x,y,-z
-x,y,z
x,-y,z
1/2+x,1/2+y,1/2+z
1/2-x,1/2-y,1/2+z
1/2+x,1/2-y,1/2-z
1/2-x,1/2+y,1/2-z
1/2-x,1/2-y,1/2-z
1/2+x,1/2+y,1/2-z
1/2-x,1/2+y,1/2+z
1/2+x,1/2-y,1/2+z
loop_
_atom_site_type_symbol
_atom_site_label
_atom_site_fract_x
_atom_site_fract_y
_atom_site_fract_z
Si Si1 0.611532 0.916865 0.500000
Si Si2 0.104850 0.911577 0.600517
Si Si3 0.891443 0.333174 0.820593
Si Si4 0.607366 0.671624 0.394919
Si Si5 0.732221 0.411895 0.734583
O O1 0.500000 0.918452 0.500000
O O2 0.646646 0.875405 0.589810
O O3 0.655193 0.000000 0.500000
O O4 0.142602 0.887678 0.500000
O O5 0.171799 0.881443 0.679741
O O6 0.000000 0.878499 0.615314
O O7 0.099304 0.000000 0.607218
O O8 0.876114 0.245433 0.834822
O O9 0.830191 0.365799 0.736924
O O10 0.000000 0.351603 0.800582
O O11 0.630977 0.688584 0.500000
O O12 0.500000 0.644071 0.385506
O O13 0.675967 0.607152 0.357706
O O14 0.752640 0.500000 0.737537
#
# Coordination Sequence:
#
# PCOD8291051 Si02
#       5
#     8  16  16  16  16
#     4   9  16  28  50  78 106 138 176 219 270 326
#     4   8  15  28  44  66 101 139 172 215 275 335
#     4  10  20  36  55  79 113 149 184 229 283 340
#     4  10  21  39  60  80 109 152 197 238 282 333
#     4  11  22  33  53  84 113 145 188 237 285 338
#
# _framework density 19.245615000000001
#
# number of rings (size 3 to 8) (size 9 to 14) (size 15 to 20)
#    0.000    2.333    1.111    2.667    1.556    3.111 
#    0.000    1.111    0.000    0.667    0.000    1.556 
#    0.000    0.000    0.000    0.000    0.000    0.000 
#
# Total GULP energy -446363.348308 kJ/mol
# GULP energy per Si atom -12398.981897 kJ/mol
# Density = 1.920181 g / cm^3
# Si number density = 19.245615 Si / 1000 Ang^3
#
#
#
# Elastic Constant Matrix: (Units=GPa)
#
#
# Indices 1 2 3 4 5 6 
#
# 1 89.3815 33.1823 46.3042 0.0000 0.0000 0.0000
# 2 33.1823 51.5182 25.9479 -0.0001 0.0000 0.0000
# 3 46.3042 25.9479 60.9747 -0.0002 0.0000 0.0000
# 4 0.0000 -0.0001 -0.0002 30.8994 0.0000 0.0000
# 5 0.0000 0.0000 0.0000 0.0000 25.2082 0.0000
# 6 0.0000 0.0000 0.0000 0.0000 0.0000 26.3411
#
#
#
# Elastic Compliance Matrix: (Units=1/GPa)
#
#
# Indices 1 2 3 4 5 6 
#
# 1 0.020108 -0.006696 -0.012421 0.000000 0.000000 0.000000
# 2 -0.006696 0.026935 -0.006378 0.000000 0.000000 0.000000
# 3 -0.012421 -0.006378 0.028547 0.000000 0.000000 0.000000
# 4 0.000000 0.000000 0.000000 0.032363 0.000000 0.000000
# 5 0.000000 0.000000 0.000000 0.000000 0.039670 0.000000
# 6 0.000000 0.000000 0.000000 0.000000 0.000000 0.037964
#
#
# Mechanical properties :
#
#
# Convention : Reuss Voigt Hill
#
# Bulk Modulus (GPa) = 40.64726 45.86037 43.25381
# Shear Modulus (GPa) = 20.42679 22.91906 21.67293
#
# Velocity S-wave (km/s) = 3.26141 3.45464 3.35942
# Velocity P-wave (km/s) = 5.94546 6.30821 6.12952
#
# Compressibility (1/GPa) = 0.02460191
#
# Stress axis : x y z
#
# Youngs Moduli (GPa) = 49.73037 37.12579 35.03007
#
# Poissons Ratio (x) = 0.24858 0.43511
# Poissons Ratio (y) = 0.33297 0.22342
# Poissons Ratio (z) = 0.61770 0.23678
#
# Static dielectric constant tensor:
#      x y z
#    x 3.580740 0.000000 0.000000 
#    y 0.000000 3.231490 0.000000 
#    z 0.000000 0.000000 3.415990 
# 
# 
# High freq. dielectric constant tensor:
#      x y z
#    x 1.751990 0.000000 0.000000 
#    y 0.000000 1.724770 0.000000 
#    z 0.000000 0.000000 1.725640 
# 
# From -- ./inp_files/34055.got.cif
#   From: 2010.06.25/outbox.cif.g09.slc.cpg/sg71_18_cif.got.tgz:34055.got - 2010.06.28 04:59:45.
