data_PCOD8291840
_publ_section_title
;
Structure prediction by ZEFSAII (Michael W. Deem and Ramdas Pophale) SiO2 
 PCOD8291840
Probable space group: I M M M
;
_chemical_formula_sum "Si O2"
_cell_formula_units_Z 88
_cell_length_a 27.401868
_cell_length_b 9.061044
_cell_length_c 19.221553
_cell_angle_alpha 90.000000
_cell_angle_beta 90.000000
_cell_angle_gamma 90.000000
_cell_volume 4772.510392
_symmetry_space_group_name_H-M "I M M M"
_symmetry_group_IT_number 71
_symmetry_cell_setting 'orthorhombic'
loop_
_space_group_symop_operation_xyz
x,y,z
-x,-y,z
x,-y,-z
-x,y,-z
-x,-y,-z
x,y,-z
-x,y,z
x,-y,z
1/2+x,1/2+y,1/2+z
1/2-x,1/2-y,1/2+z
1/2+x,1/2-y,1/2-z
1/2-x,1/2+y,1/2-z
1/2-x,1/2-y,1/2-z
1/2+x,1/2+y,1/2-z
1/2-x,1/2+y,1/2+z
1/2+x,1/2-y,1/2+z
loop_
_atom_site_type_symbol
_atom_site_label
_atom_site_fract_x
_atom_site_fract_y
_atom_site_fract_z
Si Si1 0.810422 0.827484 0.312298
Si Si2 0.919951 0.174796 0.671022
Si Si3 0.000000 0.328930 0.582107
Si Si4 0.877637 0.829777 0.080543
Si Si5 0.944078 0.667817 0.187488
Si Si6 0.217228 0.829128 0.841079
O O1 0.863421 0.782177 0.341443
O O2 0.805852 0.774638 0.232141
O O3 0.768025 0.752518 0.358075
O O4 0.802842 0.000000 0.317949
O O5 0.951507 0.252946 0.611734
O O6 0.936320 0.228857 0.746356
O O7 0.928187 0.000000 0.667396
O O8 0.000000 0.500000 0.604312
O O9 0.000000 0.308282 0.500000
O O10 0.913367 0.724968 0.122590
O O11 0.821560 0.792000 0.098924
O O12 0.888554 0.000000 0.100022
O O13 0.886180 0.797993 0.000000
O O14 0.928684 0.500000 0.205535
O O15 0.000000 0.675325 0.164377
O O16 0.229845 0.000000 0.837721
#
# Coordination Sequence:
#
# PCOD8291840 Si02
#       6
#    16  16   8  16  16  16
#     4   9  18  32  53  83 111 140 183 234 282 331
#     4  11  21  37  62  88 116 150 192 237 281 338
#     4  11  25  43  61  87 122 153 186 231 287 347
#     4  10  21  38  58  80 112 154 197 240 288 345
#     4  11  23  37  56  84 116 149 191 241 291 340
#     4   9  17  32  52  79 112 144 184 232 283 338
#
# _framework density 18.438932999999999
#
# number of rings (size 3 to 8) (size 9 to 14) (size 15 to 20)
#    0.000    1.909    2.727    1.364    0.000    4.727 
#    0.000    2.727    0.000    3.273    0.000    0.000 
#    0.000    0.000    0.000    0.000    0.000    0.000 
#
# Total GULP energy -545685.831327 kJ/mol
# GULP energy per Si atom -12401.950712 kJ/mol
# Density = 1.839697 g / cm^3
# Si number density = 18.438933 Si / 1000 Ang^3
#
#
#
# Elastic Constant Matrix: (Units=GPa)
#
#
# Indices 1 2 3 4 5 6 
#
# 1 148.6749 71.2545 49.1529 0.0000 0.0000 0.0000
# 2 71.2545 86.6855 43.2763 0.0000 0.0000 0.0000
# 3 49.1529 43.2763 76.0055 0.0000 0.0000 0.0000
# 4 0.0000 0.0000 0.0000 26.3750 0.0000 0.0000
# 5 0.0000 0.0000 0.0000 0.0000 28.7930 0.0000
# 6 0.0000 0.0000 0.0000 0.0000 0.0000 37.0287
#
#
#
# Elastic Compliance Matrix: (Units=1/GPa)
#
#
# Indices 1 2 3 4 5 6 
#
# 1 0.011532 -0.008042 -0.002879 0.000000 0.000000 0.000000
# 2 -0.008042 0.021726 -0.007169 0.000000 0.000000 0.000000
# 3 -0.002879 -0.007169 0.019101 0.000000 0.000000 0.000000
# 4 0.000000 0.000000 0.000000 0.037915 0.000000 0.000000
# 5 0.000000 0.000000 0.000000 0.000000 0.034731 0.000000
# 6 0.000000 0.000000 0.000000 0.000000 0.000000 0.027006
#
#
# Mechanical properties :
#
#
# Convention : Reuss Voigt Hill
#
# Bulk Modulus (GPa) = 61.81234 70.97037 66.39136
# Shear Modulus (GPa) = 25.82868 28.28482 27.05675
#
# Velocity S-wave (km/s) = 3.74674 3.92085 3.83478
# Velocity P-wave (km/s) = 7.23277 7.68572 7.46268
#
# Compressibility (1/GPa) = 0.01617800
#
# Stress axis : x y z
#
# Youngs Moduli (GPa) = 86.71434 46.02855 52.35381
#
# Poissons Ratio (x) = 0.37016 0.15072
# Poissons Ratio (y) = 0.69736 0.37534
# Poissons Ratio (z) = 0.24964 0.33000
#
# Static dielectric constant tensor:
#      x y z
#    x 3.709860 0.000000 0.000000 
#    y 0.000000 3.470140 0.000000 
#    z 0.000000 0.000000 3.174200 
# 
# 
# High freq. dielectric constant tensor:
#      x y z
#    x 1.729450 0.000000 0.000000 
#    y 0.000000 1.719700 0.000000 
#    z 0.000000 0.000000 1.689120 
# 
# From -- ./inp_files/49238.got.cif
#   From: 2010.06.25/outbox.cif.g09.slc.cpg/sg71_25_cif.got.tgz:49238.got - 2010.06.28 04:59:45.
