data_PCOD8291612
_publ_section_title
;
Structure prediction by ZEFSAII (Michael W. Deem and Ramdas Pophale) SiO2 
 PCOD8291612
Probable space group: I M M M
;
_chemical_formula_sum "Si O2"
_cell_formula_units_Z 88
_cell_length_a 18.092708
_cell_length_b 26.826001
_cell_length_c 8.976011
_cell_angle_alpha 90.000000
_cell_angle_beta 90.000000
_cell_angle_gamma 90.000000
_cell_volume 4356.551845
_symmetry_space_group_name_H-M "I M M M"
_symmetry_group_IT_number 71
_symmetry_cell_setting 'orthorhombic'
loop_
_space_group_symop_operation_xyz
x,y,z
-x,-y,z
x,-y,-z
-x,y,-z
-x,-y,-z
x,y,-z
-x,y,z
x,-y,z
1/2+x,1/2+y,1/2+z
1/2-x,1/2-y,1/2+z
1/2+x,1/2-y,1/2-z
1/2-x,1/2+y,1/2-z
1/2-x,1/2-y,1/2-z
1/2+x,1/2+y,1/2-z
1/2-x,1/2+y,1/2+z
1/2+x,1/2-y,1/2+z
loop_
_atom_site_type_symbol
_atom_site_label
_atom_site_fract_x
_atom_site_fract_y
_atom_site_fract_z
Si Si1 0.144494 0.380479 0.822054
Si Si2 0.417944 0.589176 0.326450
Si Si3 0.780269 0.055447 0.333963
Si Si4 0.413435 0.298594 0.663976
Si Si5 0.000000 0.557695 0.823261
Si Si6 0.679108 0.775467 0.825322
O O1 0.216719 0.409973 0.764868
O O2 0.151585 0.326743 0.747141
O O3 0.072011 0.411212 0.767930
O O4 0.142632 0.374374 0.000000
O O5 0.421451 0.578097 0.500000
O O6 0.500000 0.579168 0.258577
O O7 0.356717 0.553976 0.255563
O O8 0.391037 0.645303 0.294095
O O9 0.798611 0.073934 0.500000
O O10 0.747211 0.000000 0.334651
O O11 0.379923 0.284675 0.500000
O O12 0.500000 0.294308 0.652335
O O13 0.386614 0.263141 0.795657
O O14 0.000000 0.500000 0.761957
O O15 0.000000 0.554993 0.000000
O O16 0.750000 0.750000 0.750000
O O17 0.692794 0.783065 0.000000
#
# Coordination Sequence:
#
# PCOD8291612 Si02
#       6
#    16  16  16  16   8  16
#     4  10  21  38  61  88 118 155 199 247 300 356
#     4   9  19  36  57  82 111 146 189 235 282 341
#     4  10  21  36  55  81 113 147 188 240 291 341
#     4   9  19  37  60  83 112 149 188 229 278 338
#     4   9  18  36  65  95 121 157 207 257 304 363
#     4  12  25  39  57  84 119 155 195 243 294 353
#
# _framework density 20.199462
#
# number of rings (size 3 to 8) (size 9 to 14) (size 15 to 20)
#    0.000    2.091    0.000    4.364    1.273    8.000 
#    0.000    3.636    0.000    2.182    0.000    0.000 
#    0.000    0.000    0.000    0.000    0.000    0.000 
#
# Total GULP energy -545374.265171 kJ/mol
# GULP energy per Si atom -12394.869663 kJ/mol
# Density = 2.015349 g / cm^3
# Si number density = 20.199462 Si / 1000 Ang^3
#
#
#
# Elastic Constant Matrix: (Units=GPa)
#
#
# Indices 1 2 3 4 5 6 
#
# 1 98.4530 50.6672 32.2892 0.0000 0.0000 0.0000
# 2 50.6672 93.0757 29.6647 0.0000 0.0000 0.0000
# 3 32.2892 29.6647 54.6550 0.0000 0.0000 0.0000
# 4 0.0000 0.0000 0.0000 17.6510 0.0000 0.0000
# 5 0.0000 0.0000 0.0000 0.0000 25.9720 0.0000
# 6 0.0000 0.0000 0.0000 0.0000 0.0000 36.2007
#
#
#
# Elastic Compliance Matrix: (Units=1/GPa)
#
#
# Indices 1 2 3 4 5 6 
#
# 1 0.015359 -0.006613 -0.005485 0.000000 0.000000 0.000000
# 2 -0.006613 0.015838 -0.004690 0.000000 0.000000 0.000000
# 3 -0.005485 -0.004690 0.024082 0.000000 0.000000 0.000000
# 4 0.000000 0.000000 0.000000 0.056654 0.000000 0.000000
# 5 0.000000 0.000000 0.000000 0.000000 0.038503 0.000000
# 6 0.000000 0.000000 0.000000 0.000000 0.000000 0.027624
#
#
# Mechanical properties :
#
#
# Convention : Reuss Voigt Hill
#
# Bulk Modulus (GPa) = 46.07186 52.38064 49.22625
# Shear Modulus (GPa) = 22.84456 24.86890 23.85673
#
# Velocity S-wave (km/s) = 3.36661 3.51260 3.44038
# Velocity P-wave (km/s) = 6.16198 6.51454 6.34071
#
# Compressibility (1/GPa) = 0.02170522
#
# Stress axis : x y z
#
# Youngs Moduli (GPa) = 65.10774 63.13731 41.52439
#
# Poissons Ratio (x) = 0.41752 0.22775
# Poissons Ratio (y) = 0.43055 0.19474
# Poissons Ratio (z) = 0.35709 0.29610
#
# Static dielectric constant tensor:
#      x y z
#    x 3.999420 0.000000 0.000000 
#    y 0.000000 6.127340 0.000000 
#    z 0.000000 0.000000 3.344140 
# 
# 
# High freq. dielectric constant tensor:
#      x y z
#    x 1.799260 0.000000 0.000000 
#    y 0.000000 1.799340 0.000000 
#    z 0.000000 0.000000 1.759640 
# 
# From -- ./inp_files/8871.got.cif
#   From: 2010.06.25/outbox.cif.g09.slc.cpg/sg71_5_cif.got.tgz:8871.got - 2010.06.28 04:59:45.
