data_PCOD8291059
_publ_section_title
;
Structure prediction by ZEFSAII (Michael W. Deem and Ramdas Pophale) SiO2 
 PCOD8291059
Probable space group: I M M M
;
_chemical_formula_sum "Si O2"
_cell_formula_units_Z 104
_cell_length_a 25.855487
_cell_length_b 9.552651
_cell_length_c 22.759479
_cell_angle_alpha 90.000000
_cell_angle_beta 90.000000
_cell_angle_gamma 90.000000
_cell_volume 5621.328299
_symmetry_space_group_name_H-M "I M M M"
_symmetry_group_IT_number 71
_symmetry_cell_setting 'orthorhombic'
loop_
_space_group_symop_operation_xyz
x,y,z
-x,-y,z
x,-y,-z
-x,y,-z
-x,-y,-z
x,y,-z
-x,y,z
x,-y,z
1/2+x,1/2+y,1/2+z
1/2-x,1/2-y,1/2+z
1/2+x,1/2-y,1/2-z
1/2-x,1/2+y,1/2-z
1/2-x,1/2-y,1/2-z
1/2+x,1/2+y,1/2-z
1/2-x,1/2+y,1/2+z
1/2+x,1/2-y,1/2+z
loop_
_atom_site_type_symbol
_atom_site_label
_atom_site_fract_x
_atom_site_fract_y
_atom_site_fract_z
Si Si1 0.000000 0.665838 0.930096
Si Si2 0.307192 0.339348 0.687715
Si Si3 0.557712 0.000000 0.067663
Si Si4 0.209245 0.162314 0.677682
Si Si5 0.420768 0.333272 0.354070
Si Si6 0.940234 0.000000 0.434922
Si Si7 0.443012 0.843729 0.244366
Si Si8 0.892275 0.747746 0.628460
O O1 0.948333 0.746378 0.906689
O O2 0.000000 0.500000 0.911119
O O3 0.000000 0.677978 0.000000
O O4 0.291361 0.500000 0.678789
O O5 0.261547 0.244285 0.662624
O O6 0.313458 0.306406 0.757125
O O7 0.359081 0.305458 0.650527
O O8 0.594466 0.872940 0.083568
O O9 0.500000 0.000000 0.098192
O O10 0.546723 0.000000 0.000000
O O11 0.168035 0.211061 0.628726
O O12 0.221577 0.000000 0.670001
O O13 0.432400 0.500000 0.359686
O O14 0.444855 0.272064 0.294930
O O15 0.926730 0.872685 0.393712
O O16 0.912852 0.000000 0.500000
O O17 0.000000 0.000000 0.447586
O O18 0.500000 0.850784 0.216565
O O19 0.404191 0.796078 0.194604
O O20 0.427069 0.000000 0.267405
#
# Coordination Sequence:
#
# PCOD8291059 Si02
#       8
#     8  16   8  16  16   8  16  16
#     4  11  25  45  67  93 129 171 206 237 288 363
#     4   9  20  36  56  85 124 158 194 242 301 364
#     4  11  24  42  60  81 114 160 212 256 301 359
#     4  10  20  36  55  85 120 158 199 243 304 367
#     4  11  22  38  61  94 126 157 196 249 296 355
#     4  11  24  40  58  81 114 160 206 250 303 361
#     4  11  22  34  52  84 126 159 194 240 305 362
#     4  12  22  37  58  85 117 157 201 259 303 361
#
# _framework density 18.500965999999998
#
# number of rings (size 3 to 8) (size 9 to 14) (size 15 to 20)
#    0.000    1.308    3.846    2.538    2.154    3.077 
#    0.000    0.000    0.000    1.846    0.000    0.000 
#    0.000    0.000    0.000    0.000    0.000    0.000 
#
# Total GULP energy -644425.698774 kJ/mol
# GULP energy per Si atom -12392.801900 kJ/mol
# Density = 1.845886 g / cm^3
# Si number density = 18.500966 Si / 1000 Ang^3
#
#
#
# Elastic Constant Matrix: (Units=GPa)
#
#
# Indices 1 2 3 4 5 6 
#
# 1 129.9577 65.1501 37.3934 0.0000 0.0000 0.0000
# 2 65.1501 142.5524 41.5437 0.0000 0.0000 0.0000
# 3 37.3934 41.5437 65.7205 0.0000 0.0000 0.0000
# 4 0.0000 0.0000 0.0000 150.9431 0.0000 0.0000
# 5 0.0000 0.0000 0.0000 0.0000 8.6041 0.0000
# 6 0.0000 0.0000 0.0000 0.0000 0.0000 28.2146
#
#
#
# Elastic Compliance Matrix: (Units=1/GPa)
#
#
# Indices 1 2 3 4 5 6 
#
# 1 0.010654 -0.003803 -0.003658 0.000000 0.000000 0.000000
# 2 -0.003803 0.009957 -0.004130 0.000000 0.000000 0.000000
# 3 -0.003658 -0.004130 0.019908 0.000000 0.000000 0.000000
# 4 0.000000 0.000000 0.000000 0.006625 0.000000 0.000000
# 5 0.000000 0.000000 0.000000 0.000000 0.116224 0.000000
# 6 0.000000 0.000000 0.000000 0.000000 0.000000 0.035443
#
#
# Mechanical properties :
#
#
# Convention : Reuss Voigt Hill
#
# Bulk Modulus (GPa) = 57.68134 69.60056 63.64095
# Shear Modulus (GPa) = 21.95191 50.49525 36.22358
#
# Velocity S-wave (km/s) = 3.44834 5.22997 4.42965
# Velocity P-wave (km/s) = 6.86293 8.61230 7.78690
#
# Compressibility (1/GPa) = 0.01733663
#
# Stress axis : x y z
#
# Youngs Moduli (GPa) = 93.86287 100.43500 50.23152
#
# Poissons Ratio (x) = 0.38197 0.18373
# Poissons Ratio (y) = 0.35697 0.20746
# Poissons Ratio (z) = 0.34333 0.41480
#
# Static dielectric constant tensor:
#      x y z
#    x 3.500730 0.000000 0.000000 
#    y 0.000000 3.612550 0.000000 
#    z 0.000000 0.000000 3.134600 
# 
# 
# High freq. dielectric constant tensor:
#      x y z
#    x 1.718090 0.000000 0.000000 
#    y 0.000000 1.738290 0.000000 
#    z 0.000000 0.000000 1.685710 
# 
# From -- ./inp_files/62015.got.cif
#   From: 2010.06.25/outbox.cif.g09.slc.cpg/sg71_32_cif.got.tgz:62015.got - 2010.06.28 04:59:45.
