data_PCOD8291933
_publ_section_title
;
Structure prediction by ZEFSAII (Michael W. Deem and Ramdas Pophale) SiO2 
 PCOD8291933
Probable space group: I M M M
;
_chemical_formula_sum "Si O2"
_cell_formula_units_Z 64
_cell_length_a 15.278094
_cell_length_b 7.595568
_cell_length_c 27.603741
_cell_angle_alpha 90.000000
_cell_angle_beta 90.000000
_cell_angle_gamma 90.000000
_cell_volume 3203.298259
_symmetry_space_group_name_H-M "I M M M"
_symmetry_group_IT_number 71
_symmetry_cell_setting 'orthorhombic'
loop_
_space_group_symop_operation_xyz
x,y,z
-x,-y,z
x,-y,-z
-x,y,-z
-x,-y,-z
x,y,-z
-x,y,z
x,-y,z
1/2+x,1/2+y,1/2+z
1/2-x,1/2-y,1/2+z
1/2+x,1/2-y,1/2-z
1/2-x,1/2+y,1/2-z
1/2-x,1/2-y,1/2-z
1/2+x,1/2+y,1/2-z
1/2-x,1/2+y,1/2+z
1/2+x,1/2-y,1/2+z
loop_
_atom_site_type_symbol
_atom_site_label
_atom_site_fract_x
_atom_site_fract_y
_atom_site_fract_z
Si Si1 0.198025 0.500000 0.056257
Si Si2 0.330736 0.803885 0.054416
Si Si3 0.000000 0.796006 0.390104
Si Si4 0.103242 0.500000 0.848413
Si Si5 0.000000 0.707965 0.278803
Si Si6 0.834608 0.198543 0.780515
O O1 0.254758 0.670801 0.069350
O O2 0.116465 0.500000 0.093339
O O3 0.166014 0.500000 0.000000
O O4 0.413845 0.792329 0.088738
O O5 0.291300 0.000000 0.058333
O O6 0.362421 0.760757 0.000000
O O7 0.000000 0.759019 0.334064
O O8 0.000000 0.000000 0.403147
O O9 0.149405 0.671904 0.825723
O O10 0.000000 0.500000 0.836805
O O11 0.084774 0.794639 0.255831
O O12 0.000000 0.500000 0.269902
O O13 0.750000 0.250000 0.750000
O O14 0.824042 0.000000 0.800835
#
# Coordination Sequence:
#
# PCOD8291933 Si02
#       6
#     8  16   8   8   8  16
#     4  10  24  44  68  94 123 163 220 280 329 386
#     4  10  21  39  60  89 129 171 216 266 320 381
#     4  12  23  33  56  92 132 177 216 257 315 386
#     4  12  26  47  69  99 132 170 217 264 333 394
#     4  12  24  43  61  93 135 170 219 266 315 382
#     4  12  24  43  67  95 133 176 216 267 318 382
#
# _framework density 19.979407999999999
#
# number of rings (size 3 to 8) (size 9 to 14) (size 15 to 20)
#    0.000    0.750    5.000    2.625    3.500    2.750 
#    0.000    0.000    0.000    0.000    0.000    5.250 
#    0.000    0.000    0.000    0.000    0.000    0.000 
#
# Total GULP energy -396902.287525 kJ/mol
# GULP energy per Si atom -12403.196485 kJ/mol
# Density = 1.993393 g / cm^3
# Si number density = 19.979408 Si / 1000 Ang^3
#
#
#
# Elastic Constant Matrix: (Units=GPa)
#
#
# Indices 1 2 3 4 5 6 
#
# 1 106.4822 32.7044 47.1599 0.0000 0.0000 0.0000
# 2 32.7044 162.3645 31.7854 0.0000 0.0000 0.0000
# 3 47.1599 31.7854 124.9439 0.0000 0.0000 0.0000
# 4 0.0000 0.0000 0.0000 27.5673 0.0000 0.0000
# 5 0.0000 0.0000 0.0000 0.0000 34.4816 0.0000
# 6 0.0000 0.0000 0.0000 0.0000 0.0000 28.8129
#
#
#
# Elastic Compliance Matrix: (Units=1/GPa)
#
#
# Indices 1 2 3 4 5 6 
#
# 1 0.011641 -0.001562 -0.003996 0.000000 0.000000 0.000000
# 2 -0.001562 0.006691 -0.001113 0.000000 0.000000 0.000000
# 3 -0.003996 -0.001113 0.009795 0.000000 0.000000 0.000000
# 4 0.000000 0.000000 0.000000 0.036275 0.000000 0.000000
# 5 0.000000 0.000000 0.000000 0.000000 0.029001 0.000000
# 6 0.000000 0.000000 0.000000 0.000000 0.000000 0.034707
#
#
# Mechanical properties :
#
#
# Convention : Reuss Voigt Hill
#
# Bulk Modulus (GPa) = 67.63704 68.56553 68.10129
# Shear Modulus (GPa) = 34.15738 36.98177 35.56957
#
# Velocity S-wave (km/s) = 4.13925 4.30699 4.22395
# Velocity P-wave (km/s) = 7.53468 7.68935 7.61241
#
# Compressibility (1/GPa) = 0.01478480
#
# Stress axis : x y z
#
# Youngs Moduli (GPa) = 85.90253 149.44338 102.09216
#
# Poissons Ratio (x) = 0.23350 0.40800
# Poissons Ratio (y) = 0.13422 0.11358
# Poissons Ratio (z) = 0.34330 0.16626
#
# Static dielectric constant tensor:
#      x y z
#    x 3.515840 0.000000 0.000000 
#    y 0.000000 4.004210 0.000000 
#    z 0.000000 0.000000 3.611320 
# 
# 
# High freq. dielectric constant tensor:
#      x y z
#    x 1.767140 0.000000 0.000000 
#    y 0.000000 1.802230 0.000000 
#    z 0.000000 0.000000 1.781680 
# 
# From -- ./inp_files/31212.got.cif
#   From: 2010.06.25/outbox.cif.g09.slc.cpg/sg71_16_cif.got.tgz:31212.got - 2010.06.28 04:59:45.
