data_PCOD8291130
_publ_section_title
;
Structure prediction by ZEFSAII (Michael W. Deem and Ramdas Pophale) SiO2 
 PCOD8291130
Probable space group: I M M M
;
_chemical_formula_sum "Si O2"
_cell_formula_units_Z 120
_cell_length_a 8.143296
_cell_length_b 27.476586
_cell_length_c 27.625975
_cell_angle_alpha 90.000000
_cell_angle_beta 90.000000
_cell_angle_gamma 90.000000
_cell_volume 6181.311157
_symmetry_space_group_name_H-M "I M M M"
_symmetry_group_IT_number 71
_symmetry_cell_setting 'orthorhombic'
loop_
_space_group_symop_operation_xyz
x,y,z
-x,-y,z
x,-y,-z
-x,y,-z
-x,-y,-z
x,y,-z
-x,y,z
x,-y,z
1/2+x,1/2+y,1/2+z
1/2-x,1/2-y,1/2+z
1/2+x,1/2-y,1/2-z
1/2-x,1/2+y,1/2-z
1/2-x,1/2-y,1/2-z
1/2+x,1/2+y,1/2-z
1/2-x,1/2+y,1/2+z
1/2+x,1/2-y,1/2+z
loop_
_atom_site_type_symbol
_atom_site_label
_atom_site_fract_x
_atom_site_fract_y
_atom_site_fract_z
Si Si1 0.810012 0.359380 0.355779
Si Si2 0.192630 0.701443 0.445369
Si Si3 0.811603 0.444138 0.804424
Si Si4 0.814170 0.707062 0.106757
Si Si5 0.000000 0.444787 0.942980
Si Si6 0.184341 0.103629 0.604577
Si Si7 0.188126 0.054449 0.201955
Si Si8 0.309324 0.761885 0.196841
O O1 0.746732 0.340373 0.408239
O O2 0.715333 0.408650 0.342373
O O3 0.774398 0.318310 0.315361
O O4 0.000000 0.372650 0.358444
O O5 0.235696 0.685303 0.500000
O O6 0.279458 0.752363 0.433794
O O7 0.000000 0.709875 0.437486
O O8 0.754501 0.500000 0.810010
O O9 0.702189 0.410436 0.838923
O O10 0.790883 0.427901 0.748673
O O11 0.000000 0.437348 0.820030
O O12 0.695575 0.661552 0.098286
O O13 0.790643 0.728203 0.160292
O O14 0.000000 0.688587 0.101445
O O15 0.829438 0.421539 0.925364
O O16 0.000000 0.500000 0.924167
O O17 0.000000 0.440800 0.000000
O O18 0.000000 0.088154 0.587147
O O19 0.000000 0.054528 0.217550
O O20 0.242800 0.000000 0.185807
O O21 0.500000 0.749879 0.190419
O O22 0.250000 0.750000 0.250000
#
# Coordination Sequence:
#
# PCOD8291130 Si02
#       8
#    16  16  16  16   8  16  16  16
#     4   9  19  35  55  81 113 150 193 239 293 355
#     4   9  19  38  62  86 114 148 189 241 298 359
#     4  10  20  36  58  84 115 152 196 244 294 350
#     4  11  22  38  57  85 120 153 196 245 293 351
#     4  11  26  48  68  90 120 154 200 256 310 368
#     4  12  24  41  65  91 121 157 198 251 307 363
#     4  10  21  35  53  82 118 157 201 245 291 349
#     4  10  21  36  54  80 116 158 198 237 289 353
#
# _framework density 19.413357000000001
#
# number of rings (size 3 to 8) (size 9 to 14) (size 15 to 20)
#    0.000    1.800    1.333    3.600    1.867    6.133 
#    0.000    0.667    0.000    0.400    0.000    2.800 
#    0.000    0.000    0.000    0.000    0.000    0.000 
#
# Total GULP energy -744059.922146 kJ/mol
# GULP energy per Si atom -12400.998702 kJ/mol
# Density = 1.936917 g / cm^3
# Si number density = 19.413357 Si / 1000 Ang^3
#
#
#
# Elastic Constant Matrix: (Units=GPa)
#
#
# Indices 1 2 3 4 5 6 
#
# 1 97.1004 37.0782 26.7845 0.0000 0.0000 0.0000
# 2 37.0782 104.3350 44.7114 0.0000 0.0000 0.0000
# 3 26.7845 44.7114 108.8052 0.0000 0.0000 0.0000
# 4 0.0000 0.0000 0.0000 21.0324 0.0000 0.0000
# 5 0.0000 0.0000 0.0000 0.0000 22.5346 0.0000
# 6 0.0000 0.0000 0.0000 0.0000 0.0000 29.0615
#
#
#
# Elastic Compliance Matrix: (Units=1/GPa)
#
#
# Indices 1 2 3 4 5 6 
#
# 1 0.012107 -0.003672 -0.001471 0.000000 0.000000 0.000000
# 2 -0.003672 0.012747 -0.004334 0.000000 0.000000 0.000000
# 3 -0.001471 -0.004334 0.011334 0.000000 0.000000 0.000000
# 4 0.000000 0.000000 0.000000 0.047546 0.000000 0.000000
# 5 0.000000 0.000000 0.000000 0.000000 0.044376 0.000000
# 6 0.000000 0.000000 0.000000 0.000000 0.000000 0.034410
#
#
# Mechanical properties :
#
#
# Convention : Reuss Voigt Hill
#
# Bulk Modulus (GPa) = 58.02966 58.59873 58.31420
# Shear Modulus (GPa) = 26.70684 27.97014 27.33849
#
# Velocity S-wave (km/s) = 3.71306 3.79986 3.75671
# Velocity P-wave (km/s) = 6.95262 7.03578 6.99432
#
# Compressibility (1/GPa) = 0.01723257
#
# Stress axis : x y z
#
# Youngs Moduli (GPa) = 82.59960 78.45150 88.23036
#
# Poissons Ratio (x) = 0.28806 0.12982
# Poissons Ratio (y) = 0.30329 0.38240
# Poissons Ratio (z) = 0.12154 0.34002
#
# Static dielectric constant tensor:
#      x y z
#    x 3.565980 0.000000 0.000000 
#    y 0.000000 3.542700 0.000000 
#    z 0.000000 0.000000 3.398940 
# 
# 
# High freq. dielectric constant tensor:
#      x y z
#    x 1.761540 0.000000 0.000000 
#    y 0.000000 1.748530 0.000000 
#    z 0.000000 0.000000 1.744070 
# 
# From -- ./inp_files/63749.got.cif
#   From: 2010.06.25/outbox.cif.g09.slc.cpg/sg71_32_cif.got.tgz:63749.got - 2010.06.28 04:59:45.
