data_PCOD8291089
_publ_section_title
;
Structure prediction by ZEFSAII (Michael W. Deem and Ramdas Pophale) SiO2 
 PCOD8291089
Probable space group: I M M M
;
_chemical_formula_sum "Si O2"
_cell_formula_units_Z 120
_cell_length_a 9.112099
_cell_length_b 27.758589
_cell_length_c 26.236252
_cell_angle_alpha 90.000000
_cell_angle_beta 90.000000
_cell_angle_gamma 90.000000
_cell_volume 6636.171635
_symmetry_space_group_name_H-M "I M M M"
_symmetry_group_IT_number 71
_symmetry_cell_setting 'orthorhombic'
loop_
_space_group_symop_operation_xyz
x,y,z
-x,-y,z
x,-y,-z
-x,y,-z
-x,-y,-z
x,y,-z
-x,y,z
x,-y,z
1/2+x,1/2+y,1/2+z
1/2-x,1/2-y,1/2+z
1/2+x,1/2-y,1/2-z
1/2-x,1/2+y,1/2-z
1/2-x,1/2-y,1/2-z
1/2+x,1/2+y,1/2-z
1/2-x,1/2+y,1/2+z
1/2+x,1/2-y,1/2+z
loop_
_atom_site_type_symbol
_atom_site_label
_atom_site_fract_x
_atom_site_fract_y
_atom_site_fract_z
Si Si1 0.831504 0.383815 0.202728
Si Si2 0.665084 0.214852 0.559307
Si Si3 0.172867 0.944673 0.500000
Si Si4 0.671177 0.809646 0.059092
Si Si5 0.671964 0.637212 0.354534
Si Si6 0.327514 0.300944 0.256465
Si Si7 0.829621 0.555040 0.700739
Si Si8 0.169373 0.390001 0.910781
O O1 0.730715 0.337513 0.213527
O O2 0.798140 0.426527 0.242162
O O3 0.798514 0.406245 0.147098
O O4 0.000000 0.366295 0.206150
O O5 0.677002 0.203171 0.500000
O O6 0.500000 0.231099 0.574090
O O7 0.775270 0.256766 0.576014
O O8 0.711013 0.166387 0.588016
O O9 0.232675 0.920524 0.551116
O O10 0.000000 0.938494 0.500000
O O11 0.221991 0.000000 0.500000
O O12 0.500000 0.813347 0.070192
O O13 0.755007 0.849276 0.091927
O O14 0.709139 0.819030 0.000000
O O15 0.500000 0.632141 0.362471
O O16 0.710929 0.677270 0.312000
O O17 0.735046 0.585378 0.339154
O O18 0.500000 0.294125 0.249104
O O19 0.250000 0.250000 0.250000
O O20 0.778091 0.500000 0.697385
O O21 0.000000 0.560861 0.686674
O O22 0.000000 0.397369 0.926586
#
# Coordination Sequence:
#
# PCOD8291089 Si02
#       8
#    16  16   8  16  16  16  16  16
#     4   9  19  34  54  81 109 137 177 226 274 326
#     4   9  17  31  50  73 104 140 179 220 264 312
#     4  11  25  41  55  75 105 141 183 235 290 337
#     4  10  21  35  53  81 113 146 183 219 262 317
#     4  10  21  36  55  80 110 145 183 222 266 318
#     4  10  21  35  51  75 109 148 186 222 268 322
#     4   9  18  35  58  82 109 140 176 222 274 325
#     4  10  20  36  57  79 104 139 182 230 278 331
#
# _framework density 18.082713999999999
#
# number of rings (size 3 to 8) (size 9 to 14) (size 15 to 20)
#    0.000    2.333    0.667    1.400    1.867    4.800 
#    0.000    1.333    0.000    0.400    0.000    2.800 
#    0.000    0.000    0.000    0.000    0.000    0.000 
#
# Total GULP energy -744154.111153 kJ/mol
# GULP energy per Si atom -12402.568519 kJ/mol
# Density = 1.804156 g / cm^3
# Si number density = 18.082714 Si / 1000 Ang^3
#
#
#
# Elastic Constant Matrix: (Units=GPa)
#
#
# Indices 1 2 3 4 5 6 
#
# 1 89.4542 67.0242 53.3436 0.0000 0.0000 0.0000
# 2 67.0242 125.9475 60.0994 0.0000 0.0000 0.0000
# 3 53.3436 60.0994 96.4940 0.0000 0.0000 0.0000
# 4 0.0000 0.0000 0.0000 18.9077 0.0000 0.0000
# 5 0.0000 0.0000 0.0000 0.0000 25.8053 0.0000
# 6 0.0000 0.0000 0.0000 0.0000 0.0000 31.4708
#
#
#
# Elastic Compliance Matrix: (Units=1/GPa)
#
#
# Indices 1 2 3 4 5 6 
#
# 1 0.021250 -0.008115 -0.006694 0.000000 0.000000 0.000000
# 2 -0.008115 0.014396 -0.004480 0.000000 0.000000 0.000000
# 3 -0.006694 -0.004480 0.016854 0.000000 0.000000 0.000000
# 4 0.000000 0.000000 0.000000 0.052888 0.000000 0.000000
# 5 0.000000 0.000000 0.000000 0.000000 0.038752 0.000000
# 6 0.000000 0.000000 0.000000 0.000000 0.000000 0.031775
#
#
# Mechanical properties :
#
#
# Convention : Reuss Voigt Hill
#
# Bulk Modulus (GPa) = 71.82111 74.75888 73.28999
# Shear Modulus (GPa) = 22.81706 23.99867 23.40787
#
# Velocity S-wave (km/s) = 3.55606 3.64697 3.60180
# Velocity P-wave (km/s) = 7.52762 7.69197 7.61024
#
# Compressibility (1/GPa) = 0.01392348
#
# Stress axis : x y z
#
# Youngs Moduli (GPa) = 47.05816 69.46377 59.33248
#
# Poissons Ratio (x) = 0.56367 0.39715
# Poissons Ratio (y) = 0.38186 0.26583
# Poissons Ratio (z) = 0.31499 0.31123
#
# Static dielectric constant tensor:
#      x y z
#    x 3.354150 0.000000 0.000000 
#    y 0.000000 3.248680 0.000000 
#    z 0.000000 0.000000 3.362830 
# 
# 
# High freq. dielectric constant tensor:
#      x y z
#    x 1.702320 0.000000 0.000000 
#    y 0.000000 1.689280 0.000000 
#    z 0.000000 0.000000 1.698670 
# 
# From -- ./inp_files/63762.got.cif
#   From: 2010.06.25/outbox.cif.g09.slc.cpg/sg71_32_cif.got.tgz:63762.got - 2010.06.28 04:59:45.
