data_PCOD8291812
_publ_section_title
;
Structure prediction by ZEFSAII (Michael W. Deem and Ramdas Pophale) SiO2 
 PCOD8291812
Probable space group: I M M M
;
_chemical_formula_sum "Si O2"
_cell_formula_units_Z 104
_cell_length_a 9.169976
_cell_length_b 28.667555
_cell_length_c 19.786458
_cell_angle_alpha 90.000000
_cell_angle_beta 90.000000
_cell_angle_gamma 90.000000
_cell_volume 5201.479737
_symmetry_space_group_name_H-M "I M M M"
_symmetry_group_IT_number 71
_symmetry_cell_setting 'orthorhombic'
loop_
_space_group_symop_operation_xyz
x,y,z
-x,-y,z
x,-y,-z
-x,y,-z
-x,-y,-z
x,y,-z
-x,y,z
x,-y,z
1/2+x,1/2+y,1/2+z
1/2-x,1/2-y,1/2+z
1/2+x,1/2-y,1/2-z
1/2-x,1/2+y,1/2-z
1/2-x,1/2-y,1/2-z
1/2+x,1/2+y,1/2-z
1/2-x,1/2+y,1/2+z
1/2+x,1/2-y,1/2+z
loop_
_atom_site_type_symbol
_atom_site_label
_atom_site_fract_x
_atom_site_fract_y
_atom_site_fract_z
Si Si1 0.663614 0.119173 0.786830
Si Si2 0.327981 0.553664 0.811659
Si Si3 0.837470 0.414233 0.573435
Si Si4 0.330475 0.371363 0.077632
Si Si5 0.673315 0.221563 0.806860
Si Si6 0.328336 0.775438 0.578991
Si Si7 0.341596 0.500000 0.580280
O O1 0.500000 0.107190 0.762689
O O2 0.766092 0.080032 0.754171
O O3 0.670483 0.124126 0.868944
O O4 0.710180 0.171618 0.772752
O O5 0.500000 0.552324 0.803851
O O6 0.268931 0.500000 0.817149
O O7 0.282285 0.583903 0.877603
O O8 0.780469 0.395874 0.500000
O O9 0.740660 0.454797 0.605376
O O10 0.000000 0.433967 0.564367
O O11 0.500000 0.359156 0.089547
O O12 0.236762 0.326161 0.098790
O O13 0.300414 0.385160 0.000000
O O14 0.500000 0.229557 0.813546
O O15 0.750000 0.250000 0.750000
O O16 0.748471 0.234553 0.878591
O O17 0.299412 0.765054 0.500000
O O18 0.500000 0.775792 0.595765
O O19 0.500000 0.500000 0.614074
O O20 0.348293 0.500000 0.500000
#
# Coordination Sequence:
#
# PCOD8291812 Si02
#       7
#    16  16  16  16  16  16   8
#     4  10  23  39  56  80 108 144 188 234 282 333
#     4  10  22  38  56  82 115 150 188 234 288 341
#     4   9  18  34  54  74  99 134 177 222 265 311
#     4   9  18  35  60  87 115 150 191 232 278 338
#     4  11  23  39  60  85 114 150 193 239 288 345
#     4  10  21  37  59  89 123 155 189 234 289 349
#     4   9  17  29  47  73 101 129 164 207 256 307
#
# _framework density 19.994311
#
# number of rings (size 3 to 8) (size 9 to 14) (size 15 to 20)
#    0.000    2.231    0.000    2.077    1.077    8.000 
#    0.000    3.077    0.000    1.846    0.000    3.231 
#    0.000    0.000    0.000    0.000    0.000    0.000 
#
# Total GULP energy -644240.252141 kJ/mol
# GULP energy per Si atom -12389.235618 kJ/mol
# Density = 1.994880 g / cm^3
# Si number density = 19.994311 Si / 1000 Ang^3
#
#
#
# Elastic Constant Matrix: (Units=GPa)
#
#
# Indices 1 2 3 4 5 6 
#
# 1 76.5058 33.3299 32.2738 0.0000 0.0000 0.0000
# 2 33.3299 83.8798 36.3941 0.0001 0.0000 0.0000
# 3 32.2738 36.3941 94.8742 0.0005 0.0000 0.0000
# 4 0.0000 0.0001 0.0005 31.8265 0.0000 0.0000
# 5 0.0000 0.0000 0.0000 0.0000 31.4469 0.0000
# 6 0.0000 0.0000 0.0000 0.0000 0.0000 29.6169
#
#
#
# Elastic Compliance Matrix: (Units=1/GPa)
#
#
# Indices 1 2 3 4 5 6 
#
# 1 0.016878 -0.005057 -0.003801 0.000000 0.000000 0.000000
# 2 -0.005057 0.015818 -0.004347 0.000000 0.000000 0.000000
# 3 -0.003801 -0.004347 0.013501 0.000000 0.000000 0.000000
# 4 0.000000 0.000000 0.000000 0.031420 0.000000 0.000000
# 5 0.000000 0.000000 0.000000 0.000000 0.031800 0.000000
# 6 0.000000 0.000000 0.000000 0.000000 0.000000 0.033765
#
#
# Mechanical properties :
#
#
# Convention : Reuss Voigt Hill
#
# Bulk Modulus (GPa) = 50.54451 51.02840 50.78645
# Shear Modulus (GPa) = 28.37889 28.79552 28.58720
#
# Velocity S-wave (km/s) = 3.77151 3.79909 3.78533
# Velocity P-wave (km/s) = 6.65583 6.69485 6.67537
#
# Compressibility (1/GPa) = 0.01978454
#
# Stress axis : x y z
#
# Youngs Moduli (GPa) = 59.25003 63.22109 74.06791
#
# Poissons Ratio (x) = 0.31971 0.28157
# Poissons Ratio (y) = 0.29963 0.32200
# Poissons Ratio (z) = 0.22524 0.27485
#
# Static dielectric constant tensor:
#      x y z
#    x 3.704660 0.000000 0.000000 
#    y 0.000000 2.190340 0.000020 
#    z 0.000000 0.000020 3.135900 
# 
# 
# High freq. dielectric constant tensor:
#      x y z
#    x 1.776660 0.000000 0.000000 
#    y 0.000000 1.773010 0.000000 
#    z 0.000000 0.000000 1.790690 
# 
# From -- ./inp_files/14997.got.cif
#   From: 2010.06.25/outbox.cif.g09.slc.cpg/sg71_8_cif.got.tgz:14997.got - 2010.06.28 04:59:45.
