data_PCOD8291408
_publ_section_title
;
Structure prediction by ZEFSAII (Michael W. Deem and Ramdas Pophale) SiO2 
 PCOD8291408
Probable space group: I M M M
;
_chemical_formula_sum "Si O2"
_cell_formula_units_Z 88
_cell_length_a 24.349601
_cell_length_b 10.047119
_cell_length_c 18.650623
_cell_angle_alpha 90.000000
_cell_angle_beta 90.000000
_cell_angle_gamma 90.000000
_cell_volume 4562.750682
_symmetry_space_group_name_H-M "I M M M"
_symmetry_group_IT_number 71
_symmetry_cell_setting 'orthorhombic'
loop_
_space_group_symop_operation_xyz
x,y,z
-x,-y,z
x,-y,-z
-x,y,-z
-x,-y,-z
x,y,-z
-x,y,z
x,-y,z
1/2+x,1/2+y,1/2+z
1/2-x,1/2-y,1/2+z
1/2+x,1/2-y,1/2-z
1/2-x,1/2+y,1/2-z
1/2-x,1/2-y,1/2-z
1/2+x,1/2+y,1/2-z
1/2-x,1/2+y,1/2+z
1/2+x,1/2-y,1/2+z
loop_
_atom_site_type_symbol
_atom_site_label
_atom_site_fract_x
_atom_site_fract_y
_atom_site_fract_z
Si Si1 0.061308 0.650583 0.162545
Si Si2 0.844033 0.151733 0.151453
Si Si3 0.934851 0.500000 0.578842
Si Si4 0.768746 0.652782 0.418135
Si Si5 0.938742 0.264393 0.676903
Si Si6 0.171230 0.852166 0.312102
O O1 0.077360 0.500000 0.140503
O O2 0.105434 0.752824 0.129432
O O3 0.060869 0.658837 0.248152
O O4 0.000000 0.685299 0.133538
O O5 0.796473 0.169911 0.093093
O O6 0.818082 0.188527 0.229304
O O7 0.866148 0.000000 0.153107
O O8 0.908139 0.500000 0.500000
O O9 0.915454 0.367291 0.618327
O O10 0.000000 0.500000 0.576319
O O11 0.782168 0.692117 0.500000
O O12 0.786248 0.500000 0.402456
O O13 0.800544 0.748015 0.364252
O O14 0.895053 0.144837 0.676960
O O15 0.000000 0.210479 0.658582
O O16 0.193899 0.000000 0.328427
#
# Coordination Sequence:
#
# PCOD8291408 Si02
#       6
#    16  16   8  16  16  16
#     4   9  16  28  50  79 108 135 166 206 251 301
#     4   9  19  35  54  78 106 135 170 211 258 309
#     4   9  16  26  42  64  90 126 171 209 238 278
#     4  10  22  39  57  75  98 133 176 220 261 305
#     4   9  17  30  47  70 102 136 170 208 249 296
#     4  10  21  34  52  79 106 134 167 211 265 314
#
# _framework density 19.286612000000002
#
# number of rings (size 3 to 8) (size 9 to 14) (size 15 to 20)
#    0.000    2.636    0.909    0.545    1.273    3.273 
#    0.000    3.636    0.000    0.545    0.000    7.636 
#    0.000    0.000    0.000    0.000    0.000    0.000 
#
# Total GULP energy -545405.602649 kJ/mol
# GULP energy per Si atom -12395.581878 kJ/mol
# Density = 1.924272 g / cm^3
# Si number density = 19.286612 Si / 1000 Ang^3
#
#
#
# Elastic Constant Matrix: (Units=GPa)
#
#
# Indices 1 2 3 4 5 6 
#
# 1 69.4500 45.8983 7.8339 0.0000 0.0000 0.0000
# 2 45.8983 93.3276 17.9821 0.0000 0.0000 0.0000
# 3 7.8339 17.9821 32.7890 0.0000 0.0000 0.0000
# 4 0.0000 0.0000 0.0000 19.0127 0.0000 0.0000
# 5 0.0000 0.0000 0.0000 0.0000 14.1573 0.0000
# 6 0.0000 0.0000 0.0000 0.0000 0.0000 36.4245
#
#
#
# Elastic Compliance Matrix: (Units=1/GPa)
#
#
# Indices 1 2 3 4 5 6 
#
# 1 0.021348 -0.010641 0.000735 0.000000 0.000000 0.000000
# 2 -0.010641 0.017285 -0.006937 0.000000 0.000000 0.000000
# 3 0.000735 -0.006937 0.034127 0.000000 0.000000 0.000000
# 4 0.000000 0.000000 0.000000 0.052596 0.000000 0.000000
# 5 0.000000 0.000000 0.000000 0.000000 0.070635 0.000000
# 6 0.000000 0.000000 0.000000 0.000000 0.000000 0.027454
#
#
# Mechanical properties :
#
#
# Convention : Reuss Voigt Hill
#
# Bulk Modulus (GPa) = 25.59220 37.66616 31.62918
# Shear Modulus (GPa) = 18.50791 22.17572 20.34181
#
# Velocity S-wave (km/s) = 3.10114 3.39455 3.25116
# Velocity P-wave (km/s) = 5.11087 5.91067 5.52526
#
# Compressibility (1/GPa) = 0.03907441
#
# Stress axis : x y z
#
# Youngs Moduli (GPa) = 46.84250 57.85511 29.30254
#
# Poissons Ratio (x) = 0.61561 -0.02154
# Poissons Ratio (y) = 0.49843 0.20327
# Poissons Ratio (z) = -0.03443 0.40134
#
# Static dielectric constant tensor:
#      x y z
#    x 3.585060 0.000000 0.000000 
#    y 0.000000 3.388570 0.000000 
#    z 0.000000 0.000000 3.384030 
# 
# 
# High freq. dielectric constant tensor:
#      x y z
#    x 1.754260 0.000000 0.000000 
#    y 0.000000 1.739800 0.000000 
#    z 0.000000 0.000000 1.722030 
# 
# From -- ./inp_files/55545.got.cif
#   From: 2010.06.25/outbox.cif.g09.slc.cpg/sg71_28_cif.got.tgz:55545.got - 2010.06.28 04:59:45.
