data_PCOD8291423
_publ_section_title
;
Structure prediction by ZEFSAII (Michael W. Deem and Ramdas Pophale) SiO2 
 PCOD8291423
Probable space group: I M M M
;
_chemical_formula_sum "Si O2"
_cell_formula_units_Z 104
_cell_length_a 13.000878
_cell_length_b 26.682192
_cell_length_c 16.949004
_cell_angle_alpha 90.000000
_cell_angle_beta 90.000000
_cell_angle_gamma 90.000000
_cell_volume 5879.472590
_symmetry_space_group_name_H-M "I M M M"
_symmetry_group_IT_number 71
_symmetry_cell_setting 'orthorhombic'
loop_
_space_group_symop_operation_xyz
x,y,z
-x,-y,z
x,-y,-z
-x,y,-z
-x,-y,-z
x,y,-z
-x,y,z
x,-y,z
1/2+x,1/2+y,1/2+z
1/2-x,1/2-y,1/2+z
1/2+x,1/2-y,1/2-z
1/2-x,1/2+y,1/2-z
1/2-x,1/2-y,1/2-z
1/2+x,1/2+y,1/2-z
1/2-x,1/2+y,1/2+z
1/2+x,1/2-y,1/2+z
loop_
_atom_site_type_symbol
_atom_site_label
_atom_site_fract_x
_atom_site_fract_y
_atom_site_fract_z
Si Si1 0.117872 0.607717 0.406190
Si Si2 0.877614 0.944649 0.170010
Si Si3 0.386792 0.580801 0.500000
Si Si4 0.881149 0.791648 0.588683
Si Si5 0.612819 0.698850 0.500000
Si Si6 0.119519 0.847895 0.736682
Si Si7 0.753108 0.298137 0.642693
Si Si8 0.378269 0.000000 0.086592
O O1 0.133672 0.606128 0.500000
O O2 0.190777 0.649322 0.370759
O O3 0.149775 0.552671 0.369290
O O4 0.000000 0.620635 0.385120
O O5 0.829888 0.935364 0.081648
O O6 0.842873 0.902710 0.233563
O O7 0.000000 0.941867 0.162702
O O8 0.841251 0.000000 0.198235
O O9 0.500000 0.556019 0.500000
O O10 0.395898 0.639713 0.500000
O O11 0.833952 0.798288 0.500000
O O12 0.865654 0.842081 0.641690
O O13 0.834697 0.746515 0.640489
O O14 0.000000 0.778611 0.579390
O O15 0.500000 0.723541 0.500000
O O16 0.671770 0.717059 0.423436
O O17 0.189281 0.804463 0.776624
O O18 0.000000 0.839118 0.759951
O O19 0.500000 0.000000 0.074073
O O20 0.326125 0.000000 0.000000
#
# Coordination Sequence:
#
# PCOD8291423 Si02
#       8
#    16  16   8  16   8  16  16   8
#     4   9  16  27  43  65  93 128 168 207 239 270
#     4   9  16  27  44  65  93 130 164 191 222 269
#     4   9  15  26  41  61  93 132 164 184 208 256
#     4  10  21  37  55  73  91 118 164 215 258 293
#     4  11  20  29  43  66 104 140 162 188 231 289
#     4  10  21  35  50  70 100 132 161 200 246 293
#     4  12  19  31  48  73  97 129 165 197 238 288
#     4   7  12  24  40  58  88 126 163 204 241 267
#
# _framework density 17.688661
#
# number of rings (size 3 to 8) (size 9 to 14) (size 15 to 20)
#    0.000    2.231    3.077    2.538    0.000    2.154 
#    1.385    0.000    0.000    0.462    0.000    3.231 
#    0.000    0.000    0.000    0.000    0.000    5.077 
#
# Total GULP energy -644193.541904 kJ/mol
# GULP energy per Si atom -12388.337344 kJ/mol
# Density = 1.764840 g / cm^3
# Si number density = 17.688661 Si / 1000 Ang^3
#
#
#
# Elastic Constant Matrix: (Units=GPa)
#
#
# Indices 1 2 3 4 5 6 
#
# 1 42.1302 18.3951 24.8390 -0.0001 0.0000 0.0000
# 2 18.3951 90.1039 51.4355 0.0006 0.0000 0.0000
# 3 24.8390 51.4355 91.5751 0.0007 0.0000 0.0000
# 4 -0.0001 0.0006 0.0007 18.0566 0.0000 0.0000
# 5 0.0000 0.0000 0.0000 0.0000 16.9717 0.0000
# 6 0.0000 0.0000 0.0000 0.0000 0.0000 14.7465
#
#
#
# Elastic Compliance Matrix: (Units=1/GPa)
#
#
# Indices 1 2 3 4 5 6 
#
# 1 0.028514 -0.002070 -0.006572 0.000000 0.000000 0.000000
# 2 -0.002070 0.016486 -0.008699 0.000000 0.000000 0.000000
# 3 -0.006572 -0.008699 0.017588 0.000000 0.000000 0.000000
# 4 0.000000 0.000000 0.000000 0.055381 0.000000 0.000000
# 5 0.000000 0.000000 0.000000 0.000000 0.058922 0.000000
# 6 0.000000 0.000000 0.000000 0.000000 0.000000 0.067813
#
#
# Mechanical properties :
#
#
# Convention : Reuss Voigt Hill
#
# Bulk Modulus (GPa) = 35.83116 45.90539 40.86828
# Shear Modulus (GPa) = 17.31975 18.56426 17.94200
#
# Velocity S-wave (km/s) = 3.13252 3.24311 3.18830
# Velocity P-wave (km/s) = 5.77790 6.32708 6.05872
#
# Compressibility (1/GPa) = 0.02790867
#
# Stress axis : x y z
#
# Youngs Moduli (GPa) = 35.07024 60.65588 56.85597
#
# Poissons Ratio (x) = 0.12555 0.37364
# Poissons Ratio (y) = 0.07259 0.49457
# Poissons Ratio (z) = 0.23047 0.52762
#
# Static dielectric constant tensor:
#      x y z
#    x 3.555800 0.000000 0.000000 
#    y 0.000000 3.407830 0.000000 
#    z 0.000000 0.000000 2.801230 
# 
# 
# High freq. dielectric constant tensor:
#      x y z
#    x 1.697870 0.000000 0.000000 
#    y 0.000000 1.670920 0.000000 
#    z 0.000000 0.000000 1.636890 
# 
# From -- ./inp_files/45173.got.cif
#   From: 2010.06.25/outbox.cif.g09.slc.cpg/sg71_23_cif.got.tgz:45173.got - 2010.06.28 04:59:45.
