data_PCOD8291774
_publ_section_title
;
Structure prediction by ZEFSAII (Michael W. Deem and Ramdas Pophale) SiO2 
 PCOD8291774
Probable space group: I M M M
;
_chemical_formula_sum "Si O2"
_cell_formula_units_Z 88
_cell_length_a 8.919360
_cell_length_b 17.747342
_cell_length_c 27.282679
_cell_angle_alpha 90.000000
_cell_angle_beta 90.000000
_cell_angle_gamma 90.000000
_cell_volume 4318.709826
_symmetry_space_group_name_H-M "I M M M"
_symmetry_group_IT_number 71
_symmetry_cell_setting 'orthorhombic'
loop_
_space_group_symop_operation_xyz
x,y,z
-x,-y,z
x,-y,-z
-x,y,-z
-x,-y,-z
x,y,-z
-x,y,z
x,-y,z
1/2+x,1/2+y,1/2+z
1/2-x,1/2-y,1/2+z
1/2+x,1/2-y,1/2-z
1/2-x,1/2+y,1/2-z
1/2-x,1/2-y,1/2-z
1/2+x,1/2+y,1/2-z
1/2-x,1/2+y,1/2+z
1/2+x,1/2-y,1/2+z
loop_
_atom_site_type_symbol
_atom_site_label
_atom_site_fract_x
_atom_site_fract_y
_atom_site_fract_z
Si Si1 0.678536 0.000000 0.557996
Si Si2 0.325050 0.414244 0.601584
Si Si3 0.832123 0.286254 0.444924
Si Si4 0.822228 0.858302 0.613701
Si Si5 0.334321 0.911815 0.198542
Si Si6 0.176367 0.822736 0.724501
O O1 0.740061 0.072430 0.587249
O O2 0.500000 0.000000 0.561394
O O3 0.728030 0.000000 0.500000
O O4 0.500000 0.408769 0.611486
O O5 0.278720 0.500000 0.588805
O O6 0.274568 0.359515 0.558001
O O7 0.240330 0.381073 0.649015
O O8 0.830848 0.256789 0.500000
O O9 0.770362 0.217515 0.413159
O O10 0.000000 0.309162 0.428323
O O11 0.770193 0.843656 0.669676
O O12 0.000000 0.872634 0.609998
O O13 0.500000 0.875062 0.204530
O O14 0.227435 0.894041 0.243912
O O15 0.348475 0.000000 0.194466
O O16 0.250000 0.750000 0.750000
O O17 0.000000 0.811283 0.725819
#
# Coordination Sequence:
#
# PCOD8291774 Si02
#       6
#     8  16  16  16  16  16
#     4  11  25  43  65  95 127 161 209 269 326 379
#     4  10  21  37  58  86 120 159 201 248 301 359
#     4  10  21  38  61  87 116 154 202 253 305 365
#     4  10  23  42  64  90 121 161 206 253 309 374
#     4  10  21  37  58  83 115 155 194 235 288 348
#     4  11  23  38  60  90 123 158 200 248 299 360
#
# _framework density 20.376456999999998
#
# number of rings (size 3 to 8) (size 9 to 14) (size 15 to 20)
#    0.000    1.727    0.000    3.545    1.273    8.000 
#    0.000    1.818    0.000    0.000    0.000    0.000 
#    0.000    0.000    0.000    0.000    0.000    0.000 
#
# Total GULP energy -545509.445565 kJ/mol
# GULP energy per Si atom -12397.941945 kJ/mol
# Density = 2.033008 g / cm^3
# Si number density = 20.376457 Si / 1000 Ang^3
#
#
#
# Elastic Constant Matrix: (Units=GPa)
#
#
# Indices 1 2 3 4 5 6 
#
# 1 73.7409 47.0329 39.2183 0.0000 0.0000 0.0000
# 2 47.0329 107.5960 54.8179 0.0000 0.0000 0.0000
# 3 39.2183 54.8179 120.5564 0.0000 0.0000 0.0000
# 4 0.0000 0.0000 0.0000 37.1492 0.0000 0.0000
# 5 0.0000 0.0000 0.0000 0.0000 33.1230 0.0000
# 6 0.0000 0.0000 0.0000 0.0000 0.0000 35.5451
#
#
#
# Elastic Compliance Matrix: (Units=1/GPa)
#
#
# Indices 1 2 3 4 5 6 
#
# 1 0.019736 -0.006971 -0.003251 0.000000 0.000000 0.000000
# 2 -0.006971 0.014559 -0.004352 0.000000 0.000000 0.000000
# 3 -0.003251 -0.004352 0.011331 0.000000 0.000000 0.000000
# 4 0.000000 0.000000 0.000000 0.026918 0.000000 0.000000
# 5 0.000000 0.000000 0.000000 0.000000 0.030191 0.000000
# 6 0.000000 0.000000 0.000000 0.000000 0.000000 0.028133
#
#
# Mechanical properties :
#
#
# Convention : Reuss Voigt Hill
#
# Bulk Modulus (GPa) = 60.68557 64.89240 62.78899
# Shear Modulus (GPa) = 30.20998 31.88507 31.04753
#
# Velocity S-wave (km/s) = 3.85462 3.96005 3.90769
# Velocity P-wave (km/s) = 7.04682 7.26809 7.15831
#
# Compressibility (1/GPa) = 0.01647838
#
# Stress axis : x y z
#
# Youngs Moduli (GPa) = 50.66896 68.68825 88.25137
#
# Poissons Ratio (x) = 0.47882 0.28687
# Poissons Ratio (y) = 0.35321 0.38408
# Poissons Ratio (z) = 0.16470 0.29894
#
# Static dielectric constant tensor:
#      x y z
#    x 3.893380 0.000000 0.000000 
#    y 0.000000 3.702590 0.000000 
#    z 0.000000 0.000000 3.902400 
# 
# 
# High freq. dielectric constant tensor:
#      x y z
#    x 1.796300 0.000000 0.000000 
#    y 0.000000 1.801690 0.000000 
#    z 0.000000 0.000000 1.805350 
# 
# From -- ./inp_files/57534.got.cif
#   From: 2010.06.25/outbox.cif.g09.slc.cpg/sg71_29_cif.got.tgz:57534.got - 2010.06.28 04:59:45.
