data_PCOD8291079
_publ_section_title
;
Structure prediction by ZEFSAII (Michael W. Deem and Ramdas Pophale) SiO2 
 PCOD8291079
Probable space group: I M M M
;
_chemical_formula_sum "Si O2"
_cell_formula_units_Z 96
_cell_length_a 8.549998
_cell_length_b 24.064988
_cell_length_c 23.716285
_cell_angle_alpha 90.000000
_cell_angle_beta 90.000000
_cell_angle_gamma 90.000000
_cell_volume 4879.758433
_symmetry_space_group_name_H-M "I M M M"
_symmetry_group_IT_number 71
_symmetry_cell_setting 'orthorhombic'
loop_
_space_group_symop_operation_xyz
x,y,z
-x,-y,z
x,-y,-z
-x,y,-z
-x,-y,-z
x,y,-z
-x,y,z
x,-y,z
1/2+x,1/2+y,1/2+z
1/2-x,1/2-y,1/2+z
1/2+x,1/2-y,1/2-z
1/2-x,1/2+y,1/2-z
1/2-x,1/2-y,1/2-z
1/2+x,1/2+y,1/2-z
1/2-x,1/2+y,1/2+z
1/2+x,1/2-y,1/2+z
loop_
_atom_site_type_symbol
_atom_site_label
_atom_site_fract_x
_atom_site_fract_y
_atom_site_fract_z
Si Si1 0.682392 0.062994 0.334166
Si Si2 0.683633 0.128874 0.561453
Si Si3 0.316852 0.563868 0.564656
Si Si4 0.318455 0.155599 0.853598
Si Si5 0.683978 0.230728 0.364733
Si Si6 0.819479 0.838662 0.731082
O O1 0.500000 0.075958 0.322779
O O2 0.723430 0.075877 0.399539
O O3 0.785529 0.100652 0.293798
O O4 0.725755 0.000000 0.320778
O O5 0.763403 0.121635 0.500000
O O6 0.500000 0.134735 0.553908
O O7 0.745758 0.184380 0.591758
O O8 0.268910 0.576806 0.500000
O O9 0.500000 0.574085 0.572988
O O10 0.274169 0.500000 0.579276
O O11 0.224281 0.604088 0.606486
O O12 0.500000 0.151619 0.839115
O O13 0.275969 0.213872 0.883315
O O14 0.220546 0.156802 0.796395
O O15 0.500000 0.241663 0.369048
O O16 0.722197 0.209515 0.301166
O O17 0.000000 0.823555 0.724040
#
# Coordination Sequence:
#
# PCOD8291079 Si02
#       6
#    16  16  16  16  16  16
#     4   9  18  33  53  78 109 144 183 228 274 320
#     4   8  15  29  51  79 108 140 179 222 266 311
#     4   9  20  41  65  86 111 144 182 224 269 319
#     4  12  24  37  57  85 113 143 181 222 269 329
#     4  10  20  36  56  80 112 146 182 227 276 325
#     4  11  22  37  56  78 108 145 184 228 278 330
#
# _framework density 19.673103999999999
#
# number of rings (size 3 to 8) (size 9 to 14) (size 15 to 20)
#    0.000    2.167    0.000    5.500    0.000    2.667 
#    0.000    4.167    0.000   12.000    0.000    4.667 
#    0.000    0.000    0.000    0.000    0.000    0.000 
#
# Total GULP energy -595134.040762 kJ/mol
# GULP energy per Si atom -12398.625849 kJ/mol
# Density = 1.962833 g / cm^3
# Si number density = 19.673104 Si / 1000 Ang^3
#
#
#
# Elastic Constant Matrix: (Units=GPa)
#
#
# Indices 1 2 3 4 5 6 
#
# 1 59.5687 23.2136 5.6750 0.0000 0.0000 0.0000
# 2 23.2136 89.4879 6.7723 0.0000 0.0000 0.0000
# 3 5.6750 6.7723 44.0958 0.0000 0.0000 0.0000
# 4 0.0000 0.0000 0.0000 19.3953 0.0000 0.0000
# 5 0.0000 0.0000 0.0000 0.0000 22.9972 0.0000
# 6 0.0000 0.0000 0.0000 0.0000 0.0000 29.9253
#
#
#
# Elastic Compliance Matrix: (Units=1/GPa)
#
#
# Indices 1 2 3 4 5 6 
#
# 1 0.018799 -0.004749 -0.001690 0.000000 0.000000 0.000000
# 2 -0.004749 0.012506 -0.001309 0.000000 0.000000 0.000000
# 3 -0.001690 -0.001309 0.023096 0.000000 0.000000 0.000000
# 4 0.000000 0.000000 0.000000 0.051559 0.000000 0.000000
# 5 0.000000 0.000000 0.000000 0.000000 0.043484 0.000000
# 6 0.000000 0.000000 0.000000 0.000000 0.000000 0.033417
#
#
# Mechanical properties :
#
#
# Convention : Reuss Voigt Hill
#
# Bulk Modulus (GPa) = 25.70387 29.38601 27.54494
# Shear Modulus (GPa) = 23.66028 24.96298 24.31163
#
# Velocity S-wave (km/s) = 3.47172 3.56601 3.51918
# Velocity P-wave (km/s) = 5.40040 5.65021 5.52671
#
# Compressibility (1/GPa) = 0.03890465
#
# Stress axis : x y z
#
# Youngs Moduli (GPa) = 53.19467 79.96411 43.29661
#
# Poissons Ratio (x) = 0.37972 0.07317
# Poissons Ratio (y) = 0.25260 0.05670
# Poissons Ratio (z) = 0.08990 0.10471
#
# Static dielectric constant tensor:
#      x y z
#    x 3.340890 0.000000 0.000000 
#    y 0.000000 3.700960 0.000000 
#    z 0.000000 0.000000 3.756890 
# 
# 
# High freq. dielectric constant tensor:
#      x y z
#    x 1.747930 0.000000 0.000000 
#    y 0.000000 1.773930 0.000000 
#    z 0.000000 0.000000 1.764690 
# 
# From -- ./inp_files/12863.got.cif
#   From: 2010.06.25/outbox.cif.g09.slc.cpg/sg71_7_cif.got.tgz:12863.got - 2010.06.28 04:59:45.
