data_PCOD8291650
_publ_section_title
;
Structure prediction by ZEFSAII (Michael W. Deem and Ramdas Pophale) SiO2 
 PCOD8291650
Probable space group: I M M M
;
_chemical_formula_sum "Si O2"
_cell_formula_units_Z 88
_cell_length_a 21.923282
_cell_length_b 14.337765
_cell_length_c 13.814851
_cell_angle_alpha 90.000000
_cell_angle_beta 90.000000
_cell_angle_gamma 90.000000
_cell_volume 4342.434069
_symmetry_space_group_name_H-M "I M M M"
_symmetry_group_IT_number 71
_symmetry_cell_setting 'orthorhombic'
loop_
_space_group_symop_operation_xyz
x,y,z
-x,-y,z
x,-y,-z
-x,y,-z
-x,-y,-z
x,y,-z
-x,y,z
x,-y,z
1/2+x,1/2+y,1/2+z
1/2-x,1/2-y,1/2+z
1/2+x,1/2-y,1/2-z
1/2-x,1/2+y,1/2-z
1/2-x,1/2-y,1/2-z
1/2+x,1/2+y,1/2-z
1/2-x,1/2+y,1/2+z
1/2+x,1/2-y,1/2+z
loop_
_atom_site_type_symbol
_atom_site_label
_atom_site_fract_x
_atom_site_fract_y
_atom_site_fract_z
Si Si1 0.602521 0.279788 0.222525
Si Si2 0.276056 0.763532 0.887347
Si Si3 0.194986 0.600014 0.890247
Si Si4 0.668054 0.391534 0.612195
Si Si5 0.065492 0.603775 0.179091
Si Si6 0.500000 0.390292 0.113230
O O1 0.660430 0.239280 0.166274
O O2 0.621359 0.334591 0.320193
O O3 0.564161 0.186135 0.242254
O O4 0.561648 0.348120 0.158188
O O5 0.233824 0.681310 0.839886
O O6 0.238214 0.858889 0.871262
O O7 0.288638 0.746692 0.000000
O O8 0.208828 0.500000 0.839610
O O9 0.122818 0.622631 0.890657
O O10 0.216317 0.594875 0.000000
O O11 0.649562 0.372849 0.500000
O O12 0.663966 0.500000 0.638749
O O13 0.072154 0.500000 0.226821
O O14 0.000000 0.608130 0.123335
O O15 0.500000 0.500000 0.134251
O O16 0.500000 0.368103 0.000000
#
# Coordination Sequence:
#
# PCOD8291650 Si02
#       6
#    16  16  16  16  16   8
#     4  12  22  40  64  89 116 162 206 249 305 362
#     4  10  21  37  58  88 120 153 198 250 304 357
#     4   9  18  33  54  83 118 150 187 240 296 352
#     4  10  22  39  59  89 127 161 198 245 299 366
#     4  10  21  36  56  85 118 153 196 242 292 356
#     4  11  26  46  66  90 120 155 204 262 308 352
#
# _framework density 20.265132000000001
#
# number of rings (size 3 to 8) (size 9 to 14) (size 15 to 20)
#    0.000    1.727    2.727    1.636    0.000    2.545 
#    0.000    4.091    0.000    3.818    0.000    0.000 
#    0.000    0.000    0.000    0.000    0.000    0.000 
#
# Total GULP energy -545159.389145 kJ/mol
# GULP energy per Si atom -12389.986117 kJ/mol
# Density = 2.021901 g / cm^3
# Si number density = 20.265132 Si / 1000 Ang^3
#
#
#
# Elastic Constant Matrix: (Units=GPa)
#
#
# Indices 1 2 3 4 5 6 
#
# 1 97.6116 33.9767 27.2481 0.0000 0.0000 0.0000
# 2 33.9767 133.1911 40.6209 0.0000 0.0000 0.0000
# 3 27.2481 40.6209 74.4849 0.0000 0.0000 0.0000
# 4 0.0000 0.0000 0.0000 21.6407 0.0000 0.0000
# 5 0.0000 0.0000 0.0000 0.0000 31.4951 0.0000
# 6 0.0000 0.0000 0.0000 0.0000 0.0000 29.2456
#
#
#
# Elastic Compliance Matrix: (Units=1/GPa)
#
#
# Indices 1 2 3 4 5 6 
#
# 1 0.011855 -0.002041 -0.003224 0.000000 0.000000 0.000000
# 2 -0.002041 0.009357 -0.004356 0.000000 0.000000 0.000000
# 3 -0.003224 -0.004356 0.016981 0.000000 0.000000 0.000000
# 4 0.000000 0.000000 0.000000 0.046209 0.000000 0.000000
# 5 0.000000 0.000000 0.000000 0.000000 0.031751 0.000000
# 6 0.000000 0.000000 0.000000 0.000000 0.000000 0.034193
#
#
# Mechanical properties :
#
#
# Convention : Reuss Voigt Hill
#
# Bulk Modulus (GPa) = 52.76867 56.55322 54.66094
# Shear Modulus (GPa) = 28.42432 30.03905 29.23169
#
# Velocity S-wave (km/s) = 3.74922 3.85424 3.80210
# Velocity P-wave (km/s) = 6.69611 6.91189 6.80485
#
# Compressibility (1/GPa) = 0.01895064
#
# Stress axis : x y z
#
# Youngs Moduli (GPa) = 84.35243 106.86851 58.89051
#
# Poissons Ratio (x) = 0.21812 0.18985
# Poissons Ratio (y) = 0.17216 0.25655
# Poissons Ratio (z) = 0.27193 0.46556
#
# Static dielectric constant tensor:
#      x y z
#    x 3.673350 0.000000 0.000000 
#    y 0.000000 4.138390 0.000000 
#    z 0.000000 0.000000 3.506160 
# 
# 
# High freq. dielectric constant tensor:
#      x y z
#    x 1.791280 0.000000 0.000000 
#    y 0.000000 1.812210 0.000000 
#    z 0.000000 0.000000 1.769620 
# 
# From -- ./inp_files/34405.got.cif
#   From: 2010.06.25/outbox.cif.g09.slc.cpg/sg71_18_cif.got.tgz:34405.got - 2010.06.28 04:59:45.
