data_PCOD8291487
_publ_section_title
;
Structure prediction by ZEFSAII (Michael W. Deem and Ramdas Pophale) SiO2 
 PCOD8291487
Probable space group: I M M M
;
_chemical_formula_sum "Si O2"
_cell_formula_units_Z 88
_cell_length_a 8.876941
_cell_length_b 29.715400
_cell_length_c 17.097456
_cell_angle_alpha 90.000000
_cell_angle_beta 90.000000
_cell_angle_gamma 90.000000
_cell_volume 4509.998618
_symmetry_space_group_name_H-M "I M M M"
_symmetry_group_IT_number 71
_symmetry_cell_setting 'orthorhombic'
loop_
_space_group_symop_operation_xyz
x,y,z
-x,-y,z
x,-y,-z
-x,y,-z
-x,-y,-z
x,y,-z
-x,y,z
x,-y,z
1/2+x,1/2+y,1/2+z
1/2-x,1/2-y,1/2+z
1/2+x,1/2-y,1/2-z
1/2-x,1/2+y,1/2-z
1/2-x,1/2-y,1/2-z
1/2+x,1/2+y,1/2-z
1/2-x,1/2+y,1/2+z
1/2+x,1/2-y,1/2+z
loop_
_atom_site_type_symbol
_atom_site_label
_atom_site_fract_x
_atom_site_fract_y
_atom_site_fract_z
Si Si1 0.322732 0.113900 0.369131
Si Si2 0.330129 0.552543 0.587976
Si Si3 0.678301 0.552682 0.000000
Si Si4 0.176103 0.619338 0.306006
Si Si5 0.335064 0.297243 0.090755
Si Si6 0.179139 0.699108 0.588019
O O1 0.500000 0.105041 0.375719
O O2 0.241460 0.076621 0.422333
O O3 0.258650 0.111227 0.280840
O O4 0.288117 0.164464 0.396362
O O5 0.300857 0.569463 0.500000
O O6 0.500000 0.564775 0.613772
O O7 0.302429 0.500000 0.593513
O O8 0.210427 0.575111 0.644642
O O9 0.724568 0.500000 0.000000
O O10 0.500000 0.558686 0.000000
O O11 0.247510 0.662537 0.350977
O O12 0.000000 0.626627 0.297658
O O13 0.500000 0.310151 0.126912
O O14 0.276930 0.248613 0.122088
O O15 0.359320 0.289348 0.000000
O O16 0.244295 0.690713 0.500000
O O17 0.000000 0.694424 0.584670
#
# Coordination Sequence:
#
# PCOD8291487 Si02
#       6
#    16  16   8  16  16  16
#     4  11  23  37  56  84 116 145 175 226 289 337
#     4   9  19  36  56  78 107 144 184 227 275 323
#     4  11  25  45  67  85 101 135 191 241 286 351
#     4  10  21  35  53  82 117 149 184 224 273 336
#     4   9  17  32  56  80 105 146 195 229 261 322
#     4   8  15  30  53  80 111 151 191 225 261 307
#
# _framework density 19.512201000000001
#
# number of rings (size 3 to 8) (size 9 to 14) (size 15 to 20)
#    0.000    2.455    0.909    3.000    0.000    5.091 
#    0.000    5.455    0.000    1.091    0.000    0.000 
#    0.000    0.000    0.000    0.000    0.000    0.000 
#
# Total GULP energy -545338.783499 kJ/mol
# GULP energy per Si atom -12394.063261 kJ/mol
# Density = 1.946779 g / cm^3
# Si number density = 19.512201 Si / 1000 Ang^3
#
#
#
# Elastic Constant Matrix: (Units=GPa)
#
#
# Indices 1 2 3 4 5 6 
#
# 1 36.9331 33.9735 28.3857 -0.0001 0.0000 0.0000
# 2 33.9735 122.3317 77.6874 -0.0002 0.0000 0.0000
# 3 28.3857 77.6874 115.5098 -0.0016 -0.0001 -0.0002
# 4 -0.0001 -0.0002 -0.0016 8.6126 0.0000 -0.0002
# 5 0.0000 0.0000 -0.0001 0.0000 18.2558 -0.0001
# 6 0.0000 0.0000 -0.0002 -0.0002 -0.0001 17.3473
#
#
#
# Elastic Compliance Matrix: (Units=1/GPa)
#
#
# Indices 1 2 3 4 5 6 
#
# 1 0.037317 -0.007925 -0.003841 0.000000 0.000000 0.000000
# 2 -0.007925 0.015952 -0.008781 -0.000001 0.000000 0.000000
# 3 -0.003841 -0.008781 0.015507 0.000003 0.000000 0.000000
# 4 0.000000 -0.000001 0.000003 0.116109 0.000000 0.000001
# 5 0.000000 0.000000 0.000000 0.000000 0.054777 0.000000
# 6 0.000000 0.000000 0.000000 0.000001 0.000000 0.057646
#
#
# Mechanical properties :
#
#
# Convention : Reuss Voigt Hill
#
# Bulk Modulus (GPa) = 36.12295 61.65197 48.88746
# Shear Modulus (GPa) = 14.38316 17.82501 16.10408
#
# Velocity S-wave (km/s) = 2.71797 3.02575 2.87598
# Velocity P-wave (km/s) = 5.32945 6.62360 6.01145
#
# Compressibility (1/GPa) = 0.02768323
#
# Stress axis : x y z
#
# Youngs Moduli (GPa) = 26.79721 62.68900 64.48724
#
# Poissons Ratio (x) = 0.49678 0.24768
# Poissons Ratio (y) = 0.21236 0.56627
# Poissons Ratio (z) = 0.10292 0.55048
#
# Static dielectric constant tensor:
#      x y z
#    x 3.275130 0.000000 0.000000 
#    y 0.000000 3.647630 0.000000 
#    z 0.000000 0.000000 3.762460 
# 
# 
# High freq. dielectric constant tensor:
#      x y z
#    x 1.732450 0.000000 0.000000 
#    y 0.000000 1.767840 0.000000 
#    z 0.000000 0.000000 1.756210 
# 
# From -- ./inp_files/42442.got.cif
#   From: 2010.06.25/outbox.cif.g09.slc.cpg/sg71_22_cif.got.tgz:42442.got - 2010.06.28 04:59:45.
