data_PCOD8291110
_publ_section_title
;
Structure prediction by ZEFSAII (Michael W. Deem and Ramdas Pophale) SiO2 
 PCOD8291110
Probable space group: I M M M
;
_chemical_formula_sum "Si O2"
_cell_formula_units_Z 60
_cell_length_a 10.320044
_cell_length_b 27.194064
_cell_length_c 11.593631
_cell_angle_alpha 90.000000
_cell_angle_beta 90.000000
_cell_angle_gamma 90.000000
_cell_volume 3253.682248
_symmetry_space_group_name_H-M "I M M M"
_symmetry_group_IT_number 71
_symmetry_cell_setting 'orthorhombic'
loop_
_space_group_symop_operation_xyz
x,y,z
-x,-y,z
x,-y,-z
-x,y,-z
-x,-y,-z
x,y,-z
-x,y,z
x,-y,z
1/2+x,1/2+y,1/2+z
1/2-x,1/2-y,1/2+z
1/2+x,1/2-y,1/2-z
1/2-x,1/2+y,1/2-z
1/2-x,1/2-y,1/2-z
1/2+x,1/2+y,1/2-z
1/2-x,1/2+y,1/2+z
1/2+x,1/2-y,1/2+z
loop_
_atom_site_type_symbol
_atom_site_label
_atom_site_fract_x
_atom_site_fract_y
_atom_site_fract_z
Si Si1 0.148646 0.055826 0.746467
Si Si2 0.745079 0.853180 0.865123
Si Si3 0.246835 0.443981 0.000000
Si Si4 0.500000 0.186098 0.268291
Si Si5 0.500000 0.707882 0.634009
Si Si6 0.000000 0.624761 0.000000
O O1 0.240361 0.090906 0.821536
O O2 0.165083 0.066923 0.611013
O O3 0.000000 0.064852 0.780752
O O4 0.190220 0.000000 0.775110
O O5 0.626371 0.827263 0.803359
O O6 0.874464 0.823680 0.833638
O O7 0.716861 0.854029 0.000000
O O8 0.124875 0.408907 0.000000
O O9 0.196436 0.500000 0.000000
O O10 0.500000 0.244223 0.287159
O O11 0.500000 0.158781 0.389099
O O12 0.500000 0.722758 0.500000
#
# Coordination Sequence:
#
# PCOD8291110 Si02
#       6
#    16  16   8   8   8   4
#     4  10  20  36  61  89 118 154 195 244 293 345
#     4  11  23  40  62  87 122 157 194 238 294 353
#     4  10  20  36  57  87 120 154 196 242 295 342
#     4  12  23  41  61  87 121 153 196 245 296 350
#     4  10  22  41  65  88 111 153 204 246 289 342
#     4  12  21  34  62  86 112 154 199 238 292 358
#
# _framework density 18.440645
#
# number of rings (size 3 to 8) (size 9 to 14) (size 15 to 20)
#    0.000    1.333    4.667    1.800    0.000    2.133 
#    0.000    2.000    2.933    1.600    0.000    0.000 
#    0.000    0.000    0.000    0.000    0.000    0.000 
#
# Total GULP energy -372130.213727 kJ/mol
# GULP energy per Si atom -12404.340458 kJ/mol
# Density = 1.839867 g / cm^3
# Si number density = 18.440645 Si / 1000 Ang^3
#
#
#
# Elastic Constant Matrix: (Units=GPa)
#
#
# Indices 1 2 3 4 5 6 
#
# 1 115.5643 54.7021 52.1019 0.0001 0.0005 0.0003
# 2 54.7021 126.7168 64.2125 0.0002 0.0001 0.0001
# 3 52.1019 64.2125 114.9817 -0.0012 0.0054 0.0005
# 4 0.0001 0.0002 -0.0012 28.7886 0.0008 0.0001
# 5 0.0005 0.0001 0.0054 0.0008 28.8651 -0.0004
# 6 0.0003 0.0001 0.0005 0.0001 -0.0004 20.1192
#
#
#
# Elastic Compliance Matrix: (Units=1/GPa)
#
#
# Indices 1 2 3 4 5 6 
#
# 1 0.011801 -0.003326 -0.003490 0.000000 0.000000 0.000000
# 2 -0.003326 0.011944 -0.005163 0.000000 0.000001 0.000000
# 3 -0.003490 -0.005163 0.013162 0.000001 -0.000002 0.000000
# 4 0.000000 0.000000 0.000001 0.034736 -0.000001 0.000000
# 5 0.000000 0.000001 -0.000002 -0.000001 0.034644 0.000001
# 6 0.000000 0.000000 0.000000 0.000000 0.000001 0.049704
#
#
# Mechanical properties :
#
#
# Convention : Reuss Voigt Hill
#
# Bulk Modulus (GPa) = 77.22794 77.69954 77.46374
# Shear Modulus (GPa) = 27.13500 27.97100 27.55300
#
# Velocity S-wave (km/s) = 3.84015 3.89885 3.86961
# Velocity P-wave (km/s) = 7.85063 7.90534 7.87804
#
# Compressibility (1/GPa) = 0.01294868
#
# Stress axis : x y z
#
# Youngs Moduli (GPa) = 84.73908 83.72674 75.97721
#
# Poissons Ratio (x) = 0.27845 0.26517
# Poissons Ratio (y) = 0.28182 0.39227
# Poissons Ratio (z) = 0.29575 0.43228
#
# Static dielectric constant tensor:
#      x y z
#    x 3.509510 0.000000 0.000000 
#    y 0.000000 3.482470 0.000000 
#    z 0.000000 0.000000 3.420440 
# 
# 
# High freq. dielectric constant tensor:
#      x y z
#    x 1.718380 0.000000 0.000000 
#    y 0.000000 1.725820 0.000000 
#    z 0.000000 0.000000 1.718430 
# 
# From -- ./inp_files/18328.got.cif
#   From: 2010.06.25/outbox.cif.g09.slc.cpg/sg71_10_cif.got.tgz:18328.got - 2010.06.28 04:59:45.
