data_PCOD8291611
_publ_section_title
;
Structure prediction by ZEFSAII (Michael W. Deem and Ramdas Pophale) SiO2 
 PCOD8291611
Probable space group: I M M M
;
_chemical_formula_sum "Si O2"
_cell_formula_units_Z 104
_cell_length_a 23.504509
_cell_length_b 9.108877
_cell_length_c 26.047118
_cell_angle_alpha 90.000000
_cell_angle_beta 90.000000
_cell_angle_gamma 90.000000
_cell_volume 5576.679666
_symmetry_space_group_name_H-M "I M M M"
_symmetry_group_IT_number 71
_symmetry_cell_setting 'orthorhombic'
loop_
_space_group_symop_operation_xyz
x,y,z
-x,-y,z
x,-y,-z
-x,y,-z
-x,-y,-z
x,y,-z
-x,y,z
x,-y,z
1/2+x,1/2+y,1/2+z
1/2-x,1/2-y,1/2+z
1/2+x,1/2-y,1/2-z
1/2-x,1/2+y,1/2-z
1/2-x,1/2-y,1/2-z
1/2+x,1/2+y,1/2-z
1/2-x,1/2+y,1/2+z
1/2+x,1/2-y,1/2+z
loop_
_atom_site_type_symbol
_atom_site_label
_atom_site_fract_x
_atom_site_fract_y
_atom_site_fract_z
Si Si1 0.434919 0.171333 0.877845
Si Si2 0.659379 0.328066 0.059546
Si Si3 0.641126 0.327049 0.678293
Si Si4 0.067778 0.165541 0.000000
Si Si5 0.641408 0.166858 0.783558
Si Si6 0.932545 0.666582 0.099875
Si Si7 0.237721 0.668815 0.364410
O O1 0.500000 0.223967 0.880641
O O2 0.399086 0.258284 0.920123
O O3 0.411590 0.203125 0.820750
O O4 0.428407 0.000000 0.890573
O O5 0.656449 0.500000 0.069751
O O6 0.714511 0.264836 0.088596
O O7 0.665973 0.289589 0.000000
O O8 0.631762 0.500000 0.675633
O O9 0.641064 0.279973 0.737213
O O10 0.589328 0.246078 0.650681
O O11 0.699126 0.279376 0.650003
O O12 0.091225 0.248825 0.049998
O O13 0.000000 0.165396 0.000000
O O14 0.091807 0.000000 0.000000
O O15 0.699691 0.191753 0.814063
O O16 0.637301 0.000000 0.762886
O O17 0.910318 0.500000 0.097716
O O18 0.000000 0.671600 0.101466
O O19 0.236022 0.500000 0.381981
#
# Coordination Sequence:
#
# PCOD8291611 Si02
#       7
#    16  16  16   8  16  16  16
#     4   9  19  36  57  81 110 147 189 226 266 325
#     4  10  21  36  55  81 112 144 180 228 280 324
#     4  11  22  35  54  83 111 138 179 226 273 322
#     4   9  17  33  57  79 101 131 167 211 260 307
#     4   9  18  34  55  78 108 143 178 220 270 323
#     4  10  21  37  56  78 106 142 180 216 261 319
#     4   9  20  38  57  78 105 141 182 222 269 328
#
# _framework density 18.649090999999999
#
# number of rings (size 3 to 8) (size 9 to 14) (size 15 to 20)
#    0.000    2.385    0.000    3.000    0.000    8.000 
#    1.385    3.077    0.000    0.000    0.000    0.000 
#    0.000    0.000    0.000    0.000    0.000    0.000 
#
# Total GULP energy -644956.468867 kJ/mol
# GULP energy per Si atom -12403.009017 kJ/mol
# Density = 1.860665 g / cm^3
# Si number density = 18.649091 Si / 1000 Ang^3
#
#
#
# Elastic Constant Matrix: (Units=GPa)
#
#
# Indices 1 2 3 4 5 6 
#
# 1 37.4759 36.8687 43.1031 0.0000 0.0000 0.0000
# 2 36.8687 114.4978 74.9135 0.0000 0.0000 0.0000
# 3 43.1031 74.9135 121.0975 0.0000 0.0000 0.0000
# 4 0.0000 0.0000 0.0000 39.4405 0.0000 0.0000
# 5 0.0000 0.0000 0.0000 0.0000 14.9790 0.0000
# 6 0.0000 0.0000 0.0000 0.0000 0.0000 21.5838
#
#
#
# Elastic Compliance Matrix: (Units=1/GPa)
#
#
# Indices 1 2 3 4 5 6 
#
# 1 0.048529 -0.007266 -0.012779 0.000000 0.000000 0.000000
# 2 -0.007266 0.015760 -0.007164 0.000000 0.000000 0.000000
# 3 -0.012779 -0.007164 0.017238 0.000000 0.000000 0.000000
# 4 0.000000 0.000000 0.000000 0.025355 0.000000 0.000000
# 5 0.000000 0.000000 0.000000 0.000000 0.066760 0.000000
# 6 0.000000 0.000000 0.000000 0.000000 0.000000 0.046331
#
#
# Mechanical properties :
#
#
# Convention : Reuss Voigt Hill
#
# Bulk Modulus (GPa) = 36.88474 64.76020 50.82247
# Shear Modulus (GPa) = 17.64128 23.07973 20.36051
#
# Velocity S-wave (km/s) = 3.07898 3.52174 3.30778
# Velocity P-wave (km/s) = 5.69749 7.16505 6.47300
#
# Compressibility (1/GPa) = 0.02711148
#
# Stress axis : x y z
#
# Youngs Moduli (GPa) = 20.60608 63.45034 58.01242
#
# Poissons Ratio (x) = 0.46102 0.74132
# Poissons Ratio (y) = 0.14972 0.41557
# Poissons Ratio (z) = 0.26332 0.45453
#
# Static dielectric constant tensor:
#      x y z
#    x 3.446860 0.000000 0.000000 
#    y 0.000000 3.476470 0.000000 
#    z 0.000000 0.000000 3.350280 
# 
# 
# High freq. dielectric constant tensor:
#      x y z
#    x 1.716260 0.000000 0.000000 
#    y 0.000000 1.729990 0.000000 
#    z 0.000000 0.000000 1.725000 
# 
# From -- ./inp_files/66462.got.cif
#   From: 2010.06.25/outbox.cif.g09.slc.cpg/sg71_34_cif.got.tgz:66462.got - 2010.06.28 04:59:45.
