data_PCOD8291863
_publ_section_title
;
Structure prediction by ZEFSAII (Michael W. Deem and Ramdas Pophale) SiO2 
 PCOD8291863
Probable space group: I M M M
;
_chemical_formula_sum "Si O2"
_cell_formula_units_Z 80
_cell_length_a 13.680477
_cell_length_b 18.892492
_cell_length_c 13.851742
_cell_angle_alpha 90.000000
_cell_angle_beta 90.000000
_cell_angle_gamma 90.000000
_cell_volume 3580.097721
_symmetry_space_group_name_H-M "I M M M"
_symmetry_group_IT_number 71
_symmetry_cell_setting 'orthorhombic'
loop_
_space_group_symop_operation_xyz
x,y,z
-x,-y,z
x,-y,-z
-x,y,-z
-x,-y,-z
x,y,-z
-x,y,z
x,-y,z
1/2+x,1/2+y,1/2+z
1/2-x,1/2-y,1/2+z
1/2+x,1/2-y,1/2-z
1/2-x,1/2+y,1/2-z
1/2-x,1/2-y,1/2-z
1/2+x,1/2+y,1/2-z
1/2-x,1/2+y,1/2+z
1/2+x,1/2-y,1/2+z
loop_
_atom_site_type_symbol
_atom_site_label
_atom_site_fract_x
_atom_site_fract_y
_atom_site_fract_z
Si Si1 0.696063 0.286971 0.390023
Si Si2 0.809521 0.082899 0.603250
Si Si3 0.613242 0.581710 0.304329
Si Si4 0.607750 0.784773 0.210012
Si Si5 0.107017 0.579573 0.184270
O O1 0.674444 0.265041 0.500000
O O2 0.677565 0.371452 0.377614
O O3 0.622808 0.247823 0.317100
O O4 0.807628 0.263208 0.365241
O O5 0.845129 0.115280 0.500000
O O6 0.867807 0.113455 0.695797
O O7 0.693691 0.099743 0.610545
O O8 0.829951 0.000000 0.601419
O O9 0.500000 0.589193 0.330191
O O10 0.647471 0.500000 0.312153
O O11 0.500000 0.761745 0.172104
O O12 0.612206 0.869686 0.222635
O O13 0.123710 0.500000 0.223004
O O14 0.000000 0.586638 0.133454
#
# Coordination Sequence:
#
# PCOD8291863 Si02
#       5
#    16  16  16  16  16
#     4  11  24  42  64  89 119 156 200 248 297 353
#     4   9  17  30  50  79 116 154 192 238 292 346
#     4  10  21  38  59  85 120 159 202 251 297 346
#     4  10  22  41  63  90 122 156 194 240 297 357
#     4   9  17  32  57  86 117 152 188 231 286 350
#
# _framework density 22.345759000000001
#
# number of rings (size 3 to 8) (size 9 to 14) (size 15 to 20)
#    0.000    2.200    2.000    0.600    0.000    4.000 
#    0.000    7.000    0.000    2.400    0.000    4.200 
#    0.000    0.000    0.000    0.000    0.000    0.000 
#
# Total GULP energy -495669.393784 kJ/mol
# GULP energy per Si atom -12391.734845 kJ/mol
# Density = 2.229490 g / cm^3
# Si number density = 22.345759 Si / 1000 Ang^3
#
#
#
# Elastic Constant Matrix: (Units=GPa)
#
#
# Indices 1 2 3 4 5 6 
#
# 1 109.2657 6.0597 14.1868 0.0000 0.0000 0.0000
# 2 6.0597 34.5437 -1.3853 0.0000 0.0000 0.0000
# 3 14.1868 -1.3853 83.4314 0.0000 0.0000 0.0000
# 4 0.0000 0.0000 0.0000 19.3572 0.0000 0.0000
# 5 0.0000 0.0000 0.0000 0.0000 16.5989 0.0000
# 6 0.0000 0.0000 0.0000 0.0000 0.0000 27.2728
#
#
#
# Elastic Compliance Matrix: (Units=1/GPa)
#
#
# Indices 1 2 3 4 5 6 
#
# 1 0.009460 -0.001725 -0.001637 0.000000 0.000000 0.000000
# 2 -0.001725 0.029283 0.000780 0.000000 0.000000 0.000000
# 3 -0.001637 0.000780 0.012277 0.000000 0.000000 0.000000
# 4 0.000000 0.000000 0.000000 0.051660 0.000000 0.000000
# 5 0.000000 0.000000 0.000000 0.000000 0.060245 0.000000
# 6 0.000000 0.000000 0.000000 0.000000 0.000000 0.036667
#
#
# Mechanical properties :
#
#
# Convention : Reuss Voigt Hill
#
# Bulk Modulus (GPa) = 21.80814 29.44033 25.62423
# Shear Modulus (GPa) = 22.72286 26.53776 24.63031
#
# Velocity S-wave (km/s) = 3.19231 3.44989 3.32360
# Velocity P-wave (km/s) = 4.83408 5.39189 5.12059
#
# Compressibility (1/GPa) = 0.04585444
#
# Stress axis : x y z
#
# Youngs Moduli (GPa) = 105.70532 34.14985 81.45151
#
# Poissons Ratio (x) = 0.05891 0.13336
# Poissons Ratio (y) = 0.18236 -0.06350
# Poissons Ratio (z) = 0.17307 -0.02662
#
# Static dielectric constant tensor:
#      x y z
#    x 4.129200 0.000000 0.000000 
#    y 0.000000 4.259230 0.000000 
#    z 0.000000 0.000000 3.788060 
# 
# 
# High freq. dielectric constant tensor:
#      x y z
#    x 1.883230 0.000000 0.000000 
#    y 0.000000 1.892030 0.000000 
#    z 0.000000 0.000000 1.828690 
# 
# From -- ./inp_files/34280.got.cif
#   From: 2010.06.25/outbox.cif.g09.slc.cpg/sg71_18_cif.got.tgz:34280.got - 2010.06.28 04:59:45.
