data_PCOD8291675
_publ_section_title
;
Structure prediction by ZEFSAII (Michael W. Deem and Ramdas Pophale) SiO2 
 PCOD8291675
Probable space group: I M M M
;
_chemical_formula_sum "Si O2"
_cell_formula_units_Z 88
_cell_length_a 8.834883
_cell_length_b 18.673801
_cell_length_c 28.018972
_cell_angle_alpha 90.000000
_cell_angle_beta 90.000000
_cell_angle_gamma 90.000000
_cell_volume 4622.593733
_symmetry_space_group_name_H-M "I M M M"
_symmetry_group_IT_number 71
_symmetry_cell_setting 'orthorhombic'
loop_
_space_group_symop_operation_xyz
x,y,z
-x,-y,z
x,-y,-z
-x,y,-z
-x,-y,-z
x,y,-z
-x,y,z
x,-y,z
1/2+x,1/2+y,1/2+z
1/2-x,1/2-y,1/2+z
1/2+x,1/2-y,1/2-z
1/2-x,1/2+y,1/2-z
1/2-x,1/2-y,1/2-z
1/2+x,1/2+y,1/2-z
1/2-x,1/2+y,1/2+z
1/2+x,1/2-y,1/2+z
loop_
_atom_site_type_symbol
_atom_site_label
_atom_site_fract_x
_atom_site_fract_y
_atom_site_fract_z
Si Si1 0.325670 0.885196 0.000000
Si Si2 0.823983 0.150670 0.781927
Si Si3 0.179033 0.356576 0.088632
Si Si4 0.674536 0.000000 0.078376
Si Si5 0.179349 0.000000 0.445320
Si Si6 0.677927 0.234319 0.500000
Si Si7 0.674917 0.711940 0.179160
Si Si8 0.178059 0.000000 0.820388
O O1 0.287506 0.930175 0.952744
O O2 0.222820 0.816295 0.000000
O O3 0.500000 0.862199 0.000000
O O4 0.727585 0.206699 0.812740
O O5 0.798586 0.164291 0.726100
O O6 0.000000 0.159565 0.795784
O O7 0.760807 0.071427 0.794165
O O8 0.258984 0.432335 0.083085
O O9 0.241565 0.304848 0.046935
O O10 0.222722 0.322765 0.138818
O O11 0.000000 0.367160 0.085801
O O12 0.500000 0.000000 0.093902
O O13 0.777860 0.000000 0.124518
O O14 0.238575 0.000000 0.500000
O O15 0.000000 0.000000 0.443536
O O16 0.500000 0.229651 0.500000
O O17 0.500000 0.712401 0.163670
O O18 0.000000 0.000000 0.816469
#
# Coordination Sequence:
#
# PCOD8291675 Si02
#       8
#     8  16  16   8   8   8  16   8
#     4   9  20  38  57  77 115 154 190 235 286 337
#     4   9  20  39  59  83 118 153 191 240 295 347
#     4  11  23  40  61  86 119 155 191 234 290 350
#     4   9  20  38  55  81 115 153 188 234 291 337
#     4  11  23  40  61  86 115 148 192 241 286 342
#     4  10  23  38  56  84 116 152 193 234 280 343
#     4  10  21  38  61  87 115 153 196 241 289 341
#     4  10  21  36  58  84 111 149 189 233 285 342
#
# _framework density 19.036930000000002
#
# number of rings (size 3 to 8) (size 9 to 14) (size 15 to 20)
#    0.000    2.091    0.909    1.909    2.545    4.727 
#    0.000    2.727    0.000    0.000    0.000    0.000 
#    0.000    0.000    0.000    0.000    0.000    0.000 
#
# Total GULP energy -545751.357498 kJ/mol
# GULP energy per Si atom -12403.439943 kJ/mol
# Density = 1.899360 g / cm^3
# Si number density = 19.036930 Si / 1000 Ang^3
#
#
#
# Elastic Constant Matrix: (Units=GPa)
#
#
# Indices 1 2 3 4 5 6 
#
# 1 45.5702 29.3752 25.9803 0.0000 0.0000 0.0000
# 2 29.3752 151.6513 60.1013 0.0000 0.0000 0.0000
# 3 25.9803 60.1013 100.4439 0.0000 0.0000 0.0000
# 4 0.0000 0.0000 0.0000 -2.9086 0.0000 0.0000
# 5 0.0000 0.0000 0.0000 0.0000 33.5836 0.0000
# 6 0.0000 0.0000 0.0000 0.0000 0.0000 20.4180
#
#
#
# Elastic Compliance Matrix: (Units=1/GPa)
#
#
# Indices 1 2 3 4 5 6 
#
# 1 0.026884 -0.003214 -0.005031 0.000000 0.000000 0.000000
# 2 -0.003214 0.009028 -0.004571 0.000000 0.000000 0.000000
# 3 -0.005031 -0.004571 0.013992 0.000000 0.000000 0.000000
# 4 0.000000 0.000000 0.000000 -0.343811 0.000000 0.000000
# 5 0.000000 0.000000 0.000000 0.000000 0.029776 0.000000
# 6 0.000000 0.000000 0.000000 0.000000 0.000000 0.048976
#
#
# Mechanical properties :
#
#
# Convention : Reuss Voigt Hill
#
# Bulk Modulus (GPa) = 41.19712 58.73099 49.96406
# Shear Modulus (GPa) = -27.55846 22.36585 -2.59630
#
# Velocity S-wave (km/s) = -3.80890 3.43135 -1.16910
# Velocity P-wave (km/s) = 1.53100 6.82766 4.94777
#
# Compressibility (1/GPa) = 0.02427354
#
# Stress axis : x y z
#
# Youngs Moduli (GPa) = 37.19702 110.76629 71.46977
#
# Poissons Ratio (x) = 0.35598 0.35954
# Poissons Ratio (y) = 0.11954 0.32667
# Poissons Ratio (z) = 0.18713 0.50628
#
# Static dielectric constant tensor:
#      x y z
#    x 3.399310 0.000000 0.000000 
#    y 0.000000 3.655150 0.000000 
#    z 0.000000 0.000000 3.523370 
# 
# 
# High freq. dielectric constant tensor:
#      x y z
#    x 1.737410 0.000000 0.000000 
#    y 0.000000 1.751120 0.000000 
#    z 0.000000 0.000000 1.743950 
# 
# From -- ./inp_files/68098.got.cif
#   From: 2010.06.25/outbox.cif.g09.slc.cpg/sg71_35_cif.got.tgz:68098.got - 2010.06.28 04:59:45.
