data_PCOD8291596
_publ_section_title
;
Structure prediction by ZEFSAII (Michael W. Deem and Ramdas Pophale) SiO2 
 PCOD8291596
Probable space group: I M M M
;
_chemical_formula_sum "Si O2"
_cell_formula_units_Z 88
_cell_length_a 9.263870
_cell_length_b 24.340606
_cell_length_c 20.137270
_cell_angle_alpha 90.000000
_cell_angle_beta 90.000000
_cell_angle_gamma 90.000000
_cell_volume 4540.716961
_symmetry_space_group_name_H-M "I M M M"
_symmetry_group_IT_number 71
_symmetry_cell_setting 'orthorhombic'
loop_
_space_group_symop_operation_xyz
x,y,z
-x,-y,z
x,-y,-z
-x,y,-z
-x,-y,-z
x,y,-z
-x,y,z
x,-y,z
1/2+x,1/2+y,1/2+z
1/2-x,1/2-y,1/2+z
1/2+x,1/2-y,1/2-z
1/2-x,1/2+y,1/2-z
1/2-x,1/2-y,1/2-z
1/2+x,1/2+y,1/2-z
1/2-x,1/2+y,1/2+z
1/2+x,1/2-y,1/2+z
loop_
_atom_site_type_symbol
_atom_site_label
_atom_site_fract_x
_atom_site_fract_y
_atom_site_fract_z
Si Si1 0.830043 0.061685 0.391956
Si Si2 0.827723 0.936041 0.000000
Si Si3 0.671034 0.368698 0.626882
Si Si4 0.834995 0.336057 0.072503
Si Si5 0.329283 0.439808 0.743948
Si Si6 0.828489 0.752083 0.821244
O O1 0.751620 0.107252 0.435308
O O2 0.768819 0.069921 0.317461
O O3 0.000000 0.071524 0.396285
O O4 0.793472 0.000000 0.417158
O O5 0.767193 0.901138 0.937130
O O6 0.000000 0.936939 0.000000
O O7 0.772437 0.000000 0.000000
O O8 0.500000 0.375139 0.625047
O O9 0.737636 0.396620 0.692775
O O10 0.715360 0.305098 0.634207
O O11 0.775511 0.298127 0.132342
O O12 0.000000 0.350282 0.087805
O O13 0.821076 0.306527 0.000000
O O14 0.500000 0.434003 0.747744
O O15 0.286360 0.500000 0.717856
O O16 0.750000 0.750000 0.750000
O O17 0.000000 0.751590 0.808287
#
# Coordination Sequence:
#
# PCOD8291596 Si02
#       6
#    16   8  16  16  16  16
#     4   9  18  33  54  78 102 131 171 218 265 315
#     4   9  16  24  38  68 107 139 168 207 260 324
#     4   9  16  25  42  66  96 134 169 205 254 308
#     4  10  22  37  52  73 105 141 174 213 264 323
#     4   8  13  23  41  66  95 124 157 202 254 302
#     4  10  21  36  55  77 103 139 182 226 267 316
#
# _framework density 19.380199999999999
#
# number of rings (size 3 to 8) (size 9 to 14) (size 15 to 20)
#    0.000    2.818    0.000    2.727    1.273    5.455 
#    0.000    1.818    0.000    0.000    0.000    0.000 
#    0.000    0.727    0.000    0.000    0.000    0.364 
#
# Total GULP energy -545136.747783 kJ/mol
# GULP energy per Si atom -12389.471541 kJ/mol
# Density = 1.933609 g / cm^3
# Si number density = 19.380200 Si / 1000 Ang^3
#
#
#
# Elastic Constant Matrix: (Units=GPa)
#
#
# Indices 1 2 3 4 5 6 
#
# 1 25.0015 29.9741 24.9227 0.0000 0.0000 0.0000
# 2 29.9741 133.3229 61.4522 0.0000 0.0000 0.0000
# 3 24.9227 61.4522 120.3410 0.0000 0.0000 0.0000
# 4 0.0000 0.0000 0.0000 37.0688 0.0000 0.0000
# 5 0.0000 0.0000 0.0000 0.0000 19.0831 0.0000
# 6 0.0000 0.0000 0.0000 0.0000 0.0000 19.7316
#
#
#
# Elastic Compliance Matrix: (Units=1/GPa)
#
#
# Indices 1 2 3 4 5 6 
#
# 1 0.059095 -0.009998 -0.007133 0.000000 0.000000 0.000000
# 2 -0.009998 0.011501 -0.003802 0.000000 0.000000 0.000000
# 3 -0.007133 -0.003802 0.011729 0.000000 0.000000 0.000000
# 4 0.000000 0.000000 0.000000 0.026977 0.000000 0.000000
# 5 0.000000 0.000000 0.000000 0.000000 0.052402 0.000000
# 6 0.000000 0.000000 0.000000 0.000000 0.000000 0.050680
#
#
# Mechanical properties :
#
#
# Convention : Reuss Voigt Hill
#
# Bulk Modulus (GPa) = 24.71736 56.81817 40.76777
# Shear Modulus (GPa) = 18.67508 25.99780 22.33644
#
# Velocity S-wave (km/s) = 3.10758 3.66657 3.39859
# Velocity P-wave (km/s) = 5.06535 6.87796 6.04003
#
# Compressibility (1/GPa) = 0.04045739
#
# Stress axis : x y z
#
# Youngs Moduli (GPa) = 16.92201 86.94881 85.26123
#
# Poissons Ratio (x) = 0.86932 0.60817
# Poissons Ratio (y) = 0.16919 0.32420
# Poissons Ratio (z) = 0.12070 0.33061
#
# Static dielectric constant tensor:
#      x y z
#    x 2.896270 0.000000 0.000000 
#    y 0.000000 3.717850 0.000000 
#    z 0.000000 0.000000 3.848330 
# 
# 
# High freq. dielectric constant tensor:
#      x y z
#    x 1.683830 0.000000 0.000000 
#    y 0.000000 1.764600 0.000000 
#    z 0.000000 0.000000 1.769730 
# 
# From -- ./inp_files/50514.got.cif
#   From: 2010.06.25/outbox.cif.g09.slc.cpg/sg71_26_cif.got.tgz:50514.got - 2010.06.28 04:59:45.
