data_PCOD8291698
_publ_section_title
;
Structure prediction by ZEFSAII (Michael W. Deem and Ramdas Pophale) SiO2 
 PCOD8291698
Probable space group: I M M M
;
_chemical_formula_sum "Si O2"
_cell_formula_units_Z 120
_cell_length_a 9.062892
_cell_length_b 26.969156
_cell_length_c 26.553318
_cell_angle_alpha 90.000000
_cell_angle_beta 90.000000
_cell_angle_gamma 90.000000
_cell_volume 6490.123434
_symmetry_space_group_name_H-M "I M M M"
_symmetry_group_IT_number 71
_symmetry_cell_setting 'orthorhombic'
loop_
_space_group_symop_operation_xyz
x,y,z
-x,-y,z
x,-y,-z
-x,y,-z
-x,-y,-z
x,y,-z
-x,y,z
x,-y,z
1/2+x,1/2+y,1/2+z
1/2-x,1/2-y,1/2+z
1/2+x,1/2-y,1/2-z
1/2-x,1/2+y,1/2-z
1/2-x,1/2-y,1/2-z
1/2+x,1/2+y,1/2-z
1/2-x,1/2+y,1/2+z
1/2+x,1/2-y,1/2+z
loop_
_atom_site_type_symbol
_atom_site_label
_atom_site_fract_x
_atom_site_fract_y
_atom_site_fract_z
Si Si1 0.832866 0.291299 0.946346
Si Si2 0.167696 0.940889 0.901493
Si Si3 0.667651 0.059371 0.000000
Si Si4 0.172108 0.689360 0.555608
Si Si5 0.829454 0.808142 0.154018
Si Si6 0.170609 0.557864 0.699343
Si Si7 0.174052 0.136875 0.253299
Si Si8 0.167629 0.691839 0.159841
O O1 0.718347 0.246586 0.947004
O O2 0.806170 0.327066 0.898013
O O3 0.000000 0.269243 0.940608
O O4 0.818438 0.320459 0.000000
O O5 0.254322 0.918992 0.949900
O O6 0.245038 0.922667 0.850407
O O7 0.000000 0.921602 0.902205
O O8 0.173366 0.000000 0.904366
O O9 0.500000 0.078514 0.000000
O O10 0.674336 0.000000 0.000000
O O11 0.207506 0.664694 0.500000
O O12 0.256114 0.666060 0.604246
O O13 0.000000 0.686177 0.566966
O O14 0.768842 0.831132 0.205804
O O15 0.794677 0.750026 0.158410
O O16 0.000000 0.819660 0.148922
O O17 0.193645 0.500000 0.707442
O O18 0.243465 0.584107 0.747977
O O19 0.000000 0.571835 0.693819
O O20 0.220168 0.163345 0.304638
O O21 0.000000 0.128919 0.254179
O O22 0.000000 0.682386 0.178199
#
# Coordination Sequence:
#
# PCOD8291698 Si02
#       8
#    16  16   8  16  16  16  16  16
#     4   8  14  26  44  66  95 131 166 197 231 274
#     4   9  16  27  45  68  91 114 143 184 235 289
#     4   9  15  23  39  65  93 117 143 179 229 289
#     4   9  16  25  41  66  92 121 160 204 245 284
#     4   9  19  33  48  68  96 132 168 199 237 287
#     4  10  21  37  55  72  91 119 156 199 249 301
#     4  11  22  34  50  72  98 127 163 203 244 291
#     4   9  17  30  48  72 102 134 166 197 233 278
#
# _framework density 18.489633000000001
#
# number of rings (size 3 to 8) (size 9 to 14) (size 15 to 20)
#    0.000    2.733    0.000    3.000    0.000    7.200 
#    0.000    0.000    1.467    0.000    0.000    0.000 
#    0.000    0.533    0.000    6.133    0.000    1.867 
#
# Total GULP energy -743676.092220 kJ/mol
# GULP energy per Si atom -12394.601537 kJ/mol
# Density = 1.844755 g / cm^3
# Si number density = 18.489633 Si / 1000 Ang^3
#
#
#
# Elastic Constant Matrix: (Units=GPa)
#
#
# Indices 1 2 3 4 5 6 
#
# 1 88.3622 14.0286 44.7698 0.0000 0.0000 0.0000
# 2 14.0286 16.0035 26.1855 0.0000 0.0000 0.0000
# 3 44.7698 26.1855 138.9747 0.0000 0.0000 0.0000
# 4 0.0000 0.0000 0.0000 29.8772 0.0000 0.0000
# 5 0.0000 0.0000 0.0000 0.0000 33.8301 0.0000
# 6 0.0000 0.0000 0.0000 0.0000 0.0000 16.8309
#
#
#
# Elastic Compliance Matrix: (Units=1/GPa)
#
#
# Indices 1 2 3 4 5 6 
#
# 1 0.014062 -0.007105 -0.003191 0.000000 0.000000 0.000000
# 2 -0.007105 0.093927 -0.015409 0.000000 0.000000 0.000000
# 3 -0.003191 -0.015409 0.011127 0.000000 0.000000 0.000000
# 4 0.000000 0.000000 0.000000 0.033470 0.000000 0.000000
# 5 0.000000 0.000000 0.000000 0.000000 0.029560 0.000000
# 6 0.000000 0.000000 0.000000 0.000000 0.000000 0.059415
#
#
# Mechanical properties :
#
#
# Convention : Reuss Voigt Hill
#
# Bulk Modulus (GPa) = 14.76984 45.92312 30.34648
# Shear Modulus (GPa) = 15.84594 26.66473 21.25533
#
# Velocity S-wave (km/s) = 2.93066 3.80168 3.39423
# Velocity P-wave (km/s) = 4.41103 6.64541 5.63998
#
# Compressibility (1/GPa) = 0.06770554
#
# Stress axis : x y z
#
# Youngs Moduli (GPa) = 71.11389 10.64662 89.87234
#
# Poissons Ratio (x) = 0.07564 0.28681
# Poissons Ratio (y) = 0.50526 1.38482
# Poissons Ratio (z) = 0.22694 0.16405
#
# Static dielectric constant tensor:
#      x y z
#    x 3.400150 0.000000 0.000000 
#    y 0.000000 2.969530 0.000000 
#    z 0.000000 0.000000 3.784550 
# 
# 
# High freq. dielectric constant tensor:
#      x y z
#    x 1.722250 0.000000 0.000000 
#    y 0.000000 1.673050 0.000000 
#    z 0.000000 0.000000 1.722650 
# 
# From -- ./inp_files/63769.got.cif
#   From: 2010.06.25/outbox.cif.g09.slc.cpg/sg71_32_cif.got.tgz:63769.got - 2010.06.28 04:59:45.
