data_PCOD8291515
_publ_section_title
;
Structure prediction by ZEFSAII (Michael W. Deem and Ramdas Pophale) SiO2 
 PCOD8291515
Probable space group: I M M M
;
_chemical_formula_sum "Si O2"
_cell_formula_units_Z 88
_cell_length_a 7.411009
_cell_length_b 20.220035
_cell_length_c 27.420379
_cell_angle_alpha 90.000000
_cell_angle_beta 90.000000
_cell_angle_gamma 90.000000
_cell_volume 4108.967412
_symmetry_space_group_name_H-M "I M M M"
_symmetry_group_IT_number 71
_symmetry_cell_setting 'orthorhombic'
loop_
_space_group_symop_operation_xyz
x,y,z
-x,-y,z
x,-y,-z
-x,y,-z
-x,-y,-z
x,y,-z
-x,y,z
x,-y,z
1/2+x,1/2+y,1/2+z
1/2-x,1/2-y,1/2+z
1/2+x,1/2-y,1/2-z
1/2-x,1/2+y,1/2-z
1/2-x,1/2-y,1/2-z
1/2+x,1/2+y,1/2-z
1/2-x,1/2+y,1/2+z
1/2+x,1/2-y,1/2+z
loop_
_atom_site_type_symbol
_atom_site_label
_atom_site_fract_x
_atom_site_fract_y
_atom_site_fract_z
Si Si1 0.000000 0.921339 0.558008
Si Si2 0.297534 0.428319 0.599990
Si Si3 0.714129 0.297689 0.445622
Si Si4 0.716136 0.831789 0.610840
Si Si5 0.289588 0.926210 0.208156
Si Si6 0.289923 0.816854 0.721136
O O1 0.820415 0.891370 0.583692
O O2 0.000000 0.905437 0.500000
O O3 0.000000 0.000000 0.566803
O O4 0.500000 0.433555 0.579774
O O5 0.200137 0.500000 0.590584
O O6 0.198958 0.366842 0.573557
O O7 0.308467 0.413442 0.657299
O O8 0.783955 0.285779 0.500000
O O9 0.500000 0.302768 0.442454
O O10 0.779737 0.236214 0.413990
O O11 0.500000 0.844342 0.606473
O O12 0.786492 0.822153 0.666348
O O13 0.500000 0.912847 0.199588
O O14 0.204783 0.876561 0.247670
O O15 0.253385 0.000000 0.227642
O O16 0.500000 0.827243 0.716310
O O17 0.250000 0.750000 0.750000
#
# Coordination Sequence:
#
# PCOD8291515 Si02
#       6
#     8  16  16  16  16  16
#     4  11  26  46  68  96 125 159 213 275 339 406
#     4   9  17  30  49  76 110 146 188 236 282 334
#     4   9  17  31  53  79 108 146 190 235 289 352
#     4  10  22  41  64  91 125 164 206 260 321 384
#     4   9  18  33  51  72 103 144 184 220 269 337
#     4  10  21  35  57  87 119 157 198 244 300 364
#
# _framework density 21.416573
#
# number of rings (size 3 to 8) (size 9 to 14) (size 15 to 20)
#    0.000    2.455    0.000    1.636    1.273    4.727 
#    1.636    4.545    0.000    0.000    0.000    2.545 
#    0.000    0.000    0.000    0.000    0.000    0.000 
#
# Total GULP energy -545271.363260 kJ/mol
# GULP energy per Si atom -12392.530983 kJ/mol
# Density = 2.136783 g / cm^3
# Si number density = 21.416573 Si / 1000 Ang^3
#
#
#
# Elastic Constant Matrix: (Units=GPa)
#
#
# Indices 1 2 3 4 5 6 
#
# 1 53.6677 18.3476 10.4953 0.0000 0.0000 0.0000
# 2 18.3476 162.1648 64.8743 0.0000 0.0000 0.0000
# 3 10.4953 64.8743 111.5512 0.0000 0.0000 0.0000
# 4 0.0000 0.0000 0.0000 47.6373 0.0000 0.0000
# 5 0.0000 0.0000 0.0000 0.0000 18.9721 0.0000
# 6 0.0000 0.0000 0.0000 0.0000 0.0000 21.6888
#
#
#
# Elastic Compliance Matrix: (Units=1/GPa)
#
#
# Indices 1 2 3 4 5 6 
#
# 1 0.019427 -0.001911 -0.000716 0.000000 0.000000 0.000000
# 2 -0.001911 0.008224 -0.004603 0.000000 0.000000 0.000000
# 3 -0.000716 -0.004603 0.011709 0.000000 0.000000 0.000000
# 4 0.000000 0.000000 0.000000 0.020992 0.000000 0.000000
# 5 0.000000 0.000000 0.000000 0.000000 0.052709 0.000000
# 6 0.000000 0.000000 0.000000 0.000000 0.000000 0.046107
#
#
# Mechanical properties :
#
#
# Convention : Reuss Voigt Hill
#
# Bulk Modulus (GPa) = 40.16316 57.20204 48.68260
# Shear Modulus (GPa) = 27.48331 33.23740 30.36035
#
# Velocity S-wave (km/s) = 3.58617 3.94375 3.76920
# Velocity P-wave (km/s) = 5.99512 6.89237 6.45934
#
# Compressibility (1/GPa) = 0.02489844
#
# Stress axis : x y z
#
# Youngs Moduli (GPa) = 51.47553 121.59040 85.40514
#
# Poissons Ratio (x) = 0.23242 0.06116
# Poissons Ratio (y) = 0.09840 0.39313
# Poissons Ratio (z) = 0.03686 0.55970
#
# Static dielectric constant tensor:
#      x y z
#    x 3.559130 0.000000 0.000000 
#    y 0.000000 4.156400 0.000000 
#    z 0.000000 0.000000 4.054790 
# 
# 
# High freq. dielectric constant tensor:
#      x y z
#    x 1.822810 0.000000 0.000000 
#    y 0.000000 1.849280 0.000000 
#    z 0.000000 0.000000 1.841370 
# 
# From -- ./inp_files/57531.got.cif
#   From: 2010.06.25/outbox.cif.g09.slc.cpg/sg71_29_cif.got.tgz:57531.got - 2010.06.28 04:59:45.
