data_PCOD8291194
_publ_section_title
;
Structure prediction by ZEFSAII (Michael W. Deem and Ramdas Pophale) SiO2 
 PCOD8291194
Probable space group: I M M M
;
_chemical_formula_sum "Si O2"
_cell_formula_units_Z 104
_cell_length_a 17.352738
_cell_length_b 28.513301
_cell_length_c 10.295696
_cell_angle_alpha 90.000000
_cell_angle_beta 90.000000
_cell_angle_gamma 90.000000
_cell_volume 5094.144021
_symmetry_space_group_name_H-M "I M M M"
_symmetry_group_IT_number 71
_symmetry_cell_setting 'orthorhombic'
loop_
_space_group_symop_operation_xyz
x,y,z
-x,-y,z
x,-y,-z
-x,y,-z
-x,-y,-z
x,y,-z
-x,y,z
x,-y,z
1/2+x,1/2+y,1/2+z
1/2-x,1/2-y,1/2+z
1/2+x,1/2-y,1/2-z
1/2-x,1/2+y,1/2-z
1/2-x,1/2-y,1/2-z
1/2+x,1/2+y,1/2-z
1/2-x,1/2+y,1/2+z
1/2+x,1/2-y,1/2+z
loop_
_atom_site_type_symbol
_atom_site_label
_atom_site_fract_x
_atom_site_fract_y
_atom_site_fract_z
Si Si1 0.813896 0.052681 0.140892
Si Si2 0.000000 0.554553 0.359148
Si Si3 0.090180 0.291163 0.349087
Si Si4 0.658890 0.053016 0.728232
Si Si5 0.334553 0.696825 0.149263
Si Si6 0.824176 0.347389 0.853839
Si Si7 0.412976 0.604279 0.148677
O O1 0.721547 0.052881 0.156901
O O2 0.854722 0.078365 0.258021
O O3 0.845412 0.000000 0.142176
O O4 0.832573 0.075746 0.000000
O O5 0.924239 0.568255 0.280589
O O6 0.000000 0.500000 0.385634
O O7 0.000000 0.580524 0.500000
O O8 0.111062 0.302771 0.500000
O O9 0.138062 0.246423 0.291931
O O10 0.110744 0.333692 0.251702
O O11 0.000000 0.280206 0.338140
O O12 0.682290 0.095739 0.632782
O O13 0.656795 0.000000 0.664130
O O14 0.254893 0.675141 0.204364
O O15 0.403477 0.659801 0.170222
O O16 0.319967 0.706292 0.000000
O O17 0.842577 0.328979 0.000000
O O18 0.500000 0.589913 0.182479
O O19 0.392437 0.590733 0.000000
#
# Coordination Sequence:
#
# PCOD8291194 Si02
#       7
#    16   8  16  16  16  16  16
#     4  10  21  37  57  83 119 160 199 246 306 364
#     4   9  18  34  57  83 113 153 203 255 297 341
#     4  10  22  40  63  90 119 156 200 247 300 362
#     4  10  21  38  60  88 121 161 205 248 299 361
#     4   9  18  38  63  88 117 153 198 245 298 357
#     4  11  23  39  61  90 123 158 197 248 304 357
#     4  10  20  36  60  87 115 153 202 253 301 356
#
# _framework density 20.415600000000001
#
# number of rings (size 3 to 8) (size 9 to 14) (size 15 to 20)
#    0.000    2.077    1.538    1.385    1.077    6.462 
#    0.000    3.846    0.000    3.231    0.000    0.000 
#    0.000    0.000    0.000    0.000    0.000    0.000 
#
# Total GULP energy -644265.496538 kJ/mol
# GULP energy per Si atom -12389.721087 kJ/mol
# Density = 2.036913 g / cm^3
# Si number density = 20.415600 Si / 1000 Ang^3
#
#
#
# Elastic Constant Matrix: (Units=GPa)
#
#
# Indices 1 2 3 4 5 6 
#
# 1 103.6342 39.9132 46.3013 0.0004 0.0004 0.0001
# 2 39.9132 107.2182 40.0661 -0.0034 0.0005 0.0003
# 3 46.3013 40.0661 96.5242 -0.0217 0.0002 0.0010
# 4 0.0004 -0.0034 -0.0217 22.4749 0.0006 0.0001
# 5 0.0004 0.0005 0.0002 0.0006 25.2983 -0.0004
# 6 0.0001 0.0003 0.0010 0.0001 -0.0004 30.2306
#
#
#
# Elastic Compliance Matrix: (Units=1/GPa)
#
#
# Indices 1 2 3 4 5 6 
#
# 1 0.013038 -0.002979 -0.005018 -0.000006 0.000000 0.000000
# 2 -0.002979 0.011720 -0.003436 -0.000001 0.000000 0.000000
# 3 -0.005018 -0.003436 0.014193 0.000013 0.000000 0.000000
# 4 -0.000006 -0.000001 0.000013 0.044494 -0.000001 0.000000
# 5 0.000000 0.000000 0.000000 -0.000001 0.039528 0.000001
# 6 0.000000 0.000000 0.000000 0.000000 0.000001 0.033079
#
#
# Mechanical properties :
#
#
# Convention : Reuss Voigt Hill
#
# Bulk Modulus (GPa) = 62.16404 62.21531 62.18968
# Shear Modulus (GPa) = 27.13268 27.67383 27.40325
#
# Velocity S-wave (km/s) = 3.64952 3.68574 3.66768
# Velocity P-wave (km/s) = 6.94796 6.97520 6.96159
#
# Compressibility (1/GPa) = 0.01608647
#
# Stress axis : x y z
#
# Youngs Moduli (GPa) = 76.69668 85.32772 70.45557
#
# Poissons Ratio (x) = 0.25415 0.35354
# Poissons Ratio (y) = 0.22844 0.24208
# Poissons Ratio (z) = 0.38486 0.29318
#
# Static dielectric constant tensor:
#      x y z
#    x 3.893730 0.000000 -0.000010 
#    y 0.000000 3.800270 0.000000 
#    z -0.000010 0.000000 3.431450 
# 
# 
# High freq. dielectric constant tensor:
#      x y z
#    x 1.801100 0.000000 0.000000 
#    y 0.000000 1.799330 0.000000 
#    z 0.000000 0.000000 1.771530 
# 
# From -- ./inp_files/24576.got.cif
#   From: 2010.06.25/outbox.cif.g09.slc.cpg/sg71_13_cif.got.tgz:24576.got - 2010.06.28 04:59:45.
