data_PCOD8291741
_publ_section_title
;
Structure prediction by ZEFSAII (Michael W. Deem and Ramdas Pophale) SiO2 
 PCOD8291741
Probable space group: I M M M
;
_chemical_formula_sum "Si O2"
_cell_formula_units_Z 80
_cell_length_a 20.247305
_cell_length_b 18.378131
_cell_length_c 11.548684
_cell_angle_alpha 90.000000
_cell_angle_beta 90.000000
_cell_angle_gamma 90.000000
_cell_volume 4297.353360
_symmetry_space_group_name_H-M "I M M M"
_symmetry_group_IT_number 71
_symmetry_cell_setting 'orthorhombic'
loop_
_space_group_symop_operation_xyz
x,y,z
-x,-y,z
x,-y,-z
-x,y,-z
-x,-y,-z
x,y,-z
-x,y,z
x,-y,z
1/2+x,1/2+y,1/2+z
1/2-x,1/2-y,1/2+z
1/2+x,1/2-y,1/2-z
1/2-x,1/2+y,1/2-z
1/2-x,1/2-y,1/2-z
1/2+x,1/2+y,1/2-z
1/2-x,1/2+y,1/2+z
1/2+x,1/2-y,1/2+z
loop_
_atom_site_type_symbol
_atom_site_label
_atom_site_fract_x
_atom_site_fract_y
_atom_site_fract_z
Si Si1 0.073918 0.415166 0.632109
Si Si2 0.192226 0.337750 0.717471
Si Si3 0.598562 0.420566 0.500000
Si Si4 0.573919 0.414336 0.249385
Si Si5 0.812078 0.822832 0.364105
Si Si6 0.747289 0.081176 0.000000
O O1 0.099166 0.399441 0.500000
O O2 0.073861 0.500000 0.657621
O O3 0.120826 0.376581 0.726492
O O4 0.000000 0.383988 0.646325
O O5 0.177799 0.252667 0.702787
O O6 0.239461 0.353362 0.827961
O O7 0.229966 0.372404 0.610816
O O8 0.564635 0.500000 0.500000
O O9 0.576230 0.381358 0.380719
O O10 0.675852 0.429352 0.500000
O O11 0.500000 0.400868 0.199270
O O12 0.591339 0.500000 0.251018
O O13 0.628061 0.376060 0.168967
O O14 0.813023 0.810349 0.500000
O O15 0.713655 0.000000 0.000000
#
# Coordination Sequence:
#
# PCOD8291741 Si02
#       6
#    16  16   8  16  16   8
#     4   9  17  30  53  85 112 132 165 222 283 328
#     4  11  21  36  57  81 112 145 180 226 279 329
#     4   9  17  32  57  87 112 137 183 241 283 315
#     4  10  21  37  57  81 111 149 192 237 279 321
#     4  11  24  38  53  78 113 152 187 224 272 332
#     4  11  18  31  61  91 108 135 183 235 283 321
#
# _framework density 18.616109000000002
#
# number of rings (size 3 to 8) (size 9 to 14) (size 15 to 20)
#    0.000    1.800    4.000    1.500    0.000    3.600 
#    0.000    1.000    0.000    0.600    0.000    1.400 
#    0.000    0.000    0.000    0.000    0.000    0.000 
#
# Total GULP energy -495746.152591 kJ/mol
# GULP energy per Si atom -12393.653815 kJ/mol
# Density = 1.857374 g / cm^3
# Si number density = 18.616109 Si / 1000 Ang^3
#
#
#
# Elastic Constant Matrix: (Units=GPa)
#
#
# Indices 1 2 3 4 5 6 
#
# 1 129.3759 38.7339 27.6753 0.0000 0.0000 0.0000
# 2 38.7339 59.7448 6.7303 0.0000 0.0000 0.0000
# 3 27.6753 6.7303 51.9825 0.0000 0.0000 0.0000
# 4 0.0000 0.0000 0.0000 24.1910 0.0000 0.0000
# 5 0.0000 0.0000 0.0000 0.0000 21.1916 0.0000
# 6 0.0000 0.0000 0.0000 0.0000 0.0000 23.6171
#
#
#
# Elastic Compliance Matrix: (Units=1/GPa)
#
#
# Indices 1 2 3 4 5 6 
#
# 1 0.010678 -0.006375 -0.004859 0.000000 0.000000 0.000000
# 2 -0.006375 0.020792 0.000702 0.000000 0.000000 0.000000
# 3 -0.004859 0.000702 0.021733 0.000000 0.000000 0.000000
# 4 0.000000 0.000000 0.000000 0.041338 0.000000 0.000000
# 5 0.000000 0.000000 0.000000 0.000000 0.047189 0.000000
# 6 0.000000 0.000000 0.000000 0.000000 0.000000 0.042342
#
#
# Mechanical properties :
#
#
# Convention : Reuss Voigt Hill
#
# Bulk Modulus (GPa) = 31.11553 43.04247 37.07900
# Shear Modulus (GPa) = 23.16439 24.99751 24.08095
#
# Velocity S-wave (km/s) = 3.53132 3.66838 3.60050
# Velocity P-wave (km/s) = 5.77733 6.41202 6.10293
#
# Compressibility (1/GPa) = 0.03213829
#
# Stress axis : x y z
#
# Youngs Moduli (GPa) = 93.65471 48.09570 46.01211
#
# Poissons Ratio (x) = 0.30661 0.22359
# Poissons Ratio (y) = 0.59706 -0.03231
# Poissons Ratio (z) = 0.45509 -0.03377
#
# Static dielectric constant tensor:
#      x y z
#    x 3.734800 0.000000 0.000000 
#    y 0.000000 3.330120 0.000000 
#    z 0.000000 0.000000 3.294150 
# 
# 
# High freq. dielectric constant tensor:
#      x y z
#    x 1.745600 0.000000 0.000000 
#    y 0.000000 1.705190 0.000000 
#    z 0.000000 0.000000 1.690480 
# 
# From -- ./inp_files/25592.got.cif
#   From: 2010.06.25/outbox.cif.g09.slc.cpg/sg71_13_cif.got.tgz:25592.got - 2010.06.28 04:59:45.
