data_PCOD8291726
_publ_section_title
;
Structure prediction by ZEFSAII (Michael W. Deem and Ramdas Pophale) SiO2 
 PCOD8291726
Probable space group: I M M M
;
_chemical_formula_sum "Si O2"
_cell_formula_units_Z 72
_cell_length_a 15.173431
_cell_length_b 8.010924
_cell_length_c 29.249657
_cell_angle_alpha 90.000000
_cell_angle_beta 90.000000
_cell_angle_gamma 90.000000
_cell_volume 3555.389482
_symmetry_space_group_name_H-M "I M M M"
_symmetry_group_IT_number 71
_symmetry_cell_setting 'orthorhombic'
loop_
_space_group_symop_operation_xyz
x,y,z
-x,-y,z
x,-y,-z
-x,y,-z
-x,-y,-z
x,y,-z
-x,y,z
x,-y,z
1/2+x,1/2+y,1/2+z
1/2-x,1/2-y,1/2+z
1/2+x,1/2-y,1/2-z
1/2-x,1/2+y,1/2-z
1/2-x,1/2-y,1/2-z
1/2+x,1/2+y,1/2-z
1/2-x,1/2+y,1/2+z
1/2+x,1/2-y,1/2+z
loop_
_atom_site_type_symbol
_atom_site_label
_atom_site_fract_x
_atom_site_fract_y
_atom_site_fract_z
Si Si1 0.594893 0.000000 0.446704
Si Si2 0.899905 0.809069 0.815139
Si Si3 0.714292 0.688820 0.551630
Si Si4 0.728209 0.308743 0.139822
Si Si5 0.901258 0.691229 0.717062
O O1 0.643322 0.171683 0.433414
O O2 0.500000 0.000000 0.421891
O O3 0.580666 0.000000 0.500000
O O4 0.830301 0.704182 0.844587
O O5 0.875767 0.798966 0.761398
O O6 0.000000 0.741844 0.823038
O O7 0.892002 0.000000 0.830826
O O8 0.750571 0.722746 0.500000
O O9 0.675298 0.500000 0.553943
O O10 0.788140 0.713723 0.591000
O O11 0.702048 0.500000 0.133604
O O12 0.665424 0.224314 0.176350
O O13 0.894250 0.500000 0.732185
O O14 0.000000 0.736005 0.700337
#
# Coordination Sequence:
#
# PCOD8291726 Si02
#       5
#     8  16  16  16  16
#     4   9  18  34  54  78 109 145 187 233 284 340
#     4  10  21  37  56  81 115 152 191 235 284 340
#     4  10  21  38  58  81 112 150 194 241 290 343
#     4  12  23  36  58  84 114 152 194 238 288 348
#     4  10  21  38  59  83 113 147 188 239 292 347
#
# _framework density 20.250945999999999
#
# number of rings (size 3 to 8) (size 9 to 14) (size 15 to 20)
#    0.000    1.667    1.111    4.000    0.000    4.000 
#    0.000    2.222    0.000    0.667    0.000    4.667 
#    0.000    0.000    0.000    0.000    0.000    0.000 
#
# Total GULP energy -446200.501377 kJ/mol
# GULP energy per Si atom -12394.458372 kJ/mol
# Density = 2.020485 g / cm^3
# Si number density = 20.250946 Si / 1000 Ang^3
#
#
#
# Elastic Constant Matrix: (Units=GPa)
#
#
# Indices 1 2 3 4 5 6 
#
# 1 53.6369 3.5632 33.7166 0.0000 0.0000 0.0000
# 2 3.5632 96.5236 3.5341 0.0000 0.0000 0.0000
# 3 33.7166 3.5341 110.9723 0.0000 0.0000 0.0000
# 4 0.0000 0.0000 0.0000 31.5603 0.0000 0.0000
# 5 0.0000 0.0000 0.0000 0.0000 14.7161 0.0000
# 6 0.0000 0.0000 0.0000 0.0000 0.0000 17.2522
#
#
#
# Elastic Compliance Matrix: (Units=1/GPa)
#
#
# Indices 1 2 3 4 5 6 
#
# 1 0.023079 -0.000596 -0.006993 0.000000 0.000000 0.000000
# 2 -0.000596 0.010388 -0.000150 0.000000 0.000000 0.000000
# 3 -0.006993 -0.000150 0.011141 0.000000 0.000000 0.000000
# 4 0.000000 0.000000 0.000000 0.031685 0.000000 0.000000
# 5 0.000000 0.000000 0.000000 0.000000 0.067953 0.000000
# 6 0.000000 0.000000 0.000000 0.000000 0.000000 0.057964
#
#
# Mechanical properties :
#
#
# Convention : Reuss Voigt Hill
#
# Bulk Modulus (GPa) = 34.32882 38.08451 36.20667
# Shear Modulus (GPa) = 21.98790 27.39363 24.69077
#
# Velocity S-wave (km/s) = 3.29868 3.68191 3.49555
# Velocity P-wave (km/s) = 5.61221 6.07638 5.84890
#
# Compressibility (1/GPa) = 0.02913004
#
# Stress axis : x y z
#
# Youngs Moduli (GPa) = 43.32856 96.26820 89.76039
#
# Poissons Ratio (x) = 0.05737 0.62771
# Poissons Ratio (y) = 0.02582 0.01344
# Poissons Ratio (z) = 0.30301 0.01442
#
# Static dielectric constant tensor:
#      x y z
#    x 3.553470 0.000000 0.000000 
#    y 0.000000 3.742690 0.000000 
#    z 0.000000 0.000000 3.858080 
# 
# 
# High freq. dielectric constant tensor:
#      x y z
#    x 1.749470 0.000000 0.000000 
#    y 0.000000 1.806070 0.000000 
#    z 0.000000 0.000000 1.803700 
# 
# From -- ./inp_files/31640.got.cif
#   From: 2010.06.25/outbox.cif.g09.slc.cpg/sg71_16_cif.got.tgz:31640.got - 2010.06.28 04:59:45.
