data_PCOD8291782
_publ_section_title
;
Structure prediction by ZEFSAII (Michael W. Deem and Ramdas Pophale) SiO2 
 PCOD8291782
Probable space group: I M M M
;
_chemical_formula_sum "Si O2"
_cell_formula_units_Z 88
_cell_length_a 8.610180
_cell_length_b 19.793542
_cell_length_c 24.843613
_cell_angle_alpha 90.000000
_cell_angle_beta 90.000000
_cell_angle_gamma 90.000000
_cell_volume 4233.996582
_symmetry_space_group_name_H-M "I M M M"
_symmetry_group_IT_number 71
_symmetry_cell_setting 'orthorhombic'
loop_
_space_group_symop_operation_xyz
x,y,z
-x,-y,z
x,-y,-z
-x,y,-z
-x,-y,-z
x,y,-z
-x,y,z
x,-y,z
1/2+x,1/2+y,1/2+z
1/2-x,1/2-y,1/2+z
1/2+x,1/2-y,1/2-z
1/2-x,1/2+y,1/2-z
1/2-x,1/2-y,1/2-z
1/2+x,1/2+y,1/2-z
1/2-x,1/2+y,1/2+z
1/2+x,1/2-y,1/2+z
loop_
_atom_site_type_symbol
_atom_site_label
_atom_site_fract_x
_atom_site_fract_y
_atom_site_fract_z
Si Si1 0.325455 0.574418 0.634094
Si Si2 0.820381 0.801267 0.294461
Si Si3 0.683999 0.812989 0.413569
Si Si4 0.183833 0.577356 0.000000
Si Si5 0.675687 0.923985 0.244953
Si Si6 0.328071 0.177672 0.940674
O O1 0.500000 0.585507 0.656385
O O2 0.310202 0.500000 0.607610
O O3 0.201513 0.580845 0.681479
O O4 0.290843 0.631455 0.591291
O O5 0.750000 0.750000 0.250000
O O6 0.737848 0.801964 0.352157
O O7 0.800481 0.877273 0.273898
O O8 0.000000 0.783022 0.301820
O O9 0.500000 0.807592 0.415031
O O10 0.736020 0.882116 0.445172
O O11 0.760113 0.752419 0.446334
O O12 0.252548 0.500000 0.000000
O O13 0.000000 0.572489 0.000000
O O14 0.500000 0.900208 0.257717
O O15 0.702505 0.000000 0.265907
O O16 0.500000 0.178576 0.913882
O O17 0.340345 0.146827 0.000000
#
# Coordination Sequence:
#
# PCOD8291782 Si02
#       6
#    16  16  16   8  16  16
#     4  10  21  37  58  85 118 156 198 245 297 354
#     4  12  25  41  62  91 127 165 209 260 315 378
#     4  11  22  40  65  92 123 161 206 258 316 376
#     4   9  20  40  67  97 126 161 208 261 317 380
#     4  10  21  39  62  87 118 156 198 244 298 361
#     4  11  23  38  58  83 116 156 199 246 298 356
#
# _framework density 20.784144999999999
#
# number of rings (size 3 to 8) (size 9 to 14) (size 15 to 20)
#    0.000    1.364    0.909    4.909    0.000    4.364 
#    0.000    3.636    0.000    3.818    0.000    0.000 
#    0.000    0.000    0.000    0.000    0.000    0.000 
#
# Total GULP energy -545333.213639 kJ/mol
# GULP energy per Si atom -12393.936674 kJ/mol
# Density = 2.073684 g / cm^3
# Si number density = 20.784145 Si / 1000 Ang^3
#
#
#
# Elastic Constant Matrix: (Units=GPa)
#
#
# Indices 1 2 3 4 5 6 
#
# 1 78.4057 23.1031 13.5606 0.0000 0.0000 0.0000
# 2 23.1031 100.1111 36.1403 0.0000 0.0000 0.0000
# 3 13.5606 36.1403 94.2468 0.0000 0.0000 0.0000
# 4 0.0000 0.0000 0.0000 34.4538 0.0000 0.0000
# 5 0.0000 0.0000 0.0000 0.0000 29.0045 0.0000
# 6 0.0000 0.0000 0.0000 0.0000 0.0000 28.2051
#
#
#
# Elastic Compliance Matrix: (Units=1/GPa)
#
#
# Indices 1 2 3 4 5 6 
#
# 1 0.013748 -0.002854 -0.000884 0.000000 0.000000 0.000000
# 2 -0.002854 0.012186 -0.004262 0.000000 0.000000 0.000000
# 3 -0.000884 -0.004262 0.012372 0.000000 0.000000 0.000000
# 4 0.000000 0.000000 0.000000 0.029024 0.000000 0.000000
# 5 0.000000 0.000000 0.000000 0.000000 0.034477 0.000000
# 6 0.000000 0.000000 0.000000 0.000000 0.000000 0.035455
#
#
# Mechanical properties :
#
#
# Convention : Reuss Voigt Hill
#
# Bulk Modulus (GPa) = 44.83000 46.48574 45.65787
# Shear Modulus (GPa) = 31.11434 31.66332 31.38883
#
# Velocity S-wave (km/s) = 3.87334 3.90736 3.89038
# Velocity P-wave (km/s) = 6.45134 6.53996 6.49580
#
# Compressibility (1/GPa) = 0.02230649
#
# Stress axis : x y z
#
# Youngs Moduli (GPa) = 72.73853 82.06030 80.82716
#
# Poissons Ratio (x) = 0.23417 0.07144
# Poissons Ratio (y) = 0.20757 0.34452
# Poissons Ratio (z) = 0.06429 0.34977
#
# Static dielectric constant tensor:
#      x y z
#    x 3.765330 0.000000 0.000000 
#    y 0.000000 4.234870 0.000000 
#    z 0.000000 0.000000 3.787980 
# 
# 
# High freq. dielectric constant tensor:
#      x y z
#    x 1.815510 0.000000 0.000000 
#    y 0.000000 1.821620 0.000000 
#    z 0.000000 0.000000 1.809060 
# 
# From -- ./inp_files/57572.got.cif
#   From: 2010.06.25/outbox.cif.g09.slc.cpg/sg71_29_cif.got.tgz:57572.got - 2010.06.28 04:59:45.
