data_PCOD8291152
_publ_section_title
;
Structure prediction by ZEFSAII (Michael W. Deem and Ramdas Pophale) SiO2 
 PCOD8291152
Probable space group: I M M M
;
_chemical_formula_sum "Si O2"
_cell_formula_units_Z 104
_cell_length_a 15.722323
_cell_length_b 18.070369
_cell_length_c 18.473246
_cell_angle_alpha 90.000000
_cell_angle_beta 90.000000
_cell_angle_gamma 90.000000
_cell_volume 5248.400266
_symmetry_space_group_name_H-M "I M M M"
_symmetry_group_IT_number 71
_symmetry_cell_setting 'orthorhombic'
loop_
_space_group_symop_operation_xyz
x,y,z
-x,-y,z
x,-y,-z
-x,y,-z
-x,-y,-z
x,y,-z
-x,y,z
x,-y,z
1/2+x,1/2+y,1/2+z
1/2-x,1/2-y,1/2+z
1/2+x,1/2-y,1/2-z
1/2-x,1/2+y,1/2-z
1/2-x,1/2-y,1/2-z
1/2+x,1/2+y,1/2-z
1/2-x,1/2+y,1/2+z
1/2+x,1/2-y,1/2+z
loop_
_atom_site_type_symbol
_atom_site_label
_atom_site_fract_x
_atom_site_fract_y
_atom_site_fract_z
Si Si1 0.257382 0.354737 0.917335
Si Si2 0.234108 0.186408 0.081534
Si Si3 0.900854 0.913963 0.314894
Si Si4 0.095051 0.189728 0.814236
Si Si5 0.000000 0.412006 0.420483
Si Si6 0.155654 0.415546 0.329389
Si Si7 0.098094 0.642541 0.817788
O O1 0.276185 0.267116 0.913723
O O2 0.337110 0.396262 0.880801
O O3 0.164836 0.372308 0.882540
O O4 0.252555 0.382095 0.000000
O O5 0.135920 0.188199 0.105609
O O6 0.266548 0.134271 0.146034
O O7 0.242972 0.154021 0.000000
O O8 0.867373 0.864907 0.247291
O O9 0.000000 0.895609 0.335102
O O10 0.891728 0.000000 0.294035
O O11 0.103007 0.274174 0.786325
O O12 0.000000 0.163913 0.827937
O O13 0.918674 0.382450 0.379055
O O14 0.000000 0.500000 0.422360
O O15 0.000000 0.376878 0.500000
O O16 0.177265 0.500000 0.347789
O O17 0.128928 0.410854 0.246179
O O18 0.000000 0.624156 0.841424
#
# Coordination Sequence:
#
# PCOD8291152 Si02
#       7
#    16  16  16  16   8  16  16
#     4  10  22  39  57  81 113 145 183 232 282 332
#     4  10  21  36  54  80 114 148 183 224 272 325
#     4  10  21  38  60  84 110 142 183 231 280 332
#     4   9  19  36  58  82 108 142 183 229 275 326
#     4   9  18  32  48  70 103 139 174 214 257 306
#     4  11  21  34  54  79 109 146 184 222 265 323
#     4  10  20  36  59  84 110 145 187 229 276 329
#
# _framework density 19.815562
#
# number of rings (size 3 to 8) (size 9 to 14) (size 15 to 20)
#    0.000    2.077    0.769    2.308    0.000    7.077 
#    1.385    3.846    0.000    0.000    0.000    5.385 
#    0.000    0.000    0.000    0.000    0.000    0.000 
#
# Total GULP energy -644474.661864 kJ/mol
# GULP energy per Si atom -12393.743497 kJ/mol
# Density = 1.977046 g / cm^3
# Si number density = 19.815562 Si / 1000 Ang^3
#
#
#
# Elastic Constant Matrix: (Units=GPa)
#
#
# Indices 1 2 3 4 5 6 
#
# 1 84.9956 22.6254 49.1062 0.0000 0.0000 0.0000
# 2 22.6254 54.2859 22.5926 0.0000 0.0000 0.0000
# 3 49.1062 22.5926 104.8195 0.0000 0.0000 0.0000
# 4 0.0000 0.0000 0.0000 18.2899 0.0000 0.0000
# 5 0.0000 0.0000 0.0000 0.0000 34.1795 0.0000
# 6 0.0000 0.0000 0.0000 0.0000 0.0000 7.0501
#
#
#
# Elastic Compliance Matrix: (Units=1/GPa)
#
#
# Indices 1 2 3 4 5 6 
#
# 1 0.016933 -0.004126 -0.007044 0.000000 0.000000 0.000000
# 2 -0.004126 0.021242 -0.002645 0.000000 0.000000 0.000000
# 3 -0.007044 -0.002645 0.013410 0.000000 0.000000 0.000000
# 4 0.000000 0.000000 0.000000 0.054675 0.000000 0.000000
# 5 0.000000 0.000000 0.000000 0.000000 0.029257 0.000000
# 6 0.000000 0.000000 0.000000 0.000000 0.000000 0.141843
#
#
# Mechanical properties :
#
#
# Convention : Reuss Voigt Hill
#
# Bulk Modulus (GPa) = 41.74512 48.08327 44.91419
# Shear Modulus (GPa) = 15.97572 21.88900 18.93236
#
# Velocity S-wave (km/s) = 2.84248 3.32721 3.09435
# Velocity P-wave (km/s) = 5.64673 6.25128 5.95668
#
# Compressibility (1/GPa) = 0.02395490
#
# Stress axis : x y z
#
# Youngs Moduli (GPa) = 59.05615 47.07739 74.57024
#
# Poissons Ratio (x) = 0.19424 0.52524
# Poissons Ratio (y) = 0.24367 0.19727
# Poissons Ratio (z) = 0.41596 0.12454
#
# Static dielectric constant tensor:
#      x y z
#    x 3.088470 0.000000 0.000000 
#    y 0.000000 3.474950 0.000000 
#    z 0.000000 0.000000 3.565600 
# 
# 
# High freq. dielectric constant tensor:
#      x y z
#    x 1.781090 0.000000 0.000000 
#    y 0.000000 1.760880 0.000000 
#    z 0.000000 0.000000 1.764870 
# 
# From -- ./inp_files/44950.got.cif
#   From: 2010.06.25/outbox.cif.g09.slc.cpg/sg71_23_cif.got.tgz:44950.got - 2010.06.28 04:59:45.
