data_PCOD8291730
_publ_section_title
;
Structure prediction by ZEFSAII (Michael W. Deem and Ramdas Pophale) SiO2 
 PCOD8291730
Probable space group: I M M M
;
_chemical_formula_sum "Si O2"
_cell_formula_units_Z 96
_cell_length_a 18.299998
_cell_length_b 12.115854
_cell_length_c 22.827007
_cell_angle_alpha 90.000000
_cell_angle_beta 90.000000
_cell_angle_gamma 90.000000
_cell_volume 5061.206365
_symmetry_space_group_name_H-M "I M M M"
_symmetry_group_IT_number 71
_symmetry_cell_setting 'orthorhombic'
loop_
_space_group_symop_operation_xyz
x,y,z
-x,-y,z
x,-y,-z
-x,y,-z
-x,-y,-z
x,y,-z
-x,y,z
x,-y,z
1/2+x,1/2+y,1/2+z
1/2-x,1/2-y,1/2+z
1/2+x,1/2-y,1/2-z
1/2-x,1/2+y,1/2-z
1/2-x,1/2-y,1/2-z
1/2+x,1/2+y,1/2-z
1/2-x,1/2+y,1/2+z
1/2+x,1/2-y,1/2+z
loop_
_atom_site_type_symbol
_atom_site_label
_atom_site_fract_x
_atom_site_fract_y
_atom_site_fract_z
Si Si1 0.215284 0.617445 0.065892
Si Si2 0.701163 0.126435 0.830541
Si Si3 0.917098 0.627920 0.766964
Si Si4 0.086496 0.000000 0.069404
Si Si5 0.000000 0.123427 0.430312
Si Si6 0.358479 0.251624 0.066377
Si Si7 0.354973 0.289390 0.358749
O O1 0.208233 0.500000 0.099459
O O2 0.298931 0.653035 0.070576
O O3 0.159312 0.705277 0.089538
O O4 0.191377 0.600767 0.000000
O O5 0.642371 0.161330 0.781841
O O6 0.664956 0.148748 0.893825
O O7 0.778964 0.188268 0.823778
O O8 0.720889 0.000000 0.826117
O O9 0.903448 0.500000 0.788205
O O10 0.910063 0.723069 0.816386
O O11 0.000000 0.636409 0.742331
O O12 0.112839 0.895824 0.108061
O O13 0.000000 0.000000 0.067751
O O14 0.114534 0.000000 0.000000
O O15 0.069105 0.192207 0.408038
O O16 0.000000 0.114072 0.500000
O O17 0.000000 0.000000 0.403100
O O18 0.368354 0.207701 0.000000
#
# Coordination Sequence:
#
# PCOD8291730 Si02
#       7
#    16  16  16   8   8  16  16
#     4   9  17  30  51  81 112 141 180 234 285 337
#     4  10  21  37  56  84 113 152 198 242 292 344
#     4  10  22  39  61  84 111 150 194 247 301 351
#     4  11  24  40  62  92 125 159 192 234 297 360
#     4   9  16  28  47  69 101 147 194 238 291 352
#     4   9  18  30  49  77 111 150 192 238 294 356
#     4  11  20  38  60  85 113 152 196 238 286 352
#
# _framework density 18.967811000000001
#
# number of rings (size 3 to 8) (size 9 to 14) (size 15 to 20)
#    0.000    2.167    0.833    2.500    1.167    3.000 
#    0.000    0.000    3.667    1.500    0.000    7.000 
#    0.000    0.000    0.000    0.000    0.000    0.000 
#
# Total GULP energy -594667.054368 kJ/mol
# GULP energy per Si atom -12388.896966 kJ/mol
# Density = 1.892464 g / cm^3
# Si number density = 18.967811 Si / 1000 Ang^3
#
#
#
# Elastic Constant Matrix: (Units=GPa)
#
#
# Indices 1 2 3 4 5 6 
#
# 1 96.7455 28.9862 36.0895 0.0000 0.0000 0.0000
# 2 28.9862 90.0979 46.3048 0.0000 0.0000 0.0000
# 3 36.0895 46.3048 73.0358 0.0000 0.0000 0.0000
# 4 0.0000 0.0000 0.0000 31.2504 0.0000 0.0000
# 5 0.0000 0.0000 0.0000 0.0000 27.4244 0.0000
# 6 0.0000 0.0000 0.0000 0.0000 0.0000 22.0844
#
#
#
# Elastic Compliance Matrix: (Units=1/GPa)
#
#
# Indices 1 2 3 4 5 6 
#
# 1 0.012772 -0.001284 -0.005497 0.000000 0.000000 0.000000
# 2 -0.001284 0.016592 -0.009885 0.000000 0.000000 0.000000
# 3 -0.005497 -0.009885 0.022675 0.000000 0.000000 0.000000
# 4 0.000000 0.000000 0.000000 0.032000 0.000000 0.000000
# 5 0.000000 0.000000 0.000000 0.000000 0.036464 0.000000
# 6 0.000000 0.000000 0.000000 0.000000 0.000000 0.045281
#
#
# Mechanical properties :
#
#
# Convention : Reuss Voigt Hill
#
# Bulk Modulus (GPa) = 53.45462 53.62667 53.54065
# Shear Modulus (GPa) = 24.34848 26.05177 25.20013
#
# Velocity S-wave (km/s) = 3.58673 3.71006 3.64891
# Velocity P-wave (km/s) = 6.73764 6.83276 6.78536
#
# Compressibility (1/GPa) = 0.01870746
#
# Stress axis : x y z
#
# Youngs Moduli (GPa) = 78.29872 60.26822 44.10057
#
# Poissons Ratio (x) = 0.07737 0.24242
# Poissons Ratio (y) = 0.10052 0.43595
# Poissons Ratio (z) = 0.43041 0.59577
#
# Static dielectric constant tensor:
#      x y z
#    x 3.512950 0.000000 0.000000 
#    y 0.000000 3.610220 0.000000 
#    z 0.000000 0.000000 3.539100 
# 
# 
# High freq. dielectric constant tensor:
#      x y z
#    x 1.740920 0.000000 0.000000 
#    y 0.000000 1.744260 0.000000 
#    z 0.000000 0.000000 1.717820 
# 
# From -- ./inp_files/27444.got.cif
#   From: 2010.06.25/outbox.cif.g09.slc.cpg/sg71_14_cif.got.tgz:27444.got - 2010.06.28 04:59:45.
