data_PCOD8291330
_publ_section_title
;
Structure prediction by ZEFSAII (Michael W. Deem and Ramdas Pophale) SiO2 
 PCOD8291330
Probable space group: I M M M
;
_chemical_formula_sum "Si O2"
_cell_formula_units_Z 88
_cell_length_a 22.046403
_cell_length_b 8.730953
_cell_length_c 23.645275
_cell_angle_alpha 90.000000
_cell_angle_beta 90.000000
_cell_angle_gamma 90.000000
_cell_volume 4551.386967
_symmetry_space_group_name_H-M "I M M M"
_symmetry_group_IT_number 71
_symmetry_cell_setting 'orthorhombic'
loop_
_space_group_symop_operation_xyz
x,y,z
-x,-y,z
x,-y,-z
-x,y,-z
-x,-y,-z
x,y,-z
-x,y,z
x,-y,z
1/2+x,1/2+y,1/2+z
1/2-x,1/2-y,1/2+z
1/2+x,1/2-y,1/2-z
1/2-x,1/2+y,1/2-z
1/2-x,1/2-y,1/2-z
1/2+x,1/2+y,1/2-z
1/2-x,1/2+y,1/2+z
1/2+x,1/2-y,1/2+z
loop_
_atom_site_type_symbol
_atom_site_label
_atom_site_fract_x
_atom_site_fract_y
_atom_site_fract_z
Si Si1 0.770237 0.680204 0.189481
Si Si2 0.063669 0.321660 0.732202
Si Si3 0.099904 0.322494 0.144813
Si Si4 0.842059 0.678817 0.354473
Si Si5 0.500000 0.680698 0.565806
Si Si6 0.931948 0.172252 0.566228
O O1 0.776927 0.500000 0.199112
O O2 0.750000 0.750000 0.250000
O O3 0.832752 0.741830 0.160749
O O4 0.719746 0.724634 0.143143
O O5 0.066073 0.500000 0.717962
O O6 0.062073 0.293903 0.798684
O O7 0.121612 0.252916 0.700201
O O8 0.000000 0.252505 0.708708
O O9 0.103859 0.500000 0.127727
O O10 0.062782 0.239507 0.094670
O O11 0.826141 0.500000 0.350251
O O12 0.883218 0.710112 0.408826
O O13 0.500000 0.500000 0.571082
O O14 0.500000 0.732709 0.500000
O O15 0.922651 0.175390 0.500000
O O16 0.000000 0.226148 0.582011
O O17 0.920713 0.000000 0.589044
#
# Coordination Sequence:
#
# PCOD8291330 Si02
#       6
#    16  16  16  16   8  16
#     4  11  22  37  57  85 121 159 195 237 290 352
#     4   9  16  29  51  80 113 145 181 231 281 330
#     4  10  20  38  62  85 112 151 197 236 283 353
#     4  11  21  34  54  84 119 155 194 236 286 347
#     4  11  25  43  63  91 123 151 190 251 312 355
#     4   9  19  37  58  80 111 151 194 241 289 338
#
# _framework density 19.334765000000001
#
# number of rings (size 3 to 8) (size 9 to 14) (size 15 to 20)
#    0.000    1.909    2.727    2.455    0.000    3.636 
#    0.000    1.818    0.000    1.091    0.000    0.000 
#    0.000    0.000    0.000    0.000    0.000    0.000 
#
# Total GULP energy -545122.004101 kJ/mol
# GULP energy per Si atom -12389.136457 kJ/mol
# Density = 1.929076 g / cm^3
# Si number density = 19.334765 Si / 1000 Ang^3
#
#
#
# Elastic Constant Matrix: (Units=GPa)
#
#
# Indices 1 2 3 4 5 6 
#
# 1 165.6716 36.9886 49.2023 0.0000 0.0000 0.0000
# 2 36.9886 51.1796 27.5412 0.0000 0.0000 0.0000
# 3 49.2023 27.5412 82.1348 0.0000 0.0000 0.0000
# 4 0.0000 0.0000 0.0000 28.8146 0.0000 0.0000
# 5 0.0000 0.0000 0.0000 0.0000 23.6924 0.0000
# 6 0.0000 0.0000 0.0000 0.0000 0.0000 28.6426
#
#
#
# Elastic Compliance Matrix: (Units=1/GPa)
#
#
# Indices 1 2 3 4 5 6 
#
# 1 0.007925 -0.003871 -0.003449 0.000000 0.000000 0.000000
# 2 -0.003871 0.025732 -0.006309 0.000000 0.000000 0.000000
# 3 -0.003449 -0.006309 0.016357 0.000000 0.000000 0.000000
# 4 0.000000 0.000000 0.000000 0.034705 0.000000 0.000000
# 5 0.000000 0.000000 0.000000 0.000000 0.042208 0.000000
# 6 0.000000 0.000000 0.000000 0.000000 0.000000 0.034913
#
#
# Mechanical properties :
#
#
# Convention : Reuss Voigt Hill
#
# Bulk Modulus (GPa) = 43.94791 58.49449 51.22120
# Shear Modulus (GPa) = 25.42159 28.58019 27.00089
#
# Velocity S-wave (km/s) = 3.62997 3.84888 3.74102
# Velocity P-wave (km/s) = 6.35203 7.07609 6.72381
#
# Compressibility (1/GPa) = 0.02275421
#
# Stress axis : x y z
#
# Youngs Moduli (GPa) = 126.18763 38.86194 61.13617
#
# Poissons Ratio (x) = 0.15045 0.21087
# Poissons Ratio (y) = 0.48851 0.38573
# Poissons Ratio (z) = 0.43524 0.24519
#
# Static dielectric constant tensor:
#      x y z
#    x 3.893070 0.000000 0.000000 
#    y 0.000000 3.427840 0.000000 
#    z 0.000000 0.000000 3.388600 
# 
# 
# High freq. dielectric constant tensor:
#      x y z
#    x 1.771450 0.000000 0.000000 
#    y 0.000000 1.729950 0.000000 
#    z 0.000000 0.000000 1.734780 
# 
# From -- ./inp_files/61112.got.cif
#   From: 2010.06.25/outbox.cif.g09.slc.cpg/sg71_31_cif.got.tgz:61112.got - 2010.06.28 04:59:45.
