data_PCOD8291493
_publ_section_title
;
Structure prediction by ZEFSAII (Michael W. Deem and Ramdas Pophale) SiO2 
 PCOD8291493
Probable space group: I M M M
;
_chemical_formula_sum "Si O2"
_cell_formula_units_Z 88
_cell_length_a 23.980891
_cell_length_b 8.073477
_cell_length_c 23.851560
_cell_angle_alpha 90.000000
_cell_angle_beta 90.000000
_cell_angle_gamma 90.000000
_cell_volume 4617.880781
_symmetry_space_group_name_H-M "I M M M"
_symmetry_group_IT_number 71
_symmetry_cell_setting 'orthorhombic'
loop_
_space_group_symop_operation_xyz
x,y,z
-x,-y,z
x,-y,-z
-x,y,-z
-x,-y,-z
x,y,-z
-x,y,z
x,-y,z
1/2+x,1/2+y,1/2+z
1/2-x,1/2-y,1/2+z
1/2+x,1/2-y,1/2-z
1/2-x,1/2+y,1/2-z
1/2-x,1/2-y,1/2-z
1/2+x,1/2+y,1/2-z
1/2-x,1/2+y,1/2+z
1/2+x,1/2-y,1/2+z
loop_
_atom_site_type_symbol
_atom_site_label
_atom_site_fract_x
_atom_site_fract_y
_atom_site_fract_z
Si Si1 0.438874 0.500000 0.434431
Si Si2 0.937403 0.810646 0.648714
Si Si3 0.350032 0.192003 0.060892
Si Si4 0.379620 0.810453 0.381874
Si Si5 0.563152 0.809389 0.267858
Si Si6 0.726924 0.693255 0.565259
O O1 0.500000 0.500000 0.406253
O O2 0.443887 0.500000 0.500000
O O3 0.408749 0.671162 0.419203
O O4 0.896210 0.716800 0.607644
O O5 0.918176 0.792852 0.713127
O O6 0.000000 0.737384 0.641861
O O7 0.936095 0.000000 0.630903
O O8 0.289232 0.262298 0.078369
O O9 0.339980 0.000000 0.052310
O O10 0.368496 0.266922 0.000000
O O11 0.393697 0.767614 0.317334
O O12 0.313798 0.797936 0.394278
O O13 0.400028 0.000000 0.395152
O O14 0.500000 0.761369 0.286496
O O15 0.566130 0.000000 0.250628
O O16 0.712115 0.724323 0.500000
O O17 0.719913 0.500000 0.580011
#
# Coordination Sequence:
#
# PCOD8291493 Si02
#       6
#     8  16  16  16  16  16
#     4  11  24  38  54  80 116 154 188 238 296 338
#     4  10  21  35  54  82 113 145 182 229 285 342
#     4   9  19  36  58  82 110 147 187 228 277 337
#     4  11  22  36  58  85 112 149 198 239 287 341
#     4   9  19  36  56  78 106 143 189 237 279 332
#     4   9  18  35  57  80 109 146 189 236 284 337
#
# _framework density 19.056360000000002
#
# number of rings (size 3 to 8) (size 9 to 14) (size 15 to 20)
#    0.000    2.273    0.909    2.727    1.273    5.091 
#    0.000    5.455    0.000    0.000    0.000    0.000 
#    0.000    0.000    0.000    0.000    0.000    0.000 
#
# Total GULP energy -545358.590358 kJ/mol
# GULP energy per Si atom -12394.513417 kJ/mol
# Density = 1.901299 g / cm^3
# Si number density = 19.056360 Si / 1000 Ang^3
#
#
#
# Elastic Constant Matrix: (Units=GPa)
#
#
# Indices 1 2 3 4 5 6 
#
# 1 122.9266 28.0131 76.8318 0.0000 0.0000 0.0000
# 2 28.0131 64.3758 23.9437 0.0000 0.0000 0.0000
# 3 76.8318 23.9437 106.4674 0.0000 0.0000 0.0000
# 4 0.0000 0.0000 0.0000 25.6923 0.0000 0.0000
# 5 0.0000 0.0000 0.0000 0.0000 36.4969 0.0000
# 6 0.0000 0.0000 0.0000 0.0000 0.0000 24.2331
#
#
#
# Elastic Compliance Matrix: (Units=1/GPa)
#
#
# Indices 1 2 3 4 5 6 
#
# 1 0.015261 -0.002777 -0.010388 0.000000 0.000000 0.000000
# 2 -0.002777 0.017457 -0.001922 0.000000 0.000000 0.000000
# 3 -0.010388 -0.001922 0.017321 0.000000 0.000000 0.000000
# 4 0.000000 0.000000 0.000000 0.038922 0.000000 0.000000
# 5 0.000000 0.000000 0.000000 0.000000 0.027400 0.000000
# 6 0.000000 0.000000 0.000000 0.000000 0.000000 0.041266
#
#
# Mechanical properties :
#
#
# Convention : Reuss Voigt Hill
#
# Bulk Modulus (GPa) = 50.34043 61.26076 55.80060
# Shear Modulus (GPa) = 25.71716 28.28321 27.00018
#
# Velocity S-wave (km/s) = 3.67758 3.85669 3.76820
# Velocity P-wave (km/s) = 6.67134 7.21450 6.94823
#
# Compressibility (1/GPa) = 0.01986475
#
# Stress axis : x y z
#
# Youngs Moduli (GPa) = 65.52807 57.28355 57.73192
#
# Poissons Ratio (x) = 0.15907 0.59973
# Poissons Ratio (y) = 0.18196 0.11096
# Poissons Ratio (z) = 0.68072 0.11010
#
# Static dielectric constant tensor:
#      x y z
#    x 3.623700 0.000000 0.000000 
#    y 0.000000 3.444510 0.000000 
#    z 0.000000 0.000000 3.351580 
# 
# 
# High freq. dielectric constant tensor:
#      x y z
#    x 1.736720 0.000000 0.000000 
#    y 0.000000 1.737740 0.000000 
#    z 0.000000 0.000000 1.731160 
# 
# From -- ./inp_files/55558.got.cif
#   From: 2010.06.25/outbox.cif.g09.slc.cpg/sg71_28_cif.got.tgz:55558.got - 2010.06.28 04:59:45.
