data_PCOD8291312
_publ_section_title
;
Structure prediction by ZEFSAII (Michael W. Deem and Ramdas Pophale) SiO2 
 PCOD8291312
Probable space group: I M M M
;
_chemical_formula_sum "Si O2"
_cell_formula_units_Z 64
_cell_length_a 15.420852
_cell_length_b 23.711297
_cell_length_c 8.662421
_cell_angle_alpha 90.000000
_cell_angle_beta 90.000000
_cell_angle_gamma 90.000000
_cell_volume 3167.400394
_symmetry_space_group_name_H-M "I M M M"
_symmetry_group_IT_number 71
_symmetry_cell_setting 'orthorhombic'
loop_
_space_group_symop_operation_xyz
x,y,z
-x,-y,z
x,-y,-z
-x,y,-z
-x,-y,-z
x,y,-z
-x,y,z
x,-y,z
1/2+x,1/2+y,1/2+z
1/2-x,1/2-y,1/2+z
1/2+x,1/2-y,1/2-z
1/2-x,1/2+y,1/2-z
1/2-x,1/2-y,1/2-z
1/2+x,1/2+y,1/2-z
1/2-x,1/2+y,1/2+z
1/2+x,1/2-y,1/2+z
loop_
_atom_site_type_symbol
_atom_site_label
_atom_site_fract_x
_atom_site_fract_y
_atom_site_fract_z
Si Si1 0.000000 0.193785 0.320322
Si Si2 0.000000 0.314302 0.180688
Si Si3 0.665897 0.381208 0.818894
Si Si4 0.156021 0.383451 0.318553
Si Si5 0.596427 0.500000 0.183359
Si Si6 0.900070 0.500000 0.817571
O O1 0.915407 0.157842 0.278242
O O2 0.000000 0.211123 0.500000
O O3 0.000000 0.248236 0.213541
O O4 0.085168 0.341352 0.252529
O O5 0.000000 0.326566 0.000000
O O6 0.749803 0.358978 0.727136
O O7 0.646599 0.444545 0.760199
O O8 0.685974 0.380028 0.000000
O O9 0.144755 0.386525 0.500000
O O10 0.146877 0.445383 0.247952
O O11 0.500000 0.500000 0.254804
O O12 0.588689 0.500000 0.000000
O O13 0.000000 0.500000 0.765659
O O14 0.890028 0.500000 0.000000
#
# Coordination Sequence:
#
# PCOD8291312 Si02
#       6
#     8   8  16  16   8   8
#     4  10  22  41  65  93 124 164 212 262 311 362
#     4  12  26  45  66  87 117 162 214 264 314 368
#     4  10  20  37  64  95 129 165 207 252 304 370
#     4  12  25  41  64  94 129 163 202 254 313 371
#     4   9  15  30  60  95 125 159 200 243 293 356
#     4  11  22  39  66  95 126 164 205 248 304 373
#
# _framework density 20.205843999999999
#
# number of rings (size 3 to 8) (size 9 to 14) (size 15 to 20)
#    0.000    1.250    2.500    4.500    0.000    3.500 
#    0.000    0.000    0.000    0.750    0.000    0.000 
#    0.000    0.000    0.000    0.000    0.000    0.000 
#
# Total GULP energy -396961.662326 kJ/mol
# GULP energy per Si atom -12405.051948 kJ/mol
# Density = 2.015986 g / cm^3
# Si number density = 20.205844 Si / 1000 Ang^3
#
#
#
# Elastic Constant Matrix: (Units=GPa)
#
#
# Indices 1 2 3 4 5 6 
#
# 1 171.0016 52.8857 50.1553 0.0000 0.0000 0.0000
# 2 52.8857 116.5619 31.5151 0.0000 0.0000 0.0000
# 3 50.1553 31.5151 83.9868 -0.0006 -0.0004 -0.0001
# 4 0.0000 0.0000 -0.0006 12.8452 -0.0001 0.0000
# 5 0.0000 0.0000 -0.0004 -0.0001 15.9200 0.0000
# 6 0.0000 0.0000 -0.0001 0.0000 0.0000 7.7224
#
#
#
# Elastic Compliance Matrix: (Units=1/GPa)
#
#
# Indices 1 2 3 4 5 6 
#
# 1 0.007694 -0.002503 -0.003656 0.000000 0.000000 0.000000
# 2 -0.002503 0.010362 -0.002394 0.000000 0.000000 0.000000
# 3 -0.003656 -0.002394 0.014988 0.000001 0.000000 0.000000
# 4 0.000000 0.000000 0.000001 0.077850 0.000000 0.000000
# 5 0.000000 0.000000 0.000000 0.000000 0.062814 0.000000
# 6 0.000000 0.000000 0.000000 0.000000 0.000000 0.129493
#
#
# Mechanical properties :
#
#
# Convention : Reuss Voigt Hill
#
# Bulk Modulus (GPa) = 62.73536 71.18472 66.96004
# Shear Modulus (GPa) = 15.35543 23.09714 19.22629
#
# Velocity S-wave (km/s) = 2.75971 3.38463 3.08802
# Velocity P-wave (km/s) = 6.42419 7.11200 6.77683
#
# Compressibility (1/GPa) = 0.01593997
#
# Stress axis : x y z
#
# Youngs Moduli (GPa) = 129.97001 96.50895 66.72019
#
# Poissons Ratio (x) = 0.24151 0.24391
# Poissons Ratio (y) = 0.32525 0.15971
# Poissons Ratio (z) = 0.47513 0.23101
#
# Static dielectric constant tensor:
#      x y z
#    x 3.833830 0.000000 0.000000 
#    y 0.000000 3.695220 0.000000 
#    z 0.000000 0.000000 3.493900 
# 
# 
# High freq. dielectric constant tensor:
#      x y z
#    x 1.811000 0.000000 0.000000 
#    y 0.000000 1.788280 0.000000 
#    z 0.000000 0.000000 1.773430 
# 
# From -- ./inp_files/5602.got.cif
#   From: 2010.06.25/outbox.cif.g09.slc.cpg/sg71_3_cif.got.tgz:5602.got - 2010.06.28 04:59:45.
