data_PCOD8291837
_publ_section_title
;
Structure prediction by ZEFSAII (Michael W. Deem and Ramdas Pophale) SiO2 
 PCOD8291837
Probable space group: I M M M
;
_chemical_formula_sum "Si O2"
_cell_formula_units_Z 72
_cell_length_a 7.527232
_cell_length_b 27.977069
_cell_length_c 15.779984
_cell_angle_alpha 90.000000
_cell_angle_beta 90.000000
_cell_angle_gamma 90.000000
_cell_volume 3323.105080
_symmetry_space_group_name_H-M "I M M M"
_symmetry_group_IT_number 71
_symmetry_cell_setting 'orthorhombic'
loop_
_space_group_symop_operation_xyz
x,y,z
-x,-y,z
x,-y,-z
-x,y,-z
-x,-y,-z
x,y,-z
-x,y,z
x,-y,z
1/2+x,1/2+y,1/2+z
1/2-x,1/2-y,1/2+z
1/2+x,1/2-y,1/2-z
1/2-x,1/2+y,1/2-z
1/2-x,1/2-y,1/2-z
1/2+x,1/2+y,1/2-z
1/2-x,1/2+y,1/2+z
1/2+x,1/2-y,1/2+z
loop_
_atom_site_type_symbol
_atom_site_label
_atom_site_fract_x
_atom_site_fract_y
_atom_site_fract_z
Si Si1 0.298789 0.697208 0.500000
Si Si2 0.293307 0.052545 0.901961
Si Si3 0.706308 0.695788 0.000000
Si Si4 0.195649 0.851174 0.163969
Si Si5 0.287946 0.628517 0.154070
Si Si6 0.500000 0.055471 0.600656
O O1 0.500000 0.677015 0.500000
O O2 0.305618 0.754002 0.500000
O O3 0.203420 0.676370 0.586120
O O4 0.500000 0.062881 0.887359
O O5 0.182395 0.092122 0.852680
O O6 0.242534 0.000000 0.867073
O O7 0.244177 0.055685 0.000000
O O8 0.763592 0.666193 0.917974
O O9 0.500000 0.707441 0.000000
O O10 0.278871 0.846507 0.258023
O O11 0.000000 0.828768 0.169225
O O12 0.500000 0.616900 0.154587
O O13 0.178099 0.579964 0.138106
O O14 0.500000 0.060430 0.500000
O O15 0.500000 0.000000 0.628683
#
# Coordination Sequence:
#
# PCOD8291837 Si02
#       6
#     8  16   8  16  16   8
#     4  10  22  38  61  91 123 158 207 269 311 372
#     4   9  18  32  51  77 112 155 200 246 297 359
#     4  10  22  42  64  86 117 159 209 258 326 386
#     4  10  21  38  57  85 123 162 204 254 313 368
#     4  10  23  43  65  91 130 170 206 258 316 383
#     4  11  24  42  70 103 127 165 219 260 318 383
#
# _framework density 21.666484000000001
#
# number of rings (size 3 to 8) (size 9 to 14) (size 15 to 20)
#    0.000    2.111    2.222    0.667    3.111    3.556 
#    0.000    4.444    0.000    0.000    0.000    0.000 
#    0.000    0.000    0.000    0.000    0.000    0.000 
#
# Total GULP energy -446113.548635 kJ/mol
# GULP energy per Si atom -12392.043018 kJ/mol
# Density = 2.161717 g / cm^3
# Si number density = 21.666484 Si / 1000 Ang^3
#
#
#
# Elastic Constant Matrix: (Units=GPa)
#
#
# Indices 1 2 3 4 5 6 
#
# 1 56.1041 23.2562 25.9582 0.0001 0.0000 0.0000
# 2 23.2562 141.5671 82.8927 0.0003 0.0000 0.0000
# 3 25.9582 82.8927 192.2424 0.0013 0.0001 0.0000
# 4 0.0001 0.0003 0.0013 8.4932 0.0001 0.0000
# 5 0.0000 0.0000 0.0001 0.0001 14.4662 0.0000
# 6 0.0000 0.0000 0.0000 0.0000 0.0000 27.0854
#
#
#
# Elastic Compliance Matrix: (Units=1/GPa)
#
#
# Indices 1 2 3 4 5 6 
#
# 1 0.019522 -0.002225 -0.001676 0.000000 0.000000 0.000000
# 2 -0.002225 0.009703 -0.003883 0.000000 0.000000 0.000000
# 3 -0.001676 -0.003883 0.007103 -0.000001 0.000000 0.000000
# 4 0.000000 0.000000 -0.000001 0.117741 -0.000001 0.000000
# 5 0.000000 0.000000 0.000000 -0.000001 0.069127 0.000000
# 6 0.000000 0.000000 0.000000 0.000000 0.000000 0.036920
#
#
# Mechanical properties :
#
#
# Convention : Reuss Voigt Hill
#
# Bulk Modulus (GPa) = 48.17556 72.68087 60.42821
# Shear Modulus (GPa) = 17.69245 27.19604 22.44425
#
# Velocity S-wave (km/s) = 2.86069 3.54674 3.22203
# Velocity P-wave (km/s) = 5.76149 7.09864 6.46473
#
# Compressibility (1/GPa) = 0.02075741
#
# Stress axis : x y z
#
# Youngs Moduli (GPa) = 51.22382 103.05812 140.79280
#
# Poissons Ratio (x) = 0.22935 0.23604
# Poissons Ratio (y) = 0.11399 0.54676
# Poissons Ratio (z) = 0.08588 0.40022
#
# Static dielectric constant tensor:
#      x y z
#    x 3.643280 0.000000 0.000000 
#    y 0.000000 3.779720 0.000000 
#    z 0.000000 0.000000 4.235790 
# 
# 
# High freq. dielectric constant tensor:
#      x y z
#    x 1.834130 0.000000 0.000000 
#    y 0.000000 1.837380 0.000000 
#    z 0.000000 0.000000 1.864040 
# 
# From -- ./inp_files/31496.got.cif
#   From: 2010.06.25/outbox.cif.g09.slc.cpg/sg71_16_cif.got.tgz:31496.got - 2010.06.28 04:59:45.
