data_PCOD8291615
_publ_section_title
;
Structure prediction by ZEFSAII (Michael W. Deem and Ramdas Pophale) SiO2 
 PCOD8291615
Probable space group: I M M M
;
_chemical_formula_sum "Si O2"
_cell_formula_units_Z 96
_cell_length_a 23.291273
_cell_length_b 8.756602
_cell_length_c 24.984409
_cell_angle_alpha 90.000000
_cell_angle_beta 90.000000
_cell_angle_gamma 90.000000
_cell_volume 5095.630371
_symmetry_space_group_name_H-M "I M M M"
_symmetry_group_IT_number 71
_symmetry_cell_setting 'orthorhombic'
loop_
_space_group_symop_operation_xyz
x,y,z
-x,-y,z
x,-y,-z
-x,y,-z
-x,-y,-z
x,y,-z
-x,y,z
x,-y,z
1/2+x,1/2+y,1/2+z
1/2-x,1/2-y,1/2+z
1/2+x,1/2-y,1/2-z
1/2-x,1/2+y,1/2-z
1/2-x,1/2-y,1/2-z
1/2+x,1/2+y,1/2-z
1/2-x,1/2+y,1/2+z
1/2+x,1/2-y,1/2+z
loop_
_atom_site_type_symbol
_atom_site_label
_atom_site_fract_x
_atom_site_fract_y
_atom_site_fract_z
Si Si1 0.359678 0.821546 0.650655
Si Si2 0.065535 0.176503 0.061877
Si Si3 0.565944 0.824646 0.061634
Si Si4 0.433829 0.823551 0.752517
Si Si5 0.247399 0.679515 0.691326
Si Si6 0.867993 0.177465 0.346259
O O1 0.391536 0.779196 0.596024
O O2 0.398880 0.772124 0.700487
O O3 0.299787 0.733321 0.654397
O O4 0.346715 0.000000 0.651111
O O5 0.000000 0.225733 0.073736
O O6 0.074355 0.000000 0.076951
O O7 0.080262 0.204858 0.000000
O O8 0.500000 0.778131 0.071391
O O9 0.606678 0.715110 0.095643
O O10 0.575285 0.000000 0.079029
O O11 0.582700 0.801707 0.000000
O O12 0.500000 0.792944 0.739927
O O13 0.415164 0.720482 0.802086
O O14 0.422147 0.000000 0.766813
O O15 0.249426 0.500000 0.698188
O O16 0.250000 0.750000 0.750000
O O17 0.189342 0.726227 0.661969
O O18 0.853078 0.000000 0.342365
#
# Coordination Sequence:
#
# PCOD8291615 Si02
#       6
#    16  16  16  16  16  16
#     4  11  22  37  59  87 117 152 194 242 293 345
#     4   9  19  37  60  86 119 159 199 240 289 345
#     4   9  19  38  63  88 117 156 197 238 290 348
#     4  10  21  36  55  81 116 154 189 233 289 347
#     4  12  24  41  62  84 113 154 197 240 289 348
#     4  12  24  37  57  86 118 154 194 239 290 344
#
# _framework density 18.839670000000002
#
# number of rings (size 3 to 8) (size 9 to 14) (size 15 to 20)
#    0.000    1.500    1.667    5.500    0.000    5.000 
#    0.000    2.500    0.000    5.000    0.000    0.000 
#    0.000    0.000    0.000    0.000    0.000    0.000 
#
# Total GULP energy -595480.791194 kJ/mol
# GULP energy per Si atom -12405.849817 kJ/mol
# Density = 1.879679 g / cm^3
# Si number density = 18.839670 Si / 1000 Ang^3
#
#
#
# Elastic Constant Matrix: (Units=GPa)
#
#
# Indices 1 2 3 4 5 6 
#
# 1 99.8630 36.5131 43.1746 0.0000 0.0000 0.0000
# 2 36.5131 98.8045 37.1828 0.0000 0.0000 0.0000
# 3 43.1746 37.1828 92.7038 0.0000 0.0000 0.0000
# 4 0.0000 0.0000 0.0000 33.9066 0.0000 0.0000
# 5 0.0000 0.0000 0.0000 0.0000 26.9443 0.0000
# 6 0.0000 0.0000 0.0000 0.0000 0.0000 32.1977
#
#
#
# Elastic Compliance Matrix: (Units=1/GPa)
#
#
# Indices 1 2 3 4 5 6 
#
# 1 0.013269 -0.003036 -0.004962 0.000000 0.000000 0.000000
# 2 -0.003036 0.012615 -0.003646 0.000000 0.000000 0.000000
# 3 -0.004962 -0.003646 0.014560 0.000000 0.000000 0.000000
# 4 0.000000 0.000000 0.000000 0.029493 0.000000 0.000000
# 5 0.000000 0.000000 0.000000 0.000000 0.037114 0.000000
# 6 0.000000 0.000000 0.000000 0.000000 0.000000 0.031058
#
#
# Mechanical properties :
#
#
# Convention : Reuss Voigt Hill
#
# Bulk Modulus (GPa) = 58.28700 58.34581 58.31641
# Shear Modulus (GPa) = 29.91941 30.24311 30.08126
#
# Velocity S-wave (km/s) = 3.98943 4.01095 4.00021
# Velocity P-wave (km/s) = 7.22678 7.24481 7.23580
#
# Compressibility (1/GPa) = 0.01715648
#
# Stress axis : x y z
#
# Youngs Moduli (GPa) = 75.36301 79.27052 68.68021
#
# Poissons Ratio (x) = 0.24069 0.34079
# Poissons Ratio (y) = 0.22882 0.25039
# Poissons Ratio (z) = 0.37395 0.28900
#
# Static dielectric constant tensor:
#      x y z
#    x 3.651580 0.000000 0.000000 
#    y 0.000000 3.485030 0.000000 
#    z 0.000000 0.000000 3.419190 
# 
# 
# High freq. dielectric constant tensor:
#      x y z
#    x 1.736360 0.000000 0.000000 
#    y 0.000000 1.733020 0.000000 
#    z 0.000000 0.000000 1.730940 
# 
# From -- ./inp_files/12860.got.cif
#   From: 2010.06.25/outbox.cif.g09.slc.cpg/sg71_7_cif.got.tgz:12860.got - 2010.06.28 04:59:45.
