data_PCOD8291632
_publ_section_title
;
Structure prediction by ZEFSAII (Michael W. Deem and Ramdas Pophale) SiO2 
 PCOD8291632
Probable space group: I M M M
;
_chemical_formula_sum "Si O2"
_cell_formula_units_Z 72
_cell_length_a 21.104861
_cell_length_b 8.677120
_cell_length_c 19.634263
_cell_angle_alpha 90.000000
_cell_angle_beta 90.000000
_cell_angle_gamma 90.000000
_cell_volume 3595.611028
_symmetry_space_group_name_H-M "I M M M"
_symmetry_group_IT_number 71
_symmetry_cell_setting 'orthorhombic'
loop_
_space_group_symop_operation_xyz
x,y,z
-x,-y,z
x,-y,-z
-x,y,-z
-x,-y,-z
x,y,-z
-x,y,z
x,-y,z
1/2+x,1/2+y,1/2+z
1/2-x,1/2-y,1/2+z
1/2+x,1/2-y,1/2-z
1/2-x,1/2+y,1/2-z
1/2-x,1/2-y,1/2-z
1/2+x,1/2+y,1/2-z
1/2-x,1/2+y,1/2+z
1/2+x,1/2-y,1/2+z
loop_
_atom_site_type_symbol
_atom_site_label
_atom_site_fract_x
_atom_site_fract_y
_atom_site_fract_z
Si Si1 0.819516 0.177900 0.255135
Si Si2 0.571039 0.681742 0.143101
Si Si3 0.260688 0.679312 0.000000
Si Si4 0.432864 0.681328 0.500000
Si Si5 0.168330 0.178298 0.897618
Si Si6 0.604704 0.180302 0.000000
O O1 0.750000 0.250000 0.250000
O O2 0.871258 0.248495 0.308809
O O3 0.847287 0.206927 0.180599
O O4 0.810003 0.000000 0.272448
O O5 0.500000 0.719427 0.172524
O O6 0.580384 0.500000 0.138189
O O7 0.573684 0.750331 0.067701
O O8 0.224183 0.718662 0.929836
O O9 0.278985 0.500000 0.000000
O O10 0.321633 0.784734 0.000000
O O11 0.442282 0.500000 0.500000
O O12 0.500000 0.767435 0.500000
O O13 0.395897 0.732777 0.566994
O O14 0.185294 0.000000 0.913038
O O15 0.591960 0.000000 0.000000
#
# Coordination Sequence:
#
# PCOD8291632 Si02
#       6
#    16  16   8   8  16   8
#     4  10  21  36  56  82 111 145 183 225 274 327
#     4  10  22  40  60  84 115 149 186 230 281 335
#     4  11  21  34  55  82 110 144 186 229 280 333
#     4   8  14  26  48  76 103 134 172 213 259 313
#     4   9  18  33  52  78 111 142 178 226 275 325
#     4  12  24  38  58  82 109 143 186 232 278 333
#
# _framework density 20.024412999999999
#
# number of rings (size 3 to 8) (size 9 to 14) (size 15 to 20)
#    0.000    2.111    0.000    4.333    0.000    8.000 
#    0.000    4.444    0.000    5.333    0.000    6.222 
#    0.000    0.000    0.000    0.000    0.000    0.000 
#
# Total GULP energy -446040.512371 kJ/mol
# GULP energy per Si atom -12390.014233 kJ/mol
# Density = 1.997884 g / cm^3
# Si number density = 20.024413 Si / 1000 Ang^3
#
#
#
# Elastic Constant Matrix: (Units=GPa)
#
#
# Indices 1 2 3 4 5 6 
#
# 1 167.9700 27.8082 66.1602 0.0000 0.0000 0.0000
# 2 27.8082 31.7876 27.8808 0.0000 0.0000 0.0000
# 3 66.1602 27.8808 131.6679 0.0000 0.0000 0.0000
# 4 0.0000 0.0000 0.0000 22.5308 0.0000 0.0000
# 5 0.0000 0.0000 0.0000 0.0000 7.7245 0.0000
# 6 0.0000 0.0000 0.0000 0.0000 0.0000 22.5313
#
#
#
# Elastic Compliance Matrix: (Units=1/GPa)
#
#
# Indices 1 2 3 4 5 6 
#
# 1 0.007851 -0.004185 -0.003059 0.000000 0.000000 0.000000
# 2 -0.004185 0.040865 -0.006550 0.000000 0.000000 0.000000
# 3 -0.003059 -0.006550 0.010519 0.000000 0.000000 0.000000
# 4 0.000000 0.000000 0.000000 0.044384 0.000000 0.000000
# 5 0.000000 0.000000 0.000000 0.000000 0.129458 0.000000
# 6 0.000000 0.000000 0.000000 0.000000 0.000000 0.044383
#
#
# Mechanical properties :
#
#
# Convention : Reuss Voigt Hill
#
# Bulk Modulus (GPa) = 31.59896 63.90265 47.75080
# Shear Modulus (GPa) = 15.84297 24.52909 20.18603
#
# Velocity S-wave (km/s) = 2.81585 3.50374 3.17846
# Velocity P-wave (km/s) = 5.13678 6.95341 6.11295
#
# Compressibility (1/GPa) = 0.03164661
#
# Stress axis : x y z
#
# Youngs Moduli (GPa) = 127.36980 24.47055 95.06773
#
# Poissons Ratio (x) = 0.10242 0.29079
# Poissons Ratio (y) = 0.53310 0.62271
# Poissons Ratio (z) = 0.38959 0.16029
#
# Static dielectric constant tensor:
#      x y z
#    x 4.079740 0.000000 0.000000 
#    y 0.000000 3.385200 0.000000 
#    z 0.000000 0.000000 3.182760 
# 
# 
# High freq. dielectric constant tensor:
#      x y z
#    x 1.794220 0.000000 0.000000 
#    y 0.000000 1.751960 0.000000 
#    z 0.000000 0.000000 1.788700 
# 
# From -- ./inp_files/54717.got.cif
#   From: 2010.06.25/outbox.cif.g09.slc.cpg/sg71_28_cif.got.tgz:54717.got - 2010.06.28 04:59:45.
