data_PCOD8291023
_publ_section_title
;
Structure prediction by ZEFSAII (Michael W. Deem and Ramdas Pophale) SiO2 
 PCOD8291023
Probable space group: I M M M
;
_chemical_formula_sum "Si O2"
_cell_formula_units_Z 120
_cell_length_a 22.239185
_cell_length_b 23.175211
_cell_length_c 12.513969
_cell_angle_alpha 90.000000
_cell_angle_beta 90.000000
_cell_angle_gamma 90.000000
_cell_volume 6449.672152
_symmetry_space_group_name_H-M "I M M M"
_symmetry_group_IT_number 71
_symmetry_cell_setting 'orthorhombic'
loop_
_space_group_symop_operation_xyz
x,y,z
-x,-y,z
x,-y,-z
-x,y,-z
-x,-y,-z
x,y,-z
-x,y,z
x,-y,z
1/2+x,1/2+y,1/2+z
1/2-x,1/2-y,1/2+z
1/2+x,1/2-y,1/2-z
1/2-x,1/2+y,1/2-z
1/2-x,1/2-y,1/2-z
1/2+x,1/2+y,1/2-z
1/2-x,1/2+y,1/2+z
1/2+x,1/2-y,1/2+z
loop_
_atom_site_type_symbol
_atom_site_label
_atom_site_fract_x
_atom_site_fract_y
_atom_site_fract_z
Si Si1 0.932097 0.660242 0.878007
Si Si2 0.752092 0.435722 0.712427
Si Si3 0.568166 0.670146 0.874005
Si Si4 0.611031 0.934741 0.773289
Si Si5 0.751693 0.183434 0.121967
Si Si6 0.432296 0.068397 0.000000
Si Si7 0.151031 0.745191 0.753862
Si Si8 0.351337 0.435106 0.122575
O O1 0.927004 0.601920 0.810070
O O2 0.886309 0.708329 0.837910
O O3 0.000000 0.683862 0.867371
O O4 0.916171 0.645524 0.000000
O O5 0.740457 0.500000 0.663060
O O6 0.819251 0.432059 0.758123
O O7 0.741938 0.386205 0.624230
O O8 0.708987 0.423119 0.811970
O O9 0.500000 0.671370 0.830869
O O10 0.605544 0.721482 0.822444
O O11 0.596199 0.608331 0.841543
O O12 0.569935 0.679441 0.000000
O O13 0.601951 0.909469 0.893780
O O14 0.586251 0.000000 0.767516
O O15 0.809148 0.210190 0.179917
O O16 0.691244 0.202812 0.181930
O O17 0.749489 0.204498 0.000000
O O18 0.500000 0.093161 0.000000
O O19 0.432141 0.000000 0.000000
O O20 0.375603 0.500000 0.141456
O O21 0.333453 0.424611 0.000000
#
# Coordination Sequence:
#
# PCOD8291023 Si02
#       8
#    16  16  16  16  16   8  16  16
#     4  11  24  40  58  80 109 150 197 238 278 333
#     4  10  20  36  56  83 113 144 182 230 285 336
#     4  10  20  35  59  88 116 149 190 235 283 338
#     4  10  21  37  57  83 113 146 190 238 287 340
#     4  11  23  38  60  86 110 145 189 233 286 341
#     4   9  18  34  56  80 110 148 185 229 288 348
#     4  11  22  41  57  80 115 152 183 234 283 341
#     4   9  18  34  56  84 118 150 181 223 282 344
#
# _framework density 18.605595999999998
#
# number of rings (size 3 to 8) (size 9 to 14) (size 15 to 20)
#    0.000    1.800    2.667    1.600    0.933    2.133 
#    1.200    3.333    0.000    0.000    0.000    0.000 
#    0.000    2.133    0.000    0.000    0.000    0.000 
#
# Total GULP energy -744059.339820 kJ/mol
# GULP energy per Si atom -12400.988997 kJ/mol
# Density = 1.856325 g / cm^3
# Si number density = 18.605596 Si / 1000 Ang^3
#
#
#
# Elastic Constant Matrix: (Units=GPa)
#
#
# Indices 1 2 3 4 5 6 
#
# 1 126.9697 49.7003 53.9349 0.0000 0.0000 0.0000
# 2 49.7003 107.6172 49.1728 0.0000 0.0000 0.0000
# 3 53.9349 49.1728 95.9362 0.0000 0.0000 0.0000
# 4 0.0000 0.0000 0.0000 27.2365 0.0000 0.0000
# 5 0.0000 0.0000 0.0000 0.0000 30.6981 0.0000
# 6 0.0000 0.0000 0.0000 0.0000 0.0000 15.5240
#
#
#
# Elastic Compliance Matrix: (Units=1/GPa)
#
#
# Indices 1 2 3 4 5 6 
#
# 1 0.011020 -0.002949 -0.004684 0.000000 0.000000 0.000000
# 2 -0.002949 0.012923 -0.004966 0.000000 0.000000 0.000000
# 3 -0.004684 -0.004966 0.015602 0.000000 0.000000 0.000000
# 4 0.000000 0.000000 0.000000 0.036715 0.000000 0.000000
# 5 0.000000 0.000000 0.000000 0.000000 0.032575 0.000000
# 6 0.000000 0.000000 0.000000 0.000000 0.000000 0.064416
#
#
# Mechanical properties :
#
#
# Convention : Reuss Voigt Hill
#
# Bulk Modulus (GPa) = 69.69787 70.68211 70.18999
# Shear Modulus (GPa) = 24.60239 26.53940 25.57090
#
# Velocity S-wave (km/s) = 3.64030 3.78090 3.71127
# Velocity P-wave (km/s) = 7.43042 7.55860 7.49478
#
# Compressibility (1/GPa) = 0.01434764
#
# Stress axis : x y z
#
# Youngs Moduli (GPa) = 90.74520 77.38018 64.09415
#
# Poissons Ratio (x) = 0.22821 0.30020
# Poissons Ratio (y) = 0.26762 0.31828
# Poissons Ratio (z) = 0.42502 0.38426
#
# Static dielectric constant tensor:
#      x y z
#    x 3.485410 0.000000 0.000000 
#    y 0.000000 3.537970 0.000000 
#    z 0.000000 0.000000 3.326560 
# 
# 
# High freq. dielectric constant tensor:
#      x y z
#    x 1.726630 0.000000 0.000000 
#    y 0.000000 1.727830 0.000000 
#    z 0.000000 0.000000 1.711870 
# 
# From -- ./inp_files/26313.got.cif
#   From: 2010.06.25/outbox.cif.g09.slc.cpg/sg71_14_cif.got.tgz:26313.got - 2010.06.28 04:59:45.
