data_PCOD8291317
_publ_section_title
;
Structure prediction by ZEFSAII (Michael W. Deem and Ramdas Pophale) SiO2 
 PCOD8291317
Probable space group: I M M M
;
_chemical_formula_sum "Si O2"
_cell_formula_units_Z 96
_cell_length_a 9.078694
_cell_length_b 23.500979
_cell_length_c 25.063714
_cell_angle_alpha 90.000000
_cell_angle_beta 90.000000
_cell_angle_gamma 90.000000
_cell_volume 5347.548830
_symmetry_space_group_name_H-M "I M M M"
_symmetry_group_IT_number 71
_symmetry_cell_setting 'orthorhombic'
loop_
_space_group_symop_operation_xyz
x,y,z
-x,-y,z
x,-y,-z
-x,y,-z
-x,-y,-z
x,y,-z
-x,y,z
x,-y,z
1/2+x,1/2+y,1/2+z
1/2-x,1/2-y,1/2+z
1/2+x,1/2-y,1/2-z
1/2-x,1/2+y,1/2-z
1/2-x,1/2-y,1/2-z
1/2+x,1/2+y,1/2-z
1/2-x,1/2+y,1/2+z
1/2+x,1/2-y,1/2+z
loop_
_atom_site_type_symbol
_atom_site_label
_atom_site_fract_x
_atom_site_fract_y
_atom_site_fract_z
Si Si1 0.825731 0.689733 0.746123
Si Si2 0.329722 0.179891 0.937947
Si Si3 0.173905 0.500000 0.810340
Si Si4 0.831825 0.000000 0.198507
Si Si5 0.827374 0.809302 0.439638
Si Si6 0.171690 0.121296 0.153702
Si Si7 0.327209 0.879694 0.350475
O O1 0.750000 0.750000 0.750000
O O2 0.766542 0.657556 0.694770
O O3 0.779465 0.654740 0.798231
O O4 0.000000 0.697081 0.740861
O O5 0.500000 0.168228 0.924058
O O6 0.287861 0.244824 0.922775
O O7 0.225524 0.137264 0.905442
O O8 0.299763 0.168816 0.000000
O O9 0.233945 0.500000 0.750811
O O10 0.226940 0.555397 0.842825
O O11 0.000000 0.500000 0.803451
O O12 0.796876 0.945272 0.162366
O O13 0.000000 0.000000 0.217905
O O14 0.774278 0.820462 0.500000
O O15 0.748174 0.854397 0.402360
O O16 0.000000 0.819016 0.434811
O O17 0.000000 0.136187 0.160399
O O18 0.500000 0.876323 0.359609
#
# Coordination Sequence:
#
# PCOD8291317 Si02
#       7
#    16  16   8   8  16  16  16
#     4  11  22  35  53  80 112 143 178 224 278 332
#     4   9  19  37  59  82 109 144 185 227 275 330
#     4  10  20  38  57  76 105 143 186 228 268 317
#     4  10  22  38  55  78 109 147 188 226 270 327
#     4   9  19  36  57  80 108 142 178 219 269 324
#     4  11  22  36  55  81 111 144 185 227 274 330
#     4  10  21  35  54  79 106 139 180 223 269 320
#
# _framework density 17.95215
#
# number of rings (size 3 to 8) (size 9 to 14) (size 15 to 20)
#    0.000    2.000    1.667    3.000    0.000    6.667 
#    0.000    2.500    0.000    5.000    0.000    0.000 
#    0.000    0.000    0.000    0.000    0.000    0.000 
#
# Total GULP energy -595324.861396 kJ/mol
# GULP energy per Si atom -12402.601279 kJ/mol
# Density = 1.791129 g / cm^3
# Si number density = 17.952150 Si / 1000 Ang^3
#
#
#
# Elastic Constant Matrix: (Units=GPa)
#
#
# Indices 1 2 3 4 5 6 
#
# 1 54.1563 50.2850 41.5870 0.0000 0.0000 0.0000
# 2 50.2850 144.0087 65.0880 0.0000 0.0000 0.0000
# 3 41.5870 65.0880 103.8715 0.0000 0.0000 0.0000
# 4 0.0000 0.0000 0.0000 17.6813 0.0000 0.0000
# 5 0.0000 0.0000 0.0000 0.0000 36.8018 0.0000
# 6 0.0000 0.0000 0.0000 0.0000 0.0000 29.3780
#
#
#
# Elastic Compliance Matrix: (Units=1/GPa)
#
#
# Indices 1 2 3 4 5 6 
#
# 1 0.031426 -0.007376 -0.007960 0.000000 0.000000 0.000000
# 2 -0.007376 0.011419 -0.004202 0.000000 0.000000 0.000000
# 3 -0.007960 -0.004202 0.015448 0.000000 0.000000 0.000000
# 4 0.000000 0.000000 0.000000 0.056557 0.000000 0.000000
# 5 0.000000 0.000000 0.000000 0.000000 0.027173 0.000000
# 6 0.000000 0.000000 0.000000 0.000000 0.000000 0.034039
#
#
# Mechanical properties :
#
#
# Convention : Reuss Voigt Hill
#
# Bulk Modulus (GPa) = 52.03969 68.43961 60.23965
# Shear Modulus (GPa) = 22.56899 26.44400 24.50649
#
# Velocity S-wave (km/s) = 3.54951 3.84217 3.69874
# Velocity P-wave (km/s) = 6.77124 7.60849 7.20204
#
# Compressibility (1/GPa) = 0.01921610
#
# Stress axis : x y z
#
# Youngs Moduli (GPa) = 31.82052 87.57542 64.73478
#
# Poissons Ratio (x) = 0.64591 0.51532
# Poissons Ratio (y) = 0.23469 0.27203
# Poissons Ratio (z) = 0.25331 0.36802
#
# Static dielectric constant tensor:
#      x y z
#    x 3.293050 0.000000 0.000000 
#    y 0.000000 3.552360 0.000000 
#    z 0.000000 0.000000 3.332890 
# 
# 
# High freq. dielectric constant tensor:
#      x y z
#    x 1.695690 0.000000 0.000000 
#    y 0.000000 1.699890 0.000000 
#    z 0.000000 0.000000 1.695770 
# 
# From -- ./inp_files/57757.got.cif
#   From: 2010.06.25/outbox.cif.g09.slc.cpg/sg71_29_cif.got.tgz:57757.got - 2010.06.28 04:59:45.
