data_PCOD8291756
_publ_section_title
;
Structure prediction by ZEFSAII (Michael W. Deem and Ramdas Pophale) SiO2 
 PCOD8291756
Probable space group: I M M M
;
_chemical_formula_sum "Si O2"
_cell_formula_units_Z 104
_cell_length_a 8.967534
_cell_length_b 28.754851
_cell_length_c 19.711123
_cell_angle_alpha 90.000000
_cell_angle_beta 90.000000
_cell_angle_gamma 90.000000
_cell_volume 5082.712227
_symmetry_space_group_name_H-M "I M M M"
_symmetry_group_IT_number 71
_symmetry_cell_setting 'orthorhombic'
loop_
_space_group_symop_operation_xyz
x,y,z
-x,-y,z
x,-y,-z
-x,y,-z
-x,-y,-z
x,y,-z
-x,y,z
x,-y,z
1/2+x,1/2+y,1/2+z
1/2-x,1/2-y,1/2+z
1/2+x,1/2-y,1/2-z
1/2-x,1/2+y,1/2-z
1/2-x,1/2-y,1/2-z
1/2+x,1/2+y,1/2-z
1/2-x,1/2+y,1/2+z
1/2+x,1/2-y,1/2+z
loop_
_atom_site_type_symbol
_atom_site_label
_atom_site_fract_x
_atom_site_fract_y
_atom_site_fract_z
Si Si1 0.664180 0.000000 0.919745
Si Si2 0.823942 0.215274 0.799930
Si Si3 0.824182 0.445818 0.818321
Si Si4 0.826845 0.720218 0.077457
Si Si5 0.325361 0.376136 0.078903
Si Si6 0.175426 0.091014 0.924364
Si Si7 0.825438 0.623121 0.699650
O O1 0.754505 0.043996 0.894648
O O2 0.500000 0.000000 0.885861
O O3 0.651432 0.000000 0.000000
O O4 0.750000 0.250000 0.750000
O O5 0.790024 0.234667 0.876144
O O6 0.733327 0.170992 0.771077
O O7 0.000000 0.207882 0.789199
O O8 0.772586 0.500000 0.815231
O O9 0.745702 0.418993 0.879903
O O10 0.780654 0.420192 0.747680
O O11 0.000000 0.442404 0.830285
O O12 0.739354 0.673944 0.101470
O O13 0.000000 0.707301 0.083932
O O14 0.784117 0.733563 0.000000
O O15 0.500000 0.375489 0.093763
O O16 0.289503 0.385182 0.000000
O O17 0.235788 0.127891 0.871727
O O18 0.000000 0.086904 0.923490
O O19 0.232562 0.102605 0.000000
O O20 0.000000 0.623181 0.684850
#
# Coordination Sequence:
#
# PCOD8291756 Si02
#       7
#     8  16  16  16  16  16  16
#     4   9  17  31  53  79 107 143 186 231 280 333
#     4  11  23  39  60  86 118 154 195 242 295 356
#     4  10  23  42  61  83 114 155 202 248 293 348
#     4   9  19  37  61  87 116 154 196 235 282 345
#     4  10  21  37  60  92 125 153 186 235 293 352
#     4  10  21  37  57  83 115 151 194 242 291 347
#     4  11  24  40  60  86 117 154 199 250 304 355
#
# _framework density 20.461516
#
# number of rings (size 3 to 8) (size 9 to 14) (size 15 to 20)
#    0.000    1.923    0.000    3.000    1.077   10.154 
#    0.000    3.077    0.000    0.000    0.000    0.000 
#    0.000    0.000    0.000    0.000    0.000    0.000 
#
# Total GULP energy -644417.372443 kJ/mol
# GULP energy per Si atom -12392.641778 kJ/mol
# Density = 2.041494 g / cm^3
# Si number density = 20.461516 Si / 1000 Ang^3
#
#
#
# Elastic Constant Matrix: (Units=GPa)
#
#
# Indices 1 2 3 4 5 6 
#
# 1 70.1758 32.9691 41.8861 0.0004 0.0001 0.0000
# 2 32.9691 104.4610 32.7813 0.0003 0.0001 0.0000
# 3 41.8861 32.7813 88.3075 0.0012 0.0002 0.0000
# 4 0.0004 0.0003 0.0012 37.2938 0.0001 0.0000
# 5 0.0001 0.0001 0.0002 0.0001 33.7502 0.0001
# 6 0.0000 0.0000 0.0000 0.0000 0.0001 37.6491
#
#
#
# Elastic Compliance Matrix: (Units=1/GPa)
#
#
# Indices 1 2 3 4 5 6 
#
# 1 0.021267 -0.004014 -0.008597 0.000000 0.000000 0.000000
# 2 -0.004014 0.011593 -0.002399 0.000000 0.000000 0.000000
# 3 -0.008597 -0.002399 0.016293 0.000000 0.000000 0.000000
# 4 0.000000 0.000000 0.000000 0.026814 0.000000 0.000000
# 5 0.000000 0.000000 0.000000 0.000000 0.029629 0.000000
# 6 0.000000 0.000000 0.000000 0.000000 0.000000 0.026561
#
#
# Mechanical properties :
#
#
# Convention : Reuss Voigt Hill
#
# Bulk Modulus (GPa) = 52.27176 53.13526 52.70351
# Shear Modulus (GPa) = 29.66358 32.09246 30.87802
#
# Velocity S-wave (km/s) = 3.81166 3.96464 3.88890
# Velocity P-wave (km/s) = 6.70623 6.85438 6.78071
#
# Compressibility (1/GPa) = 0.01913079
#
# Stress axis : x y z
#
# Youngs Moduli (GPa) = 47.02023 86.25988 61.37713
#
# Poissons Ratio (x) = 0.34627 0.52769
# Poissons Ratio (y) = 0.18875 0.14727
# Poissons Ratio (z) = 0.40425 0.20697
#
# Static dielectric constant tensor:
#      x y z
#    x 3.767880 0.000000 0.000000 
#    y 0.000000 0.466370 0.000020 
#    z 0.000000 0.000020 3.556780 
# 
# 
# High freq. dielectric constant tensor:
#      x y z
#    x 1.800520 0.000000 0.000000 
#    y 0.000000 1.803260 0.000000 
#    z 0.000000 0.000000 1.806290 
# 
# From -- ./inp_files/50878.got.cif
#   From: 2010.06.25/outbox.cif.g09.slc.cpg/sg71_26_cif.got.tgz:50878.got - 2010.06.28 04:59:45.
