data_PCOD8291635
_publ_section_title
;
Structure prediction by ZEFSAII (Michael W. Deem and Ramdas Pophale) SiO2 
 PCOD8291635
Probable space group: I M M M
;
_chemical_formula_sum "Si O2"
_cell_formula_units_Z 96
_cell_length_a 18.086800
_cell_length_b 9.005182
_cell_length_c 28.446694
_cell_angle_alpha 90.000000
_cell_angle_beta 90.000000
_cell_angle_gamma 90.000000
_cell_volume 4633.253174
_symmetry_space_group_name_H-M "I M M M"
_symmetry_group_IT_number 71
_symmetry_cell_setting 'orthorhombic'
loop_
_space_group_symop_operation_xyz
x,y,z
-x,-y,z
x,-y,-z
-x,y,-z
-x,-y,-z
x,y,-z
-x,y,z
x,-y,z
1/2+x,1/2+y,1/2+z
1/2-x,1/2-y,1/2+z
1/2+x,1/2-y,1/2-z
1/2-x,1/2+y,1/2-z
1/2-x,1/2-y,1/2-z
1/2+x,1/2+y,1/2-z
1/2-x,1/2+y,1/2+z
1/2+x,1/2-y,1/2+z
loop_
_atom_site_type_symbol
_atom_site_label
_atom_site_fract_x
_atom_site_fract_y
_atom_site_fract_z
Si Si1 0.916494 0.328072 0.860212
Si Si2 0.351780 0.675344 0.554280
Si Si3 0.794097 0.162762 0.445912
Si Si4 0.914562 0.673023 0.602085
Si Si5 0.175182 0.324683 0.230210
Si Si6 0.912919 0.165657 0.694764
O O1 0.904823 0.500000 0.872671
O O2 0.911972 0.235561 0.908865
O O3 0.853021 0.279269 0.822258
O O4 0.000000 0.301817 0.840215
O O5 0.371021 0.720001 0.500000
O O6 0.345602 0.500000 0.558336
O O7 0.275457 0.745688 0.573311
O O8 0.781156 0.136718 0.500000
O O9 0.868408 0.259155 0.440594
O O10 0.799760 0.000000 0.421181
O O11 0.899346 0.500000 0.608234
O O12 0.883247 0.757612 0.647613
O O13 0.000000 0.706071 0.592130
O O14 0.185102 0.500000 0.233998
O O15 0.250000 0.250000 0.250000
O O16 0.108650 0.270285 0.262561
O O17 0.000000 0.156186 0.692787
O O18 0.878530 0.000000 0.699467
#
# Coordination Sequence:
#
# PCOD8291635 Si02
#       6
#    16  16  16  16  16  16
#     4  10  23  43  66  92 124 164 207 252 304 366
#     4  10  22  40  63  92 125 161 203 252 308 370
#     4  10  21  37  58  83 115 156 200 250 306 365
#     4  10  21  36  56  83 115 155 201 249 303 362
#     4  11  24  41  62  90 124 162 204 251 303 361
#     4  10  21  38  60  85 116 155 198 245 298 358
#
# _framework density 20.719783
#
# number of rings (size 3 to 8) (size 9 to 14) (size 15 to 20)
#    0.000    1.833    0.000    3.000    2.333    7.000 
#    0.000    3.333    0.000    0.000    0.000    0.000 
#    0.000    0.000    0.000    0.000    0.000    0.000 
#
# Total GULP energy -594975.366843 kJ/mol
# GULP energy per Si atom -12395.320143 kJ/mol
# Density = 2.067262 g / cm^3
# Si number density = 20.719783 Si / 1000 Ang^3
#
#
#
# Elastic Constant Matrix: (Units=GPa)
#
#
# Indices 1 2 3 4 5 6 
#
# 1 76.5236 55.8628 48.2578 0.0000 0.0000 0.0000
# 2 55.8628 101.0570 43.1962 0.0000 0.0000 0.0000
# 3 48.2578 43.1962 78.1852 0.0000 0.0000 0.0000
# 4 0.0000 0.0000 0.0000 36.3701 0.0000 0.0000
# 5 0.0000 0.0000 0.0000 0.0000 35.4097 0.0000
# 6 0.0000 0.0000 0.0000 0.0000 0.0000 36.4298
#
#
#
# Elastic Compliance Matrix: (Units=1/GPa)
#
#
# Indices 1 2 3 4 5 6 
#
# 1 0.028018 -0.010599 -0.011438 0.000000 0.000000 0.000000
# 2 -0.010599 0.016964 -0.002831 0.000000 0.000000 0.000000
# 3 -0.011438 -0.002831 0.021414 0.000000 0.000000 0.000000
# 4 0.000000 0.000000 0.000000 0.027495 0.000000 0.000000
# 5 0.000000 0.000000 0.000000 0.000000 0.028241 0.000000
# 6 0.000000 0.000000 0.000000 0.000000 0.000000 0.027450
#
#
# Mechanical properties :
#
#
# Convention : Reuss Voigt Hill
#
# Bulk Modulus (GPa) = 60.01850 61.15547 60.58699
# Shear Modulus (GPa) = 24.40571 28.87188 26.63880
#
# Velocity S-wave (km/s) = 3.43577 3.73694 3.58951
# Velocity P-wave (km/s) = 6.69096 6.94256 6.81792
#
# Compressibility (1/GPa) = 0.01666153
#
# Stress axis : x y z
#
# Youngs Moduli (GPa) = 35.69124 58.94734 46.69946
#
# Poissons Ratio (x) = 0.62479 0.53413
# Poissons Ratio (y) = 0.37829 0.13218
# Poissons Ratio (z) = 0.40822 0.16685
#
# Static dielectric constant tensor:
#      x y z
#    x 3.696790 0.000000 0.000000 
#    y 0.000000 4.014890 0.000000 
#    z 0.000000 0.000000 3.759620 
# 
# 
# High freq. dielectric constant tensor:
#      x y z
#    x 1.808490 0.000000 0.000000 
#    y 0.000000 1.822680 0.000000 
#    z 0.000000 0.000000 1.805970 
# 
# From -- ./inp_files/66321.got.cif
#   From: 2010.06.25/outbox.cif.g09.slc.cpg/sg71_34_cif.got.tgz:66321.got - 2010.06.28 04:59:45.
