data_PCOD8291482
_publ_section_title
;
Structure prediction by ZEFSAII (Michael W. Deem and Ramdas Pophale) SiO2 
 PCOD8291482
Probable space group: I M M M
;
_chemical_formula_sum "Si O2"
_cell_formula_units_Z 88
_cell_length_a 8.817637
_cell_length_b 27.562027
_cell_length_c 18.125310
_cell_angle_alpha 90.000000
_cell_angle_beta 90.000000
_cell_angle_gamma 90.000000
_cell_volume 4405.029417
_symmetry_space_group_name_H-M "I M M M"
_symmetry_group_IT_number 71
_symmetry_cell_setting 'orthorhombic'
loop_
_space_group_symop_operation_xyz
x,y,z
-x,-y,z
x,-y,-z
-x,y,-z
-x,-y,-z
x,y,-z
-x,y,z
x,-y,z
1/2+x,1/2+y,1/2+z
1/2-x,1/2-y,1/2+z
1/2+x,1/2-y,1/2-z
1/2-x,1/2+y,1/2-z
1/2-x,1/2-y,1/2-z
1/2+x,1/2+y,1/2-z
1/2-x,1/2+y,1/2+z
1/2+x,1/2-y,1/2+z
loop_
_atom_site_type_symbol
_atom_site_label
_atom_site_fract_x
_atom_site_fract_y
_atom_site_fract_z
Si Si1 0.819473 0.788750 0.083284
Si Si2 0.169602 0.556641 0.582531
Si Si3 0.166817 0.682253 0.913744
Si Si4 0.319861 0.000000 0.414316
Si Si5 0.175950 0.873895 0.815407
Si Si6 0.821781 0.904277 0.343814
O O1 0.774336 0.735136 0.113447
O O2 0.750749 0.827186 0.142730
O O3 0.000000 0.793701 0.080199
O O4 0.755217 0.798391 0.000000
O O5 0.191703 0.576599 0.500000
O O6 0.197201 0.500000 0.584271
O O7 0.296274 0.579653 0.633972
O O8 0.000000 0.569362 0.610646
O O9 0.287911 0.640483 0.897648
O O10 0.000000 0.669897 0.879729
O O11 0.147132 0.687189 0.000000
O O12 0.260107 0.047438 0.372336
O O13 0.500000 0.000000 0.410610
O O14 0.265322 0.000000 0.500000
O O15 0.245063 0.886522 0.735217
O O16 0.000000 0.864475 0.804400
O O17 0.000000 0.915276 0.341347
#
# Coordination Sequence:
#
# PCOD8291482 Si02
#       6
#    16  16  16   8  16  16
#     4   8  15  31  56  82 109 146 190 232 267 307
#     4   9  19  35  53  75 105 142 185 233 281 326
#     4   9  18  35  59  83 107 142 191 234 269 325
#     4  11  25  45  67  85 102 137 192 237 273 336
#     4  10  21  35  53  80 114 149 186 225 269 330
#     4  11  24  38  55  85 120 147 175 226 290 337
#
# _framework density 19.977164999999999
#
# number of rings (size 3 to 8) (size 9 to 14) (size 15 to 20)
#    0.000    2.455    0.000    3.545    1.273    6.909 
#    0.000    1.818    0.000    1.091    0.000    0.000 
#    0.000    0.000    0.000    0.000    0.000    0.000 
#
# Total GULP energy -545306.981463 kJ/mol
# GULP energy per Si atom -12393.340488 kJ/mol
# Density = 1.993170 g / cm^3
# Si number density = 19.977165 Si / 1000 Ang^3
#
#
#
# Elastic Constant Matrix: (Units=GPa)
#
#
# Indices 1 2 3 4 5 6 
#
# 1 32.0021 32.4774 24.7758 0.0002 0.0000 0.0000
# 2 32.4774 133.7152 73.7751 0.0000 0.0000 0.0000
# 3 24.7758 73.7751 85.9298 0.0020 -0.0003 -0.0001
# 4 0.0002 0.0000 0.0020 16.5010 -0.0002 -0.0002
# 5 0.0000 0.0000 -0.0003 -0.0002 22.3179 0.0001
# 6 0.0000 0.0000 -0.0001 -0.0002 0.0001 15.6088
#
#
#
# Elastic Compliance Matrix: (Units=1/GPa)
#
#
# Indices 1 2 3 4 5 6 
#
# 1 0.043339 -0.006901 -0.006571 0.000000 0.000000 0.000000
# 2 -0.006901 0.015308 -0.011153 0.000001 0.000000 0.000000
# 3 -0.006571 -0.011153 0.023108 -0.000003 0.000000 0.000000
# 4 0.000000 0.000001 -0.000003 0.060602 0.000000 0.000001
# 5 0.000000 0.000000 0.000000 0.000000 0.044807 0.000000
# 6 0.000000 0.000000 0.000000 0.000001 0.000000 0.064066
#
#
# Mechanical properties :
#
#
# Convention : Reuss Voigt Hill
#
# Bulk Modulus (GPa) = 30.76506 57.07819 43.92162
# Shear Modulus (GPa) = 16.06091 18.92680 17.49386
#
# Velocity S-wave (km/s) = 2.83850 3.08136 2.96242
# Velocity P-wave (km/s) = 5.11628 6.42600 5.80817
#
# Compressibility (1/GPa) = 0.03250440
#
# Stress axis : x y z
#
# Youngs Moduli (GPa) = 23.07417 65.32382 43.27586
#
# Poissons Ratio (x) = 0.45080 0.28436
# Poissons Ratio (y) = 0.15923 0.48267
# Poissons Ratio (z) = 0.15162 0.72857
#
# Static dielectric constant tensor:
#      x y z
#    x 3.342500 0.000000 0.000000 
#    y 0.000000 3.814470 0.000000 
#    z 0.000000 0.000000 3.843270 
# 
# 
# High freq. dielectric constant tensor:
#      x y z
#    x 1.748310 0.000000 0.000000 
#    y 0.000000 1.792300 0.000000 
#    z 0.000000 0.000000 1.777150 
# 
# From -- ./inp_files/42490.got.cif
#   From: 2010.06.25/outbox.cif.g09.slc.cpg/sg71_22_cif.got.tgz:42490.got - 2010.06.28 04:59:45.
