data_PCOD8291710
_publ_section_title
;
Structure prediction by ZEFSAII (Michael W. Deem and Ramdas Pophale) SiO2 
 PCOD8291710
Probable space group: I M M M
;
_chemical_formula_sum "Si O2"
_cell_formula_units_Z 120
_cell_length_a 9.415859
_cell_length_b 26.838896
_cell_length_c 27.437188
_cell_angle_alpha 90.000000
_cell_angle_beta 90.000000
_cell_angle_gamma 90.000000
_cell_volume 6933.686363
_symmetry_space_group_name_H-M "I M M M"
_symmetry_group_IT_number 71
_symmetry_cell_setting 'orthorhombic'
loop_
_space_group_symop_operation_xyz
x,y,z
-x,-y,z
x,-y,-z
-x,y,-z
-x,-y,-z
x,y,-z
-x,y,z
x,-y,z
1/2+x,1/2+y,1/2+z
1/2-x,1/2-y,1/2+z
1/2+x,1/2-y,1/2-z
1/2-x,1/2+y,1/2-z
1/2-x,1/2-y,1/2-z
1/2+x,1/2+y,1/2-z
1/2-x,1/2+y,1/2+z
1/2+x,1/2-y,1/2+z
loop_
_atom_site_type_symbol
_atom_site_label
_atom_site_fract_x
_atom_site_fract_y
_atom_site_fract_z
Si Si1 0.331645 0.408177 0.117215
Si Si2 0.164443 0.212232 0.943292
Si Si3 0.330318 0.500000 0.054779
Si Si4 0.835319 0.652082 0.368891
Si Si5 0.335724 0.055994 0.813248
Si Si6 0.334701 0.703119 0.105516
Si Si7 0.660511 0.558509 0.780135
Si Si8 0.662300 0.239410 0.798191
O O1 0.500000 0.413789 0.119944
O O2 0.270242 0.450610 0.081455
O O3 0.287634 0.353970 0.097530
O O4 0.273305 0.415334 0.172069
O O5 0.238119 0.166909 0.914463
O O6 0.240389 0.264248 0.930836
O O7 0.000000 0.215776 0.928083
O O8 0.182001 0.200713 0.000000
O O9 0.500000 0.500000 0.054992
O O10 0.270857 0.500000 0.000000
O O11 0.803406 0.594268 0.357018
O O12 0.797526 0.686060 0.321935
O O13 0.000000 0.660769 0.383071
O O14 0.500000 0.057502 0.799039
O O15 0.252123 0.074525 0.766045
O O16 0.289661 0.000000 0.829284
O O17 0.500000 0.711446 0.092424
O O18 0.306820 0.718098 0.161605
O O19 0.500000 0.576350 0.770121
O O20 0.666481 0.500000 0.789659
O O21 0.500000 0.240154 0.781695
O O22 0.750000 0.250000 0.750000
#
# Coordination Sequence:
#
# PCOD8291710 Si02
#       8
#    16  16   8  16  16  16  16  16
#     4   9  16  28  44  66  98 130 166 213 255 297
#     4  10  21  37  56  77  99 124 161 209 257 304
#     4   9  16  26  42  66  95 127 165 213 264 301
#     4   9  19  35  53  75 103 134 168 203 242 294
#     4   9  18  32  50  75 107 137 166 202 239 284
#     4   9  19  33  49  71  99 131 169 208 250 301
#     4   9  16  27  45  68  97 135 171 204 244 288
#     4   9  18  30  43  65  96 130 164 200 241 287
#
# _framework density 17.306811
#
# number of rings (size 3 to 8) (size 9 to 14) (size 15 to 20)
#    0.000    2.867    0.667    1.200    1.867    4.267 
#    0.000    2.000    0.000    0.400    0.000    2.800 
#    0.000    2.133    0.000    0.000    0.000    0.000 
#
# Total GULP energy -743881.319365 kJ/mol
# GULP energy per Si atom -12398.021989 kJ/mol
# Density = 1.726742 g / cm^3
# Si number density = 17.306811 Si / 1000 Ang^3
#
#
#
# Elastic Constant Matrix: (Units=GPa)
#
#
# Indices 1 2 3 4 5 6 
#
# 1 66.7213 40.5409 55.6601 0.0000 0.0000 0.0000
# 2 40.5409 123.0875 61.5692 0.0000 0.0000 0.0000
# 3 55.6601 61.5692 103.4335 0.0000 0.0000 0.0000
# 4 0.0000 0.0000 0.0000 17.3434 0.0000 0.0000
# 5 0.0000 0.0000 0.0000 0.0000 22.9304 0.0000
# 6 0.0000 0.0000 0.0000 0.0000 0.0000 14.5851
#
#
#
# Elastic Compliance Matrix: (Units=1/GPa)
#
#
# Indices 1 2 3 4 5 6 
#
# 1 0.027675 -0.002372 -0.013480 0.000000 0.000000 0.000000
# 2 -0.002372 0.011772 -0.005731 0.000000 0.000000 0.000000
# 3 -0.013480 -0.005731 0.020334 0.000000 0.000000 0.000000
# 4 0.000000 0.000000 0.000000 0.057659 0.000000 0.000000
# 5 0.000000 0.000000 0.000000 0.000000 0.043610 0.000000
# 6 0.000000 0.000000 0.000000 0.000000 0.000000 0.068563
#
#
# Mechanical properties :
#
#
# Convention : Reuss Voigt Hill
#
# Bulk Modulus (GPa) = 60.19211 67.64254 63.91733
# Shear Modulus (GPa) = 17.96512 20.00328 18.98420
#
# Velocity S-wave (km/s) = 3.22535 3.40340 3.31557
# Velocity P-wave (km/s) = 6.98036 7.39009 7.18814
#
# Compressibility (1/GPa) = 0.01661347
#
# Stress axis : x y z
#
# Youngs Moduli (GPa) = 36.13419 84.94530 49.17975
#
# Poissons Ratio (x) = 0.20150 0.66296
# Poissons Ratio (y) = 0.08571 0.28185
# Poissons Ratio (z) = 0.48710 0.48682
#
# Static dielectric constant tensor:
#      x y z
#    x 3.058550 0.000000 0.000000 
#    y 0.000000 3.409100 0.000000 
#    z 0.000000 0.000000 3.076350 
# 
# 
# High freq. dielectric constant tensor:
#      x y z
#    x 1.643720 0.000000 0.000000 
#    y 0.000000 1.671920 0.000000 
#    z 0.000000 0.000000 1.654970 
# 
# From -- ./inp_files/63786.got.cif
#   From: 2010.06.25/outbox.cif.g09.slc.cpg/sg71_32_cif.got.tgz:63786.got - 2010.06.28 04:59:45.
