data_PCOD8291916
_publ_section_title
;
Structure prediction by ZEFSAII (Michael W. Deem and Ramdas Pophale) SiO2 
 PCOD8291916
Probable space group: I M M M
;
_chemical_formula_sum "Si O2"
_cell_formula_units_Z 104
_cell_length_a 19.926761
_cell_length_b 9.054925
_cell_length_c 28.261551
_cell_angle_alpha 90.000000
_cell_angle_beta 90.000000
_cell_angle_gamma 90.000000
_cell_volume 5099.382178
_symmetry_space_group_name_H-M "I M M M"
_symmetry_group_IT_number 71
_symmetry_cell_setting 'orthorhombic'
loop_
_space_group_symop_operation_xyz
x,y,z
-x,-y,z
x,-y,-z
-x,y,-z
-x,-y,-z
x,y,-z
-x,y,z
x,-y,z
1/2+x,1/2+y,1/2+z
1/2-x,1/2-y,1/2+z
1/2+x,1/2-y,1/2-z
1/2-x,1/2+y,1/2-z
1/2-x,1/2-y,1/2-z
1/2+x,1/2+y,1/2-z
1/2-x,1/2+y,1/2+z
1/2+x,1/2-y,1/2+z
loop_
_atom_site_type_symbol
_atom_site_label
_atom_site_fract_x
_atom_site_fract_y
_atom_site_fract_z
Si Si1 0.809361 0.164996 0.773102
Si Si2 0.302892 0.661816 0.620905
Si Si3 0.681842 0.825232 0.944462
Si Si4 0.073604 0.675621 0.100371
Si Si5 0.421626 0.158549 0.500000
Si Si6 0.078047 0.673986 0.279326
Si Si7 0.421786 0.327441 0.121868
O O1 0.750000 0.250000 0.750000
O O2 0.778686 0.152797 0.825700
O O3 0.878857 0.253233 0.763150
O O4 0.819535 0.000000 0.752653
O O5 0.323691 0.500000 0.601764
O O6 0.247664 0.729014 0.584940
O O7 0.367801 0.763039 0.632162
O O8 0.618152 0.741484 0.922504
O O9 0.671625 0.000000 0.937752
O O10 0.689782 0.783829 0.000000
O O11 0.073106 0.500000 0.098821
O O12 0.094644 0.743703 0.048553
O O13 0.000000 0.732508 0.116521
O O14 0.500000 0.124873 0.500000
O O15 0.383665 0.000000 0.500000
O O16 0.092941 0.500000 0.281739
O O17 0.098616 0.745625 0.329612
O O18 0.000000 0.704752 0.267866
O O19 0.500000 0.302735 0.110813
O O20 0.404281 0.500000 0.126800
#
# Coordination Sequence:
#
# PCOD8291916 Si02
#       7
#    16  16  16  16   8  16  16
#     4  11  23  39  60  85 116 153 195 243 294 353
#     4  10  23  39  55  81 115 150 189 238 293 342
#     4  10  22  40  60  83 116 158 202 247 294 348
#     4   9  18  33  54  79 107 142 186 233 278 328
#     4   7  12  26  47  71  99 131 170 217 264 307
#     4  10  21  38  62  91 122 156 195 240 294 359
#     4  10  21  38  62  92 123 153 189 237 293 354
#
# _framework density 20.394625999999999
#
# number of rings (size 3 to 8) (size 9 to 14) (size 15 to 20)
#    0.000    2.231    0.000    3.231    1.077    6.462 
#    0.000    4.615    0.000    1.385    0.000    0.000 
#    0.000    0.000    0.000    0.000    0.000    0.000 
#
# Total GULP energy -644187.592995 kJ/mol
# GULP energy per Si atom -12388.222942 kJ/mol
# Density = 2.034821 g / cm^3
# Si number density = 20.394626 Si / 1000 Ang^3
#
#
#
# Elastic Constant Matrix: (Units=GPa)
#
#
# Indices 1 2 3 4 5 6 
#
# 1 115.5844 52.9365 47.4406 0.0000 0.0000 0.0000
# 2 52.9365 94.9355 40.2327 0.0000 0.0000 0.0000
# 3 47.4406 40.2327 100.9074 0.0000 0.0000 0.0000
# 4 0.0000 0.0000 0.0000 28.9260 0.0000 0.0000
# 5 0.0000 0.0000 0.0000 0.0000 36.5659 0.0000
# 6 0.0000 0.0000 0.0000 0.0000 0.0000 34.8495
#
#
#
# Elastic Compliance Matrix: (Units=1/GPa)
#
#
# Indices 1 2 3 4 5 6 
#
# 1 0.012721 -0.005486 -0.003794 0.000000 0.000000 0.000000
# 2 -0.005486 0.015041 -0.003418 0.000000 0.000000 0.000000
# 3 -0.003794 -0.003418 0.013056 0.000000 0.000000 0.000000
# 4 0.000000 0.000000 0.000000 0.034571 0.000000 0.000000
# 5 0.000000 0.000000 0.000000 0.000000 0.027348 0.000000
# 6 0.000000 0.000000 0.000000 0.000000 0.000000 0.028695
#
#
# Mechanical properties :
#
#
# Convention : Reuss Voigt Hill
#
# Bulk Modulus (GPa) = 64.83377 65.84964 65.34170
# Shear Modulus (GPa) = 30.87043 31.45610 31.16326
#
# Velocity S-wave (km/s) = 3.89479 3.93156 3.91322
# Velocity P-wave (km/s) = 7.21696 7.27787 7.24748
#
# Compressibility (1/GPa) = 0.01542406
#
# Stress axis : x y z
#
# Youngs Moduli (GPa) = 78.60959 66.48601 76.59149
#
# Poissons Ratio (x) = 0.36472 0.29055
# Poissons Ratio (y) = 0.43123 0.26178
# Poissons Ratio (z) = 0.29821 0.22724
#
# Static dielectric constant tensor:
#      x y z
#    x 1.739040 0.000000 0.000000 
#    y 0.000000 3.723460 0.000000 
#    z 0.000000 0.000000 4.615210 
# 
# 
# High freq. dielectric constant tensor:
#      x y z
#    x 1.796540 0.000000 0.000000 
#    y 0.000000 1.788880 0.000000 
#    z 0.000000 0.000000 1.798730 
# 
# From -- ./inp_files/63328.got.cif
#   From: 2010.06.25/outbox.cif.g09.slc.cpg/sg71_32_cif.got.tgz:63328.got - 2010.06.28 04:59:45.
