data_PCOD8291179
_publ_section_title
;
Structure prediction by ZEFSAII (Michael W. Deem and Ramdas Pophale) SiO2 
 PCOD8291179
Probable space group: I M M M
;
_chemical_formula_sum "Si O2"
_cell_formula_units_Z 72
_cell_length_a 15.570785
_cell_length_b 8.254346
_cell_length_c 26.868058
_cell_angle_alpha 90.000000
_cell_angle_beta 90.000000
_cell_angle_gamma 90.000000
_cell_volume 3453.261403
_symmetry_space_group_name_H-M "I M M M"
_symmetry_group_IT_number 71
_symmetry_cell_setting 'orthorhombic'
loop_
_space_group_symop_operation_xyz
x,y,z
-x,-y,z
x,-y,-z
-x,y,-z
-x,-y,-z
x,y,-z
-x,y,z
x,-y,z
1/2+x,1/2+y,1/2+z
1/2-x,1/2-y,1/2+z
1/2+x,1/2-y,1/2-z
1/2-x,1/2+y,1/2-z
1/2-x,1/2-y,1/2-z
1/2+x,1/2+y,1/2-z
1/2-x,1/2+y,1/2+z
1/2+x,1/2-y,1/2+z
loop_
_atom_site_type_symbol
_atom_site_label
_atom_site_fract_x
_atom_site_fract_y
_atom_site_fract_z
Si Si1 0.667388 0.690065 0.779292
Si Si2 0.167317 0.310517 0.055282
Si Si3 0.000000 0.692820 0.890319
Si Si4 0.500000 0.192796 0.943784
Si Si5 0.830845 0.311673 0.389312
Si Si6 0.000000 0.692987 0.776441
O O1 0.674260 0.500000 0.789648
O O2 0.750000 0.750000 0.750000
O O3 0.662203 0.784685 0.830872
O O4 0.583502 0.730862 0.748127
O O5 0.152939 0.500000 0.050201
O O6 0.083929 0.234752 0.082302
O O7 0.249990 0.280625 0.088623
O O8 0.177789 0.233805 0.000000
O O9 0.000000 0.750066 0.833434
O O10 0.000000 0.500000 0.892059
O O11 0.583921 0.259126 0.915550
O O12 0.500000 0.000000 0.942885
O O13 0.500000 0.259817 0.000000
O O14 0.819968 0.500000 0.401057
O O15 0.000000 0.500000 0.770064
#
# Coordination Sequence:
#
# PCOD8291179 Si02
#       6
#    16  16   8   8  16   8
#     4  12  25  42  63  89 122 160 205 255 308 365
#     4  10  20  36  59  87 119 156 199 245 294 352
#     4   9  19  36  59  84 114 155 197 237 286 352
#     4   9  19  36  58  84 116 155 196 237 286 350
#     4  11  22  38  61  87 117 155 200 249 303 361
#     4  11  22  39  63  91 124 163 205 248 302 365
#
# _framework density 20.849857
#
# number of rings (size 3 to 8) (size 9 to 14) (size 15 to 20)
#    0.000    1.444    0.000    6.000    0.000    5.333 
#    0.000    3.333    0.000    5.333    0.000    0.000 
#    0.000    0.000    0.000    0.000    0.000    0.000 
#
# Total GULP energy -446547.845094 kJ/mol
# GULP energy per Si atom -12404.106808 kJ/mol
# Density = 2.080240 g / cm^3
# Si number density = 20.849857 Si / 1000 Ang^3
#
#
#
# Elastic Constant Matrix: (Units=GPa)
#
#
# Indices 1 2 3 4 5 6 
#
# 1 193.5937 7.6526 77.7183 0.0000 0.0000 0.0000
# 2 7.6526 29.2599 1.7689 0.0000 0.0000 0.0000
# 3 77.7183 1.7689 165.0671 0.0000 0.0000 0.0000
# 4 0.0000 0.0000 0.0000 25.4506 0.0000 0.0000
# 5 0.0000 0.0000 0.0000 0.0000 35.2544 0.0000
# 6 0.0000 0.0000 0.0000 0.0000 0.0000 31.5619
#
#
#
# Elastic Compliance Matrix: (Units=1/GPa)
#
#
# Indices 1 2 3 4 5 6 
#
# 1 0.006435 -0.001501 -0.003013 0.000000 0.000000 0.000000
# 2 -0.001501 0.034549 0.000336 0.000000 0.000000 0.000000
# 3 -0.003013 0.000336 0.007473 0.000000 0.000000 0.000000
# 4 0.000000 0.000000 0.000000 0.039292 0.000000 0.000000
# 5 0.000000 0.000000 0.000000 0.000000 0.028365 0.000000
# 6 0.000000 0.000000 0.000000 0.000000 0.000000 0.031684
#
#
# Mechanical properties :
#
#
# Convention : Reuss Voigt Hill
#
# Bulk Modulus (GPa) = 24.93713 62.46670 43.70192
# Shear Modulus (GPa) = 29.49506 38.50545 34.00026
#
# Velocity S-wave (km/s) = 3.76525 4.30210 4.04260
# Velocity P-wave (km/s) = 5.55780 7.39613 6.54186
#
# Compressibility (1/GPa) = 0.04010084
#
# Stress axis : x y z
#
# Youngs Moduli (GPa) = 155.41123 28.94473 133.80844
#
# Poissons Ratio (x) = 0.04344 0.40323
# Poissons Ratio (y) = 0.23323 -0.04501
# Poissons Ratio (z) = 0.46833 -0.00974
#
# Static dielectric constant tensor:
#      x y z
#    x 3.979160 0.000000 0.000000 
#    y 0.000000 3.524170 0.000000 
#    z 0.000000 0.000000 4.005890 
# 
# 
# High freq. dielectric constant tensor:
#      x y z
#    x 1.837500 0.000000 0.000000 
#    y 0.000000 1.793370 0.000000 
#    z 0.000000 0.000000 1.837260 
# 
# From -- ./inp_files/6178.got.cif
#   From: 2010.06.25/outbox.cif.g09.slc.cpg/sg71_4_cif.got.tgz:6178.got - 2010.06.28 04:59:45.
