data_PCOD8291781
_publ_section_title
;
Structure prediction by ZEFSAII (Michael W. Deem and Ramdas Pophale) SiO2 
 PCOD8291781
Probable space group: I M M M
;
_chemical_formula_sum "Si O2"
_cell_formula_units_Z 80
_cell_length_a 16.427864
_cell_length_b 8.960780
_cell_length_c 27.149376
_cell_angle_alpha 90.000000
_cell_angle_beta 90.000000
_cell_angle_gamma 90.000000
_cell_volume 3996.563944
_symmetry_space_group_name_H-M "I M M M"
_symmetry_group_IT_number 71
_symmetry_cell_setting 'orthorhombic'
loop_
_space_group_symop_operation_xyz
x,y,z
-x,-y,z
x,-y,-z
-x,y,-z
-x,-y,-z
x,y,-z
-x,y,z
x,-y,z
1/2+x,1/2+y,1/2+z
1/2-x,1/2-y,1/2+z
1/2+x,1/2-y,1/2-z
1/2-x,1/2+y,1/2-z
1/2-x,1/2-y,1/2-z
1/2+x,1/2+y,1/2-z
1/2-x,1/2+y,1/2+z
1/2+x,1/2-y,1/2+z
loop_
_atom_site_type_symbol
_atom_site_label
_atom_site_fract_x
_atom_site_fract_y
_atom_site_fract_z
Si Si1 0.648540 0.332104 0.790900
Si Si2 0.095784 0.674851 0.000000
Si Si3 0.000000 0.835800 0.442746
Si Si4 0.325846 0.675548 0.404831
Si Si5 0.861864 0.674138 0.389256
Si Si6 0.840896 0.331578 0.194681
O O1 0.614353 0.500000 0.790927
O O2 0.612453 0.242418 0.836815
O O3 0.745233 0.332255 0.795870
O O4 0.618295 0.252945 0.740804
O O5 0.134137 0.748678 0.951873
O O6 0.116078 0.500000 0.000000
O O7 0.000000 0.705450 0.000000
O O8 0.919169 0.745463 0.429858
O O9 0.000000 0.857477 0.500000
O O10 0.000000 0.000000 0.417454
O O11 0.343855 0.500000 0.405571
O O12 0.230002 0.710288 0.405268
O O13 0.364428 0.745179 0.355327
O O14 0.877680 0.500000 0.385942
O O15 0.874763 0.500000 0.191193
#
# Coordination Sequence:
#
# PCOD8291781 Si02
#       6
#    16   8   8  16  16  16
#     4   9  16  28  50  80 115 151 189 234 282 335
#     4  11  25  43  63  86 115 150 187 233 292 351
#     4  11  25  41  57  81 115 157 201 246 293 340
#     4  10  21  37  60  89 117 150 193 238 287 346
#     4  10  21  37  58  85 117 154 196 240 288 342
#     4   9  16  28  50  82 116 150 188 232 281 336
#
# _framework density 20.017195999999998
#
# number of rings (size 3 to 8) (size 9 to 14) (size 15 to 20)
#    0.000    2.200    0.000    3.000    1.400    8.800 
#    0.000    0.000    2.200    0.000    0.000    0.000 
#    0.000    0.000    0.000    0.000    0.000    0.000 
#
# Total GULP energy -496043.625498 kJ/mol
# GULP energy per Si atom -12401.090637 kJ/mol
# Density = 1.997164 g / cm^3
# Si number density = 20.017196 Si / 1000 Ang^3
#
#
#
# Elastic Constant Matrix: (Units=GPa)
#
#
# Indices 1 2 3 4 5 6 
#
# 1 51.4606 52.9689 46.2816 0.0000 0.0000 0.0000
# 2 52.9689 174.5737 91.6531 0.0000 0.0000 0.0000
# 3 46.2816 91.6531 173.0595 0.0000 0.0000 0.0000
# 4 0.0000 0.0000 0.0000 44.0515 0.0000 0.0000
# 5 0.0000 0.0000 0.0000 0.0000 13.0318 0.0000
# 6 0.0000 0.0000 0.0000 0.0000 0.0000 18.7755
#
#
#
# Elastic Compliance Matrix: (Units=1/GPa)
#
#
# Indices 1 2 3 4 5 6 
#
# 1 0.030621 -0.006914 -0.004527 0.000000 0.000000 0.000000
# 2 -0.006914 0.009496 -0.003180 0.000000 0.000000 0.000000
# 3 -0.004527 -0.003180 0.008673 0.000000 0.000000 0.000000
# 4 0.000000 0.000000 0.000000 0.022701 0.000000 0.000000
# 5 0.000000 0.000000 0.000000 0.000000 0.076735 0.000000
# 6 0.000000 0.000000 0.000000 0.000000 0.000000 0.053261
#
#
# Mechanical properties :
#
#
# Convention : Reuss Voigt Hill
#
# Bulk Modulus (GPa) = 51.15844 86.76678 68.96261
# Shear Modulus (GPa) = 21.07534 29.05110 25.06322
#
# Velocity S-wave (km/s) = 3.24830 3.81374 3.54232
# Velocity P-wave (km/s) = 6.29931 7.92673 7.15941
#
# Compressibility (1/GPa) = 0.01954712
#
# Stress axis : x y z
#
# Youngs Moduli (GPa) = 32.65770 105.31267 115.29833
#
# Poissons Ratio (x) = 0.72813 0.52198
# Poissons Ratio (y) = 0.22580 0.36663
# Poissons Ratio (z) = 0.14785 0.33488
#
# Static dielectric constant tensor:
#      x y z
#    x 3.486420 0.000000 0.000000 
#    y 0.000000 3.894360 0.000000 
#    z 0.000000 0.000000 3.759300 
# 
# 
# High freq. dielectric constant tensor:
#      x y z
#    x 1.744210 0.000000 0.000000 
#    y 0.000000 1.802140 0.000000 
#    z 0.000000 0.000000 1.793410 
# 
# From -- ./inp_files/65831.got.cif
#   From: 2010.06.25/outbox.cif.g09.slc.cpg/sg71_33_cif.got.tgz:65831.got - 2010.06.28 04:59:45.
