data_PCOD8291738
_publ_section_title
;
Structure prediction by ZEFSAII (Michael W. Deem and Ramdas Pophale) SiO2 
 PCOD8291738
Probable space group: I M M M
;
_chemical_formula_sum "Si O2"
_cell_formula_units_Z 56
_cell_length_a 7.964000
_cell_length_b 9.115207
_cell_length_c 39.406991
_cell_angle_alpha 90.000000
_cell_angle_beta 90.000000
_cell_angle_gamma 90.000000
_cell_volume 2860.691738
_symmetry_space_group_name_H-M "I M M M"
_symmetry_group_IT_number 71
_symmetry_cell_setting 'orthorhombic'
loop_
_space_group_symop_operation_xyz
x,y,z
-x,-y,z
x,-y,-z
-x,y,-z
-x,-y,-z
x,y,-z
-x,y,z
x,-y,z
1/2+x,1/2+y,1/2+z
1/2-x,1/2-y,1/2+z
1/2+x,1/2-y,1/2-z
1/2-x,1/2+y,1/2-z
1/2-x,1/2-y,1/2-z
1/2+x,1/2+y,1/2-z
1/2-x,1/2+y,1/2+z
1/2+x,1/2-y,1/2+z
loop_
_atom_site_type_symbol
_atom_site_label
_atom_site_fract_x
_atom_site_fract_y
_atom_site_fract_z
Si Si1 0.808140 0.327687 0.416073
Si Si2 0.303976 0.334029 0.153241
Si Si3 0.000000 0.826148 0.962139
Si Si4 0.307699 0.339693 0.717787
O O1 0.790804 0.500000 0.409117
O O2 0.759928 0.244991 0.381796
O O3 0.672007 0.273772 0.443800
O O4 0.000000 0.289839 0.427834
O O5 0.500000 0.331843 0.160488
O O6 0.235432 0.500000 0.151596
O O7 0.216111 0.249534 0.183476
O O8 0.000000 0.000000 0.963895
O O9 0.000000 0.758745 0.000000
O O10 0.500000 0.370129 0.723033
O O11 0.216556 0.500000 0.715928
O O12 0.250000 0.250000 0.750000
#
# Coordination Sequence:
#
# PCOD8291738 Si02
#       4
#    16  16   8  16
#     4   9  18  33  54  80 111 147 186 231 284 337
#     4  10  21  37  57  81 109 142 183 231 280 332
#     4   9  18  32  53  83 115 145 185 237 285 339
#     4  11  24  39  56  80 110 144 183 228 277 330
#
# _framework density 19.575685
#
# number of rings (size 3 to 8) (size 9 to 14) (size 15 to 20)
#    0.000    2.143    0.000    2.571    2.000    8.000 
#    0.000    2.857    0.000    1.714    0.000    4.000 
#    0.000    0.000    0.000    0.000    0.000    0.000 
#
# Total GULP energy -347119.498747 kJ/mol
# GULP energy per Si atom -12397.124955 kJ/mol
# Density = 1.953113 g / cm^3
# Si number density = 19.575685 Si / 1000 Ang^3
#
#
#
# Elastic Constant Matrix: (Units=GPa)
#
#
# Indices 1 2 3 4 5 6 
#
# 1 99.9644 40.7723 79.7670 0.0000 0.0000 0.0000
# 2 40.7723 109.6648 70.5019 0.0000 0.0000 0.0000
# 3 79.7670 70.5019 162.4953 0.0000 0.0000 0.0000
# 4 0.0000 0.0000 0.0000 24.1722 0.0000 0.0000
# 5 0.0000 0.0000 0.0000 0.0000 38.6584 0.0000
# 6 0.0000 0.0000 0.0000 0.0000 0.0000 17.8978
#
#
#
# Elastic Compliance Matrix: (Units=1/GPa)
#
#
# Indices 1 2 3 4 5 6 
#
# 1 0.016576 -0.001292 -0.007576 0.000000 0.000000 0.000000
# 2 -0.001292 0.012747 -0.004896 0.000000 0.000000 0.000000
# 3 -0.007576 -0.004896 0.011998 0.000000 0.000000 0.000000
# 4 0.000000 0.000000 0.000000 0.041370 0.000000 0.000000
# 5 0.000000 0.000000 0.000000 0.000000 0.025868 0.000000
# 6 0.000000 0.000000 0.000000 0.000000 0.000000 0.055873
#
#
# Mechanical properties :
#
#
# Convention : Reuss Voigt Hill
#
# Bulk Modulus (GPa) = 72.51072 83.80077 78.15575
# Shear Modulus (GPa) = 25.43790 28.21792 26.82791
#
# Velocity S-wave (km/s) = 3.60872 3.80080 3.70600
# Velocity P-wave (km/s) = 7.38142 7.88435 7.63703
#
# Compressibility (1/GPa) = 0.01379106
#
# Stress axis : x y z
#
# Youngs Moduli (GPa) = 60.32730 78.45133 83.35044
#
# Poissons Ratio (x) = 0.10136 0.63150
# Poissons Ratio (y) = 0.07795 0.40810
# Poissons Ratio (z) = 0.45707 0.38411
#
# Static dielectric constant tensor:
#      x y z
#    x 3.701490 0.000000 0.000000 
#    y 0.000000 3.574380 0.000000 
#    z 0.000000 0.000000 3.855550 
# 
# 
# High freq. dielectric constant tensor:
#      x y z
#    x 1.767670 0.000000 0.000000 
#    y 0.000000 1.757450 0.000000 
#    z 0.000000 0.000000 1.761520 
# 
# From -- ./inp_files/67643.got.cif
#   From: 2010.06.25/outbox.cif.g09.slc.cpg/sg71_34_cif.got.tgz:67643.got - 2010.06.28 04:59:45.
