data_PCOD8291912
_publ_section_title
;
Structure prediction by ZEFSAII (Michael W. Deem and Ramdas Pophale) SiO2 
 PCOD8291912
Probable space group: I M M M
;
_chemical_formula_sum "Si O2"
_cell_formula_units_Z 72
_cell_length_a 8.770429
_cell_length_b 28.648325
_cell_length_c 14.713955
_cell_angle_alpha 90.000000
_cell_angle_beta 90.000000
_cell_angle_gamma 90.000000
_cell_volume 3697.000382
_symmetry_space_group_name_H-M "I M M M"
_symmetry_group_IT_number 71
_symmetry_cell_setting 'orthorhombic'
loop_
_space_group_symop_operation_xyz
x,y,z
-x,-y,z
x,-y,-z
-x,y,-z
-x,-y,-z
x,y,-z
-x,y,z
x,-y,z
1/2+x,1/2+y,1/2+z
1/2-x,1/2-y,1/2+z
1/2+x,1/2-y,1/2-z
1/2-x,1/2+y,1/2-z
1/2-x,1/2-y,1/2-z
1/2+x,1/2+y,1/2-z
1/2-x,1/2+y,1/2+z
1/2+x,1/2-y,1/2+z
loop_
_atom_site_type_symbol
_atom_site_label
_atom_site_fract_x
_atom_site_fract_y
_atom_site_fract_z
Si Si1 0.322459 0.691804 0.500000
Si Si2 0.167221 0.050885 0.893304
Si Si3 0.176956 0.698728 0.000000
Si Si4 0.676182 0.862570 0.165696
Si Si5 0.680205 0.632180 0.138449
Si Si6 0.180409 0.946542 0.500000
O O1 0.500000 0.678235 0.500000
O O2 0.293607 0.746463 0.500000
O O3 0.248291 0.671774 0.408496
O O4 0.304972 0.084499 0.867468
O O5 0.000000 0.068357 0.857271
O O6 0.201888 0.000000 0.850919
O O7 0.158175 0.046932 0.000000
O O8 0.253607 0.677127 0.911550
O O9 0.000000 0.686315 0.000000
O O10 0.500000 0.849938 0.178179
O O11 0.762746 0.861061 0.260277
O O12 0.500000 0.634858 0.135153
O O13 0.733291 0.583408 0.089377
O O14 0.000000 0.950857 0.500000
O O15 0.249032 0.000000 0.500000
#
# Coordination Sequence:
#
# PCOD8291912 Si02
#       6
#     8  16   8  16  16   8
#     4  11  24  42  63  84 113 153 196 242 299 366
#     4   9  18  34  56  79 109 153 197 234 279 341
#     4  10  22  42  65  88 113 145 190 250 307 353
#     4  12  24  37  57  88 122 155 195 247 298 345
#     4  10  21  38  62  88 119 159 196 237 292 355
#     4   8  16  34  61  91 117 148 195 240 276 327
#
# _framework density 19.475249000000002
#
# number of rings (size 3 to 8) (size 9 to 14) (size 15 to 20)
#    0.000    1.889    1.111    4.667    0.000    4.000 
#    0.000    3.333    0.000   11.333    0.000    0.000 
#    0.000    0.000    0.000    0.000    0.000    0.000 
#
# Total GULP energy -446151.840016 kJ/mol
# GULP energy per Si atom -12393.106667 kJ/mol
# Density = 1.943092 g / cm^3
# Si number density = 19.475249 Si / 1000 Ang^3
#
#
#
# Elastic Constant Matrix: (Units=GPa)
#
#
# Indices 1 2 3 4 5 6 
#
# 1 99.1693 63.0302 43.2115 -0.0026 -0.0001 -0.0001
# 2 63.0302 124.4934 63.8535 -0.0007 0.0001 0.0000
# 3 43.2115 63.8535 125.1110 0.0020 0.0003 0.0002
# 4 -0.0026 -0.0007 0.0020 -873.0855 0.0001 0.0021
# 5 -0.0001 0.0001 0.0003 0.0001 30.4412 0.0002
# 6 -0.0001 0.0000 0.0002 0.0021 0.0002 46.0364
#
#
#
# Elastic Compliance Matrix: (Units=1/GPa)
#
#
# Indices 1 2 3 4 5 6 
#
# 1 0.015157 -0.006758 -0.001786 0.000000 0.000000 0.000000
# 2 -0.006758 0.013894 -0.004757 0.000000 0.000000 0.000000
# 3 -0.001786 -0.004757 0.011038 0.000000 0.000000 0.000000
# 4 0.000000 0.000000 0.000000 -0.001145 0.000000 0.000000
# 5 0.000000 0.000000 0.000000 0.000000 0.032850 0.000000
# 6 0.000000 0.000000 0.000000 0.000000 0.000000 0.021722
#
#
# Mechanical properties :
#
#
# Convention : Reuss Voigt Hill
#
# Bulk Modulus (GPa) = 74.14626 76.55157 75.34891
# Shear Modulus (GPa) = 40.12414 -147.40969 -53.64277
#
# Velocity S-wave (km/s) = 4.54394 -8.70948 -5.25394
# Velocity P-wave (km/s) = 8.10460 7.85797 1.40300
#
# Compressibility (1/GPa) = 0.01348686
#
# Stress axis : x y z
#
# Youngs Moduli (GPa) = 65.97518 71.97354 90.59919
#
# Poissons Ratio (x) = 0.48639 0.16181
# Poissons Ratio (y) = 0.44586 0.43098
# Poissons Ratio (z) = 0.11783 0.34238
#
# Static dielectric constant tensor:
#      x y z
#    x 3.592650 0.000000 0.000000 
#    y 0.000000 3.989700 0.000000 
#    z 0.000000 0.000000 3.284010 
# 
# 
# High freq. dielectric constant tensor:
#      x y z
#    x 1.751000 0.000000 0.000000 
#    y 0.000000 1.764370 0.000000 
#    z 0.000000 0.000000 1.759800 
# 
# From -- ./inp_files/31493.got.cif
#   From: 2010.06.25/outbox.cif.g09.slc.cpg/sg71_16_cif.got.tgz:31493.got - 2010.06.28 04:59:45.
