data_PCOD8291892
_publ_section_title
;
Structure prediction by ZEFSAII (Michael W. Deem and Ramdas Pophale) SiO2 
 PCOD8291892
Probable space group: I M M M
;
_chemical_formula_sum "Si O2"
_cell_formula_units_Z 72
_cell_length_a 14.421966
_cell_length_b 7.502894
_cell_length_c 32.452451
_cell_angle_alpha 90.000000
_cell_angle_beta 90.000000
_cell_angle_gamma 90.000000
_cell_volume 3511.565560
_symmetry_space_group_name_H-M "I M M M"
_symmetry_group_IT_number 71
_symmetry_cell_setting 'orthorhombic'
loop_
_space_group_symop_operation_xyz
x,y,z
-x,-y,z
x,-y,-z
-x,y,-z
-x,-y,-z
x,y,-z
-x,y,z
x,-y,z
1/2+x,1/2+y,1/2+z
1/2-x,1/2-y,1/2+z
1/2+x,1/2-y,1/2-z
1/2-x,1/2+y,1/2-z
1/2-x,1/2-y,1/2-z
1/2+x,1/2+y,1/2-z
1/2-x,1/2+y,1/2+z
1/2+x,1/2-y,1/2+z
loop_
_atom_site_type_symbol
_atom_site_label
_atom_site_fract_x
_atom_site_fract_y
_atom_site_fract_z
Si Si1 0.398387 0.210991 0.045851
Si Si2 0.720650 0.712167 0.405738
Si Si3 0.609277 0.000000 0.547261
Si Si4 0.397792 0.205820 0.240013
Si Si5 0.271218 0.289879 0.688023
O O1 0.500000 0.281468 0.059960
O O2 0.320856 0.275809 0.077662
O O3 0.399746 0.000000 0.044690
O O4 0.375515 0.283680 0.000000
O O5 0.703758 0.500000 0.411141
O O6 0.716778 0.775665 0.358527
O O7 0.643573 0.819046 0.430926
O O8 0.500000 0.000000 0.550445
O O9 0.642939 0.000000 0.500000
O O10 0.500000 0.296283 0.235694
O O11 0.361382 0.228725 0.286691
O O12 0.322718 0.293050 0.208530
O O13 0.408453 0.000000 0.229560
O O14 0.262577 0.500000 0.689523
#
# Coordination Sequence:
#
# PCOD8291892 Si02
#       5
#    16  16   8  16  16
#     4   8  14  27  51  82 111 141 179 221 275 344
#     4  10  21  38  61  86 116 154 191 241 296 347
#     4  11  26  44  61  85 115 151 200 252 297 345
#     4   9  18  33  54  78 108 148 185 224 278 336
#     4   9  19  34  52  79 111 142 184 232 277 335
#
# _framework density 20.503675999999999
#
# number of rings (size 3 to 8) (size 9 to 14) (size 15 to 20)
#    0.000    2.778    0.000    1.333    1.556    4.000 
#    0.000    8.333    0.000    2.000    0.000    0.000 
#    0.000    0.000    0.000    0.000    0.000    0.000 
#
# Total GULP energy -446182.191887 kJ/mol
# GULP energy per Si atom -12393.949775 kJ/mol
# Density = 2.045701 g / cm^3
# Si number density = 20.503676 Si / 1000 Ang^3
#
#
#
# Elastic Constant Matrix: (Units=GPa)
#
#
# Indices 1 2 3 4 5 6 
#
# 1 133.5067 22.1157 67.8463 0.0000 0.0000 0.0000
# 2 22.1157 49.5688 34.0886 0.0000 0.0000 0.0000
# 3 67.8463 34.0886 142.5322 0.0000 0.0000 0.0000
# 4 0.0000 0.0000 0.0000 28.4216 0.0000 0.0000
# 5 0.0000 0.0000 0.0000 0.0000 3.8341 0.0000
# 6 0.0000 0.0000 0.0000 0.0000 0.0000 20.4637
#
#
#
# Elastic Compliance Matrix: (Units=1/GPa)
#
#
# Indices 1 2 3 4 5 6 
#
# 1 0.009963 -0.001417 -0.004404 0.000000 0.000000 0.000000
# 2 -0.001417 0.024347 -0.005149 0.000000 0.000000 0.000000
# 3 -0.004404 -0.005149 0.010343 0.000000 0.000000 0.000000
# 4 0.000000 0.000000 0.000000 0.035185 0.000000 0.000000
# 5 0.000000 0.000000 0.000000 0.000000 0.260814 0.000000
# 6 0.000000 0.000000 0.000000 0.000000 0.000000 0.048867
#
#
# Mechanical properties :
#
#
# Convention : Reuss Voigt Hill
#
# Bulk Modulus (GPa) = 44.02298 63.74546 53.88422
# Shear Modulus (GPa) = 11.93238 23.98102 17.95670
#
# Velocity S-wave (km/s) = 2.41501 3.42365 2.96257
# Velocity P-wave (km/s) = 5.41237 6.84001 6.16764
#
# Compressibility (1/GPa) = 0.02271541
#
# Stress axis : x y z
#
# Youngs Moduli (GPa) = 100.37396 41.07334 96.68002
#
# Poissons Ratio (x) = 0.05819 0.42573
# Poissons Ratio (y) = 0.14220 0.49776
# Poissons Ratio (z) = 0.44200 0.21147
#
# Static dielectric constant tensor:
#      x y z
#    x 4.020070 0.000000 0.000000 
#    y 0.000000 3.437280 0.000000 
#    z 0.000000 0.000000 3.936900 
# 
# 
# High freq. dielectric constant tensor:
#      x y z
#    x 1.803770 0.000000 0.000000 
#    y 0.000000 1.786000 0.000000 
#    z 0.000000 0.000000 1.797880 
# 
# From -- ./inp_files/62861.got.cif
#   From: 2010.06.25/outbox.cif.g09.slc.cpg/sg71_32_cif.got.tgz:62861.got - 2010.06.28 04:59:45.
