data_PCOD8291585
_publ_section_title
;
Structure prediction by ZEFSAII (Michael W. Deem and Ramdas Pophale) SiO2 
 PCOD8291585
Probable space group: I M M M
;
_chemical_formula_sum "Si O2"
_cell_formula_units_Z 104
_cell_length_a 28.588830
_cell_length_b 21.171104
_cell_length_c 8.601325
_cell_angle_alpha 90.000000
_cell_angle_beta 90.000000
_cell_angle_gamma 90.000000
_cell_volume 5206.012967
_symmetry_space_group_name_H-M "I M M M"
_symmetry_group_IT_number 71
_symmetry_cell_setting 'orthorhombic'
loop_
_space_group_symop_operation_xyz
x,y,z
-x,-y,z
x,-y,-z
-x,y,-z
-x,-y,-z
x,y,-z
-x,y,z
x,-y,z
1/2+x,1/2+y,1/2+z
1/2-x,1/2-y,1/2+z
1/2+x,1/2-y,1/2-z
1/2-x,1/2+y,1/2-z
1/2-x,1/2-y,1/2-z
1/2+x,1/2+y,1/2-z
1/2-x,1/2+y,1/2+z
1/2+x,1/2-y,1/2+z
loop_
_atom_site_type_symbol
_atom_site_label
_atom_site_fract_x
_atom_site_fract_y
_atom_site_fract_z
Si Si1 0.876181 0.599886 0.182135
Si Si2 0.946994 0.185166 0.822548
Si Si3 0.808745 0.151681 0.318025
Si Si4 0.946078 0.500000 0.683644
Si Si5 0.273921 0.930578 0.315342
Si Si6 0.869560 0.264614 0.680546
Si Si7 0.387061 0.429463 0.323152
O O1 0.919229 0.563101 0.260816
O O2 0.826635 0.575188 0.248971
O O3 0.876432 0.673945 0.215876
O O4 0.880663 0.587423 0.000000
O O5 0.916635 0.224832 0.701433
O O6 0.934255 0.111301 0.807242
O O7 0.000000 0.194730 0.772206
O O8 0.938184 0.208182 0.000000
O O9 0.803474 0.158958 0.500000
O O10 0.759458 0.125534 0.247006
O O11 0.825957 0.220771 0.255688
O O12 0.846884 0.098473 0.285023
O O13 0.946613 0.500000 0.500000
O O14 0.000000 0.500000 0.746109
O O15 0.274947 0.924242 0.500000
O O16 0.254699 0.000000 0.266479
O O17 0.863097 0.282474 0.500000
O O18 0.368503 0.427933 0.500000
O O19 0.398957 0.500000 0.267836
#
# Coordination Sequence:
#
# PCOD8291585 Si02
#       7
#    16  16  16   8  16  16  16
#     4  11  22  39  63  88 113 146 184 224 274 331
#     4   9  18  33  52  73  99 137 184 229 276 332
#     4   9  18  33  54  78 108 150 192 224 265 325
#     4  11  25  45  67  91 119 147 179 229 290 345
#     4   9  17  32  56  84 112 145 186 228 269 319
#     4  10  21  36  54  80 113 147 184 230 280 329
#     4   9  17  29  46  72 107 140 177 229 279 323
#
# _framework density 19.976900000000001
#
# number of rings (size 3 to 8) (size 9 to 14) (size 15 to 20)
#    0.000    2.385    0.769    1.615    0.000    4.000 
#    0.000    3.077    0.000    0.000    0.000    4.308 
#    0.000    0.000    0.000    0.000    0.000    0.000 
#
# Total GULP energy -644423.220215 kJ/mol
# GULP energy per Si atom -12392.754235 kJ/mol
# Density = 1.993143 g / cm^3
# Si number density = 19.976900 Si / 1000 Ang^3
#
#
#
# Elastic Constant Matrix: (Units=GPa)
#
#
# Indices 1 2 3 4 5 6 
#
# 1 136.8956 54.7917 20.5154 0.0000 0.0000 0.0000
# 2 54.7917 134.1410 15.3059 0.0000 0.0000 0.0000
# 3 20.5154 15.3059 26.8200 0.0000 0.0000 0.0000
# 4 0.0000 0.0000 0.0000 21.9138 0.0000 0.0000
# 5 0.0000 0.0000 0.0000 0.0000 21.8176 0.0000
# 6 0.0000 0.0000 0.0000 0.0000 0.0000 24.8877
#
#
#
# Elastic Compliance Matrix: (Units=1/GPa)
#
#
# Indices 1 2 3 4 5 6 
#
# 1 0.009398 -0.003229 -0.005346 0.000000 0.000000 0.000000
# 2 -0.003229 0.009083 -0.002714 0.000000 0.000000 0.000000
# 3 -0.005346 -0.002714 0.042924 0.000000 0.000000 0.000000
# 4 0.000000 0.000000 0.000000 0.045633 0.000000 0.000000
# 5 0.000000 0.000000 0.000000 0.000000 0.045835 0.000000
# 6 0.000000 0.000000 0.000000 0.000000 0.000000 0.040181
#
#
# Mechanical properties :
#
#
# Convention : Reuss Voigt Hill
#
# Bulk Modulus (GPa) = 25.75506 53.23140 39.49323
# Shear Modulus (GPa) = 21.87465 27.54006 24.70735
#
# Velocity S-wave (km/s) = 3.31266 3.71697 3.52063
# Velocity P-wave (km/s) = 5.24901 6.71755 6.02817
#
# Compressibility (1/GPa) = 0.03882732
#
# Stress axis : x y z
#
# Youngs Moduli (GPa) = 106.40128 110.09121 23.29701
#
# Poissons Ratio (x) = 0.35547 0.12456
# Poissons Ratio (y) = 0.34355 0.06323
# Poissons Ratio (z) = 0.56886 0.29878
#
# Static dielectric constant tensor:
#      x y z
#    x 3.821120 0.000000 0.000000 
#    y 0.000000 3.771150 0.000000 
#    z 0.000000 0.000000 3.364780 
# 
# 
# High freq. dielectric constant tensor:
#      x y z
#    x 1.775860 0.000000 0.000000 
#    y 0.000000 1.786730 0.000000 
#    z 0.000000 0.000000 1.754420 
# 
# From -- ./inp_files/11063.got.cif
#   From: 2010.06.25/outbox.cif.g09.slc.cpg/sg71_6_cif.got.tgz:11063.got - 2010.06.28 04:59:45.
