data_PCOD8291790
_publ_section_title
;
Structure prediction by ZEFSAII (Michael W. Deem and Ramdas Pophale) SiO2 
 PCOD8291790
Probable space group: I M M M
;
_chemical_formula_sum "Si O2"
_cell_formula_units_Z 80
_cell_length_a 16.984595
_cell_length_b 20.789619
_cell_length_c 11.996046
_cell_angle_alpha 90.000000
_cell_angle_beta 90.000000
_cell_angle_gamma 90.000000
_cell_volume 4235.842937
_symmetry_space_group_name_H-M "I M M M"
_symmetry_group_IT_number 71
_symmetry_cell_setting 'orthorhombic'
loop_
_space_group_symop_operation_xyz
x,y,z
-x,-y,z
x,-y,-z
-x,y,-z
-x,-y,-z
x,y,-z
-x,y,z
x,-y,z
1/2+x,1/2+y,1/2+z
1/2-x,1/2-y,1/2+z
1/2+x,1/2-y,1/2-z
1/2-x,1/2+y,1/2-z
1/2-x,1/2-y,1/2-z
1/2+x,1/2+y,1/2-z
1/2-x,1/2+y,1/2+z
1/2+x,1/2-y,1/2+z
loop_
_atom_site_type_symbol
_atom_site_label
_atom_site_fract_x
_atom_site_fract_y
_atom_site_fract_z
Si Si1 0.860712 0.780196 0.185886
Si Si2 0.673445 0.925600 0.224490
Si Si3 0.742166 0.323623 0.873378
Si Si4 0.500000 0.798121 0.627478
Si Si5 0.500000 0.929447 0.285583
Si Si6 0.247676 0.428080 0.500000
Si Si7 0.911455 0.875593 0.000000
O O1 0.786171 0.745348 0.129056
O O2 0.837735 0.814120 0.302272
O O3 0.899919 0.833709 0.109637
O O4 0.925468 0.724467 0.199926
O O5 0.704697 0.882032 0.326181
O O6 0.578787 0.921536 0.211140
O O7 0.712955 0.895610 0.112203
O O8 0.699693 0.000000 0.244585
O O9 0.719770 0.340828 0.000000
O O10 0.500000 0.770857 0.500000
O O11 0.500000 0.875402 0.618792
O O12 0.500000 0.000000 0.343241
O O13 0.215098 0.500000 0.500000
O O14 0.342885 0.429028 0.500000
O O15 0.000000 0.905538 0.000000
#
# Coordination Sequence:
#
# PCOD8291790 Si02
#       7
#    16  16  16   8   8   8   8
#     4  11  21  35  55  83 111 144 188 230 290 338
#     4  10  21  37  59  83 114 152 194 235 278 336
#     4  11  22  36  56  80 114 151 190 234 276 341
#     4  12  20  35  58  82 112 149 189 240 290 331
#     4  10  22  36  52  84 120 156 194 231 277 335
#     4  10  22  40  60  84 113 149 192 239 287 335
#     4  12  20  35  63  89 112 142 183 238 295 344
#
# _framework density 18.886443
#
# number of rings (size 3 to 8) (size 9 to 14) (size 15 to 20)
#    0.000    1.200    7.000    0.000    0.000    1.200 
#    0.000    4.500    2.200    0.000    0.000    0.000 
#    0.000    4.800    0.000    0.000    0.000    0.000 
#
# Total GULP energy -495768.226276 kJ/mol
# GULP energy per Si atom -12394.205657 kJ/mol
# Density = 1.884346 g / cm^3
# Si number density = 18.886443 Si / 1000 Ang^3
#
#
#
# Elastic Constant Matrix: (Units=GPa)
#
#
# Indices 1 2 3 4 5 6 
#
# 1 126.0846 28.5114 58.9995 0.0000 0.0000 0.0000
# 2 28.5114 64.0435 33.7364 0.0000 0.0000 0.0000
# 3 58.9995 33.7364 133.9016 0.0000 0.0000 0.0000
# 4 0.0000 0.0000 0.0000 21.8901 0.0000 0.0000
# 5 0.0000 0.0000 0.0000 0.0000 20.3067 0.0000
# 6 0.0000 0.0000 0.0000 0.0000 0.0000 32.2886
#
#
#
# Elastic Compliance Matrix: (Units=1/GPa)
#
#
# Indices 1 2 3 4 5 6 
#
# 1 0.010337 -0.002540 -0.003915 0.000000 0.000000 0.000000
# 2 -0.002540 0.018628 -0.003574 0.000000 0.000000 0.000000
# 3 -0.003915 -0.003574 0.010094 0.000000 0.000000 0.000000
# 4 0.000000 0.000000 0.000000 0.045683 0.000000 0.000000
# 5 0.000000 0.000000 0.000000 0.000000 0.049245 0.000000
# 6 0.000000 0.000000 0.000000 0.000000 0.000000 0.030971
#
#
# Mechanical properties :
#
#
# Convention : Reuss Voigt Hill
#
# Bulk Modulus (GPa) = 52.62860 62.94713 57.78787
# Shear Modulus (GPa) = 26.13028 28.41592 27.27310
#
# Velocity S-wave (km/s) = 3.72364 3.88308 3.80420
# Velocity P-wave (km/s) = 6.81276 7.31478 7.06823
#
# Compressibility (1/GPa) = 0.01900108
#
# Stress axis : x y z
#
# Youngs Moduli (GPa) = 96.73553 53.68303 99.07180
#
# Poissons Ratio (x) = 0.13634 0.38786
# Poissons Ratio (y) = 0.24569 0.35410
# Poissons Ratio (z) = 0.37872 0.19187
#
# Static dielectric constant tensor:
#      x y z
#    x 3.628200 0.000000 0.000000 
#    y 0.000000 3.482740 0.000000 
#    z 0.000000 0.000000 3.332750 
# 
# 
# High freq. dielectric constant tensor:
#      x y z
#    x 1.731900 0.000000 0.000000 
#    y 0.000000 1.733640 0.000000 
#    z 0.000000 0.000000 1.710530 
# 
# From -- ./inp_files/21971.got.cif
#   From: 2010.06.25/outbox.cif.g09.slc.cpg/sg71_11_cif.got.tgz:21971.got - 2010.06.28 04:59:45.
