data_PCOD8291604
_publ_section_title
;
Structure prediction by ZEFSAII (Michael W. Deem and Ramdas Pophale) SiO2 
 PCOD8291604
Probable space group: I M M M
;
_chemical_formula_sum "Si O2"
_cell_formula_units_Z 80
_cell_length_a 9.235019
_cell_length_b 14.711315
_cell_length_c 29.379734
_cell_angle_alpha 90.000000
_cell_angle_beta 90.000000
_cell_angle_gamma 90.000000
_cell_volume 3991.509318
_symmetry_space_group_name_H-M "I M M M"
_symmetry_group_IT_number 71
_symmetry_cell_setting 'orthorhombic'
loop_
_space_group_symop_operation_xyz
x,y,z
-x,-y,z
x,-y,-z
-x,y,-z
-x,-y,-z
x,y,-z
-x,y,z
x,-y,z
1/2+x,1/2+y,1/2+z
1/2-x,1/2-y,1/2+z
1/2+x,1/2-y,1/2-z
1/2-x,1/2+y,1/2-z
1/2-x,1/2-y,1/2-z
1/2+x,1/2+y,1/2-z
1/2-x,1/2+y,1/2+z
1/2+x,1/2-y,1/2+z
loop_
_atom_site_type_symbol
_atom_site_label
_atom_site_fract_x
_atom_site_fract_y
_atom_site_fract_z
Si Si1 0.828016 0.899054 0.122970
Si Si2 0.838036 0.608001 0.191792
Si Si3 0.831031 0.894242 0.397434
Si Si4 0.831873 0.751201 0.051906
Si Si5 0.161637 0.108383 0.776709
O O1 0.770417 0.831448 0.084072
O O2 0.781648 0.862210 0.173110
O O3 0.000000 0.905493 0.121325
O O4 0.763006 0.000000 0.114126
O O5 0.841387 0.500000 0.194273
O O6 0.743898 0.639951 0.148939
O O7 0.767677 0.648174 0.237931
O O8 0.000000 0.647797 0.186816
O O9 0.759736 0.839861 0.439089
O O10 0.000000 0.872889 0.393934
O O11 0.801608 0.000000 0.406472
O O12 0.000000 0.730754 0.062088
O O13 0.808647 0.781792 0.000000
O O14 0.000000 0.146239 0.767789
O O15 0.157775 0.000000 0.774573
#
# Coordination Sequence:
#
# PCOD8291604 Si02
#       5
#    16  16  16  16  16
#     4   8  15  30  53  80 109 141 175 210 251 303
#     4   9  16  27  47  76 107 135 166 209 258 305
#     4  10  21  37  56  76 101 137 178 216 258 313
#     4  10  21  36  55  80 107 134 170 220 270 310
#     4   8  13  24  45  72 103 139 174 204 239 293
#
# _framework density 20.042543999999999
#
# number of rings (size 3 to 8) (size 9 to 14) (size 15 to 20)
#    0.000    3.000    0.000    2.400    0.000    4.800 
#    0.000    6.000    0.000    1.800    0.000    1.400 
#    0.000    0.000    0.000    0.000    0.000    0.000 
#
# Total GULP energy -495916.162568 kJ/mol
# GULP energy per Si atom -12397.904064 kJ/mol
# Density = 1.999693 g / cm^3
# Si number density = 20.042544 Si / 1000 Ang^3
#
#
#
# Elastic Constant Matrix: (Units=GPa)
#
#
# Indices 1 2 3 4 5 6 
#
# 1 89.8455 25.0165 45.4128 0.0000 0.0000 0.0000
# 2 25.0165 37.3504 24.8962 0.0001 0.0000 0.0000
# 3 45.4128 24.8962 116.1778 0.0001 0.0000 0.0000
# 4 0.0000 0.0001 0.0001 20.9899 0.0000 0.0000
# 5 0.0000 0.0000 0.0000 0.0000 26.5030 0.0000
# 6 0.0000 0.0000 0.0000 0.0000 0.0000 13.1274
#
#
#
# Elastic Compliance Matrix: (Units=1/GPa)
#
#
# Indices 1 2 3 4 5 6 
#
# 1 0.015433 -0.007368 -0.004454 0.000000 0.000000 0.000000
# 2 -0.007368 0.034753 -0.004567 0.000000 0.000000 0.000000
# 3 -0.004454 -0.004567 0.011327 0.000000 0.000000 0.000000
# 4 0.000000 0.000000 0.000000 0.047642 0.000000 0.000000
# 5 0.000000 0.000000 0.000000 0.000000 0.037732 0.000000
# 6 0.000000 0.000000 0.000000 0.000000 0.000000 0.076177
#
#
# Mechanical properties :
#
#
# Convention : Reuss Voigt Hill
#
# Bulk Modulus (GPa) = 34.80075 48.22495 41.51285
# Shear Modulus (GPa) = 18.83814 21.99393 20.41604
#
# Velocity S-wave (km/s) = 3.06912 3.31624 3.19507
# Velocity P-wave (km/s) = 5.47361 6.22710 5.86248
#
# Compressibility (1/GPa) = 0.02873501
#
# Stress axis : x y z
#
# Youngs Moduli (GPa) = 64.79675 28.77471 88.28374
#
# Poissons Ratio (x) = 0.21201 0.39318
# Poissons Ratio (y) = 0.47742 0.40321
# Poissons Ratio (z) = 0.28858 0.13142
#
# Static dielectric constant tensor:
#      x y z
#    x 3.514380 0.000000 0.000000 
#    y 0.000000 3.536240 0.000000 
#    z 0.000000 0.000000 3.774420 
# 
# 
# High freq. dielectric constant tensor:
#      x y z
#    x 1.754690 0.000000 0.000000 
#    y 0.000000 1.767410 0.000000 
#    z 0.000000 0.000000 1.784010 
# 
# From -- ./inp_files/14546.got.cif
#   From: 2010.06.25/outbox.cif.g09.slc.cpg/sg71_8_cif.got.tgz:14546.got - 2010.06.28 04:59:45.
