data_PCOD8291489
_publ_section_title
;
Structure prediction by ZEFSAII (Michael W. Deem and Ramdas Pophale) SiO2 
 PCOD8291489
Probable space group: I M M M
;
_chemical_formula_sum "Si O2"
_cell_formula_units_Z 64
_cell_length_a 26.092273
_cell_length_b 8.800621
_cell_length_c 14.717082
_cell_angle_alpha 90.000000
_cell_angle_beta 90.000000
_cell_angle_gamma 90.000000
_cell_volume 3379.457133
_symmetry_space_group_name_H-M "I M M M"
_symmetry_group_IT_number 71
_symmetry_cell_setting 'orthorhombic'
loop_
_space_group_symop_operation_xyz
x,y,z
-x,-y,z
x,-y,-z
-x,y,-z
-x,-y,-z
x,y,-z
-x,y,z
x,-y,z
1/2+x,1/2+y,1/2+z
1/2-x,1/2-y,1/2+z
1/2+x,1/2-y,1/2-z
1/2-x,1/2+y,1/2-z
1/2-x,1/2-y,1/2-z
1/2+x,1/2+y,1/2-z
1/2-x,1/2+y,1/2+z
1/2+x,1/2-y,1/2+z
loop_
_atom_site_type_symbol
_atom_site_label
_atom_site_fract_x
_atom_site_fract_y
_atom_site_fract_z
Si Si1 0.394319 0.321577 0.659149
Si Si2 0.869250 0.823160 0.637291
Si Si3 0.829571 0.318945 0.000000
Si Si4 0.784927 0.178619 0.500000
Si Si5 0.442637 0.820987 0.000000
Si Si6 0.000000 0.679603 0.893549
O O1 0.397831 0.500000 0.638700
O O2 0.368820 0.286798 0.756371
O O3 0.357641 0.240839 0.588473
O O4 0.450790 0.251432 0.654610
O O5 0.815892 0.769241 0.590470
O O6 0.916077 0.736241 0.591547
O O7 0.877730 0.000000 0.617812
O O8 0.771907 0.250570 0.000000
O O9 0.831733 0.500000 0.000000
O O10 0.777758 0.000000 0.500000
O O11 0.500000 0.756958 0.000000
O O12 0.441450 0.000000 0.000000
O O13 0.000000 0.500000 0.878283
O O14 0.000000 0.720854 0.000000
#
# Coordination Sequence:
#
# PCOD8291489 Si02
#       6
#    16  16   8   8   8   8
#     4  11  23  38  59  87 116 149 193 238 282 336
#     4   9  20  39  60  82 111 151 192 232 281 337
#     4  11  22  37  59  85 114 153 192 233 290 339
#     4   8  17  38  62  82 112 150 190 235 280 337
#     4  10  21  35  53  83 116 147 184 234 287 334
#     4  11  23  39  59  82 114 155 190 230 291 345
#
# _framework density 18.937953
#
# number of rings (size 3 to 8) (size 9 to 14) (size 15 to 20)
#    0.000    2.000    1.250    2.625    1.750    4.500 
#    0.000    5.000    0.000    0.000    0.000    0.000 
#    0.000    0.000    0.000    0.000    0.000    0.000 
#
# Total GULP energy -396832.360192 kJ/mol
# GULP energy per Si atom -12401.011256 kJ/mol
# Density = 1.889485 g / cm^3
# Si number density = 18.937953 Si / 1000 Ang^3
#
#
#
# Elastic Constant Matrix: (Units=GPa)
#
#
# Indices 1 2 3 4 5 6 
#
# 1 187.9271 50.2299 78.8951 0.0000 0.0000 0.0000
# 2 50.2299 73.9665 49.9716 0.0000 0.0000 0.0000
# 3 78.8951 49.9716 143.6324 0.0000 0.0000 0.0000
# 4 0.0000 0.0000 0.0000 85.8628 0.0000 0.0000
# 5 0.0000 0.0000 0.0000 0.0000 29.6543 0.0000
# 6 0.0000 0.0000 0.0000 0.0000 0.0000 13.6467
#
#
#
# Elastic Compliance Matrix: (Units=1/GPa)
#
#
# Indices 1 2 3 4 5 6 
#
# 1 0.007384 -0.002973 -0.003022 0.000000 0.000000 0.000000
# 2 -0.002973 0.018871 -0.004932 0.000000 0.000000 0.000000
# 3 -0.003022 -0.004932 0.010338 0.000000 0.000000 0.000000
# 4 0.000000 0.000000 0.000000 0.011646 0.000000 0.000000
# 5 0.000000 0.000000 0.000000 0.000000 0.033722 0.000000
# 6 0.000000 0.000000 0.000000 0.000000 0.000000 0.073278
#
#
# Mechanical properties :
#
#
# Convention : Reuss Voigt Hill
#
# Bulk Modulus (GPa) = 67.84768 84.85768 76.35268
# Shear Modulus (GPa) = 27.47144 40.92808 34.19976
#
# Velocity S-wave (km/s) = 3.81281 4.65388 4.25418
# Velocity P-wave (km/s) = 7.43555 8.58974 8.03340
#
# Compressibility (1/GPa) = 0.01473890
#
# Stress axis : x y z
#
# Youngs Moduli (GPa) = 135.41879 52.99144 96.73016
#
# Poissons Ratio (x) = 0.15756 0.29230
# Poissons Ratio (y) = 0.40263 0.47710
# Poissons Ratio (z) = 0.40920 0.26137
#
# Static dielectric constant tensor:
#      x y z
#    x 3.760500 0.000000 0.000000 
#    y 0.000000 3.429810 0.000000 
#    z 0.000000 0.000000 3.584920 
# 
# 
# High freq. dielectric constant tensor:
#      x y z
#    x 1.743990 0.000000 0.000000 
#    y 0.000000 1.732530 0.000000 
#    z 0.000000 0.000000 1.743060 
# 
# From -- ./inp_files/12025.got.cif
#   From: 2010.06.25/outbox.cif.g09.slc.cpg/sg71_7_cif.got.tgz:12025.got - 2010.06.28 04:59:45.
