data_PCOD8291512
_publ_section_title
;
Structure prediction by ZEFSAII (Michael W. Deem and Ramdas Pophale) SiO2 
 PCOD8291512
Probable space group: I M M M
;
_chemical_formula_sum "Si O2"
_cell_formula_units_Z 96
_cell_length_a 14.345424
_cell_length_b 17.086391
_cell_length_c 19.741893
_cell_angle_alpha 90.000000
_cell_angle_beta 90.000000
_cell_angle_gamma 90.000000
_cell_volume 4838.965470
_symmetry_space_group_name_H-M "I M M M"
_symmetry_group_IT_number 71
_symmetry_cell_setting 'orthorhombic'
loop_
_space_group_symop_operation_xyz
x,y,z
-x,-y,z
x,-y,-z
-x,y,-z
-x,-y,-z
x,y,-z
-x,y,z
x,-y,z
1/2+x,1/2+y,1/2+z
1/2-x,1/2-y,1/2+z
1/2+x,1/2-y,1/2-z
1/2-x,1/2+y,1/2-z
1/2-x,1/2-y,1/2-z
1/2+x,1/2+y,1/2-z
1/2-x,1/2+y,1/2+z
1/2+x,1/2-y,1/2+z
loop_
_atom_site_type_symbol
_atom_site_label
_atom_site_fract_x
_atom_site_fract_y
_atom_site_fract_z
Si Si1 0.891245 0.218223 0.076787
Si Si2 0.256388 0.911086 0.922071
Si Si3 0.889705 0.306816 0.341428
Si Si4 0.605736 0.000000 0.358494
Si Si5 0.891943 0.668423 0.807766
Si Si6 0.891191 0.847294 0.578266
Si Si7 0.207515 0.000000 0.423134
O O1 0.837542 0.137801 0.091604
O O2 0.849942 0.284254 0.127952
O O3 0.000000 0.200808 0.088207
O O4 0.873118 0.248379 0.000000
O O5 0.342178 0.879903 0.878020
O O6 0.234966 0.000000 0.900767
O O7 0.287034 0.905180 0.000000
O O8 0.852233 0.301892 0.264105
O O9 0.859715 0.227409 0.378686
O O10 0.000000 0.321181 0.344551
O O11 0.625488 0.924323 0.312768
O O12 0.680218 0.000000 0.419290
O O13 0.500000 0.000000 0.388273
O O14 0.000000 0.687323 0.809620
O O15 0.865015 0.830990 0.500000
O O16 0.000000 0.864699 0.586609
O O17 0.835763 0.921449 0.609687
O O18 0.173849 0.000000 0.500000
#
# Coordination Sequence:
#
# PCOD8291512 Si02
#       7
#    16  16  16   8  16  16   8
#     4   9  19  38  62  83 109 146 185 230 281 329
#     4  10  22  37  55  85 117 145 186 233 275 329
#     4  10  21  37  59  82 112 151 185 228 280 332
#     4  10  22  38  53  78 113 147 185 230 274 330
#     4   9  20  38  58  81 110 146 191 230 274 332
#     4   9  18  35  58  84 114 148 186 227 273 327
#     4  10  21  35  56  85 113 147 186 227 276 330
#
# _framework density 19.838950000000001
#
# number of rings (size 3 to 8) (size 9 to 14) (size 15 to 20)
#    0.000    2.500    0.000    0.750    3.500    4.167 
#    0.000    4.167    0.000    0.000    0.000    0.000 
#    0.000    0.000    0.000    0.000    0.000    0.000 
#
# Total GULP energy -595152.006211 kJ/mol
# GULP energy per Si atom -12399.000129 kJ/mol
# Density = 1.979380 g / cm^3
# Si number density = 19.838950 Si / 1000 Ang^3
#
#
#
# Elastic Constant Matrix: (Units=GPa)
#
#
# Indices 1 2 3 4 5 6 
#
# 1 66.1716 49.8216 40.0355 0.0000 0.0000 0.0000
# 2 49.8216 175.8317 89.0939 0.0000 0.0000 0.0000
# 3 40.0355 89.0939 122.9537 0.0000 0.0000 0.0000
# 4 0.0000 0.0000 0.0000 12.6265 0.0000 0.0000
# 5 0.0000 0.0000 0.0000 0.0000 20.4898 0.0000
# 6 0.0000 0.0000 0.0000 0.0000 0.0000 32.2935
#
#
#
# Elastic Compliance Matrix: (Units=1/GPa)
#
#
# Indices 1 2 3 4 5 6 
#
# 1 0.020307 -0.003798 -0.003860 0.000000 0.000000 0.000000
# 2 -0.003798 0.009697 -0.005790 0.000000 0.000000 0.000000
# 3 -0.003860 -0.005790 0.013586 0.000000 0.000000 0.000000
# 4 0.000000 0.000000 0.000000 0.079199 0.000000 0.000000
# 5 0.000000 0.000000 0.000000 0.000000 0.048805 0.000000
# 6 0.000000 0.000000 0.000000 0.000000 0.000000 0.030966
#
#
# Mechanical properties :
#
#
# Convention : Reuss Voigt Hill
#
# Bulk Modulus (GPa) = 59.90338 80.31766 70.11052
# Shear Modulus (GPa) = 21.27470 25.48236 23.37853
#
# Velocity S-wave (km/s) = 3.27826 3.58783 3.43653
# Velocity P-wave (km/s) = 6.67755 7.59842 7.15282
#
# Compressibility (1/GPa) = 0.01669355
#
# Stress axis : x y z
#
# Youngs Moduli (GPa) = 49.24311 103.12208 73.60714
#
# Poissons Ratio (x) = 0.39167 0.28414
# Poissons Ratio (y) = 0.18703 0.42619
# Poissons Ratio (z) = 0.19009 0.59708
#
# Static dielectric constant tensor:
#      x y z
#    x 3.486430 0.000000 0.000000 
#    y 0.000000 3.679670 0.000000 
#    z 0.000000 0.000000 3.730640 
# 
# 
# High freq. dielectric constant tensor:
#      x y z
#    x 1.772310 0.000000 0.000000 
#    y 0.000000 1.777390 0.000000 
#    z 0.000000 0.000000 1.760840 
# 
# From -- ./inp_files/53021.got.cif
#   From: 2010.06.25/outbox.cif.g09.slc.cpg/sg71_27_cif.got.tgz:53021.got - 2010.06.28 04:59:45.
