data_PCOD8291909
_publ_section_title
;
Structure prediction by ZEFSAII (Michael W. Deem and Ramdas Pophale) SiO2 
 PCOD8291909
Probable space group: I M M M
;
_chemical_formula_sum "Si O2"
_cell_formula_units_Z 88
_cell_length_a 20.638482
_cell_length_b 8.800674
_cell_length_c 24.814496
_cell_angle_alpha 90.000000
_cell_angle_beta 90.000000
_cell_angle_gamma 90.000000
_cell_volume 4507.120234
_symmetry_space_group_name_H-M "I M M M"
_symmetry_group_IT_number 71
_symmetry_cell_setting 'orthorhombic'
loop_
_space_group_symop_operation_xyz
x,y,z
-x,-y,z
x,-y,-z
-x,y,-z
-x,-y,-z
x,y,-z
-x,y,z
x,-y,z
1/2+x,1/2+y,1/2+z
1/2-x,1/2-y,1/2+z
1/2+x,1/2-y,1/2-z
1/2-x,1/2+y,1/2-z
1/2-x,1/2-y,1/2-z
1/2+x,1/2+y,1/2-z
1/2-x,1/2+y,1/2+z
1/2+x,1/2-y,1/2+z
loop_
_atom_site_type_symbol
_atom_site_label
_atom_site_fract_x
_atom_site_fract_y
_atom_site_fract_z
Si Si1 0.311238 0.679803 0.781708
Si Si2 0.206932 0.819928 0.500000
Si Si3 0.131399 0.819487 0.395713
Si Si4 0.000000 0.319326 0.436377
Si Si5 0.428669 0.321017 0.711651
Si Si6 0.074969 0.673072 0.102066
Si Si7 0.350409 0.181603 0.500000
O O1 0.302698 0.500000 0.777369
O O2 0.250000 0.750000 0.750000
O O3 0.324534 0.729259 0.843843
O O4 0.376328 0.740928 0.753359
O O5 0.171157 0.761110 0.447049
O O6 0.278552 0.751444 0.500000
O O7 0.210120 0.000000 0.500000
O O8 0.061336 0.741602 0.402092
O O9 0.120086 0.000000 0.394580
O O10 0.000000 0.500000 0.435009
O O11 0.000000 0.264037 0.500000
O O12 0.500000 0.251018 0.724534
O O13 0.432693 0.500000 0.714816
O O14 0.405462 0.273234 0.652797
O O15 0.095566 0.500000 0.114099
O O16 0.000000 0.684353 0.087357
O O17 0.114043 0.744424 0.052637
O O18 0.353431 0.000000 0.500000
#
# Coordination Sequence:
#
# PCOD8291909 Si02
#       7
#    16   8  16   8  16  16   8
#     4  10  23  39  60  86 115 152 192 239 290 342
#     4   9  18  32  52  82 109 140 187 236 278 324
#     4  10  21  38  62  87 112 151 201 241 282 345
#     4  11  23  39  61  91 125 155 185 238 311 364
#     4   9  19  36  54  75 107 145 182 221 269 327
#     4   9  17  30  51  78 105 136 176 224 274 320
#     4   9  17  28  49  77 108 138 175 228 276 321
#
# _framework density 19.524663
#
# number of rings (size 3 to 8) (size 9 to 14) (size 15 to 20)
#    0.000    2.455    0.909    0.545    3.818    2.909 
#    0.000    0.455    0.000    3.273    0.000    0.000 
#    0.000    0.000    0.000    0.000    0.000    0.000 
#
# Total GULP energy -545305.506831 kJ/mol
# GULP energy per Si atom -12393.306973 kJ/mol
# Density = 1.948022 g / cm^3
# Si number density = 19.524663 Si / 1000 Ang^3
#
#
#
# Elastic Constant Matrix: (Units=GPa)
#
#
# Indices 1 2 3 4 5 6 
#
# 1 124.2996 34.6888 101.9684 0.0000 0.0000 0.0000
# 2 34.6888 17.6563 18.1840 0.0000 0.0000 0.0000
# 3 101.9684 18.1840 163.0029 0.0000 0.0000 0.0000
# 4 0.0000 0.0000 0.0000 21.2347 0.0000 0.0000
# 5 0.0000 0.0000 0.0000 0.0000 49.3368 0.0000
# 6 0.0000 0.0000 0.0000 0.0000 0.0000 23.6436
#
#
#
# Elastic Compliance Matrix: (Units=1/GPa)
#
#
# Indices 1 2 3 4 5 6 
#
# 1 0.038861 -0.057973 -0.017843 0.000000 0.000000 0.000000
# 2 -0.057973 0.150474 0.019480 0.000000 0.000000 0.000000
# 3 -0.017843 0.019480 0.015124 0.000000 0.000000 0.000000
# 4 0.000000 0.000000 0.000000 0.047093 0.000000 0.000000
# 5 0.000000 0.000000 0.000000 0.000000 0.020269 0.000000
# 6 0.000000 0.000000 0.000000 0.000000 0.000000 0.042295
#
#
# Mechanical properties :
#
#
# Convention : Reuss Voigt Hill
#
# Bulk Modulus (GPa) = 10.89497 68.29346 39.59422
# Shear Modulus (GPa) = 10.93176 28.85088 19.89132
#
# Velocity S-wave (km/s) = 2.36878 3.84821 3.19529
# Velocity P-wave (km/s) = 3.61576 7.40263 5.82549
#
# Compressibility (1/GPa) = 0.09178550
#
# Stress axis : x y z
#
# Youngs Moduli (GPa) = 25.73263 6.64568 66.12203
#
# Poissons Ratio (x) = 0.38527 1.17980
# Poissons Ratio (y) = 1.49181 -1.28804
# Poissons Ratio (z) = 0.45914 -0.12946
#
# Static dielectric constant tensor:
#      x y z
#    x 3.892090 0.000000 0.000000 
#    y 0.000000 3.188590 0.000000 
#    z 0.000000 0.000000 3.799660 
# 
# 
# High freq. dielectric constant tensor:
#      x y z
#    x 1.771700 0.000000 0.000000 
#    y 0.000000 1.721890 0.000000 
#    z 0.000000 0.000000 1.772100 
# 
# From -- ./inp_files/12611.got.cif
#   From: 2010.06.25/outbox.cif.g09.slc.cpg/sg71_7_cif.got.tgz:12611.got - 2010.06.28 04:59:45.
