data_PCOD8291157
_publ_section_title
;
Structure prediction by ZEFSAII (Michael W. Deem and Ramdas Pophale) SiO2 
 PCOD8291157
Probable space group: I M M M
;
_chemical_formula_sum "Si O2"
_cell_formula_units_Z 64
_cell_length_a 15.370954
_cell_length_b 24.118882
_cell_length_c 8.913668
_cell_angle_alpha 90.000000
_cell_angle_beta 90.000000
_cell_angle_gamma 90.000000
_cell_volume 3304.566150
_symmetry_space_group_name_H-M "I M M M"
_symmetry_group_IT_number 71
_symmetry_cell_setting 'orthorhombic'
loop_
_space_group_symop_operation_xyz
x,y,z
-x,-y,z
x,-y,-z
-x,y,-z
-x,-y,-z
x,y,-z
-x,y,z
x,-y,z
1/2+x,1/2+y,1/2+z
1/2-x,1/2-y,1/2+z
1/2+x,1/2-y,1/2-z
1/2-x,1/2+y,1/2-z
1/2-x,1/2-y,1/2-z
1/2+x,1/2+y,1/2-z
1/2-x,1/2+y,1/2+z
1/2+x,1/2-y,1/2+z
loop_
_atom_site_type_symbol
_atom_site_label
_atom_site_fract_x
_atom_site_fract_y
_atom_site_fract_z
Si Si1 0.599192 0.500000 0.177330
Si Si2 0.500000 0.686836 0.677852
Si Si3 0.655339 0.389332 0.673886
Si Si4 0.897622 0.500000 0.329475
Si Si5 0.500000 0.188293 0.678179
Si Si6 0.850642 0.381416 0.674741
O O1 0.500000 0.500000 0.236459
O O2 0.648807 0.553694 0.236725
O O3 0.602612 0.500000 0.000000
O O4 0.500000 0.689173 0.500000
O O5 0.414443 0.654769 0.736752
O O6 0.500000 0.749033 0.741669
O O7 0.637825 0.402674 0.500000
O O8 0.750871 0.362845 0.697065
O O9 0.865326 0.500000 0.500000
O O10 0.860959 0.556449 0.256053
O O11 0.000000 0.500000 0.313176
O O12 0.500000 0.186378 0.500000
O O13 0.412520 0.159781 0.736131
O O14 0.878533 0.380801 0.500000
#
# Coordination Sequence:
#
# PCOD8291157 Si02
#       6
#     8   8  16   8   8  16
#     4  11  22  35  55  88 126 152 176 225 289 340
#     4   9  20  38  57  80 110 147 194 239 278 331
#     4  10  20  37  62  84 108 150 198 235 271 330
#     4   9  15  28  52  77 106 134 164 220 279 323
#     4  11  23  38  55  78 114 153 184 231 298 345
#     4  10  20  36  59  85 108 141 191 238 278 330
#
# _framework density 19.367142000000001
#
# number of rings (size 3 to 8) (size 9 to 14) (size 15 to 20)
#    0.000    2.000    2.500    1.500    0.000    4.500 
#    0.000    3.750    0.000    0.000    0.000    0.000 
#    0.000    0.000    0.000    0.000    0.000    0.000 
#
# Total GULP energy -396812.393006 kJ/mol
# GULP energy per Si atom -12400.387281 kJ/mol
# Density = 1.932306 g / cm^3
# Si number density = 19.367142 Si / 1000 Ang^3
#
#
#
# Elastic Constant Matrix: (Units=GPa)
#
#
# Indices 1 2 3 4 5 6 
#
# 1 114.7078 82.2558 34.4065 0.0003 0.0001 0.0000
# 2 82.2558 164.4407 36.5993 0.0004 0.0001 0.0000
# 3 34.4065 36.5993 51.3978 0.0031 0.0010 -0.0003
# 4 0.0003 0.0004 0.0031 6.5913 0.0004 -0.0002
# 5 0.0001 0.0001 0.0010 0.0004 23.4154 -0.0003
# 6 0.0000 0.0000 -0.0003 -0.0002 -0.0003 11.4200
#
#
#
# Elastic Compliance Matrix: (Units=1/GPa)
#
#
# Indices 1 2 3 4 5 6 
#
# 1 0.014799 -0.006177 -0.005509 0.000002 0.000000 0.000000
# 2 -0.006177 0.009805 -0.002847 0.000001 0.000000 0.000000
# 3 -0.005509 -0.002847 0.025171 -0.000011 -0.000001 0.000001
# 4 0.000002 0.000001 -0.000011 0.151715 -0.000003 0.000003
# 5 0.000000 0.000000 -0.000001 -0.000003 0.042707 0.000001
# 6 0.000000 0.000000 0.000001 0.000003 0.000001 0.087566
#
#
# Mechanical properties :
#
#
# Convention : Reuss Voigt Hill
#
# Bulk Modulus (GPa) = 48.28494 70.78548 59.53521
# Shear Modulus (GPa) = 13.59691 20.10431 16.85061
#
# Velocity S-wave (km/s) = 2.65252 3.22539 2.95288
# Velocity P-wave (km/s) = 5.86231 7.10630 6.51407
#
# Compressibility (1/GPa) = 0.02071039
#
# Stress axis : x y z
#
# Youngs Moduli (GPa) = 67.56993 101.99304 39.72873
#
# Poissons Ratio (x) = 0.63000 0.21885
# Poissons Ratio (y) = 0.41737 0.11310
# Poissons Ratio (z) = 0.37221 0.29035
#
# Static dielectric constant tensor:
#      x y z
#    x 3.665320 0.000000 0.000000 
#    y 0.000000 3.683590 0.000000 
#    z 0.000000 0.000000 3.187470 
# 
# 
# High freq. dielectric constant tensor:
#      x y z
#    x 1.770410 0.000000 0.000000 
#    y 0.000000 1.753800 0.000000 
#    z 0.000000 0.000000 1.716800 
# 
# From -- ./inp_files/5639.got.cif
#   From: 2010.06.25/outbox.cif.g09.slc.cpg/sg71_3_cif.got.tgz:5639.got - 2010.06.28 04:59:45.
