data_PCOD8291750
_publ_section_title
;
Structure prediction by ZEFSAII (Michael W. Deem and Ramdas Pophale) SiO2 
 PCOD8291750
Probable space group: I M M M
;
_chemical_formula_sum "Si O2"
_cell_formula_units_Z 80
_cell_length_a 8.849230
_cell_length_b 28.700796
_cell_length_c 16.311856
_cell_angle_alpha 90.000000
_cell_angle_beta 90.000000
_cell_angle_gamma 90.000000
_cell_volume 4142.884290
_symmetry_space_group_name_H-M "I M M M"
_symmetry_group_IT_number 71
_symmetry_cell_setting 'orthorhombic'
loop_
_space_group_symop_operation_xyz
x,y,z
-x,-y,z
x,-y,-z
-x,y,-z
-x,-y,-z
x,y,-z
-x,y,z
x,-y,z
1/2+x,1/2+y,1/2+z
1/2-x,1/2-y,1/2+z
1/2+x,1/2-y,1/2-z
1/2-x,1/2+y,1/2-z
1/2-x,1/2-y,1/2-z
1/2+x,1/2+y,1/2-z
1/2-x,1/2+y,1/2+z
1/2+x,1/2-y,1/2+z
loop_
_atom_site_type_symbol
_atom_site_label
_atom_site_fract_x
_atom_site_fract_y
_atom_site_fract_z
Si Si1 0.824675 0.930719 0.500000
Si Si2 0.330356 0.633214 0.264309
Si Si3 0.828494 0.663806 0.000000
Si Si4 0.827189 0.213937 0.639220
Si Si5 0.176276 0.195674 0.904869
Si Si6 0.172911 0.551232 0.830565
O O1 0.796341 0.876067 0.500000
O O2 0.756316 0.951608 0.582583
O O3 0.000000 0.942051 0.500000
O O4 0.500000 0.614846 0.251103
O O5 0.308490 0.683279 0.220502
O O6 0.297607 0.645380 0.359960
O O7 0.227132 0.591829 0.230266
O O8 0.799154 0.695045 0.078008
O O9 0.000000 0.644681 0.000000
O O10 0.779210 0.267850 0.646557
O O11 0.000000 0.210907 0.606949
O O12 0.000000 0.209668 0.898117
O O13 0.226995 0.191786 0.000000
O O14 0.192609 0.500000 0.788943
O O15 0.000000 0.562314 0.850043
#
# Coordination Sequence:
#
# PCOD8291750 Si02
#       6
#     8  16   8  16  16  16
#     4  12  23  37  58  85 116 152 190 227 273 331
#     4  10  22  38  57  82 113 150 190 234 283 335
#     4  12  22  33  53  80 116 159 191 225 272 319
#     4  11  21  34  54  82 115 151 192 232 273 328
#     4  10  21  37  57  82 114 151 189 232 283 339
#     4  11  24  40  59  84 113 147 188 233 282 336
#
# _framework density 19.310220000000001
#
# number of rings (size 3 to 8) (size 9 to 14) (size 15 to 20)
#    0.000    1.200    3.000    3.900    0.000    4.400 
#    0.000    0.000    0.000    0.600    0.000    4.200 
#    0.000    0.000    0.000    0.000    0.000    0.000 
#
# Total GULP energy -495699.515537 kJ/mol
# GULP energy per Si atom -12392.487888 kJ/mol
# Density = 1.926627 g / cm^3
# Si number density = 19.310220 Si / 1000 Ang^3
#
#
#
# Elastic Constant Matrix: (Units=GPa)
#
#
# Indices 1 2 3 4 5 6 
#
# 1 117.0661 53.4145 40.9032 -0.0001 0.0000 0.0000
# 2 53.4145 111.9990 52.6521 0.0000 0.0000 0.0000
# 3 40.9032 52.6521 72.9038 -0.0002 0.0000 0.0000
# 4 -0.0001 0.0000 -0.0002 17.9080 0.0000 0.0000
# 5 0.0000 0.0000 0.0000 0.0000 19.3039 0.0000
# 6 0.0000 0.0000 0.0000 0.0000 0.0000 28.0167
#
#
#
# Elastic Compliance Matrix: (Units=1/GPa)
#
#
# Indices 1 2 3 4 5 6 
#
# 1 0.011572 -0.003735 -0.003795 0.000000 0.000000 0.000000
# 2 -0.003735 0.014724 -0.008538 0.000000 0.000000 0.000000
# 3 -0.003795 -0.008538 0.022013 0.000000 0.000000 0.000000
# 4 0.000000 0.000000 0.000000 0.055841 0.000000 0.000000
# 5 0.000000 0.000000 0.000000 0.000000 0.051803 0.000000
# 6 0.000000 0.000000 0.000000 0.000000 0.000000 0.035693
#
#
# Mechanical properties :
#
#
# Convention : Reuss Voigt Hill
#
# Bulk Modulus (GPa) = 61.83621 66.21205 64.02413
# Shear Modulus (GPa) = 21.81751 23.37898 22.59825
#
# Velocity S-wave (km/s) = 3.36496 3.48329 3.42464
# Velocity P-wave (km/s) = 6.86945 7.10921 6.99036
#
# Compressibility (1/GPa) = 0.01617176
#
# Stress axis : x y z
#
# Youngs Moduli (GPa) = 86.41214 67.91723 45.42850
#
# Poissons Ratio (x) = 0.25366 0.17242
# Poissons Ratio (y) = 0.32274 0.38788
# Poissons Ratio (z) = 0.32797 0.57990
#
# Static dielectric constant tensor:
#      x y z
#    x 3.528780 0.000000 0.000000 
#    y 0.000000 3.496210 0.000000 
#    z 0.000000 0.000000 3.479210 
# 
# 
# High freq. dielectric constant tensor:
#      x y z
#    x 1.757610 0.000000 0.000000 
#    y 0.000000 1.742980 0.000000 
#    z 0.000000 0.000000 1.734810 
# 
# From -- ./inp_files/42403.got.cif
#   From: 2010.06.25/outbox.cif.g09.slc.cpg/sg71_22_cif.got.tgz:42403.got - 2010.06.28 04:59:45.
