data_PCOD8291981
_publ_section_title
;
Structure prediction by ZEFSAII (Michael W. Deem and Ramdas Pophale) SiO2 
 PCOD8291981
Probable space group: I M M M
;
_chemical_formula_sum "Si O2"
_cell_formula_units_Z 72
_cell_length_a 30.269872
_cell_length_b 8.038096
_cell_length_c 14.841466
_cell_angle_alpha 90.000000
_cell_angle_beta 90.000000
_cell_angle_gamma 90.000000
_cell_volume 3611.108809
_symmetry_space_group_name_H-M "I M M M"
_symmetry_group_IT_number 71
_symmetry_cell_setting 'orthorhombic'
loop_
_space_group_symop_operation_xyz
x,y,z
-x,-y,z
x,-y,-z
-x,y,-z
-x,-y,-z
x,y,-z
-x,y,z
x,-y,z
1/2+x,1/2+y,1/2+z
1/2-x,1/2-y,1/2+z
1/2+x,1/2-y,1/2-z
1/2-x,1/2+y,1/2-z
1/2-x,1/2-y,1/2-z
1/2+x,1/2+y,1/2-z
1/2-x,1/2+y,1/2+z
1/2+x,1/2-y,1/2+z
loop_
_atom_site_type_symbol
_atom_site_label
_atom_site_fract_x
_atom_site_fract_y
_atom_site_fract_z
Si Si1 0.949291 0.688148 0.216309
Si Si2 0.628956 0.697447 0.181827
Si Si3 0.326978 0.805969 0.000000
Si Si4 0.707324 0.692773 0.304232
Si Si5 0.771102 0.689930 0.000000
Si Si6 0.552137 0.500000 0.401342
O O1 0.944574 0.500000 0.176736
O O2 0.918071 0.711878 0.302891
O O3 0.932461 0.829030 0.146197
O O4 0.000000 0.721315 0.244815
O O5 0.622794 0.500000 0.185383
O O6 0.663399 0.766435 0.257252
O O7 0.644819 0.754603 0.085159
O O8 0.281415 0.706290 0.000000
O O9 0.315398 0.000000 0.000000
O O10 0.704958 0.500000 0.289841
O O11 0.750000 0.750000 0.250000
O O12 0.708290 0.731759 0.410044
O O13 0.784671 0.500000 0.000000
O O14 0.500000 0.500000 0.409107
O O15 0.574097 0.500000 0.500000
#
# Coordination Sequence:
#
# PCOD8291981 Si02
#       6
#    16  16   8  16   8   8
#     4  10  21  39  64  92 125 166 211 259 316 377
#     4  11  23  41  64  91 123 162 207 256 317 377
#     4  12  24  38  63  91 122 159 209 260 308 376
#     4  11  23  39  62  88 119 158 201 250 305 364
#     4  12  24  40  60  87 124 165 208 254 308 370
#     4   9  18  36  62  89 121 161 205 256 312 367
#
# _framework density 19.938473999999999
#
# number of rings (size 3 to 8) (size 9 to 14) (size 15 to 20)
#    0.000    1.222    3.333    3.333    0.000    3.111 
#    2.000    2.778    0.000    3.333    0.000    0.000 
#    0.000    0.000    0.000    0.000    0.000    0.000 
#
# Total GULP energy -446330.238804 kJ/mol
# GULP energy per Si atom -12398.062189 kJ/mol
# Density = 1.989309 g / cm^3
# Si number density = 19.938474 Si / 1000 Ang^3
#
#
#
# Elastic Constant Matrix: (Units=GPa)
#
#
# Indices 1 2 3 4 5 6 
#
# 1 96.8973 29.8635 62.1033 0.0000 0.0000 0.0000
# 2 29.8635 98.2508 28.6393 0.0000 0.0000 0.0000
# 3 62.1033 28.6393 155.0606 0.0000 0.0000 0.0000
# 4 0.0000 0.0000 0.0000 20.8734 0.0000 0.0000
# 5 0.0000 0.0000 0.0000 0.0000 -156.7633 0.0000
# 6 0.0000 0.0000 0.0000 0.0000 0.0000 28.5973
#
#
#
# Elastic Compliance Matrix: (Units=1/GPa)
#
#
# Indices 1 2 3 4 5 6 
#
# 1 0.014623 -0.002893 -0.005322 0.000000 0.000000 0.000000
# 2 -0.002893 0.011330 -0.000934 0.000000 0.000000 0.000000
# 3 -0.005322 -0.000934 0.008753 0.000000 0.000000 0.000000
# 4 0.000000 0.000000 0.000000 0.047908 0.000000 0.000000
# 5 0.000000 0.000000 0.000000 0.000000 -0.006379 0.000000
# 6 0.000000 0.000000 0.000000 0.000000 0.000000 0.034968
#
#
# Mechanical properties :
#
#
# Convention : Reuss Voigt Hill
#
# Bulk Modulus (GPa) = 60.94890 65.71341 63.33116
# Shear Modulus (GPa) = 37.04501 -6.15170 15.44665
#
# Velocity S-wave (km/s) = 4.31509 -1.75842 2.78639
# Velocity P-wave (km/s) = 7.44725 5.37652 6.49494
#
# Compressibility (1/GPa) = 0.01640719
#
# Stress axis : x y z
#
# Youngs Moduli (GPa) = 68.38505 88.26407 114.24408
#
# Poissons Ratio (x) = 0.25537 0.60804
# Poissons Ratio (y) = 0.19786 0.10668
# Poissons Ratio (z) = 0.36397 0.08242
#
# Static dielectric constant tensor:
#      x y z
#    x 3.590430 0.000000 0.000000 
#    y 0.000000 3.866210 0.000000 
#    z 0.000000 0.000000 3.994700 
# 
# 
# High freq. dielectric constant tensor:
#      x y z
#    x 1.775990 0.000000 0.000000 
#    y 0.000000 1.794970 0.000000 
#    z 0.000000 0.000000 1.771630 
# 
# From -- ./inp_files/40732.got.cif
#   From: 2010.06.25/outbox.cif.g09.slc.cpg/sg71_21_cif.got.tgz:40732.got - 2010.06.28 04:59:45.
