data_PCOD8291749
_publ_section_title
;
Structure prediction by ZEFSAII (Michael W. Deem and Ramdas Pophale) SiO2 
 PCOD8291749
Probable space group: I M M M
;
_chemical_formula_sum "Si O2"
_cell_formula_units_Z 88
_cell_length_a 18.004115
_cell_length_b 9.007937
_cell_length_c 27.079281
_cell_angle_alpha 90.000000
_cell_angle_beta 90.000000
_cell_angle_gamma 90.000000
_cell_volume 4391.715996
_symmetry_space_group_name_H-M "I M M M"
_symmetry_group_IT_number 71
_symmetry_cell_setting 'orthorhombic'
loop_
_space_group_symop_operation_xyz
x,y,z
-x,-y,z
x,-y,-z
-x,y,-z
-x,-y,-z
x,y,-z
-x,y,z
x,-y,z
1/2+x,1/2+y,1/2+z
1/2-x,1/2-y,1/2+z
1/2+x,1/2-y,1/2-z
1/2-x,1/2+y,1/2-z
1/2-x,1/2-y,1/2-z
1/2+x,1/2+y,1/2-z
1/2-x,1/2+y,1/2+z
1/2+x,1/2-y,1/2+z
loop_
_atom_site_type_symbol
_atom_site_label
_atom_site_fract_x
_atom_site_fract_y
_atom_site_fract_z
Si Si1 0.081571 0.327138 0.094580
Si Si2 0.817609 0.174120 0.721162
Si Si3 0.000000 0.676132 0.442728
Si Si4 0.146212 0.324865 0.617527
Si Si5 0.233986 0.668389 0.055542
Si Si6 0.913180 0.162237 0.189451
O O1 0.069028 0.500000 0.096357
O O2 0.146479 0.285109 0.056191
O O3 0.113019 0.276931 0.147821
O O4 0.000000 0.254451 0.081605
O O5 0.750000 0.250000 0.750000
O O6 0.842109 0.246393 0.669832
O O7 0.886931 0.206442 0.756409
O O8 0.800781 0.000000 0.713031
O O9 0.072668 0.731505 0.412124
O O10 0.000000 0.500000 0.445376
O O11 0.000000 0.737212 0.500000
O O12 0.142232 0.500000 0.626074
O O13 0.218294 0.285442 0.585740
O O14 0.243203 0.500000 0.076536
O O15 0.262550 0.675768 0.000000
O O16 0.000000 0.159961 0.192107
O O17 0.881165 0.000000 0.174926
#
# Coordination Sequence:
#
# PCOD8291749 Si02
#       6
#    16  16   8  16  16  16
#     4   9  18  33  54  81 112 148 188 231 278 333
#     4  11  23  38  58  84 117 153 191 237 288 348
#     4   9  20  40  63  87 117 155 203 259 312 365
#     4  11  23  39  61  87 116 153 198 247 301 360
#     4  10  21  37  57  82 113 148 190 240 292 347
#     4   9  19  35  54  76 105 143 181 219 268 325
#
# _framework density 20.037725999999999
#
# number of rings (size 3 to 8) (size 9 to 14) (size 15 to 20)
#    0.000    2.091    0.000    2.727    1.273    6.545 
#    0.000    3.182    0.000    3.273    0.000    3.818 
#    0.000    0.000    0.000    0.000    0.000    0.000 
#
# Total GULP energy -545217.514280 kJ/mol
# GULP energy per Si atom -12391.307143 kJ/mol
# Density = 1.999212 g / cm^3
# Si number density = 20.037726 Si / 1000 Ang^3
#
#
#
# Elastic Constant Matrix: (Units=GPa)
#
#
# Indices 1 2 3 4 5 6 
#
# 1 78.2772 36.8498 43.3599 0.0000 0.0000 0.0000
# 2 36.8498 45.8980 26.1640 0.0000 0.0000 0.0000
# 3 43.3599 26.1640 105.0795 0.0000 0.0000 0.0000
# 4 0.0000 0.0000 0.0000 29.4533 0.0000 0.0000
# 5 0.0000 0.0000 0.0000 0.0000 39.4766 0.0000
# 6 0.0000 0.0000 0.0000 0.0000 0.0000 26.0482
#
#
#
# Elastic Compliance Matrix: (Units=1/GPa)
#
#
# Indices 1 2 3 4 5 6 
#
# 1 0.023175 -0.015331 -0.005746 0.000000 0.000000 0.000000
# 2 -0.015331 0.035534 -0.002521 0.000000 0.000000 0.000000
# 3 -0.005746 -0.002521 0.012515 0.000000 0.000000 0.000000
# 4 0.000000 0.000000 0.000000 0.033952 0.000000 0.000000
# 5 0.000000 0.000000 0.000000 0.000000 0.025331 0.000000
# 6 0.000000 0.000000 0.000000 0.000000 0.000000 0.038390
#
#
# Mechanical properties :
#
#
# Convention : Reuss Voigt Hill
#
# Bulk Modulus (GPa) = 41.61865 49.11133 45.36499
# Shear Modulus (GPa) = 22.31115 27.18768 24.74941
#
# Velocity S-wave (km/s) = 3.34047 3.68751 3.51827
# Velocity P-wave (km/s) = 5.97441 6.53398 6.26045
#
# Compressibility (1/GPa) = 0.02402769
#
# Stress axis : x y z
#
# Youngs Moduli (GPa) = 43.14988 28.14242 79.90246
#
# Poissons Ratio (x) = 0.43146 0.45909
# Poissons Ratio (y) = 0.66154 0.20146
# Poissons Ratio (z) = 0.24792 0.07096
#
# Static dielectric constant tensor:
#      x y z
#    x 4.125490 0.000000 0.000000 
#    y 0.000000 3.535780 0.000000 
#    z 0.000000 0.000000 2.894150 
# 
# 
# High freq. dielectric constant tensor:
#      x y z
#    x 1.793990 0.000000 0.000000 
#    y 0.000000 1.766600 0.000000 
#    z 0.000000 0.000000 1.786460 
# 
# From -- ./inp_files/61134.got.cif
#   From: 2010.06.25/outbox.cif.g09.slc.cpg/sg71_31_cif.got.tgz:61134.got - 2010.06.28 04:59:45.
