data_PCOD8291318
_publ_section_title
;
Structure prediction by ZEFSAII (Michael W. Deem and Ramdas Pophale) SiO2 
 PCOD8291318
Probable space group: I M M M
;
_chemical_formula_sum "Si O2"
_cell_formula_units_Z 88
_cell_length_a 20.572110
_cell_length_b 24.434180
_cell_length_c 8.830091
_cell_angle_alpha 90.000000
_cell_angle_beta 90.000000
_cell_angle_gamma 90.000000
_cell_volume 4438.556842
_symmetry_space_group_name_H-M "I M M M"
_symmetry_group_IT_number 71
_symmetry_cell_setting 'orthorhombic'
loop_
_space_group_symop_operation_xyz
x,y,z
-x,-y,z
x,-y,-z
-x,y,-z
-x,-y,-z
x,y,-z
-x,y,z
x,-y,z
1/2+x,1/2+y,1/2+z
1/2-x,1/2-y,1/2+z
1/2+x,1/2-y,1/2-z
1/2-x,1/2+y,1/2-z
1/2-x,1/2-y,1/2-z
1/2+x,1/2+y,1/2-z
1/2-x,1/2+y,1/2+z
1/2+x,1/2-y,1/2+z
loop_
_atom_site_type_symbol
_atom_site_label
_atom_site_fract_x
_atom_site_fract_y
_atom_site_fract_z
Si Si1 0.137332 0.605624 0.319635
Si Si2 0.210258 0.500000 0.322206
Si Si3 0.344940 0.500000 0.827188
Si Si4 0.926023 0.785783 0.826331
Si Si5 0.925542 0.086931 0.830589
Si Si6 0.686675 0.777862 0.822275
Si Si7 0.000000 0.437089 0.319938
O O1 0.138373 0.607449 0.500000
O O2 0.177752 0.554507 0.253702
O O3 0.171656 0.661048 0.257966
O O4 0.063052 0.596927 0.262541
O O5 0.198756 0.500000 0.500000
O O6 0.285124 0.500000 0.285032
O O7 0.386090 0.445772 0.794945
O O8 0.321915 0.500000 0.000000
O O9 0.916464 0.849622 0.797787
O O10 0.877812 0.756280 0.712295
O O11 0.000000 0.768397 0.788841
O O12 0.909200 0.770989 0.000000
O O13 0.000000 0.069485 0.816578
O O14 0.900443 0.072706 0.000000
O O15 0.750000 0.750000 0.750000
O O16 0.699153 0.779477 0.000000
O O17 0.000000 0.500000 0.257721
O O18 0.000000 0.440536 0.500000
#
# Coordination Sequence:
#
# PCOD8291318 Si02
#       7
#    16   8   8  16  16  16   8
#     4   9  19  34  57  87 116 147 189 237 288 349
#     4  10  20  38  59  82 110 152 198 233 280 343
#     4  12  25  35  51  84 119 149 184 235 294 344
#     4   9  20  40  63  86 114 151 196 243 291 349
#     4   9  19  38  62  83 106 144 193 237 280 341
#     4  11  24  39  58  87 121 159 200 245 297 354
#     4   9  14  28  56  90 120 140 174 239 300 341
#
# _framework density 19.826264999999999
#
# number of rings (size 3 to 8) (size 9 to 14) (size 15 to 20)
#    0.000    2.273    0.909    2.727    3.818    2.545 
#    0.000    2.727    0.000    0.000    0.000    0.636 
#    0.000    0.000    0.000    0.000    0.000    0.000 
#
# Total GULP energy -545481.962256 kJ/mol
# GULP energy per Si atom -12397.317324 kJ/mol
# Density = 1.978114 g / cm^3
# Si number density = 19.826265 Si / 1000 Ang^3
#
#
#
# Elastic Constant Matrix: (Units=GPa)
#
#
# Indices 1 2 3 4 5 6 
#
# 1 128.6815 83.6311 23.1998 0.0000 0.0000 0.0000
# 2 83.6311 132.5038 25.6784 0.0000 0.0000 0.0000
# 3 23.1998 25.6784 33.3002 0.0000 0.0000 0.0000
# 4 0.0000 0.0000 0.0000 21.3868 0.0000 0.0000
# 5 0.0000 0.0000 0.0000 0.0000 25.1389 0.0000
# 6 0.0000 0.0000 0.0000 0.0000 0.0000 41.7387
#
#
#
# Elastic Compliance Matrix: (Units=1/GPa)
#
#
# Indices 1 2 3 4 5 6 
#
# 1 0.013482 -0.007865 -0.003329 0.000000 0.000000 0.000000
# 2 -0.007865 0.013460 -0.004900 0.000000 0.000000 0.000000
# 3 -0.003329 -0.004900 0.036128 0.000000 0.000000 0.000000
# 4 0.000000 0.000000 0.000000 0.046758 0.000000 0.000000
# 5 0.000000 0.000000 0.000000 0.000000 0.039779 0.000000
# 6 0.000000 0.000000 0.000000 0.000000 0.000000 0.023959
#
#
# Mechanical properties :
#
#
# Convention : Reuss Voigt Hill
#
# Bulk Modulus (GPa) = 32.37987 62.16715 47.27351
# Shear Modulus (GPa) = 23.14308 28.45130 25.79719
#
# Velocity S-wave (km/s) = 3.42027 3.79229 3.61108
# Velocity P-wave (km/s) = 5.65376 7.11332 6.42512
#
# Compressibility (1/GPa) = 0.03088339
#
# Stress axis : x y z
#
# Youngs Moduli (GPa) = 74.17050 74.29191 27.67964
#
# Poissons Ratio (x) = 0.58427 0.09213
# Poissons Ratio (y) = 0.58332 0.13564
# Poissons Ratio (z) = 0.24688 0.36406
#
# Static dielectric constant tensor:
#      x y z
#    x 3.677020 0.000000 0.000000 
#    y 0.000000 3.889670 0.000000 
#    z 0.000000 0.000000 3.175160 
# 
# 
# High freq. dielectric constant tensor:
#      x y z
#    x 1.783580 0.000000 0.000000 
#    y 0.000000 1.785130 0.000000 
#    z 0.000000 0.000000 1.730400 
# 
# From -- ./inp_files/10514.got.cif
#   From: 2010.06.25/outbox.cif.g09.slc.cpg/sg71_6_cif.got.tgz:10514.got - 2010.06.28 04:59:45.
