data_PCOD8291496
_publ_section_title
;
Structure prediction by ZEFSAII (Michael W. Deem and Ramdas Pophale) SiO2 
 PCOD8291496
Probable space group: I M M M
;
_chemical_formula_sum "Si O2"
_cell_formula_units_Z 96
_cell_length_a 18.365598
_cell_length_b 27.944393
_cell_length_c 8.910981
_cell_angle_alpha 90.000000
_cell_angle_beta 90.000000
_cell_angle_gamma 90.000000
_cell_volume 4573.253464
_symmetry_space_group_name_H-M "I M M M"
_symmetry_group_IT_number 71
_symmetry_cell_setting 'orthorhombic'
loop_
_space_group_symop_operation_xyz
x,y,z
-x,-y,z
x,-y,-z
-x,y,-z
-x,-y,-z
x,y,-z
-x,y,z
x,-y,z
1/2+x,1/2+y,1/2+z
1/2-x,1/2-y,1/2+z
1/2+x,1/2-y,1/2-z
1/2-x,1/2+y,1/2-z
1/2-x,1/2-y,1/2-z
1/2+x,1/2+y,1/2-z
1/2-x,1/2+y,1/2+z
1/2+x,1/2-y,1/2+z
loop_
_atom_site_type_symbol
_atom_site_label
_atom_site_fract_x
_atom_site_fract_y
_atom_site_fract_z
Si Si1 0.917082 0.591240 0.174685
Si Si2 0.678762 0.273424 0.175822
Si Si3 0.714404 0.054213 0.837238
Si Si4 0.084490 0.684450 0.333226
Si Si5 0.857044 0.055821 0.676291
Si Si6 0.917088 0.145561 0.176533
O O1 0.865027 0.555423 0.262144
O O2 0.889682 0.644692 0.214175
O O3 0.000000 0.583135 0.229910
O O4 0.910005 0.581688 0.000000
O O5 0.750000 0.250000 0.250000
O O6 0.617039 0.234989 0.207887
O O7 0.646461 0.321804 0.249022
O O8 0.693410 0.282767 0.000000
O O9 0.776497 0.073887 0.726345
O O10 0.733698 0.000000 0.867635
O O11 0.715374 0.080923 0.000000
O O12 0.107899 0.667518 0.500000
O O13 0.000000 0.692394 0.320745
O O14 0.864184 0.063525 0.500000
O O15 0.912689 0.091212 0.760217
O O16 0.872954 0.000000 0.717697
O O17 0.000000 0.163666 0.210515
O O18 0.902119 0.144737 0.000000
#
# Coordination Sequence:
#
# PCOD8291496 Si02
#       6
#    16  16  16  16  16  16
#     4  10  21  35  54  82 115 154 200 250 304 362
#     4  11  24  41  63  92 126 165 208 257 310 365
#     4  10  21  37  58  83 115 156 200 251 309 370
#     4   9  19  37  59  81 110 152 199 246 297 355
#     4  10  22  41  66  95 126 163 208 259 316 377
#     4  11  25  44  67  96 131 170 211 258 313 374
#
# _framework density 20.991620000000001
#
# number of rings (size 3 to 8) (size 9 to 14) (size 15 to 20)
#    0.000    1.833    0.000    3.000    2.333    7.000 
#    0.000    5.000    0.000    0.000    0.000    0.000 
#    0.000    0.000    0.000    0.000    0.000    0.000 
#
# Total GULP energy -594910.375899 kJ/mol
# GULP energy per Si atom -12393.966165 kJ/mol
# Density = 2.094384 g / cm^3
# Si number density = 20.991620 Si / 1000 Ang^3
#
#
#
# Elastic Constant Matrix: (Units=GPa)
#
#
# Indices 1 2 3 4 5 6 
#
# 1 76.0440 46.2419 49.9774 0.0000 0.0000 0.0000
# 2 46.2419 79.3751 42.5664 0.0000 0.0000 0.0000
# 3 49.9774 42.5664 115.6150 -0.0002 -0.0001 0.0000
# 4 0.0000 0.0000 -0.0002 34.1100 0.0000 0.0000
# 5 0.0000 0.0000 -0.0001 0.0000 33.1059 0.0000
# 6 0.0000 0.0000 0.0000 0.0000 0.0000 36.3716
#
#
#
# Elastic Compliance Matrix: (Units=1/GPa)
#
#
# Indices 1 2 3 4 5 6 
#
# 1 0.023656 -0.010339 -0.006419 0.000000 0.000000 0.000000
# 2 -0.010339 0.020216 -0.002974 0.000000 0.000000 0.000000
# 3 -0.006419 -0.002974 0.012519 0.000000 0.000000 0.000000
# 4 0.000000 0.000000 0.000000 0.029317 0.000000 0.000000
# 5 0.000000 0.000000 0.000000 0.000000 0.030206 0.000000
# 6 0.000000 0.000000 0.000000 0.000000 0.000000 0.027494
#
#
# Mechanical properties :
#
#
# Convention : Reuss Voigt Hill
#
# Bulk Modulus (GPa) = 59.07602 60.95616 60.01609
# Shear Modulus (GPa) = 26.52291 29.53406 28.02849
#
# Velocity S-wave (km/s) = 3.55843 3.75500 3.65803
# Velocity P-wave (km/s) = 6.71469 6.92108 6.81866
#
# Compressibility (1/GPa) = 0.01692734
#
# Stress axis : x y z
#
# Youngs Moduli (GPa) = 42.27193 49.46465 79.87678
#
# Poissons Ratio (x) = 0.51142 0.51277
# Poissons Ratio (y) = 0.43705 0.23754
# Poissons Ratio (z) = 0.27136 0.14710
#
# Static dielectric constant tensor:
#      x y z
#    x 4.839170 0.000000 0.000000 
#    y 0.000000 3.853260 0.000000 
#    z 0.000000 0.000000 4.003190 
# 
# 
# High freq. dielectric constant tensor:
#      x y z
#    x 1.824080 0.000000 0.000000 
#    y 0.000000 1.816880 0.000000 
#    z 0.000000 0.000000 1.830670 
# 
# From -- ./inp_files/10828.got.cif
#   From: 2010.06.25/outbox.cif.g09.slc.cpg/sg71_6_cif.got.tgz:10828.got - 2010.06.28 04:59:45.
