data_PCOD8291883
_publ_section_title
;
Structure prediction by ZEFSAII (Michael W. Deem and Ramdas Pophale) SiO2 
 PCOD8291883
Probable space group: I M M M
;
_chemical_formula_sum "Si O2"
_cell_formula_units_Z 88
_cell_length_a 8.057276
_cell_length_b 29.079705
_cell_length_c 19.022149
_cell_angle_alpha 90.000000
_cell_angle_beta 90.000000
_cell_angle_gamma 90.000000
_cell_volume 4456.950556
_symmetry_space_group_name_H-M "I M M M"
_symmetry_group_IT_number 71
_symmetry_cell_setting 'orthorhombic'
loop_
_space_group_symop_operation_xyz
x,y,z
-x,-y,z
x,-y,-z
-x,y,-z
-x,-y,-z
x,y,-z
-x,y,z
x,-y,z
1/2+x,1/2+y,1/2+z
1/2-x,1/2-y,1/2+z
1/2+x,1/2-y,1/2-z
1/2-x,1/2+y,1/2-z
1/2-x,1/2-y,1/2-z
1/2+x,1/2+y,1/2-z
1/2-x,1/2+y,1/2+z
1/2+x,1/2-y,1/2+z
loop_
_atom_site_type_symbol
_atom_site_label
_atom_site_fract_x
_atom_site_fract_y
_atom_site_fract_z
Si Si1 0.306117 0.449573 0.423113
Si Si2 0.306493 0.203533 0.579330
Si Si3 0.306311 0.106936 0.351310
Si Si4 0.500000 0.446047 0.918079
Si Si5 0.190299 0.723059 0.682689
Si Si6 0.691586 0.877827 0.189614
O O1 0.234960 0.434243 0.500000
O O2 0.500000 0.454557 0.429895
O O3 0.231604 0.500000 0.403098
O O4 0.271456 0.413124 0.363382
O O5 0.241164 0.197171 0.500000
O O6 0.500000 0.213650 0.581085
O O7 0.263141 0.158158 0.623041
O O8 0.218200 0.247819 0.612332
O O9 0.500000 0.094401 0.370977
O O10 0.278245 0.104452 0.268353
O O11 0.172208 0.073110 0.385983
O O12 0.500000 0.500000 0.903654
O O13 0.500000 0.433946 0.000000
O O14 0.250000 0.750000 0.750000
O O15 0.275300 0.672605 0.678349
O O16 0.000000 0.713209 0.695411
O O17 0.500000 0.875701 0.171129
#
# Coordination Sequence:
#
# PCOD8291883 Si02
#       6
#    16  16  16   8  16  16
#     4   9  20  39  61  86 117 155 200 248 299 358
#     4  10  21  38  60  86 118 158 203 247 297 360
#     4  10  22  42  64  90 125 163 205 256 309 367
#     4  11  26  44  64  94 125 159 209 259 313 379
#     4  11  22  37  57  83 119 156 194 244 298 355
#     4  10  22  38  59  88 121 158 200 247 306 368
#
# _framework density 19.744441999999999
#
# number of rings (size 3 to 8) (size 9 to 14) (size 15 to 20)
#    0.000    1.909    1.818    1.636    2.545    5.455 
#    0.000    7.273    0.000    0.000    0.000    0.000 
#    0.000    0.000    0.000    0.000    0.000    0.000 
#
# Total GULP energy -545407.700237 kJ/mol
# GULP energy per Si atom -12395.629551 kJ/mol
# Density = 1.969950 g / cm^3
# Si number density = 19.744442 Si / 1000 Ang^3
#
#
#
# Elastic Constant Matrix: (Units=GPa)
#
#
# Indices 1 2 3 4 5 6 
#
# 1 70.1253 47.9978 36.1014 0.0000 0.0000 0.0000
# 2 47.9978 147.5357 77.5024 0.0000 0.0000 0.0000
# 3 36.1014 77.5024 134.7103 0.0000 0.0000 0.0000
# 4 0.0000 0.0000 0.0000 34.6469 0.0000 0.0000
# 5 0.0000 0.0000 0.0000 0.0000 31.6191 0.0000
# 6 0.0000 0.0000 0.0000 0.0000 0.0000 30.4010
#
#
#
# Elastic Compliance Matrix: (Units=1/GPa)
#
#
# Indices 1 2 3 4 5 6 
#
# 1 0.018780 -0.004967 -0.002175 0.000000 0.000000 0.000000
# 2 -0.004967 0.011027 -0.005013 0.000000 0.000000 0.000000
# 3 -0.002175 -0.005013 0.010891 0.000000 0.000000 0.000000
# 4 0.000000 0.000000 0.000000 0.028863 0.000000 0.000000
# 5 0.000000 0.000000 0.000000 0.000000 0.031626 0.000000
# 6 0.000000 0.000000 0.000000 0.000000 0.000000 0.032894
#
#
# Mechanical properties :
#
#
# Convention : Reuss Voigt Hill
#
# Bulk Modulus (GPa) = 61.02463 75.06384 68.04424
# Shear Modulus (GPa) = 30.51506 32.05138 31.28322
#
# Velocity S-wave (km/s) = 3.93555 4.03341 3.98478
# Velocity P-wave (km/s) = 7.18511 7.73249 7.46382
#
# Compressibility (1/GPa) = 0.01638683
#
# Stress axis : x y z
#
# Youngs Moduli (GPa) = 53.24912 90.68266 91.82263
#
# Poissons Ratio (x) = 0.45041 0.19973
# Poissons Ratio (y) = 0.26448 0.46033
# Poissons Ratio (z) = 0.11583 0.45462
#
# Static dielectric constant tensor:
#      x y z
#    x 3.729870 0.000000 0.000000 
#    y 0.000000 3.758740 0.000000 
#    z 0.000000 0.000000 3.803610 
# 
# 
# High freq. dielectric constant tensor:
#      x y z
#    x 1.764150 0.000000 0.000000 
#    y 0.000000 1.773760 0.000000 
#    z 0.000000 0.000000 1.779300 
# 
# From -- ./inp_files/50538.got.cif
#   From: 2010.06.25/outbox.cif.g09.slc.cpg/sg71_26_cif.got.tgz:50538.got - 2010.06.28 04:59:45.
