data_PCOD8291676
_publ_section_title
;
Structure prediction by ZEFSAII (Michael W. Deem and Ramdas Pophale) SiO2 
 PCOD8291676
Probable space group: I M M M
;
_chemical_formula_sum "Si O2"
_cell_formula_units_Z 104
_cell_length_a 18.728592
_cell_length_b 15.854475
_cell_length_c 18.017536
_cell_angle_alpha 90.000000
_cell_angle_beta 90.000000
_cell_angle_gamma 90.000000
_cell_volume 5349.982885
_symmetry_space_group_name_H-M "I M M M"
_symmetry_group_IT_number 71
_symmetry_cell_setting 'orthorhombic'
loop_
_space_group_symop_operation_xyz
x,y,z
-x,-y,z
x,-y,-z
-x,y,-z
-x,-y,-z
x,y,-z
-x,y,z
x,-y,z
1/2+x,1/2+y,1/2+z
1/2-x,1/2-y,1/2+z
1/2+x,1/2-y,1/2-z
1/2-x,1/2+y,1/2-z
1/2-x,1/2-y,1/2-z
1/2+x,1/2+y,1/2-z
1/2-x,1/2+y,1/2+z
1/2+x,1/2-y,1/2+z
loop_
_atom_site_type_symbol
_atom_site_label
_atom_site_fract_x
_atom_site_fract_y
_atom_site_fract_z
Si Si1 0.916795 0.324717 0.847294
Si Si2 0.584514 0.337094 0.917038
Si Si3 0.915232 0.500000 0.915901
Si Si4 0.698186 0.094908 0.916908
Si Si5 0.082419 0.326359 0.326203
Si Si6 0.914724 0.000000 0.333557
Si Si7 0.151465 0.159716 0.086737
Si Si8 0.084536 0.000000 0.834128
O O1 0.887561 0.415735 0.874435
O O2 0.902990 0.315901 0.760244
O O3 0.874573 0.251329 0.888508
O O4 0.000000 0.314595 0.866742
O O5 0.500000 0.344283 0.921710
O O6 0.607090 0.258063 0.867711
O O7 0.616143 0.419261 0.876905
O O8 0.616793 0.328995 0.000000
O O9 0.000000 0.500000 0.914071
O O10 0.886318 0.500000 0.000000
O O11 0.632361 0.101312 0.859927
O O12 0.764224 0.154918 0.894979
O O13 0.727980 0.000000 0.913110
O O14 0.670559 0.115969 0.000000
O O15 0.000000 0.349654 0.341658
O O16 0.885571 0.000000 0.249862
O O17 0.000000 0.000000 0.333409
O O18 0.109530 0.085505 0.127430
O O19 0.137217 0.147716 0.000000
O O20 0.000000 0.000000 0.834493
#
# Coordination Sequence:
#
# PCOD8291676 Si02
#       8
#    16  16   8  16  16   8  16   8
#     4  10  21  36  58  88 120 152 193 246 297 350
#     4   9  16  28  48  76 109 144 182 224 276 340
#     4   9  18  34  55  81 113 149 189 236 291 346
#     4  10  22  40  59  81 115 155 194 240 293 352
#     4  10  21  36  58  86 114 145 191 246 299 351
#     4   9  17  29  47  74 111 148 181 225 281 333
#     4  11  22  38  58  83 116 156 197 238 292 356
#     4  11  21  33  54  83 116 149 188 239 290 344
#
# _framework density 19.439315000000001
#
# number of rings (size 3 to 8) (size 9 to 14) (size 15 to 20)
#    0.000    2.077    0.769    2.769    1.077    7.385 
#    0.000    0.769    0.000    0.923    0.000    1.077 
#    0.000    0.000    0.000    0.000    0.000    0.000 
#
# Total GULP energy -644832.468779 kJ/mol
# GULP energy per Si atom -12400.624400 kJ/mol
# Density = 1.939507 g / cm^3
# Si number density = 19.439315 Si / 1000 Ang^3
#
#
#
# Elastic Constant Matrix: (Units=GPa)
#
#
# Indices 1 2 3 4 5 6 
#
# 1 57.3589 34.0124 42.3074 0.0000 0.0000 0.0000
# 2 34.0124 139.9938 68.9382 0.0000 0.0000 0.0000
# 3 42.3074 68.9382 148.6757 0.0000 0.0000 0.0000
# 4 0.0000 0.0000 0.0000 30.0218 0.0000 0.0000
# 5 0.0000 0.0000 0.0000 0.0000 19.4403 0.0000
# 6 0.0000 0.0000 0.0000 0.0000 0.0000 24.9017
#
#
#
# Elastic Compliance Matrix: (Units=1/GPa)
#
#
# Indices 1 2 3 4 5 6 
#
# 1 0.023041 -0.003070 -0.005133 0.000000 0.000000 0.000000
# 2 -0.003070 0.009666 -0.003608 0.000000 0.000000 0.000000
# 3 -0.005133 -0.003608 0.009860 0.000000 0.000000 0.000000
# 4 0.000000 0.000000 0.000000 0.033309 0.000000 0.000000
# 5 0.000000 0.000000 0.000000 0.000000 0.051440 0.000000
# 6 0.000000 0.000000 0.000000 0.000000 0.000000 0.040158
#
#
# Mechanical properties :
#
#
# Convention : Reuss Voigt Hill
#
# Bulk Modulus (GPa) = 52.78831 70.72715 61.75773
# Shear Modulus (GPa) = 25.32798 28.25745 26.79272
#
# Velocity S-wave (km/s) = 3.61352 3.81678 3.71654
# Velocity P-wave (km/s) = 6.68015 7.47571 7.08910
#
# Compressibility (1/GPa) = 0.01894359
#
# Stress axis : x y z
#
# Youngs Moduli (GPa) = 43.40163 103.45606 101.42256
#
# Poissons Ratio (x) = 0.31764 0.52059
# Poissons Ratio (y) = 0.13325 0.36596
# Poissons Ratio (z) = 0.22277 0.37329
#
# Static dielectric constant tensor:
#      x y z
#    x 3.157670 0.000000 0.000000 
#    y 0.000000 3.658410 0.000000 
#    z 0.000000 0.000000 3.734600 
# 
# 
# High freq. dielectric constant tensor:
#      x y z
#    x 1.718620 0.000000 0.000000 
#    y 0.000000 1.767330 0.000000 
#    z 0.000000 0.000000 1.771720 
# 
# From -- ./inp_files/46175.got.cif
#   From: 2010.06.25/outbox.cif.g09.slc.cpg/sg71_24_cif.got.tgz:46175.got - 2010.06.28 04:59:45.
