data_PCOD8291257
_publ_section_title
;
Structure prediction by ZEFSAII (Michael W. Deem and Ramdas Pophale) SiO2 
 PCOD8291257
Probable space group: I M M M
;
_chemical_formula_sum "Si O2"
_cell_formula_units_Z 88
_cell_length_a 25.782293
_cell_length_b 9.805657
_cell_length_c 17.650723
_cell_angle_alpha 90.000000
_cell_angle_beta 90.000000
_cell_angle_gamma 90.000000
_cell_volume 4462.320264
_symmetry_space_group_name_H-M "I M M M"
_symmetry_group_IT_number 71
_symmetry_cell_setting 'orthorhombic'
loop_
_space_group_symop_operation_xyz
x,y,z
-x,-y,z
x,-y,-z
-x,y,-z
-x,-y,-z
x,y,-z
-x,y,z
x,-y,z
1/2+x,1/2+y,1/2+z
1/2-x,1/2-y,1/2+z
1/2+x,1/2-y,1/2-z
1/2-x,1/2+y,1/2-z
1/2-x,1/2-y,1/2-z
1/2+x,1/2+y,1/2-z
1/2-x,1/2+y,1/2+z
1/2+x,1/2-y,1/2+z
loop_
_atom_site_type_symbol
_atom_site_label
_atom_site_fract_x
_atom_site_fract_y
_atom_site_fract_z
Si Si1 0.594297 0.215009 0.795232
Si Si2 0.938862 0.500000 0.586084
Si Si3 0.662062 0.000000 0.409956
Si Si4 0.626191 0.500000 0.586293
Si Si5 0.939736 0.000000 0.238094
Si Si6 0.712169 0.155405 0.796087
Si Si7 0.210826 0.226536 0.913651
Si Si8 0.059039 0.500000 0.177255
O O1 0.575378 0.370329 0.789851
O O2 0.655938 0.219645 0.789587
O O3 0.580689 0.138770 0.873767
O O4 0.567150 0.134357 0.727218
O O5 0.917955 0.500000 0.500000
O O6 0.000000 0.500000 0.588733
O O7 0.692575 0.869589 0.375758
O O8 0.663716 0.000000 0.500000
O O9 0.601116 0.000000 0.389516
O O10 0.602031 0.500000 0.500000
O O11 0.584255 0.500000 0.653371
O O12 0.661499 0.368813 0.597592
O O13 0.000000 0.000000 0.222673
O O14 0.750000 0.250000 0.750000
O O15 0.736469 0.162956 0.880144
O O16 0.710315 0.000000 0.767278
O O17 0.224767 0.250588 0.000000
O O18 0.000000 0.500000 0.144863
#
# Coordination Sequence:
#
# PCOD8291257 Si02
#       8
#    16   8   8   8   8  16  16   8
#     4  11  24  40  60  93 122 158 201 256 310 366
#     4  10  21  43  71  93 116 153 202 256 320 390
#     4  10  21  37  56  85 122 159 202 249 295 349
#     4  10  20  37  59  89 125 169 218 252 289 351
#     4  12  24  40  63  90 128 168 205 257 314 364
#     4  12  24  38  61  91 122 160 200 252 297 364
#     4  10  22  38  59  85 120 163 199 241 300 361
#     4  11  20  37  61  83 118 160 206 253 299 356
#
# _framework density 19.720682
#
# number of rings (size 3 to 8) (size 9 to 14) (size 15 to 20)
#    0.000    1.182    2.727    5.455    2.545    1.091 
#    0.000    0.455    0.000    7.091    0.000    0.000 
#    0.000    0.000    0.000    0.000    0.000    0.000 
#
# Total GULP energy -545496.569641 kJ/mol
# GULP energy per Si atom -12397.649310 kJ/mol
# Density = 1.967580 g / cm^3
# Si number density = 19.720682 Si / 1000 Ang^3
#
#
#
# Elastic Constant Matrix: (Units=GPa)
#
#
# Indices 1 2 3 4 5 6 
#
# 1 115.8741 32.1590 22.3025 0.0000 0.0000 0.0000
# 2 32.1590 152.9778 37.5187 0.0000 0.0000 0.0000
# 3 22.3025 37.5187 68.5763 0.0000 0.0000 0.0000
# 4 0.0000 0.0000 0.0000 5.9614 0.0000 0.0000
# 5 0.0000 0.0000 0.0000 0.0000 33.4148 0.0000
# 6 0.0000 0.0000 0.0000 0.0000 0.0000 30.1837
#
#
#
# Elastic Compliance Matrix: (Units=1/GPa)
#
#
# Indices 1 2 3 4 5 6 
#
# 1 0.009468 -0.001427 -0.002299 0.000000 0.000000 0.000000
# 2 -0.001427 0.007765 -0.003784 0.000000 0.000000 0.000000
# 3 -0.002299 -0.003784 0.017400 0.000000 0.000000 0.000000
# 4 0.000000 0.000000 0.000000 0.167745 0.000000 0.000000
# 5 0.000000 0.000000 0.000000 0.000000 0.029927 0.000000
# 6 0.000000 0.000000 0.000000 0.000000 0.000000 0.033130
#
#
# Mechanical properties :
#
#
# Convention : Reuss Voigt Hill
#
# Bulk Modulus (GPa) = 50.98342 57.93206 54.45774
# Shear Modulus (GPa) = 17.42201 30.27521 23.84861
#
# Velocity S-wave (km/s) = 2.97549 3.92241 3.48130
# Velocity P-wave (km/s) = 6.14114 7.06780 6.62071
#
# Compressibility (1/GPa) = 0.01961422
#
# Stress axis : x y z
#
# Youngs Moduli (GPa) = 105.61383 128.78430 57.47016
#
# Poissons Ratio (x) = 0.18373 0.13211
# Poissons Ratio (y) = 0.15067 0.21748
# Poissons Ratio (z) = 0.24279 0.48736
#
# Static dielectric constant tensor:
#      x y z
#    x 3.623190 0.000000 0.000000 
#    y 0.000000 3.965440 0.000000 
#    z 0.000000 0.000000 3.973110 
# 
# 
# High freq. dielectric constant tensor:
#      x y z
#    x 1.769850 0.000000 0.000000 
#    y 0.000000 1.783080 0.000000 
#    z 0.000000 0.000000 1.766570 
# 
# From -- ./inp_files/55641.got.cif
#   From: 2010.06.25/outbox.cif.g09.slc.cpg/sg71_28_cif.got.tgz:55641.got - 2010.06.28 04:59:45.
