data_PCOD8291342
_publ_section_title
;
Structure prediction by ZEFSAII (Michael W. Deem and Ramdas Pophale) SiO2 
 PCOD8291342
Probable space group: I M M M
;
_chemical_formula_sum "Si O2"
_cell_formula_units_Z 104
_cell_length_a 21.885676
_cell_length_b 8.770050
_cell_length_c 26.975721
_cell_angle_alpha 90.000000
_cell_angle_beta 90.000000
_cell_angle_gamma 90.000000
_cell_volume 5177.678692
_symmetry_space_group_name_H-M "I M M M"
_symmetry_group_IT_number 71
_symmetry_cell_setting 'orthorhombic'
loop_
_space_group_symop_operation_xyz
x,y,z
-x,-y,z
x,-y,-z
-x,y,-z
-x,-y,-z
x,y,-z
-x,y,z
x,-y,z
1/2+x,1/2+y,1/2+z
1/2-x,1/2-y,1/2+z
1/2+x,1/2-y,1/2-z
1/2-x,1/2+y,1/2-z
1/2-x,1/2-y,1/2-z
1/2+x,1/2+y,1/2-z
1/2-x,1/2+y,1/2+z
1/2+x,1/2-y,1/2+z
loop_
_atom_site_type_symbol
_atom_site_label
_atom_site_fract_x
_atom_site_fract_y
_atom_site_fract_z
Si Si1 0.929635 0.819153 0.500000
Si Si2 0.380610 0.325697 0.638870
Si Si3 0.500000 0.321941 0.792258
Si Si4 0.801876 0.674154 0.943482
Si Si5 0.500000 0.820268 0.317178
Si Si6 0.116290 0.678661 0.322729
Si Si7 0.834458 0.180089 0.417202
Si Si8 0.686283 0.323920 0.261567
O O1 0.890580 0.763937 0.547823
O O2 0.000000 0.753984 0.500000
O O3 0.932443 0.000000 0.500000
O O4 0.401576 0.500000 0.633428
O O5 0.348880 0.273021 0.588339
O O6 0.440492 0.229427 0.652027
O O7 0.328929 0.308138 0.680814
O O8 0.500000 0.500000 0.782422
O O9 0.500000 0.246461 0.738151
O O10 0.554203 0.271375 0.828281
O O11 0.807371 0.500000 0.925635
O O12 0.731127 0.726570 0.939641
O O13 0.822727 0.693679 0.000000
O O14 0.500000 0.000000 0.311996
O O15 0.105139 0.500000 0.325961
O O16 0.162531 0.732734 0.365068
O O17 0.138354 0.723159 0.268171
O O18 0.838714 0.000000 0.408877
O O19 0.684573 0.500000 0.244264
O O20 0.750000 0.250000 0.250000
#
# Coordination Sequence:
#
# PCOD8291342 Si02
#       8
#     8  16   8  16   8  16  16  16
#     4   9  18  34  59  91 121 162 218 267 316 380
#     4  11  24  41  64  93 127 167 212 262 322 389
#     4  12  24  42  64  88 122 166 212 256 308 373
#     4  10  21  40  65  93 126 165 217 273 326 383
#     4  12  24  42  69  97 127 167 208 255 323 394
#     4  12  25  39  58  89 126 162 204 251 307 370
#     4  10  20  38  63  91 125 167 216 268 321 376
#     4  11  23  39  60  88 125 164 206 254 309 369
#
# _framework density 20.086220000000001
#
# number of rings (size 3 to 8) (size 9 to 14) (size 15 to 20)
#    0.000    1.154    2.308    4.615    1.077    5.231 
#    0.000    0.769    0.000    2.769    0.000    0.000 
#    0.000    0.000    0.000    0.000    0.000    0.000 
#
# Total GULP energy -644827.574656 kJ/mol
# GULP energy per Si atom -12400.530282 kJ/mol
# Density = 2.004050 g / cm^3
# Si number density = 20.086220 Si / 1000 Ang^3
#
#
#
# Elastic Constant Matrix: (Units=GPa)
#
#
# Indices 1 2 3 4 5 6 
#
# 1 95.0377 48.5818 22.5641 0.0000 0.0000 0.0000
# 2 48.5818 120.3375 41.4788 0.0000 0.0000 0.0000
# 3 22.5641 41.4788 91.4326 0.0000 0.0000 0.0000
# 4 0.0000 0.0000 0.0000 29.3991 0.0000 0.0000
# 5 0.0000 0.0000 0.0000 0.0000 -235.2196 0.0000
# 6 0.0000 0.0000 0.0000 0.0000 0.0000 30.9412
#
#
#
# Elastic Compliance Matrix: (Units=1/GPa)
#
#
# Indices 1 2 3 4 5 6 
#
# 1 0.013336 -0.005037 -0.001006 0.000000 0.000000 0.000000
# 2 -0.005037 0.011753 -0.004089 0.000000 0.000000 0.000000
# 3 -0.001006 -0.004089 0.013040 0.000000 0.000000 0.000000
# 4 0.000000 0.000000 0.000000 0.034015 0.000000 0.000000
# 5 0.000000 0.000000 0.000000 0.000000 -0.004251 0.000000
# 6 0.000000 0.000000 0.000000 0.000000 0.000000 0.032319
#
#
# Mechanical properties :
#
#
# Convention : Reuss Voigt Hill
#
# Bulk Modulus (GPa) = 55.97428 59.11746 57.54587
# Shear Modulus (GPa) = 39.54758 -22.03032 8.75863
#
# Velocity S-wave (km/s) = 4.44203 -3.31537 2.09045
# Velocity P-wave (km/s) = 7.36453 3.85229 5.87693
#
# Compressibility (1/GPa) = 0.01786535
#
# Stress axis : x y z
#
# Youngs Moduli (GPa) = 74.98565 85.08603 76.68650
#
# Poissons Ratio (x) = 0.42859 0.07714
# Poissons Ratio (y) = 0.37771 0.31354
# Poissons Ratio (z) = 0.07543 0.34789
#
# Static dielectric constant tensor:
#      x y z
#    x 2.825550 0.000000 0.000000 
#    y 0.000000 3.574020 0.000000 
#    z 0.000000 0.000000 3.662240 
# 
# 
# High freq. dielectric constant tensor:
#      x y z
#    x 1.793240 0.000000 0.000000 
#    y 0.000000 1.778110 0.000000 
#    z 0.000000 0.000000 1.783260 
# 
# From -- ./inp_files/66483.got.cif
#   From: 2010.06.25/outbox.cif.g09.slc.cpg/sg71_34_cif.got.tgz:66483.got - 2010.06.28 04:59:45.
