data_PCOD8291978
_publ_section_title
;
Structure prediction by ZEFSAII (Michael W. Deem and Ramdas Pophale) SiO2 
 PCOD8291978
Probable space group: I M M M
;
_chemical_formula_sum "Si O2"
_cell_formula_units_Z 104
_cell_length_a 20.174836
_cell_length_b 28.878233
_cell_length_c 8.784419
_cell_angle_alpha 90.000000
_cell_angle_beta 90.000000
_cell_angle_gamma 90.000000
_cell_volume 5117.922107
_symmetry_space_group_name_H-M "I M M M"
_symmetry_group_IT_number 71
_symmetry_cell_setting 'orthorhombic'
loop_
_space_group_symop_operation_xyz
x,y,z
-x,-y,z
x,-y,-z
-x,y,-z
-x,-y,-z
x,y,-z
-x,y,z
x,-y,z
1/2+x,1/2+y,1/2+z
1/2-x,1/2-y,1/2+z
1/2+x,1/2-y,1/2-z
1/2-x,1/2+y,1/2-z
1/2-x,1/2-y,1/2-z
1/2+x,1/2+y,1/2-z
1/2-x,1/2+y,1/2+z
1/2+x,1/2-y,1/2+z
loop_
_atom_site_type_symbol
_atom_site_label
_atom_site_fract_x
_atom_site_fract_y
_atom_site_fract_z
Si Si1 0.174434 0.803225 0.322491
Si Si2 0.674735 0.207020 0.323371
Si Si3 0.614762 0.947943 0.675897
Si Si4 0.878654 0.107963 0.822847
Si Si5 0.425518 0.859409 0.172893
Si Si6 0.000000 0.053257 0.319663
Si Si7 0.731364 0.552933 0.828466
O O1 0.161084 0.809419 0.500000
O O2 0.251794 0.811003 0.280403
O O3 0.153888 0.751678 0.273677
O O4 0.127489 0.839297 0.234624
O O5 0.671724 0.220305 0.500000
O O6 0.623124 0.166760 0.287268
O O7 0.600503 0.936587 0.500000
O O8 0.574029 0.913454 0.782570
O O9 0.692118 0.942222 0.712507
O O10 0.591631 0.000000 0.713863
O O11 0.935550 0.080122 0.736898
O O12 0.808916 0.083087 0.791727
O O13 0.895269 0.108179 0.000000
O O14 0.500000 0.840083 0.190808
O O15 0.400788 0.853308 0.000000
O O16 0.000000 0.053603 0.500000
O O17 0.000000 0.000000 0.259620
O O18 0.707937 0.500000 0.816846
O O19 0.717912 0.571449 0.000000
#
# Coordination Sequence:
#
# PCOD8291978 Si02
#       7
#    16  16  16  16  16   8  16
#     4  10  21  39  64  91 120 151 187 236 296 355
#     4  10  21  39  64  92 118 149 193 244 293 345
#     4   9  19  36  58  84 113 148 194 245 290 336
#     4  12  24  37  57  88 121 153 194 243 293 351
#     4  11  24  39  55  80 116 157 196 233 284 347
#     4  11  25  45  65  83 113 161 209 251 302 363
#     4   9  18  34  56  82 113 149 190 236 289 347
#
# _framework density 20.320747999999998
#
# number of rings (size 3 to 8) (size 9 to 14) (size 15 to 20)
#    0.000    1.769    0.000    5.308    0.000   10.769 
#    1.385    3.077    0.000    0.000    0.000    0.000 
#    0.000    0.000    0.000    0.000    0.000    0.000 
#
# Total GULP energy -645006.209824 kJ/mol
# GULP energy per Si atom -12403.965574 kJ/mol
# Density = 2.027450 g / cm^3
# Si number density = 20.320748 Si / 1000 Ang^3
#
#
#
# Elastic Constant Matrix: (Units=GPa)
#
#
# Indices 1 2 3 4 5 6 
#
# 1 60.8267 39.9975 27.4430 0.0000 0.0000 0.0000
# 2 39.9975 104.6393 34.9463 0.0000 0.0000 0.0000
# 3 27.4430 34.9463 77.0670 0.0000 0.0000 0.0000
# 4 0.0000 0.0000 0.0000 37.1143 0.0000 0.0000
# 5 0.0000 0.0000 0.0000 0.0000 26.8831 0.0000
# 6 0.0000 0.0000 0.0000 0.0000 0.0000 24.8109
#
#
#
# Elastic Compliance Matrix: (Units=1/GPa)
#
#
# Indices 1 2 3 4 5 6 
#
# 1 0.023527 -0.007301 -0.005067 0.000000 0.000000 0.000000
# 2 -0.007301 0.013528 -0.003534 0.000000 0.000000 0.000000
# 3 -0.005067 -0.003534 0.016383 0.000000 0.000000 0.000000
# 4 0.000000 0.000000 0.000000 0.026944 0.000000 0.000000
# 5 0.000000 0.000000 0.000000 0.000000 0.037198 0.000000
# 6 0.000000 0.000000 0.000000 0.000000 0.000000 0.040305
#
#
# Mechanical properties :
#
#
# Convention : Reuss Voigt Hill
#
# Bulk Modulus (GPa) = 46.22631 49.70074 47.96353
# Shear Modulus (GPa) = 25.39361 27.10474 26.24918
#
# Velocity S-wave (km/s) = 3.53886 3.65615 3.59798
# Velocity P-wave (km/s) = 6.28456 6.50649 6.39649
#
# Compressibility (1/GPa) = 0.02163270
#
# Stress axis : x y z
#
# Youngs Moduli (GPa) = 42.50430 73.92263 61.03946
#
# Poissons Ratio (x) = 0.53969 0.30930
# Poissons Ratio (y) = 0.31031 0.21574
# Poissons Ratio (z) = 0.21538 0.26127
#
# Static dielectric constant tensor:
#      x y z
#    x 3.575930 0.000000 0.000000 
#    y 0.000000 3.763300 0.000000 
#    z 0.000000 0.000000 3.591070 
# 
# 
# High freq. dielectric constant tensor:
#      x y z
#    x 1.784520 0.000000 0.000000 
#    y 0.000000 1.802680 0.000000 
#    z 0.000000 0.000000 1.792430 
# 
# From -- ./inp_files/11163.got.cif
#   From: 2010.06.25/outbox.cif.g09.slc.cpg/sg71_6_cif.got.tgz:11163.got - 2010.06.28 04:59:45.
