data_PCOD8291931
_publ_section_title
;
Structure prediction by ZEFSAII (Michael W. Deem and Ramdas Pophale) SiO2 
 PCOD8291931
Probable space group: I M M M
;
_chemical_formula_sum "Si O2"
_cell_formula_units_Z 88
_cell_length_a 12.276224
_cell_length_b 14.668532
_cell_length_c 25.116898
_cell_angle_alpha 90.000000
_cell_angle_beta 90.000000
_cell_angle_gamma 90.000000
_cell_volume 4522.904927
_symmetry_space_group_name_H-M "I M M M"
_symmetry_group_IT_number 71
_symmetry_cell_setting 'orthorhombic'
loop_
_space_group_symop_operation_xyz
x,y,z
-x,-y,z
x,-y,-z
-x,y,-z
-x,-y,-z
x,y,-z
-x,y,z
x,-y,z
1/2+x,1/2+y,1/2+z
1/2-x,1/2-y,1/2+z
1/2+x,1/2-y,1/2-z
1/2-x,1/2+y,1/2-z
1/2-x,1/2-y,1/2-z
1/2+x,1/2+y,1/2-z
1/2-x,1/2+y,1/2+z
1/2+x,1/2-y,1/2+z
loop_
_atom_site_type_symbol
_atom_site_label
_atom_site_fract_x
_atom_site_fract_y
_atom_site_fract_z
Si Si1 0.341912 0.239346 0.560229
Si Si2 0.120147 0.896906 0.865051
Si Si3 0.875205 0.192392 0.397434
Si Si4 0.625635 0.500000 0.059345
Si Si5 0.000000 0.606216 0.242059
Si Si6 0.000000 0.610235 0.879971
Si Si7 0.803439 0.300625 0.701925
O O1 0.380489 0.228994 0.500000
O O2 0.385086 0.335119 0.582234
O O3 0.210106 0.242978 0.563921
O O4 0.392160 0.154043 0.593251
O O5 0.211455 0.861893 0.825018
O O6 0.000000 0.892781 0.837727
O O7 0.148594 0.000000 0.882093
O O8 0.845098 0.086118 0.403990
O O9 0.854980 0.225040 0.337271
O O10 0.000000 0.213420 0.414677
O O11 0.500000 0.500000 0.046208
O O12 0.683748 0.500000 0.000000
O O13 0.000000 0.643997 0.181535
O O14 0.104345 0.634450 0.275577
O O15 0.000000 0.500000 0.236562
O O16 0.000000 0.500000 0.886965
O O17 0.750000 0.250000 0.750000
#
# Coordination Sequence:
#
# PCOD8291931 Si02
#       7
#    16  16  16   8   8   8  16
#     4  11  23  39  63  90 122 162 206 257 313 371
#     4  10  22  41  63  90 125 161 206 256 306 368
#     4  10  21  39  60  87 122 158 201 250 310 369
#     4   9  18  34  58  87 123 157 195 244 303 374
#     4  11  22  41  66  89 117 166 215 254 314 370
#     4  11  25  42  60  88 128 166 212 260 304 377
#     4  11  23  39  64  90 125 162 207 258 310 366
#
# _framework density 19.456522
#
# number of rings (size 3 to 8) (size 9 to 14) (size 15 to 20)
#    0.000    1.545    1.818    3.545    2.545    2.182 
#    3.273    0.909    0.000    0.000    0.000    2.545 
#    0.000    0.000    0.000    0.000    0.000    0.000 
#
# Total GULP energy -545363.858067 kJ/mol
# GULP energy per Si atom -12394.633138 kJ/mol
# Density = 1.941224 g / cm^3
# Si number density = 19.456522 Si / 1000 Ang^3
#
#
#
# Elastic Constant Matrix: (Units=GPa)
#
#
# Indices 1 2 3 4 5 6 
#
# 1 137.5037 45.0681 48.5892 0.0000 0.0000 0.0000
# 2 45.0681 128.0277 58.8214 0.0000 0.0000 0.0000
# 3 48.5892 58.8214 138.9009 0.0000 0.0000 0.0000
# 4 0.0000 0.0000 0.0000 6.5051 0.0000 0.0000
# 5 0.0000 0.0000 0.0000 0.0000 21.8471 0.0000
# 6 0.0000 0.0000 0.0000 0.0000 0.0000 26.2379
#
#
#
# Elastic Compliance Matrix: (Units=1/GPa)
#
#
# Indices 1 2 3 4 5 6 
#
# 1 0.008719 -0.002071 -0.002173 0.000000 0.000000 0.000000
# 2 -0.002071 0.010189 -0.003591 0.000000 0.000000 0.000000
# 3 -0.002173 -0.003591 0.009480 0.000000 0.000000 0.000000
# 4 0.000000 0.000000 0.000000 0.153725 0.000000 0.000000
# 5 0.000000 0.000000 0.000000 0.000000 0.045773 0.000000
# 6 0.000000 0.000000 0.000000 0.000000 0.000000 0.038113
#
#
# Mechanical properties :
#
#
# Convention : Reuss Voigt Hill
#
# Bulk Modulus (GPa) = 78.61895 78.82107 78.72001
# Shear Modulus (GPa) = 17.48813 27.71493 22.60153
#
# Velocity S-wave (km/s) = 3.00130 3.77829 3.41199
# Velocity P-wave (km/s) = 7.24608 7.72226 7.48796
#
# Compressibility (1/GPa) = 0.01271958
#
# Stress axis : x y z
#
# Youngs Moduli (GPa) = 114.68959 98.14048 105.48428
#
# Poissons Ratio (x) = 0.20324 0.22923
# Poissons Ratio (y) = 0.23751 0.37875
# Poissons Ratio (z) = 0.24923 0.35238
#
# Static dielectric constant tensor:
#      x y z
#    x 3.765620 0.000000 0.000000 
#    y 0.000000 2.947370 0.000000 
#    z 0.000000 0.000000 2.754610 
# 
# 
# High freq. dielectric constant tensor:
#      x y z
#    x 1.777520 0.000000 0.000000 
#    y 0.000000 1.756340 0.000000 
#    z 0.000000 0.000000 1.750650 
# 
# From -- ./inp_files/64491.got.cif
#   From: 2010.06.25/outbox.cif.g09.slc.cpg/sg71_33_cif.got.tgz:64491.got - 2010.06.28 04:59:45.
