data_PCOD8291545
_publ_section_title
;
Structure prediction by ZEFSAII (Michael W. Deem and Ramdas Pophale) SiO2 
 PCOD8291545
Probable space group: I M M M
;
_chemical_formula_sum "Si O2"
_cell_formula_units_Z 104
_cell_length_a 27.701915
_cell_length_b 8.972547
_cell_length_c 21.411083
_cell_angle_alpha 90.000000
_cell_angle_beta 90.000000
_cell_angle_gamma 90.000000
_cell_volume 5321.868869
_symmetry_space_group_name_H-M "I M M M"
_symmetry_group_IT_number 71
_symmetry_cell_setting 'orthorhombic'
loop_
_space_group_symop_operation_xyz
x,y,z
-x,-y,z
x,-y,-z
-x,y,-z
-x,-y,-z
x,y,-z
-x,y,z
x,-y,z
1/2+x,1/2+y,1/2+z
1/2-x,1/2-y,1/2+z
1/2+x,1/2-y,1/2-z
1/2-x,1/2+y,1/2-z
1/2-x,1/2-y,1/2-z
1/2+x,1/2+y,1/2-z
1/2-x,1/2+y,1/2+z
1/2+x,1/2-y,1/2+z
loop_
_atom_site_type_symbol
_atom_site_label
_atom_site_fract_x
_atom_site_fract_y
_atom_site_fract_z
Si Si1 0.132255 0.323155 0.099190
Si Si2 0.628561 0.174622 0.740538
Si Si3 0.283634 0.322171 0.802321
Si Si4 0.057391 0.334206 0.431793
Si Si5 0.556928 0.334265 0.814040
Si Si6 0.555282 0.822334 0.500000
Si Si7 0.237878 0.676647 0.931749
O O1 0.130468 0.500000 0.097553
O O2 0.131834 0.265852 0.170145
O O3 0.085545 0.264164 0.060535
O O4 0.182586 0.264784 0.070570
O O5 0.662814 0.266105 0.787581
O O6 0.574869 0.215841 0.762801
O O7 0.639806 0.000000 0.745029
O O8 0.279645 0.500000 0.797887
O O9 0.250000 0.250000 0.750000
O O10 0.268402 0.264572 0.871973
O O11 0.077104 0.287144 0.500000
O O12 0.076040 0.500000 0.414386
O O13 0.076762 0.215637 0.381913
O O14 0.000000 0.335229 0.432584
O O15 0.500000 0.329624 0.811861
O O16 0.576587 0.500000 0.800654
O O17 0.500000 0.758508 0.500000
O O18 0.552793 0.000000 0.500000
O O19 0.237391 0.500000 0.927759
O O20 0.259118 0.727731 0.000000
#
# Coordination Sequence:
#
# PCOD8291545 Si02
#       7
#    16  16  16  16  16   8  16
#     4   9  16  28  48  75 106 141 184 227 278 341
#     4  11  22  36  55  81 112 149 190 235 288 342
#     4  11  21  35  57  85 113 145 187 236 293 353
#     4   8  14  27  49  75 100 129 169 217 269 322
#     4  10  21  36  53  76 108 147 189 232 279 333
#     4   9  16  26  44  76 117 149 179 235 296 339
#     4   9  16  30  54  81 109 143 185 235 286 341
#
# _framework density 19.542007000000002
#
# number of rings (size 3 to 8) (size 9 to 14) (size 15 to 20)
#    0.000    2.385    2.308    1.846    0.000    1.846 
#    0.000    3.846    0.000    4.615    0.000    1.615 
#    0.000    3.692    0.000    0.000    0.000    0.000 
#
# Total GULP energy -644327.527283 kJ/mol
# GULP energy per Si atom -12390.913986 kJ/mol
# Density = 1.949753 g / cm^3
# Si number density = 19.542007 Si / 1000 Ang^3
#
#
#
# Elastic Constant Matrix: (Units=GPa)
#
#
# Indices 1 2 3 4 5 6 
#
# 1 69.5683 22.6890 57.7916 0.0000 0.0000 0.0000
# 2 22.6890 47.8685 35.9457 0.0000 0.0000 0.0000
# 3 57.7916 35.9457 173.3172 0.0000 0.0000 0.0000
# 4 0.0000 0.0000 0.0000 22.7068 0.0000 0.0000
# 5 0.0000 0.0000 0.0000 0.0000 34.6536 0.0000
# 6 0.0000 0.0000 0.0000 0.0000 0.0000 24.1784
#
#
#
# Elastic Compliance Matrix: (Units=1/GPa)
#
#
# Indices 1 2 3 4 5 6 
#
# 1 0.021069 -0.005580 -0.005868 0.000000 0.000000 0.000000
# 2 -0.005580 0.026222 -0.003578 0.000000 0.000000 0.000000
# 3 -0.005868 -0.003578 0.008468 0.000000 0.000000 0.000000
# 4 0.000000 0.000000 0.000000 0.044040 0.000000 0.000000
# 5 0.000000 0.000000 0.000000 0.000000 0.028857 0.000000
# 6 0.000000 0.000000 0.000000 0.000000 0.000000 0.041359
#
#
# Mechanical properties :
#
#
# Convention : Reuss Voigt Hill
#
# Bulk Modulus (GPa) = 38.89857 58.17849 48.53853
# Shear Modulus (GPa) = 23.96519 27.92962 25.94741
#
# Velocity S-wave (km/s) = 3.50572 3.78459 3.64782
# Velocity P-wave (km/s) = 6.02786 6.99522 6.52948
#
# Compressibility (1/GPa) = 0.02570788
#
# Stress axis : x y z
#
# Youngs Moduli (GPa) = 47.46348 38.13586 118.08526
#
# Poissons Ratio (x) = 0.21279 0.69293
# Poissons Ratio (y) = 0.26484 0.42249
# Poissons Ratio (z) = 0.27852 0.13644
#
# Static dielectric constant tensor:
#      x y z
#    x 3.576470 0.000000 0.000000 
#    y 0.000000 3.277270 0.000000 
#    z 0.000000 0.000000 4.027900 
# 
# 
# High freq. dielectric constant tensor:
#      x y z
#    x 1.745100 0.000000 0.000000 
#    y 0.000000 1.719040 0.000000 
#    z 0.000000 0.000000 1.777330 
# 
# From -- ./inp_files/56723.got.cif
#   From: 2010.06.25/outbox.cif.g09.slc.cpg/sg71_29_cif.got.tgz:56723.got - 2010.06.28 04:59:45.
