data_PCOD8291238
_publ_section_title
;
Structure prediction by ZEFSAII (Michael W. Deem and Ramdas Pophale) SiO2 
 PCOD8291238
Probable space group: I M M M
;
_chemical_formula_sum "Si O2"
_cell_formula_units_Z 104
_cell_length_a 19.703907
_cell_length_b 17.591528
_cell_length_c 16.638965
_cell_angle_alpha 90.000000
_cell_angle_beta 90.000000
_cell_angle_gamma 90.000000
_cell_volume 5767.428526
_symmetry_space_group_name_H-M "I M M M"
_symmetry_group_IT_number 71
_symmetry_cell_setting 'orthorhombic'
loop_
_space_group_symop_operation_xyz
x,y,z
-x,-y,z
x,-y,-z
-x,y,-z
-x,-y,-z
x,y,-z
-x,y,z
x,-y,z
1/2+x,1/2+y,1/2+z
1/2-x,1/2-y,1/2+z
1/2+x,1/2-y,1/2-z
1/2-x,1/2+y,1/2-z
1/2-x,1/2-y,1/2-z
1/2+x,1/2+y,1/2-z
1/2-x,1/2+y,1/2+z
1/2+x,1/2-y,1/2+z
loop_
_atom_site_type_symbol
_atom_site_label
_atom_site_fract_x
_atom_site_fract_y
_atom_site_fract_z
Si Si1 0.812502 0.088663 0.315583
Si Si2 0.420538 0.671656 0.094554
Si Si3 0.921033 0.588863 0.193919
Si Si4 0.632063 0.170239 0.851326
Si Si5 0.421284 0.081574 0.000000
Si Si6 0.721770 0.694983 0.682801
Si Si7 0.685929 0.164312 0.405829
O O1 0.880511 0.099679 0.368861
O O2 0.820340 0.127769 0.226884
O O3 0.749127 0.124712 0.362199
O O4 0.799848 0.000000 0.302194
O O5 0.500000 0.660942 0.110805
O O6 0.391107 0.742668 0.143916
O O7 0.405550 0.680976 0.000000
O O8 0.907795 0.500000 0.208797
O O9 0.890552 0.636316 0.266986
O O10 0.882377 0.617664 0.114360
O O11 0.000000 0.606375 0.182894
O O12 0.595462 0.126369 0.920995
O O13 0.712794 0.160949 0.863408
O O14 0.500000 0.067730 0.000000
O O15 0.383675 0.000000 0.000000
O O16 0.750000 0.750000 0.750000
O O17 0.677666 0.746977 0.621801
O O18 0.698919 0.161508 0.500000
#
# Coordination Sequence:
#
# PCOD8291238 Si02
#       7
#    16  16  16  16   8  16  16
#     4  11  22  38  59  81 111 150 190 233 285 341
#     4  11  22  35  55  84 115 149 188 230 279 335
#     4  11  23  37  55  82 116 151 187 232 284 337
#     4  12  20  36  58  80 113 154 194 233 278 334
#     4  11  24  36  52  84 121 157 192 229 281 349
#     4  10  20  37  58  81 106 137 192 240 272 322
#     4  11  22  38  60  82 109 148 194 237 281 336
#
# _framework density 18.032299999999999
#
# number of rings (size 3 to 8) (size 9 to 14) (size 15 to 20)
#    0.000    1.000    6.923    2.769    1.077    4.615 
#    0.000    1.538    0.000    0.000    0.000    0.000 
#    0.000    0.000    0.000    6.000    0.000    0.000 
#
# Total GULP energy -644737.415212 kJ/mol
# GULP energy per Si atom -12398.796446 kJ/mol
# Density = 1.799126 g / cm^3
# Si number density = 18.032300 Si / 1000 Ang^3
#
#
#
# Elastic Constant Matrix: (Units=GPa)
#
#
# Indices 1 2 3 4 5 6 
#
# 1 89.8756 28.8612 19.1116 0.0000 0.0000 0.0000
# 2 28.8612 100.8791 42.5365 0.0000 0.0000 0.0000
# 3 19.1116 42.5365 57.3833 0.0000 0.0000 0.0000
# 4 0.0000 0.0000 0.0000 -1.9955 0.0000 0.0000
# 5 0.0000 0.0000 0.0000 0.0000 33.2037 0.0000
# 6 0.0000 0.0000 0.0000 0.0000 0.0000 26.0696
#
#
#
# Elastic Compliance Matrix: (Units=1/GPa)
#
#
# Indices 1 2 3 4 5 6 
#
# 1 0.012438 -0.002636 -0.002189 0.000000 0.000000 0.000000
# 2 -0.002636 0.014978 -0.010225 0.000000 0.000000 0.000000
# 3 -0.002189 -0.010225 0.025735 0.000000 0.000000 0.000000
# 4 0.000000 0.000000 0.000000 -0.501138 0.000000 0.000000
# 5 0.000000 0.000000 0.000000 0.000000 0.030117 0.000000
# 6 0.000000 0.000000 0.000000 0.000000 0.000000 0.038359
#
#
# Mechanical properties :
#
#
# Convention : Reuss Voigt Hill
#
# Bulk Modulus (GPa) = 43.37914 47.68408 45.53161
# Shear Modulus (GPa) = -14.63159 21.96415 3.66628
#
# Velocity S-wave (km/s) = -2.85162 3.49384 1.42744
# Velocity P-wave (km/s) = 3.64229 6.54041 5.29355
#
# Compressibility (1/GPa) = 0.02305256
#
# Stress axis : x y z
#
# Youngs Moduli (GPa) = 80.39682 66.76243 38.85701
#
# Poissons Ratio (x) = 0.17596 0.08505
# Poissons Ratio (y) = 0.21189 0.39732
# Poissons Ratio (z) = 0.17598 0.68267
#
# Static dielectric constant tensor:
#      x y z
#    x 4.132010 0.000000 0.000000 
#    y 0.000000 3.403940 0.000000 
#    z 0.000000 0.000000 3.389180 
# 
# 
# High freq. dielectric constant tensor:
#      x y z
#    x 1.690960 0.000000 0.000000 
#    y 0.000000 1.700360 0.000000 
#    z 0.000000 0.000000 1.692170 
# 
# From -- ./inp_files/38073.got.cif
#   From: 2010.06.25/outbox.cif.g09.slc.cpg/sg71_20_cif.got.tgz:38073.got - 2010.06.28 04:59:45.
