data_PCOD8291841
_publ_section_title
;
Structure prediction by ZEFSAII (Michael W. Deem and Ramdas Pophale) SiO2 
 PCOD8291841
Probable space group: I M M M
;
_chemical_formula_sum "Si O2"
_cell_formula_units_Z 80
_cell_length_a 17.363058
_cell_length_b 7.865263
_cell_length_c 29.194194
_cell_angle_alpha 90.000000
_cell_angle_beta 90.000000
_cell_angle_gamma 90.000000
_cell_volume 3986.905619
_symmetry_space_group_name_H-M "I M M M"
_symmetry_group_IT_number 71
_symmetry_cell_setting 'orthorhombic'
loop_
_space_group_symop_operation_xyz
x,y,z
-x,-y,z
x,-y,-z
-x,y,-z
-x,-y,-z
x,y,-z
-x,y,z
x,-y,z
1/2+x,1/2+y,1/2+z
1/2-x,1/2-y,1/2+z
1/2+x,1/2-y,1/2-z
1/2-x,1/2+y,1/2-z
1/2-x,1/2-y,1/2-z
1/2+x,1/2+y,1/2-z
1/2-x,1/2+y,1/2+z
1/2+x,1/2-y,1/2+z
loop_
_atom_site_type_symbol
_atom_site_label
_atom_site_fract_x
_atom_site_fract_y
_atom_site_fract_z
Si Si1 0.585785 0.800380 0.860337
Si Si2 0.318339 0.804032 0.052316
Si Si3 0.832819 0.300068 0.729939
Si Si4 0.410347 0.683762 0.684254
Si Si5 0.795668 0.500000 0.051558
Si Si6 0.091749 0.500000 0.871305
O O1 0.500000 0.720051 0.854348
O O2 0.614873 0.757133 0.911560
O O3 0.646378 0.732453 0.821466
O O4 0.579016 0.000000 0.854130
O O5 0.250093 0.672807 0.062798
O O6 0.290207 0.000000 0.059208
O O7 0.348782 0.778409 0.000000
O O8 0.840380 0.500000 0.731361
O O9 0.750000 0.250000 0.750000
O O10 0.897116 0.218522 0.762367
O O11 0.500000 0.677637 0.674689
O O12 0.373527 0.500000 0.670705
O O13 0.373661 0.834200 0.654187
O O14 0.875858 0.500000 0.078031
O O15 0.822921 0.500000 0.000000
O O16 0.000000 0.500000 0.872269
#
# Coordination Sequence:
#
# PCOD8291841 Si02
#       6
#    16  16  16  16   8   8
#     4   9  19  35  56  82 113 152 195 241 292 343
#     4   9  19  37  61  87 115 151 192 235 290 348
#     4  11  22  35  54  81 115 155 196 241 288 341
#     4  10  21  38  58  81 112 150 191 234 282 342
#     4  10  22  39  61  88 120 149 185 241 291 346
#     4  10  22  39  62  87 113 154 195 235 289 342
#
# _framework density 20.065687
#
# number of rings (size 3 to 8) (size 9 to 14) (size 15 to 20)
#    0.000    2.200    1.000    1.200    2.800    2.200 
#    1.800    2.500    0.000    1.800    0.000    5.600 
#    0.000    0.000    0.000    0.000    0.000    0.000 
#
# Total GULP energy -495656.267940 kJ/mol
# GULP energy per Si atom -12391.406698 kJ/mol
# Density = 2.002002 g / cm^3
# Si number density = 20.065687 Si / 1000 Ang^3
#
#
#
# Elastic Constant Matrix: (Units=GPa)
#
#
# Indices 1 2 3 4 5 6 
#
# 1 52.0565 29.5995 65.5021 0.0000 0.0000 0.0000
# 2 29.5995 124.1046 51.1936 0.0000 0.0000 0.0000
# 3 65.5021 51.1936 147.3310 0.0000 0.0000 0.0000
# 4 0.0000 0.0000 0.0000 14.9687 0.0000 0.0000
# 5 0.0000 0.0000 0.0000 0.0000 37.9908 0.0000
# 6 0.0000 0.0000 0.0000 0.0000 0.0000 16.0491
#
#
#
# Elastic Compliance Matrix: (Units=1/GPa)
#
#
# Indices 1 2 3 4 5 6 
#
# 1 0.044455 -0.002860 -0.018770 0.000000 0.000000 0.000000
# 2 -0.002860 0.009590 -0.002061 0.000000 0.000000 0.000000
# 3 -0.018770 -0.002061 0.015849 0.000000 0.000000 0.000000
# 4 0.000000 0.000000 0.000000 0.066806 0.000000 0.000000
# 5 0.000000 0.000000 0.000000 0.000000 0.026322 0.000000
# 6 0.000000 0.000000 0.000000 0.000000 0.000000 0.062309
#
#
# Mechanical properties :
#
#
# Convention : Reuss Voigt Hill
#
# Bulk Modulus (GPa) = 44.42243 68.45360 56.43801
# Shear Modulus (GPa) = 17.84340 25.61485 21.72913
#
# Velocity S-wave (km/s) = 2.98526 3.57676 3.29431
# Velocity P-wave (km/s) = 5.83686 7.15866 6.53129
#
# Compressibility (1/GPa) = 0.02251115
#
# Stress axis : x y z
#
# Youngs Moduli (GPa) = 22.49491 104.27666 63.09681
#
# Poissons Ratio (x) = 0.29821 1.18435
# Poissons Ratio (y) = 0.06433 0.13003
# Poissons Ratio (z) = 0.42224 0.21489
#
# Static dielectric constant tensor:
#      x y z
#    x 3.428280 0.000000 0.000000 
#    y 0.000000 4.081010 0.000000 
#    z 0.000000 0.000000 3.793110 
# 
# 
# High freq. dielectric constant tensor:
#      x y z
#    x 1.760700 0.000000 0.000000 
#    y 0.000000 1.789470 0.000000 
#    z 0.000000 0.000000 1.786740 
# 
# From -- ./inp_files/48614.got.cif
#   From: 2010.06.25/outbox.cif.g09.slc.cpg/sg71_25_cif.got.tgz:48614.got - 2010.06.28 04:59:45.
