data_PCOD8291415
_publ_section_title
;
Structure prediction by ZEFSAII (Michael W. Deem and Ramdas Pophale) SiO2 
 PCOD8291415
Probable space group: I M M M
;
_chemical_formula_sum "Si O2"
_cell_formula_units_Z 48
_cell_length_a 7.900125
_cell_length_b 27.349255
_cell_length_c 12.930923
_cell_angle_alpha 90.000000
_cell_angle_beta 90.000000
_cell_angle_gamma 90.000000
_cell_volume 2793.887979
_symmetry_space_group_name_H-M "I M M M"
_symmetry_group_IT_number 71
_symmetry_cell_setting 'orthorhombic'
loop_
_space_group_symop_operation_xyz
x,y,z
-x,-y,z
x,-y,-z
-x,y,-z
-x,-y,-z
x,y,-z
-x,y,z
x,-y,z
1/2+x,1/2+y,1/2+z
1/2-x,1/2-y,1/2+z
1/2+x,1/2-y,1/2-z
1/2-x,1/2+y,1/2-z
1/2-x,1/2-y,1/2-z
1/2+x,1/2+y,1/2-z
1/2-x,1/2+y,1/2+z
1/2+x,1/2-y,1/2+z
loop_
_atom_site_type_symbol
_atom_site_label
_atom_site_fract_x
_atom_site_fract_y
_atom_site_fract_z
Si Si1 0.500000 0.710984 0.878337
Si Si2 0.817103 0.858839 0.245401
Si Si3 0.802646 0.555739 0.116845
Si Si4 0.000000 0.675853 0.621477
O O1 0.668460 0.685362 0.829895
O O2 0.500000 0.767605 0.847897
O O3 0.500000 0.703385 0.000000
O O4 0.794973 0.909647 0.304814
O O5 0.666979 0.849721 0.165850
O O6 0.000000 0.861891 0.186420
O O7 0.767099 0.500000 0.150024
O O8 0.000000 0.567926 0.122893
O O9 0.737438 0.564587 0.000000
O O10 0.000000 0.667492 0.500000
#
# Coordination Sequence:
#
# PCOD8291415 Si02
#       4
#     8  16  16   8
#     4   9  20  36  56  84 113 140 176 222 279 334
#     4  10  21  34  57  80 110 142 181 221 269 327
#     4   9  17  31  54  84 116 146 174 212 275 344
#     4  11  22  40  56  73 109 151 190 233 265 303
#
# _framework density 17.18036
#
# number of rings (size 3 to 8) (size 9 to 14) (size 15 to 20)
#    1.000    1.333    1.667    3.000    0.000    1.333 
#    0.000    1.667    0.000    2.000    0.000    2.333 
#    0.000    0.000    0.000    0.000    0.000    0.000 
#
# Total GULP energy -297415.679610 kJ/mol
# GULP energy per Si atom -12392.319984 kJ/mol
# Density = 1.714126 g / cm^3
# Si number density = 17.180360 Si / 1000 Ang^3
#
#
#
# Elastic Constant Matrix: (Units=GPa)
#
#
# Indices 1 2 3 4 5 6 
#
# 1 122.0638 50.7150 51.1203 -0.0001 0.0000 0.0000
# 2 50.7150 100.7733 48.0583 -0.0001 0.0000 0.0000
# 3 51.1203 48.0583 72.7416 -0.0007 0.0001 0.0006
# 4 -0.0001 -0.0001 -0.0007 30.4833 0.0000 0.0001
# 5 0.0000 0.0000 0.0001 0.0000 2.8287 -0.0002
# 6 0.0000 0.0000 0.0006 0.0001 -0.0002 12.0353
#
#
#
# Elastic Compliance Matrix: (Units=1/GPa)
#
#
# Indices 1 2 3 4 5 6 
#
# 1 0.012198 -0.002994 -0.006594 0.000000 0.000000 0.000000
# 2 -0.002994 0.015223 -0.007953 0.000000 0.000000 0.000000
# 3 -0.006594 -0.007953 0.023636 0.000000 -0.000001 -0.000001
# 4 0.000000 0.000000 0.000000 0.032805 0.000000 0.000000
# 5 0.000000 0.000000 -0.000001 0.000000 0.353525 0.000004
# 6 0.000000 0.000000 -0.000001 0.000000 0.000004 0.083089
#
#
# Mechanical properties :
#
#
# Convention : Reuss Voigt Hill
#
# Bulk Modulus (GPa) = 62.60232 66.15176 64.37704
# Shear Modulus (GPa) = 8.91450 18.78180 13.84815
#
# Velocity S-wave (km/s) = 2.28036 3.30996 2.84217
# Velocity P-wave (km/s) = 6.59172 7.29354 6.95149
#
# Compressibility (1/GPa) = 0.01597385
#
# Stress axis : x y z
#
# Youngs Moduli (GPa) = 81.98010 65.69069 42.30826
#
# Poissons Ratio (x) = 0.19668 0.27900
# Poissons Ratio (y) = 0.24545 0.33649
# Poissons Ratio (z) = 0.54061 0.52245
#
# Static dielectric constant tensor:
#      x y z
#    x 3.166680 0.000000 0.000000 
#    y 0.000000 3.240070 0.000000 
#    z 0.000000 0.000000 2.900060 
# 
# 
# High freq. dielectric constant tensor:
#      x y z
#    x 1.663860 0.000000 0.000000 
#    y 0.000000 1.670710 0.000000 
#    z 0.000000 0.000000 1.633890 
# 
# From -- ./inp_files/13874.got.cif
#   From: 2010.06.25/outbox.cif.g09.slc.cpg/sg71_7_cif.got.tgz:13874.got - 2010.06.28 04:59:45.
