data_PCOD8291087
_publ_section_title
;
Structure prediction by ZEFSAII (Michael W. Deem and Ramdas Pophale) SiO2 
 PCOD8291087
Probable space group: I M M M
;
_chemical_formula_sum "Si O2"
_cell_formula_units_Z 72
_cell_length_a 9.115183
_cell_length_b 17.647180
_cell_length_c 22.531409
_cell_angle_alpha 90.000000
_cell_angle_beta 90.000000
_cell_angle_gamma 90.000000
_cell_volume 3624.341057
_symmetry_space_group_name_H-M "I M M M"
_symmetry_group_IT_number 71
_symmetry_cell_setting 'orthorhombic'
loop_
_space_group_symop_operation_xyz
x,y,z
-x,-y,z
x,-y,-z
-x,y,-z
-x,-y,-z
x,y,-z
-x,y,z
x,-y,z
1/2+x,1/2+y,1/2+z
1/2-x,1/2-y,1/2+z
1/2+x,1/2-y,1/2-z
1/2-x,1/2+y,1/2-z
1/2-x,1/2-y,1/2-z
1/2+x,1/2+y,1/2-z
1/2-x,1/2+y,1/2+z
1/2+x,1/2-y,1/2+z
loop_
_atom_site_type_symbol
_atom_site_label
_atom_site_fract_x
_atom_site_fract_y
_atom_site_fract_z
Si Si1 0.175481 0.913547 0.000000
Si Si2 0.328332 0.658199 0.378757
Si Si3 0.672596 0.821049 0.339485
Si Si4 0.663604 0.410886 0.933668
Si Si5 0.828719 0.085260 0.241867
O O1 0.238461 0.870886 0.058661
O O2 0.000000 0.913517 0.000000
O O3 0.232856 0.000000 0.000000
O O4 0.500000 0.669133 0.388290
O O5 0.262611 0.738818 0.357441
O O6 0.294585 0.596744 0.327753
O O7 0.500000 0.818359 0.329097
O O8 0.710800 0.877124 0.392753
O O9 0.744278 0.851265 0.279075
O O10 0.500000 0.389471 0.910558
O O11 0.683013 0.500000 0.933256
O O12 0.685722 0.379171 0.000000
O O13 0.000000 0.096227 0.254750
O O14 0.779087 0.000000 0.259422
#
# Coordination Sequence:
#
# PCOD8291087 Si02
#       5
#     8  16  16  16  16
#     4   9  16  30  54  80 106 137 176 222 269 317
#     4   9  19  33  51  79 111 140 174 221 274 322
#     4  11  22  33  51  80 114 144 172 215 274 330
#     4   9  19  36  55  74 101 141 187 228 263 309
#     4  10  20  36  57  78 104 142 187 228 264 312
#
# _framework density 19.865679
#
# number of rings (size 3 to 8) (size 9 to 14) (size 15 to 20)
#    0.000    2.333    0.000    3.333    1.556    6.667 
#    0.000    2.222    0.000    0.000    0.000    0.000 
#    0.000    6.222    0.000    0.000    0.000    0.000 
#
# Total GULP energy -446312.957910 kJ/mol
# GULP energy per Si atom -12397.582164 kJ/mol
# Density = 1.982046 g / cm^3
# Si number density = 19.865679 Si / 1000 Ang^3
#
#
#
# Elastic Constant Matrix: (Units=GPa)
#
#
# Indices 1 2 3 4 5 6 
#
# 1 37.6773 30.5033 29.1193 0.0000 0.0000 0.0000
# 2 30.5033 113.9581 69.7032 0.0000 0.0000 0.0000
# 3 29.1193 69.7032 141.7743 0.0000 0.0000 0.0000
# 4 0.0000 0.0000 0.0000 17.3175 0.0000 0.0000
# 5 0.0000 0.0000 0.0000 0.0000 19.4838 0.0000
# 6 0.0000 0.0000 0.0000 0.0000 0.0000 19.3407
#
#
#
# Elastic Compliance Matrix: (Units=1/GPa)
#
#
# Indices 1 2 3 4 5 6 
#
# 1 0.035201 -0.007150 -0.003715 0.000000 0.000000 0.000000
# 2 -0.007150 0.014001 -0.005415 0.000000 0.000000 0.000000
# 3 -0.003715 -0.005415 0.010479 0.000000 0.000000 0.000000
# 4 0.000000 0.000000 0.000000 0.057745 0.000000 0.000000
# 5 0.000000 0.000000 0.000000 0.000000 0.051325 0.000000
# 6 0.000000 0.000000 0.000000 0.000000 0.000000 0.051704
#
#
# Mechanical properties :
#
#
# Convention : Reuss Voigt Hill
#
# Bulk Modulus (GPa) = 36.87174 61.34014 49.10594
# Shear Modulus (GPa) = 19.07997 22.16734 20.62365
#
# Velocity S-wave (km/s) = 3.10247 3.34407 3.22554
# Velocity P-wave (km/s) = 5.60666 6.77163 6.21649
#
# Compressibility (1/GPa) = 0.02712104
#
# Stress axis : x y z
#
# Youngs Moduli (GPa) = 28.40842 71.42223 95.43145
#
# Poissons Ratio (x) = 0.51069 0.35449
# Poissons Ratio (y) = 0.20313 0.51677
# Poissons Ratio (z) = 0.10552 0.38676
#
# Static dielectric constant tensor:
#      x y z
#    x 3.240420 0.000000 0.000000 
#    y 0.000000 3.746900 0.000000 
#    z 0.000000 0.000000 3.823230 
# 
# 
# High freq. dielectric constant tensor:
#      x y z
#    x 1.725100 0.000000 0.000000 
#    y 0.000000 1.781520 0.000000 
#    z 0.000000 0.000000 1.791860 
# 
# From -- ./inp_files/7961.got.cif
#   From: 2010.06.25/outbox.cif.g09.slc.cpg/sg71_4_cif.got.tgz:7961.got - 2010.06.28 04:59:45.
