data_PCOD8291266
_publ_section_title
;
Structure prediction by ZEFSAII (Michael W. Deem and Ramdas Pophale) SiO2 
 PCOD8291266
Probable space group: I M M M
;
_chemical_formula_sum "Si O2"
_cell_formula_units_Z 72
_cell_length_a 31.928863
_cell_length_b 9.143409
_cell_length_c 13.233299
_cell_angle_alpha 90.000000
_cell_angle_beta 90.000000
_cell_angle_gamma 90.000000
_cell_volume 3863.311489
_symmetry_space_group_name_H-M "I M M M"
_symmetry_group_IT_number 71
_symmetry_cell_setting 'orthorhombic'
loop_
_space_group_symop_operation_xyz
x,y,z
-x,-y,z
x,-y,-z
-x,y,-z
-x,-y,-z
x,y,-z
-x,y,z
x,-y,z
1/2+x,1/2+y,1/2+z
1/2-x,1/2-y,1/2+z
1/2+x,1/2-y,1/2-z
1/2-x,1/2+y,1/2-z
1/2-x,1/2-y,1/2-z
1/2+x,1/2+y,1/2-z
1/2-x,1/2+y,1/2+z
1/2+x,1/2-y,1/2+z
loop_
_atom_site_type_symbol
_atom_site_label
_atom_site_fract_x
_atom_site_fract_y
_atom_site_fract_z
Si Si1 0.089029 0.827794 0.812119
Si Si2 0.211351 0.153653 0.000000
Si Si3 0.776777 0.661584 0.326809
Si Si4 0.867946 0.672369 0.000000
Si Si5 0.360259 0.329738 0.885188
Si Si6 0.500000 0.327767 0.613860
O O1 0.114180 0.741695 0.897702
O O2 0.104824 0.786553 0.699005
O O3 0.040660 0.777973 0.822709
O O4 0.094468 0.000000 0.832505
O O5 0.242603 0.150736 0.910081
O O6 0.181482 0.294362 0.000000
O O7 0.184722 0.000000 0.000000
O O8 0.789887 0.500000 0.287346
O O9 0.750000 0.750000 0.250000
O O10 0.818358 0.742156 0.362909
O O11 0.876066 0.500000 0.000000
O O12 0.349368 0.500000 0.875671
O O13 0.376222 0.293855 0.000000
O O14 0.500000 0.500000 0.601511
O O15 0.500000 0.258897 0.500000
#
# Coordination Sequence:
#
# PCOD8291266 Si02
#       6
#    16   8  16   8  16   8
#     4  10  20  37  60  84 114 153 191 231 286 350
#     4  10  22  38  53  73 106 147 188 226 273 328
#     4  11  22  37  56  79 107 146 192 237 282 331
#     4  12  24  35  53  86 119 146 187 243 292 340
#     4  10  21  37  57  83 116 153 193 238 288 341
#     4   9  16  32  61  89 111 146 193 232 277 349
#
# _framework density 18.636862000000001
#
# number of rings (size 3 to 8) (size 9 to 14) (size 15 to 20)
#    0.000    1.667    2.222    3.000    0.000    8.000 
#    0.000    1.667    0.000    3.333    0.000    0.000 
#    0.000    3.556    0.000    0.000    0.000    0.000 
#
# Total GULP energy -445988.451763 kJ/mol
# GULP energy per Si atom -12388.568105 kJ/mol
# Density = 1.859444 g / cm^3
# Si number density = 18.636862 Si / 1000 Ang^3
#
#
#
# Elastic Constant Matrix: (Units=GPa)
#
#
# Indices 1 2 3 4 5 6 
#
# 1 131.0394 45.4724 67.3666 0.0000 0.0000 0.0000
# 2 45.4724 80.2875 59.9937 0.0000 0.0000 0.0000
# 3 67.3666 59.9937 160.8599 0.0000 0.0000 0.0000
# 4 0.0000 0.0000 0.0000 -34.3163 0.0000 0.0000
# 5 0.0000 0.0000 0.0000 0.0000 214.7697 0.0000
# 6 0.0000 0.0000 0.0000 0.0000 0.0000 19.1520
#
#
#
# Elastic Compliance Matrix: (Units=1/GPa)
#
#
# Indices 1 2 3 4 5 6 
#
# 1 0.010452 -0.003672 -0.003008 0.000000 0.000000 0.000000
# 2 -0.003672 0.018558 -0.005383 0.000000 0.000000 0.000000
# 3 -0.003008 -0.005383 0.009484 0.000000 0.000000 0.000000
# 4 0.000000 0.000000 0.000000 -0.029141 0.000000 0.000000
# 5 0.000000 0.000000 0.000000 0.000000 0.004656 0.000000
# 6 0.000000 0.000000 0.000000 0.000000 0.000000 0.052214
#
#
# Mechanical properties :
#
#
# Convention : Reuss Voigt Hill
#
# Bulk Modulus (GPa) = 69.60310 79.76135 74.68222
# Shear Modulus (GPa) = 52.55532 53.21134 52.88333
#
# Velocity S-wave (km/s) = 5.31610 5.34917 5.33266
# Velocity P-wave (km/s) = 8.66656 9.00234 8.83604
#
# Compressibility (1/GPa) = 0.01436718
#
# Stress axis : x y z
#
# Youngs Moduli (GPa) = 95.67770 53.88606 105.44253
#
# Poissons Ratio (x) = 0.19788 0.31712
# Poissons Ratio (y) = 0.35135 0.56763
# Poissons Ratio (z) = 0.28775 0.29008
#
# Static dielectric constant tensor:
#      x y z
#    x 3.539250 0.000000 0.000000 
#    y 0.000000 3.002330 0.000000 
#    z 0.000000 0.000000 3.659040 
# 
# 
# High freq. dielectric constant tensor:
#      x y z
#    x 1.719580 0.000000 0.000000 
#    y 0.000000 1.712840 0.000000 
#    z 0.000000 0.000000 1.735830 
# 
# From -- ./inp_files/16432.got.cif
#   From: 2010.06.25/outbox.cif.g09.slc.cpg/sg71_9_cif.got.tgz:16432.got - 2010.06.28 04:59:45.
