data_PCOD8291444
_publ_section_title
;
Structure prediction by ZEFSAII (Michael W. Deem and Ramdas Pophale) SiO2 
 PCOD8291444
Probable space group: I M M M
;
_chemical_formula_sum "Si O2"
_cell_formula_units_Z 80
_cell_length_a 14.742875
_cell_length_b 32.536092
_cell_length_c 8.908076
_cell_angle_alpha 90.000000
_cell_angle_beta 90.000000
_cell_angle_gamma 90.000000
_cell_volume 4272.986142
_symmetry_space_group_name_H-M "I M M M"
_symmetry_group_IT_number 71
_symmetry_cell_setting 'orthorhombic'
loop_
_space_group_symop_operation_xyz
x,y,z
-x,-y,z
x,-y,-z
-x,y,-z
-x,-y,-z
x,y,-z
-x,y,z
x,-y,z
1/2+x,1/2+y,1/2+z
1/2-x,1/2-y,1/2+z
1/2+x,1/2-y,1/2-z
1/2-x,1/2+y,1/2-z
1/2-x,1/2-y,1/2-z
1/2+x,1/2+y,1/2-z
1/2-x,1/2+y,1/2+z
1/2+x,1/2-y,1/2+z
loop_
_atom_site_type_symbol
_atom_site_label
_atom_site_fract_x
_atom_site_fract_y
_atom_site_fract_z
Si Si1 0.659283 0.235894 0.171244
Si Si2 0.730611 0.617278 0.323265
Si Si3 0.099685 0.824030 0.669440
Si Si4 0.101483 0.045893 0.821608
Si Si5 0.102826 0.653176 0.825812
O O1 0.750000 0.250000 0.250000
O O2 0.592736 0.274816 0.180504
O O3 0.613419 0.197904 0.254171
O O4 0.678805 0.222692 0.000000
O O5 0.743486 0.614152 0.500000
O O6 0.674232 0.658291 0.283447
O O7 0.675238 0.578083 0.257760
O O8 0.829758 0.619827 0.248603
O O9 0.127145 0.836952 0.500000
O O10 0.000000 0.841446 0.710836
O O11 0.000000 0.056635 0.762337
O O12 0.128794 0.000000 0.768406
O O13 0.100836 0.048232 0.000000
O O14 0.000000 0.637687 0.800213
O O15 0.126844 0.656882 0.000000
#
# Coordination Sequence:
#
# PCOD8291444 Si02
#       5
#    16  16  16  16  16
#     4  11  21  35  55  77 104 141 183 225 272 318
#     4  11  21  33  55  83 108 137 176 223 269 319
#     4  10  21  35  51  73 106 144 175 212 265 319
#     4   8  15  30  53  83 117 145 168 202 256 322
#     4  11  24  40  56  74 102 144 189 231 275 320
#
# _framework density 18.722270000000002
#
# number of rings (size 3 to 8) (size 9 to 14) (size 15 to 20)
#    0.000    1.800    2.000    3.600    0.000    4.400 
#    0.000    0.000    0.000    3.000    0.000   11.200 
#    0.000    0.000    0.000    0.000    0.000    0.000 
#
# Total GULP energy -495933.847689 kJ/mol
# GULP energy per Si atom -12398.346192 kJ/mol
# Density = 1.867966 g / cm^3
# Si number density = 18.722270 Si / 1000 Ang^3
#
#
#
# Elastic Constant Matrix: (Units=GPa)
#
#
# Indices 1 2 3 4 5 6 
#
# 1 131.9199 54.4138 52.7160 0.0011 0.0034 -0.0006
# 2 54.4138 102.9880 32.3078 0.0002 0.0014 -0.0003
# 3 52.7160 32.3078 90.3910 0.0118 0.0051 0.0016
# 4 0.0011 0.0002 0.0118 16.9457 -0.0007 -0.0006
# 5 0.0034 0.0014 0.0051 -0.0007 26.8032 0.0014
# 6 -0.0006 -0.0003 0.0016 -0.0006 0.0014 31.6945
#
#
#
# Elastic Compliance Matrix: (Units=1/GPa)
#
#
# Indices 1 2 3 4 5 6 
#
# 1 0.011450 -0.004454 -0.005086 0.000003 0.000000 0.000000
# 2 -0.004454 0.012669 -0.001930 0.000001 0.000000 0.000000
# 3 -0.005086 -0.001930 0.014719 -0.000010 -0.000002 -0.000001
# 4 0.000003 0.000001 -0.000010 0.059012 0.000002 0.000001
# 5 0.000000 0.000000 -0.000002 0.000002 0.037309 -0.000002
# 6 0.000000 0.000000 -0.000001 0.000001 -0.000002 0.031551
#
#
# Mechanical properties :
#
#
# Convention : Reuss Voigt Hill
#
# Bulk Modulus (GPa) = 62.90384 67.13046 65.01715
# Shear Modulus (GPa) = 25.64774 27.47945 26.56359
#
# Velocity S-wave (km/s) = 3.70524 3.83527 3.77081
# Velocity P-wave (km/s) = 7.20947 7.45293 7.33221
#
# Compressibility (1/GPa) = 0.01589728
#
# Stress axis : x y z
#
# Youngs Moduli (GPa) = 87.33785 78.93398 67.93983
#
# Poissons Ratio (x) = 0.35158 0.34551
# Poissons Ratio (y) = 0.38902 0.13115
# Poissons Ratio (z) = 0.44416 0.15238
#
# Static dielectric constant tensor:
#      x y z
#    x 3.524800 0.000000 0.000030 
#    y 0.000000 3.525850 -0.000030 
#    z 0.000030 -0.000030 3.365940 
# 
# 
# High freq. dielectric constant tensor:
#      x y z
#    x 1.731320 0.000000 0.000000 
#    y 0.000000 1.705170 0.000000 
#    z 0.000000 0.000000 1.716650 
# 
# From -- ./inp_files/8643.got.cif
#   From: 2010.06.25/outbox.cif.g09.slc.cpg/sg71_5_cif.got.tgz:8643.got - 2010.06.28 04:59:45.
