data_PCOD8291069
_publ_section_title
;
Structure prediction by ZEFSAII (Michael W. Deem and Ramdas Pophale) SiO2 
 PCOD8291069
Probable space group: I M M M
;
_chemical_formula_sum "Si O2"
_cell_formula_units_Z 104
_cell_length_a 26.378172
_cell_length_b 8.648098
_cell_length_c 24.002563
_cell_angle_alpha 90.000000
_cell_angle_beta 90.000000
_cell_angle_gamma 90.000000
_cell_volume 5475.489071
_symmetry_space_group_name_H-M "I M M M"
_symmetry_group_IT_number 71
_symmetry_cell_setting 'orthorhombic'
loop_
_space_group_symop_operation_xyz
x,y,z
-x,-y,z
x,-y,-z
-x,y,-z
-x,-y,-z
x,y,-z
-x,y,z
x,-y,z
1/2+x,1/2+y,1/2+z
1/2-x,1/2-y,1/2+z
1/2+x,1/2-y,1/2-z
1/2-x,1/2+y,1/2-z
1/2-x,1/2-y,1/2-z
1/2+x,1/2+y,1/2-z
1/2-x,1/2+y,1/2+z
1/2+x,1/2-y,1/2+z
loop_
_atom_site_type_symbol
_atom_site_label
_atom_site_fract_x
_atom_site_fract_y
_atom_site_fract_z
Si Si1 0.500000 0.673819 0.433783
Si Si2 0.710334 0.819299 0.851862
Si Si3 0.443583 0.317358 0.152422
Si Si4 0.601673 0.819060 0.562104
Si Si5 0.137789 0.817131 0.563992
Si Si6 0.819022 0.680500 0.153351
Si Si7 0.139305 0.181153 0.738162
O O1 0.500000 0.500000 0.412703
O O2 0.500000 0.691501 0.500000
O O3 0.449227 0.751468 0.409879
O O4 0.687386 0.767850 0.911461
O O5 0.769689 0.786101 0.848908
O O6 0.684971 0.718324 0.803598
O O7 0.700569 0.000000 0.841615
O O8 0.500000 0.242263 0.152252
O O9 0.448462 0.500000 0.149780
O O10 0.411970 0.261513 0.098203
O O11 0.413674 0.269723 0.208703
O O12 0.610645 0.751309 0.500000
O O13 0.649839 0.773496 0.598584
O O14 0.593903 0.000000 0.559717
O O15 0.130608 0.767875 0.500000
O O16 0.146081 0.000000 0.570287
O O17 0.804462 0.500000 0.154434
O O18 0.853955 0.719756 0.206269
O O19 0.140459 0.000000 0.752308
#
# Coordination Sequence:
#
# PCOD8291069 Si02
#       7
#     8  16  16  16  16  16  16
#     4   9  17  31  53  77 101 131 167 209 252 295
#     4  11  22  36  55  77 106 142 181 224 272 320
#     4   8  15  30  53  80 109 141 179 223 268 314
#     4   9  19  36  56  76 102 138 175 211 258 319
#     4   9  18  33  54  81 112 146 184 224 269 324
#     4  11  22  36  55  80 107 136 178 225 272 325
#     4  10  20  36  56  78 107 141 180 221 270 326
#
# _framework density 18.993738
#
# number of rings (size 3 to 8) (size 9 to 14) (size 15 to 20)
#    0.000    2.385    0.000    3.923    0.000    3.385 
#    1.385    3.077    0.000   11.077    0.000    4.308 
#    0.000    0.000    0.000    0.000    0.000    0.000 
#
# Total GULP energy -644776.039037 kJ/mol
# GULP energy per Si atom -12399.539212 kJ/mol
# Density = 1.895051 g / cm^3
# Si number density = 18.993738 Si / 1000 Ang^3
#
#
#
# Elastic Constant Matrix: (Units=GPa)
#
#
# Indices 1 2 3 4 5 6 
#
# 1 99.2576 23.1986 54.1553 0.0000 0.0000 0.0000
# 2 23.1986 27.8442 16.4814 0.0000 0.0000 0.0000
# 3 54.1553 16.4814 101.2639 0.0000 0.0000 0.0000
# 4 0.0000 0.0000 0.0000 25.8547 0.0000 0.0000
# 5 0.0000 0.0000 0.0000 0.0000 12.1318 0.0000
# 6 0.0000 0.0000 0.0000 0.0000 0.0000 18.7986
#
#
#
# Elastic Compliance Matrix: (Units=1/GPa)
#
#
# Indices 1 2 3 4 5 6 
#
# 1 0.016110 -0.009210 -0.007117 0.000000 0.000000 0.000000
# 2 -0.009210 0.045008 -0.002400 0.000000 0.000000 0.000000
# 3 -0.007117 -0.002400 0.014072 0.000000 0.000000 0.000000
# 4 0.000000 0.000000 0.000000 0.038678 0.000000 0.000000
# 5 0.000000 0.000000 0.000000 0.000000 0.082428 0.000000
# 6 0.000000 0.000000 0.000000 0.000000 0.000000 0.053196
#
#
# Mechanical properties :
#
#
# Convention : Reuss Voigt Hill
#
# Bulk Modulus (GPa) = 26.49926 46.22624 36.36275
# Shear Modulus (GPa) = 16.69321 20.32571 18.50946
#
# Velocity S-wave (km/s) = 2.96781 3.27483 3.12509
# Velocity P-wave (km/s) = 5.07205 6.22011 5.67519
#
# Compressibility (1/GPa) = 0.03773690
#
# Stress axis : x y z
#
# Youngs Moduli (GPa) = 62.07245 22.21830 71.06439
#
# Poissons Ratio (x) = 0.20463 0.50574
# Poissons Ratio (y) = 0.57168 0.17055
# Poissons Ratio (z) = 0.44175 0.05332
#
# Static dielectric constant tensor:
#      x y z
#    x 3.676300 0.000000 0.000000 
#    y 0.000000 3.289980 0.000000 
#    z 0.000000 0.000000 3.679230 
# 
# 
# High freq. dielectric constant tensor:
#      x y z
#    x 1.741960 0.000000 0.000000 
#    y 0.000000 1.723890 0.000000 
#    z 0.000000 0.000000 1.730770 
# 
# From -- ./inp_files/61979.got.cif
#   From: 2010.06.25/outbox.cif.g09.slc.cpg/sg71_31_cif.got.tgz:61979.got - 2010.06.28 04:59:45.
