data_PCOD8291446
_publ_section_title
;
Structure prediction by ZEFSAII (Michael W. Deem and Ramdas Pophale) SiO2 
 PCOD8291446
Probable space group: I M M M
;
_chemical_formula_sum "Si O2"
_cell_formula_units_Z 104
_cell_length_a 9.386492
_cell_length_b 20.927064
_cell_length_c 28.771903
_cell_angle_alpha 90.000000
_cell_angle_beta 90.000000
_cell_angle_gamma 90.000000
_cell_volume 5651.714360
_symmetry_space_group_name_H-M "I M M M"
_symmetry_group_IT_number 71
_symmetry_cell_setting 'orthorhombic'
loop_
_space_group_symop_operation_xyz
x,y,z
-x,-y,z
x,-y,-z
-x,y,-z
-x,-y,-z
x,y,-z
-x,y,z
x,-y,z
1/2+x,1/2+y,1/2+z
1/2-x,1/2-y,1/2+z
1/2+x,1/2-y,1/2-z
1/2-x,1/2+y,1/2-z
1/2-x,1/2-y,1/2-z
1/2+x,1/2+y,1/2-z
1/2-x,1/2+y,1/2+z
1/2+x,1/2-y,1/2+z
loop_
_atom_site_type_symbol
_atom_site_label
_atom_site_fract_x
_atom_site_fract_y
_atom_site_fract_z
Si Si1 0.165763 0.180009 0.201497
Si Si2 0.333573 0.374051 0.946450
Si Si3 0.334329 0.826170 0.706651
Si Si4 0.668704 0.374605 0.604989
Si Si5 0.663174 0.071193 0.368231
Si Si6 0.670200 0.500000 0.446467
Si Si7 0.160327 0.249390 0.054209
O O1 0.252814 0.157741 0.246052
O O2 0.198587 0.254263 0.189032
O O3 0.212932 0.134204 0.158894
O O4 0.000000 0.171588 0.212835
O O5 0.500000 0.370568 0.935696
O O6 0.259312 0.427125 0.914577
O O7 0.263484 0.306901 0.932633
O O8 0.304124 0.391746 0.000000
O O9 0.500000 0.836068 0.716921
O O10 0.280060 0.876640 0.668452
O O11 0.500000 0.376255 0.600216
O O12 0.731607 0.438697 0.581541
O O13 0.727025 0.313562 0.577223
O O14 0.500000 0.085954 0.381944
O O15 0.677476 0.000000 0.346884
O O16 0.500000 0.500000 0.446136
O O17 0.724821 0.500000 0.500000
O O18 0.000000 0.264054 0.073107
O O19 0.154962 0.236545 0.000000
#
# Coordination Sequence:
#
# PCOD8291446 Si02
#       7
#    16  16  16  16  16   8  16
#     4   9  17  30  50  74 100 129 162 205 257 303
#     4  10  21  35  51  75 106 135 164 204 252 299
#     4   9  18  34  53  73  98 127 163 209 255 299
#     4   9  16  27  44  70 103 136 171 213 258 304
#     4  10  21  37  56  76  99 132 171 207 247 294
#     4   9  16  26  42  68 105 143 175 211 258 309
#     4   9  16  28  49  74  99 131 172 215 256 297
#
# _framework density 18.401495000000001
#
# number of rings (size 3 to 8) (size 9 to 14) (size 15 to 20)
#    0.000    2.692    0.000    1.846    0.000    6.462 
#    1.385    5.385    0.000    0.000    0.000    1.615 
#    0.000    4.923    0.000    0.000    0.000    0.000 
#
# Total GULP energy -644727.527975 kJ/mol
# GULP energy per Si atom -12398.606307 kJ/mol
# Density = 1.835961 g / cm^3
# Si number density = 18.401495 Si / 1000 Ang^3
#
#
#
# Elastic Constant Matrix: (Units=GPa)
#
#
# Indices 1 2 3 4 5 6 
#
# 1 51.2832 32.0647 41.1851 0.0000 0.0000 0.0000
# 2 32.0647 98.7599 71.2417 0.0000 0.0000 0.0000
# 3 41.1851 71.2417 112.1608 0.0000 0.0000 0.0000
# 4 0.0000 0.0000 0.0000 31.4599 0.0000 0.0000
# 5 0.0000 0.0000 0.0000 0.0000 27.5906 0.0000
# 6 0.0000 0.0000 0.0000 0.0000 0.0000 8.9928
#
#
#
# Elastic Compliance Matrix: (Units=1/GPa)
#
#
# Indices 1 2 3 4 5 6 
#
# 1 0.028162 -0.003108 -0.008367 0.000000 0.000000 0.000000
# 2 -0.003108 0.019031 -0.010947 0.000000 0.000000 0.000000
# 3 -0.008367 -0.010947 0.018941 0.000000 0.000000 0.000000
# 4 0.000000 0.000000 0.000000 0.031786 0.000000 0.000000
# 5 0.000000 0.000000 0.000000 0.000000 0.036244 0.000000
# 6 0.000000 0.000000 0.000000 0.000000 0.000000 0.111200
#
#
# Mechanical properties :
#
#
# Convention : Reuss Voigt Hill
#
# Bulk Modulus (GPa) = 46.96791 61.24300 54.10546
# Shear Modulus (GPa) = 16.81765 21.45617 19.13691
#
# Velocity S-wave (km/s) = 3.02640 3.41838 3.22835
# Velocity P-wave (km/s) = 6.14748 6.99530 6.58505
#
# Compressibility (1/GPa) = 0.02129113
#
# Stress axis : x y z
#
# Youngs Moduli (GPa) = 35.50847 52.54464 52.79425
#
# Poissons Ratio (x) = 0.16330 0.44173
# Poissons Ratio (y) = 0.11035 0.57794
# Poissons Ratio (z) = 0.29710 0.57521
#
# Static dielectric constant tensor:
#      x y z
#    x 3.099220 0.000000 0.000000 
#    y 0.000000 3.469010 0.000000 
#    z 0.000000 0.000000 3.429000 
# 
# 
# High freq. dielectric constant tensor:
#      x y z
#    x 1.678120 0.000000 0.000000 
#    y 0.000000 1.711170 0.000000 
#    z 0.000000 0.000000 1.717870 
# 
# From -- ./inp_files/68291.got.cif
#   From: 2010.06.25/outbox.cif.g09.slc.cpg/sg71_35_cif.got.tgz:68291.got - 2010.06.28 04:59:45.
