data_PCOD8291004
_publ_section_title
;
Structure prediction by ZEFSAII (Michael W. Deem and Ramdas Pophale) SiO2 
 PCOD8291004
Probable space group: I M M M
;
_chemical_formula_sum "Si O2"
_cell_formula_units_Z 88
_cell_length_a 27.332827
_cell_length_b 19.149758
_cell_length_c 8.697620
_cell_angle_alpha 90.000000
_cell_angle_beta 90.000000
_cell_angle_gamma 90.000000
_cell_volume 4552.482363
_symmetry_space_group_name_H-M "I M M M"
_symmetry_group_IT_number 71
_symmetry_cell_setting 'orthorhombic'
loop_
_space_group_symop_operation_xyz
x,y,z
-x,-y,z
x,-y,-z
-x,y,-z
-x,-y,-z
x,y,-z
-x,y,z
x,-y,z
1/2+x,1/2+y,1/2+z
1/2-x,1/2-y,1/2+z
1/2+x,1/2-y,1/2-z
1/2-x,1/2+y,1/2-z
1/2-x,1/2-y,1/2-z
1/2+x,1/2+y,1/2-z
1/2-x,1/2+y,1/2+z
1/2+x,1/2-y,1/2+z
loop_
_atom_site_type_symbol
_atom_site_label
_atom_site_fract_x
_atom_site_fract_y
_atom_site_fract_z
Si Si1 0.288080 0.345509 0.321991
Si Si2 0.056053 0.189430 0.825211
Si Si3 0.586008 0.831507 0.819404
Si Si4 0.311771 0.813069 0.321347
Si Si5 0.625824 0.419099 0.176812
Si Si6 0.500000 0.082582 0.676903
O O1 0.290980 0.364800 0.500000
O O2 0.311259 0.269613 0.288297
O O3 0.232125 0.350012 0.269047
O O4 0.318849 0.401450 0.225702
O O5 0.066564 0.254325 0.715371
O O6 0.087922 0.123003 0.780470
O O7 0.000000 0.166810 0.808925
O O8 0.069022 0.211378 0.000000
O O9 0.637852 0.845413 0.738661
O O10 0.548275 0.888559 0.758105
O O11 0.592402 0.840502 0.000000
O O12 0.305159 0.829280 0.500000
O O13 0.615795 0.500000 0.205760
O O14 0.618192 0.398578 0.000000
O O15 0.500000 0.107203 0.500000
O O16 0.500000 0.000000 0.692897
#
# Coordination Sequence:
#
# PCOD8291004 Si02
#       6
#    16  16  16  16  16   8
#     4  10  20  35  58  87 119 156 199 249 301 357
#     4  11  23  39  61  88 120 158 206 256 302 359
#     4  12  23  37  63  94 125 159 199 250 301 357
#     4  10  20  35  59  89 122 155 195 249 300 354
#     4  11  24  40  59  85 122 165 206 253 310 366
#     4  11  25  45  67  91 124 163 200 243 301 365
#
# _framework density 19.330113000000001
#
# number of rings (size 3 to 8) (size 9 to 14) (size 15 to 20)
#    0.000    1.182    2.727    4.091    0.000    5.091 
#    0.000    2.727    0.000    5.455    0.000    0.000 
#    0.000    0.000    0.000    0.000    0.000    0.000 
#
# Total GULP energy -545912.961359 kJ/mol
# GULP energy per Si atom -12407.112758 kJ/mol
# Density = 1.928612 g / cm^3
# Si number density = 19.330113 Si / 1000 Ang^3
#
#
#
# Elastic Constant Matrix: (Units=GPa)
#
#
# Indices 1 2 3 4 5 6 
#
# 1 116.2270 29.1413 19.6842 0.0000 0.0000 0.0000
# 2 29.1413 61.6981 23.5547 0.0000 0.0000 0.0000
# 3 19.6842 23.5547 58.4199 0.0000 0.0000 0.0000
# 4 0.0000 0.0000 0.0000 28.3310 0.0000 0.0000
# 5 0.0000 0.0000 0.0000 0.0000 38.5654 0.0000
# 6 0.0000 0.0000 0.0000 0.0000 0.0000 24.2833
#
#
#
# Elastic Compliance Matrix: (Units=1/GPa)
#
#
# Indices 1 2 3 4 5 6 
#
# 1 0.009903 -0.004023 -0.001715 0.000000 0.000000 0.000000
# 2 -0.004023 0.020791 -0.007027 0.000000 0.000000 0.000000
# 3 -0.001715 -0.007027 0.020529 0.000000 0.000000 0.000000
# 4 0.000000 0.000000 0.000000 0.035297 0.000000 0.000000
# 5 0.000000 0.000000 0.000000 0.000000 0.025930 0.000000
# 6 0.000000 0.000000 0.000000 0.000000 0.000000 0.041181
#
#
# Mechanical properties :
#
#
# Convention : Reuss Voigt Hill
#
# Bulk Modulus (GPa) = 38.92159 42.34505 40.63332
# Shear Modulus (GPa) = 26.63488 29.16691 27.90089
#
# Velocity S-wave (km/s) = 3.71603 3.88865 3.80332
# Velocity P-wave (km/s) = 6.21214 6.48968 6.35243
#
# Compressibility (1/GPa) = 0.02569268
#
# Stress axis : x y z
#
# Youngs Moduli (GPa) = 100.98093 48.09822 48.71247
#
# Poissons Ratio (x) = 0.19348 0.08353
# Poissons Ratio (y) = 0.40621 0.34232
# Poissons Ratio (z) = 0.17316 0.33800
#
# Static dielectric constant tensor:
#      x y z
#    x 3.747510 0.000000 0.000000 
#    y 0.000000 3.310360 0.000000 
#    z 0.000000 0.000000 3.686440 
# 
# 
# High freq. dielectric constant tensor:
#      x y z
#    x 1.770010 0.000000 0.000000 
#    y 0.000000 1.725010 0.000000 
#    z 0.000000 0.000000 1.770370 
# 
# From -- ./inp_files/16646.got.cif
#   From: 2010.06.25/outbox.cif.g09.slc.cpg/sg71_9_cif.got.tgz:16646.got - 2010.06.28 04:59:45.
