data_PCOD8291865
_publ_section_title
;
Structure prediction by ZEFSAII (Michael W. Deem and Ramdas Pophale) SiO2 
 PCOD8291865
Probable space group: I M M M
;
_chemical_formula_sum "Si O2"
_cell_formula_units_Z 88
_cell_length_a 19.831919
_cell_length_b 9.344547
_cell_length_c 24.413702
_cell_angle_alpha 90.000000
_cell_angle_beta 90.000000
_cell_angle_gamma 90.000000
_cell_volume 4524.354559
_symmetry_space_group_name_H-M "I M M M"
_symmetry_group_IT_number 71
_symmetry_cell_setting 'orthorhombic'
loop_
_space_group_symop_operation_xyz
x,y,z
-x,-y,z
x,-y,-z
-x,y,-z
-x,-y,-z
x,y,-z
-x,y,z
x,-y,z
1/2+x,1/2+y,1/2+z
1/2-x,1/2-y,1/2+z
1/2+x,1/2-y,1/2-z
1/2-x,1/2+y,1/2-z
1/2-x,1/2-y,1/2-z
1/2+x,1/2+y,1/2-z
1/2-x,1/2+y,1/2+z
1/2+x,1/2-y,1/2+z
loop_
_atom_site_type_symbol
_atom_site_label
_atom_site_fract_x
_atom_site_fract_y
_atom_site_fract_z
Si Si1 0.185000 0.340471 0.560683
Si Si2 0.813009 0.331892 0.913410
Si Si3 0.693852 0.831872 0.285662
Si Si4 0.925603 0.841510 0.383926
Si Si5 0.576398 0.168627 0.500000
Si Si6 0.425172 0.657319 0.754702
O O1 0.154118 0.345687 0.500000
O O2 0.200752 0.500000 0.582543
O O3 0.252947 0.250268 0.557457
O O4 0.129508 0.272553 0.599488
O O5 0.801862 0.500000 0.921387
O O6 0.807973 0.289573 0.849558
O O7 0.882531 0.285245 0.944546
O O8 0.750000 0.750000 0.250000
O O9 0.620936 0.786874 0.264571
O O10 0.705603 0.000000 0.277473
O O11 0.926714 0.845400 0.319346
O O12 0.000000 0.797982 0.405867
O O13 0.906529 0.000000 0.406317
O O14 0.500000 0.235931 0.500000
O O15 0.568674 0.000000 0.500000
O O16 0.500000 0.686750 0.731506
O O17 0.399825 0.500000 0.734140
#
# Coordination Sequence:
#
# PCOD8291865 Si02
#       6
#    16  16  16  16   8  16
#     4  11  23  36  53  79 111 145 181 227 281 335
#     4  10  21  38  60  83 110 148 192 235 284 345
#     4  11  23  36  55  86 118 151 192 238 287 344
#     4   9  19  36  57  80 107 144 190 232 268 319
#     4   9  18  36  63  89 110 139 186 245 297 338
#     4   9  19  37  58  80 110 147 185 226 277 335
#
# _framework density 19.450286999999999
#
# number of rings (size 3 to 8) (size 9 to 14) (size 15 to 20)
#    0.000    2.091    0.909    3.273    0.000    9.455 
#    0.000    5.455    0.000    1.091    0.000    0.000 
#    0.000    0.000    0.000    0.000    0.000    0.000 
#
# Total GULP energy -545311.303523 kJ/mol
# GULP energy per Si atom -12393.438716 kJ/mol
# Density = 1.940602 g / cm^3
# Si number density = 19.450287 Si / 1000 Ang^3
#
#
#
# Elastic Constant Matrix: (Units=GPa)
#
#
# Indices 1 2 3 4 5 6 
#
# 1 128.0879 52.3575 47.5411 0.0000 0.0000 0.0000
# 2 52.3575 70.4194 37.3320 0.0000 0.0000 0.0000
# 3 47.5411 37.3320 88.3846 0.0000 0.0000 0.0000
# 4 0.0000 0.0000 0.0000 17.7094 0.0000 0.0000
# 5 0.0000 0.0000 0.0000 0.0000 33.1001 0.0000
# 6 0.0000 0.0000 0.0000 0.0000 0.0000 20.9927
#
#
#
# Elastic Compliance Matrix: (Units=1/GPa)
#
#
# Indices 1 2 3 4 5 6 
#
# 1 0.011983 -0.007077 -0.003456 0.000000 0.000000 0.000000
# 2 -0.007077 0.022478 -0.005687 0.000000 0.000000 0.000000
# 3 -0.003456 -0.005687 0.015576 0.000000 0.000000 0.000000
# 4 0.000000 0.000000 0.000000 0.056467 0.000000 0.000000
# 5 0.000000 0.000000 0.000000 0.000000 0.030211 0.000000
# 6 0.000000 0.000000 0.000000 0.000000 0.000000 0.047636
#
#
# Mechanical properties :
#
#
# Convention : Reuss Voigt Hill
#
# Bulk Modulus (GPa) = 56.83590 62.37256 59.60423
# Shear Modulus (GPa) = 22.45613 24.33785 23.39699
#
# Velocity S-wave (km/s) = 3.40154 3.54119 3.47207
# Velocity P-wave (km/s) = 6.68669 6.98980 6.83992
#
# Compressibility (1/GPa) = 0.01759451
#
# Stress axis : x y z
#
# Youngs Moduli (GPa) = 83.45324 44.48871 64.20328
#
# Poissons Ratio (x) = 0.31485 0.22190
# Poissons Ratio (y) = 0.59060 0.36515
# Poissons Ratio (z) = 0.28843 0.25303
#
# Static dielectric constant tensor:
#      x y z
#    x 4.160190 0.000000 0.000000 
#    y 0.000000 3.681300 0.000000 
#    z 0.000000 0.000000 3.595710 
# 
# 
# High freq. dielectric constant tensor:
#      x y z
#    x 1.763270 0.000000 0.000000 
#    y 0.000000 1.748300 0.000000 
#    z 0.000000 0.000000 1.753800 
# 
# From -- ./inp_files/10496.got.cif
#   From: 2010.06.25/outbox.cif.g09.slc.cpg/sg71_6_cif.got.tgz:10496.got - 2010.06.28 04:59:45.
