data_PCOD8291433
_publ_section_title
;
Structure prediction by ZEFSAII (Michael W. Deem and Ramdas Pophale) SiO2 
 PCOD8291433
Probable space group: I M M M
;
_chemical_formula_sum "Si O2"
_cell_formula_units_Z 112
_cell_length_a 28.970194
_cell_length_b 13.152731
_cell_length_c 15.037037
_cell_angle_alpha 90.000000
_cell_angle_beta 90.000000
_cell_angle_gamma 90.000000
_cell_volume 5729.670004
_symmetry_space_group_name_H-M "I M M M"
_symmetry_group_IT_number 71
_symmetry_cell_setting 'orthorhombic'
loop_
_space_group_symop_operation_xyz
x,y,z
-x,-y,z
x,-y,-z
-x,y,-z
-x,-y,-z
x,y,-z
-x,y,z
x,-y,z
1/2+x,1/2+y,1/2+z
1/2-x,1/2-y,1/2+z
1/2+x,1/2-y,1/2-z
1/2-x,1/2+y,1/2-z
1/2-x,1/2-y,1/2-z
1/2+x,1/2+y,1/2-z
1/2-x,1/2+y,1/2+z
1/2+x,1/2-y,1/2+z
loop_
_atom_site_type_symbol
_atom_site_label
_atom_site_fract_x
_atom_site_fract_y
_atom_site_fract_z
Si Si1 0.866357 0.744071 0.099167
Si Si2 0.637949 0.610157 0.898777
Si Si3 0.685106 0.809083 0.106097
Si Si4 0.715332 0.613451 0.605231
Si Si5 0.051647 0.884669 0.865666
Si Si6 0.448459 0.704374 0.176763
Si Si7 0.388733 0.884936 0.235228
O O1 0.826996 0.818192 0.139343
O O2 0.913424 0.807522 0.087965
O O3 0.870703 0.651687 0.168058
O O4 0.853509 0.702888 0.000000
O O5 0.642926 0.500000 0.849673
O O6 0.674006 0.693454 0.861143
O O7 0.586126 0.654923 0.894048
O O8 0.650113 0.592272 0.000000
O O9 0.737022 0.833952 0.134520
O O10 0.651316 0.882887 0.160711
O O11 0.676588 0.823635 0.000000
O O12 0.713084 0.605563 0.500000
O O13 0.712045 0.500000 0.646540
O O14 0.052795 0.870745 0.760134
O O15 0.000000 0.862311 0.901574
O O16 0.066188 0.000000 0.888771
O O17 0.500000 0.712149 0.136352
O O18 0.432024 0.816966 0.204820
O O19 0.406146 0.000000 0.245509
#
# Coordination Sequence:
#
# PCOD8291433 Si02
#       7
#    16  16  16  16  16  16  16
#     4  10  21  35  50  73 105 135 168 211 255 305
#     4   9  17  29  47  73 106 141 171 201 244 301
#     4   9  18  34  55  78 103 131 169 213 252 297
#     4   9  17  31  53  78 104 136 171 210 258 305
#     4   9  17  30  50  74  99 129 163 202 253 308
#     4   9  18  32  49  71 100 131 168 213 254 299
#     4  10  21  36  54  74  97 131 173 213 258 308
#
# _framework density 19.547374000000001
#
# number of rings (size 3 to 8) (size 9 to 14) (size 15 to 20)
#    0.000    2.714    0.000    1.286    0.000    4.286 
#    0.000    2.857    0.000    2.571    0.000    8.000 
#    0.000    0.000    0.000    0.000    0.000    0.000 
#
# Total GULP energy -694100.896389 kJ/mol
# GULP energy per Si atom -12394.658864 kJ/mol
# Density = 1.950288 g / cm^3
# Si number density = 19.547374 Si / 1000 Ang^3
#
#
#
# Elastic Constant Matrix: (Units=GPa)
#
#
# Indices 1 2 3 4 5 6 
#
# 1 87.1832 29.5578 3.5944 0.0000 0.0000 0.0000
# 2 29.5578 128.5499 13.3565 0.0000 0.0000 0.0000
# 3 3.5944 13.3565 41.4143 0.0000 0.0000 0.0000
# 4 0.0000 0.0000 0.0000 17.7972 0.0000 0.0000
# 5 0.0000 0.0000 0.0000 0.0000 20.3928 0.0000
# 6 0.0000 0.0000 0.0000 0.0000 0.0000 21.3729
#
#
#
# Elastic Compliance Matrix: (Units=1/GPa)
#
#
# Indices 1 2 3 4 5 6 
#
# 1 0.012441 -0.002844 -0.000163 0.000000 0.000000 0.000000
# 2 -0.002844 0.008699 -0.002559 0.000000 0.000000 0.000000
# 3 -0.000163 -0.002559 0.024986 0.000000 0.000000 0.000000
# 4 0.000000 0.000000 0.000000 0.056189 0.000000 0.000000
# 5 0.000000 0.000000 0.000000 0.000000 0.049037 0.000000
# 6 0.000000 0.000000 0.000000 0.000000 0.000000 0.046788
#
#
# Mechanical properties :
#
#
# Convention : Reuss Voigt Hill
#
# Bulk Modulus (GPa) = 28.57524 38.90720 33.74122
# Shear Modulus (GPa) = 22.63120 25.95516 24.29318
#
# Velocity S-wave (km/s) = 3.40628 3.64786 3.52914
# Velocity P-wave (km/s) = 5.48822 6.13920 5.82281
#
# Compressibility (1/GPa) = 0.03499533
#
# Stress axis : x y z
#
# Youngs Moduli (GPa) = 80.38000 114.95864 40.02314
#
# Poissons Ratio (x) = 0.32690 0.00651
# Poissons Ratio (y) = 0.22857 0.10240
# Poissons Ratio (z) = 0.01307 0.29414
#
# Static dielectric constant tensor:
#      x y z
#    x 3.644060 0.000000 0.000000 
#    y 0.000000 3.731570 0.000000 
#    z 0.000000 0.000000 3.315990 
# 
# 
# High freq. dielectric constant tensor:
#      x y z
#    x 1.758390 0.000000 0.000000 
#    y 0.000000 1.753840 0.000000 
#    z 0.000000 0.000000 1.746410 
# 
# From -- ./inp_files/22672.got.cif
#   From: 2010.06.25/outbox.cif.g09.slc.cpg/sg71_12_cif.got.tgz:22672.got - 2010.06.28 04:59:45.
