data_PCOD8291587
_publ_section_title
;
Structure prediction by ZEFSAII (Michael W. Deem and Ramdas Pophale) SiO2 
 PCOD8291587
Probable space group: I M M M
;
_chemical_formula_sum "Si O2"
_cell_formula_units_Z 104
_cell_length_a 21.972852
_cell_length_b 26.335405
_cell_length_c 8.639631
_cell_angle_alpha 90.000000
_cell_angle_beta 90.000000
_cell_angle_gamma 90.000000
_cell_volume 4999.443057
_symmetry_space_group_name_H-M "I M M M"
_symmetry_group_IT_number 71
_symmetry_cell_setting 'orthorhombic'
loop_
_space_group_symop_operation_xyz
x,y,z
-x,-y,z
x,-y,-z
-x,y,-z
-x,-y,-z
x,y,-z
-x,y,z
x,-y,z
1/2+x,1/2+y,1/2+z
1/2-x,1/2-y,1/2+z
1/2+x,1/2-y,1/2-z
1/2-x,1/2+y,1/2-z
1/2-x,1/2-y,1/2-z
1/2+x,1/2+y,1/2-z
1/2-x,1/2+y,1/2+z
1/2+x,1/2-y,1/2+z
loop_
_atom_site_type_symbol
_atom_site_label
_atom_site_fract_x
_atom_site_fract_y
_atom_site_fract_z
Si Si1 0.850541 0.292239 0.819357
Si Si2 0.433301 0.704932 0.316611
Si Si3 0.568070 0.874232 0.175302
Si Si4 0.754786 0.138591 0.679860
Si Si5 0.174976 0.442542 0.324210
Si Si6 0.569383 0.500000 0.182366
Si Si7 0.878236 0.102123 0.179950
O O1 0.877307 0.239267 0.747434
O O2 0.902362 0.333367 0.788249
O O3 0.784474 0.312237 0.755300
O O4 0.841087 0.286386 0.000000
O O5 0.431533 0.711904 0.500000
O O6 0.500000 0.722301 0.253383
O O7 0.426642 0.645569 0.274036
O O8 0.500000 0.885073 0.231628
O O9 0.604242 0.927170 0.185168
O O10 0.570113 0.852797 0.000000
O O11 0.771803 0.144920 0.500000
O O12 0.712864 0.089487 0.700991
O O13 0.814400 0.128376 0.779239
O O14 0.199438 0.434037 0.500000
O O15 0.181949 0.500000 0.272089
O O16 0.500000 0.500000 0.250285
O O17 0.606392 0.550053 0.232716
O O18 0.566462 0.500000 0.000000
O O19 0.879467 0.088834 0.000000
#
# Coordination Sequence:
#
# PCOD8291587 Si02
#       7
#    16  16  16  16  16   8  16
#     4   9  18  34  56  80 109 149 191 230 277 334
#     4   9  18  34  58  87 115 145 188 238 283 334
#     4   9  17  29  46  72 105 139 179 229 285 340
#     4  10  21  36  54  80 114 149 188 235 287 337
#     4   9  18  32  50  71  99 138 185 235 283 339
#     4  11  25  45  67  91 121 153 186 233 292 347
#     4  11  23  39  62  89 116 151 193 236 284 342
#
# _framework density 20.802316999999999
#
# number of rings (size 3 to 8) (size 9 to 14) (size 15 to 20)
#    0.000    2.385    0.000    2.077    1.077    4.000 
#    0.000    3.077    0.000    3.692    0.000    4.308 
#    0.000    0.000    0.000    0.000    0.000    0.000 
#
# Total GULP energy -644286.405768 kJ/mol
# GULP energy per Si atom -12390.123188 kJ/mol
# Density = 2.075497 g / cm^3
# Si number density = 20.802317 Si / 1000 Ang^3
#
#
#
# Elastic Constant Matrix: (Units=GPa)
#
#
# Indices 1 2 3 4 5 6 
#
# 1 114.3124 38.8749 10.9612 0.0000 0.0000 0.0000
# 2 38.8749 122.8621 18.3823 0.0000 0.0000 0.0000
# 3 10.9612 18.3823 29.9020 0.0000 0.0000 0.0000
# 4 0.0000 0.0000 0.0000 17.1667 0.0000 0.0000
# 5 0.0000 0.0000 0.0000 0.0000 23.1356 0.0000
# 6 0.0000 0.0000 0.0000 0.0000 0.0000 24.9314
#
#
#
# Elastic Compliance Matrix: (Units=1/GPa)
#
#
# Indices 1 2 3 4 5 6 
#
# 1 0.009897 -0.002851 -0.001875 0.000000 0.000000 0.000000
# 2 -0.002851 0.009785 -0.004970 0.000000 0.000000 0.000000
# 3 -0.001875 -0.004970 0.037185 0.000000 0.000000 0.000000
# 4 0.000000 0.000000 0.000000 0.058252 0.000000 0.000000
# 5 0.000000 0.000000 0.000000 0.000000 0.043223 0.000000
# 6 0.000000 0.000000 0.000000 0.000000 0.000000 0.040110
#
#
# Mechanical properties :
#
#
# Convention : Reuss Voigt Hill
#
# Bulk Modulus (GPa) = 26.68482 44.83482 35.75982
# Shear Modulus (GPa) = 21.70720 26.30394 24.00557
#
# Velocity S-wave (km/s) = 3.23383 3.55980 3.40072
# Velocity P-wave (km/s) = 5.17679 6.20450 5.71380
#
# Compressibility (1/GPa) = 0.03747449
#
# Stress axis : x y z
#
# Youngs Moduli (GPa) = 101.03704 102.19795 26.89223
#
# Poissons Ratio (x) = 0.29137 0.05043
# Poissons Ratio (y) = 0.28806 0.13366
# Poissons Ratio (z) = 0.18948 0.50794
#
# Static dielectric constant tensor:
#      x y z
#    x 4.012340 0.000000 0.000000 
#    y 0.000000 3.880030 0.000000 
#    z 0.000000 0.000000 3.463720 
# 
# 
# High freq. dielectric constant tensor:
#      x y z
#    x 1.823110 0.000000 0.000000 
#    y 0.000000 1.815090 0.000000 
#    z 0.000000 0.000000 1.785900 
# 
# From -- ./inp_files/11068.got.cif
#   From: 2010.06.25/outbox.cif.g09.slc.cpg/sg71_6_cif.got.tgz:11068.got - 2010.06.28 04:59:45.
