data_PCOD8291316
_publ_section_title
;
Structure prediction by ZEFSAII (Michael W. Deem and Ramdas Pophale) SiO2 
 PCOD8291316
Probable space group: I M M M
;
_chemical_formula_sum "Si O2"
_cell_formula_units_Z 48
_cell_length_a 21.748093
_cell_length_b 17.324038
_cell_length_c 7.490162
_cell_angle_alpha 90.000000
_cell_angle_beta 90.000000
_cell_angle_gamma 90.000000
_cell_volume 2822.029310
_symmetry_space_group_name_H-M "I M M M"
_symmetry_group_IT_number 71
_symmetry_cell_setting 'orthorhombic'
loop_
_space_group_symop_operation_xyz
x,y,z
-x,-y,z
x,-y,-z
-x,y,-z
-x,-y,-z
x,y,-z
-x,y,z
x,-y,z
1/2+x,1/2+y,1/2+z
1/2-x,1/2-y,1/2+z
1/2+x,1/2-y,1/2-z
1/2-x,1/2+y,1/2-z
1/2-x,1/2-y,1/2-z
1/2+x,1/2+y,1/2-z
1/2-x,1/2+y,1/2+z
1/2+x,1/2-y,1/2+z
loop_
_atom_site_type_symbol
_atom_site_label
_atom_site_fract_x
_atom_site_fract_y
_atom_site_fract_z
Si Si1 0.215982 0.000000 0.707967
Si Si2 0.138496 0.500000 0.202286
Si Si3 0.849866 0.919113 0.000000
Si Si4 0.427892 0.265719 0.500000
Si Si5 0.069394 0.350209 0.301539
O O1 0.193614 0.000000 0.500000
O O2 0.288876 0.000000 0.716527
O O3 0.191901 0.076176 0.817572
O O4 0.112639 0.424332 0.296895
O O5 0.115230 0.500000 0.000000
O O6 0.892306 0.845592 0.000000
O O7 0.889692 0.000000 0.000000
O O8 0.500000 0.284365 0.500000
O O9 0.407012 0.217148 0.672018
O O10 0.071175 0.315456 0.500000
O O11 0.000000 0.374784 0.247373
#
# Coordination Sequence:
#
# PCOD8291316 Si02
#       5
#     8   8   8   8  16
#     4   8  19  36  55  74 104 134 181 224 250 308
#     4  11  19  33  58  75 107 151 177 210 262 304
#     4   8  20  37  59  75 102 138 181 217 273 299
#     4  10  20  38  56  80 111 133 172 224 265 317
#     4  10  21  33  52  82 112 141 173 212 263 317
#
# _framework density 17.009035000000001
#
# number of rings (size 3 to 8) (size 9 to 14) (size 15 to 20)
#    1.000    1.333    1.667    1.000    4.667    3.667 
#    0.000    1.667    0.000    1.000    0.000    0.000 
#    0.000    0.000    0.000    0.000    0.000    0.000 
#
# Total GULP energy -297342.641678 kJ/mol
# GULP energy per Si atom -12389.276737 kJ/mol
# Density = 1.697032 g / cm^3
# Si number density = 17.009035 Si / 1000 Ang^3
#
#
#
# Elastic Constant Matrix: (Units=GPa)
#
#
# Indices 1 2 3 4 5 6 
#
# 1 63.3205 56.3225 39.4099 0.0000 0.0000 0.0000
# 2 56.3225 128.5693 53.5589 0.0000 0.0000 0.0000
# 3 39.4099 53.5589 145.4747 0.0000 0.0000 0.0000
# 4 0.0000 0.0000 0.0000 140.8894 0.0000 0.0000
# 5 0.0000 0.0000 0.0000 0.0000 22.6519 0.0000
# 6 0.0000 0.0000 0.0000 0.0000 0.0000 -33.8803
#
#
#
# Elastic Compliance Matrix: (Units=1/GPa)
#
#
# Indices 1 2 3 4 5 6 
#
# 1 0.027336 -0.010500 -0.003539 0.000000 0.000000 0.000000
# 2 -0.010500 0.013220 -0.002023 0.000000 0.000000 0.000000
# 3 -0.003539 -0.002023 0.008578 0.000000 0.000000 0.000000
# 4 0.000000 0.000000 0.000000 0.007098 0.000000 0.000000
# 5 0.000000 0.000000 0.000000 0.000000 0.044146 0.000000
# 6 0.000000 0.000000 0.000000 0.000000 0.000000 -0.029516
#
#
# Mechanical properties :
#
#
# Convention : Reuss Voigt Hill
#
# Bulk Modulus (GPa) = 58.79442 70.66078 64.72760
# Shear Modulus (GPa) = 46.01644 38.47042 42.24343
#
# Velocity S-wave (km/s) = 5.20700 4.76096 4.98897
# Velocity P-wave (km/s) = 8.41380 8.47677 8.44534
#
# Compressibility (1/GPa) = 0.01700842
#
# Stress axis : x y z
#
# Youngs Moduli (GPa) = 36.58234 75.64031 116.58290
#
# Poissons Ratio (x) = 0.79426 0.41264
# Poissons Ratio (y) = 0.38413 0.23581
# Poissons Ratio (z) = 0.12948 0.15300
#
# Static dielectric constant tensor:
#      x y z
#    x 2.925800 0.000000 0.000000 
#    y 0.000000 2.869950 0.000000 
#    z 0.000000 0.000000 3.562970 
# 
# 
# High freq. dielectric constant tensor:
#      x y z
#    x 1.637530 0.000000 0.000000 
#    y 0.000000 1.631350 0.000000 
#    z 0.000000 0.000000 1.678960 
# 
# From -- ./inp_files/7073.got.cif
#   From: 2010.06.25/outbox.cif.g09.slc.cpg/sg71_4_cif.got.tgz:7073.got - 2010.06.28 04:59:45.
