data_PCOD8291414
_publ_section_title
;
Structure prediction by ZEFSAII (Michael W. Deem and Ramdas Pophale) SiO2 
 PCOD8291414
Probable space group: I M M M
;
_chemical_formula_sum "Si O2"
_cell_formula_units_Z 88
_cell_length_a 9.412744
_cell_length_b 18.383871
_cell_length_c 28.336095
_cell_angle_alpha 90.000000
_cell_angle_beta 90.000000
_cell_angle_gamma 90.000000
_cell_volume 4903.353577
_symmetry_space_group_name_H-M "I M M M"
_symmetry_group_IT_number 71
_symmetry_cell_setting 'orthorhombic'
loop_
_space_group_symop_operation_xyz
x,y,z
-x,-y,z
x,-y,-z
-x,y,-z
-x,-y,-z
x,y,-z
-x,y,z
x,-y,z
1/2+x,1/2+y,1/2+z
1/2-x,1/2-y,1/2+z
1/2+x,1/2-y,1/2-z
1/2-x,1/2+y,1/2-z
1/2-x,1/2-y,1/2-z
1/2+x,1/2+y,1/2-z
1/2-x,1/2+y,1/2+z
1/2+x,1/2-y,1/2+z
loop_
_atom_site_type_symbol
_atom_site_label
_atom_site_fract_x
_atom_site_fract_y
_atom_site_fract_z
Si Si1 0.163186 0.000000 0.577835
Si Si2 0.334127 0.855635 0.727130
Si Si3 0.335231 0.738413 0.500000
Si Si4 0.165741 0.138494 0.913450
Si Si5 0.331354 0.000000 0.055218
Si Si6 0.163912 0.200622 0.811708
Si Si7 0.162565 0.116329 0.500000
Si Si8 0.667957 0.000000 0.673387
O O1 0.196793 0.070720 0.546795
O O2 0.264567 0.000000 0.622237
O O3 0.000000 0.000000 0.594477
O O4 0.500000 0.860616 0.738385
O O5 0.254122 0.849715 0.776786
O O6 0.297798 0.785822 0.694573
O O7 0.280524 0.928239 0.701104
O O8 0.500000 0.755797 0.500000
O O9 0.289739 0.693980 0.545914
O O10 0.258757 0.814178 0.500000
O O11 0.201260 0.177994 0.864597
O O12 0.000000 0.116058 0.917295
O O13 0.264245 0.068632 0.918560
O O14 0.500000 0.000000 0.062266
O O15 0.289655 0.000000 0.000000
O O16 0.000000 0.186750 0.799770
O O17 0.000000 0.141006 0.500000
O O18 0.500000 0.000000 0.666606
#
# Coordination Sequence:
#
# PCOD8291414 Si02
#       8
#     8  16   8  16   8  16   8   8
#     4   9  20  38  55  77 111 153 188 222 271 324
#     4   9  19  36  55  79 112 142 175 222 277 323
#     4  10  21  34  56  86 112 144 183 222 268 326
#     4  10  21  37  58  82 110 145 181 220 271 328
#     4  11  23  38  55  78 109 142 180 227 270 319
#     4   9  19  36  57  79 106 142 182 222 263 322
#     4   9  20  38  55  75 113 152 186 227 270 318
#     4  10  21  34  56  84 111 141 175 229 281 320
#
# _framework density 17.946901
#
# number of rings (size 3 to 8) (size 9 to 14) (size 15 to 20)
#    0.000    2.455    0.909    0.818    2.545    4.000 
#    0.000    2.727    0.000    0.000    0.000    0.000 
#    0.000    0.000    0.000    0.000    0.000    0.000 
#
# Total GULP energy -545710.147746 kJ/mol
# GULP energy per Si atom -12402.503358 kJ/mol
# Density = 1.790605 g / cm^3
# Si number density = 17.946901 Si / 1000 Ang^3
#
#
#
# Elastic Constant Matrix: (Units=GPa)
#
#
# Indices 1 2 3 4 5 6 
#
# 1 47.7327 52.8154 47.3542 0.0000 0.0000 0.0000
# 2 52.8154 138.8055 69.4394 0.0000 0.0000 0.0000
# 3 47.3542 69.4394 145.2041 0.0000 0.0000 0.0000
# 4 0.0000 0.0000 0.0000 4.2069 0.0000 0.0000
# 5 0.0000 0.0000 0.0000 0.0000 32.9827 0.0000
# 6 0.0000 0.0000 0.0000 0.0000 0.0000 41.3283
#
#
#
# Elastic Compliance Matrix: (Units=1/GPa)
#
#
# Indices 1 2 3 4 5 6 
#
# 1 0.042248 -0.012070 -0.008006 0.000000 0.000000 0.000000
# 2 -0.012070 0.012918 -0.002241 0.000000 0.000000 0.000000
# 3 -0.008006 -0.002241 0.010570 0.000000 0.000000 0.000000
# 4 0.000000 0.000000 0.000000 0.237703 0.000000 0.000000
# 5 0.000000 0.000000 0.000000 0.000000 0.030319 0.000000
# 6 0.000000 0.000000 0.000000 0.000000 0.000000 0.024197
#
#
# Mechanical properties :
#
#
# Convention : Reuss Voigt Hill
#
# Bulk Modulus (GPa) = 47.39126 74.55114 60.97120
# Shear Modulus (GPa) = 12.20635 26.51248 19.35942
#
# Velocity S-wave (km/s) = 2.61077 3.84770 3.28793
# Velocity P-wave (km/s) = 5.96254 7.83389 6.96138
#
# Compressibility (1/GPa) = 0.02110094
#
# Stress axis : x y z
#
# Youngs Moduli (GPa) = 23.66986 77.40906 94.61131
#
# Poissons Ratio (x) = 0.93435 0.75743
# Poissons Ratio (y) = 0.28570 0.21206
# Poissons Ratio (z) = 0.18949 0.17351
#
# Static dielectric constant tensor:
#      x y z
#    x 3.248640 0.000000 0.000000 
#    y 0.000000 3.078910 0.000000 
#    z 0.000000 0.000000 3.341340 
# 
# 
# High freq. dielectric constant tensor:
#      x y z
#    x 1.690590 0.000000 0.000000 
#    y 0.000000 1.702010 0.000000 
#    z 0.000000 0.000000 1.699690 
# 
# From -- ./inp_files/68110.got.cif
#   From: 2010.06.25/outbox.cif.g09.slc.cpg/sg71_35_cif.got.tgz:68110.got - 2010.06.28 04:59:45.
