data_PCOD8291663
_publ_section_title
;
Structure prediction by ZEFSAII (Michael W. Deem and Ramdas Pophale) SiO2 
 PCOD8291663
Probable space group: I M M M
;
_chemical_formula_sum "Si O2"
_cell_formula_units_Z 72
_cell_length_a 14.318828
_cell_length_b 30.315557
_cell_length_c 8.740407
_cell_angle_alpha 90.000000
_cell_angle_beta 90.000000
_cell_angle_gamma 90.000000
_cell_volume 3794.064245
_symmetry_space_group_name_H-M "I M M M"
_symmetry_group_IT_number 71
_symmetry_cell_setting 'orthorhombic'
loop_
_space_group_symop_operation_xyz
x,y,z
-x,-y,z
x,-y,-z
-x,y,-z
-x,-y,-z
x,y,-z
-x,y,z
x,-y,z
1/2+x,1/2+y,1/2+z
1/2-x,1/2-y,1/2+z
1/2+x,1/2-y,1/2-z
1/2-x,1/2+y,1/2-z
1/2-x,1/2-y,1/2-z
1/2+x,1/2+y,1/2-z
1/2-x,1/2+y,1/2+z
1/2+x,1/2-y,1/2+z
loop_
_atom_site_type_symbol
_atom_site_label
_atom_site_fract_x
_atom_site_fract_y
_atom_site_fract_z
Si Si1 0.689308 0.711846 0.676616
Si Si2 0.679232 0.129989 0.823032
Si Si3 0.500000 0.169011 0.678278
Si Si4 0.000000 0.765226 0.319310
Si Si5 0.799550 0.049248 0.817165
Si Si6 0.000000 0.947921 0.166348
O O1 0.674533 0.723450 0.500000
O O2 0.750000 0.750000 0.750000
O O3 0.739871 0.665613 0.700746
O O4 0.589579 0.708990 0.757502
O O5 0.590583 0.140615 0.719605
O O6 0.719813 0.083215 0.764408
O O7 0.647917 0.128138 0.000000
O O8 0.500000 0.180103 0.500000
O O9 0.500000 0.214361 0.770483
O O10 0.000000 0.766478 0.500000
O O11 0.901850 0.064145 0.748824
O O12 0.772256 0.000000 0.760101
O O13 0.808678 0.049837 0.000000
O O14 0.000000 0.000000 0.142387
O O15 0.000000 0.924395 0.000000
#
# Coordination Sequence:
#
# PCOD8291663 Si02
#       6
#    16  16   8   8  16   8
#     4  11  22  36  56  83 115 149 186 229 279 334
#     4  10  21  36  57  83 112 144 185 233 280 333
#     4  12  24  38  58  78 104 145 191 234 285 346
#     4  12  24  39  59  82 113 148 189 238 285 336
#     4   8  14  27  50  81 114 146 180 223 274 326
#     4   7  10  19  40  72 108 139 166 203 259 320
#
# _framework density 18.977011999999998
#
# number of rings (size 3 to 8) (size 9 to 14) (size 15 to 20)
#    0.000    2.111    2.222    4.000    0.000    1.778 
#    0.000    3.889    0.000    4.000    0.000    0.000 
#    0.000    3.556    0.000    0.000    0.000    0.000 
#
# Total GULP energy -446243.853451 kJ/mol
# GULP energy per Si atom -12395.662596 kJ/mol
# Density = 1.893382 g / cm^3
# Si number density = 18.977012 Si / 1000 Ang^3
#
#
#
# Elastic Constant Matrix: (Units=GPa)
#
#
# Indices 1 2 3 4 5 6 
#
# 1 137.4788 42.5577 53.3045 -0.0001 0.0011 -0.0054
# 2 42.5577 89.0724 31.9019 -0.0058 0.0026 -0.0045
# 3 53.3045 31.9019 92.2282 -0.0153 -0.0016 -0.0009
# 4 -0.0001 -0.0058 -0.0153 14.9684 0.0008 -0.0005
# 5 0.0011 0.0026 -0.0016 0.0008 29.5937 0.0005
# 6 -0.0054 -0.0045 -0.0009 -0.0005 0.0005 16.8329
#
#
#
# Elastic Compliance Matrix: (Units=1/GPa)
#
#
# Indices 1 2 3 4 5 6 
#
# 1 0.010079 -0.003115 -0.004748 -0.000006 0.000000 0.000002
# 2 -0.003115 0.013777 -0.002965 0.000002 -0.000001 0.000003
# 3 -0.004748 -0.002965 0.014612 0.000014 0.000001 -0.000002
# 4 -0.000006 0.000002 0.000014 0.066807 -0.000002 0.000002
# 5 0.000000 -0.000001 0.000001 -0.000002 0.033791 -0.000001
# 6 0.000002 0.000003 -0.000002 0.000002 -0.000001 0.059407
#
#
# Mechanical properties :
#
#
# Convention : Reuss Voigt Hill
#
# Bulk Modulus (GPa) = 59.47965 63.81194 61.64579
# Shear Modulus (GPa) = 22.14990 25.01336 23.58163
#
# Velocity S-wave (km/s) = 3.42013 3.63449 3.52894
# Velocity P-wave (km/s) = 6.85620 7.16321 7.01138
#
# Compressibility (1/GPa) = 0.01681247
#
# Stress axis : x y z
#
# Youngs Moduli (GPa) = 99.21602 72.58377 68.43535
#
# Poissons Ratio (x) = 0.22611 0.32491
# Poissons Ratio (y) = 0.30908 0.20292
# Poissons Ratio (z) = 0.47105 0.21522
#
# Static dielectric constant tensor:
#      x y z
#    x 3.749280 0.000040 0.000010 
#    y 0.000040 3.602040 -0.000010 
#    z 0.000010 -0.000010 3.218290 
# 
# 
# High freq. dielectric constant tensor:
#      x y z
#    x 1.751340 0.000000 0.000000 
#    y 0.000000 1.727930 0.000000 
#    z 0.000000 0.000000 1.701840 
# 
# From -- ./inp_files/6220.got.cif
#   From: 2010.06.25/outbox.cif.g09.slc.cpg/sg71_4_cif.got.tgz:6220.got - 2010.06.28 04:59:45.
