data_PCOD8291868
_publ_section_title
;
Structure prediction by ZEFSAII (Michael W. Deem and Ramdas Pophale) SiO2 
 PCOD8291868
Probable space group: I M M M
;
_chemical_formula_sum "Si O2"
_cell_formula_units_Z 104
_cell_length_a 9.060237
_cell_length_b 19.657917
_cell_length_c 29.681216
_cell_angle_alpha 90.000000
_cell_angle_beta 90.000000
_cell_angle_gamma 90.000000
_cell_volume 5286.384461
_symmetry_space_group_name_H-M "I M M M"
_symmetry_group_IT_number 71
_symmetry_cell_setting 'orthorhombic'
loop_
_space_group_symop_operation_xyz
x,y,z
-x,-y,z
x,-y,-z
-x,y,-z
-x,-y,-z
x,y,-z
-x,y,z
x,-y,z
1/2+x,1/2+y,1/2+z
1/2-x,1/2-y,1/2+z
1/2+x,1/2-y,1/2-z
1/2-x,1/2+y,1/2-z
1/2-x,1/2-y,1/2-z
1/2+x,1/2+y,1/2-z
1/2-x,1/2+y,1/2+z
1/2+x,1/2-y,1/2+z
loop_
_atom_site_type_symbol
_atom_site_label
_atom_site_fract_x
_atom_site_fract_y
_atom_site_fract_z
Si Si1 0.163890 0.882005 0.311912
Si Si2 0.677060 0.000000 0.257967
Si Si3 0.173941 0.750111 0.798120
Si Si4 0.328043 0.000000 0.451791
Si Si5 0.171389 0.145788 0.125510
Si Si6 0.673385 0.232591 0.947797
Si Si7 0.661034 0.620351 0.913115
Si Si8 0.328533 0.500000 0.662939
O O1 0.261808 0.816043 0.321470
O O2 0.138971 0.905628 0.362350
O O3 0.000000 0.869319 0.289688
O O4 0.254784 0.933849 0.281373
O O5 0.722208 0.000000 0.205960
O O6 0.500000 0.000000 0.262756
O O7 0.250000 0.750000 0.750000
O O8 0.220089 0.814628 0.828779
O O9 0.000000 0.745371 0.791781
O O10 0.283973 0.929995 0.429709
O O11 0.500000 0.000000 0.454254
O O12 0.251243 0.000000 0.500000
O O13 0.254225 0.171586 0.080830
O O14 0.206745 0.066182 0.132741
O O15 0.000000 0.158870 0.116797
O O16 0.500000 0.220621 0.946030
O O17 0.717344 0.303128 0.923077
O O18 0.728785 0.231916 0.000000
O O19 0.500000 0.612169 0.936875
O O20 0.500000 0.500000 0.678721
#
# Coordination Sequence:
#
# PCOD8291868 Si02
#       8
#    16   8  16   8  16  16  16   8
#     4  11  22  38  59  84 117 160 203 247 296 352
#     4  12  25  39  58  90 127 166 207 253 304 363
#     4  11  22  36  58  89 122 159 202 250 302 362
#     4  11  24  37  52  80 116 153 194 245 298 347
#     4  10  22  40  63  90 121 156 200 251 310 370
#     4  10  21  39  64  92 121 157 205 259 312 369
#     4  10  21  38  60  84 114 158 205 248 298 355
#     4  10  22  43  66  89 120 161 203 250 305 374
#
# _framework density 19.673181
#
# number of rings (size 3 to 8) (size 9 to 14) (size 15 to 20)
#    0.000    1.462    1.538    3.692    0.000    7.692 
#    0.000    0.385    0.000    2.308    0.000    0.000 
#    0.000    0.000    0.000    0.000    0.000    0.000 
#
# Total GULP energy -644475.580987 kJ/mol
# GULP energy per Si atom -12393.761173 kJ/mol
# Density = 1.962840 g / cm^3
# Si number density = 19.673181 Si / 1000 Ang^3
#
#
#
# Elastic Constant Matrix: (Units=GPa)
#
#
# Indices 1 2 3 4 5 6 
#
# 1 87.4174 47.7071 45.7132 0.0000 0.0000 0.0000
# 2 47.7071 137.1984 46.6761 0.0000 0.0000 0.0000
# 3 45.7132 46.6761 114.2752 0.0000 0.0000 0.0000
# 4 0.0000 0.0000 0.0000 8.2074 0.0000 0.0000
# 5 0.0000 0.0000 0.0000 0.0000 24.1560 0.0000
# 6 0.0000 0.0000 0.0000 0.0000 0.0000 33.8521
#
#
#
# Elastic Compliance Matrix: (Units=1/GPa)
#
#
# Indices 1 2 3 4 5 6 
#
# 1 0.016130 -0.003965 -0.004833 0.000000 0.000000 0.000000
# 2 -0.003965 0.009439 -0.002270 0.000000 0.000000 0.000000
# 3 -0.004833 -0.002270 0.011611 0.000000 0.000000 0.000000
# 4 0.000000 0.000000 0.000000 0.121841 0.000000 0.000000
# 5 0.000000 0.000000 0.000000 0.000000 0.041398 0.000000
# 6 0.000000 0.000000 0.000000 0.000000 0.000000 0.029540
#
#
# Mechanical properties :
#
#
# Convention : Reuss Voigt Hill
#
# Bulk Modulus (GPa) = 66.46203 68.78709 67.62456
# Shear Modulus (GPa) = 19.44686 26.49607 22.97146
#
# Velocity S-wave (km/s) = 3.14745 3.67387 3.42080
# Velocity P-wave (km/s) = 6.86039 7.28267 7.07468
#
# Compressibility (1/GPa) = 0.01504619
#
# Stress axis : x y z
#
# Youngs Moduli (GPa) = 61.99445 105.93831 86.12323
#
# Poissons Ratio (x) = 0.42001 0.41626
# Poissons Ratio (y) = 0.24579 0.19547
# Poissons Ratio (z) = 0.29964 0.24044
#
# Static dielectric constant tensor:
#      x y z
#    x 1.316950 0.000000 0.000000 
#    y 0.000000 3.448580 0.000000 
#    z 0.000000 0.000000 3.784880 
# 
# 
# High freq. dielectric constant tensor:
#      x y z
#    x 1.769300 0.000000 0.000000 
#    y 0.000000 1.768040 0.000000 
#    z 0.000000 0.000000 1.767870 
# 
# From -- ./inp_files/68326.got.cif
#   From: 2010.06.25/outbox.cif.g09.slc.cpg/sg71_35_cif.got.tgz:68326.got - 2010.06.28 04:59:45.
