data_PCOD8291304
_publ_section_title
;
Structure prediction by ZEFSAII (Michael W. Deem and Ramdas Pophale) SiO2 
 PCOD8291304
Probable space group: I M M M
;
_chemical_formula_sum "Si O2"
_cell_formula_units_Z 72
_cell_length_a 10.120436
_cell_length_b 24.212384
_cell_length_c 15.447656
_cell_angle_alpha 90.000000
_cell_angle_beta 90.000000
_cell_angle_gamma 90.000000
_cell_volume 3785.291814
_symmetry_space_group_name_H-M "I M M M"
_symmetry_group_IT_number 71
_symmetry_cell_setting 'orthorhombic'
loop_
_space_group_symop_operation_xyz
x,y,z
-x,-y,z
x,-y,-z
-x,y,-z
-x,-y,-z
x,y,-z
-x,y,z
x,-y,z
1/2+x,1/2+y,1/2+z
1/2-x,1/2-y,1/2+z
1/2+x,1/2-y,1/2-z
1/2-x,1/2+y,1/2-z
1/2-x,1/2-y,1/2-z
1/2+x,1/2+y,1/2-z
1/2-x,1/2+y,1/2+z
1/2+x,1/2-y,1/2+z
loop_
_atom_site_type_symbol
_atom_site_label
_atom_site_fract_x
_atom_site_fract_y
_atom_site_fract_z
Si Si1 0.157578 0.704184 0.500000
Si Si2 0.000000 0.436785 0.405882
Si Si3 0.845978 0.617257 0.834592
Si Si4 0.261023 0.124710 0.846779
Si Si5 0.157144 0.500000 0.902682
Si Si6 0.000000 0.937588 0.102090
Si Si7 0.653038 0.191792 0.500000
O O1 0.201665 0.673243 0.587448
O O2 0.241313 0.759790 0.500000
O O3 0.000000 0.716035 0.500000
O O4 0.870029 0.423174 0.352625
O O5 0.000000 0.500000 0.426739
O O6 0.000000 0.404879 0.500000
O O7 0.765732 0.643862 0.753503
O O8 0.794263 0.554961 0.852961
O O9 0.817682 0.654866 0.916823
O O10 0.000000 0.617012 0.811647
O O11 0.122649 0.097816 0.867218
O O12 0.000000 0.500000 0.908852
O O13 0.215644 0.500000 0.000000
O O14 0.000000 0.000000 0.140875
O O15 0.000000 0.941944 0.000000
O O16 0.500000 0.213101 0.500000
#
# Coordination Sequence:
#
# PCOD8291304 Si02
#       7
#     8   8  16  16   8   8   8
#     4  12  24  44  64  88 120 160 210 271 314 359
#     4  11  20  34  58  90 124 158 198 243 302 368
#     4  10  20  37  62  97 124 159 206 253 300 369
#     4  12  22  39  62  90 125 162 205 249 310 366
#     4   9  16  30  60  92 129 156 194 251 305 352
#     4  11  24  40  58  88 134 172 202 243 302 380
#     4  10  24  43  66  89 121 162 213 259 312 365
#
# _framework density 19.020990000000001
#
# number of rings (size 3 to 8) (size 9 to 14) (size 15 to 20)
#    0.000    1.222    5.556    0.667    4.667    2.667 
#    2.000    0.000    0.000    0.000    0.000    2.333 
#    0.000    0.000    0.000    0.000    0.000    0.000 
#
# Total GULP energy -446304.886702 kJ/mol
# GULP energy per Si atom -12397.357964 kJ/mol
# Density = 1.897770 g / cm^3
# Si number density = 19.020990 Si / 1000 Ang^3
#
#
#
# Elastic Constant Matrix: (Units=GPa)
#
#
# Indices 1 2 3 4 5 6 
#
# 1 132.4226 62.9447 45.5337 -0.0002 0.0000 -0.0003
# 2 62.9447 122.3467 61.1564 -0.0002 0.0000 0.0016
# 3 45.5337 61.1564 157.5857 -0.0016 0.0003 0.0041
# 4 -0.0002 -0.0002 -0.0016 57.5593 0.0004 0.0053
# 5 0.0000 0.0000 0.0003 0.0004 23.9858 0.0000
# 6 -0.0003 0.0016 0.0041 0.0053 0.0000 -478.9237
#
#
#
# Elastic Compliance Matrix: (Units=1/GPa)
#
#
# Indices 1 2 3 4 5 6 
#
# 1 0.010154 -0.004662 -0.001125 0.000000 0.000000 0.000000
# 2 -0.004662 0.012281 -0.003419 0.000000 0.000000 0.000000
# 3 -0.001125 -0.003419 0.007998 0.000000 0.000000 0.000000
# 4 0.000000 0.000000 0.000000 0.017373 0.000000 0.000000
# 5 0.000000 0.000000 0.000000 0.000000 0.041691 0.000000
# 6 0.000000 0.000000 0.000000 0.000000 0.000000 -0.002088
#
#
# Mechanical properties :
#
#
# Convention : Reuss Voigt Hill
#
# Bulk Modulus (GPa) = 83.18484 83.51382 83.34933
# Shear Modulus (GPa) = 45.52562 -63.29438 -8.88438
#
# Velocity S-wave (km/s) = 4.89759 -5.77480 -2.16355
# Velocity P-wave (km/s) = 8.70689 0.68041 6.13787
#
# Compressibility (1/GPa) = 0.01202142
#
# Stress axis : x y z
#
# Youngs Moduli (GPa) = 98.48037 81.42682 125.03712
#
# Poissons Ratio (x) = 0.37960 0.14065
# Poissons Ratio (y) = 0.45911 0.42750
# Poissons Ratio (z) = 0.11077 0.27840
#
# Static dielectric constant tensor:
#      x y z
#    x 3.960540 0.000000 0.000000 
#    y 0.000000 3.437320 0.000000 
#    z 0.000000 0.000000 3.815590 
# 
# 
# High freq. dielectric constant tensor:
#      x y z
#    x 1.716290 0.000000 0.000000 
#    y 0.000000 1.730600 0.000000 
#    z 0.000000 0.000000 1.758190 
# 
# From -- ./inp_files/14407.got.cif
#   From: 2010.06.25/outbox.cif.g09.slc.cpg/sg71_8_cif.got.tgz:14407.got - 2010.06.28 04:59:45.
