data_PCOD8291651
_publ_section_title
;
Structure prediction by ZEFSAII (Michael W. Deem and Ramdas Pophale) SiO2 
 PCOD8291651
Probable space group: I M M M
;
_chemical_formula_sum "Si O2"
_cell_formula_units_Z 80
_cell_length_a 14.821139
_cell_length_b 28.461418
_cell_length_c 9.360642
_cell_angle_alpha 90.000000
_cell_angle_beta 90.000000
_cell_angle_gamma 90.000000
_cell_volume 3948.605534
_symmetry_space_group_name_H-M "I M M M"
_symmetry_group_IT_number 71
_symmetry_cell_setting 'orthorhombic'
loop_
_space_group_symop_operation_xyz
x,y,z
-x,-y,z
x,-y,-z
-x,y,-z
-x,-y,-z
x,y,-z
-x,y,z
x,-y,z
1/2+x,1/2+y,1/2+z
1/2-x,1/2-y,1/2+z
1/2+x,1/2-y,1/2-z
1/2-x,1/2+y,1/2-z
1/2-x,1/2-y,1/2-z
1/2+x,1/2+y,1/2-z
1/2-x,1/2+y,1/2+z
1/2+x,1/2-y,1/2+z
loop_
_atom_site_type_symbol
_atom_site_label
_atom_site_fract_x
_atom_site_fract_y
_atom_site_fract_z
Si Si1 0.758135 0.447171 0.163969
Si Si2 0.100050 0.180286 0.347952
Si Si3 0.670575 0.775618 0.165933
Si Si4 0.393557 0.597020 0.664657
Si Si5 0.604227 0.866279 0.333293
O O1 0.794264 0.500000 0.188306
O O2 0.666194 0.441490 0.254536
O O3 0.838118 0.412021 0.210967
O O4 0.731768 0.438465 0.000000
O O5 0.152238 0.171579 0.500000
O O6 0.093481 0.235903 0.318143
O O7 0.141813 0.148193 0.222585
O O8 0.000000 0.160914 0.365114
O O9 0.750000 0.750000 0.250000
O O10 0.639951 0.822787 0.241787
O O11 0.694303 0.786035 0.000000
O O12 0.368445 0.595781 0.500000
O O13 0.500000 0.587148 0.688118
O O14 0.615128 0.854136 0.500000
O O15 0.500000 0.876401 0.295095
#
# Coordination Sequence:
#
# PCOD8291651 Si02
#       5
#    16  16  16  16  16
#     4  10  22  40  61  84 110 145 192 243 295 352
#     4   9  18  33  52  74 104 143 182 217 258 317
#     4  11  22  35  54  82 116 152 190 232 280 336
#     4  10  21  36  56  85 119 152 187 232 288 348
#     4  10  22  40  61  86 117 153 195 245 298 349
#
# _framework density 20.260318000000002
#
# number of rings (size 3 to 8) (size 9 to 14) (size 15 to 20)
#    0.000    2.000    0.000    3.000    0.000   10.800 
#    0.000    6.000    0.000    0.000    0.000    2.800 
#    0.000    0.000    0.000    0.000    0.000    0.000 
#
# Total GULP energy -495613.730095 kJ/mol
# GULP energy per Si atom -12390.343252 kJ/mol
# Density = 2.021420 g / cm^3
# Si number density = 20.260318 Si / 1000 Ang^3
#
#
#
# Elastic Constant Matrix: (Units=GPa)
#
#
# Indices 1 2 3 4 5 6 
#
# 1 103.4857 59.4428 67.1725 0.0005 -0.0002 -0.0001
# 2 59.4428 145.4766 66.6067 -0.0014 0.0000 -0.0001
# 3 67.1725 66.6067 114.1655 0.0011 0.0012 -0.0003
# 4 0.0005 -0.0014 0.0011 30.8725 0.0004 -0.0001
# 5 -0.0002 0.0000 0.0012 0.0004 24.9443 0.0001
# 6 -0.0001 -0.0001 -0.0003 -0.0001 0.0001 28.7733
#
#
#
# Elastic Compliance Matrix: (Units=1/GPa)
#
#
# Indices 1 2 3 4 5 6 
#
# 1 0.016635 -0.003160 -0.007944 0.000000 0.000001 0.000000
# 2 -0.003160 0.009980 -0.003963 0.000001 0.000000 0.000000
# 3 -0.007944 -0.003963 0.015745 -0.000001 -0.000001 0.000000
# 4 0.000000 0.000001 -0.000001 0.032391 0.000000 0.000000
# 5 0.000001 0.000000 -0.000001 0.000000 0.040089 0.000000
# 6 0.000000 0.000000 0.000000 0.000000 0.000000 0.034754
#
#
# Mechanical properties :
#
#
# Convention : Reuss Voigt Hill
#
# Bulk Modulus (GPa) = 81.79412 83.28578 82.53995
# Shear Modulus (GPa) = 27.20293 28.24508 27.72400
#
# Velocity S-wave (km/s) = 3.66822 3.73783 3.70319
# Velocity P-wave (km/s) = 7.64201 7.73470 7.68849
#
# Compressibility (1/GPa) = 0.01222582
#
# Stress axis : x y z
#
# Youngs Moduli (GPa) = 60.11566 100.20396 63.51060
#
# Poissons Ratio (x) = 0.31663 0.50452
# Poissons Ratio (y) = 0.18996 0.25170
# Poissons Ratio (z) = 0.47755 0.39712
#
# Static dielectric constant tensor:
#      x y z
#    x 3.715930 -0.002200 -0.000010 
#    y -0.002200 -7.155010 -0.000450 
#    z -0.000010 -0.000450 3.819750 
# 
# 
# High freq. dielectric constant tensor:
#      x y z
#    x 1.786650 0.000000 0.000000 
#    y 0.000000 1.791030 0.000000 
#    z 0.000000 0.000000 1.793100 
# 
# From -- ./inp_files/8330.got.cif
#   From: 2010.06.25/outbox.cif.g09.slc.cpg/sg71_5_cif.got.tgz:8330.got - 2010.06.28 04:59:45.
