data_PCOD8291477
_publ_section_title
;
Structure prediction by ZEFSAII (Michael W. Deem and Ramdas Pophale) SiO2 
 PCOD8291477
Probable space group: I M M M
;
_chemical_formula_sum "Si O2"
_cell_formula_units_Z 96
_cell_length_a 18.437518
_cell_length_b 28.419786
_cell_length_c 9.376241
_cell_angle_alpha 90.000000
_cell_angle_beta 90.000000
_cell_angle_gamma 90.000000
_cell_volume 4913.059484
_symmetry_space_group_name_H-M "I M M M"
_symmetry_group_IT_number 71
_symmetry_cell_setting 'orthorhombic'
loop_
_space_group_symop_operation_xyz
x,y,z
-x,-y,z
x,-y,-z
-x,y,-z
-x,-y,-z
x,y,-z
-x,y,z
x,-y,z
1/2+x,1/2+y,1/2+z
1/2-x,1/2-y,1/2+z
1/2+x,1/2-y,1/2-z
1/2-x,1/2+y,1/2-z
1/2-x,1/2-y,1/2-z
1/2+x,1/2+y,1/2-z
1/2-x,1/2+y,1/2+z
1/2+x,1/2-y,1/2+z
loop_
_atom_site_type_symbol
_atom_site_label
_atom_site_fract_x
_atom_site_fract_y
_atom_site_fract_z
Si Si1 0.584975 0.401541 0.165190
Si Si2 0.917792 0.185216 0.158662
Si Si3 0.337347 0.053958 0.334628
Si Si4 0.798908 0.054121 0.156601
Si Si5 0.316248 0.228067 0.337883
Si Si6 0.081055 0.646069 0.832413
O O1 0.500000 0.408910 0.193068
O O2 0.613269 0.351665 0.226291
O O3 0.627252 0.440893 0.253571
O O4 0.604894 0.404980 0.000000
O O5 0.879091 0.234243 0.169495
O O6 0.000000 0.196231 0.197441
O O7 0.909881 0.163338 0.000000
O O8 0.315271 0.056047 0.500000
O O9 0.268975 0.073570 0.245905
O O10 0.401361 0.091045 0.300479
O O11 0.360414 0.000000 0.294341
O O12 0.785193 0.000000 0.132360
O O13 0.803470 0.078777 0.000000
O O14 0.289377 0.219342 0.500000
O O15 0.250000 0.250000 0.250000
O O16 0.354712 0.180719 0.272593
O O17 0.000000 0.656111 0.768476
O O18 0.078295 0.655664 0.000000
#
# Coordination Sequence:
#
# PCOD8291477 Si02
#       6
#    16  16  16  16  16  16
#     4  10  21  35  53  78 106 138 178 227 281 332
#     4   9  18  34  54  74 101 140 183 224 267 319
#     4   9  18  33  55  84 114 144 181 227 277 329
#     4  10  21  36  54  76 106 145 184 224 271 328
#     4  10  21  35  53  80 110 144 184 228 273 322
#     4   9  18  34  57  84 113 146 184 227 277 330
#
# _framework density 19.539759
#
# number of rings (size 3 to 8) (size 9 to 14) (size 15 to 20)
#    0.000    2.500    0.000    1.500    2.333    5.333 
#    0.000    3.333    0.000    3.000    0.000    2.333 
#    0.000    0.000    0.000    0.000    0.000    0.000 
#
# Total GULP energy -594789.279882 kJ/mol
# GULP energy per Si atom -12391.443331 kJ/mol
# Density = 1.949529 g / cm^3
# Si number density = 19.539759 Si / 1000 Ang^3
#
#
#
# Elastic Constant Matrix: (Units=GPa)
#
#
# Indices 1 2 3 4 5 6 
#
# 1 93.0642 56.6337 48.1621 0.0000 0.0000 0.0000
# 2 56.6337 78.8505 27.6301 0.0000 0.0000 0.0000
# 3 48.1621 27.6301 86.4479 -0.0005 -0.0003 0.0000
# 4 0.0000 0.0000 -0.0005 22.1075 0.0000 0.0000
# 5 0.0000 0.0000 -0.0003 0.0000 23.4536 0.0000
# 6 0.0000 0.0000 0.0000 0.0000 0.0000 31.7680
#
#
#
# Elastic Compliance Matrix: (Units=1/GPa)
#
#
# Indices 1 2 3 4 5 6 
#
# 1 0.023842 -0.014043 -0.008795 0.000000 0.000000 0.000000
# 2 -0.014043 0.022553 0.000615 0.000000 0.000000 0.000000
# 3 -0.008795 0.000615 0.016271 0.000000 0.000000 0.000000
# 4 0.000000 0.000000 0.000000 0.045234 0.000000 0.000000
# 5 0.000000 0.000000 0.000000 0.000000 0.042637 0.000000
# 6 0.000000 0.000000 0.000000 0.000000 0.000000 0.031478
#
#
# Mechanical properties :
#
#
# Convention : Reuss Voigt Hill
#
# Bulk Modulus (GPa) = 54.88067 58.13492 56.50779
# Shear Modulus (GPa) = 21.50231 23.86161 22.68196
#
# Velocity S-wave (km/s) = 3.32089 3.49833 3.41076
# Velocity P-wave (km/s) = 6.54614 6.79224 6.67033
#
# Compressibility (1/GPa) = 0.01822135
#
# Stress axis : x y z
#
# Youngs Moduli (GPa) = 41.94218 44.34064 61.45983
#
# Poissons Ratio (x) = 0.62266 0.54053
# Poissons Ratio (y) = 0.58898 -0.03782
# Poissons Ratio (z) = 0.36887 -0.02729
#
# Static dielectric constant tensor:
#      x y z
#    x 3.820250 0.000000 0.000000 
#    y 0.000000 3.633160 0.000000 
#    z 0.000000 0.000000 3.875050 
# 
# 
# High freq. dielectric constant tensor:
#      x y z
#    x 1.758110 0.000000 0.000000 
#    y 0.000000 1.761570 0.000000 
#    z 0.000000 0.000000 1.739320 
# 
# From -- ./inp_files/10913.got.cif
#   From: 2010.06.25/outbox.cif.g09.slc.cpg/sg71_6_cif.got.tgz:10913.got - 2010.06.28 04:59:45.
