data_PCOD8291311
_publ_section_title
;
Structure prediction by ZEFSAII (Michael W. Deem and Ramdas Pophale) SiO2 
 PCOD8291311
Probable space group: I M M M
;
_chemical_formula_sum "Si O2"
_cell_formula_units_Z 88
_cell_length_a 7.728286
_cell_length_b 28.758418
_cell_length_c 19.518956
_cell_angle_alpha 90.000000
_cell_angle_beta 90.000000
_cell_angle_gamma 90.000000
_cell_volume 4338.151978
_symmetry_space_group_name_H-M "I M M M"
_symmetry_group_IT_number 71
_symmetry_cell_setting 'orthorhombic'
loop_
_space_group_symop_operation_xyz
x,y,z
-x,-y,z
x,-y,-z
-x,y,-z
-x,-y,-z
x,y,-z
-x,y,z
x,-y,z
1/2+x,1/2+y,1/2+z
1/2-x,1/2-y,1/2+z
1/2+x,1/2-y,1/2-z
1/2-x,1/2+y,1/2-z
1/2-x,1/2-y,1/2-z
1/2+x,1/2+y,1/2-z
1/2-x,1/2+y,1/2+z
1/2+x,1/2-y,1/2+z
loop_
_atom_site_type_symbol
_atom_site_label
_atom_site_fract_x
_atom_site_fract_y
_atom_site_fract_z
Si Si1 0.299639 0.891532 0.367165
Si Si2 0.802413 0.301258 0.661703
Si Si3 0.000000 0.150640 0.078115
Si Si4 0.297783 0.551770 0.000000
Si Si5 0.695350 0.053073 0.236173
Si Si6 0.500000 0.447090 0.631196
Si Si7 0.195617 0.801036 0.310061
O O1 0.500000 0.882435 0.361311
O O2 0.260430 0.920086 0.434391
O O3 0.231660 0.919168 0.301149
O O4 0.209645 0.840929 0.367853
O O5 0.673358 0.331700 0.615789
O O6 0.737838 0.247527 0.657893
O O7 0.798758 0.316678 0.741701
O O8 0.000000 0.307576 0.634736
O O9 0.000000 0.094006 0.075457
O O10 0.000000 0.168584 0.000000
O O11 0.213495 0.500000 0.000000
O O12 0.500000 0.546522 0.000000
O O13 0.500000 0.068485 0.214380
O O14 0.825958 0.061016 0.174290
O O15 0.694207 0.000000 0.259812
O O16 0.500000 0.500000 0.600221
O O17 0.000000 0.793123 0.286477
#
# Coordination Sequence:
#
# PCOD8291311 Si02
#       7
#    16  16   8   8  16   8  16
#     4  11  22  35  56  85 116 160 203 255 312 370
#     4  10  22  41  65  94 124 163 204 255 307 363
#     4  12  26  43  64  92 127 169 202 244 299 370
#     4  11  25  41  55  75 115 169 219 261 313 380
#     4   9  19  35  57  88 120 151 196 254 306 353
#     4  10  22  39  64  93 120 154 195 245 304 360
#     4  10  20  37  64  94 124 152 203 260 310 361
#
# _framework density 20.285136000000001
#
# number of rings (size 3 to 8) (size 9 to 14) (size 15 to 20)
#    0.000    1.727    0.909    3.000    5.091    4.182 
#    1.636    0.000    0.000    0.000    0.000    3.818 
#    0.000    0.000    0.000    0.000    0.000    0.000 
#
# Total GULP energy -545509.687089 kJ/mol
# GULP energy per Si atom -12397.947434 kJ/mol
# Density = 2.023897 g / cm^3
# Si number density = 20.285136 Si / 1000 Ang^3
#
#
#
# Elastic Constant Matrix: (Units=GPa)
#
#
# Indices 1 2 3 4 5 6 
#
# 1 88.1163 28.5303 24.0281 0.0000 0.0000 0.0000
# 2 28.5303 134.5959 58.2399 0.0001 0.0000 0.0000
# 3 24.0281 58.2399 68.5421 -0.0001 0.0000 0.0000
# 4 0.0000 0.0001 -0.0001 30.1519 0.0000 0.0000
# 5 0.0000 0.0000 0.0000 0.0000 16.3422 0.0000
# 6 0.0000 0.0000 0.0000 0.0000 0.0000 25.1157
#
#
#
# Elastic Compliance Matrix: (Units=1/GPa)
#
#
# Indices 1 2 3 4 5 6 
#
# 1 0.012671 -0.001208 -0.003416 0.000000 0.000000 0.000000
# 2 -0.001208 0.011865 -0.009658 0.000000 0.000000 0.000000
# 3 -0.003416 -0.009658 0.023993 0.000000 0.000000 0.000000
# 4 0.000000 0.000000 0.000000 0.033165 0.000000 0.000000
# 5 0.000000 0.000000 0.000000 0.000000 0.061191 0.000000
# 6 0.000000 0.000000 0.000000 0.000000 0.000000 0.039816
#
#
# Mechanical properties :
#
#
# Convention : Reuss Voigt Hill
#
# Bulk Modulus (GPa) = 50.08487 56.98346 53.53417
# Shear Modulus (GPa) = 22.94424 26.35237 24.64830
#
# Velocity S-wave (km/s) = 3.36681 3.60821 3.48960
# Velocity P-wave (km/s) = 6.31331 6.74619 6.53334
#
# Compressibility (1/GPa) = 0.01996611
#
# Stress axis : x y z
#
# Youngs Moduli (GPa) = 78.91954 84.28367 41.67845
#
# Poissons Ratio (x) = 0.10181 0.14236
# Poissons Ratio (y) = 0.09533 0.40253
# Poissons Ratio (z) = 0.26956 0.81400
#
# Static dielectric constant tensor:
#      x y z
#    x 3.803820 0.000000 0.000000 
#    y 0.000000 4.020840 0.000000 
#    z 0.000000 0.000000 3.365330 
# 
# 
# High freq. dielectric constant tensor:
#      x y z
#    x 1.805700 0.000000 0.000000 
#    y 0.000000 1.812960 0.000000 
#    z 0.000000 0.000000 1.748130 
# 
# From -- ./inp_files/42564.got.cif
#   From: 2010.06.25/outbox.cif.g09.slc.cpg/sg71_22_cif.got.tgz:42564.got - 2010.06.28 04:59:45.
