data_PCOD8291887
_publ_section_title
;
Structure prediction by ZEFSAII (Michael W. Deem and Ramdas Pophale) SiO2 
 PCOD8291887
Probable space group: I M M M
;
_chemical_formula_sum "Si O2"
_cell_formula_units_Z 104
_cell_length_a 8.591793
_cell_length_b 26.860876
_cell_length_c 22.776084
_cell_angle_alpha 90.000000
_cell_angle_beta 90.000000
_cell_angle_gamma 90.000000
_cell_volume 5256.334961
_symmetry_space_group_name_H-M "I M M M"
_symmetry_group_IT_number 71
_symmetry_cell_setting 'orthorhombic'
loop_
_space_group_symop_operation_xyz
x,y,z
-x,-y,z
x,-y,-z
-x,y,-z
-x,-y,-z
x,y,-z
-x,y,z
x,-y,z
1/2+x,1/2+y,1/2+z
1/2-x,1/2-y,1/2+z
1/2+x,1/2-y,1/2-z
1/2-x,1/2+y,1/2-z
1/2-x,1/2-y,1/2-z
1/2+x,1/2+y,1/2-z
1/2-x,1/2+y,1/2+z
1/2+x,1/2-y,1/2+z
loop_
_atom_site_type_symbol
_atom_site_label
_atom_site_fract_x
_atom_site_fract_y
_atom_site_fract_z
Si Si1 0.817217 0.557261 0.247856
Si Si2 0.682113 0.904359 0.124012
Si Si3 0.683050 0.298490 0.065166
Si Si4 0.674648 0.500000 0.569068
Si Si5 0.182297 0.134609 0.327319
Si Si6 0.180375 0.300729 0.730506
Si Si7 0.679637 0.694408 0.608673
O O1 0.766786 0.500000 0.257597
O O2 0.772391 0.589151 0.306453
O O3 0.724213 0.577386 0.189215
O O4 0.000000 0.560831 0.235313
O O5 0.500000 0.895600 0.120754
O O6 0.759523 0.858999 0.085715
O O7 0.729363 0.953099 0.090065
O O8 0.500000 0.294899 0.062588
O O9 0.730741 0.344515 0.108075
O O10 0.738274 0.244188 0.085976
O O11 0.750798 0.309806 0.000000
O O12 0.500000 0.500000 0.595775
O O13 0.666194 0.500000 0.500000
O O14 0.298972 0.161903 0.283487
O O15 0.000000 0.145521 0.316440
O O16 0.250000 0.250000 0.750000
O O17 0.285245 0.316160 0.676336
O O18 0.000000 0.296772 0.712212
O O19 0.500000 0.701274 0.594401
#
# Coordination Sequence:
#
# PCOD8291887 Si02
#       7
#    16  16  16   8  16  16  16
#     4  10  21  38  60  88 122 155 192 245 306 364
#     4  11  22  39  62  87 119 159 203 249 301 360
#     4  10  23  43  63  84 118 163 206 248 297 360
#     4  11  25  43  61  83 115 157 208 261 304 349
#     4  11  22  36  60  91 120 154 197 245 303 367
#     4  12  22  34  54  84 120 155 191 235 288 349
#     4  12  24  37  58  89 122 157 198 247 299 353
#
# _framework density 19.785648999999999
#
# number of rings (size 3 to 8) (size 9 to 14) (size 15 to 20)
#    0.000    1.000    3.846    3.923    0.000    3.077 
#    0.000    0.000    0.000    0.462    0.000    3.231 
#    0.000    0.000    0.000    0.000    0.000    0.000 
#
# Total GULP energy -644218.993314 kJ/mol
# GULP energy per Si atom -12388.826794 kJ/mol
# Density = 1.974062 g / cm^3
# Si number density = 19.785649 Si / 1000 Ang^3
#
#
#
# Elastic Constant Matrix: (Units=GPa)
#
#
# Indices 1 2 3 4 5 6 
#
# 1 31.7961 18.2637 23.3126 0.0000 0.0000 0.0000
# 2 18.2637 76.7406 29.5304 0.0000 0.0000 0.0000
# 3 23.3126 29.5304 100.3802 0.0000 0.0000 0.0000
# 4 0.0000 0.0000 0.0000 16.0703 0.0000 0.0000
# 5 0.0000 0.0000 0.0000 0.0000 21.7720 0.0000
# 6 0.0000 0.0000 0.0000 0.0000 0.0000 33.2145
#
#
#
# Elastic Compliance Matrix: (Units=1/GPa)
#
#
# Indices 1 2 3 4 5 6 
#
# 1 0.040866 -0.006849 -0.007476 0.000000 0.000000 0.000000
# 2 -0.006849 0.015842 -0.003070 0.000000 0.000000 0.000000
# 3 -0.007476 -0.003070 0.012601 0.000000 0.000000 0.000000
# 4 0.000000 0.000000 0.000000 0.062226 0.000000 0.000000
# 5 0.000000 0.000000 0.000000 0.000000 0.045931 0.000000
# 6 0.000000 0.000000 0.000000 0.000000 0.000000 0.030107
#
#
# Mechanical properties :
#
#
# Convention : Reuss Voigt Hill
#
# Bulk Modulus (GPa) = 28.96884 39.01448 33.99166
# Shear Modulus (GPa) = 19.69510 23.39870 21.54690
#
# Velocity S-wave (km/s) = 3.15846 3.44264 3.30361
# Velocity P-wave (km/s) = 5.28907 5.96353 5.63640
#
# Compressibility (1/GPa) = 0.03451984
#
# Stress axis : x y z
#
# Youngs Moduli (GPa) = 24.47035 63.12237 79.35569
#
# Poissons Ratio (x) = 0.43232 0.59326
# Poissons Ratio (y) = 0.16760 0.24362
# Poissons Ratio (z) = 0.18294 0.19378
#
# Static dielectric constant tensor:
#      x y z
#    x 3.604110 0.000000 0.000000 
#    y 0.000000 3.867790 0.000000 
#    z 0.000000 0.000000 3.840630 
# 
# 
# High freq. dielectric constant tensor:
#      x y z
#    x 1.772490 0.000000 0.000000 
#    y 0.000000 1.782810 0.000000 
#    z 0.000000 0.000000 1.751350 
# 
# From -- ./inp_files/50892.got.cif
#   From: 2010.06.25/outbox.cif.g09.slc.cpg/sg71_26_cif.got.tgz:50892.got - 2010.06.28 04:59:45.
