data_PCOD8291867
_publ_section_title
;
Structure prediction by ZEFSAII (Michael W. Deem and Ramdas Pophale) SiO2 
 PCOD8291867
Probable space group: I M M M
;
_chemical_formula_sum "Si O2"
_cell_formula_units_Z 88
_cell_length_a 9.129862
_cell_length_b 16.384154
_cell_length_c 29.313281
_cell_angle_alpha 90.000000
_cell_angle_beta 90.000000
_cell_angle_gamma 90.000000
_cell_volume 4384.829044
_symmetry_space_group_name_H-M "I M M M"
_symmetry_group_IT_number 71
_symmetry_cell_setting 'orthorhombic'
loop_
_space_group_symop_operation_xyz
x,y,z
-x,-y,z
x,-y,-z
-x,y,-z
-x,-y,-z
x,y,-z
-x,y,z
x,-y,z
1/2+x,1/2+y,1/2+z
1/2-x,1/2-y,1/2+z
1/2+x,1/2-y,1/2-z
1/2-x,1/2+y,1/2-z
1/2-x,1/2-y,1/2-z
1/2+x,1/2+y,1/2-z
1/2-x,1/2+y,1/2+z
1/2+x,1/2-y,1/2+z
loop_
_atom_site_type_symbol
_atom_site_label
_atom_site_fract_x
_atom_site_fract_y
_atom_site_fract_z
Si Si1 0.333284 0.910820 0.587928
Si Si2 0.333190 0.746653 0.622723
Si Si3 0.161412 0.096558 0.500000
Si Si4 0.669879 0.149317 0.052932
Si Si5 0.326094 0.500000 0.598270
Si Si6 0.826177 0.000000 0.797674
Si Si7 0.671812 0.680426 0.720410
O O1 0.500000 0.918429 0.571582
O O2 0.318978 0.845216 0.629038
O O3 0.244618 0.875314 0.545160
O O4 0.275677 0.000000 0.604475
O O5 0.500000 0.722914 0.609330
O O6 0.220730 0.726479 0.582313
O O7 0.288423 0.700245 0.668337
O O8 0.000000 0.137355 0.500000
O O9 0.149673 0.000000 0.500000
O O10 0.500000 0.129209 0.061237
O O11 0.769029 0.076504 0.070640
O O12 0.701228 0.167111 0.000000
O O13 0.500000 0.500000 0.598257
O O14 0.266206 0.500000 0.650389
O O15 0.776183 0.085039 0.772012
O O16 0.000000 0.000000 0.799834
O O17 0.500000 0.688887 0.730155
O O18 0.750000 0.750000 0.750000
#
# Coordination Sequence:
#
# PCOD8291867 Si02
#       7
#    16  16   8  16   8   8  16
#     4   9  18  33  52  75 105 144 191 242 288 332
#     4  10  21  38  60  84 113 154 202 246 292 358
#     4   9  17  29  47  71 101 142 189 234 283 345
#     4  11  24  38  54  85 127 163 197 247 302 349
#     4  11  20  38  65  88 116 162 208 243 281 347
#     4   9  18  38  66  89 120 160 197 243 300 357
#     4  10  21  41  65  92 120 151 194 245 300 360
#
# _framework density 20.069199000000001
#
# number of rings (size 3 to 8) (size 9 to 14) (size 15 to 20)
#    0.000    2.091    1.818    1.364    1.273    5.091 
#    1.636    0.455    0.000    0.000    0.000    0.000 
#    0.000    0.000    0.000    0.000    0.000    0.000 
#
# Total GULP energy -545170.546110 kJ/mol
# GULP energy per Si atom -12390.239684 kJ/mol
# Density = 2.002352 g / cm^3
# Si number density = 20.069199 Si / 1000 Ang^3
#
#
#
# Elastic Constant Matrix: (Units=GPa)
#
#
# Indices 1 2 3 4 5 6 
#
# 1 67.4147 37.5749 33.5030 0.0000 0.0000 0.0000
# 2 37.5749 161.1590 56.2290 0.0000 0.0000 0.0000
# 3 33.5030 56.2290 66.3245 0.0000 0.0000 0.0000
# 4 0.0000 0.0000 0.0000 80.4382 0.0000 0.0000
# 5 0.0000 0.0000 0.0000 0.0000 21.6516 0.0000
# 6 0.0000 0.0000 0.0000 0.0000 0.0000 24.4046
#
#
#
# Elastic Compliance Matrix: (Units=1/GPa)
#
#
# Indices 1 2 3 4 5 6 
#
# 1 0.020101 -0.001624 -0.008776 0.000000 0.000000 0.000000
# 2 -0.001624 0.008943 -0.006761 0.000000 0.000000 0.000000
# 3 -0.008776 -0.006761 0.025243 0.000000 0.000000 0.000000
# 4 0.000000 0.000000 0.000000 0.012432 0.000000 0.000000
# 5 0.000000 0.000000 0.000000 0.000000 0.046186 0.000000
# 6 0.000000 0.000000 0.000000 0.000000 0.000000 0.040976
#
#
# Mechanical properties :
#
#
# Convention : Reuss Voigt Hill
#
# Bulk Modulus (GPa) = 50.09450 61.05688 55.57569
# Shear Modulus (GPa) = 25.65983 36.47164 31.06573
#
# Velocity S-wave (km/s) = 3.57959 4.26760 3.93864
# Velocity P-wave (km/s) = 6.48842 7.40084 6.95960
#
# Compressibility (1/GPa) = 0.01996227
#
# Stress axis : x y z
#
# Youngs Moduli (GPa) = 49.74991 111.82283 39.61572
#
# Poissons Ratio (x) = 0.18165 0.34768
# Poissons Ratio (y) = 0.08081 0.26784
# Poissons Ratio (z) = 0.43662 0.75603
#
# Static dielectric constant tensor:
#      x y z
#    x 3.625060 0.000000 0.000000 
#    y 0.000000 3.158420 0.000000 
#    z 0.000000 0.000000 3.458910 
# 
# 
# High freq. dielectric constant tensor:
#      x y z
#    x 1.768050 0.000000 0.000000 
#    y 0.000000 1.809870 0.000000 
#    z 0.000000 0.000000 1.751830 
# 
# From -- ./inp_files/68077.got.cif
#   From: 2010.06.25/outbox.cif.g09.slc.cpg/sg71_35_cif.got.tgz:68077.got - 2010.06.28 04:59:45.
