data_PCOD8291654
_publ_section_title
;
Structure prediction by ZEFSAII (Michael W. Deem and Ramdas Pophale) SiO2 
 PCOD8291654
Probable space group: I M M M
;
_chemical_formula_sum "Si O2"
_cell_formula_units_Z 72
_cell_length_a 23.303227
_cell_length_b 7.959951
_cell_length_c 19.091315
_cell_angle_alpha 90.000000
_cell_angle_beta 90.000000
_cell_angle_gamma 90.000000
_cell_volume 3541.296608
_symmetry_space_group_name_H-M "I M M M"
_symmetry_group_IT_number 71
_symmetry_cell_setting 'orthorhombic'
loop_
_space_group_symop_operation_xyz
x,y,z
-x,-y,z
x,-y,-z
-x,y,-z
-x,-y,-z
x,y,-z
-x,y,z
x,-y,z
1/2+x,1/2+y,1/2+z
1/2-x,1/2-y,1/2+z
1/2+x,1/2-y,1/2-z
1/2-x,1/2+y,1/2-z
1/2-x,1/2-y,1/2-z
1/2+x,1/2+y,1/2-z
1/2-x,1/2+y,1/2+z
1/2+x,1/2-y,1/2+z
loop_
_atom_site_type_symbol
_atom_site_label
_atom_site_fract_x
_atom_site_fract_y
_atom_site_fract_z
Si Si1 0.244962 0.310320 0.171284
Si Si2 0.933075 0.000000 0.923387
Si Si3 0.612357 0.192686 0.663205
Si Si4 0.435529 0.198595 0.813965
Si Si5 0.344670 0.194025 0.077569
O O1 0.266455 0.500000 0.166886
O O2 0.250000 0.250000 0.250000
O O3 0.179542 0.291223 0.148366
O O4 0.284301 0.206844 0.117988
O O5 0.917263 0.826406 0.886296
O O6 0.000000 0.000000 0.931042
O O7 0.903843 0.000000 0.000000
O O8 0.596304 0.245626 0.742083
O O9 0.591824 0.000000 0.648016
O O10 0.500000 0.275697 0.816304
O O11 0.396723 0.275088 0.876928
O O12 0.439114 0.000000 0.821264
O O13 0.358310 0.000000 0.068105
O O14 0.341661 0.278782 0.000000
#
# Coordination Sequence:
#
# PCOD8291654 Si02
#       5
#    16   8  16  16  16
#     4  11  22  37  61  88 119 157 201 253 310 368
#     4  11  26  44  64  94 125 159 208 262 319 378
#     4  10  22  40  64  92 124 163 206 257 314 375
#     4   9  17  33  58  86 117 156 203 249 300 365
#     4  10  21  36  56  86 122 158 198 248 304 360
#
# _framework density 20.331536
#
# number of rings (size 3 to 8) (size 9 to 14) (size 15 to 20)
#    0.000    1.889    2.222    1.333    3.111    3.556 
#    0.000    5.556    0.000    0.000    0.000    1.556 
#    0.000    0.000    0.000    0.000    0.000    0.000 
#
# Total GULP energy -446253.946259 kJ/mol
# GULP energy per Si atom -12395.942952 kJ/mol
# Density = 2.028526 g / cm^3
# Si number density = 20.331536 Si / 1000 Ang^3
#
#
#
# Elastic Constant Matrix: (Units=GPa)
#
#
# Indices 1 2 3 4 5 6 
#
# 1 125.6825 21.5953 67.3443 0.0000 0.0000 0.0000
# 2 21.5953 65.3018 44.4987 0.0000 0.0000 0.0000
# 3 67.3443 44.4987 181.2724 0.0000 0.0000 0.0000
# 4 0.0000 0.0000 0.0000 20.0299 0.0000 0.0000
# 5 0.0000 0.0000 0.0000 0.0000 30.8677 0.0000
# 6 0.0000 0.0000 0.0000 0.0000 0.0000 25.3579
#
#
#
# Elastic Compliance Matrix: (Units=1/GPa)
#
#
# Indices 1 2 3 4 5 6 
#
# 1 0.009981 -0.000929 -0.003480 0.000000 0.000000 0.000000
# 2 -0.000929 0.018476 -0.004190 0.000000 0.000000 0.000000
# 3 -0.003480 -0.004190 0.007838 0.000000 0.000000 0.000000
# 4 0.000000 0.000000 0.000000 0.049925 0.000000 0.000000
# 5 0.000000 0.000000 0.000000 0.000000 0.032396 0.000000
# 6 0.000000 0.000000 0.000000 0.000000 0.000000 0.039435
#
#
# Mechanical properties :
#
#
# Convention : Reuss Voigt Hill
#
# Bulk Modulus (GPa) = 52.36676 71.01481 61.69079
# Shear Modulus (GPa) = 27.53055 31.17234 29.35145
#
# Velocity S-wave (km/s) = 3.68378 3.91986 3.80365
# Velocity P-wave (km/s) = 6.62616 7.44925 7.04973
#
# Compressibility (1/GPa) = 0.01909608
#
# Stress axis : x y z
#
# Youngs Moduli (GPa) = 100.19203 54.12356 127.58417
#
# Poissons Ratio (x) = 0.05030 0.44397
# Poissons Ratio (y) = 0.09312 0.53461
# Poissons Ratio (z) = 0.34865 0.22679
#
# Static dielectric constant tensor:
#      x y z
#    x 3.961550 0.000000 0.000000 
#    y 0.000000 3.532610 0.000000 
#    z 0.000000 0.000000 3.935700 
# 
# 
# High freq. dielectric constant tensor:
#      x y z
#    x 1.803920 0.000000 0.000000 
#    y 0.000000 1.777610 0.000000 
#    z 0.000000 0.000000 1.794150 
# 
# From -- ./inp_files/47909.got.cif
#   From: 2010.06.25/outbox.cif.g09.slc.cpg/sg71_24_cif.got.tgz:47909.got - 2010.06.28 04:59:45.
