data_PCOD8291919
_publ_section_title
;
Structure prediction by ZEFSAII (Michael W. Deem and Ramdas Pophale) SiO2 
 PCOD8291919
Probable space group: I M M M
;
_chemical_formula_sum "Si O2"
_cell_formula_units_Z 72
_cell_length_a 8.545194
_cell_length_b 14.738398
_cell_length_c 28.552225
_cell_angle_alpha 90.000000
_cell_angle_beta 90.000000
_cell_angle_gamma 90.000000
_cell_volume 3595.937745
_symmetry_space_group_name_H-M "I M M M"
_symmetry_group_IT_number 71
_symmetry_cell_setting 'orthorhombic'
loop_
_space_group_symop_operation_xyz
x,y,z
-x,-y,z
x,-y,-z
-x,y,-z
-x,-y,-z
x,y,-z
-x,y,z
x,-y,z
1/2+x,1/2+y,1/2+z
1/2-x,1/2-y,1/2+z
1/2+x,1/2-y,1/2-z
1/2-x,1/2+y,1/2-z
1/2-x,1/2-y,1/2-z
1/2+x,1/2+y,1/2-z
1/2-x,1/2+y,1/2+z
1/2+x,1/2-y,1/2+z
loop_
_atom_site_type_symbol
_atom_site_label
_atom_site_fract_x
_atom_site_fract_y
_atom_site_fract_z
Si Si1 0.678475 0.159803 0.639649
Si Si2 0.681455 0.500000 0.801008
Si Si3 0.683198 0.000000 0.200066
Si Si4 0.171823 0.893704 0.550761
Si Si5 0.185035 0.135618 0.129529
Si Si6 0.314625 0.000000 0.945417
O O1 0.500000 0.152637 0.656979
O O2 0.689512 0.131955 0.585552
O O3 0.742535 0.262355 0.639884
O O4 0.783002 0.091640 0.670245
O O5 0.500000 0.500000 0.787437
O O6 0.786817 0.500000 0.755073
O O7 0.761736 0.912966 0.176772
O O8 0.500000 0.000000 0.189631
O O9 0.209010 0.849949 0.500000
O O10 0.000000 0.859439 0.568384
O O11 0.165192 0.000000 0.545455
O O12 0.000000 0.130861 0.123334
O O13 0.257138 0.089993 0.082561
O O14 0.500000 0.000000 0.944851
O O15 0.255039 0.000000 0.000000
#
# Coordination Sequence:
#
# PCOD8291919 Si02
#       6
#    16   8   8  16  16   8
#     4  11  23  38  58  88 121 153 196 245 292 345
#     4  12  25  41  63  86 116 156 194 238 294 354
#     4  11  23  42  66  89 114 147 192 245 296 350
#     4   9  18  33  53  78 111 153 195 233 280 337
#     4  10  22  40  62  88 121 157 193 240 296 352
#     4  10  21  38  62  92 123 158 201 246 290 341
#
# _framework density 20.022594999999999
#
# number of rings (size 3 to 8) (size 9 to 14) (size 15 to 20)
#    0.000    1.667    1.111    5.667    0.000    6.667 
#    0.000    5.556    0.000    0.000    0.000    0.000 
#    0.000    0.000    0.000    0.000    0.000    0.000 
#
# Total GULP energy -446183.059368 kJ/mol
# GULP energy per Si atom -12393.973871 kJ/mol
# Density = 1.997702 g / cm^3
# Si number density = 20.022595 Si / 1000 Ang^3
#
#
#
# Elastic Constant Matrix: (Units=GPa)
#
#
# Indices 1 2 3 4 5 6 
#
# 1 60.4278 31.7113 17.0744 0.0000 0.0000 0.0000
# 2 31.7113 133.7908 56.4209 0.0000 0.0000 0.0000
# 3 17.0744 56.4209 123.8010 0.0000 0.0000 0.0000
# 4 0.0000 0.0000 0.0000 -14.9196 0.0000 0.0000
# 5 0.0000 0.0000 0.0000 0.0000 42.7668 0.0000
# 6 0.0000 0.0000 0.0000 0.0000 0.0000 18.9226
#
#
#
# Elastic Compliance Matrix: (Units=1/GPa)
#
#
# Indices 1 2 3 4 5 6 
#
# 1 0.018949 -0.004195 -0.000701 0.000000 0.000000 0.000000
# 2 -0.004195 0.010182 -0.004061 0.000000 0.000000 0.000000
# 3 -0.000701 -0.004061 0.010025 0.000000 0.000000 0.000000
# 4 0.000000 0.000000 0.000000 -0.067026 0.000000 0.000000
# 5 0.000000 0.000000 0.000000 0.000000 0.023383 0.000000
# 6 0.000000 0.000000 0.000000 0.000000 0.000000 0.052847
#
#
# Mechanical properties :
#
#
# Convention : Reuss Voigt Hill
#
# Bulk Modulus (GPa) = 47.08383 58.71476 52.89929
# Shear Modulus (GPa) = 68.16160 23.54149 45.85155
#
# Velocity S-wave (km/s) = 5.84091 3.43264 4.79058
# Velocity P-wave (km/s) = 8.30992 6.71555 7.55491
#
# Compressibility (1/GPa) = 0.02123872
#
# Stress axis : x y z
#
# Youngs Moduli (GPa) = 52.77456 98.21695 99.74881
#
# Poissons Ratio (x) = 0.41207 0.06995
# Poissons Ratio (y) = 0.22141 0.40513
# Poissons Ratio (z) = 0.03701 0.39891
#
# Static dielectric constant tensor:
#      x y z
#    x 3.672030 0.000000 0.000000 
#    y 0.000000 3.958530 0.000000 
#    z 0.000000 0.000000 3.824530 
# 
# 
# High freq. dielectric constant tensor:
#      x y z
#    x 1.785550 0.000000 0.000000 
#    y 0.000000 1.778690 0.000000 
#    z 0.000000 0.000000 1.784620 
# 
# From -- ./inp_files/62909.got.cif
#   From: 2010.06.25/outbox.cif.g09.slc.cpg/sg71_32_cif.got.tgz:62909.got - 2010.06.28 04:59:45.
