data_PCOD8291725
_publ_section_title
;
Structure prediction by ZEFSAII (Michael W. Deem and Ramdas Pophale) SiO2 
 PCOD8291725
Probable space group: I M M M
;
_chemical_formula_sum "Si O2"
_cell_formula_units_Z 88
_cell_length_a 7.817786
_cell_length_b 19.072276
_cell_length_c 29.248043
_cell_angle_alpha 90.000000
_cell_angle_beta 90.000000
_cell_angle_gamma 90.000000
_cell_volume 4360.970145
_symmetry_space_group_name_H-M "I M M M"
_symmetry_group_IT_number 71
_symmetry_cell_setting 'orthorhombic'
loop_
_space_group_symop_operation_xyz
x,y,z
-x,-y,z
x,-y,-z
-x,y,-z
-x,-y,-z
x,y,-z
-x,y,z
x,-y,z
1/2+x,1/2+y,1/2+z
1/2-x,1/2-y,1/2+z
1/2+x,1/2-y,1/2-z
1/2-x,1/2+y,1/2-z
1/2-x,1/2-y,1/2-z
1/2+x,1/2+y,1/2-z
1/2-x,1/2+y,1/2+z
1/2+x,1/2-y,1/2+z
loop_
_atom_site_type_symbol
_atom_site_label
_atom_site_fract_x
_atom_site_fract_y
_atom_site_fract_z
Si Si1 0.694663 0.817847 0.277206
Si Si2 0.296509 0.921540 0.550973
Si Si3 0.000000 0.580966 0.553708
Si Si4 0.299758 0.349054 0.391799
Si Si5 0.700826 0.421244 0.297571
Si Si6 0.799400 0.311517 0.122754
O O1 0.500000 0.805962 0.289101
O O2 0.750000 0.750000 0.250000
O O3 0.720638 0.887767 0.247942
O O4 0.785753 0.823264 0.326954
O O5 0.228506 0.903654 0.500000
O O6 0.500000 0.916861 0.550865
O O7 0.215886 0.866182 0.586884
O O8 0.238232 0.000000 0.565014
O O9 0.824307 0.614475 0.572050
O O10 0.000000 0.500000 0.567754
O O11 0.000000 0.592209 0.500000
O O12 0.500000 0.366585 0.402433
O O13 0.246997 0.376322 0.341643
O O14 0.262697 0.266793 0.394416
O O15 0.500000 0.421635 0.291281
O O16 0.773020 0.500000 0.302851
O O17 0.000000 0.326197 0.124652
#
# Coordination Sequence:
#
# PCOD8291725 Si02
#       6
#    16  16   8  16  16  16
#     4  11  21  34  53  79 114 150 186 235 293 348
#     4   8  14  26  46  74 109 146 183 229 285 343
#     4  11  26  44  62  90 123 153 197 251 301 363
#     4  10  21  40  63  87 117 156 198 246 302 354
#     4  10  21  37  56  80 112 151 198 244 289 352
#     4   9  18  32  53  82 114 150 195 241 290 350
#
# _framework density 20.178995
#
# number of rings (size 3 to 8) (size 9 to 14) (size 15 to 20)
#    0.000    2.273    1.818    1.636    1.273    3.273 
#    1.636    4.545    0.000    0.000    0.000    0.000 
#    0.000    2.182    0.000    0.182    0.000    0.000 
#
# Total GULP energy -545442.250661 kJ/mol
# GULP energy per Si atom -12396.414788 kJ/mol
# Density = 2.013307 g / cm^3
# Si number density = 20.178995 Si / 1000 Ang^3
#
#
#
# Elastic Constant Matrix: (Units=GPa)
#
#
# Indices 1 2 3 4 5 6 
#
# 1 49.0508 29.3931 33.6513 0.0000 0.0000 0.0000
# 2 29.3931 164.7264 101.8203 0.0000 0.0000 0.0000
# 3 33.6513 101.8203 161.8497 0.0000 0.0000 0.0000
# 4 0.0000 0.0000 0.0000 43.9213 0.0000 0.0000
# 5 0.0000 0.0000 0.0000 0.0000 20.7494 0.0000
# 6 0.0000 0.0000 0.0000 0.0000 0.0000 19.6248
#
#
#
# Elastic Compliance Matrix: (Units=1/GPa)
#
#
# Indices 1 2 3 4 5 6 
#
# 1 0.024165 -0.001974 -0.003783 0.000000 0.000000 0.000000
# 2 -0.001974 0.010095 -0.005940 0.000000 0.000000 0.000000
# 3 -0.003783 -0.005940 0.010702 0.000000 0.000000 0.000000
# 4 0.000000 0.000000 0.000000 0.022768 0.000000 0.000000
# 5 0.000000 0.000000 0.000000 0.000000 0.048194 0.000000
# 6 0.000000 0.000000 0.000000 0.000000 0.000000 0.050956
#
#
# Mechanical properties :
#
#
# Convention : Reuss Voigt Hill
#
# Bulk Modulus (GPa) = 46.36413 78.37291 62.36852
# Shear Modulus (GPa) = 25.32132 30.90991 28.11561
#
# Velocity S-wave (km/s) = 3.54621 3.91805 3.73676
# Velocity P-wave (km/s) = 6.30823 7.70658 7.04220
#
# Compressibility (1/GPa) = 0.02156840
#
# Stress axis : x y z
#
# Youngs Moduli (GPa) = 41.38242 99.06303 93.44050
#
# Poissons Ratio (x) = 0.19553 0.35344
# Poissons Ratio (y) = 0.08168 0.55505
# Poissons Ratio (z) = 0.15653 0.58845
#
# Static dielectric constant tensor:
#      x y z
#    x 3.518380 0.000000 0.000000 
#    y 0.000000 3.890680 0.000000 
#    z 0.000000 0.000000 3.878070 
# 
# 
# High freq. dielectric constant tensor:
#      x y z
#    x 1.761920 0.000000 0.000000 
#    y 0.000000 1.795390 0.000000 
#    z 0.000000 0.000000 1.792750 
# 
# From -- ./inp_files/68028.got.cif
#   From: 2010.06.25/outbox.cif.g09.slc.cpg/sg71_35_cif.got.tgz:68028.got - 2010.06.28 04:59:45.
