data_PCOD8291551
_publ_section_title
;
Structure prediction by ZEFSAII (Michael W. Deem and Ramdas Pophale) SiO2 
 PCOD8291551
Probable space group: I M M M
;
_chemical_formula_sum "Si O2"
_cell_formula_units_Z 72
_cell_length_a 23.925486
_cell_length_b 17.930968
_cell_length_c 8.916284
_cell_angle_alpha 90.000000
_cell_angle_beta 90.000000
_cell_angle_gamma 90.000000
_cell_volume 3825.149354
_symmetry_space_group_name_H-M "I M M M"
_symmetry_group_IT_number 71
_symmetry_cell_setting 'orthorhombic'
loop_
_space_group_symop_operation_xyz
x,y,z
-x,-y,z
x,-y,-z
-x,y,-z
-x,-y,-z
x,y,-z
-x,y,z
x,-y,z
1/2+x,1/2+y,1/2+z
1/2-x,1/2-y,1/2+z
1/2+x,1/2-y,1/2-z
1/2-x,1/2+y,1/2-z
1/2-x,1/2-y,1/2-z
1/2+x,1/2+y,1/2-z
1/2-x,1/2+y,1/2+z
1/2+x,1/2-y,1/2+z
loop_
_atom_site_type_symbol
_atom_site_label
_atom_site_fract_x
_atom_site_fract_y
_atom_site_fract_z
Si Si1 0.562960 0.000000 0.178951
Si Si2 0.436949 0.704589 0.821687
Si Si3 0.878943 0.646403 0.323429
Si Si4 0.246751 0.670067 0.323980
Si Si5 0.652994 0.585899 0.175715
O O1 0.591711 0.073774 0.246411
O O2 0.500000 0.000000 0.235405
O O3 0.567461 0.000000 0.000000
O O4 0.500000 0.698095 0.756916
O O5 0.406841 0.778587 0.755612
O O6 0.400886 0.632991 0.769997
O O7 0.439202 0.708235 0.000000
O O8 0.888534 0.649126 0.500000
O O9 0.814026 0.638312 0.283941
O O10 0.255801 0.679065 0.500000
O O11 0.250000 0.750000 0.250000
O O12 0.291927 0.612934 0.260528
O O13 0.641365 0.500000 0.215579
O O14 0.663499 0.597979 0.000000
#
# Coordination Sequence:
#
# PCOD8291551 Si02
#       5
#     8  16  16  16  16
#     4   9  16  26  42  70 107 137 162 207 268 316
#     4   9  16  29  50  74 101 136 178 223 272 321
#     4   9  17  28  45  72 104 135 170 215 264 318
#     4  11  21  35  56  79 108 141 180 223 269 322
#     4  10  21  36  53  79 113 143 178 224 272 322
#
# _framework density 18.822793999999998
#
# number of rings (size 3 to 8) (size 9 to 14) (size 15 to 20)
#    0.000    2.333    2.222    1.333    1.556    3.556 
#    0.000    2.222    0.000    0.667    0.000    1.556 
#    0.000    3.556    0.000    0.000    0.000    0.000 
#
# Total GULP energy -446348.000123 kJ/mol
# GULP energy per Si atom -12398.555559 kJ/mol
# Density = 1.877995 g / cm^3
# Si number density = 18.822794 Si / 1000 Ang^3
#
#
#
# Elastic Constant Matrix: (Units=GPa)
#
#
# Indices 1 2 3 4 5 6 
#
# 1 180.5973 104.6427 35.5415 0.0000 0.0000 0.0000
# 2 104.6427 186.2895 29.9424 0.0000 0.0000 0.0000
# 3 35.5415 29.9424 29.1214 0.0000 0.0000 0.0000
# 4 0.0000 0.0000 0.0000 17.2204 0.0000 0.0000
# 5 0.0000 0.0000 0.0000 0.0000 22.6738 0.0000
# 6 0.0000 0.0000 0.0000 0.0000 0.0000 39.1498
#
#
#
# Elastic Compliance Matrix: (Units=1/GPa)
#
#
# Indices 1 2 3 4 5 6 
#
# 1 0.009311 -0.004078 -0.007171 0.000000 0.000000 0.000000
# 2 -0.004078 0.008216 -0.003472 0.000000 0.000000 0.000000
# 3 -0.007171 -0.003472 0.046661 0.000000 0.000000 0.000000
# 4 0.000000 0.000000 0.000000 0.058071 0.000000 0.000000
# 5 0.000000 0.000000 0.000000 0.000000 0.044104 0.000000
# 6 0.000000 0.000000 0.000000 0.000000 0.000000 0.025543
#
#
# Mechanical properties :
#
#
# Convention : Reuss Voigt Hill
#
# Bulk Modulus (GPa) = 28.77916 81.80683 55.29300
# Shear Modulus (GPa) = 21.46575 30.86755 26.16665
#
# Velocity S-wave (km/s) = 3.38066 4.05396 3.73253
# Velocity P-wave (km/s) = 5.52822 8.09128 6.92929
#
# Compressibility (1/GPa) = 0.03474736
#
# Stress axis : x y z
#
# Youngs Moduli (GPa) = 107.39781 121.70686 21.43133
#
# Poissons Ratio (x) = 0.49628 0.15369
# Poissons Ratio (y) = 0.43793 0.07440
# Poissons Ratio (z) = 0.77018 0.42251
#
# Static dielectric constant tensor:
#      x y z
#    x 2.903880 0.000000 0.000000 
#    y 0.000000 3.672000 0.000000 
#    z 0.000000 0.000000 2.944600 
# 
# 
# High freq. dielectric constant tensor:
#      x y z
#    x 1.747490 0.000000 0.000000 
#    y 0.000000 1.745270 0.000000 
#    z 0.000000 0.000000 1.668360 
# 
# From -- ./inp_files/12160.got.cif
#   From: 2010.06.25/outbox.cif.g09.slc.cpg/sg71_7_cif.got.tgz:12160.got - 2010.06.28 04:59:45.
