data_PCOD8291973
_publ_section_title
;
Structure prediction by ZEFSAII (Michael W. Deem and Ramdas Pophale) SiO2 
 PCOD8291973
Probable space group: I M M M
;
_chemical_formula_sum "Si O2"
_cell_formula_units_Z 68
_cell_length_a 18.010319
_cell_length_b 16.425241
_cell_length_c 12.588336
_cell_angle_alpha 90.000000
_cell_angle_beta 90.000000
_cell_angle_gamma 90.000000
_cell_volume 3723.929770
_symmetry_space_group_name_H-M "I M M M"
_symmetry_group_IT_number 71
_symmetry_cell_setting 'orthorhombic'
loop_
_space_group_symop_operation_xyz
x,y,z
-x,-y,z
x,-y,-z
-x,y,-z
-x,-y,-z
x,y,-z
-x,y,z
x,-y,z
1/2+x,1/2+y,1/2+z
1/2-x,1/2-y,1/2+z
1/2+x,1/2-y,1/2-z
1/2-x,1/2+y,1/2-z
1/2-x,1/2-y,1/2-z
1/2+x,1/2+y,1/2-z
1/2-x,1/2+y,1/2+z
1/2+x,1/2-y,1/2+z
loop_
_atom_site_type_symbol
_atom_site_label
_atom_site_fract_x
_atom_site_fract_y
_atom_site_fract_z
Si Si1 0.366641 0.221961 0.721657
Si Si2 0.586452 0.089319 0.884525
Si Si3 0.500000 0.674121 0.373850
Si Si4 0.850711 0.000000 0.623051
Si Si5 0.000000 0.000000 0.239798
Si Si6 0.723322 0.667128 0.120662
O O1 0.400384 0.147999 0.786577
O O2 0.427972 0.276726 0.664404
O O3 0.323415 0.275114 0.805623
O O4 0.310947 0.183604 0.635099
O O5 0.500000 0.079930 0.897807
O O6 0.621113 0.000000 0.859383
O O7 0.618368 0.120131 0.000000
O O8 0.500000 0.669442 0.500000
O O9 0.500000 0.581736 0.330900
O O10 0.798550 0.075743 0.652368
O O11 0.874177 0.000000 0.500000
O O12 0.926726 0.000000 0.688511
O O13 0.701337 0.685598 0.000000
#
# Coordination Sequence:
#
# PCOD8291973 Si02
#       6
#    16  16   8   8   4  16
#     4  11  21  38  61  83 119 158 197 245 294 354
#     4   9  18  33  55  85 116 146 186 236 288 342
#     4  12  25  41  62  89 121 157 202 249 297 366
#     4  10  21  39  63  93 123 151 196 250 300 358
#     4  12  22  44  64  92 116 162 190 250 312 354
#     4  10  22  38  58  85 118 156 197 242 299 357
#
# _framework density 18.260280000000002
#
# number of rings (size 3 to 8) (size 9 to 14) (size 15 to 20)
#    0.000    1.647    3.529    2.471    1.647    0.000 
#    0.000    0.000    0.000    0.706    0.000    0.000 
#    0.000    0.000    0.000    0.000    0.000    0.000 
#
# Total GULP energy -421383.495922 kJ/mol
# GULP energy per Si atom -12393.632233 kJ/mol
# Density = 1.821872 g / cm^3
# Si number density = 18.260280 Si / 1000 Ang^3
#
#
#
# Elastic Constant Matrix: (Units=GPa)
#
#
# Indices 1 2 3 4 5 6 
#
# 1 110.1635 54.4568 41.9782 0.0000 0.0000 0.0000
# 2 54.4568 129.0354 57.3298 0.0000 0.0000 0.0000
# 3 41.9782 57.3298 94.1367 0.0000 0.0000 0.0000
# 4 0.0000 0.0000 0.0000 25.2256 0.0000 0.0000
# 5 0.0000 0.0000 0.0000 0.0000 25.9697 0.0000
# 6 0.0000 0.0000 0.0000 0.0000 0.0000 51.4349
#
#
#
# Elastic Compliance Matrix: (Units=1/GPa)
#
#
# Indices 1 2 3 4 5 6 
#
# 1 0.012110 -0.003717 -0.003136 0.000000 0.000000 0.000000
# 2 -0.003717 0.011766 -0.005508 0.000000 0.000000 0.000000
# 3 -0.003136 -0.005508 0.015376 0.000000 0.000000 0.000000
# 4 0.000000 0.000000 0.000000 0.039642 0.000000 0.000000
# 5 0.000000 0.000000 0.000000 0.000000 0.038506 0.000000
# 6 0.000000 0.000000 0.000000 0.000000 0.000000 0.019442
#
#
# Mechanical properties :
#
#
# Convention : Reuss Voigt Hill
#
# Bulk Modulus (GPa) = 68.82953 71.20725 70.01839
# Shear Modulus (GPa) = 30.04664 32.49742 31.27203
#
# Velocity S-wave (km/s) = 4.06083 4.22320 4.14281
# Velocity P-wave (km/s) = 7.73062 7.92849 7.83018
#
# Compressibility (1/GPa) = 0.01452865
#
# Stress axis : x y z
#
# Youngs Moduli (GPa) = 82.57551 84.99279 65.03788
#
# Poissons Ratio (x) = 0.31595 0.20398
# Poissons Ratio (y) = 0.30696 0.35821
# Poissons Ratio (z) = 0.25898 0.46811
#
# Static dielectric constant tensor:
#      x y z
#    x 3.462680 0.000000 0.000000 
#    y 0.000000 3.800590 0.000000 
#    z 0.000000 0.000000 3.511060 
# 
# 
# High freq. dielectric constant tensor:
#      x y z
#    x 1.702380 0.000000 0.000000 
#    y 0.000000 1.723790 0.000000 
#    z 0.000000 0.000000 1.713150 
# 
# From -- ./inp_files/23519.got.cif
#   From: 2010.06.25/outbox.cif.g09.slc.cpg/sg71_12_cif.got.tgz:23519.got - 2010.06.28 04:59:45.
