data_PCOD8291777
_publ_section_title
;
Structure prediction by ZEFSAII (Michael W. Deem and Ramdas Pophale) SiO2 
 PCOD8291777
Probable space group: I M M M
;
_chemical_formula_sum "Si O2"
_cell_formula_units_Z 88
_cell_length_a 24.577283
_cell_length_b 20.050767
_cell_length_c 9.248292
_cell_angle_alpha 90.000000
_cell_angle_beta 90.000000
_cell_angle_gamma 90.000000
_cell_volume 4557.497027
_symmetry_space_group_name_H-M "I M M M"
_symmetry_group_IT_number 71
_symmetry_cell_setting 'orthorhombic'
loop_
_space_group_symop_operation_xyz
x,y,z
-x,-y,z
x,-y,-z
-x,y,-z
-x,-y,-z
x,y,-z
-x,y,z
x,-y,z
1/2+x,1/2+y,1/2+z
1/2-x,1/2-y,1/2+z
1/2+x,1/2-y,1/2-z
1/2-x,1/2+y,1/2-z
1/2-x,1/2-y,1/2-z
1/2+x,1/2+y,1/2-z
1/2-x,1/2+y,1/2+z
1/2+x,1/2-y,1/2+z
loop_
_atom_site_type_symbol
_atom_site_label
_atom_site_fract_x
_atom_site_fract_y
_atom_site_fract_z
Si Si1 0.298358 0.924547 0.663321
Si Si2 0.000000 0.640487 0.839634
Si Si3 0.282004 0.692193 0.166856
Si Si4 0.404146 0.922248 0.834462
Si Si5 0.600259 0.356482 0.171815
Si Si6 0.438161 0.500000 0.829564
Si Si7 0.000000 0.796872 0.838242
O O1 0.320843 0.916228 0.500000
O O2 0.247303 0.877987 0.691934
O O3 0.345078 0.903959 0.774490
O O4 0.278669 0.000000 0.690866
O O5 0.947032 0.618792 0.754920
O O6 0.000000 0.718611 0.852380
O O7 0.000000 0.608247 0.000000
O O8 0.250000 0.750000 0.250000
O O9 0.343281 0.678135 0.222464
O O10 0.282308 0.713304 0.000000
O O11 0.417131 0.000000 0.816814
O O12 0.406886 0.899462 0.000000
O O13 0.595550 0.434346 0.219403
O O14 0.553035 0.317173 0.250787
O O15 0.593208 0.349872 0.000000
O O16 0.500000 0.500000 0.763843
O O17 0.444095 0.500000 0.000000
O O18 0.000000 0.828459 0.000000
#
# Coordination Sequence:
#
# PCOD8291777 Si02
#       7
#    16   8  16  16  16   8   8
#     4   9  19  37  59  84 116 154 194 236 285 342
#     4  11  24  38  56  81 112 152 193 236 287 342
#     4  10  23  39  60  88 119 156 198 245 292 346
#     4  10  21  37  58  85 114 145 187 239 290 342
#     4  10  21  39  63  90 117 153 197 240 292 351
#     4   9  16  32  62  94 120 148 190 247 294 345
#     4  11  25  41  57  83 119 156 191 236 289 347
#
# _framework density 19.308844000000001
#
# number of rings (size 3 to 8) (size 9 to 14) (size 15 to 20)
#    0.000    2.091    0.909    1.364    3.818    5.091 
#    0.000    0.909    0.000    0.000    0.000    0.000 
#    0.000    0.000    0.000    0.000    0.000    0.000 
#
# Total GULP energy -545562.858012 kJ/mol
# GULP energy per Si atom -12399.155864 kJ/mol
# Density = 1.926490 g / cm^3
# Si number density = 19.308844 Si / 1000 Ang^3
#
#
#
# Elastic Constant Matrix: (Units=GPa)
#
#
# Indices 1 2 3 4 5 6 
#
# 1 156.8664 74.7241 67.2549 0.0000 0.0000 0.0000
# 2 74.7241 79.0975 44.3851 0.0000 0.0000 0.0000
# 3 67.2549 44.3851 96.4820 0.0000 0.0000 0.0000
# 4 0.0000 0.0000 0.0000 29.3893 0.0000 0.0000
# 5 0.0000 0.0000 0.0000 0.0000 31.8344 0.0000
# 6 0.0000 0.0000 0.0000 0.0000 0.0000 34.1064
#
#
#
# Elastic Compliance Matrix: (Units=1/GPa)
#
#
# Indices 1 2 3 4 5 6 
#
# 1 0.012934 -0.009651 -0.004576 0.000000 0.000000 0.000000
# 2 -0.009651 0.024243 -0.004425 0.000000 0.000000 0.000000
# 3 -0.004576 -0.004425 0.015590 0.000000 0.000000 0.000000
# 4 0.000000 0.000000 0.000000 0.034026 0.000000 0.000000
# 5 0.000000 0.000000 0.000000 0.000000 0.031413 0.000000
# 6 0.000000 0.000000 0.000000 0.000000 0.000000 0.029320
#
#
# Mechanical properties :
#
#
# Convention : Reuss Voigt Hill
#
# Bulk Modulus (GPa) = 64.67177 78.35267 71.51222
# Shear Modulus (GPa) = 26.31774 28.80482 27.56128
#
# Velocity S-wave (km/s) = 3.69587 3.86657 3.78218
# Velocity P-wave (km/s) = 7.19574 7.78463 7.49597
#
# Compressibility (1/GPa) = 0.01546270
#
# Stress axis : x y z
#
# Youngs Moduli (GPa) = 77.31411 41.24844 64.14232
#
# Poissons Ratio (x) = 0.39810 0.29353
# Poissons Ratio (y) = 0.74617 0.28384
# Poissons Ratio (z) = 0.35381 0.18253
#
# Static dielectric constant tensor:
#      x y z
#    x 3.280790 0.000000 0.000000 
#    y 0.000000 3.645620 0.000000 
#    z 0.000000 0.000000 3.616760 
# 
# 
# High freq. dielectric constant tensor:
#      x y z
#    x 1.757230 0.000000 0.000000 
#    y 0.000000 1.757830 0.000000 
#    z 0.000000 0.000000 1.741940 
# 
# From -- ./inp_files/12617.got.cif
#   From: 2010.06.25/outbox.cif.g09.slc.cpg/sg71_7_cif.got.tgz:12617.got - 2010.06.28 04:59:45.
