data_PCOD8291007
_publ_section_title
;
Structure prediction by ZEFSAII (Michael W. Deem and Ramdas Pophale) SiO2 
 PCOD8291007
Probable space group: I M M M
;
_chemical_formula_sum "Si O2"
_cell_formula_units_Z 72
_cell_length_a 9.112619
_cell_length_b 23.317833
_cell_length_c 16.906489
_cell_angle_alpha 90.000000
_cell_angle_beta 90.000000
_cell_angle_gamma 90.000000
_cell_volume 3592.401149
_symmetry_space_group_name_H-M "I M M M"
_symmetry_group_IT_number 71
_symmetry_cell_setting 'orthorhombic'
loop_
_space_group_symop_operation_xyz
x,y,z
-x,-y,z
x,-y,-z
-x,y,-z
-x,-y,-z
x,y,-z
-x,y,z
x,-y,z
1/2+x,1/2+y,1/2+z
1/2-x,1/2-y,1/2+z
1/2+x,1/2-y,1/2-z
1/2-x,1/2+y,1/2-z
1/2-x,1/2-y,1/2-z
1/2+x,1/2+y,1/2-z
1/2-x,1/2+y,1/2+z
1/2+x,1/2-y,1/2+z
loop_
_atom_site_type_symbol
_atom_site_label
_atom_site_fract_x
_atom_site_fract_y
_atom_site_fract_z
Si Si1 0.840539 0.665572 0.907893
Si Si2 0.337223 0.561724 0.093964
Si Si3 0.675097 0.276996 0.673307
Si Si4 0.833723 0.000000 0.093503
Si Si5 0.826305 0.383966 0.407310
O O1 0.744953 0.615653 0.866649
O O2 0.785556 0.729984 0.893787
O O3 0.000000 0.659101 0.868731
O O4 0.845960 0.653594 0.000000
O O5 0.500000 0.563223 0.129002
O O6 0.263991 0.500000 0.116250
O O7 0.342319 0.568184 0.000000
O O8 0.500000 0.286607 0.684280
O O9 0.750000 0.250000 0.750000
O O10 0.751770 0.335350 0.646430
O O11 0.744963 0.943766 0.121402
O O12 0.000000 0.000000 0.128523
O O13 0.842159 0.000000 0.000000
O O14 0.792914 0.372500 0.500000
O O15 0.000000 0.385686 0.391626
#
# Coordination Sequence:
#
# PCOD8291007 Si02
#       5
#    16  16  16   8  16
#     4   9  18  32  51  75 101 131 170 216 265 318
#     4   8  14  25  43  69  99 128 159 200 249 297
#     4  11  23  38  55  76 108 147 187 230 279 336
#     4   9  17  31  55  87 119 149 182 225 280 337
#     4  10  20  35  58  88 118 148 186 232 283 340
#
# _framework density 20.042306
#
# number of rings (size 3 to 8) (size 9 to 14) (size 15 to 20)
#    0.000    2.556    0.000    3.000    0.000    5.778 
#    0.000    4.444    2.444    0.000    0.000    0.000 
#    0.000    0.000    0.000    0.000    0.000    0.000 
#
# Total GULP energy -446032.414142 kJ/mol
# GULP energy per Si atom -12389.789282 kJ/mol
# Density = 1.999669 g / cm^3
# Si number density = 20.042306 Si / 1000 Ang^3
#
#
#
# Elastic Constant Matrix: (Units=GPa)
#
#
# Indices 1 2 3 4 5 6 
#
# 1 132.5628 98.2910 34.9115 0.0000 0.0000 0.0000
# 2 98.2910 207.8758 35.8272 0.0000 0.0000 0.0000
# 3 34.9115 35.8272 35.1796 0.0000 0.0000 0.0000
# 4 0.0000 0.0000 0.0000 16.8399 0.0000 0.0000
# 5 0.0000 0.0000 0.0000 0.0000 20.8295 0.0000
# 6 0.0000 0.0000 0.0000 0.0000 0.0000 42.2981
#
#
#
# Elastic Compliance Matrix: (Units=1/GPa)
#
#
# Indices 1 2 3 4 5 6 
#
# 1 0.013342 -0.004884 -0.008266 0.000000 0.000000 0.000000
# 2 -0.004884 0.007622 -0.002916 0.000000 0.000000 0.000000
# 3 -0.008266 -0.002916 0.039599 0.000000 0.000000 0.000000
# 4 0.000000 0.000000 0.000000 0.059383 0.000000 0.000000
# 5 0.000000 0.000000 0.000000 0.000000 0.048009 0.000000
# 6 0.000000 0.000000 0.000000 0.000000 0.000000 0.023642
#
#
# Mechanical properties :
#
#
# Convention : Reuss Voigt Hill
#
# Bulk Modulus (GPa) = 35.17379 79.29752 57.23565
# Shear Modulus (GPa) = 21.44029 29.76606 25.60318
#
# Velocity S-wave (km/s) = 3.27425 3.85796 3.57803
# Velocity P-wave (km/s) = 5.64643 7.71337 6.75937
#
# Compressibility (1/GPa) = 0.02843026
#
# Stress axis : x y z
#
# Youngs Moduli (GPa) = 74.95256 131.19291 25.25328
#
# Poissons Ratio (x) = 0.64071 0.20876
# Poissons Ratio (y) = 0.36605 0.07364
# Poissons Ratio (z) = 0.61959 0.38258
#
# Static dielectric constant tensor:
#      x y z
#    x 3.992440 0.000000 0.000000 
#    y 0.000000 4.161800 0.000000 
#    z 0.000000 0.000000 3.239380 
# 
# 
# High freq. dielectric constant tensor:
#      x y z
#    x 1.786460 0.000000 0.000000 
#    y 0.000000 1.805110 0.000000 
#    z 0.000000 0.000000 1.734780 
# 
# From -- ./inp_files/42088.got.cif
#   From: 2010.06.25/outbox.cif.g09.slc.cpg/sg71_22_cif.got.tgz:42088.got - 2010.06.28 04:59:45.
