data_PCOD8291573
_publ_section_title
;
Structure prediction by ZEFSAII (Michael W. Deem and Ramdas Pophale) SiO2 
 PCOD8291573
Probable space group: I M M M
;
_chemical_formula_sum "Si O2"
_cell_formula_units_Z 88
_cell_length_a 28.681077
_cell_length_b 17.587939
_cell_length_c 9.156794
_cell_angle_alpha 90.000000
_cell_angle_beta 90.000000
_cell_angle_gamma 90.000000
_cell_volume 4619.062622
_symmetry_space_group_name_H-M "I M M M"
_symmetry_group_IT_number 71
_symmetry_cell_setting 'orthorhombic'
loop_
_space_group_symop_operation_xyz
x,y,z
-x,-y,z
x,-y,-z
-x,y,-z
-x,-y,-z
x,y,-z
-x,y,z
x,-y,z
1/2+x,1/2+y,1/2+z
1/2-x,1/2-y,1/2+z
1/2+x,1/2-y,1/2-z
1/2-x,1/2+y,1/2-z
1/2-x,1/2-y,1/2-z
1/2+x,1/2+y,1/2-z
1/2-x,1/2+y,1/2+z
1/2+x,1/2-y,1/2+z
loop_
_atom_site_type_symbol
_atom_site_label
_atom_site_fract_x
_atom_site_fract_y
_atom_site_fract_z
Si Si1 0.447436 0.000000 0.825435
Si Si2 0.888298 0.911274 0.829640
Si Si3 0.294259 0.088578 0.830392
Si Si4 0.703396 0.409616 0.835562
Si Si5 0.893161 0.645021 0.672955
Si Si6 0.053958 0.206544 0.329889
O O1 0.422015 0.074440 0.761316
O O2 0.500000 0.000000 0.767453
O O3 0.445608 0.000000 0.000000
O O4 0.841286 0.880253 0.753425
O O5 0.932332 0.868096 0.760922
O O6 0.895968 0.000000 0.798551
O O7 0.884405 0.893943 0.000000
O O8 0.250566 0.120506 0.739365
O O9 0.339112 0.137421 0.780632
O O10 0.304471 0.000000 0.798330
O O11 0.282735 0.100365 0.000000
O O12 0.704096 0.500000 0.833655
O O13 0.700536 0.377515 0.000000
O O14 0.897739 0.642005 0.500000
O O15 0.915164 0.723410 0.730842
O O16 0.063709 0.190959 0.500000
O O17 0.000000 0.225591 0.302396
#
# Coordination Sequence:
#
# PCOD8291573 Si02
#       6
#     8  16  16  16  16  16
#     4   9  14  22  42  72 105 141 183 225 258 293
#     4  10  21  38  59  80 101 130 172 218 265 322
#     4   9  15  26  47  75 108 144 180 214 250 296
#     4   9  17  30  51  79 108 135 167 211 264 316
#     4   9  16  28  46  74 109 144 180 217 257 300
#     4  10  21  36  54  78 109 141 173 216 268 313
#
# _framework density 19.051483999999999
#
# number of rings (size 3 to 8) (size 9 to 14) (size 15 to 20)
#    0.000    2.636    0.909    1.636    0.000    6.182 
#    0.000    3.636    0.000    0.000    0.000    0.000 
#    0.000    2.909    0.000    0.000    0.000    0.000 
#
# Total GULP energy -545611.606746 kJ/mol
# GULP energy per Si atom -12400.263790 kJ/mol
# Density = 1.900812 g / cm^3
# Si number density = 19.051484 Si / 1000 Ang^3
#
#
#
# Elastic Constant Matrix: (Units=GPa)
#
#
# Indices 1 2 3 4 5 6 
#
# 1 105.4762 48.8359 46.9605 0.0000 0.0000 0.0000
# 2 48.8359 74.9355 38.9673 0.0000 0.0000 0.0000
# 3 46.9605 38.9673 76.4058 0.0000 0.0000 0.0000
# 4 0.0000 0.0000 0.0000 13.8022 0.0000 0.0000
# 5 0.0000 0.0000 0.0000 0.0000 26.0811 0.0000
# 6 0.0000 0.0000 0.0000 0.0000 0.0000 31.2294
#
#
#
# Elastic Compliance Matrix: (Units=1/GPa)
#
#
# Indices 1 2 3 4 5 6 
#
# 1 0.015298 -0.006914 -0.005876 0.000000 0.000000 0.000000
# 2 -0.006914 0.021286 -0.006606 0.000000 0.000000 0.000000
# 3 -0.005876 -0.006606 0.020069 0.000000 0.000000 0.000000
# 4 0.000000 0.000000 0.000000 0.072452 0.000000 0.000000
# 5 0.000000 0.000000 0.000000 0.000000 0.038342 0.000000
# 6 0.000000 0.000000 0.000000 0.000000 0.000000 0.032021
#
#
# Mechanical properties :
#
#
# Convention : Reuss Voigt Hill
#
# Bulk Modulus (GPa) = 55.99245 58.48277 57.23761
# Shear Modulus (GPa) = 20.47363 22.35946 21.41654
#
# Velocity S-wave (km/s) = 3.28174 3.42955 3.35646
# Velocity P-wave (km/s) = 6.61919 6.81515 6.71788
#
# Compressibility (1/GPa) = 0.01785955
#
# Stress axis : x y z
#
# Youngs Moduli (GPa) = 65.36597 46.97854 49.82788
#
# Poissons Ratio (x) = 0.32482 0.29281
# Poissons Ratio (y) = 0.45196 0.32918
# Poissons Ratio (z) = 0.38412 0.31036
#
# Static dielectric constant tensor:
#      x y z
#    x 3.606270 0.000000 0.000000 
#    y 0.000000 3.336530 0.000000 
#    z 0.000000 0.000000 3.200820 
# 
# 
# High freq. dielectric constant tensor:
#      x y z
#    x 1.753590 0.000000 0.000000 
#    y 0.000000 1.720070 0.000000 
#    z 0.000000 0.000000 1.705920 
# 
# From -- ./inp_files/8720.got.cif
#   From: 2010.06.25/outbox.cif.g09.slc.cpg/sg71_5_cif.got.tgz:8720.got - 2010.06.28 04:59:45.
