data_PCOD8291461
_publ_section_title
;
Structure prediction by ZEFSAII (Michael W. Deem and Ramdas Pophale) SiO2 
 PCOD8291461
Probable space group: I M M M
;
_chemical_formula_sum "Si O2"
_cell_formula_units_Z 120
_cell_length_a 9.171306
_cell_length_b 26.803740
_cell_length_c 26.978754
_cell_angle_alpha 90.000000
_cell_angle_beta 90.000000
_cell_angle_gamma 90.000000
_cell_volume 6632.060336
_symmetry_space_group_name_H-M "I M M M"
_symmetry_group_IT_number 71
_symmetry_cell_setting 'orthorhombic'
loop_
_space_group_symop_operation_xyz
x,y,z
-x,-y,z
x,-y,-z
-x,y,-z
-x,-y,-z
x,y,-z
-x,y,z
x,-y,z
1/2+x,1/2+y,1/2+z
1/2-x,1/2-y,1/2+z
1/2+x,1/2-y,1/2-z
1/2-x,1/2+y,1/2-z
1/2-x,1/2-y,1/2-z
1/2+x,1/2+y,1/2-z
1/2-x,1/2+y,1/2+z
1/2+x,1/2-y,1/2+z
loop_
_atom_site_type_symbol
_atom_site_label
_atom_site_fract_x
_atom_site_fract_y
_atom_site_fract_z
Si Si1 0.329666 0.801136 0.739826
Si Si2 0.669899 0.556470 0.817038
Si Si3 0.166817 0.500000 0.441454
Si Si4 0.668746 0.591304 0.393568
Si Si5 0.170278 0.645765 0.138047
Si Si6 0.166307 0.110504 0.217536
Si Si7 0.832181 0.321318 0.557409
Si Si8 0.332737 0.706716 0.942608
O O1 0.500000 0.793990 0.748742
O O2 0.250000 0.750000 0.750000
O O3 0.292628 0.818512 0.684216
O O4 0.271302 0.841894 0.778556
O O5 0.500000 0.562366 0.828746
O O6 0.722875 0.500000 0.825657
O O7 0.756503 0.591893 0.854596
O O8 0.704043 0.570534 0.760042
O O9 0.179227 0.500000 0.500000
O O10 0.242907 0.450830 0.421528
O O11 0.000000 0.500000 0.423782
O O12 0.500000 0.586952 0.408336
O O13 0.691600 0.583863 0.334944
O O14 0.726609 0.645478 0.409214
O O15 0.229798 0.670777 0.088497
O O16 0.000000 0.636958 0.132185
O O17 0.000000 0.129477 0.222552
O O18 0.805365 0.334058 0.500000
O O19 0.792333 0.264037 0.568467
O O20 0.000000 0.332208 0.571195
O O21 0.500000 0.696759 0.927949
O O22 0.306473 0.694436 0.000000
#
# Coordination Sequence:
#
# PCOD8291461 Si02
#       8
#    16  16   8  16  16  16  16  16
#     4  10  21  35  52  76 110 147 184 221 263 317
#     4   9  18  35  60  81 103 141 183 219 262 323
#     4  11  25  43  59  75 101 141 187 233 282 339
#     4  11  23  36  56  82 108 136 175 231 285 330
#     4  10  21  35  53  81 114 144 178 222 274 323
#     4   9  20  36  53  78 110 140 176 220 270 322
#     4   9  19  36  55  76 105 141 181 223 268 323
#     4   9  19  36  58  83 111 146 186 223 261 315
#
# _framework density 18.093924999999999
#
# number of rings (size 3 to 8) (size 9 to 14) (size 15 to 20)
#    0.000    2.333    0.000    2.600    2.800    6.133 
#    0.000    1.333    0.000    0.400    0.000    2.800 
#    0.000    0.000    0.000    0.000    0.000    0.000 
#
# Total GULP energy -744206.849575 kJ/mol
# GULP energy per Si atom -12403.447493 kJ/mol
# Density = 1.805274 g / cm^3
# Si number density = 18.093925 Si / 1000 Ang^3
#
#
#
# Elastic Constant Matrix: (Units=GPa)
#
#
# Indices 1 2 3 4 5 6 
#
# 1 100.2480 69.8190 46.7816 0.0000 0.0000 0.0000
# 2 69.8190 133.3237 49.4882 0.0000 0.0000 0.0000
# 3 46.7816 49.4882 71.9967 0.0000 0.0000 0.0000
# 4 0.0000 0.0000 0.0000 25.1973 0.0000 0.0000
# 5 0.0000 0.0000 0.0000 0.0000 29.0689 0.0000
# 6 0.0000 0.0000 0.0000 0.0000 0.0000 11.8084
#
#
#
# Elastic Compliance Matrix: (Units=1/GPa)
#
#
# Indices 1 2 3 4 5 6 
#
# 1 0.017996 -0.006825 -0.007002 0.000000 0.000000 0.000000
# 2 -0.006825 0.012658 -0.004266 0.000000 0.000000 0.000000
# 3 -0.007002 -0.004266 0.021372 0.000000 0.000000 0.000000
# 4 0.000000 0.000000 0.000000 0.039687 0.000000 0.000000
# 5 0.000000 0.000000 0.000000 0.000000 0.034401 0.000000
# 6 0.000000 0.000000 0.000000 0.000000 0.000000 0.084686
#
#
# Mechanical properties :
#
#
# Convention : Reuss Voigt Hill
#
# Bulk Modulus (GPa) = 63.13320 70.86065 66.99692
# Shear Modulus (GPa) = 19.82031 22.51355 21.16693
#
# Velocity S-wave (km/s) = 3.31329 3.53123 3.42400
# Velocity P-wave (km/s) = 7.04307 7.47488 7.26219
#
# Compressibility (1/GPa) = 0.01583953
#
# Stress axis : x y z
#
# Youngs Moduli (GPa) = 55.56663 78.99957 46.79094
#
# Poissons Ratio (x) = 0.53919 0.32764
# Poissons Ratio (y) = 0.37926 0.19961
# Poissons Ratio (z) = 0.38909 0.33701
#
# Static dielectric constant tensor:
#      x y z
#    x 3.380840 0.000000 0.000000 
#    y 0.000000 3.354110 0.000000 
#    z 0.000000 0.000000 3.290220 
# 
# 
# High freq. dielectric constant tensor:
#      x y z
#    x 1.705970 0.000000 0.000000 
#    y 0.000000 1.699370 0.000000 
#    z 0.000000 0.000000 1.693940 
# 
# From -- ./inp_files/63840.got.cif
#   From: 2010.06.25/outbox.cif.g09.slc.cpg/sg71_32_cif.got.tgz:63840.got - 2010.06.28 04:59:45.
