data_PCOD8291594
_publ_section_title
;
Structure prediction by ZEFSAII (Michael W. Deem and Ramdas Pophale) SiO2 
 PCOD8291594
Probable space group: I M M M
;
_chemical_formula_sum "Si O2"
_cell_formula_units_Z 120
_cell_length_a 22.316837
_cell_length_b 22.403375
_cell_length_c 13.366233
_cell_angle_alpha 90.000000
_cell_angle_beta 90.000000
_cell_angle_gamma 90.000000
_cell_volume 6682.748503
_symmetry_space_group_name_H-M "I M M M"
_symmetry_group_IT_number 71
_symmetry_cell_setting 'orthorhombic'
loop_
_space_group_symop_operation_xyz
x,y,z
-x,-y,z
x,-y,-z
-x,y,-z
-x,-y,-z
x,y,-z
-x,y,z
x,-y,z
1/2+x,1/2+y,1/2+z
1/2-x,1/2-y,1/2+z
1/2+x,1/2-y,1/2-z
1/2-x,1/2+y,1/2-z
1/2-x,1/2-y,1/2-z
1/2+x,1/2+y,1/2-z
1/2-x,1/2+y,1/2+z
1/2+x,1/2-y,1/2+z
loop_
_atom_site_type_symbol
_atom_site_label
_atom_site_fract_x
_atom_site_fract_y
_atom_site_fract_z
Si Si1 0.185006 0.238144 0.618416
Si Si2 0.934131 0.859408 0.118809
Si Si3 0.378352 0.120010 0.713596
Si Si4 0.069149 0.310972 0.386512
Si Si5 0.934510 0.729126 0.116369
Si Si6 0.751846 0.343111 0.266389
Si Si7 0.326111 0.566391 0.618840
Si Si8 0.070817 0.500000 0.117289
O O1 0.196846 0.228306 0.500000
O O2 0.114662 0.255575 0.637376
O O3 0.226854 0.290516 0.660564
O O4 0.205358 0.179149 0.680188
O O5 0.910147 0.793730 0.153034
O O6 0.890301 0.910396 0.158780
O O7 0.000000 0.871064 0.164090
O O8 0.937274 0.861542 0.000000
O O9 0.412252 0.132144 0.818898
O O10 0.390190 0.176576 0.642952
O O11 0.306885 0.120187 0.719016
O O12 0.401191 0.058482 0.667481
O O13 0.078192 0.332331 0.500000
O O14 0.000000 0.291292 0.367627
O O15 0.000000 0.716882 0.165457
O O16 0.942972 0.731344 0.000000
O O17 0.723900 0.391308 0.338754
O O18 0.322612 0.568105 0.500000
O O19 0.316855 0.500000 0.660418
O O20 0.000000 0.500000 0.135142
O O21 0.086207 0.500000 0.000000
#
# Coordination Sequence:
#
# PCOD8291594 Si02
#       8
#    16  16  16  16  16  16  16   8
#     4   9  19  35  54  80 107 136 171 217 272 317
#     4   8  16  30  50  79 109 134 166 209 260 319
#     4  11  22  35  54  75 105 144 177 218 270 314
#     4   9  18  34  55  78 105 136 175 220 264 310
#     4   9  17  30  50  79 110 135 164 206 261 327
#     4  10  22  35  53  77 108 139 180 219 258 317
#     4  10  21  36  55  75 104 147 184 220 263 309
#     4  11  24  40  57  81 109 137 177 222 268 328
#
# _framework density 17.956683999999999
#
# number of rings (size 3 to 8) (size 9 to 14) (size 15 to 20)
#    0.000    2.467    0.000    2.800    6.533    2.933 
#    0.000    1.667    0.000    1.200    0.000    0.000 
#    0.000    0.000    0.000    4.533    0.000    0.133 
#
# Total GULP energy -743453.884156 kJ/mol
# GULP energy per Si atom -12390.898069 kJ/mol
# Density = 1.791581 g / cm^3
# Si number density = 17.956684 Si / 1000 Ang^3
#
#
#
# Elastic Constant Matrix: (Units=GPa)
#
#
# Indices 1 2 3 4 5 6 
#
# 1 114.3822 53.2876 28.5128 0.0000 0.0000 0.0000
# 2 53.2876 105.1823 34.2161 0.0000 0.0000 0.0000
# 3 28.5128 34.2161 68.1353 0.0000 0.0000 0.0000
# 4 0.0000 0.0000 0.0000 24.1696 0.0000 0.0000
# 5 0.0000 0.0000 0.0000 0.0000 7.8545 0.0000
# 6 0.0000 0.0000 0.0000 0.0000 0.0000 23.6906
#
#
#
# Elastic Compliance Matrix: (Units=1/GPa)
#
#
# Indices 1 2 3 4 5 6 
#
# 1 0.011738 -0.005198 -0.002302 0.000000 0.000000 0.000000
# 2 -0.005198 0.013665 -0.004687 0.000000 0.000000 0.000000
# 3 -0.002302 -0.004687 0.017994 0.000000 0.000000 0.000000
# 4 0.000000 0.000000 0.000000 0.041374 0.000000 0.000000
# 5 0.000000 0.000000 0.000000 0.000000 0.127316 0.000000
# 6 0.000000 0.000000 0.000000 0.000000 0.000000 0.042211
#
#
# Mechanical properties :
#
#
# Convention : Reuss Voigt Hill
#
# Bulk Modulus (GPa) = 52.56728 57.74807 55.15768
# Shear Modulus (GPa) = 17.54304 22.58850 20.06577
#
# Velocity S-wave (km/s) = 3.12903 3.55060 3.34646
# Velocity P-wave (km/s) = 6.51095 7.00275 6.76132
#
# Compressibility (1/GPa) = 0.01902324
#
# Stress axis : x y z
#
# Youngs Moduli (GPa) = 85.19363 73.17707 55.57486
#
# Poissons Ratio (x) = 0.38037 0.12792
# Poissons Ratio (y) = 0.44283 0.26050
# Poissons Ratio (z) = 0.19609 0.34300
#
# Static dielectric constant tensor:
#      x y z
#    x 3.527920 0.000000 0.000000 
#    y 0.000000 3.258410 0.000000 
#    z 0.000000 0.000000 3.357870 
# 
# 
# High freq. dielectric constant tensor:
#      x y z
#    x 1.706320 0.000000 0.000000 
#    y 0.000000 1.674690 0.000000 
#    z 0.000000 0.000000 1.685850 
# 
# From -- ./inp_files/38422.got.cif
#   From: 2010.06.25/outbox.cif.g09.slc.cpg/sg71_20_cif.got.tgz:38422.got - 2010.06.28 04:59:45.
