data_PCOD8291947
_publ_section_title
;
Structure prediction by ZEFSAII (Michael W. Deem and Ramdas Pophale) SiO2 
 PCOD8291947
Probable space group: I M M M
;
_chemical_formula_sum "Si O2"
_cell_formula_units_Z 96
_cell_length_a 23.498721
_cell_length_b 13.795365
_cell_length_c 14.371089
_cell_angle_alpha 90.000000
_cell_angle_beta 90.000000
_cell_angle_gamma 90.000000
_cell_volume 4658.725260
_symmetry_space_group_name_H-M "I M M M"
_symmetry_group_IT_number 71
_symmetry_cell_setting 'orthorhombic'
loop_
_space_group_symop_operation_xyz
x,y,z
-x,-y,z
x,-y,-z
-x,y,-z
-x,-y,-z
x,y,-z
-x,y,z
x,-y,z
1/2+x,1/2+y,1/2+z
1/2-x,1/2-y,1/2+z
1/2+x,1/2-y,1/2-z
1/2-x,1/2+y,1/2-z
1/2-x,1/2-y,1/2-z
1/2+x,1/2+y,1/2-z
1/2-x,1/2+y,1/2+z
1/2+x,1/2-y,1/2+z
loop_
_atom_site_type_symbol
_atom_site_label
_atom_site_fract_x
_atom_site_fract_y
_atom_site_fract_z
Si Si1 0.065725 0.387086 0.739678
Si Si2 0.767959 0.793030 0.104104
Si Si3 0.154131 0.887360 0.242435
Si Si4 0.157770 0.390273 0.106431
Si Si5 0.138372 0.260660 0.394879
Si Si6 0.937202 0.115310 0.897700
O O1 0.069013 0.500000 0.714443
O O2 0.102839 0.363596 0.831486
O O3 0.091983 0.329603 0.652481
O O4 0.000000 0.355804 0.756468
O O5 0.788296 0.863722 0.186579
O O6 0.789654 0.683221 0.126508
O O7 0.700622 0.807663 0.106936
O O8 0.789454 0.823258 0.000000
O O9 0.146103 0.841465 0.343080
O O10 0.105352 0.840129 0.177062
O O11 0.147626 0.000000 0.257905
O O12 0.179454 0.500000 0.128233
O O13 0.137450 0.382305 0.000000
O O14 0.118075 0.240244 0.500000
O O15 0.000000 0.148961 0.869063
O O16 0.932732 0.000000 0.898409
O O17 0.921402 0.155269 0.000000
#
# Coordination Sequence:
#
# PCOD8291947 Si02
#       6
#    16  16  16  16  16  16
#     4  10  22  41  66  93 120 156 207 260 309 362
#     4  10  21  39  61  90 123 154 194 241 302 376
#     4  11  22  36  58  87 119 155 197 244 294 355
#     4   9  18  35  63  97 131 160 187 237 312 388
#     4  11  25  43  60  82 119 162 206 257 304 350
#     4   8  15  30  52  78 109 143 179 224 281 344
#
# _framework density 20.606494000000001
#
# number of rings (size 3 to 8) (size 9 to 14) (size 15 to 20)
#    0.000    2.167    1.667    1.500    0.000    4.333 
#    0.000    5.833    0.000    0.000    0.000    3.500 
#    0.000    0.000    0.000    0.000    0.000    0.000 
#
# Total GULP energy -595022.262154 kJ/mol
# GULP energy per Si atom -12396.297128 kJ/mol
# Density = 2.055959 g / cm^3
# Si number density = 20.606494 Si / 1000 Ang^3
#
#
#
# Elastic Constant Matrix: (Units=GPa)
#
#
# Indices 1 2 3 4 5 6 
#
# 1 78.3872 12.3997 17.9143 0.0000 0.0000 0.0000
# 2 12.3997 54.4031 26.2647 0.0000 0.0000 0.0000
# 3 17.9143 26.2647 117.3486 0.0000 0.0000 0.0000
# 4 0.0000 0.0000 0.0000 14.4329 0.0000 0.0000
# 5 0.0000 0.0000 0.0000 0.0000 31.9886 0.0000
# 6 0.0000 0.0000 0.0000 0.0000 0.0000 24.7201
#
#
#
# Elastic Compliance Matrix: (Units=1/GPa)
#
#
# Indices 1 2 3 4 5 6 
#
# 1 0.013477 -0.002330 -0.001536 0.000000 0.000000 0.000000
# 2 -0.002330 0.021011 -0.004347 0.000000 0.000000 0.000000
# 3 -0.001536 -0.004347 0.009729 0.000000 0.000000 0.000000
# 4 0.000000 0.000000 0.000000 0.069286 0.000000 0.000000
# 5 0.000000 0.000000 0.000000 0.000000 0.031261 0.000000
# 6 0.000000 0.000000 0.000000 0.000000 0.000000 0.040453
#
#
# Mechanical properties :
#
#
# Convention : Reuss Voigt Hill
#
# Bulk Modulus (GPa) = 35.98294 40.36624 38.17459
# Shear Modulus (GPa) = 23.70717 27.13233 25.41975
#
# Velocity S-wave (km/s) = 3.39554 3.63256 3.51605
# Velocity P-wave (km/s) = 5.73348 6.10128 5.92023
#
# Compressibility (1/GPa) = 0.02779094
#
# Stress axis : x y z
#
# Youngs Moduli (GPa) = 74.20170 47.59409 102.78558
#
# Poissons Ratio (x) = 0.11090 0.15786
# Poissons Ratio (y) = 0.17290 0.44680
# Poissons Ratio (z) = 0.11396 0.20689
#
# Static dielectric constant tensor:
#      x y z
#    x 3.791900 0.000000 0.000000 
#    y 0.000000 3.557820 0.000000 
#    z 0.000000 0.000000 3.951900 
# 
# 
# High freq. dielectric constant tensor:
#      x y z
#    x 1.801300 0.000000 0.000000 
#    y 0.000000 1.797920 0.000000 
#    z 0.000000 0.000000 1.807680 
# 
# From -- ./inp_files/37815.got.cif
#   From: 2010.06.25/outbox.cif.g09.slc.cpg/sg71_19_cif.got.tgz:37815.got - 2010.06.28 04:59:45.
