data_PCOD8291300
_publ_section_title
;
Structure prediction by ZEFSAII (Michael W. Deem and Ramdas Pophale) SiO2 
 PCOD8291300
Probable space group: I M M M
;
_chemical_formula_sum "Si O2"
_cell_formula_units_Z 72
_cell_length_a 26.276886
_cell_length_b 8.529149
_cell_length_c 15.394841
_cell_angle_alpha 90.000000
_cell_angle_beta 90.000000
_cell_angle_gamma 90.000000
_cell_volume 3450.283697
_symmetry_space_group_name_H-M "I M M M"
_symmetry_group_IT_number 71
_symmetry_cell_setting 'orthorhombic'
loop_
_space_group_symop_operation_xyz
x,y,z
-x,-y,z
x,-y,-z
-x,y,-z
-x,-y,-z
x,y,-z
-x,y,z
x,-y,z
1/2+x,1/2+y,1/2+z
1/2-x,1/2-y,1/2+z
1/2+x,1/2-y,1/2-z
1/2-x,1/2+y,1/2-z
1/2-x,1/2-y,1/2-z
1/2+x,1/2+y,1/2-z
1/2-x,1/2+y,1/2+z
1/2+x,1/2-y,1/2+z
loop_
_atom_site_type_symbol
_atom_site_label
_atom_site_fract_x
_atom_site_fract_y
_atom_site_fract_z
Si Si1 0.236120 0.315137 0.500000
Si Si2 0.558355 0.181401 0.164115
Si Si3 0.439816 0.818871 0.500000
Si Si4 0.107629 0.182587 0.827311
Si Si5 0.378540 0.813459 0.000000
Si Si6 0.716878 0.816648 0.327343
O O1 0.232831 0.500000 0.500000
O O2 0.178826 0.246059 0.500000
O O3 0.266962 0.260955 0.416904
O O4 0.500000 0.202311 0.136139
O O5 0.568537 0.282524 0.249858
O O6 0.570793 0.000000 0.184208
O O7 0.592968 0.248039 0.085958
O O8 0.500000 0.800909 0.500000
O O9 0.417628 0.734142 0.583458
O O10 0.423012 0.000000 0.500000
O O11 0.158359 0.280282 0.808459
O O12 0.120931 0.000000 0.831472
O O13 0.380034 0.000000 0.000000
O O14 0.750000 0.750000 0.250000
O O15 0.725772 0.000000 0.333704
#
# Coordination Sequence:
#
# PCOD8291300 Si02
#       6
#     8  16   8  16   8  16
#     4  11  22  39  63  92 126 165 207 250 304 367
#     4  10  20  37  62  91 123 161 205 250 298 355
#     4  11  24  43  66  91 121 161 208 257 310 367
#     4  12  25  41  62  90 124 161 203 252 309 370
#     4   9  19  36  61  90 121 159 201 245 290 347
#     4  12  25  43  65  91 124 162 207 257 310 368
#
# _framework density 20.867849
#
# number of rings (size 3 to 8) (size 9 to 14) (size 15 to 20)
#    0.000    1.000    0.000    7.667    0.000    7.111 
#    0.000    1.667    0.000    1.333    0.000    0.000 
#    0.000    0.000    0.000    0.000    0.000    0.000 
#
# Total GULP energy -446666.740944 kJ/mol
# GULP energy per Si atom -12407.409471 kJ/mol
# Density = 2.082035 g / cm^3
# Si number density = 20.867849 Si / 1000 Ang^3
#
#
#
# Elastic Constant Matrix: (Units=GPa)
#
#
# Indices 1 2 3 4 5 6 
#
# 1 87.7499 18.3389 16.5679 0.0000 0.0000 0.0000
# 2 18.3389 83.1370 28.8807 0.0000 0.0000 0.0000
# 3 16.5679 28.8807 127.6672 0.0000 0.0000 0.0000
# 4 0.0000 0.0000 0.0000 -139.5329 0.0000 0.0000
# 5 0.0000 0.0000 0.0000 0.0000 39.8872 0.0000
# 6 0.0000 0.0000 0.0000 0.0000 0.0000 31.1654
#
#
#
# Elastic Compliance Matrix: (Units=1/GPa)
#
#
# Indices 1 2 3 4 5 6 
#
# 1 0.012074 -0.002300 -0.001047 0.000000 0.000000 0.000000
# 2 -0.002300 0.013492 -0.002754 0.000000 0.000000 0.000000
# 3 -0.001047 -0.002754 0.008592 0.000000 0.000000 0.000000
# 4 0.000000 0.000000 0.000000 -0.007167 0.000000 0.000000
# 5 0.000000 0.000000 0.000000 0.000000 0.025071 0.000000
# 6 0.000000 0.000000 0.000000 0.000000 0.000000 0.032087
#
#
# Mechanical properties :
#
#
# Convention : Reuss Voigt Hill
#
# Bulk Modulus (GPa) = 45.54208 47.34768 46.44488
# Shear Modulus (GPa) = 48.23056 1.95505 25.09281
#
# Velocity S-wave (km/s) = 4.81275 0.96897 3.47142
# Velocity P-wave (km/s) = 7.26325 4.89800 6.19456
#
# Compressibility (1/GPa) = 0.02195772
#
# Stress axis : x y z
#
# Youngs Moduli (GPa) = 82.82067 74.11656 116.39223
#
# Poissons Ratio (x) = 0.17046 0.12182
# Poissons Ratio (y) = 0.19047 0.32051
# Poissons Ratio (z) = 0.08669 0.20410
#
# Static dielectric constant tensor:
#      x y z
#    x 3.790550 0.000000 0.000000 
#    y 0.000000 3.730860 0.000000 
#    z 0.000000 0.000000 3.530330 
# 
# 
# High freq. dielectric constant tensor:
#      x y z
#    x 1.834490 0.000000 0.000000 
#    y 0.000000 1.809790 0.000000 
#    z 0.000000 0.000000 1.835650 
# 
# From -- ./inp_files/39996.got.cif
#   From: 2010.06.25/outbox.cif.g09.slc.cpg/sg71_20_cif.got.tgz:39996.got - 2010.06.28 04:59:45.
