data_PCOD8291216
_publ_section_title
;
Structure prediction by ZEFSAII (Michael W. Deem and Ramdas Pophale) SiO2 
 PCOD8291216
Probable space group: I M M M
;
_chemical_formula_sum "Si O2"
_cell_formula_units_Z 64
_cell_length_a 8.770547
_cell_length_b 23.750693
_cell_length_c 15.468432
_cell_angle_alpha 90.000000
_cell_angle_beta 90.000000
_cell_angle_gamma 90.000000
_cell_volume 3222.176001
_symmetry_space_group_name_H-M "I M M M"
_symmetry_group_IT_number 71
_symmetry_cell_setting 'orthorhombic'
loop_
_space_group_symop_operation_xyz
x,y,z
-x,-y,z
x,-y,-z
-x,y,-z
-x,-y,-z
x,y,-z
-x,y,z
x,-y,z
1/2+x,1/2+y,1/2+z
1/2-x,1/2-y,1/2+z
1/2+x,1/2-y,1/2-z
1/2-x,1/2+y,1/2-z
1/2-x,1/2-y,1/2-z
1/2+x,1/2+y,1/2-z
1/2-x,1/2+y,1/2+z
1/2+x,1/2-y,1/2+z
loop_
_atom_site_type_symbol
_atom_site_label
_atom_site_fract_x
_atom_site_fract_y
_atom_site_fract_z
Si Si1 0.180178 0.120235 0.157656
Si Si2 0.319217 0.500000 0.403205
Si Si3 0.318673 0.000000 0.596502
Si Si4 0.321281 0.881521 0.334972
Si Si5 0.677362 0.193676 0.500000
Si Si6 0.820958 0.686640 0.500000
O O1 0.233742 0.141951 0.251228
O O2 0.251769 0.159420 0.085348
O O3 0.000000 0.124951 0.149214
O O4 0.238582 0.055925 0.145530
O O5 0.500000 0.500000 0.407906
O O6 0.251130 0.500000 0.500000
O O7 0.260950 0.055421 0.646042
O O8 0.500000 0.000000 0.589810
O O9 0.249826 0.000000 0.500000
O O10 0.500000 0.881390 0.315580
O O11 0.281469 0.842481 0.415856
O O12 0.500000 0.211109 0.500000
O O13 0.783337 0.247729 0.500000
O O14 0.000000 0.677299 0.500000
#
# Coordination Sequence:
#
# PCOD8291216 Si02
#       6
#    16   8   8  16   8   8
#     4  11  22  39  63  89 121 158 193 236 295 356
#     4   9  17  34  60  87 117 155 192 228 283 356
#     4   9  15  30  59  92 124 158 192 235 291 346
#     4  10  20  36  61  92 123 156 197 241 288 347
#     4  10  22  41  63  85 116 160 202 242 293 346
#     4  12  26  43  62  85 114 150 201 256 297 344
#
# _framework density 19.862352999999999
#
# number of rings (size 3 to 8) (size 9 to 14) (size 15 to 20)
#    0.000    1.750    2.500    2.625    0.000    2.000 
#    0.000    2.500    0.000    0.750    0.000    0.000 
#    0.000    0.000    0.000    0.000    0.000    0.000 
#
# Total GULP energy -396884.730819 kJ/mol
# GULP energy per Si atom -12402.647838 kJ/mol
# Density = 1.981715 g / cm^3
# Si number density = 19.862353 Si / 1000 Ang^3
#
#
#
# Elastic Constant Matrix: (Units=GPa)
#
#
# Indices 1 2 3 4 5 6 
#
# 1 74.4978 47.6124 55.9636 0.0000 0.0000 0.0000
# 2 47.6124 125.3854 63.1698 0.0000 0.0000 0.0000
# 3 55.9636 63.1698 179.9667 -0.0001 0.0000 0.0000
# 4 0.0000 0.0000 -0.0001 -3.7158 0.0001 0.0000
# 5 0.0000 0.0000 0.0000 0.0001 21.6493 0.0000
# 6 0.0000 0.0000 0.0000 0.0000 0.0000 19.5066
#
#
#
# Elastic Compliance Matrix: (Units=1/GPa)
#
#
# Indices 1 2 3 4 5 6 
#
# 1 0.020196 -0.005473 -0.004359 0.000000 0.000000 0.000000
# 2 -0.005473 0.011172 -0.002220 0.000000 0.000000 0.000000
# 3 -0.004359 -0.002220 0.007691 0.000000 0.000000 0.000000
# 4 0.000000 0.000000 0.000000 -0.269118 0.000001 0.000000
# 5 0.000000 0.000000 0.000000 0.000001 0.046191 0.000000
# 6 0.000000 0.000000 0.000000 0.000000 0.000000 0.051265
#
#
# Mechanical properties :
#
#
# Convention : Reuss Voigt Hill
#
# Bulk Modulus (GPa) = 66.86404 79.26016 73.06210
# Shear Modulus (GPa) = -48.30184 21.69496 -13.30344
#
# Velocity S-wave (km/s) = -4.93671 3.30853 -2.59082
# Velocity P-wave (km/s) = 1.11446 7.38827 5.28339
#
# Compressibility (1/GPa) = 0.01495572
#
# Stress axis : x y z
#
# Youngs Moduli (GPa) = 49.51596 89.51145 130.01822
#
# Poissons Ratio (x) = 0.48986 0.56677
# Poissons Ratio (y) = 0.27098 0.28859
# Poissons Ratio (z) = 0.21585 0.19868
#
# Static dielectric constant tensor:
#      x y z
#    x 3.276080 0.000000 0.000000 
#    y 0.000000 3.736350 0.000000 
#    z 0.000000 0.000000 3.713840 
# 
# 
# High freq. dielectric constant tensor:
#      x y z
#    x 1.746810 0.000000 0.000000 
#    y 0.000000 1.776270 0.000000 
#    z 0.000000 0.000000 1.792170 
# 
# From -- ./inp_files/5623.got.cif
#   From: 2010.06.25/outbox.cif.g09.slc.cpg/sg71_3_cif.got.tgz:5623.got - 2010.06.28 04:59:45.
