data_PCOD8291350
_publ_section_title
;
Structure prediction by ZEFSAII (Michael W. Deem and Ramdas Pophale) SiO2 
 PCOD8291350
Probable space group: I M M M
;
_chemical_formula_sum "Si O2"
_cell_formula_units_Z 72
_cell_length_a 13.487473
_cell_length_b 27.719452
_cell_length_c 10.535920
_cell_angle_alpha 90.000000
_cell_angle_beta 90.000000
_cell_angle_gamma 90.000000
_cell_volume 3939.015528
_symmetry_space_group_name_H-M "I M M M"
_symmetry_group_IT_number 71
_symmetry_cell_setting 'orthorhombic'
loop_
_space_group_symop_operation_xyz
x,y,z
-x,-y,z
x,-y,-z
-x,y,-z
-x,-y,-z
x,y,-z
-x,y,z
x,-y,z
1/2+x,1/2+y,1/2+z
1/2-x,1/2-y,1/2+z
1/2+x,1/2-y,1/2-z
1/2-x,1/2+y,1/2-z
1/2-x,1/2-y,1/2-z
1/2+x,1/2+y,1/2-z
1/2-x,1/2+y,1/2+z
1/2+x,1/2-y,1/2+z
loop_
_atom_site_type_symbol
_atom_site_label
_atom_site_fract_x
_atom_site_fract_y
_atom_site_fract_z
Si Si1 0.386640 0.293449 0.719653
Si Si2 0.117047 0.398086 0.256164
Si Si3 0.718494 0.057483 0.000000
Si Si4 0.306861 0.193703 0.641681
Si Si5 0.617940 0.054024 0.500000
Si Si6 0.112673 0.868352 0.000000
O O1 0.500000 0.295675 0.769002
O O2 0.367990 0.243095 0.649043
O O3 0.310591 0.297789 0.836794
O O4 0.363681 0.336844 0.623683
O O5 0.159624 0.425737 0.376353
O O6 0.149787 0.342204 0.248877
O O7 0.000000 0.402012 0.265742
O O8 0.159766 0.421793 0.127621
O O9 0.825222 0.082562 0.000000
O O10 0.731216 0.000000 0.000000
O O11 0.322134 0.172647 0.500000
O O12 0.500000 0.056937 0.500000
O O13 0.657740 0.000000 0.500000
O O14 0.000000 0.885540 0.000000
#
# Coordination Sequence:
#
# PCOD8291350 Si02
#       6
#    16  16   8  16   8   8
#     4  10  21  37  58  83 116 151 186 233 289 352
#     4  11  22  36  56  84 117 152 191 235 289 350
#     4  12  25  41  59  84 115 154 205 258 306 346
#     4  11  21  35  59  88 117 152 194 234 284 353
#     4   9  18  33  53  76 103 142 186 223 270 335
#     4  10  20  39  63  83 108 148 195 241 296 349
#
# _framework density 18.278679
#
# number of rings (size 3 to 8) (size 9 to 14) (size 15 to 20)
#    0.000    1.444    4.444    1.667    0.000    3.333 
#    0.000    0.000    0.000    0.000    0.000    0.000 
#    0.000    7.111    0.000    0.000    0.000    0.000 
#
# Total GULP energy -446392.895606 kJ/mol
# GULP energy per Si atom -12399.802656 kJ/mol
# Density = 1.823708 g / cm^3
# Si number density = 18.278679 Si / 1000 Ang^3
#
#
#
# Elastic Constant Matrix: (Units=GPa)
#
#
# Indices 1 2 3 4 5 6 
#
# 1 83.5574 51.3427 33.7048 0.0000 -0.0001 0.0000
# 2 51.3427 133.0784 53.0343 -0.0002 0.0000 0.0000
# 3 33.7048 53.0343 105.8052 -0.0009 -0.0001 0.0001
# 4 0.0000 -0.0002 -0.0009 24.7093 0.0002 0.0000
# 5 -0.0001 0.0000 -0.0001 0.0002 19.5092 0.0000
# 6 0.0000 0.0000 0.0001 0.0000 0.0000 24.6899
#
#
#
# Elastic Compliance Matrix: (Units=1/GPa)
#
#
# Indices 1 2 3 4 5 6 
#
# 1 0.016213 -0.005245 -0.002536 0.000000 0.000000 0.000000
# 2 -0.005245 0.011087 -0.003886 0.000000 0.000000 0.000000
# 3 -0.002536 -0.003886 0.012207 0.000000 0.000000 0.000000
# 4 0.000000 0.000000 0.000000 0.040471 0.000000 0.000000
# 5 0.000000 0.000000 0.000000 0.000000 0.051258 0.000000
# 6 0.000000 0.000000 0.000000 0.000000 0.000000 0.040502
#
#
# Mechanical properties :
#
#
# Convention : Reuss Voigt Hill
#
# Bulk Modulus (GPa) = 61.83089 66.51163 64.17126
# Shear Modulus (GPa) = 24.94222 26.07228 25.50725
#
# Velocity S-wave (km/s) = 3.69799 3.78084 3.73964
# Velocity P-wave (km/s) = 7.22037 7.45159 7.33689
#
# Compressibility (1/GPa) = 0.01617315
#
# Stress axis : x y z
#
# Youngs Moduli (GPa) = 61.67742 90.19916 81.91864
#
# Poissons Ratio (x) = 0.47306 0.20775
# Poissons Ratio (y) = 0.32347 0.31837
# Poissons Ratio (z) = 0.15642 0.35055
#
# Static dielectric constant tensor:
#      x y z
#    x 3.247110 0.000000 0.000000 
#    y 0.000000 3.389840 0.000000 
#    z 0.000000 0.000000 3.356510 
# 
# 
# High freq. dielectric constant tensor:
#      x y z
#    x 1.699500 0.000000 0.000000 
#    y 0.000000 1.712490 0.000000 
#    z 0.000000 0.000000 1.707420 
# 
# From -- ./inp_files/6158.got.cif
#   From: 2010.06.25/outbox.cif.g09.slc.cpg/sg71_4_cif.got.tgz:6158.got - 2010.06.28 04:59:45.
