data_PCOD8291697
_publ_section_title
;
Structure prediction by ZEFSAII (Michael W. Deem and Ramdas Pophale) SiO2 
 PCOD8291697
Probable space group: I M M M
;
_chemical_formula_sum "Si O2"
_cell_formula_units_Z 96
_cell_length_a 8.855449
_cell_length_b 19.264435
_cell_length_c 31.419487
_cell_angle_alpha 90.000000
_cell_angle_beta 90.000000
_cell_angle_gamma 90.000000
_cell_volume 5360.014349
_symmetry_space_group_name_H-M "I M M M"
_symmetry_group_IT_number 71
_symmetry_cell_setting 'orthorhombic'
loop_
_space_group_symop_operation_xyz
x,y,z
-x,-y,z
x,-y,-z
-x,y,-z
-x,-y,-z
x,y,-z
-x,y,z
x,-y,z
1/2+x,1/2+y,1/2+z
1/2-x,1/2-y,1/2+z
1/2+x,1/2-y,1/2-z
1/2-x,1/2+y,1/2-z
1/2-x,1/2-y,1/2-z
1/2+x,1/2+y,1/2-z
1/2-x,1/2+y,1/2+z
1/2+x,1/2-y,1/2+z
loop_
_atom_site_type_symbol
_atom_site_label
_atom_site_fract_x
_atom_site_fract_y
_atom_site_fract_z
Si Si1 0.331284 0.164086 0.544892
Si Si2 0.823076 0.323973 0.631365
Si Si3 0.680483 0.175506 0.635527
Si Si4 0.331198 0.328901 0.546487
Si Si5 0.826372 0.918517 0.800114
Si Si6 0.824516 0.420002 0.212711
O O1 0.248934 0.140460 0.500000
O O2 0.500000 0.133509 0.543077
O O3 0.256503 0.142817 0.590311
O O4 0.336832 0.246543 0.545923
O O5 0.744136 0.251874 0.643690
O O6 0.776914 0.353171 0.584729
O O7 0.776076 0.381045 0.665418
O O8 0.000000 0.312184 0.632510
O O9 0.500000 0.181186 0.632891
O O10 0.733795 0.125142 0.673026
O O11 0.272917 0.355622 0.500000
O O12 0.500000 0.357926 0.554853
O O13 0.771354 0.896235 0.753329
O O14 0.000000 0.896230 0.805465
O O15 0.803225 0.000000 0.806598
O O16 0.795035 0.500000 0.201258
O O17 0.000000 0.406158 0.222370
#
# Coordination Sequence:
#
# PCOD8291697 Si02
#       6
#    16  16  16  16  16  16
#     4   7  10  19  38  63  89 120 157 190 221 264
#     4  11  21  31  48  75 104 129 157 199 243 281
#     4   9  17  30  48  70  98 130 163 200 242 289
#     4   8  14  27  47  69  96 130 163 194 232 281
#     4  10  21  37  55  71  90 122 162 199 240 297
#     4   9  18  33  52  72  94 123 161 205 251 293
#
# _framework density 17.910399999999999
#
# number of rings (size 3 to 8) (size 9 to 14) (size 15 to 20)
#    0.000    3.000    0.000    4.000    0.000    2.667 
#    0.000    0.000    0.000    1.000    0.000    7.000 
#    0.000    0.000    0.000   12.500    0.000   14.833 
#
# Total GULP energy -594642.841687 kJ/mol
# GULP energy per Si atom -12388.392535 kJ/mol
# Density = 1.786964 g / cm^3
# Si number density = 17.910400 Si / 1000 Ang^3
#
#
#
# Elastic Constant Matrix: (Units=GPa)
#
#
# Indices 1 2 3 4 5 6 
#
# 1 50.4188 19.1200 39.4830 0.0000 0.0000 0.0000
# 2 19.1200 38.1459 52.0803 0.0000 0.0000 0.0000
# 3 39.4830 52.0803 167.3668 0.0000 0.0000 0.0000
# 4 0.0000 0.0000 0.0000 -0.6231 0.0000 0.0000
# 5 0.0000 0.0000 0.0000 0.0000 27.2689 0.0000
# 6 0.0000 0.0000 0.0000 0.0000 0.0000 15.8101
#
#
#
# Elastic Compliance Matrix: (Units=1/GPa)
#
#
# Indices 1 2 3 4 5 6 
#
# 1 0.025657 -0.007992 -0.003566 0.000000 0.000000 0.000000
# 2 -0.007992 0.048068 -0.013072 -0.000001 0.000000 0.000000
# 3 -0.003566 -0.013072 0.010884 0.000000 0.000000 0.000000
# 4 0.000000 -0.000001 0.000000 -1.604923 0.000000 0.000000
# 5 0.000000 0.000000 0.000000 0.000000 0.036672 0.000000
# 6 0.000000 0.000000 0.000000 0.000000 0.000000 0.063251
#
#
# Mechanical properties :
#
#
# Convention : Reuss Voigt Hill
#
# Bulk Modulus (GPa) = 28.28903 53.03315 40.66109
# Shear Modulus (GPa) = -3.67823 18.17439 7.24808
#
# Velocity S-wave (km/s) = -1.43462 3.18895 2.01386
# Velocity P-wave (km/s) = 3.61730 6.57524 5.30653
#
# Compressibility (1/GPa) = 0.03534939
#
# Stress axis : x y z
#
# Youngs Moduli (GPa) = 38.97584 20.80366 91.87894
#
# Poissons Ratio (x) = 0.16626 0.32762
# Poissons Ratio (y) = 0.31149 1.20108
# Poissons Ratio (z) = 0.13898 0.27195
#
# Static dielectric constant tensor:
#      x y z
#    x 3.110680 0.000000 0.000000 
#    y 0.000000 2.896230 0.000000 
#    z 0.000000 0.000000 4.136130 
# 
# 
# High freq. dielectric constant tensor:
#      x y z
#    x 1.666790 0.000000 0.000000 
#    y 0.000000 1.645040 0.000000 
#    z 0.000000 0.000000 1.722380 
# 
# From -- ./inp_files/50783.got.cif
#   From: 2010.06.25/outbox.cif.g09.slc.cpg/sg71_26_cif.got.tgz:50783.got - 2010.06.28 04:59:45.
