data_PCOD8291118
_publ_section_title
;
Structure prediction by ZEFSAII (Michael W. Deem and Ramdas Pophale) SiO2 
 PCOD8291118
Probable space group: I M M M
;
_chemical_formula_sum "Si O2"
_cell_formula_units_Z 104
_cell_length_a 9.326048
_cell_length_b 20.925104
_cell_length_c 28.330196
_cell_angle_alpha 90.000000
_cell_angle_beta 90.000000
_cell_angle_gamma 90.000000
_cell_volume 5528.595943
_symmetry_space_group_name_H-M "I M M M"
_symmetry_group_IT_number 71
_symmetry_cell_setting 'orthorhombic'
loop_
_space_group_symop_operation_xyz
x,y,z
-x,-y,z
x,-y,-z
-x,y,-z
-x,-y,-z
x,y,-z
-x,y,z
x,-y,z
1/2+x,1/2+y,1/2+z
1/2-x,1/2-y,1/2+z
1/2+x,1/2-y,1/2-z
1/2-x,1/2+y,1/2-z
1/2-x,1/2-y,1/2-z
1/2+x,1/2+y,1/2-z
1/2-x,1/2+y,1/2+z
1/2+x,1/2-y,1/2+z
loop_
_atom_site_type_symbol
_atom_site_label
_atom_site_fract_x
_atom_site_fract_y
_atom_site_fract_z
Si Si1 0.835542 0.571286 0.868129
Si Si2 0.158774 0.247463 0.055562
Si Si3 0.332826 0.174356 0.706465
Si Si4 0.668067 0.617600 0.601974
Si Si5 0.666731 0.630980 0.945225
Si Si6 0.834249 0.819530 0.199846
Si Si7 0.170738 0.500000 0.555573
O O1 0.818814 0.500000 0.847188
O O2 0.775466 0.622474 0.830774
O O3 0.742519 0.575052 0.915898
O O4 0.000000 0.586208 0.881085
O O5 0.215492 0.179436 0.072574
O O6 0.266858 0.302037 0.072447
O O7 0.000000 0.260721 0.077441
O O8 0.149250 0.245901 0.000000
O O9 0.500000 0.164981 0.715550
O O10 0.256605 0.158415 0.755571
O O11 0.297153 0.245540 0.687189
O O12 0.500000 0.601219 0.594813
O O13 0.702298 0.633170 0.656634
O O14 0.764531 0.560795 0.582359
O O15 0.500000 0.632435 0.933969
O O16 0.697925 0.618095 0.000000
O O17 0.000000 0.824780 0.213601
O O18 0.213477 0.500000 0.500000
O O19 0.000000 0.500000 0.561431
#
# Coordination Sequence:
#
# PCOD8291118 Si02
#       7
#    16  16  16  16  16  16   8
#     4  10  21  37  56  77 103 140 184 224 264 314
#     4   9  17  31  54  81 106 137 179 224 269 318
#     4   9  18  35  57  81 110 141 175 220 272 326
#     4  10  20  36  58  82 109 145 187 229 275 331
#     4  10  21  35  52  78 111 143 175 218 271 322
#     4   9  18  33  56  84 110 137 174 222 274 325
#     4  11  25  41  55  77 113 153 193 239 288 339
#
# _framework density 18.811285999999999
#
# number of rings (size 3 to 8) (size 9 to 14) (size 15 to 20)
#    0.000    2.385    0.000    2.077    0.000    7.077 
#    1.385    6.154    0.000    0.000    0.000    0.000 
#    0.000    0.000    0.000    0.000    0.000    0.000 
#
# Total GULP energy -644801.881478 kJ/mol
# GULP energy per Si atom -12400.036182 kJ/mol
# Density = 1.876847 g / cm^3
# Si number density = 18.811286 Si / 1000 Ang^3
#
#
#
# Elastic Constant Matrix: (Units=GPa)
#
#
# Indices 1 2 3 4 5 6 
#
# 1 71.6627 46.7057 58.4996 0.0000 0.0000 0.0000
# 2 46.7057 106.9332 69.9321 0.0000 0.0000 0.0000
# 3 58.4996 69.9321 87.0516 0.0000 0.0000 0.0000
# 4 0.0000 0.0000 0.0000 28.7846 0.0000 0.0000
# 5 0.0000 0.0000 0.0000 0.0000 32.4405 0.0000
# 6 0.0000 0.0000 0.0000 0.0000 0.0000 21.1895
#
#
#
# Elastic Compliance Matrix: (Units=1/GPa)
#
#
# Indices 1 2 3 4 5 6 
#
# 1 0.030913 0.000176 -0.020916 0.000000 0.000000 0.000000
# 2 0.000176 0.019704 -0.015947 0.000000 0.000000 0.000000
# 3 -0.020916 -0.015947 0.038354 0.000000 0.000000 0.000000
# 4 0.000000 0.000000 0.000000 0.034741 0.000000 0.000000
# 5 0.000000 0.000000 0.000000 0.000000 0.030826 0.000000
# 6 0.000000 0.000000 0.000000 0.000000 0.000000 0.047193
#
#
# Mechanical properties :
#
#
# Convention : Reuss Voigt Hill
#
# Bulk Modulus (GPa) = 64.11172 68.43581 66.27376
# Shear Modulus (GPa) = 17.83782 22.51695 20.17738
#
# Velocity S-wave (km/s) = 3.08271 3.46351 3.27864
# Velocity P-wave (km/s) = 6.84297 7.24249 7.04557
#
# Compressibility (1/GPa) = 0.01559777
#
# Stress axis : x y z
#
# Youngs Moduli (GPa) = 32.34868 50.75135 26.07283
#
# Poissons Ratio (x) = -0.00895 0.54533
# Poissons Ratio (y) = -0.00570 0.41579
# Poissons Ratio (z) = 0.67659 0.80935
#
# Static dielectric constant tensor:
#      x y z
#    x 3.400860 0.000000 0.000000 
#    y 0.000000 3.450790 0.000000 
#    z 0.000000 0.000000 3.478010 
# 
# 
# High freq. dielectric constant tensor:
#      x y z
#    x 1.722990 0.000000 0.000000 
#    y 0.000000 1.727120 0.000000 
#    z 0.000000 0.000000 1.732780 
# 
# From -- ./inp_files/11126.got.cif
#   From: 2010.06.25/outbox.cif.g09.slc.cpg/sg71_6_cif.got.tgz:11126.got - 2010.06.28 04:59:45.
