data_PCOD8291452
_publ_section_title
;
Structure prediction by ZEFSAII (Michael W. Deem and Ramdas Pophale) SiO2 
 PCOD8291452
Probable space group: I M M M
;
_chemical_formula_sum "Si O2"
_cell_formula_units_Z 104
_cell_length_a 10.545562
_cell_length_b 18.538314
_cell_length_c 29.604719
_cell_angle_alpha 90.000000
_cell_angle_beta 90.000000
_cell_angle_gamma 90.000000
_cell_volume 5787.631964
_symmetry_space_group_name_H-M "I M M M"
_symmetry_group_IT_number 71
_symmetry_cell_setting 'orthorhombic'
loop_
_space_group_symop_operation_xyz
x,y,z
-x,-y,z
x,-y,-z
-x,y,-z
-x,-y,-z
x,y,-z
-x,y,z
x,-y,z
1/2+x,1/2+y,1/2+z
1/2-x,1/2-y,1/2+z
1/2+x,1/2-y,1/2-z
1/2-x,1/2+y,1/2-z
1/2-x,1/2-y,1/2-z
1/2+x,1/2+y,1/2-z
1/2-x,1/2+y,1/2+z
1/2+x,1/2-y,1/2+z
loop_
_atom_site_type_symbol
_atom_site_label
_atom_site_fract_x
_atom_site_fract_y
_atom_site_fract_z
Si Si1 0.145646 0.335370 0.327503
Si Si2 0.143958 0.170593 0.681549
Si Si3 0.140956 0.078741 0.000000
Si Si4 0.853842 0.817204 0.422137
Si Si5 0.849706 0.079426 0.500000
Si Si6 0.000000 0.576653 0.448800
Si Si7 0.260103 0.837550 0.077556
Si Si8 0.854399 0.415211 0.763163
O O1 0.167577 0.254977 0.308142
O O2 0.245481 0.351432 0.368096
O O3 0.170781 0.393055 0.288545
O O4 0.000000 0.340669 0.345957
O O5 0.159777 0.154282 0.628634
O O6 0.251331 0.124547 0.706231
O O7 0.000000 0.149244 0.697021
O O8 0.154359 0.125810 0.953823
O O9 0.000000 0.053240 0.000000
O O10 0.217091 0.000000 0.000000
O O11 0.803455 0.879342 0.455216
O O12 0.765684 0.748007 0.430958
O O13 0.000000 0.796651 0.432384
O O14 0.000000 0.073031 0.500000
O O15 0.787719 0.000000 0.500000
O O16 0.116464 0.625731 0.439753
O O17 0.000000 0.500000 0.421185
O O18 0.000000 0.554867 0.500000
O O19 0.832726 0.500000 0.767939
O O20 0.000000 0.394451 0.776761
#
# Coordination Sequence:
#
# PCOD8291452 Si02
#       8
#    16  16   8  16   8   8  16  16
#     4   9  18  34  54  80 105 128 165 219 275 314
#     4   9  18  34  56  78 101 135 177 215 256 314
#     4  11  25  39  47  63 103 153 186 212 249 298
#     4   9  17  30  51  78 105 129 159 214 269 301
#     4   9  17  26  40  68 104 137 161 189 249 315
#     4  11  20  26  44  82 104 120 158 208 260 305
#     4  11  18  33  53  74  98 128 170 215 260 309
#     4  10  21  35  51  76 109 140 168 211 271 322
#
# _framework density 17.969353000000002
#
# number of rings (size 3 to 8) (size 9 to 14) (size 15 to 20)
#    0.000    2.231    2.308    2.308    0.000    2.154 
#    0.000    5.385    0.000    0.000    0.000    0.000 
#    0.000    3.077    0.000    0.000    0.000    0.000 
#
# Total GULP energy -644215.915652 kJ/mol
# GULP energy per Si atom -12388.767609 kJ/mol
# Density = 1.792845 g / cm^3
# Si number density = 17.969353 Si / 1000 Ang^3
#
#
#
# Elastic Constant Matrix: (Units=GPa)
#
#
# Indices 1 2 3 4 5 6 
#
# 1 68.4475 38.7009 41.9139 0.0000 0.0000 0.0000
# 2 38.7009 92.5882 57.8894 0.0000 0.0000 0.0000
# 3 41.9139 57.8894 96.9963 0.0000 0.0000 0.0000
# 4 0.0000 0.0000 0.0000 29.3234 0.0000 0.0000
# 5 0.0000 0.0000 0.0000 0.0000 23.0564 0.0000
# 6 0.0000 0.0000 0.0000 0.0000 0.0000 20.9967
#
#
#
# Elastic Compliance Matrix: (Units=1/GPa)
#
#
# Indices 1 2 3 4 5 6 
#
# 1 0.021228 -0.005006 -0.006185 0.000000 0.000000 0.000000
# 2 -0.005006 0.018410 -0.008825 0.000000 0.000000 0.000000
# 3 -0.006185 -0.008825 0.018249 0.000000 0.000000 0.000000
# 4 0.000000 0.000000 0.000000 0.034102 0.000000 0.000000
# 5 0.000000 0.000000 0.000000 0.000000 0.043372 0.000000
# 6 0.000000 0.000000 0.000000 0.000000 0.000000 0.047626
#
#
# Mechanical properties :
#
#
# Convention : Reuss Voigt Hill
#
# Bulk Modulus (GPa) = 56.00405 59.44895 57.72650
# Shear Modulus (GPa) = 21.83683 22.64383 22.24033
#
# Velocity S-wave (km/s) = 3.48979 3.55369 3.52189
# Velocity P-wave (km/s) = 6.89001 7.07062 6.98090
#
# Compressibility (1/GPa) = 0.01785585
#
# Stress axis : x y z
#
# Youngs Moduli (GPa) = 47.10852 54.31748 54.79686
#
# Poissons Ratio (x) = 0.27189 0.33894
# Poissons Ratio (y) = 0.23581 0.48356
# Poissons Ratio (z) = 0.29138 0.47933
#
# Static dielectric constant tensor:
#      x y z
#    x 2.973760 0.000000 0.000000 
#    y 0.000000 3.511580 0.000000 
#    z 0.000000 0.000000 3.606790 
# 
# 
# High freq. dielectric constant tensor:
#      x y z
#    x 1.653830 0.000000 0.000000 
#    y 0.000000 1.704670 0.000000 
#    z 0.000000 0.000000 1.697950 
# 
# From -- ./inp_files/64692.got.cif
#   From: 2010.06.25/outbox.cif.g09.slc.cpg/sg71_33_cif.got.tgz:64692.got - 2010.06.28 04:59:45.
