data_PCOD8291259
_publ_section_title
;
Structure prediction by ZEFSAII (Michael W. Deem and Ramdas Pophale) SiO2 
 PCOD8291259
Probable space group: I M M M
;
_chemical_formula_sum "Si O2"
_cell_formula_units_Z 88
_cell_length_a 8.836320
_cell_length_b 19.305076
_cell_length_c 27.446932
_cell_angle_alpha 90.000000
_cell_angle_beta 90.000000
_cell_angle_gamma 90.000000
_cell_volume 4682.057653
_symmetry_space_group_name_H-M "I M M M"
_symmetry_group_IT_number 71
_symmetry_cell_setting 'orthorhombic'
loop_
_space_group_symop_operation_xyz
x,y,z
-x,-y,z
x,-y,-z
-x,y,-z
-x,-y,-z
x,y,-z
-x,y,z
x,-y,z
1/2+x,1/2+y,1/2+z
1/2-x,1/2-y,1/2+z
1/2+x,1/2-y,1/2-z
1/2-x,1/2+y,1/2-z
1/2-x,1/2-y,1/2-z
1/2+x,1/2+y,1/2-z
1/2-x,1/2+y,1/2+z
1/2+x,1/2-y,1/2+z
loop_
_atom_site_type_symbol
_atom_site_label
_atom_site_fract_x
_atom_site_fract_y
_atom_site_fract_z
Si Si1 0.678598 0.680853 0.769492
Si Si2 0.324752 0.919227 0.805005
Si Si3 0.820665 0.080212 0.000000
Si Si4 0.179811 0.196139 0.378826
Si Si5 0.319981 0.575930 0.945550
Si Si6 0.179325 0.650689 0.594596
O O1 0.500000 0.686334 0.766047
O O2 0.750000 0.750000 0.750000
O O3 0.732531 0.615102 0.738779
O O4 0.734567 0.675631 0.825036
O O5 0.500000 0.900875 0.797461
O O6 0.271171 0.891957 0.857594
O O7 0.291447 0.000000 0.802737
O O8 0.758421 0.118073 0.047784
O O9 0.000000 0.085743 0.000000
O O10 0.767632 0.000000 0.000000
O O11 0.250859 0.136707 0.412997
O O12 0.238196 0.270881 0.397057
O O13 0.000000 0.197056 0.380928
O O14 0.500000 0.581140 0.945296
O O15 0.270682 0.500000 0.925721
O O16 0.257943 0.586119 0.000000
O O17 0.000000 0.647440 0.586300
#
# Coordination Sequence:
#
# PCOD8291259 Si02
#       6
#    16  16   8  16  16  16
#     4  11  21  36  56  80 113 148 185 230 282 335
#     4  10  21  38  59  83 112 146 189 236 282 340
#     4  11  25  41  55  79 116 147 178 228 285 339
#     4   9  18  31  51  79 109 141 183 229 268 321
#     4   8  14  25  43  70 105 139 167 206 264 317
#     4  10  20  37  60  83 107 144 190 232 278 332
#
# _framework density 18.795155999999999
#
# number of rings (size 3 to 8) (size 9 to 14) (size 15 to 20)
#    0.000    2.273    1.818    1.909    1.273    3.273 
#    0.000    1.818    0.000    0.000    0.000    0.000 
#    0.000    0.727    0.000    0.000    0.000    0.000 
#
# Total GULP energy -545512.711516 kJ/mol
# GULP energy per Si atom -12398.016171 kJ/mol
# Density = 1.875238 g / cm^3
# Si number density = 18.795156 Si / 1000 Ang^3
#
#
#
# Elastic Constant Matrix: (Units=GPa)
#
#
# Indices 1 2 3 4 5 6 
#
# 1 37.4862 39.5216 40.4670 0.0000 0.0000 0.0000
# 2 39.5216 160.3410 105.2348 0.0000 0.0000 0.0000
# 3 40.4670 105.2348 167.4812 0.0000 0.0000 0.0000
# 4 0.0000 0.0000 0.0000 43.7783 0.0000 0.0000
# 5 0.0000 0.0000 0.0000 0.0000 27.9376 0.0000
# 6 0.0000 0.0000 0.0000 0.0000 0.0000 22.7027
#
#
#
# Elastic Compliance Matrix: (Units=1/GPa)
#
#
# Indices 1 2 3 4 5 6 
#
# 1 0.039062 -0.005844 -0.005767 0.000000 0.000000 0.000000
# 2 -0.005844 0.011488 -0.005806 0.000000 0.000000 0.000000
# 3 -0.005767 -0.005806 0.011012 0.000000 0.000000 0.000000
# 4 0.000000 0.000000 0.000000 0.022842 0.000000 0.000000
# 5 0.000000 0.000000 0.000000 0.000000 0.035794 0.000000
# 6 0.000000 0.000000 0.000000 0.000000 0.000000 0.044048
#
#
# Mechanical properties :
#
#
# Convention : Reuss Voigt Hill
#
# Bulk Modulus (GPa) = 37.41142 81.75060 59.58101
# Shear Modulus (GPa) = 24.03964 30.88937 27.46450
#
# Velocity S-wave (km/s) = 3.58024 4.05838 3.82678
# Velocity P-wave (km/s) = 6.08595 8.09633 7.16203
#
# Compressibility (1/GPa) = 0.02672981
#
# Stress axis : x y z
#
# Youngs Moduli (GPa) = 25.60006 87.04832 90.80612
#
# Poissons Ratio (x) = 0.50868 0.52364
# Poissons Ratio (y) = 0.14960 0.52725
# Poissons Ratio (z) = 0.14762 0.50543
#
# Static dielectric constant tensor:
#      x y z
#    x 3.096800 0.000000 0.000000 
#    y 0.000000 3.858640 0.000000 
#    z 0.000000 0.000000 3.514500 
# 
# 
# High freq. dielectric constant tensor:
#      x y z
#    x 1.687940 0.000000 0.000000 
#    y 0.000000 1.747380 0.000000 
#    z 0.000000 0.000000 1.742360 
# 
# From -- ./inp_files/10482.got.cif
#   From: 2010.06.25/outbox.cif.g09.slc.cpg/sg71_6_cif.got.tgz:10482.got - 2010.06.28 04:59:45.
