data_PCOD8291789
_publ_section_title
;
Structure prediction by ZEFSAII (Michael W. Deem and Ramdas Pophale) SiO2 
 PCOD8291789
Probable space group: I M M M
;
_chemical_formula_sum "Si O2"
_cell_formula_units_Z 72
_cell_length_a 12.648681
_cell_length_b 16.025951
_cell_length_c 18.485629
_cell_angle_alpha 90.000000
_cell_angle_beta 90.000000
_cell_angle_gamma 90.000000
_cell_volume 3747.169021
_symmetry_space_group_name_H-M "I M M M"
_symmetry_group_IT_number 71
_symmetry_cell_setting 'orthorhombic'
loop_
_space_group_symop_operation_xyz
x,y,z
-x,-y,z
x,-y,-z
-x,y,-z
-x,-y,-z
x,y,-z
-x,y,z
x,-y,z
1/2+x,1/2+y,1/2+z
1/2-x,1/2-y,1/2+z
1/2+x,1/2-y,1/2-z
1/2-x,1/2+y,1/2-z
1/2-x,1/2-y,1/2-z
1/2+x,1/2+y,1/2-z
1/2-x,1/2+y,1/2+z
1/2+x,1/2-y,1/2+z
loop_
_atom_site_type_symbol
_atom_site_label
_atom_site_fract_x
_atom_site_fract_y
_atom_site_fract_z
Si Si1 0.625981 0.000000 0.585940
Si Si2 0.884317 0.733299 0.584173
Si Si3 0.225151 0.904763 0.917461
Si Si4 0.380678 0.676546 0.293562
Si Si5 0.770910 0.343712 0.167960
O O1 0.670748 0.919974 0.628748
O O2 0.500000 0.000000 0.592468
O O3 0.658045 0.000000 0.500000
O O4 0.898014 0.744393 0.500000
O O5 0.831127 0.645104 0.604071
O O6 0.811511 0.807987 0.610416
O O7 0.000000 0.735924 0.621687
O O8 0.127953 0.873192 0.868998
O O9 0.252095 0.000000 0.902805
O O10 0.191646 0.887748 0.000000
O O11 0.500000 0.668811 0.264721
O O12 0.299362 0.631822 0.237960
O O13 0.355192 0.774306 0.306232
#
# Coordination Sequence:
#
# PCOD8291789 Si02
#       5
#     8  16  16  16  16
#     4  11  24  42  65  91 120 155 195 243 297 351
#     4   9  17  32  55  80 110 149 188 230 283 340
#     4   9  19  34  52  79 114 148 191 241 284 336
#     4  10  21  37  59  82 113 156 194 236 293 348
#     4  10  21  38  59  84 118 146 194 242 288 345
#
# _framework density 19.214504000000002
#
# number of rings (size 3 to 8) (size 9 to 14) (size 15 to 20)
#    0.000    2.333    0.000    2.000    1.556    2.222 
#    0.000    6.111    0.000    4.000    0.000    0.000 
#    0.000    0.000    0.000    0.000    0.000    0.000 
#
# Total GULP energy -446212.830086 kJ/mol
# GULP energy per Si atom -12394.800836 kJ/mol
# Density = 1.917077 g / cm^3
# Si number density = 19.214504 Si / 1000 Ang^3
#
#
#
# Elastic Constant Matrix: (Units=GPa)
#
#
# Indices 1 2 3 4 5 6 
#
# 1 126.1156 49.2467 53.8300 0.0000 0.0000 0.0000
# 2 49.2467 111.5001 56.9997 0.0000 0.0000 0.0000
# 3 53.8300 56.9997 88.8628 0.0000 0.0000 0.0000
# 4 0.0000 0.0000 0.0000 33.9469 0.0000 0.0000
# 5 0.0000 0.0000 0.0000 0.0000 19.4490 0.0000
# 6 0.0000 0.0000 0.0000 0.0000 0.0000 17.3389
#
#
#
# Elastic Compliance Matrix: (Units=1/GPa)
#
#
# Indices 1 2 3 4 5 6 
#
# 1 0.011036 -0.002167 -0.005295 0.000000 0.000000 0.000000
# 2 -0.002167 0.013770 -0.007520 0.000000 0.000000 0.000000
# 3 -0.005295 -0.007520 0.019284 0.000000 0.000000 0.000000
# 4 0.000000 0.000000 0.000000 0.029458 0.000000 0.000000
# 5 0.000000 0.000000 0.000000 0.000000 0.051416 0.000000
# 6 0.000000 0.000000 0.000000 0.000000 0.000000 0.057674
#
#
# Mechanical properties :
#
#
# Convention : Reuss Voigt Hill
#
# Bulk Modulus (GPa) = 70.79108 71.84793 71.31951
# Shear Modulus (GPa) = 23.00865 25.24043 24.12454
#
# Velocity S-wave (km/s) = 3.46419 3.62831 3.54720
# Velocity P-wave (km/s) = 7.27484 7.41799 7.34677
#
# Compressibility (1/GPa) = 0.01412607
#
# Stress axis : x y z
#
# Youngs Moduli (GPa) = 90.61648 72.62183 51.85652
#
# Poissons Ratio (x) = 0.15740 0.27456
# Poissons Ratio (y) = 0.19640 0.38994
# Poissons Ratio (z) = 0.47979 0.54609
#
# Static dielectric constant tensor:
#      x y z
#    x 3.544760 0.000000 0.000000 
#    y 0.000000 3.393610 0.000000 
#    z 0.000000 0.000000 3.773480 
# 
# 
# High freq. dielectric constant tensor:
#      x y z
#    x 1.746450 0.000000 0.000000 
#    y 0.000000 1.733860 0.000000 
#    z 0.000000 0.000000 1.762860 
# 
# From -- ./inp_files/43090.got.cif
#   From: 2010.06.25/outbox.cif.g09.slc.cpg/sg71_22_cif.got.tgz:43090.got - 2010.06.28 04:59:45.
