data_PCOD8291649
_publ_section_title
;
Structure prediction by ZEFSAII (Michael W. Deem and Ramdas Pophale) SiO2 
 PCOD8291649
Probable space group: I M M M
;
_chemical_formula_sum "Si O2"
_cell_formula_units_Z 64
_cell_length_a 29.364658
_cell_length_b 8.770513
_cell_length_c 12.584657
_cell_angle_alpha 90.000000
_cell_angle_beta 90.000000
_cell_angle_gamma 90.000000
_cell_volume 3241.091762
_symmetry_space_group_name_H-M "I M M M"
_symmetry_group_IT_number 71
_symmetry_cell_setting 'orthorhombic'
loop_
_space_group_symop_operation_xyz
x,y,z
-x,-y,z
x,-y,-z
-x,y,-z
-x,-y,-z
x,y,-z
-x,y,z
x,-y,z
1/2+x,1/2+y,1/2+z
1/2-x,1/2-y,1/2+z
1/2+x,1/2-y,1/2-z
1/2-x,1/2+y,1/2-z
1/2-x,1/2-y,1/2-z
1/2+x,1/2+y,1/2-z
1/2-x,1/2+y,1/2+z
1/2+x,1/2-y,1/2+z
loop_
_atom_site_type_symbol
_atom_site_label
_atom_site_fract_x
_atom_site_fract_y
_atom_site_fract_z
Si Si1 0.947286 0.679279 0.000000
Si Si2 0.500000 0.680770 0.877725
Si Si3 0.674320 0.821860 0.223828
Si Si4 0.919683 0.820175 0.777222
Si Si5 0.751113 0.169929 0.382482
O O1 0.925293 0.745602 0.106979
O O2 0.938749 0.500000 0.000000
O O3 0.000000 0.723536 0.000000
O O4 0.500000 0.500000 0.885599
O O5 0.456424 0.738196 0.809900
O O6 0.500000 0.746603 0.000000
O O7 0.628667 0.725033 0.229232
O O8 0.708422 0.765861 0.316683
O O9 0.703514 0.775726 0.119939
O O10 0.662267 0.000000 0.227086
O O11 0.923785 0.000000 0.792220
O O12 0.732011 0.166479 0.500000
O O13 0.763893 0.000000 0.342231
#
# Coordination Sequence:
#
# PCOD8291649 Si02
#       5
#     8   8  16  16  16
#     4  11  23  39  61  87 121 157 193 245 305 350
#     4   9  20  39  61  84 114 153 196 241 286 343
#     4  10  21  36  56  85 118 150 190 240 295 348
#     4  11  22  38  61  89 119 154 200 244 292 354
#     4   9  19  37  58  79 110 154 197 238 286 346
#
# _framework density 19.746431999999999
#
# number of rings (size 3 to 8) (size 9 to 14) (size 15 to 20)
#    0.000    2.000    1.250    1.875    1.750    3.000 
#    0.000    2.500    0.000    5.250    0.000    0.000 
#    0.000    0.000    0.000    0.000    0.000    0.000 
#
# Total GULP energy -396635.038856 kJ/mol
# GULP energy per Si atom -12394.844964 kJ/mol
# Density = 1.970149 g / cm^3
# Si number density = 19.746432 Si / 1000 Ang^3
#
#
#
# Elastic Constant Matrix: (Units=GPa)
#
#
# Indices 1 2 3 4 5 6 
#
# 1 140.3089 25.9592 41.6424 0.0000 0.0000 0.0000
# 2 25.9592 48.9342 15.4921 0.0000 0.0000 0.0000
# 3 41.6424 15.4921 108.8318 0.0000 0.0000 0.0000
# 4 0.0000 0.0000 0.0000 19.2795 0.0000 0.0000
# 5 0.0000 0.0000 0.0000 0.0000 12.5075 0.0000
# 6 0.0000 0.0000 0.0000 0.0000 0.0000 34.4215
#
#
#
# Elastic Compliance Matrix: (Units=1/GPa)
#
#
# Indices 1 2 3 4 5 6 
#
# 1 0.008636 -0.003702 -0.002778 0.000000 0.000000 0.000000
# 2 -0.003702 0.022987 -0.001856 0.000000 0.000000 0.000000
# 3 -0.002778 -0.001856 0.010515 0.000000 0.000000 0.000000
# 4 0.000000 0.000000 0.000000 0.051868 0.000000 0.000000
# 5 0.000000 0.000000 0.000000 0.000000 0.079952 0.000000
# 6 0.000000 0.000000 0.000000 0.000000 0.000000 0.029052
#
#
# Mechanical properties :
#
#
# Convention : Reuss Voigt Hill
#
# Bulk Modulus (GPa) = 39.26473 51.58472 45.42472
# Shear Modulus (GPa) = 21.91338 27.57378 24.74358
#
# Velocity S-wave (km/s) = 3.33489 3.74089 3.54371
# Velocity P-wave (km/s) = 5.89545 6.69621 6.30855
#
# Compressibility (1/GPa) = 0.02546815
#
# Stress axis : x y z
#
# Youngs Moduli (GPa) = 115.78828 43.50274 95.09845
#
# Poissons Ratio (x) = 0.16106 0.26414
# Poissons Ratio (y) = 0.42867 0.17647
# Poissons Ratio (z) = 0.32161 0.08072
#
# Static dielectric constant tensor:
#      x y z
#    x 3.643260 0.000000 0.000000 
#    y 0.000000 3.580340 0.000000 
#    z 0.000000 0.000000 3.738250 
# 
# 
# High freq. dielectric constant tensor:
#      x y z
#    x 1.773910 0.000000 0.000000 
#    y 0.000000 1.762090 0.000000 
#    z 0.000000 0.000000 1.772490 
# 
# From -- ./inp_files/14207.got.cif
#   From: 2010.06.25/outbox.cif.g09.slc.cpg/sg71_8_cif.got.tgz:14207.got - 2010.06.28 04:59:45.
