data_PCOD8291072
_publ_section_title
;
Structure prediction by ZEFSAII (Michael W. Deem and Ramdas Pophale) SiO2 
 PCOD8291072
Probable space group: I M M M
;
_chemical_formula_sum "Si O2"
_cell_formula_units_Z 80
_cell_length_a 24.450311
_cell_length_b 19.744957
_cell_length_c 8.855854
_cell_angle_alpha 90.000000
_cell_angle_beta 90.000000
_cell_angle_gamma 90.000000
_cell_volume 4275.343641
_symmetry_space_group_name_H-M "I M M M"
_symmetry_group_IT_number 71
_symmetry_cell_setting 'orthorhombic'
loop_
_space_group_symop_operation_xyz
x,y,z
-x,-y,z
x,-y,-z
-x,y,-z
-x,-y,-z
x,y,-z
-x,y,z
x,-y,z
1/2+x,1/2+y,1/2+z
1/2-x,1/2-y,1/2+z
1/2+x,1/2-y,1/2-z
1/2-x,1/2+y,1/2-z
1/2-x,1/2-y,1/2-z
1/2+x,1/2+y,1/2-z
1/2-x,1/2+y,1/2+z
1/2+x,1/2-y,1/2+z
loop_
_atom_site_type_symbol
_atom_site_label
_atom_site_fract_x
_atom_site_fract_y
_atom_site_fract_z
Si Si1 0.647948 0.105792 0.822221
Si Si2 0.000000 0.923408 0.674213
Si Si3 0.310320 0.248936 0.822966
Si Si4 0.617128 0.622060 0.823184
Si Si5 0.170412 0.000000 0.826624
Si Si6 0.719950 0.000000 0.673561
Si Si7 0.060417 0.500000 0.679046
O O1 0.653746 0.183678 0.771920
O O2 0.592183 0.068296 0.766787
O O3 0.698809 0.068071 0.749558
O O4 0.652707 0.097692 0.000000
O O5 0.052191 0.875466 0.711782
O O6 0.000000 0.940211 0.500000
O O7 0.000000 0.000000 0.751274
O O8 0.250000 0.250000 0.750000
O O9 0.349506 0.310792 0.776632
O O10 0.299451 0.247553 0.000000
O O11 0.635484 0.565810 0.705849
O O12 0.627873 0.604555 0.000000
O O13 0.216276 0.000000 0.699097
O O14 0.191364 0.000000 0.000000
O O15 0.704049 0.000000 0.500000
O O16 0.055588 0.500000 0.500000
O O17 0.000000 0.500000 0.752599
#
# Coordination Sequence:
#
# PCOD8291072 Si02
#       7
#    16   8  16  16   8   8   8
#     4   9  18  34  52  76 110 140 172 217 269 316
#     4   9  16  32  58  80 106 141 176 225 271 310
#     4  10  21  35  53  78 109 143 177 218 266 321
#     4  10  20  36  56  79 107 143 183 220 266 320
#     4  12  23  34  51  78 106 138 179 225 273 317
#     4  11  21  33  53  79 103 137 181 222 267 326
#     4   8  14  28  52  77 104 137 170 210 259 311
#
# _framework density 18.711946000000001
#
# number of rings (size 3 to 8) (size 9 to 14) (size 15 to 20)
#    0.000    2.200    1.000    3.600    0.000    4.800 
#    1.800    1.000    0.000    4.800    0.000    0.000 
#    0.000    0.000    0.000    0.000    0.000    0.000 
#
# Total GULP energy -495567.750089 kJ/mol
# GULP energy per Si atom -12389.193752 kJ/mol
# Density = 1.866936 g / cm^3
# Si number density = 18.711946 Si / 1000 Ang^3
#
#
#
# Elastic Constant Matrix: (Units=GPa)
#
#
# Indices 1 2 3 4 5 6 
#
# 1 160.5300 82.1137 17.8400 0.0000 0.0000 0.0000
# 2 82.1137 164.2423 35.0182 0.0000 0.0000 0.0000
# 3 17.8400 35.0182 23.4698 0.0000 0.0000 0.0000
# 4 0.0000 0.0000 0.0000 53.7051 0.0000 0.0000
# 5 0.0000 0.0000 0.0000 0.0000 21.4565 0.0000
# 6 0.0000 0.0000 0.0000 0.0000 0.0000 31.8375
#
#
#
# Elastic Compliance Matrix: (Units=1/GPa)
#
#
# Indices 1 2 3 4 5 6 
#
# 1 0.008370 -0.004148 -0.000174 0.000000 0.000000 0.000000
# 2 -0.004148 0.010984 -0.013237 0.000000 0.000000 0.000000
# 3 -0.000174 -0.013237 0.062490 0.000000 0.000000 0.000000
# 4 0.000000 0.000000 0.000000 0.018620 0.000000 0.000000
# 5 0.000000 0.000000 0.000000 0.000000 0.046606 0.000000
# 6 0.000000 0.000000 0.000000 0.000000 0.000000 0.031409
#
#
# Mechanical properties :
#
#
# Convention : Reuss Voigt Hill
#
# Bulk Modulus (GPa) = 21.40033 68.68733 45.04383
# Shear Modulus (GPa) = 21.81762 35.61784 28.71773
#
# Velocity S-wave (km/s) = 3.41834 4.36762 3.92181
# Velocity P-wave (km/s) = 5.20015 7.88811 6.68071
#
# Compressibility (1/GPa) = 0.04672826
#
# Stress axis : x y z
#
# Youngs Moduli (GPa) = 119.46998 91.03821 16.00260
#
# Poissons Ratio (x) = 0.37760 0.00278
# Poissons Ratio (y) = 0.49553 0.21182
# Poissons Ratio (z) = 0.02078 1.20503
#
# Static dielectric constant tensor:
#      x y z
#    x 3.748770 0.000000 0.000000 
#    y 0.000000 3.609130 0.000000 
#    z 0.000000 0.000000 3.141730 
# 
# 
# High freq. dielectric constant tensor:
#      x y z
#    x 1.732090 0.000000 0.000000 
#    y 0.000000 1.727820 0.000000 
#    z 0.000000 0.000000 1.696410 
# 
# From -- ./inp_files/12435.got.cif
#   From: 2010.06.25/outbox.cif.g09.slc.cpg/sg71_7_cif.got.tgz:12435.got - 2010.06.28 04:59:45.
