data_PCOD8291014
_publ_section_title
;
Structure prediction by ZEFSAII (Michael W. Deem and Ramdas Pophale) SiO2 
 PCOD8291014
Probable space group: I M M M
;
_chemical_formula_sum "Si O2"
_cell_formula_units_Z 64
_cell_length_a 32.896570
_cell_length_b 9.096408
_cell_length_c 10.932662
_cell_angle_alpha 90.000000
_cell_angle_beta 90.000000
_cell_angle_gamma 90.000000
_cell_volume 3271.496583
_symmetry_space_group_name_H-M "I M M M"
_symmetry_group_IT_number 71
_symmetry_cell_setting 'orthorhombic'
loop_
_space_group_symop_operation_xyz
x,y,z
-x,-y,z
x,-y,-z
-x,y,-z
-x,-y,-z
x,y,-z
-x,y,z
x,-y,z
1/2+x,1/2+y,1/2+z
1/2-x,1/2-y,1/2+z
1/2+x,1/2-y,1/2-z
1/2-x,1/2+y,1/2-z
1/2-x,1/2-y,1/2-z
1/2+x,1/2+y,1/2-z
1/2-x,1/2+y,1/2+z
1/2+x,1/2-y,1/2+z
loop_
_atom_site_type_symbol
_atom_site_label
_atom_site_fract_x
_atom_site_fract_y
_atom_site_fract_z
Si Si1 0.168736 0.170360 0.735728
Si Si2 0.206063 0.671687 0.500000
Si Si3 0.077120 0.168831 0.222715
Si Si4 0.046085 0.672312 0.000000
Si Si5 0.801472 0.830376 0.000000
Si Si6 0.500000 0.673872 0.130680
O O1 0.189548 0.257731 0.625204
O O2 0.120619 0.187121 0.713385
O O3 0.182390 0.000000 0.726792
O O4 0.180372 0.234653 0.871576
O O5 0.194905 0.500000 0.500000
O O6 0.253877 0.698467 0.500000
O O7 0.041287 0.227962 0.308177
O O8 0.070051 0.000000 0.182682
O O9 0.074149 0.274671 0.108948
O O10 0.042183 0.500000 0.000000
O O11 0.000000 0.740706 0.000000
O O12 0.813779 0.000000 0.000000
O O13 0.500000 0.500000 0.121113
O O14 0.500000 0.750382 0.000000
#
# Coordination Sequence:
#
# PCOD8291014 Si02
#       6
#    16   8  16   8   8   8
#     4  10  21  38  62  89 115 148 195 248 291 336
#     4  11  23  38  58  85 120 158 189 230 293 360
#     4  10  20  35  59  84 110 145 189 237 282 325
#     4  11  22  35  53  79 115 151 185 226 277 334
#     4   9  19  38  60  85 117 151 193 242 292 345
#     4   9  18  31  51  80 110 139 180 233 278 321
#
# _framework density 19.562913000000002
#
# number of rings (size 3 to 8) (size 9 to 14) (size 15 to 20)
#    0.000    2.000    1.250    2.250    1.750    3.500 
#    0.000    1.875    0.000    0.750    0.000    0.000 
#    0.000    0.000    0.000    0.000    0.000    0.000 
#
# Total GULP energy -396570.124667 kJ/mol
# GULP energy per Si atom -12392.816396 kJ/mol
# Density = 1.951839 g / cm^3
# Si number density = 19.562913 Si / 1000 Ang^3
#
#
#
# Elastic Constant Matrix: (Units=GPa)
#
#
# Indices 1 2 3 4 5 6 
#
# 1 113.1022 32.9278 62.0121 0.0000 0.0000 0.0000
# 2 32.9278 58.2211 44.0423 0.0000 0.0000 0.0000
# 3 62.0121 44.0423 175.1242 0.0000 0.0000 0.0000
# 4 0.0000 0.0000 0.0000-1023.7261 0.0000 0.0000
# 5 0.0000 0.0000 0.0000 0.0000 21.8368 0.0000
# 6 0.0000 0.0000 0.0000 0.0000 0.0000 24.8293
#
#
#
# Elastic Compliance Matrix: (Units=1/GPa)
#
#
# Indices 1 2 3 4 5 6 
#
# 1 0.011796 -0.004337 -0.003086 0.000000 0.000000 0.000000
# 2 -0.004337 0.022806 -0.004200 0.000000 0.000000 0.000000
# 3 -0.003086 -0.004200 0.007859 0.000000 0.000000 0.000000
# 4 0.000000 0.000000 0.000000 -0.000977 0.000000 0.000000
# 5 0.000000 0.000000 0.000000 0.000000 0.045794 0.000000
# 6 0.000000 0.000000 0.000000 0.000000 0.000000 0.040275
#
#
# Mechanical properties :
#
#
# Convention : Reuss Voigt Hill
#
# Bulk Modulus (GPa) = 52.04180 69.37910 60.71045
# Shear Modulus (GPa) = 31.80556 -181.58100 -74.88772
#
# Velocity S-wave (km/s) = 4.03651 -9.64471 -6.19383
# Velocity P-wave (km/s) = 6.95590 9.40669 4.47779
#
# Compressibility (1/GPa) = 0.01921532
#
# Stress axis : x y z
#
# Youngs Moduli (GPa) = 84.77140 43.84882 127.23669
#
# Poissons Ratio (x) = 0.19017 0.39271
# Poissons Ratio (y) = 0.36764 0.53436
# Poissons Ratio (z) = 0.26165 0.18415
#
# Static dielectric constant tensor:
#      x y z
#    x 3.886150 0.000000 0.000000 
#    y 0.000000 3.257450 0.000000 
#    z 0.000000 0.000000 3.132010 
# 
# 
# High freq. dielectric constant tensor:
#      x y z
#    x 1.777610 0.000000 0.000000 
#    y 0.000000 1.724410 0.000000 
#    z 0.000000 0.000000 1.773800 
# 
# From -- ./inp_files/29497.got.cif
#   From: 2010.06.25/outbox.cif.g09.slc.cpg/sg71_15_cif.got.tgz:29497.got - 2010.06.28 04:59:45.
