data_PCOD8291733
_publ_section_title
;
Structure prediction by ZEFSAII (Michael W. Deem and Ramdas Pophale) SiO2 
 PCOD8291733
Probable space group: I M M M
;
_chemical_formula_sum "Si O2"
_cell_formula_units_Z 112
_cell_length_a 17.107528
_cell_length_b 23.489365
_cell_length_c 13.850644
_cell_angle_alpha 90.000000
_cell_angle_beta 90.000000
_cell_angle_gamma 90.000000
_cell_volume 5565.811615
_symmetry_space_group_name_H-M "I M M M"
_symmetry_group_IT_number 71
_symmetry_cell_setting 'orthorhombic'
loop_
_space_group_symop_operation_xyz
x,y,z
-x,-y,z
x,-y,-z
-x,y,-z
-x,-y,-z
x,y,-z
-x,y,z
x,-y,z
1/2+x,1/2+y,1/2+z
1/2-x,1/2-y,1/2+z
1/2+x,1/2-y,1/2-z
1/2-x,1/2+y,1/2-z
1/2-x,1/2-y,1/2-z
1/2+x,1/2+y,1/2-z
1/2-x,1/2+y,1/2+z
1/2+x,1/2-y,1/2+z
loop_
_atom_site_type_symbol
_atom_site_label
_atom_site_fract_x
_atom_site_fract_y
_atom_site_fract_z
Si Si1 0.408112 0.735897 0.894921
Si Si2 0.668346 0.834155 0.218169
Si Si3 0.907243 0.109576 0.393842
Si Si4 0.909855 0.714368 0.888770
Si Si5 0.326135 0.330844 0.610284
Si Si6 0.092118 0.936529 0.195195
Si Si7 0.909486 0.565319 0.611147
O O1 0.500000 0.733199 0.899643
O O2 0.384501 0.783009 0.819824
O O3 0.376878 0.673083 0.867229
O O4 0.374232 0.752942 0.000000
O O5 0.649584 0.828657 0.332370
O O6 0.757099 0.822930 0.187978
O O7 0.643014 0.895682 0.179313
O O8 0.874572 0.090595 0.500000
O O9 0.878274 0.069535 0.306632
O O10 0.000000 0.108404 0.399723
O O11 0.887552 0.780414 0.870918
O O12 0.000000 0.706302 0.856055
O O13 0.899417 0.697897 0.000000
O O14 0.294406 0.328906 0.500000
O O15 0.367030 0.391652 0.625169
O O16 0.000000 0.925880 0.189498
O O17 0.114120 0.000000 0.160147
O O18 0.890532 0.579617 0.500000
O O19 0.888654 0.500000 0.634007
O O20 0.000000 0.577465 0.632513
#
# Coordination Sequence:
#
# PCOD8291733 Si02
#       7
#    16  16  16  16  16  16  16
#     4   9  16  26  46  79 113 143 178 221 273 334
#     4  12  21  34  57  83 109 143 185 229 278 335
#     4   8  15  29  50  78 110 139 172 226 287 326
#     4  10  22  40  61  84 112 149 189 227 271 330
#     4  11  24  39  55  81 117 149 181 231 295 347
#     4  10  21  37  57  79 105 148 206 249 275 320
#     4   9  18  32  51  79 114 148 182 223 275 334
#
# _framework density 20.122852000000002
#
# number of rings (size 3 to 8) (size 9 to 14) (size 15 to 20)
#    0.000    2.143    0.000    5.571    0.000    4.286 
#    0.000    4.286    0.000    0.429    0.000    2.000 
#    0.000    0.000    0.000    0.000    0.000    0.000 
#
# Total GULP energy -694164.646202 kJ/mol
# GULP energy per Si atom -12395.797254 kJ/mol
# Density = 2.007705 g / cm^3
# Si number density = 20.122852 Si / 1000 Ang^3
#
#
#
# Elastic Constant Matrix: (Units=GPa)
#
#
# Indices 1 2 3 4 5 6 
#
# 1 59.2226 26.1448 39.6686 0.0000 0.0000 0.0000
# 2 26.1448 83.9423 38.1081 0.0000 0.0000 0.0000
# 3 39.6686 38.1081 86.0513 0.0001 0.0000 0.0000
# 4 0.0000 0.0000 0.0001 23.2233 0.0000 0.0000
# 5 0.0000 0.0000 0.0000 0.0000 25.2868 0.0000
# 6 0.0000 0.0000 0.0000 0.0000 0.0000 14.0869
#
#
#
# Elastic Compliance Matrix: (Units=1/GPa)
#
#
# Indices 1 2 3 4 5 6 
#
# 1 0.025101 -0.003210 -0.010150 0.000000 0.000000 0.000000
# 2 -0.003210 0.015321 -0.005305 0.000000 0.000000 0.000000
# 3 -0.010150 -0.005305 0.018649 0.000000 0.000000 0.000000
# 4 0.000000 0.000000 0.000000 0.043060 0.000000 0.000000
# 5 0.000000 0.000000 0.000000 0.000000 0.039546 0.000000
# 6 0.000000 0.000000 0.000000 0.000000 0.000000 0.070988
#
#
# Mechanical properties :
#
#
# Convention : Reuss Voigt Hill
#
# Bulk Modulus (GPa) = 45.99509 48.56213 47.27861
# Shear Modulus (GPa) = 19.43685 20.87239 20.15462
#
# Velocity S-wave (km/s) = 3.11128 3.22413 3.16821
# Velocity P-wave (km/s) = 5.98444 6.16808 6.07695
#
# Compressibility (1/GPa) = 0.02174145
#
# Stress axis : x y z
#
# Youngs Moduli (GPa) = 39.83885 65.26878 53.62157
#
# Poissons Ratio (x) = 0.20953 0.54424
# Poissons Ratio (y) = 0.12790 0.28447
# Poissons Ratio (z) = 0.40435 0.34626
#
# Static dielectric constant tensor:
#      x y z
#    x 3.377200 0.000000 0.000000 
#    y 0.000000 3.598870 0.000000 
#    z 0.000000 0.000000 4.086030 
# 
# 
# High freq. dielectric constant tensor:
#      x y z
#    x 1.758350 0.000000 0.000000 
#    y 0.000000 1.774800 0.000000 
#    z 0.000000 0.000000 1.790930 
# 
# From -- ./inp_files/34877.got.cif
#   From: 2010.06.25/outbox.cif.g09.slc.cpg/sg71_18_cif.got.tgz:34877.got - 2010.06.28 04:59:45.
