data_PCOD8291141
_publ_section_title
;
Structure prediction by ZEFSAII (Michael W. Deem and Ramdas Pophale) SiO2 
 PCOD8291141
Probable space group: I M M M
;
_chemical_formula_sum "Si O2"
_cell_formula_units_Z 96
_cell_length_a 10.619224
_cell_length_b 14.260689
_cell_length_c 35.422188
_cell_angle_alpha 90.000000
_cell_angle_beta 90.000000
_cell_angle_gamma 90.000000
_cell_volume 5364.245856
_symmetry_space_group_name_H-M "I M M M"
_symmetry_group_IT_number 71
_symmetry_cell_setting 'orthorhombic'
loop_
_space_group_symop_operation_xyz
x,y,z
-x,-y,z
x,-y,-z
-x,y,-z
-x,-y,-z
x,y,-z
-x,y,z
x,-y,z
1/2+x,1/2+y,1/2+z
1/2-x,1/2-y,1/2+z
1/2+x,1/2-y,1/2-z
1/2-x,1/2+y,1/2-z
1/2-x,1/2-y,1/2-z
1/2+x,1/2+y,1/2-z
1/2-x,1/2+y,1/2+z
1/2+x,1/2-y,1/2+z
loop_
_atom_site_type_symbol
_atom_site_label
_atom_site_fract_x
_atom_site_fract_y
_atom_site_fract_z
Si Si1 0.646573 0.295571 0.277982
Si Si2 0.639527 0.000000 0.691668
Si Si3 0.500000 0.392356 0.044829
Si Si4 0.858228 0.601395 0.000000
Si Si5 0.358951 0.500000 0.747927
Si Si6 0.357129 0.604674 0.455390
Si Si7 0.747189 0.289826 0.931989
Si Si8 0.641143 0.809962 0.351963
O O1 0.500000 0.264272 0.268576
O O2 0.750000 0.250000 0.250000
O O3 0.657644 0.407810 0.277543
O O4 0.683500 0.264945 0.320288
O O5 0.654169 0.911737 0.665288
O O6 0.500000 0.000000 0.711233
O O7 0.751252 0.000000 0.721188
O O8 0.500000 0.500000 0.059822
O O9 0.387613 0.331431 0.060435
O O10 0.500000 0.391424 0.000000
O O11 0.837746 0.659897 0.961987
O O12 0.781895 0.500000 0.000000
O O13 0.000000 0.571780 0.000000
O O14 0.500000 0.500000 0.766346
O O15 0.347794 0.610357 0.500000
O O16 0.500000 0.628649 0.442478
O O17 0.320783 0.500000 0.441549
O O18 0.258589 0.677778 0.437547
O O19 0.772778 0.309546 0.888473
O O20 0.500000 0.787601 0.365199
#
# Coordination Sequence:
#
# PCOD8291141 Si02
#       8
#    16   8   8   8   8  16  16  16
#     4  10  20  38  60  87 119 152 191 237 289 349
#     4  10  20  36  58  87 119 152 192 243 300 352
#     4  11  24  42  59  79 115 165 208 242 288 354
#     4  11  22  33  56  86 111 147 195 242 290 350
#     4  10  20  36  62  90 117 152 195 238 286 354
#     4   9  17  32  57  87 112 138 183 241 294 343
#     4  12  22  39  58  80 118 158 197 240 297 353
#     4  10  22  37  57  86 119 151 191 245 300 349
#
# _framework density 17.896270999999999
#
# number of rings (size 3 to 8) (size 9 to 14) (size 15 to 20)
#    0.000    1.667    3.333    2.500    2.333    0.000 
#    4.500    0.417    0.000    1.500    0.000    0.000 
#    0.000    0.000    0.000    0.000    0.000    0.000 
#
# Total GULP energy -594839.145388 kJ/mol
# GULP energy per Si atom -12392.482196 kJ/mol
# Density = 1.785554 g / cm^3
# Si number density = 17.896271 Si / 1000 Ang^3
#
#
#
# Elastic Constant Matrix: (Units=GPa)
#
#
# Indices 1 2 3 4 5 6 
#
# 1 110.0436 62.2919 56.4947 0.0000 0.0000 0.0000
# 2 62.2919 154.8373 53.2767 0.0000 0.0000 0.0000
# 3 56.4947 53.2767 112.8333 0.0000 0.0000 0.0000
# 4 0.0000 0.0000 0.0000 5.5068 0.0000 0.0000
# 5 0.0000 0.0000 0.0000 0.0000 41.8987 0.0000
# 6 0.0000 0.0000 0.0000 0.0000 0.0000 29.7168
#
#
#
# Elastic Compliance Matrix: (Units=1/GPa)
#
#
# Indices 1 2 3 4 5 6 
#
# 1 0.013894 -0.003816 -0.005155 0.000000 0.000000 0.000000
# 2 -0.003816 0.008759 -0.002225 0.000000 0.000000 0.000000
# 3 -0.005155 -0.002225 0.012494 0.000000 0.000000 0.000000
# 4 0.000000 0.000000 0.000000 0.181592 0.000000 0.000000
# 5 0.000000 0.000000 0.000000 0.000000 0.023867 0.000000
# 6 0.000000 0.000000 0.000000 0.000000 0.000000 0.033651
#
#
# Mechanical properties :
#
#
# Convention : Reuss Voigt Hill
#
# Bulk Modulus (GPa) = 78.39784 80.20454 79.30119
# Shear Modulus (GPa) = 16.61675 29.13453 22.87564
#
# Velocity S-wave (km/s) = 3.05044 4.03918 3.57912
# Velocity P-wave (km/s) = 7.50392 8.16498 7.84142
#
# Compressibility (1/GPa) = 0.01275545
#
# Stress axis : x y z
#
# Youngs Moduli (GPa) = 71.97519 114.16547 80.03670
#
# Poissons Ratio (x) = 0.43564 0.41257
# Poissons Ratio (y) = 0.27465 0.17810
# Poissons Ratio (z) = 0.37101 0.25405
#
# Static dielectric constant tensor:
#      x y z
#    x 3.233240 0.000000 0.000000 
#    y 0.000000 3.750490 0.000000 
#    z 0.000000 0.000000 3.177750 
# 
# 
# High freq. dielectric constant tensor:
#      x y z
#    x 1.684290 0.000000 0.000000 
#    y 0.000000 1.713600 0.000000 
#    z 0.000000 0.000000 1.674210 
# 
# From -- ./inp_files/69294.got.cif
#   From: 2010.06.25/outbox.cif.g09.slc.cpg/sg71_35_cif.got.tgz:69294.got - 2010.06.28 04:59:45.
