data_PCOD8291599
_publ_section_title
;
Structure prediction by ZEFSAII (Michael W. Deem and Ramdas Pophale) SiO2 
 PCOD8291599
Probable space group: I M M M
;
_chemical_formula_sum "Si O2"
_cell_formula_units_Z 96
_cell_length_a 20.620826
_cell_length_b 17.133854
_cell_length_c 14.446702
_cell_angle_alpha 90.000000
_cell_angle_beta 90.000000
_cell_angle_gamma 90.000000
_cell_volume 5104.225278
_symmetry_space_group_name_H-M "I M M M"
_symmetry_group_IT_number 71
_symmetry_cell_setting 'orthorhombic'
loop_
_space_group_symop_operation_xyz
x,y,z
-x,-y,z
x,-y,-z
-x,y,-z
-x,-y,-z
x,y,-z
-x,y,z
x,-y,z
1/2+x,1/2+y,1/2+z
1/2-x,1/2-y,1/2+z
1/2+x,1/2-y,1/2-z
1/2-x,1/2+y,1/2-z
1/2-x,1/2-y,1/2-z
1/2+x,1/2+y,1/2-z
1/2-x,1/2+y,1/2+z
1/2+x,1/2-y,1/2+z
loop_
_atom_site_type_symbol
_atom_site_label
_atom_site_fract_x
_atom_site_fract_y
_atom_site_fract_z
Si Si1 0.425775 0.590972 0.289444
Si Si2 0.279626 0.847169 0.602450
Si Si3 0.641479 0.410712 0.897455
Si Si4 0.570655 0.092849 0.895853
Si Si5 0.192602 0.589631 0.289791
Si Si6 0.189486 0.167880 0.893285
O O1 0.500000 0.614587 0.308561
O O2 0.413873 0.500000 0.310883
O O3 0.410769 0.609215 0.181450
O O4 0.380936 0.641400 0.357549
O O5 0.299791 0.876961 0.500000
O O6 0.202037 0.852475 0.614071
O O7 0.313173 0.900997 0.679394
O O8 0.303817 0.759880 0.617919
O O9 0.666514 0.500000 0.885832
O O10 0.610117 0.399570 0.000000
O O11 0.500000 0.123102 0.861405
O O12 0.627812 0.128212 0.833044
O O13 0.571239 0.000000 0.891678
O O14 0.583112 0.121853 0.000000
O O15 0.197173 0.500000 0.317594
O O16 0.256401 0.629573 0.329196
O O17 0.198337 0.142040 0.000000
#
# Coordination Sequence:
#
# PCOD8291599 Si02
#       6
#    16  16  16  16  16  16
#     4  10  21  36  55  81 111 146 188 233 279 324
#     4  10  21  36  55  78 108 143 177 221 274 326
#     4   9  17  32  56  84 112 142 178 223 277 334
#     4   8  15  29  49  75 106 135 163 202 259 321
#     4  11  20  32  56  84 107 135 176 225 274 323
#     4  11  23  37  54  78 108 144 186 227 273 326
#
# _framework density 18.807946999999999
#
# number of rings (size 3 to 8) (size 9 to 14) (size 15 to 20)
#    0.000    2.167    1.667    2.500    0.000    3.667 
#    0.000    3.333    0.000    1.500    0.000    2.333 
#    0.000    0.000    0.000    0.000    0.000    0.000 
#
# Total GULP energy -595059.573377 kJ/mol
# GULP energy per Si atom -12397.074445 kJ/mol
# Density = 1.876514 g / cm^3
# Si number density = 18.807947 Si / 1000 Ang^3
#
#
#
# Elastic Constant Matrix: (Units=GPa)
#
#
# Indices 1 2 3 4 5 6 
#
# 1 124.0703 22.3144 51.3075 0.0000 0.0000 0.0000
# 2 22.3144 28.1419 15.1716 0.0000 0.0000 0.0000
# 3 51.3075 15.1716 112.7493 0.0000 0.0000 0.0000
# 4 0.0000 0.0000 0.0000 25.7410 0.0000 0.0000
# 5 0.0000 0.0000 0.0000 0.0000 33.5461 0.0000
# 6 0.0000 0.0000 0.0000 0.0000 0.0000 12.1982
#
#
#
# Elastic Compliance Matrix: (Units=1/GPa)
#
#
# Indices 1 2 3 4 5 6 
#
# 1 0.010914 -0.006444 -0.004099 0.000000 0.000000 0.000000
# 2 -0.006444 0.042118 -0.002735 0.000000 0.000000 0.000000
# 3 -0.004099 -0.002735 0.011103 0.000000 0.000000 0.000000
# 4 0.000000 0.000000 0.000000 0.038848 0.000000 0.000000
# 5 0.000000 0.000000 0.000000 0.000000 0.029810 0.000000
# 6 0.000000 0.000000 0.000000 0.000000 0.000000 0.081979
#
#
# Mechanical properties :
#
#
# Convention : Reuss Voigt Hill
#
# Bulk Modulus (GPa) = 26.61121 49.17206 37.89164
# Shear Modulus (GPa) = 19.69621 26.04161 22.86891
#
# Velocity S-wave (km/s) = 3.23960 3.72507 3.49078
# Velocity P-wave (km/s) = 5.30782 6.68600 6.03637
#
# Compressibility (1/GPa) = 0.03757814
#
# Stress axis : x y z
#
# Youngs Moduli (GPa) = 91.62365 23.74262 90.06762
#
# Poissons Ratio (x) = 0.15300 0.36923
# Poissons Ratio (y) = 0.59043 0.24634
# Poissons Ratio (z) = 0.37561 0.06494
#
# Static dielectric constant tensor:
#      x y z
#    x 3.527810 0.000000 0.000000 
#    y 0.000000 3.238170 0.000000 
#    z 0.000000 0.000000 3.743150 
# 
# 
# High freq. dielectric constant tensor:
#      x y z
#    x 1.718190 0.000000 0.000000 
#    y 0.000000 1.706540 0.000000 
#    z 0.000000 0.000000 1.742090 
# 
# From -- ./inp_files/34500.got.cif
#   From: 2010.06.25/outbox.cif.g09.slc.cpg/sg71_18_cif.got.tgz:34500.got - 2010.06.28 04:59:45.
