data_PCOD8291847
_publ_section_title
;
Structure prediction by ZEFSAII (Michael W. Deem and Ramdas Pophale) SiO2 
 PCOD8291847
Probable space group: I M M M
;
_chemical_formula_sum "Si O2"
_cell_formula_units_Z 112
_cell_length_a 14.820368
_cell_length_b 26.436184
_cell_length_c 13.555164
_cell_angle_alpha 90.000000
_cell_angle_beta 90.000000
_cell_angle_gamma 90.000000
_cell_volume 5310.831591
_symmetry_space_group_name_H-M "I M M M"
_symmetry_group_IT_number 71
_symmetry_cell_setting 'orthorhombic'
loop_
_space_group_symop_operation_xyz
x,y,z
-x,-y,z
x,-y,-z
-x,y,-z
-x,-y,-z
x,y,-z
-x,y,z
x,-y,z
1/2+x,1/2+y,1/2+z
1/2-x,1/2-y,1/2+z
1/2+x,1/2-y,1/2-z
1/2-x,1/2+y,1/2-z
1/2-x,1/2-y,1/2-z
1/2+x,1/2+y,1/2-z
1/2-x,1/2+y,1/2+z
1/2+x,1/2-y,1/2+z
loop_
_atom_site_type_symbol
_atom_site_label
_atom_site_fract_x
_atom_site_fract_y
_atom_site_fract_z
Si Si1 0.271701 0.555799 0.615834
Si Si2 0.102212 0.597928 0.718807
Si Si3 0.152308 0.694740 0.389967
Si Si4 0.647760 0.656558 0.391605
Si Si5 0.899371 0.902089 0.384747
Si Si6 0.212170 0.441944 0.113584
Si Si7 0.599472 0.704687 0.803808
O O1 0.261939 0.561239 0.500000
O O2 0.306115 0.500000 0.647168
O O3 0.170349 0.563443 0.655995
O O4 0.344985 0.598421 0.649788
O O5 0.097995 0.655434 0.678687
O O6 0.141648 0.594655 0.830319
O O7 0.000000 0.576355 0.715644
O O8 0.108444 0.700035 0.500000
O O9 0.251493 0.674773 0.403499
O O10 0.161540 0.748260 0.333462
O O11 0.599968 0.659199 0.500000
O O12 0.597398 0.691565 0.312889
O O13 0.907418 0.912080 0.500000
O O14 0.815373 0.935718 0.344057
O O15 0.870420 0.844257 0.365083
O O16 0.000000 0.913836 0.338086
O O17 0.183320 0.500000 0.128439
O O18 0.208883 0.425344 0.000000
O O19 0.500000 0.721702 0.835361
#
# Coordination Sequence:
#
# PCOD8291847 Si02
#       7
#    16  16  16  16  16  16  16
#     4   9  18  33  54  79 106 139 180 225 272 318
#     4  11  22  35  53  78 109 145 183 224 269 318
#     4  10  21  38  59  80 105 140 181 224 271 323
#     4   9  19  35  54  77 106 143 184 222 262 313
#     4   9  18  33  55  83 109 134 174 229 282 327
#     4  10  22  39  57  78 108 147 186 224 268 319
#     4  11  21  33  53  80 110 142 173 214 271 328
#
# _framework density 21.088975999999999
#
# number of rings (size 3 to 8) (size 9 to 14) (size 15 to 20)
#    0.000    2.143    0.000    4.714    0.000    4.571 
#    0.000    5.000    0.000    3.000    0.000    2.000 
#    0.000    0.000    0.000    1.286    0.000    0.286 
#
# Total GULP energy -693884.513257 kJ/mol
# GULP energy per Si atom -12390.794880 kJ/mol
# Density = 2.104098 g / cm^3
# Si number density = 21.088976 Si / 1000 Ang^3
#
#
#
# Elastic Constant Matrix: (Units=GPa)
#
#
# Indices 1 2 3 4 5 6 
#
# 1 55.1551 20.2336 10.2400 -0.0001 0.0000 0.0000
# 2 20.2336 112.9760 40.2399 -0.0002 0.0000 0.0000
# 3 10.2400 40.2399 81.2423 0.0000 0.0001 0.0000
# 4 -0.0001 -0.0002 0.0000 32.1830 0.0000 0.0000
# 5 0.0000 0.0000 0.0001 0.0000 35.1152 0.0000
# 6 0.0000 0.0000 0.0000 0.0000 0.0000 8.1994
#
#
#
# Elastic Compliance Matrix: (Units=1/GPa)
#
#
# Indices 1 2 3 4 5 6 
#
# 1 0.019458 -0.003171 -0.000882 0.000000 0.000000 0.000000
# 2 -0.003171 0.011264 -0.005180 0.000000 0.000000 0.000000
# 3 -0.000882 -0.005180 0.014986 0.000000 0.000000 0.000000
# 4 0.000000 0.000000 0.000000 0.031072 0.000000 0.000000
# 5 0.000000 0.000000 0.000000 0.000000 0.028478 0.000000
# 6 0.000000 0.000000 0.000000 0.000000 0.000000 0.121959
#
#
# Mechanical properties :
#
#
# Convention : Reuss Voigt Hill
#
# Bulk Modulus (GPa) = 36.70702 43.42228 40.06465
# Shear Modulus (GPa) = 19.62616 27.01020 23.31818
#
# Velocity S-wave (km/s) = 3.05394 3.58267 3.32882
# Velocity P-wave (km/s) = 5.46617 6.14400 5.81497
#
# Compressibility (1/GPa) = 0.02724274
#
# Stress axis : x y z
#
# Youngs Moduli (GPa) = 51.39385 88.77716 66.73111
#
# Poissons Ratio (x) = 0.28148 0.05886
# Poissons Ratio (y) = 0.16295 0.34564
# Poissons Ratio (z) = 0.04533 0.45983
#
# Static dielectric constant tensor:
#      x y z
#    x 3.698290 0.000000 0.000000 
#    y 0.000000 4.024720 0.000000 
#    z 0.000000 0.000000 4.062480 
# 
# 
# High freq. dielectric constant tensor:
#      x y z
#    x 1.805360 0.000000 0.000000 
#    y 0.000000 1.818800 0.000000 
#    z 0.000000 0.000000 1.837250 
# 
# From -- ./inp_files/34915.got.cif
#   From: 2010.06.25/outbox.cif.g09.slc.cpg/sg71_18_cif.got.tgz:34915.got - 2010.06.28 04:59:45.
