data_PCOD8291711
_publ_section_title
;
Structure prediction by ZEFSAII (Michael W. Deem and Ramdas Pophale) SiO2 
 PCOD8291711
Probable space group: I M M M
;
_chemical_formula_sum "Si O2"
_cell_formula_units_Z 64
_cell_length_a 9.407210
_cell_length_b 41.191764
_cell_length_c 8.739776
_cell_angle_alpha 90.000000
_cell_angle_beta 90.000000
_cell_angle_gamma 90.000000
_cell_volume 3386.659479
_symmetry_space_group_name_H-M "I M M M"
_symmetry_group_IT_number 71
_symmetry_cell_setting 'orthorhombic'
loop_
_space_group_symop_operation_xyz
x,y,z
-x,-y,z
x,-y,-z
-x,y,-z
-x,-y,-z
x,y,-z
-x,y,z
x,-y,z
1/2+x,1/2+y,1/2+z
1/2-x,1/2-y,1/2+z
1/2+x,1/2-y,1/2-z
1/2-x,1/2+y,1/2-z
1/2-x,1/2-y,1/2-z
1/2+x,1/2+y,1/2-z
1/2-x,1/2+y,1/2+z
1/2+x,1/2-y,1/2+z
loop_
_atom_site_type_symbol
_atom_site_label
_atom_site_fract_x
_atom_site_fract_y
_atom_site_fract_z
Si Si1 0.839816 0.964426 0.181873
Si Si2 0.164942 0.595865 0.675581
Si Si3 0.836078 0.663293 0.178928
Si Si4 0.662697 0.720568 0.319443
O O1 0.743365 0.935449 0.247415
O O2 0.000000 0.958479 0.238592
O O3 0.786963 0.000000 0.239902
O O4 0.832397 0.963926 0.000000
O O5 0.209908 0.602510 0.500000
O O6 0.207646 0.626898 0.775879
O O7 0.000000 0.588142 0.688150
O O8 0.733838 0.687001 0.270796
O O9 0.000000 0.670144 0.224712
O O10 0.812422 0.668587 0.000000
O O11 0.667485 0.723794 0.500000
O O12 0.500000 0.721691 0.260375
O O13 0.750000 0.750000 0.250000
#
# Coordination Sequence:
#
# PCOD8291711 Si02
#       4
#    16  16  16  16
#     4   8  14  25  42  66  96 128 163 207 258 308
#     4   9  17  29  47  72 100 130 166 210 259 308
#     4  10  21  37  56  78 106 140 177 216 259 308
#     4  11  24  40  59  84 111 139 173 212 255 304
#
# _framework density 18.897677999999999
#
# number of rings (size 3 to 8) (size 9 to 14) (size 15 to 20)
#    0.000    2.500    0.000    3.000    0.000    8.000 
#    0.000    5.000    0.000    0.750    0.000    5.250 
#    0.000    0.000    0.000    0.000    0.000    0.000 
#
# Total GULP energy -396765.816150 kJ/mol
# GULP energy per Si atom -12398.931755 kJ/mol
# Density = 1.885467 g / cm^3
# Si number density = 18.897678 Si / 1000 Ang^3
#
#
#
# Elastic Constant Matrix: (Units=GPa)
#
#
# Indices 1 2 3 4 5 6 
#
# 1 110.0516 87.4895 32.8040 0.0017 -0.0007 -0.0003
# 2 87.4895 151.6479 27.0292 0.0037 0.0027 0.0028
# 3 32.8040 27.0292 39.7300 0.0082 -0.0006 -0.0006
# 4 0.0017 0.0037 0.0082 24.7827 0.0013 0.0002
# 5 -0.0007 0.0027 -0.0006 0.0013 19.9033 0.0013
# 6 -0.0003 0.0028 -0.0006 0.0002 0.0013 43.3045
#
#
#
# Elastic Compliance Matrix: (Units=1/GPa)
#
#
# Indices 1 2 3 4 5 6 
#
# 1 0.019572 -0.009572 -0.009648 0.000003 0.000002 0.000001
# 2 -0.009572 0.012186 -0.000387 -0.000001 -0.000002 -0.000001
# 3 -0.009648 -0.000387 0.033399 -0.000010 0.000001 0.000000
# 4 0.000003 -0.000001 -0.000010 0.040351 -0.000003 0.000000
# 5 0.000002 -0.000002 0.000001 -0.000003 0.050243 -0.000002
# 6 0.000001 -0.000001 0.000000 0.000000 -0.000002 0.023092
#
#
# Mechanical properties :
#
#
# Convention : Reuss Voigt Hill
#
# Bulk Modulus (GPa) = 38.54590 66.23055 52.38822
# Shear Modulus (GPa) = 22.05515 27.87187 24.96351
#
# Velocity S-wave (km/s) = 3.41997 3.84459 3.63848
# Velocity P-wave (km/s) = 6.00303 7.40478 6.74044
#
# Compressibility (1/GPa) = 0.02594310
#
# Stress axis : x y z
#
# Youngs Moduli (GPa) = 51.09286 82.06467 29.94086
#
# Poissons Ratio (x) = 0.78553 0.28887
# Poissons Ratio (y) = 0.48906 0.01158
# Poissons Ratio (z) = 0.49295 0.03173
#
# Static dielectric constant tensor:
#      x y z
#    x 3.689900 -0.000020 0.000000 
#    y -0.000020 3.827900 -0.000010 
#    z 0.000000 -0.000010 3.222920 
# 
# 
# High freq. dielectric constant tensor:
#      x y z
#    x 1.732090 0.000000 0.000000 
#    y 0.000000 1.751770 0.000000 
#    z 0.000000 0.000000 1.706430 
# 
# From -- ./inp_files/3717.got.cif
#   From: 2010.06.25/outbox.cif.g09.slc.cpg/sg71_2_cif.got.tgz:3717.got - 2010.06.28 04:59:45.
