data_PCOD8291029
_publ_section_title
;
Structure prediction by ZEFSAII (Michael W. Deem and Ramdas Pophale) SiO2 
 PCOD8291029
Probable space group: I M M M
;
_chemical_formula_sum "Si O2"
_cell_formula_units_Z 80
_cell_length_a 9.052075
_cell_length_b 29.010098
_cell_length_c 15.549326
_cell_angle_alpha 90.000000
_cell_angle_beta 90.000000
_cell_angle_gamma 90.000000
_cell_volume 4083.277620
_symmetry_space_group_name_H-M "I M M M"
_symmetry_group_IT_number 71
_symmetry_cell_setting 'orthorhombic'
loop_
_space_group_symop_operation_xyz
x,y,z
-x,-y,z
x,-y,-z
-x,y,-z
-x,-y,-z
x,y,-z
-x,y,z
x,-y,z
1/2+x,1/2+y,1/2+z
1/2-x,1/2-y,1/2+z
1/2+x,1/2-y,1/2-z
1/2-x,1/2+y,1/2-z
1/2-x,1/2-y,1/2-z
1/2+x,1/2+y,1/2-z
1/2-x,1/2+y,1/2+z
1/2+x,1/2-y,1/2+z
loop_
_atom_site_type_symbol
_atom_site_label
_atom_site_fract_x
_atom_site_fract_y
_atom_site_fract_z
Si Si1 0.829761 0.860966 0.905028
Si Si2 0.325252 0.950442 0.654976
Si Si3 0.172926 0.551488 0.349208
Si Si4 0.828048 0.646841 0.096675
Si Si5 0.324289 0.700725 0.247074
O O1 0.751799 0.910477 0.906727
O O2 0.767210 0.827175 0.831114
O O3 0.000000 0.870045 0.885910
O O4 0.806129 0.838590 0.000000
O O5 0.500000 0.953832 0.656284
O O6 0.268297 0.942957 0.751904
O O7 0.275791 0.906786 0.598306
O O8 0.263740 0.000000 0.619365
O O9 0.209735 0.500000 0.383419
O O10 0.000000 0.560933 0.354344
O O11 0.726929 0.675775 0.160365
O O12 0.000000 0.651373 0.124059
O O13 0.804391 0.665404 0.000000
O O14 0.500000 0.706176 0.246797
O O15 0.250000 0.750000 0.250000
#
# Coordination Sequence:
#
# PCOD8291029 Si02
#       5
#    16  16  16  16  16
#     4  10  22  39  58  82 112 147 187 231 282 338
#     4   8  14  27  50  81 116 151 187 227 270 320
#     4   9  17  31  54  83 115 151 190 231 273 322
#     4  10  20  35  59  89 119 152 190 232 279 334
#     4  11  24  42  63  84 110 145 186 239 296 349
#
# _framework density 19.592103999999999
#
# number of rings (size 3 to 8) (size 9 to 14) (size 15 to 20)
#    0.000    2.400    2.000    1.800    0.000    3.600 
#    0.000    6.000    0.000    0.600    0.000    1.400 
#    0.000    0.000    0.000    0.000    0.000    0.000 
#
# Total GULP energy -495772.015949 kJ/mol
# GULP energy per Si atom -12394.300399 kJ/mol
# Density = 1.954751 g / cm^3
# Si number density = 19.592104 Si / 1000 Ang^3
#
#
#
# Elastic Constant Matrix: (Units=GPa)
#
#
# Indices 1 2 3 4 5 6 
#
# 1 48.8130 44.3481 35.5017 -0.0001 0.0000 0.0000
# 2 44.3481 137.6079 60.5154 -0.0003 0.0000 0.0000
# 3 35.5017 60.5154 112.3982 -0.0011 -0.0002 0.0000
# 4 -0.0001 -0.0003 -0.0011 7.2793 -0.0001 0.0000
# 5 0.0000 0.0000 -0.0002 -0.0001 25.7511 0.0001
# 6 0.0000 0.0000 0.0000 0.0000 0.0001 28.5209
#
#
#
# Elastic Compliance Matrix: (Units=1/GPa)
#
#
# Indices 1 2 3 4 5 6 
#
# 1 0.031709 -0.007619 -0.005914 -0.000001 0.000000 0.000000
# 2 -0.007619 0.011352 -0.003706 0.000000 0.000000 0.000000
# 3 -0.005914 -0.003706 0.012760 0.000002 0.000000 0.000000
# 4 -0.000001 0.000000 0.000002 0.137375 0.000000 0.000000
# 5 0.000000 0.000000 0.000000 0.000000 0.038833 0.000000
# 6 0.000000 0.000000 0.000000 0.000000 0.000000 0.035062
#
#
# Mechanical properties :
#
#
# Convention : Reuss Voigt Hill
#
# Bulk Modulus (GPa) = 46.84857 64.39440 55.62148
# Shear Modulus (GPa) = 16.19791 22.87385 19.53588
#
# Velocity S-wave (km/s) = 2.87846 3.42058 3.16116
# Velocity P-wave (km/s) = 5.91703 6.96702 6.46338
#
# Compressibility (1/GPa) = 0.02134537
#
# Stress axis : x y z
#
# Youngs Moduli (GPa) = 31.53673 88.09117 78.37068
#
# Poissons Ratio (x) = 0.67112 0.46346
# Poissons Ratio (y) = 0.24026 0.29040
# Poissons Ratio (z) = 0.18650 0.32642
#
# Static dielectric constant tensor:
#      x y z
#    x 3.240690 0.000000 0.000000 
#    y 0.000000 2.596070 0.000000 
#    z 0.000000 0.000000 3.622370 
# 
# 
# High freq. dielectric constant tensor:
#      x y z
#    x 1.728280 0.000000 0.000000 
#    y 0.000000 1.768110 0.000000 
#    z 0.000000 0.000000 1.763620 
# 
# From -- ./inp_files/42234.got.cif
#   From: 2010.06.25/outbox.cif.g09.slc.cpg/sg71_22_cif.got.tgz:42234.got - 2010.06.28 04:59:45.
