data_PCOD8291450
_publ_section_title
;
Structure prediction by ZEFSAII (Michael W. Deem and Ramdas Pophale) SiO2 
 PCOD8291450
Probable space group: I M M M
;
_chemical_formula_sum "Si O2"
_cell_formula_units_Z 88
_cell_length_a 7.846425
_cell_length_b 28.939733
_cell_length_c 19.494595
_cell_angle_alpha 90.000000
_cell_angle_beta 90.000000
_cell_angle_gamma 90.000000
_cell_volume 4426.704836
_symmetry_space_group_name_H-M "I M M M"
_symmetry_group_IT_number 71
_symmetry_cell_setting 'orthorhombic'
loop_
_space_group_symop_operation_xyz
x,y,z
-x,-y,z
x,-y,-z
-x,y,-z
-x,-y,-z
x,y,-z
-x,y,z
x,-y,z
1/2+x,1/2+y,1/2+z
1/2-x,1/2-y,1/2+z
1/2+x,1/2-y,1/2-z
1/2-x,1/2+y,1/2-z
1/2-x,1/2-y,1/2-z
1/2+x,1/2+y,1/2-z
1/2-x,1/2+y,1/2+z
1/2+x,1/2-y,1/2+z
loop_
_atom_site_type_symbol
_atom_site_label
_atom_site_fract_x
_atom_site_fract_y
_atom_site_fract_z
Si Si1 0.302286 0.093147 0.164593
Si Si2 0.697786 0.195168 0.804882
Si Si3 0.299733 0.622554 0.076172
Si Si4 0.692958 0.708115 0.843883
Si Si5 0.000000 0.054317 0.923337
Si Si6 0.799778 0.551817 0.810105
O O1 0.500000 0.078745 0.150415
O O2 0.278077 0.148008 0.153445
O O3 0.245442 0.078610 0.241133
O O4 0.175402 0.069475 0.111982
O O5 0.500000 0.203582 0.786267
O O6 0.769073 0.239420 0.848495
O O7 0.799441 0.190821 0.734261
O O8 0.500000 0.629231 0.071819
O O9 0.215028 0.669541 0.108290
O O10 0.264316 0.578296 0.122953
O O11 0.222848 0.614594 0.000000
O O12 0.500000 0.710569 0.868802
O O13 0.000000 0.000000 0.924245
O O14 0.000000 0.074761 0.000000
O O15 0.721254 0.500000 0.809352
O O16 0.000000 0.548816 0.814030
#
# Coordination Sequence:
#
# PCOD8291450 Si02
#       6
#    16  16  16  16   8  16
#     4  10  21  39  64  93 122 155 197 246 296 354
#     4   9  17  30  53  85 112 141 188 239 290 344
#     4  10  21  35  51  75 111 153 194 241 294 348
#     4   9  17  30  50  79 111 148 189 235 290 350
#     4  11  26  44  64  92 123 157 195 239 305 377
#     4  10  21  36  55  80 109 146 195 246 292 342
#
# _framework density 19.879346000000002
#
# number of rings (size 3 to 8) (size 9 to 14) (size 15 to 20)
#    0.000    2.273    1.818    0.545    2.545    2.545 
#    0.000    3.636    0.000    3.273    0.000    0.000 
#    0.000    0.000    0.000    0.000    0.000    0.000 
#
# Total GULP energy -545263.377047 kJ/mol
# GULP energy per Si atom -12392.349478 kJ/mol
# Density = 1.983410 g / cm^3
# Si number density = 19.879346 Si / 1000 Ang^3
#
#
#
# Elastic Constant Matrix: (Units=GPa)
#
#
# Indices 1 2 3 4 5 6 
#
# 1 43.9807 31.5057 36.6688 0.0000 0.0000 0.0000
# 2 31.5057 142.1784 65.0138 0.0000 0.0000 0.0000
# 3 36.6688 65.0138 127.4286 0.0001 0.0000 0.0000
# 4 0.0000 0.0000 0.0001 31.0294 0.0000 0.0000
# 5 0.0000 0.0000 0.0000 0.0000 18.3989 0.0000
# 6 0.0000 0.0000 0.0000 0.0000 0.0000 23.3559
#
#
#
# Elastic Compliance Matrix: (Units=1/GPa)
#
#
# Indices 1 2 3 4 5 6 
#
# 1 0.031322 -0.003677 -0.007137 0.000000 0.000000 0.000000
# 2 -0.003677 0.009605 -0.003842 0.000000 0.000000 0.000000
# 3 -0.007137 -0.003842 0.011862 0.000000 0.000000 0.000000
# 4 0.000000 0.000000 0.000000 0.032228 0.000000 0.000000
# 5 0.000000 0.000000 0.000000 0.000000 0.054351 0.000000
# 6 0.000000 0.000000 0.000000 0.000000 0.000000 0.042816
#
#
# Mechanical properties :
#
#
# Convention : Reuss Voigt Hill
#
# Bulk Modulus (GPa) = 42.59762 64.44048 53.51905
# Shear Modulus (GPa) = 22.79754 26.58345 24.69050
#
# Velocity S-wave (km/s) = 3.39011 3.66080 3.52805
# Velocity P-wave (km/s) = 6.06617 7.09611 6.60125
#
# Compressibility (1/GPa) = 0.02347549
#
# Stress axis : x y z
#
# Youngs Moduli (GPa) = 31.92658 104.10941 84.30477
#
# Poissons Ratio (x) = 0.38282 0.60169
# Poissons Ratio (y) = 0.11740 0.32394
# Poissons Ratio (z) = 0.22786 0.40004
#
# Static dielectric constant tensor:
#      x y z
#    x 3.458380 0.000000 0.000000 
#    y 0.000000 4.218810 0.000000 
#    z 0.000000 0.000000 3.781460 
# 
# 
# High freq. dielectric constant tensor:
#      x y z
#    x 1.761810 0.000000 0.000000 
#    y 0.000000 1.795870 0.000000 
#    z 0.000000 0.000000 1.743640 
# 
# From -- ./inp_files/42429.got.cif
#   From: 2010.06.25/outbox.cif.g09.slc.cpg/sg71_22_cif.got.tgz:42429.got - 2010.06.28 04:59:45.
