data_PCOD8291686
_publ_section_title
;
Structure prediction by ZEFSAII (Michael W. Deem and Ramdas Pophale) SiO2 
 PCOD8291686
Probable space group: I M M M
;
_chemical_formula_sum "Si O2"
_cell_formula_units_Z 88
_cell_length_a 8.673521
_cell_length_b 27.210767
_cell_length_c 19.136297
_cell_angle_alpha 90.000000
_cell_angle_beta 90.000000
_cell_angle_gamma 90.000000
_cell_volume 4516.417907
_symmetry_space_group_name_H-M "I M M M"
_symmetry_group_IT_number 71
_symmetry_cell_setting 'orthorhombic'
loop_
_space_group_symop_operation_xyz
x,y,z
-x,-y,z
x,-y,-z
-x,y,-z
-x,-y,-z
x,y,-z
-x,y,z
x,-y,z
1/2+x,1/2+y,1/2+z
1/2-x,1/2-y,1/2+z
1/2+x,1/2-y,1/2-z
1/2-x,1/2+y,1/2-z
1/2-x,1/2-y,1/2-z
1/2+x,1/2+y,1/2-z
1/2-x,1/2+y,1/2+z
1/2+x,1/2-y,1/2+z
loop_
_atom_site_type_symbol
_atom_site_label
_atom_site_fract_x
_atom_site_fract_y
_atom_site_fract_z
Si Si1 0.679273 0.879740 0.298791
Si Si2 0.819238 0.903401 0.849809
Si Si3 0.317360 0.000000 0.080177
Si Si4 0.316658 0.055163 0.576407
Si Si5 0.321928 0.232879 0.678630
Si Si6 0.175388 0.690028 0.581873
O O1 0.500000 0.890654 0.283749
O O2 0.772388 0.892169 0.229402
O O3 0.750643 0.912392 0.360992
O O4 0.703740 0.824952 0.326505
O O5 0.738182 0.951843 0.879238
O O6 0.775347 0.856795 0.896600
O O7 0.000000 0.912181 0.853843
O O8 0.500000 0.000000 0.080329
O O9 0.255651 0.000000 0.000000
O O10 0.260706 0.074320 0.500000
O O11 0.500000 0.057041 0.578820
O O12 0.256948 0.000000 0.587915
O O13 0.500000 0.247691 0.676454
O O14 0.250000 0.250000 0.750000
O O15 0.237150 0.259784 0.615224
O O16 0.186768 0.697394 0.500000
O O17 0.000000 0.680923 0.606748
#
# Coordination Sequence:
#
# PCOD8291686 Si02
#       6
#    16  16   8  16  16  16
#     4  10  21  36  59  89 121 160 203 248 300 363
#     4  12  25  40  62  92 125 160 200 250 305 366
#     4  11  25  45  67  89 120 161 202 249 303 362
#     4   8  15  30  54  85 117 149 191 242 291 344
#     4  11  22  37  59  86 121 160 202 251 302 359
#     4  11  24  42  64  89 120 160 207 255 307 368
#
# _framework density 19.484466999999999
#
# number of rings (size 3 to 8) (size 9 to 14) (size 15 to 20)
#    0.000    1.545    1.818    4.091    1.273    5.818 
#    0.000    1.818    0.000    0.545    0.000    1.273 
#    0.000    0.000    0.000    0.000    0.000    0.000 
#
# Total GULP energy -545644.586976 kJ/mol
# GULP energy per Si atom -12401.013340 kJ/mol
# Density = 1.944012 g / cm^3
# Si number density = 19.484467 Si / 1000 Ang^3
#
#
#
# Elastic Constant Matrix: (Units=GPa)
#
#
# Indices 1 2 3 4 5 6 
#
# 1 76.8677 36.4916 44.9655 0.0000 0.0000 0.0000
# 2 36.4916 103.0208 56.6332 0.0000 0.0000 0.0000
# 3 44.9655 56.6332 111.5270 0.0000 -0.0002 0.0000
# 4 0.0000 0.0000 0.0000 43.8169 0.0000 0.0000
# 5 0.0000 0.0000 -0.0002 0.0000 20.5802 0.0000
# 6 0.0000 0.0000 0.0000 0.0000 0.0000 27.1477
#
#
#
# Elastic Compliance Matrix: (Units=1/GPa)
#
#
# Indices 1 2 3 4 5 6 
#
# 1 0.017785 -0.003271 -0.005510 0.000000 0.000000 0.000000
# 2 -0.003271 0.014067 -0.005825 0.000000 0.000000 0.000000
# 3 -0.005510 -0.005825 0.014146 0.000000 0.000000 0.000000
# 4 0.000000 0.000000 0.000000 0.022822 0.000000 0.000000
# 5 0.000000 0.000000 0.000000 0.000000 0.048590 0.000000
# 6 0.000000 0.000000 0.000000 0.000000 0.000000 0.036835
#
#
# Mechanical properties :
#
#
# Convention : Reuss Voigt Hill
#
# Bulk Modulus (GPa) = 59.56763 63.06625 61.31694
# Shear Modulus (GPa) = 26.44769 28.53064 27.48917
#
# Velocity S-wave (km/s) = 3.68825 3.83074 3.76017
# Velocity P-wave (km/s) = 6.98397 7.21136 7.09858
#
# Compressibility (1/GPa) = 0.01678764
#
# Stress axis : x y z
#
# Youngs Moduli (GPa) = 56.22656 71.08667 70.69375
#
# Poissons Ratio (x) = 0.23252 0.38950
# Poissons Ratio (y) = 0.18392 0.41176
# Poissons Ratio (z) = 0.30979 0.41405
#
# Static dielectric constant tensor:
#      x y z
#    x 3.729730 0.000000 0.000000 
#    y 0.000000 3.611500 0.000000 
#    z 0.000000 0.000000 3.779350 
# 
# 
# High freq. dielectric constant tensor:
#      x y z
#    x 1.746620 0.000000 0.000000 
#    y 0.000000 1.769350 0.000000 
#    z 0.000000 0.000000 1.773960 
# 
# From -- ./inp_files/50815.got.cif
#   From: 2010.06.25/outbox.cif.g09.slc.cpg/sg71_26_cif.got.tgz:50815.got - 2010.06.28 04:59:45.
