data_PCOD8291772
_publ_section_title
;
Structure prediction by ZEFSAII (Michael W. Deem and Ramdas Pophale) SiO2 
 PCOD8291772
Probable space group: I M M M
;
_chemical_formula_sum "Si O2"
_cell_formula_units_Z 88
_cell_length_a 8.832062
_cell_length_b 18.057881
_cell_length_c 28.176783
_cell_angle_alpha 90.000000
_cell_angle_beta 90.000000
_cell_angle_gamma 90.000000
_cell_volume 4493.867913
_symmetry_space_group_name_H-M "I M M M"
_symmetry_group_IT_number 71
_symmetry_cell_setting 'orthorhombic'
loop_
_space_group_symop_operation_xyz
x,y,z
-x,-y,z
x,-y,-z
-x,y,-z
-x,-y,-z
x,y,-z
-x,y,z
x,-y,z
1/2+x,1/2+y,1/2+z
1/2-x,1/2-y,1/2+z
1/2+x,1/2-y,1/2-z
1/2-x,1/2+y,1/2-z
1/2-x,1/2-y,1/2-z
1/2+x,1/2+y,1/2-z
1/2-x,1/2+y,1/2+z
1/2+x,1/2-y,1/2+z
loop_
_atom_site_type_symbol
_atom_site_label
_atom_site_fract_x
_atom_site_fract_y
_atom_site_fract_z
Si Si1 0.822790 0.793783 0.115826
Si Si2 0.826812 0.416436 0.797230
Si Si3 0.178573 0.141782 0.387689
Si Si4 0.671958 0.084134 0.944276
Si Si5 0.819786 0.000000 0.553869
Si Si6 0.173697 0.309002 0.283717
O O1 0.749649 0.718810 0.094512
O O2 0.788051 0.861194 0.080912
O O3 0.759559 0.815082 0.167064
O O4 0.000000 0.781160 0.119899
O O5 0.766821 0.500000 0.797667
O O6 0.723887 0.368657 0.832760
O O7 0.813167 0.387279 0.743499
O O8 0.000000 0.410728 0.814877
O O9 0.000000 0.147618 0.392350
O O10 0.241184 0.073332 0.419266
O O11 0.500000 0.102491 0.928579
O O12 0.712280 0.000000 0.929872
O O13 0.690080 0.094921 0.000000
O O14 0.757974 0.000000 0.500000
O O15 0.000000 0.000000 0.554482
O O16 0.250000 0.250000 0.250000
O O17 0.000000 0.286994 0.293411
#
# Coordination Sequence:
#
# PCOD8291772 Si02
#       6
#    16  16  16  16   8  16
#     4  12  25  39  59  91 129 165 202 251 303 362
#     4  10  21  37  58  83 114 152 194 244 303 365
#     4  11  21  36  60  86 113 156 207 255 304 359
#     4   9  20  42  70  95 120 155 200 251 308 369
#     4   9  20  38  59  87 119 151 197 257 312 359
#     4  11  22  37  58  85 118 159 200 246 299 352
#
# _framework density 19.582241
#
# number of rings (size 3 to 8) (size 9 to 14) (size 15 to 20)
#    0.000    1.545    2.727    3.273    0.000    2.909 
#    0.000    4.545    0.000    3.818    0.000    0.000 
#    0.000    0.000    0.000    0.000    0.000    0.000 
#
# Total GULP energy -545736.551073 kJ/mol
# GULP energy per Si atom -12403.103433 kJ/mol
# Density = 1.953767 g / cm^3
# Si number density = 19.582241 Si / 1000 Ang^3
#
#
#
# Elastic Constant Matrix: (Units=GPa)
#
#
# Indices 1 2 3 4 5 6 
#
# 1 104.3793 48.4009 34.9137 0.0000 0.0000 0.0000
# 2 48.4009 128.9589 50.3851 0.0000 0.0000 0.0000
# 3 34.9137 50.3851 86.7702 0.0000 0.0000 0.0000
# 4 0.0000 0.0000 0.0000 34.5257 0.0000 0.0000
# 5 0.0000 0.0000 0.0000 0.0000 29.6634 0.0000
# 6 0.0000 0.0000 0.0000 0.0000 0.0000 28.6831
#
#
#
# Elastic Compliance Matrix: (Units=1/GPa)
#
#
# Indices 1 2 3 4 5 6 
#
# 1 0.012137 -0.003424 -0.002895 0.000000 0.000000 0.000000
# 2 -0.003424 0.010996 -0.005007 0.000000 0.000000 0.000000
# 3 -0.002895 -0.005007 0.015597 0.000000 0.000000 0.000000
# 4 0.000000 0.000000 0.000000 0.028964 0.000000 0.000000
# 5 0.000000 0.000000 0.000000 0.000000 0.033712 0.000000
# 6 0.000000 0.000000 0.000000 0.000000 0.000000 0.034864
#
#
# Mechanical properties :
#
#
# Convention : Reuss Voigt Hill
#
# Bulk Modulus (GPa) = 62.20151 65.27864 63.74008
# Shear Modulus (GPa) = 30.43570 31.00168 30.71869
#
# Velocity S-wave (km/s) = 3.94667 3.98320 3.96498
# Velocity P-wave (km/s) = 7.25269 7.38665 7.31997
#
# Compressibility (1/GPa) = 0.01607678
#
# Stress axis : x y z
#
# Youngs Moduli (GPa) = 82.39588 90.94322 64.11378
#
# Poissons Ratio (x) = 0.31138 0.18562
# Poissons Ratio (y) = 0.28212 0.32104
# Poissons Ratio (z) = 0.23855 0.45538
#
# Static dielectric constant tensor:
#      x y z
#    x 3.744070 0.000000 0.000000 
#    y 0.000000 3.786080 0.000000 
#    z 0.000000 0.000000 3.603510 
# 
# 
# High freq. dielectric constant tensor:
#      x y z
#    x 1.755880 0.000000 0.000000 
#    y 0.000000 1.776480 0.000000 
#    z 0.000000 0.000000 1.756740 
# 
# From -- ./inp_files/8780.got.cif
#   From: 2010.06.25/outbox.cif.g09.slc.cpg/sg71_5_cif.got.tgz:8780.got - 2010.06.28 04:59:45.
