data_PCOD8291347
_publ_section_title
;
Structure prediction by ZEFSAII (Michael W. Deem and Ramdas Pophale) SiO2 
 PCOD8291347
Probable space group: I M M M
;
_chemical_formula_sum "Si O2"
_cell_formula_units_Z 88
_cell_length_a 14.029093
_cell_length_b 28.114976
_cell_length_c 11.872200
_cell_angle_alpha 90.000000
_cell_angle_beta 90.000000
_cell_angle_gamma 90.000000
_cell_volume 4682.723507
_symmetry_space_group_name_H-M "I M M M"
_symmetry_group_IT_number 71
_symmetry_cell_setting 'orthorhombic'
loop_
_space_group_symop_operation_xyz
x,y,z
-x,-y,z
x,-y,-z
-x,y,-z
-x,-y,-z
x,y,-z
-x,y,z
x,-y,z
1/2+x,1/2+y,1/2+z
1/2-x,1/2-y,1/2+z
1/2+x,1/2-y,1/2-z
1/2-x,1/2+y,1/2-z
1/2-x,1/2-y,1/2-z
1/2+x,1/2+y,1/2-z
1/2-x,1/2+y,1/2+z
1/2+x,1/2-y,1/2+z
loop_
_atom_site_type_symbol
_atom_site_label
_atom_site_fract_x
_atom_site_fract_y
_atom_site_fract_z
Si Si1 0.609707 0.570515 0.500000
Si Si2 0.894128 0.365117 0.625728
Si Si3 0.734398 0.946224 0.817888
Si Si4 0.270303 0.303365 0.282474
Si Si5 0.183241 0.887365 0.633145
Si Si6 0.392501 0.682545 0.500000
Si Si7 0.500000 0.553191 0.131563
O O1 0.500000 0.550680 0.500000
O O2 0.666339 0.553778 0.388374
O O3 0.607186 0.626476 0.500000
O O4 0.900701 0.344728 0.500000
O O5 0.847743 0.417689 0.616730
O O6 0.830356 0.328556 0.695632
O O7 0.000000 0.367881 0.679747
O O8 0.738758 0.919465 0.696978
O O9 0.701154 0.000000 0.797866
O O10 0.250000 0.250000 0.250000
O O11 0.321049 0.333569 0.182231
O O12 0.338279 0.300064 0.389766
O O13 0.203128 0.885605 0.500000
O O14 0.088222 0.915026 0.668062
O O15 0.500000 0.703097 0.500000
O O16 0.500000 0.500000 0.187926
O O17 0.500000 0.544989 0.000000
#
# Coordination Sequence:
#
# PCOD8291347 Si02
#       7
#     8  16  16  16  16   8   8
#     4  11  21  36  57  84 122 160 196 242 301 362
#     4  10  20  39  60  84 117 151 193 246 299 352
#     4  11  21  35  56  85 119 156 201 246 294 354
#     4  11  23  40  66  88 120 154 202 250 307 359
#     4  10  22  37  55  83 120 160 199 244 297 357
#     4  11  22  41  64  90 123 157 195 247 310 367
#     4   9  18  34  54  81 121 163 201 236 284 361
#
# _framework density 18.792482
#
# number of rings (size 3 to 8) (size 9 to 14) (size 15 to 20)
#    0.000    1.545    5.455    0.818    3.818    2.909 
#    0.000    0.909    0.000    4.909    0.000    5.091 
#    0.000    0.000    0.000    0.000    0.000    0.000 
#
# Total GULP energy -545304.122054 kJ/mol
# GULP energy per Si atom -12393.275501 kJ/mol
# Density = 1.874971 g / cm^3
# Si number density = 18.792482 Si / 1000 Ang^3
#
#
#
# Elastic Constant Matrix: (Units=GPa)
#
#
# Indices 1 2 3 4 5 6 
#
# 1 125.4917 53.4719 35.2793 0.0000 0.0000 0.0000
# 2 53.4719 172.7410 46.8388 0.0001 -0.0002 0.0000
# 3 35.2793 46.8388 117.0247 0.0000 -0.0019 0.0002
# 4 0.0000 0.0001 0.0000 22.7049 -0.0002 0.0001
# 5 0.0000 -0.0002 -0.0019 -0.0002 28.3437 0.0000
# 6 0.0000 0.0000 0.0002 0.0001 0.0000 20.3918
#
#
#
# Elastic Compliance Matrix: (Units=1/GPa)
#
#
# Indices 1 2 3 4 5 6 
#
# 1 0.009542 -0.002438 -0.001901 0.000000 0.000000 0.000000
# 2 -0.002438 0.007117 -0.002113 0.000000 0.000000 0.000000
# 3 -0.001901 -0.002113 0.009964 0.000000 0.000001 0.000000
# 4 0.000000 0.000000 0.000000 0.044043 0.000000 0.000000
# 5 0.000000 0.000000 0.000001 0.000000 0.035281 0.000000
# 6 0.000000 0.000000 0.000000 0.000000 0.000000 0.049039
#
#
# Mechanical properties :
#
#
# Convention : Reuss Voigt Hill
#
# Bulk Modulus (GPa) = 72.89664 76.27081 74.58372
# Shear Modulus (GPa) = 28.99150 32.93257 30.96203
#
# Velocity S-wave (km/s) = 3.93201 4.19075 4.06344
# Velocity P-wave (km/s) = 7.71290 8.00565 7.86064
#
# Compressibility (1/GPa) = 0.01371805
#
# Stress axis : x y z
#
# Youngs Moduli (GPa) = 104.80029 140.51149 100.36042
#
# Poissons Ratio (x) = 0.34261 0.19075
# Poissons Ratio (y) = 0.25554 0.21210
# Poissons Ratio (z) = 0.19919 0.29696
#
# Static dielectric constant tensor:
#      x y z
#    x 3.872680 0.000000 0.000000 
#    y 0.000000 3.470120 0.000000 
#    z 0.000000 0.000000 3.319040 
# 
# 
# High freq. dielectric constant tensor:
#      x y z
#    x 1.718990 0.000000 0.000000 
#    y 0.000000 1.729090 0.000000 
#    z 0.000000 0.000000 1.728140 
# 
# From -- ./inp_files/22332.got.cif
#   From: 2010.06.25/outbox.cif.g09.slc.cpg/sg71_12_cif.got.tgz:22332.got - 2010.06.28 04:59:45.
