data_PCOD8291527
_publ_section_title
;
Structure prediction by ZEFSAII (Michael W. Deem and Ramdas Pophale) SiO2 
 PCOD8291527
Probable space group: I M M M
;
_chemical_formula_sum "Si O2"
_cell_formula_units_Z 72
_cell_length_a 8.925644
_cell_length_b 15.267400
_cell_length_c 28.721226
_cell_angle_alpha 90.000000
_cell_angle_beta 90.000000
_cell_angle_gamma 90.000000
_cell_volume 3913.881022
_symmetry_space_group_name_H-M "I M M M"
_symmetry_group_IT_number 71
_symmetry_cell_setting 'orthorhombic'
loop_
_space_group_symop_operation_xyz
x,y,z
-x,-y,z
x,-y,-z
-x,y,-z
-x,-y,-z
x,y,-z
-x,y,z
x,-y,z
1/2+x,1/2+y,1/2+z
1/2-x,1/2-y,1/2+z
1/2+x,1/2-y,1/2-z
1/2-x,1/2+y,1/2-z
1/2-x,1/2-y,1/2-z
1/2+x,1/2+y,1/2-z
1/2-x,1/2+y,1/2+z
1/2+x,1/2-y,1/2+z
loop_
_atom_site_type_symbol
_atom_site_label
_atom_site_fract_x
_atom_site_fract_y
_atom_site_fract_z
Si Si1 0.667115 0.000000 0.944916
Si Si2 0.677845 0.903276 0.199642
Si Si3 0.323427 0.676760 0.553405
Si Si4 0.328368 0.898808 0.695377
Si Si5 0.822836 0.244723 0.636391
O O1 0.754275 0.085695 0.928058
O O2 0.500000 0.000000 0.922752
O O3 0.657317 0.000000 0.000000
O O4 0.500000 0.903216 0.200154
O O5 0.732637 0.884311 0.252225
O O6 0.739697 0.827445 0.166100
O O7 0.734714 0.000000 0.183246
O O8 0.278127 0.695805 0.500000
O O9 0.500000 0.672035 0.559153
O O10 0.254067 0.752842 0.585496
O O11 0.500000 0.866869 0.690708
O O12 0.223317 0.844922 0.660830
O O13 0.315105 0.000000 0.681206
O O14 0.000000 0.248117 0.630353
#
# Coordination Sequence:
#
# PCOD8291527 Si02
#       5
#     8  16  16  16  16
#     4   9  17  31  51  73  99 133 171 211 257 305
#     4   8  16  31  50  75 107 141 175 209 253 309
#     4  10  21  36  52  72 103 141 179 217 257 309
#     4   9  18  35  56  74 100 140 179 215 260 315
#     4  11  21  31  52  81 107 137 174 221 267 309
#
# _framework density 18.396063000000002
#
# number of rings (size 3 to 8) (size 9 to 14) (size 15 to 20)
#    0.000    2.556    0.000    3.667    1.556    3.111 
#    0.000    1.111    0.000    3.333    0.000    4.667 
#    0.000    0.000    0.000    0.000    0.000    0.000 
#
# Total GULP energy -446387.797054 kJ/mol
# GULP energy per Si atom -12399.661029 kJ/mol
# Density = 1.835419 g / cm^3
# Si number density = 18.396063 Si / 1000 Ang^3
#
#
#
# Elastic Constant Matrix: (Units=GPa)
#
#
# Indices 1 2 3 4 5 6 
#
# 1 69.7166 30.7347 39.9988 0.0000 0.0000 0.0000
# 2 30.7347 75.1399 49.7444 0.0000 0.0000 0.0000
# 3 39.9988 49.7444 91.6589 0.0000 0.0000 0.0000
# 4 0.0000 0.0000 0.0000 29.9375 0.0000 0.0000
# 5 0.0000 0.0000 0.0000 0.0000 24.1241 0.0000
# 6 0.0000 0.0000 0.0000 0.0000 0.0000 30.1532
#
#
#
# Elastic Compliance Matrix: (Units=1/GPa)
#
#
# Indices 1 2 3 4 5 6 
#
# 1 0.019775 -0.003708 -0.006617 0.000000 0.000000 0.000000
# 2 -0.003708 0.021467 -0.010032 0.000000 0.000000 0.000000
# 3 -0.006617 -0.010032 0.019242 0.000000 0.000000 0.000000
# 4 0.000000 0.000000 0.000000 0.033403 0.000000 0.000000
# 5 0.000000 0.000000 0.000000 0.000000 0.041452 0.000000
# 6 0.000000 0.000000 0.000000 0.000000 0.000000 0.033164
#
#
# Mechanical properties :
#
#
# Convention : Reuss Voigt Hill
#
# Bulk Modulus (GPa) = 50.58327 53.05236 51.81781
# Shear Modulus (GPa) = 23.16880 24.57879 23.87380
#
# Velocity S-wave (km/s) = 3.55271 3.65922 3.60636
# Velocity P-wave (km/s) = 6.66225 6.83775 6.75057
#
# Compressibility (1/GPa) = 0.01976938
#
# Stress axis : x y z
#
# Youngs Moduli (GPa) = 50.56908 46.58381 51.96883
#
# Poissons Ratio (x) = 0.17272 0.34389
# Poissons Ratio (y) = 0.18750 0.52136
# Poissons Ratio (z) = 0.33463 0.46734
#
# Static dielectric constant tensor:
#      x y z
#    x 3.172400 0.000000 0.000000 
#    y 0.000000 3.329270 0.000000 
#    z 0.000000 0.000000 3.413070 
# 
# 
# High freq. dielectric constant tensor:
#      x y z
#    x 1.698510 0.000000 0.000000 
#    y 0.000000 1.696130 0.000000 
#    z 0.000000 0.000000 1.712460 
# 
# From -- ./inp_files/6097.got.cif
#   From: 2010.06.25/outbox.cif.g09.slc.cpg/sg71_4_cif.got.tgz:6097.got - 2010.06.28 04:59:45.
