data_PCOD8291122
_publ_section_title
;
Structure prediction by ZEFSAII (Michael W. Deem and Ramdas Pophale) SiO2 
 PCOD8291122
Probable space group: I M M M
;
_chemical_formula_sum "Si O2"
_cell_formula_units_Z 72
_cell_length_a 16.531234
_cell_length_b 14.072490
_cell_length_c 16.430587
_cell_angle_alpha 90.000000
_cell_angle_beta 90.000000
_cell_angle_gamma 90.000000
_cell_volume 3822.339878
_symmetry_space_group_name_H-M "I M M M"
_symmetry_group_IT_number 71
_symmetry_cell_setting 'orthorhombic'
loop_
_space_group_symop_operation_xyz
x,y,z
-x,-y,z
x,-y,-z
-x,y,-z
-x,-y,-z
x,y,-z
-x,y,z
x,-y,z
1/2+x,1/2+y,1/2+z
1/2-x,1/2-y,1/2+z
1/2+x,1/2-y,1/2-z
1/2-x,1/2+y,1/2-z
1/2-x,1/2-y,1/2-z
1/2+x,1/2+y,1/2-z
1/2-x,1/2+y,1/2+z
1/2+x,1/2-y,1/2+z
loop_
_atom_site_type_symbol
_atom_site_label
_atom_site_fract_x
_atom_site_fract_y
_atom_site_fract_z
Si Si1 0.595721 0.605357 0.000000
Si Si2 0.592918 0.257547 0.141640
Si Si3 0.225030 0.609135 0.595419
Si Si4 0.093449 0.608837 0.093499
Si Si5 0.329271 0.731388 0.301124
O O1 0.624822 0.660808 0.919406
O O2 0.635099 0.500000 0.000000
O O3 0.500000 0.596169 0.000000
O O4 0.500000 0.231829 0.123215
O O5 0.645715 0.163247 0.128024
O O6 0.601349 0.294636 0.235037
O O7 0.234536 0.624492 0.500000
O O8 0.212987 0.500000 0.618932
O O9 0.308633 0.646249 0.636575
O O10 0.108169 0.500000 0.119342
O O11 0.148367 0.674403 0.149485
O O12 0.000000 0.636545 0.105890
O O13 0.118649 0.624161 0.000000
O O14 0.250000 0.750000 0.250000
#
# Coordination Sequence:
#
# PCOD8291122 Si02
#       5
#     8  16  16  16  16
#     4   9  18  34  55  77 105 139 177 226 280 331
#     4  10  20  36  58  83 110 142 186 238 287 330
#     4  10  21  37  56  78 112 153 189 225 269 327
#     4   9  18  35  61  89 113 141 182 235 291 337
#     4  10  21  34  52  78 117 150 183 220 275 333
#
# _framework density 18.836628999999999
#
# number of rings (size 3 to 8) (size 9 to 14) (size 15 to 20)
#    0.000    2.333    1.111    2.000    0.000    4.889 
#    0.000    4.444    0.000    2.000    0.000    7.778 
#    0.000    0.000    0.000    0.000    0.000    0.000 
#
# Total GULP energy -446295.394618 kJ/mol
# GULP energy per Si atom -12397.094295 kJ/mol
# Density = 1.879376 g / cm^3
# Si number density = 18.836629 Si / 1000 Ang^3
#
#
#
# Elastic Constant Matrix: (Units=GPa)
#
#
# Indices 1 2 3 4 5 6 
#
# 1 58.4009 56.8723 52.2306 0.0000 0.0000 0.0000
# 2 56.8723 140.3044 76.2898 0.0000 0.0000 0.0000
# 3 52.2306 76.2898 123.6581 0.0000 0.0000 0.0000
# 4 0.0000 0.0000 0.0000 20.2194 0.0000 0.0000
# 5 0.0000 0.0000 0.0000 0.0000 32.1352 0.0000
# 6 0.0000 0.0000 0.0000 0.0000 0.0000 33.5423
#
#
#
# Elastic Compliance Matrix: (Units=1/GPa)
#
#
# Indices 1 2 3 4 5 6 
#
# 1 0.033531 -0.008864 -0.008694 0.000000 0.000000 0.000000
# 2 -0.008864 0.013069 -0.004318 0.000000 0.000000 0.000000
# 3 -0.008694 -0.004318 0.014423 0.000000 0.000000 0.000000
# 4 0.000000 0.000000 0.000000 0.049457 0.000000 0.000000
# 5 0.000000 0.000000 0.000000 0.000000 0.031119 0.000000
# 6 0.000000 0.000000 0.000000 0.000000 0.000000 0.029813
#
#
# Mechanical properties :
#
#
# Convention : Reuss Voigt Hill
#
# Bulk Modulus (GPa) = 57.90692 77.01653 67.46173
# Shear Modulus (GPa) = 22.63246 26.31074 24.47160
#
# Velocity S-wave (km/s) = 3.47005 3.74141 3.60828
# Velocity P-wave (km/s) = 6.84568 7.72267 7.29736
#
# Compressibility (1/GPa) = 0.01726909
#
# Stress axis : x y z
#
# Youngs Moduli (GPa) = 29.82339 76.51864 69.33303
#
# Poissons Ratio (x) = 0.67830 0.60277
# Poissons Ratio (y) = 0.26437 0.29941
# Poissons Ratio (z) = 0.25928 0.33044
#
# Static dielectric constant tensor:
#      x y z
#    x 3.430400 0.000000 0.000000 
#    y 0.000000 3.458260 0.000000 
#    z 0.000000 0.000000 4.121300 
# 
# 
# High freq. dielectric constant tensor:
#      x y z
#    x 1.718180 0.000000 0.000000 
#    y 0.000000 1.719690 0.000000 
#    z 0.000000 0.000000 1.751370 
# 
# From -- ./inp_files/34067.got.cif
#   From: 2010.06.25/outbox.cif.g09.slc.cpg/sg71_18_cif.got.tgz:34067.got - 2010.06.28 04:59:45.
