data_PCOD8291590
_publ_section_title
;
Structure prediction by ZEFSAII (Michael W. Deem and Ramdas Pophale) SiO2 
 PCOD8291590
Probable space group: I M M M
;
_chemical_formula_sum "Si O2"
_cell_formula_units_Z 64
_cell_length_a 14.715950
_cell_length_b 8.636134
_cell_length_c 25.917030
_cell_angle_alpha 90.000000
_cell_angle_beta 90.000000
_cell_angle_gamma 90.000000
_cell_volume 3293.767252
_symmetry_space_group_name_H-M "I M M M"
_symmetry_group_IT_number 71
_symmetry_cell_setting 'orthorhombic'
loop_
_space_group_symop_operation_xyz
x,y,z
-x,-y,z
x,-y,-z
-x,y,-z
-x,-y,-z
x,y,-z
-x,y,z
x,-y,z
1/2+x,1/2+y,1/2+z
1/2-x,1/2-y,1/2+z
1/2+x,1/2-y,1/2-z
1/2-x,1/2+y,1/2-z
1/2-x,1/2-y,1/2-z
1/2+x,1/2+y,1/2-z
1/2-x,1/2+y,1/2+z
1/2+x,1/2-y,1/2+z
loop_
_atom_site_type_symbol
_atom_site_label
_atom_site_fract_x
_atom_site_fract_y
_atom_site_fract_z
Si Si1 0.500000 0.181671 0.786777
Si Si2 0.500000 0.320064 0.324477
Si Si3 0.398346 0.182626 0.500000
Si Si4 0.000000 0.316959 0.558210
Si Si5 0.635683 0.318499 0.864277
Si Si6 0.339728 0.181754 0.611181
O O1 0.500000 0.218877 0.726888
O O2 0.591090 0.250170 0.812553
O O3 0.500000 0.000000 0.795863
O O4 0.500000 0.500000 0.309863
O O5 0.588803 0.280602 0.356988
O O6 0.500000 0.255025 0.500000
O O7 0.344331 0.235457 0.551268
O O8 0.406968 0.000000 0.500000
O O9 0.909767 0.254057 0.585272
O O10 0.000000 0.500000 0.561433
O O11 0.000000 0.255819 0.500000
O O12 0.618231 0.500000 0.865243
O O13 0.741773 0.278060 0.865469
O O14 0.362678 0.000000 0.616419
#
# Coordination Sequence:
#
# PCOD8291590 Si02
#       6
#     8   8   8   8  16  16
#     4  11  23  42  65  83 115 156 195 243 301 354
#     4  12  25  40  61  87 118 152 197 246 293 349
#     4   9  16  32  60  85 116 155 193 234 276 342
#     4  10  21  36  54  80 120 163 198 238 291 348
#     4  10  21  37  61  89 118 150 196 248 293 346
#     4  10  21  38  61  89 120 156 197 239 291 348
#
# _framework density 19.430637999999998
#
# number of rings (size 3 to 8) (size 9 to 14) (size 15 to 20)
#    0.000    1.750    1.250    4.875    1.750    4.000 
#    0.000    1.250    0.000    0.000    0.000    0.000 
#    0.000    0.000    0.000    0.000    0.000    0.000 
#
# Total GULP energy -396878.791766 kJ/mol
# GULP energy per Si atom -12402.462243 kJ/mol
# Density = 1.938641 g / cm^3
# Si number density = 19.430638 Si / 1000 Ang^3
#
#
#
# Elastic Constant Matrix: (Units=GPa)
#
#
# Indices 1 2 3 4 5 6 
#
# 1 128.5882 33.8389 45.0256 0.0000 0.0000 0.0000
# 2 33.8389 69.9265 20.3044 0.0000 0.0000 0.0000
# 3 45.0256 20.3044 130.6160 0.0000 0.0000 0.0000
# 4 0.0000 0.0000 0.0000 30.9305 0.0000 0.0000
# 5 0.0000 0.0000 0.0000 0.0000 47.4171 0.0000
# 6 0.0000 0.0000 0.0000 0.0000 0.0000 -63.5654
#
#
#
# Elastic Compliance Matrix: (Units=1/GPa)
#
#
# Indices 1 2 3 4 5 6 
#
# 1 0.009777 -0.003930 -0.002759 0.000000 0.000000 0.000000
# 2 -0.003930 0.016557 -0.001219 0.000000 0.000000 0.000000
# 3 -0.002759 -0.001219 0.008797 0.000000 0.000000 0.000000
# 4 0.000000 0.000000 0.000000 0.032331 0.000000 0.000000
# 5 0.000000 0.000000 0.000000 0.000000 0.021089 0.000000
# 6 0.000000 0.000000 0.000000 0.000000 0.000000 -0.015732
#
#
# Mechanical properties :
#
#
# Convention : Reuss Voigt Hill
#
# Bulk Modulus (GPa) = 51.77735 58.60760 55.19247
# Shear Modulus (GPa) = 52.59082 18.28721 35.43902
#
# Velocity S-wave (km/s) = 5.20814 3.07115 4.27532
# Velocity P-wave (km/s) = 7.92915 6.54247 7.26895
#
# Compressibility (1/GPa) = 0.01931346
#
# Stress axis : x y z
#
# Youngs Moduli (GPa) = 102.27834 60.39907 113.67851
#
# Poissons Ratio (x) = 0.23738 0.31369
# Poissons Ratio (y) = 0.40197 0.13857
# Poissons Ratio (z) = 0.28223 0.07362
#
# Static dielectric constant tensor:
#      x y z
#    x 3.704770 0.000000 0.000000 
#    y 0.000000 3.444700 0.000000 
#    z 0.000000 0.000000 3.678600 
# 
# 
# High freq. dielectric constant tensor:
#      x y z
#    x 1.761240 0.000000 0.000000 
#    y 0.000000 1.750360 0.000000 
#    z 0.000000 0.000000 1.764690 
# 
# From -- ./inp_files/59499.got.cif
#   From: 2010.06.25/outbox.cif.g09.slc.cpg/sg71_30_cif.got.tgz:59499.got - 2010.06.28 04:59:45.
