data_PCOD8291661
_publ_section_title
;
Structure prediction by ZEFSAII (Michael W. Deem and Ramdas Pophale) SiO2 
 PCOD8291661
Probable space group: I M M M
;
_chemical_formula_sum "Si O2"
_cell_formula_units_Z 88
_cell_length_a 24.624041
_cell_length_b 20.217497
_cell_length_c 9.310525
_cell_angle_alpha 90.000000
_cell_angle_beta 90.000000
_cell_angle_gamma 90.000000
_cell_volume 4635.118947
_symmetry_space_group_name_H-M "I M M M"
_symmetry_group_IT_number 71
_symmetry_cell_setting 'orthorhombic'
loop_
_space_group_symop_operation_xyz
x,y,z
-x,-y,z
x,-y,-z
-x,y,-z
-x,-y,-z
x,y,-z
-x,y,z
x,-y,z
1/2+x,1/2+y,1/2+z
1/2-x,1/2-y,1/2+z
1/2+x,1/2-y,1/2-z
1/2-x,1/2+y,1/2-z
1/2-x,1/2-y,1/2-z
1/2+x,1/2+y,1/2-z
1/2-x,1/2+y,1/2+z
1/2+x,1/2-y,1/2+z
loop_
_atom_site_type_symbol
_atom_site_label
_atom_site_fract_x
_atom_site_fract_y
_atom_site_fract_z
Si Si1 0.293874 0.925701 0.666209
Si Si2 0.000000 0.661560 0.664823
Si Si3 0.282240 0.692424 0.167108
Si Si4 0.396315 0.925364 0.835561
Si Si5 0.599509 0.357261 0.169716
Si Si6 0.438355 0.500000 0.832009
Si Si7 0.000000 0.792484 0.829192
O O1 0.308195 0.925955 0.500000
O O2 0.243996 0.878378 0.701402
O O3 0.346253 0.896577 0.746134
O O4 0.279440 0.000000 0.719681
O O5 0.051897 0.617864 0.696536
O O6 0.000000 0.688502 0.500000
O O7 0.000000 0.716736 0.784826
O O8 0.250000 0.750000 0.250000
O O9 0.344721 0.680313 0.213517
O O10 0.278378 0.710725 0.000000
O O11 0.409887 0.000000 0.788045
O O12 0.378795 0.921948 0.000000
O O13 0.597210 0.435375 0.211151
O O14 0.553194 0.324270 0.262624
O O15 0.588609 0.347797 0.000000
O O16 0.500000 0.500000 0.763064
O O17 0.447341 0.500000 0.000000
O O18 0.000000 0.800571 0.000000
#
# Coordination Sequence:
#
# PCOD8291661 Si02
#       7
#    16   8  16  16  16   8   8
#     4   9  19  36  56  82 116 150 185 230 283 336
#     4  10  21  36  57  81 110 147 191 237 280 338
#     4  10  23  39  60  86 117 155 196 243 288 342
#     4   9  18  34  57  83 109 142 186 234 282 333
#     4  10  21  40  64  89 115 151 196 239 289 349
#     4   9  16  32  64  96 116 142 190 247 290 347
#     4  12  26  40  56  83 119 155 188 233 288 347
#
# _framework density 18.985489999999999
#
# number of rings (size 3 to 8) (size 9 to 14) (size 15 to 20)
#    0.000    2.273    0.909    1.091    3.818    3.273 
#    0.000    0.909    0.000    2.727    0.000    0.000 
#    0.000    0.000    0.000    0.000    0.000    0.000 
#
# Total GULP energy -545403.688066 kJ/mol
# GULP energy per Si atom -12395.538365 kJ/mol
# Density = 1.894228 g / cm^3
# Si number density = 18.985490 Si / 1000 Ang^3
#
#
#
# Elastic Constant Matrix: (Units=GPa)
#
#
# Indices 1 2 3 4 5 6 
#
# 1 160.2814 74.1289 68.6313 0.0000 0.0000 0.0000
# 2 74.1289 101.4910 51.9837 0.0000 0.0000 0.0000
# 3 68.6313 51.9837 68.3831 0.0000 0.0000 0.0000
# 4 0.0000 0.0000 0.0000 26.5000 0.0000 0.0000
# 5 0.0000 0.0000 0.0000 0.0000 27.6031 0.0000
# 6 0.0000 0.0000 0.0000 0.0000 0.0000 65.6314
#
#
#
# Elastic Compliance Matrix: (Units=1/GPa)
#
#
# Indices 1 2 3 4 5 6 
#
# 1 0.011959 -0.004237 -0.008781 0.000000 0.000000 0.000000
# 2 -0.004237 0.017637 -0.009155 0.000000 0.000000 0.000000
# 3 -0.008781 -0.009155 0.030396 0.000000 0.000000 0.000000
# 4 0.000000 0.000000 0.000000 0.037736 0.000000 0.000000
# 5 0.000000 0.000000 0.000000 0.000000 0.036228 0.000000
# 6 0.000000 0.000000 0.000000 0.000000 0.000000 0.015237
#
#
# Mechanical properties :
#
#
# Convention : Reuss Voigt Hill
#
# Bulk Modulus (GPa) = 63.91674 79.96039 71.93856
# Shear Modulus (GPa) = 25.15681 32.97433 29.06557
#
# Velocity S-wave (km/s) = 3.64408 4.17204 3.91696
# Velocity P-wave (km/s) = 7.17251 8.08801 7.64398
#
# Compressibility (1/GPa) = 0.01564535
#
# Stress axis : x y z
#
# Youngs Moduli (GPa) = 83.62205 56.69935 32.89885
#
# Poissons Ratio (x) = 0.24022 0.28889
# Poissons Ratio (y) = 0.35429 0.30119
# Poissons Ratio (z) = 0.73431 0.51909
#
# Static dielectric constant tensor:
#      x y z
#    x 3.454250 0.000000 0.000000 
#    y 0.000000 3.801360 0.000000 
#    z 0.000000 0.000000 3.322480 
# 
# 
# High freq. dielectric constant tensor:
#      x y z
#    x 1.745920 0.000000 0.000000 
#    y 0.000000 1.748610 0.000000 
#    z 0.000000 0.000000 1.713670 
# 
# From -- ./inp_files/12616.got.cif
#   From: 2010.06.25/outbox.cif.g09.slc.cpg/sg71_7_cif.got.tgz:12616.got - 2010.06.28 04:59:45.
