data_PCOD8291578
_publ_section_title
;
Structure prediction by ZEFSAII (Michael W. Deem and Ramdas Pophale) SiO2 
 PCOD8291578
Probable space group: I M M M
;
_chemical_formula_sum "Si O2"
_cell_formula_units_Z 104
_cell_length_a 9.208725
_cell_length_b 25.974123
_cell_length_c 23.104484
_cell_angle_alpha 90.000000
_cell_angle_beta 90.000000
_cell_angle_gamma 90.000000
_cell_volume 5526.328161
_symmetry_space_group_name_H-M "I M M M"
_symmetry_group_IT_number 71
_symmetry_cell_setting 'orthorhombic'
loop_
_space_group_symop_operation_xyz
x,y,z
-x,-y,z
x,-y,-z
-x,y,-z
-x,-y,-z
x,y,-z
-x,y,z
x,-y,z
1/2+x,1/2+y,1/2+z
1/2-x,1/2-y,1/2+z
1/2+x,1/2-y,1/2-z
1/2-x,1/2+y,1/2-z
1/2-x,1/2-y,1/2-z
1/2+x,1/2+y,1/2-z
1/2-x,1/2+y,1/2+z
1/2+x,1/2-y,1/2+z
loop_
_atom_site_type_symbol
_atom_site_label
_atom_site_fract_x
_atom_site_fract_y
_atom_site_fract_z
Si Si1 0.166460 0.699636 0.564363
Si Si2 0.327518 0.500000 0.933978
Si Si3 0.829925 0.000000 0.132160
Si Si4 0.328060 0.586103 0.156097
Si Si5 0.836777 0.213040 0.176914
Si Si6 0.335492 0.171876 0.720954
Si Si7 0.840534 0.579258 0.435099
Si Si8 0.171457 0.000000 0.742004
O O1 0.211278 0.719877 0.500000
O O2 0.266525 0.722709 0.614066
O O3 0.188739 0.639123 0.566353
O O4 0.000000 0.714988 0.576691
O O5 0.500000 0.500000 0.933411
O O6 0.278522 0.446873 0.901170
O O7 0.266598 0.500000 0.000000
O O8 0.782616 0.948124 0.101249
O O9 0.757125 0.000000 0.195228
O O10 0.000000 0.000000 0.136435
O O11 0.500000 0.597812 0.153140
O O12 0.243028 0.639425 0.169095
O O13 0.279076 0.551407 0.209912
O O14 0.750414 0.171566 0.217294
O O15 0.839783 0.268978 0.204115
O O16 0.000000 0.191333 0.170117
O O17 0.500000 0.151124 0.729837
O O18 0.830957 0.558222 0.500000
O O19 0.000000 0.566239 0.409774
O O20 0.000000 0.000000 0.743617
#
# Coordination Sequence:
#
# PCOD8291578 Si02
#       8
#    16   8   8  16  16  16  16   8
#     4   9  19  36  56  77 103 136 175 219 264 310
#     4   8  15  31  57  86 113 144 182 220 261 318
#     4  11  21  30  44  69  98 126 165 212 252 299
#     4   9  17  33  56  78 106 141 175 215 261 311
#     4  10  21  36  55  78 106 141 179 221 270 321
#     4  10  21  36  54  79 109 139 175 220 270 324
#     4   9  19  35  50  65  92 130 168 208 256 302
#     4   8  18  33  46  70 105 135 163 205 257 300
#
# _framework density 18.819005000000001
#
# number of rings (size 3 to 8) (size 9 to 14) (size 15 to 20)
#    0.000    2.692    0.000    3.231    2.154    4.000 
#    0.000    4.615    0.000    3.692    0.000    0.000 
#    0.000    0.000    0.000    0.000    0.000    0.000 
#
# Total GULP energy -644314.298872 kJ/mol
# GULP energy per Si atom -12390.659594 kJ/mol
# Density = 1.877617 g / cm^3
# Si number density = 18.819005 Si / 1000 Ang^3
#
#
#
# Elastic Constant Matrix: (Units=GPa)
#
#
# Indices 1 2 3 4 5 6 
#
# 1 91.8552 18.1222 46.3159 0.0000 0.0000 0.0000
# 2 18.1222 32.8932 11.6037 0.0000 0.0000 0.0000
# 3 46.3159 11.6037 114.2646 0.0000 0.0000 0.0000
# 4 0.0000 0.0000 0.0000 23.7839 0.0000 0.0000
# 5 0.0000 0.0000 0.0000 0.0000 24.8126 0.0000
# 6 0.0000 0.0000 0.0000 0.0000 0.0000 27.1567
#
#
#
# Elastic Compliance Matrix: (Units=1/GPa)
#
#
# Indices 1 2 3 4 5 6 
#
# 1 0.014836 -0.006277 -0.005376 0.000000 0.000000 0.000000
# 2 -0.006277 0.034187 -0.000927 0.000000 0.000000 0.000000
# 3 -0.005376 -0.000927 0.011025 0.000000 0.000000 0.000000
# 4 0.000000 0.000000 0.000000 0.042045 0.000000 0.000000
# 5 0.000000 0.000000 0.000000 0.000000 0.040302 0.000000
# 6 0.000000 0.000000 0.000000 0.000000 0.000000 0.036823
#
#
# Mechanical properties :
#
#
# Convention : Reuss Voigt Hill
#
# Bulk Modulus (GPa) = 28.66439 43.45518 36.05978
# Shear Modulus (GPa) = 23.14723 26.01538 24.58130
#
# Velocity S-wave (km/s) = 3.51093 3.72210 3.61805
# Velocity P-wave (km/s) = 5.63029 6.45083 6.05448
#
# Compressibility (1/GPa) = 0.03488649
#
# Stress axis : x y z
#
# Youngs Moduli (GPa) = 67.40402 29.25097 90.70346
#
# Poissons Ratio (x) = 0.18361 0.48763
# Poissons Ratio (y) = 0.42311 0.08411
# Poissons Ratio (z) = 0.36237 0.02713
#
# Static dielectric constant tensor:
#      x y z
#    x 3.424190 0.000000 0.000000 
#    y 0.000000 3.529050 0.000000 
#    z 0.000000 0.000000 3.916190 
# 
# 
# High freq. dielectric constant tensor:
#      x y z
#    x 1.715040 0.000000 0.000000 
#    y 0.000000 1.717140 0.000000 
#    z 0.000000 0.000000 1.731880 
# 
# From -- ./inp_files/58055.got.cif
#   From: 2010.06.25/outbox.cif.g09.slc.cpg/sg71_30_cif.got.tgz:58055.got - 2010.06.28 04:59:45.
