data_PCOD8291376
_publ_section_title
;
Structure prediction by ZEFSAII (Michael W. Deem and Ramdas Pophale) SiO2 
 PCOD8291376
Probable space group: I M M M
;
_chemical_formula_sum "Si O2"
_cell_formula_units_Z 120
_cell_length_a 21.312068
_cell_length_b 22.992470
_cell_length_c 14.378971
_cell_angle_alpha 90.000000
_cell_angle_beta 90.000000
_cell_angle_gamma 90.000000
_cell_volume 7045.941442
_symmetry_space_group_name_H-M "I M M M"
_symmetry_group_IT_number 71
_symmetry_cell_setting 'orthorhombic'
loop_
_space_group_symop_operation_xyz
x,y,z
-x,-y,z
x,-y,-z
-x,y,-z
-x,-y,-z
x,y,-z
-x,y,z
x,-y,z
1/2+x,1/2+y,1/2+z
1/2-x,1/2-y,1/2+z
1/2+x,1/2-y,1/2-z
1/2-x,1/2+y,1/2-z
1/2-x,1/2-y,1/2-z
1/2+x,1/2+y,1/2-z
1/2-x,1/2+y,1/2+z
1/2+x,1/2-y,1/2+z
loop_
_atom_site_type_symbol
_atom_site_label
_atom_site_fract_x
_atom_site_fract_y
_atom_site_fract_z
Si Si1 0.000000 0.067763 0.109343
Si Si2 0.614906 0.621771 0.716958
Si Si3 0.068751 0.310868 0.389916
Si Si4 0.690762 0.127192 0.892773
Si Si5 0.755286 0.332423 0.895558
Si Si6 0.742114 0.565133 0.756062
Si Si7 0.693853 0.289282 0.607159
Si Si8 0.109890 0.184569 0.605172
O O1 0.938403 0.096082 0.152312
O O2 0.000000 0.000000 0.132799
O O3 0.000000 0.079768 0.000000
O O4 0.670101 0.574633 0.726235
O O5 0.641336 0.681350 0.671672
O O6 0.588008 0.635865 0.820311
O O7 0.072820 0.313434 0.500000
O O8 0.123207 0.352960 0.351725
O O9 0.079367 0.244393 0.360622
O O10 0.000000 0.331248 0.353824
O O11 0.713954 0.071604 0.834630
O O12 0.739299 0.179879 0.877505
O O13 0.686814 0.108355 0.000000
O O14 0.765813 0.388473 0.831822
O O15 0.799255 0.278515 0.864019
O O16 0.684609 0.309192 0.890496
O O17 0.772308 0.351491 0.000000
O O18 0.749255 0.500000 0.795836
O O19 0.672975 0.295077 0.500000
O O20 0.088361 0.167334 0.500000
#
# Coordination Sequence:
#
# PCOD8291376 Si02
#       8
#     8  16  16  16  16  16  16  16
#     4  11  24  42  57  69  95 135 175 213 251 292
#     4  10  21  33  53  73  97 129 168 209 251 291
#     4   9  16  26  43  69 102 130 153 181 225 289
#     4   9  17  29  47  70  99 125 152 195 242 290
#     4   9  17  30  49  71 100 131 158 200 253 297
#     4  10  21  33  48  70  95 127 171 207 237 288
#     4   9  16  29  49  74  98 122 159 204 255 302
#     4   9  17  29  46  73 106 133 158 191 239 296
#
# _framework density 17.031081
#
# number of rings (size 3 to 8) (size 9 to 14) (size 15 to 20)
#    0.000    2.600    1.333    0.800    2.800    2.667 
#    0.000    0.000    0.000    2.000    0.000    1.867 
#    0.000    0.000    0.000    1.200    0.000    0.133 
#
# Total GULP energy -743747.869930 kJ/mol
# GULP energy per Si atom -12395.797832 kJ/mol
# Density = 1.699232 g / cm^3
# Si number density = 17.031081 Si / 1000 Ang^3
#
#
#
# Elastic Constant Matrix: (Units=GPa)
#
#
# Indices 1 2 3 4 5 6 
#
# 1 73.9101 35.5257 33.6234 0.0000 0.0000 0.0000
# 2 35.5257 102.5742 46.3125 0.0000 0.0000 0.0000
# 3 33.6234 46.3125 80.3620 0.0000 0.0000 0.0000
# 4 0.0000 0.0000 0.0000 22.5137 0.0000 0.0000
# 5 0.0000 0.0000 0.0000 0.0000 18.0045 0.0000
# 6 0.0000 0.0000 0.0000 0.0000 0.0000 15.2776
#
#
#
# Elastic Compliance Matrix: (Units=1/GPa)
#
#
# Indices 1 2 3 4 5 6 
#
# 1 0.017729 -0.003773 -0.005243 0.000000 0.000000 0.000000
# 2 -0.003773 0.013981 -0.006479 0.000000 0.000000 0.000000
# 3 -0.005243 -0.006479 0.018371 0.000000 0.000000 0.000000
# 4 0.000000 0.000000 0.000000 0.044417 0.000000 0.000000
# 5 0.000000 0.000000 0.000000 0.000000 0.055542 0.000000
# 6 0.000000 0.000000 0.000000 0.000000 0.000000 0.065455
#
#
# Mechanical properties :
#
#
# Convention : Reuss Voigt Hill
#
# Bulk Modulus (GPa) = 52.38052 54.19662 53.28857
# Shear Modulus (GPa) = 19.77470 20.58481 20.17975
#
# Velocity S-wave (km/s) = 3.41118 3.48035 3.44594
# Velocity P-wave (km/s) = 6.80716 6.93121 6.86947
#
# Compressibility (1/GPa) = 0.01909107
#
# Stress axis : x y z
#
# Youngs Moduli (GPa) = 56.40558 71.52661 54.43312
#
# Poissons Ratio (x) = 0.26985 0.28542
# Poissons Ratio (y) = 0.21280 0.35265
# Poissons Ratio (z) = 0.29576 0.46339
#
# Static dielectric constant tensor:
#      x y z
#    x 3.143320 0.000000 0.000000 
#    y 0.000000 2.969420 0.000000 
#    z 0.000000 0.000000 3.370020 
# 
# 
# High freq. dielectric constant tensor:
#      x y z
#    x 1.636810 0.000000 0.000000 
#    y 0.000000 1.632100 0.000000 
#    z 0.000000 0.000000 1.657040 
# 
# From -- ./inp_files/38402.got.cif
#   From: 2010.06.25/outbox.cif.g09.slc.cpg/sg71_20_cif.got.tgz:38402.got - 2010.06.28 04:59:45.
