data_PCOD8291255
_publ_section_title
;
Structure prediction by ZEFSAII (Michael W. Deem and Ramdas Pophale) SiO2 
 PCOD8291255
Probable space group: I M M M
;
_chemical_formula_sum "Si O2"
_cell_formula_units_Z 96
_cell_length_a 17.026201
_cell_length_b 13.833338
_cell_length_c 21.483293
_cell_angle_alpha 90.000000
_cell_angle_beta 90.000000
_cell_angle_gamma 90.000000
_cell_volume 5059.942669
_symmetry_space_group_name_H-M "I M M M"
_symmetry_group_IT_number 71
_symmetry_cell_setting 'orthorhombic'
loop_
_space_group_symop_operation_xyz
x,y,z
-x,-y,z
x,-y,-z
-x,y,-z
-x,-y,-z
x,y,-z
-x,y,z
x,-y,z
1/2+x,1/2+y,1/2+z
1/2-x,1/2-y,1/2+z
1/2+x,1/2-y,1/2-z
1/2-x,1/2+y,1/2-z
1/2-x,1/2-y,1/2-z
1/2+x,1/2+y,1/2-z
1/2-x,1/2+y,1/2+z
1/2+x,1/2-y,1/2+z
loop_
_atom_site_type_symbol
_atom_site_label
_atom_site_fract_x
_atom_site_fract_y
_atom_site_fract_z
Si Si1 0.227799 0.389401 0.632899
Si Si2 0.709781 0.609561 0.500000
Si Si3 0.089585 0.717904 0.000000
Si Si4 0.160260 0.887251 0.571106
Si Si5 0.671099 0.735011 0.287191
Si Si6 0.911047 0.749496 0.332793
Si Si7 0.163559 0.613428 0.887714
O O1 0.220249 0.500000 0.652448
O O2 0.234254 0.373723 0.559131
O O3 0.309119 0.349439 0.663339
O O4 0.148572 0.338385 0.656036
O O5 0.675626 0.500000 0.500000
O O6 0.638181 0.683441 0.500000
O O7 0.105057 0.651803 0.940026
O O8 0.000000 0.750661 0.000000
O O9 0.147571 0.853882 0.500000
O O10 0.100136 0.832552 0.615846
O O11 0.248382 0.860906 0.591056
O O12 0.143714 0.000000 0.578365
O O13 0.750000 0.750000 0.250000
O O14 0.603901 0.707545 0.236991
O O15 0.645849 0.832869 0.322900
O O16 0.000000 0.711514 0.337273
O O17 0.150662 0.500000 0.877761
#
# Coordination Sequence:
#
# PCOD8291255 Si02
#       7
#    16   8   8  16  16  16  16
#     4  10  21  39  64  87 111 152 203 244 285 346
#     4  10  20  40  68  90 113 153 209 254 286 341
#     4  12  23  37  60  92 131 157 188 245 309 363
#     4  10  20  37  64  90 114 151 197 242 290 354
#     4  10  20  37  59  86 112 157 205 237 282 343
#     4  11  24  39  57  88 126 153 188 243 300 351
#     4  11  21  37  62  90 119 155 200 244 291 354
#
# _framework density 18.972546999999999
#
# number of rings (size 3 to 8) (size 9 to 14) (size 15 to 20)
#    0.000    1.500    5.833    0.250    1.167    5.833 
#    0.000    0.833    0.000    1.500    0.000    0.000 
#    0.000    0.000    0.000    0.000    0.000    0.000 
#
# Total GULP energy -595207.573226 kJ/mol
# GULP energy per Si atom -12400.157776 kJ/mol
# Density = 1.892936 g / cm^3
# Si number density = 18.972547 Si / 1000 Ang^3
#
#
#
# Elastic Constant Matrix: (Units=GPa)
#
#
# Indices 1 2 3 4 5 6 
#
# 1 99.6021 41.1577 36.3061 0.0000 0.0000 0.0000
# 2 41.1577 89.3975 51.5712 0.0000 0.0000 0.0000
# 3 36.3061 51.5712 142.8898 0.0000 0.0000 0.0000
# 4 0.0000 0.0000 0.0000 22.6910 0.0000 0.0000
# 5 0.0000 0.0000 0.0000 0.0000 20.2902 0.0000
# 6 0.0000 0.0000 0.0000 0.0000 0.0000 12.8211
#
#
#
# Elastic Compliance Matrix: (Units=1/GPa)
#
#
# Indices 1 2 3 4 5 6 
#
# 1 0.012617 -0.005001 -0.001401 0.000000 0.000000 0.000000
# 2 -0.005001 0.016109 -0.004544 0.000000 0.000000 0.000000
# 3 -0.001401 -0.004544 0.008994 0.000000 0.000000 0.000000
# 4 0.000000 0.000000 0.000000 0.044070 0.000000 0.000000
# 5 0.000000 0.000000 0.000000 0.000000 0.049285 0.000000
# 6 0.000000 0.000000 0.000000 0.000000 0.000000 0.077996
#
#
# Mechanical properties :
#
#
# Convention : Reuss Voigt Hill
#
# Bulk Modulus (GPa) = 63.17001 65.55105 64.36053
# Shear Modulus (GPa) = 21.16501 24.68408 22.92455
#
# Velocity S-wave (km/s) = 3.34362 3.61091 3.47983
# Velocity P-wave (km/s) = 6.94796 7.21182 7.08112
#
# Compressibility (1/GPa) = 0.01583030
#
# Stress axis : x y z
#
# Youngs Moduli (GPa) = 79.25841 62.07622 111.18275
#
# Poissons Ratio (x) = 0.31041 0.15577
# Poissons Ratio (y) = 0.39633 0.50516
# Poissons Ratio (z) = 0.11104 0.28204
#
# Static dielectric constant tensor:
#      x y z
#    x 3.260110 0.000000 0.000000 
#    y 0.000000 3.554390 0.000000 
#    z 0.000000 0.000000 4.132830 
# 
# 
# High freq. dielectric constant tensor:
#      x y z
#    x 1.705340 0.000000 0.000000 
#    y 0.000000 1.737780 0.000000 
#    z 0.000000 0.000000 1.759230 
# 
# From -- ./inp_files/53025.got.cif
#   From: 2010.06.25/outbox.cif.g09.slc.cpg/sg71_27_cif.got.tgz:53025.got - 2010.06.28 04:59:45.
