data_PCOD8291196
_publ_section_title
;
Structure prediction by ZEFSAII (Michael W. Deem and Ramdas Pophale) SiO2 
 PCOD8291196
Probable space group: I M M M
;
_chemical_formula_sum "Si O2"
_cell_formula_units_Z 72
_cell_length_a 19.104395
_cell_length_b 8.686783
_cell_length_c 23.366115
_cell_angle_alpha 90.000000
_cell_angle_beta 90.000000
_cell_angle_gamma 90.000000
_cell_volume 3877.740759
_symmetry_space_group_name_H-M "I M M M"
_symmetry_group_IT_number 71
_symmetry_cell_setting 'orthorhombic'
loop_
_space_group_symop_operation_xyz
x,y,z
-x,-y,z
x,-y,-z
-x,y,-z
-x,-y,-z
x,y,-z
-x,y,z
x,-y,z
1/2+x,1/2+y,1/2+z
1/2-x,1/2-y,1/2+z
1/2+x,1/2-y,1/2-z
1/2-x,1/2+y,1/2-z
1/2-x,1/2-y,1/2-z
1/2+x,1/2+y,1/2-z
1/2-x,1/2+y,1/2+z
1/2+x,1/2-y,1/2+z
loop_
_atom_site_type_symbol
_atom_site_label
_atom_site_fract_x
_atom_site_fract_y
_atom_site_fract_z
Si Si1 0.423899 0.000000 0.566347
Si Si2 0.182653 0.671503 0.870908
Si Si3 0.918985 0.318494 0.657127
Si Si4 0.173688 0.820138 0.756642
Si Si5 0.320898 0.316863 0.934728
O O1 0.380885 0.153123 0.584083
O O2 0.500000 0.000000 0.596512
O O3 0.434025 0.000000 0.500000
O O4 0.201135 0.500000 0.845642
O O5 0.153001 0.783621 0.821933
O O6 0.250699 0.741840 0.902507
O O7 0.909288 0.500000 0.654897
O O8 0.880404 0.255855 0.713135
O O9 0.887716 0.247520 0.598969
O O10 0.000000 0.270275 0.660711
O O11 0.250000 0.750000 0.750000
O O12 0.173915 0.000000 0.744591
O O13 0.322598 0.500000 0.934919
O O14 0.321966 0.254588 0.000000
#
# Coordination Sequence:
#
# PCOD8291196 Si02
#       5
#     8  16  16  16  16
#     4   9  18  34  60  92 123 157 196 240 291 346
#     4   9  19  34  58  88 118 152 195 242 287 348
#     4  11  25  42  60  85 119 159 203 252 306 361
#     4  12  23  38  61  87 117 154 196 245 303 361
#     4  10  20  36  60  87 117 158 204 248 294 356
#
# _framework density 18.567513000000002
#
# number of rings (size 3 to 8) (size 9 to 14) (size 15 to 20)
#    0.667    1.000    2.222    3.333    0.000    3.556 
#    0.000    2.222    0.000    2.000    0.000    1.556 
#    0.000    0.000    0.000    0.000    0.000    0.000 
#
# Total GULP energy -446246.541897 kJ/mol
# GULP energy per Si atom -12395.737275 kJ/mol
# Density = 1.852525 g / cm^3
# Si number density = 18.567513 Si / 1000 Ang^3
#
#
#
# Elastic Constant Matrix: (Units=GPa)
#
#
# Indices 1 2 3 4 5 6 
#
# 1 143.7523 25.6271 66.4505 0.0000 0.0000 0.0000
# 2 25.6271 32.2886 28.7113 0.0000 0.0000 0.0000
# 3 66.4505 28.7113 143.4946 0.0000 0.0000 0.0000
# 4 0.0000 0.0000 0.0000 32.3299 0.0000 0.0000
# 5 0.0000 0.0000 0.0000 0.0000 32.8444 0.0000
# 6 0.0000 0.0000 0.0000 0.0000 0.0000 22.3126
#
#
#
# Elastic Compliance Matrix: (Units=1/GPa)
#
#
# Indices 1 2 3 4 5 6 
#
# 1 0.009324 -0.004332 -0.003451 0.000000 0.000000 0.000000
# 2 -0.004332 0.039686 -0.005935 0.000000 0.000000 0.000000
# 3 -0.003451 -0.005935 0.009755 0.000000 0.000000 0.000000
# 4 0.000000 0.000000 0.000000 0.030931 0.000000 0.000000
# 5 0.000000 0.000000 0.000000 0.000000 0.030447 0.000000
# 6 0.000000 0.000000 0.000000 0.000000 0.000000 0.044818
#
#
# Mechanical properties :
#
#
# Convention : Reuss Voigt Hill
#
# Bulk Modulus (GPa) = 31.91878 62.34592 47.13235
# Shear Modulus (GPa) = 24.65029 30.74716 27.69873
#
# Velocity S-wave (km/s) = 3.64758 4.07377 3.86655
# Velocity P-wave (km/s) = 5.91336 7.46849 6.73595
#
# Compressibility (1/GPa) = 0.03132952
#
# Stress axis : x y z
#
# Youngs Moduli (GPa) = 107.25126 25.19795 102.51678
#
# Poissons Ratio (x) = 0.10915 0.35379
# Poissons Ratio (y) = 0.46456 0.60840
# Poissons Ratio (z) = 0.37013 0.14954
#
# Static dielectric constant tensor:
#      x y z
#    x 3.583850 0.000000 0.000000 
#    y 0.000000 3.617790 0.000000 
#    z 0.000000 0.000000 3.880230 
# 
# 
# High freq. dielectric constant tensor:
#      x y z
#    x 1.722570 0.000000 0.000000 
#    y 0.000000 1.698770 0.000000 
#    z 0.000000 0.000000 1.732310 
# 
# From -- ./inp_files/60377.got.cif
#   From: 2010.06.25/outbox.cif.g09.slc.cpg/sg71_31_cif.got.tgz:60377.got - 2010.06.28 04:59:45.
