data_PCOD8291451
_publ_section_title
;
Structure prediction by ZEFSAII (Michael W. Deem and Ramdas Pophale) SiO2 
 PCOD8291451
Probable space group: I M M M
;
_chemical_formula_sum "Si O2"
_cell_formula_units_Z 104
_cell_length_a 20.197289
_cell_length_b 8.859117
_cell_length_c 32.230333
_cell_angle_alpha 90.000000
_cell_angle_beta 90.000000
_cell_angle_gamma 90.000000
_cell_volume 5766.978200
_symmetry_space_group_name_H-M "I M M M"
_symmetry_group_IT_number 71
_symmetry_cell_setting 'orthorhombic'
loop_
_space_group_symop_operation_xyz
x,y,z
-x,-y,z
x,-y,-z
-x,y,-z
-x,-y,-z
x,y,-z
-x,y,z
x,-y,z
1/2+x,1/2+y,1/2+z
1/2-x,1/2-y,1/2+z
1/2+x,1/2-y,1/2-z
1/2-x,1/2+y,1/2-z
1/2-x,1/2-y,1/2-z
1/2+x,1/2+y,1/2-z
1/2-x,1/2+y,1/2+z
1/2+x,1/2-y,1/2+z
loop_
_atom_site_type_symbol
_atom_site_label
_atom_site_fract_x
_atom_site_fract_y
_atom_site_fract_z
Si Si1 0.822448 0.824257 0.343913
Si Si2 0.076210 0.173317 0.805993
Si Si3 0.843613 0.670880 0.426020
Si Si4 0.695647 0.670968 0.546844
Si Si5 0.427798 0.819901 0.000000
Si Si6 0.324751 0.178031 0.631951
Si Si7 0.424758 0.178439 0.218897
O O1 0.852618 0.784433 0.388184
O O2 0.745195 0.772537 0.346751
O O3 0.866009 0.739533 0.309804
O O4 0.828033 0.000000 0.334560
O O5 0.117777 0.238288 0.843790
O O6 0.092384 0.266380 0.764804
O O7 0.000000 0.190542 0.818714
O O8 0.095363 0.000000 0.797917
O O9 0.860195 0.500000 0.411277
O O10 0.774076 0.673940 0.449129
O O11 0.894563 0.739989 0.458490
O O12 0.676674 0.728111 0.500000
O O13 0.669259 0.500000 0.552860
O O14 0.667097 0.775722 0.583538
O O15 0.500000 0.751745 0.000000
O O16 0.424319 0.000000 0.000000
O O17 0.333781 0.000000 0.634937
O O18 0.500000 0.232188 0.206232
O O19 0.421485 0.000000 0.217916
#
# Coordination Sequence:
#
# PCOD8291451 Si02
#       7
#    16  16  16  16   8  16  16
#     4  10  21  35  51  76 108 141 177 220 266 312
#     4  10  21  38  60  83 107 137 172 212 262 320
#     4   9  16  29  47  68  96 132 173 218 264 309
#     4   9  16  29  51  75 101 136 176 217 262 311
#     4   9  16  26  43  67  93 125 170 219 262 307
#     4  10  21  35  53  81 112 142 178 217 262 315
#     4  10  21  37  57  79 103 138 182 222 265 317
#
# _framework density 18.033709000000002
#
# number of rings (size 3 to 8) (size 9 to 14) (size 15 to 20)
#    0.000    2.385    0.769    1.846    0.000    5.231 
#    0.000    1.923    0.000    0.923    0.000    3.231 
#    0.000    0.000    0.000    0.000    0.000    0.000 
#
# Total GULP energy -644505.057684 kJ/mol
# GULP energy per Si atom -12394.328032 kJ/mol
# Density = 1.799266 g / cm^3
# Si number density = 18.033709 Si / 1000 Ang^3
#
#
#
# Elastic Constant Matrix: (Units=GPa)
#
#
# Indices 1 2 3 4 5 6 
#
# 1 74.7857 34.0681 61.0250 0.0000 0.0000 0.0000
# 2 34.0681 61.4854 37.1094 0.0000 0.0000 0.0000
# 3 61.0250 37.1094 113.6807 0.0000 0.0000 0.0000
# 4 0.0000 0.0000 0.0000 32.9842 0.0000 0.0000
# 5 0.0000 0.0000 0.0000 0.0000 39.0984 0.0000
# 6 0.0000 0.0000 0.0000 0.0000 0.0000 23.9134
#
#
#
# Elastic Compliance Matrix: (Units=1/GPa)
#
#
# Indices 1 2 3 4 5 6 
#
# 1 0.026335 -0.007546 -0.011673 0.000000 0.000000 0.000000
# 2 -0.007546 0.022417 -0.003267 0.000000 0.000000 0.000000
# 3 -0.011673 -0.003267 0.016129 0.000000 0.000000 0.000000
# 4 0.000000 0.000000 0.000000 0.030318 0.000000 0.000000
# 5 0.000000 0.000000 0.000000 0.000000 0.025576 0.000000
# 6 0.000000 0.000000 0.000000 0.000000 0.000000 0.041818
#
#
# Mechanical properties :
#
#
# Convention : Reuss Voigt Hill
#
# Bulk Modulus (GPa) = 50.23054 57.15075 53.69065
# Shear Modulus (GPa) = 23.34256 27.04916 25.19586
#
# Velocity S-wave (km/s) = 3.60166 3.87708 3.74191
# Velocity P-wave (km/s) = 6.72385 7.19738 6.96464
#
# Compressibility (1/GPa) = 0.01990821
#
# Stress axis : x y z
#
# Youngs Moduli (GPa) = 37.97298 44.60919 61.99883
#
# Poissons Ratio (x) = 0.33663 0.72373
# Poissons Ratio (y) = 0.28655 0.20254
# Poissons Ratio (z) = 0.44327 0.14573
#
# Static dielectric constant tensor:
#      x y z
#    x 3.302190 0.000000 0.000000 
#    y 0.000000 3.308350 0.000000 
#    z 0.000000 0.000000 3.353550 
# 
# 
# High freq. dielectric constant tensor:
#      x y z
#    x 1.681900 0.000000 0.000000 
#    y 0.000000 1.694530 0.000000 
#    z 0.000000 0.000000 1.704460 
# 
# From -- ./inp_files/15055.got.cif
#   From: 2010.06.25/outbox.cif.g09.slc.cpg/sg71_8_cif.got.tgz:15055.got - 2010.06.28 04:59:45.
