data_PCOD8291368
_publ_section_title
;
Structure prediction by ZEFSAII (Michael W. Deem and Ramdas Pophale) SiO2 
 PCOD8291368
Probable space group: I M M M
;
_chemical_formula_sum "Si O2"
_cell_formula_units_Z 56
_cell_length_a 15.224183
_cell_length_b 7.690694
_cell_length_c 23.199185
_cell_angle_alpha 90.000000
_cell_angle_beta 90.000000
_cell_angle_gamma 90.000000
_cell_volume 2716.265738
_symmetry_space_group_name_H-M "I M M M"
_symmetry_group_IT_number 71
_symmetry_cell_setting 'orthorhombic'
loop_
_space_group_symop_operation_xyz
x,y,z
-x,-y,z
x,-y,-z
-x,y,-z
-x,-y,-z
x,y,-z
-x,y,z
x,-y,z
1/2+x,1/2+y,1/2+z
1/2-x,1/2-y,1/2+z
1/2+x,1/2-y,1/2-z
1/2-x,1/2+y,1/2-z
1/2-x,1/2-y,1/2-z
1/2+x,1/2+y,1/2-z
1/2-x,1/2+y,1/2+z
1/2+x,1/2-y,1/2+z
loop_
_atom_site_type_symbol
_atom_site_label
_atom_site_fract_x
_atom_site_fract_y
_atom_site_fract_z
Si Si1 0.653816 0.702799 0.270412
Si Si2 0.000000 0.792464 0.312778
Si Si3 0.398773 0.294651 0.394655
Si Si4 0.000000 0.500000 0.594361
Si Si5 0.782333 0.308530 0.000000
Si Si6 0.145980 0.500000 0.500000
O O1 0.640444 0.500000 0.276609
O O2 0.750000 0.750000 0.250000
O O3 0.584944 0.769127 0.223152
O O4 0.633710 0.782753 0.333246
O O5 0.000000 0.679781 0.370480
O O6 0.000000 0.000000 0.326862
O O7 0.500000 0.244932 0.403600
O O8 0.384469 0.500000 0.398547
O O9 0.342446 0.206146 0.443919
O O10 0.912250 0.500000 0.556945
O O11 0.739204 0.500000 0.000000
O O12 0.704668 0.171177 0.000000
#
# Coordination Sequence:
#
# PCOD8291368 Si02
#       6
#    16   8  16   4   8   4
#     4  10  22  38  62  96 135 175 218 273 339 400
#     4  10  23  45  69 105 139 169 223 283 336 407
#     4  10  20  40  65  91 134 184 220 268 336 403
#     4  11  28  48  80  90 130 185 224 282 352 395
#     4  12  26  42  68  99 133 174 229 284 334 393
#     4  11  28  54  67 100 130 176 235 284 336 411
#
# _framework density 20.616540000000001
#
# number of rings (size 3 to 8) (size 9 to 14) (size 15 to 20)
#    0.000    1.571    2.857    0.429    6.000    4.571 
#    0.000    1.429    0.000    0.000    0.000    0.000 
#    0.000    0.000    0.000    0.000    0.000    0.000 
#
# Total GULP energy -347237.402524 kJ/mol
# GULP energy per Si atom -12401.335804 kJ/mol
# Density = 2.056962 g / cm^3
# Si number density = 20.616540 Si / 1000 Ang^3
#
#
#
# Elastic Constant Matrix: (Units=GPa)
#
#
# Indices 1 2 3 4 5 6 
#
# 1 167.0558 55.1968 82.2022 0.0000 0.0000 0.0000
# 2 55.1968 99.9982 61.3792 0.0000 0.0000 0.0000
# 3 82.2022 61.3792 175.0713 0.0000 0.0000 0.0000
# 4 0.0000 0.0000 0.0000 4.1281 0.0000 0.0000
# 5 0.0000 0.0000 0.0000 0.0000 14.3678 0.0000
# 6 0.0000 0.0000 0.0000 0.0000 0.0000 13.5407
#
#
#
# Elastic Compliance Matrix: (Units=1/GPa)
#
#
# Indices 1 2 3 4 5 6 
#
# 1 0.008362 -0.002810 -0.002941 0.000000 0.000000 0.000000
# 2 -0.002810 0.013687 -0.003479 0.000000 0.000000 0.000000
# 3 -0.002941 -0.003479 0.008312 0.000000 0.000000 0.000000
# 4 0.000000 0.000000 0.000000 0.242242 0.000000 0.000000
# 5 0.000000 0.000000 0.000000 0.000000 0.069600 0.000000
# 6 0.000000 0.000000 0.000000 0.000000 0.000000 0.073852
#
#
# Mechanical properties :
#
#
# Convention : Reuss Voigt Hill
#
# Bulk Modulus (GPa) = 84.02870 93.29796 88.66333
# Shear Modulus (GPa) = 11.40298 22.63046 17.01672
#
# Velocity S-wave (km/s) = 2.35436 3.31673 2.87608
# Velocity P-wave (km/s) = 6.94529 7.74724 7.35720
#
# Compressibility (1/GPa) = 0.01190070
#
# Stress axis : x y z
#
# Youngs Moduli (GPa) = 119.59349 73.06279 120.30117
#
# Poissons Ratio (x) = 0.20534 0.35378
# Poissons Ratio (y) = 0.33610 0.41852
# Poissons Ratio (z) = 0.35170 0.25418
#
# Static dielectric constant tensor:
#      x y z
#    x 3.709020 0.000000 0.000000 
#    y 0.000000 3.632500 0.000000 
#    z 0.000000 0.000000 3.979380 
# 
# 
# High freq. dielectric constant tensor:
#      x y z
#    x 1.813770 0.000000 0.000000 
#    y 0.000000 1.801800 0.000000 
#    z 0.000000 0.000000 1.820800 
# 
# From -- ./inp_files/49856.got.cif
#   From: 2010.06.25/outbox.cif.g09.slc.cpg/sg71_25_cif.got.tgz:49856.got - 2010.06.28 04:59:45.
