data_PCOD8291719
_publ_section_title
;
Structure prediction by ZEFSAII (Michael W. Deem and Ramdas Pophale) SiO2 
 PCOD8291719
Probable space group: I M M M
;
_chemical_formula_sum "Si O2"
_cell_formula_units_Z 72
_cell_length_a 9.046840
_cell_length_b 14.001804
_cell_length_c 28.422899
_cell_angle_alpha 90.000000
_cell_angle_beta 90.000000
_cell_angle_gamma 90.000000
_cell_volume 3600.387750
_symmetry_space_group_name_H-M "I M M M"
_symmetry_group_IT_number 71
_symmetry_cell_setting 'orthorhombic'
loop_
_space_group_symop_operation_xyz
x,y,z
-x,-y,z
x,-y,-z
-x,y,-z
-x,-y,-z
x,y,-z
-x,y,z
x,-y,z
1/2+x,1/2+y,1/2+z
1/2-x,1/2-y,1/2+z
1/2+x,1/2-y,1/2-z
1/2-x,1/2+y,1/2-z
1/2-x,1/2-y,1/2-z
1/2+x,1/2+y,1/2-z
1/2-x,1/2+y,1/2+z
1/2+x,1/2-y,1/2+z
loop_
_atom_site_type_symbol
_atom_site_label
_atom_site_fract_x
_atom_site_fract_y
_atom_site_fract_z
Si Si1 0.171446 0.888423 0.673870
Si Si2 0.824214 0.607580 0.000000
Si Si3 0.163821 0.886721 0.221931
Si Si4 0.326815 0.109380 0.870327
Si Si5 0.674674 0.780352 0.408695
O O1 0.212015 0.849647 0.726314
O O2 0.277054 0.834999 0.637990
O O3 0.000000 0.866674 0.662595
O O4 0.204987 0.000000 0.669314
O O5 0.765641 0.662604 0.954006
O O6 0.759553 0.500000 0.000000
O O7 0.000000 0.603801 0.000000
O O8 0.278997 0.855071 0.181812
O O9 0.000000 0.848224 0.208617
O O10 0.157043 0.000000 0.225643
O O11 0.500000 0.123500 0.874951
O O12 0.245751 0.174458 0.909129
O O13 0.279173 0.000000 0.879123
O O14 0.500000 0.770080 0.410071
#
# Coordination Sequence:
#
# PCOD8291719 Si02
#       5
#    16   8  16  16  16
#     4   9  18  33  53  80 115 149 182 225 273 322
#     4   9  20  40  62  85 112 138 171 219 270 321
#     4   8  15  30  52  77 108 147 186 223 265 314
#     4  10  21  37  56  79 110 146 183 226 272 319
#     4  11  22  36  58  83 107 141 183 227 275 326
#
# _framework density 19.997845000000002
#
# number of rings (size 3 to 8) (size 9 to 14) (size 15 to 20)
#    0.000    2.556    0.000    3.333    0.000    4.444 
#    0.000    5.000    0.000    7.333    0.000    0.000 
#    0.000    0.000    0.000    0.000    0.000    0.000 
#
# Total GULP energy -446358.680419 kJ/mol
# GULP energy per Si atom -12398.852234 kJ/mol
# Density = 1.995233 g / cm^3
# Si number density = 19.997845 Si / 1000 Ang^3
#
#
#
# Elastic Constant Matrix: (Units=GPa)
#
#
# Indices 1 2 3 4 5 6 
#
# 1 73.1367 42.4859 43.1302 0.0000 0.0000 0.0000
# 2 42.4859 106.5836 75.1676 0.0000 0.0000 0.0000
# 3 43.1302 75.1676 118.7290 0.0000 0.0000 0.0000
# 4 0.0000 0.0000 0.0000 36.0528 0.0000 0.0000
# 5 0.0000 0.0000 0.0000 0.0000 26.3060 0.0000
# 6 0.0000 0.0000 0.0000 0.0000 0.0000 30.5857
#
#
#
# Elastic Compliance Matrix: (Units=1/GPa)
#
#
# Indices 1 2 3 4 5 6 
#
# 1 0.018670 -0.004804 -0.003741 0.000000 0.000000 0.000000
# 2 -0.004804 0.018187 -0.009769 0.000000 0.000000 0.000000
# 3 -0.003741 -0.009769 0.015966 0.000000 0.000000 0.000000
# 4 0.000000 0.000000 0.000000 0.027737 0.000000 0.000000
# 5 0.000000 0.000000 0.000000 0.000000 0.038014 0.000000
# 6 0.000000 0.000000 0.000000 0.000000 0.000000 0.032695
#
#
# Mechanical properties :
#
#
# Convention : Reuss Voigt Hill
#
# Bulk Modulus (GPa) = 61.74586 68.89073 65.31830
# Shear Modulus (GPa) = 25.86728 27.76661 26.81694
#
# Velocity S-wave (km/s) = 3.60043 3.73027 3.66593
# Velocity P-wave (km/s) = 6.94460 7.28540 7.11704
#
# Compressibility (1/GPa) = 0.01619542
#
# Stress axis : x y z
#
# Youngs Moduli (GPa) = 53.56292 54.98505 62.63250
#
# Poissons Ratio (x) = 0.26414 0.23429
# Poissons Ratio (y) = 0.25731 0.61186
# Poissons Ratio (z) = 0.20036 0.53715
#
# Static dielectric constant tensor:
#      x y z
#    x 3.435890 0.000000 0.000000 
#    y 0.000000 3.791730 0.000000 
#    z 0.000000 0.000000 3.700370 
# 
# 
# High freq. dielectric constant tensor:
#      x y z
#    x 1.766460 0.000000 0.000000 
#    y 0.000000 1.788790 0.000000 
#    z 0.000000 0.000000 1.766140 
# 
# From -- ./inp_files/6009.got.cif
#   From: 2010.06.25/outbox.cif.g09.slc.cpg/sg71_4_cif.got.tgz:6009.got - 2010.06.28 04:59:45.
