data_PCOD8291722
_publ_section_title
;
Structure prediction by ZEFSAII (Michael W. Deem and Ramdas Pophale) SiO2 
 PCOD8291722
Probable space group: I M M M
;
_chemical_formula_sum "Si O2"
_cell_formula_units_Z 88
_cell_length_a 17.175645
_cell_length_b 8.656165
_cell_length_c 28.799451
_cell_angle_alpha 90.000000
_cell_angle_beta 90.000000
_cell_angle_gamma 90.000000
_cell_volume 4281.764630
_symmetry_space_group_name_H-M "I M M M"
_symmetry_group_IT_number 71
_symmetry_cell_setting 'orthorhombic'
loop_
_space_group_symop_operation_xyz
x,y,z
-x,-y,z
x,-y,-z
-x,y,-z
-x,-y,-z
x,y,-z
-x,y,z
x,-y,z
1/2+x,1/2+y,1/2+z
1/2-x,1/2-y,1/2+z
1/2+x,1/2-y,1/2-z
1/2-x,1/2+y,1/2-z
1/2-x,1/2-y,1/2-z
1/2+x,1/2+y,1/2-z
1/2-x,1/2+y,1/2+z
1/2+x,1/2-y,1/2+z
loop_
_atom_site_type_symbol
_atom_site_label
_atom_site_fract_x
_atom_site_fract_y
_atom_site_fract_z
Si Si1 0.816373 0.183564 0.052126
Si Si2 0.157471 0.316071 0.405242
Si Si3 0.088222 0.817056 0.139668
Si Si4 0.826409 0.682064 0.773650
Si Si5 0.000000 0.327077 0.554217
Si Si6 0.915184 0.317665 0.685944
O O1 0.734565 0.253957 0.070969
O O2 0.884102 0.234155 0.088005
O O3 0.811081 0.000000 0.050337
O O4 0.833475 0.247599 0.000000
O O5 0.161072 0.500000 0.411117
O O6 0.150866 0.263905 0.351080
O O7 0.079707 0.245849 0.429168
O O8 0.149757 0.750952 0.176691
O O9 0.000000 0.754519 0.147255
O O10 0.090448 0.000000 0.144286
O O11 0.816112 0.500000 0.778980
O O12 0.750000 0.750000 0.750000
O O13 0.894637 0.730618 0.738146
O O14 0.000000 0.500000 0.575556
O O15 0.000000 0.330870 0.500000
O O16 0.919998 0.500000 0.682576
O O17 0.000000 0.246687 0.673463
#
# Coordination Sequence:
#
# PCOD8291722 Si02
#       6
#    16  16  16  16   8  16
#     4   9  17  29  47  72 103 142 186 233 286 340
#     4   9  14  22  36  59  94 132 172 214 261 318
#     4  10  21  37  56  80 111 146 188 236 285 340
#     4  11  22  36  56  81 110 144 184 227 279 339
#     4   9  14  18  28  50  84 126 165 203 252 309
#     4   9  16  27  44  68  99 137 174 208 253 315
#
# _framework density 20.552275000000002
#
# number of rings (size 3 to 8) (size 9 to 14) (size 15 to 20)
#    0.000    2.455    0.909    2.727    0.000    6.545 
#    0.000    1.818    0.000    0.545    0.000    1.273 
#    0.000    0.000    0.000    1.636    0.000    1.818 
#
# Total GULP energy -545142.891850 kJ/mol
# GULP energy per Si atom -12389.611178 kJ/mol
# Density = 2.050550 g / cm^3
# Si number density = 20.552275 Si / 1000 Ang^3
#
#
#
# Elastic Constant Matrix: (Units=GPa)
#
#
# Indices 1 2 3 4 5 6 
#
# 1 131.0749 22.9856 64.8650 0.0000 0.0000 0.0000
# 2 22.9856 20.3165 21.1043 0.0000 0.0000 0.0000
# 3 64.8650 21.1043 166.0523 0.0000 0.0000 0.0000
# 4 0.0000 0.0000 0.0000 16.5576 0.0000 0.0000
# 5 0.0000 0.0000 0.0000 0.0000 35.1730 0.0000
# 6 0.0000 0.0000 0.0000 0.0000 0.0000 12.1375
#
#
#
# Elastic Compliance Matrix: (Units=1/GPa)
#
#
# Indices 1 2 3 4 5 6 
#
# 1 0.010705 -0.008949 -0.003044 0.000000 0.000000 0.000000
# 2 -0.008949 0.064189 -0.004662 0.000000 0.000000 0.000000
# 3 -0.003044 -0.004662 0.007804 0.000000 0.000000 0.000000
# 4 0.000000 0.000000 0.000000 0.060395 0.000000 0.000000
# 5 0.000000 0.000000 0.000000 0.000000 0.028431 0.000000
# 6 0.000000 0.000000 0.000000 0.000000 0.000000 0.082389
#
#
# Mechanical properties :
#
#
# Convention : Reuss Voigt Hill
#
# Bulk Modulus (GPa) = 20.24842 59.48372 39.86607
# Shear Modulus (GPa) = 16.46432 26.67288 21.56860
#
# Velocity S-wave (km/s) = 2.83343 3.60642 3.24304
# Velocity P-wave (km/s) = 4.53630 6.80787 5.78468
#
# Compressibility (1/GPa) = 0.04938658
#
# Stress axis : x y z
#
# Youngs Moduli (GPa) = 93.41321 15.57902 128.13998
#
# Poissons Ratio (x) = 0.13942 0.39011
# Poissons Ratio (y) = 0.83596 0.59742
# Poissons Ratio (z) = 0.28438 0.07263
#
# Static dielectric constant tensor:
#      x y z
#    x 3.903220 0.000000 0.000000 
#    y 0.000000 2.989520 0.000000 
#    z 0.000000 0.000000 4.726920 
# 
# 
# High freq. dielectric constant tensor:
#      x y z
#    x 1.814870 0.000000 0.000000 
#    y 0.000000 1.718300 0.000000 
#    z 0.000000 0.000000 1.823350 
# 
# From -- ./inp_files/70352.got.cif
#   From: 2010.06.25/outbox.cif.g09.slc.cpg/sg71_36_cif.got.tgz:70352.got - 2010.06.28 04:59:45.
