data_PCOD8291399
_publ_section_title
;
Structure prediction by ZEFSAII (Michael W. Deem and Ramdas Pophale) SiO2 
 PCOD8291399
Probable space group: I M M M
;
_chemical_formula_sum "Si O2"
_cell_formula_units_Z 88
_cell_length_a 13.278975
_cell_length_b 27.880388
_cell_length_c 13.155298
_cell_angle_alpha 90.000000
_cell_angle_beta 90.000000
_cell_angle_gamma 90.000000
_cell_volume 4870.393566
_symmetry_space_group_name_H-M "I M M M"
_symmetry_group_IT_number 71
_symmetry_cell_setting 'orthorhombic'
loop_
_space_group_symop_operation_xyz
x,y,z
-x,-y,z
x,-y,-z
-x,y,-z
-x,-y,-z
x,y,-z
-x,y,z
x,-y,z
1/2+x,1/2+y,1/2+z
1/2-x,1/2-y,1/2+z
1/2+x,1/2-y,1/2-z
1/2-x,1/2+y,1/2-z
1/2-x,1/2-y,1/2-z
1/2+x,1/2+y,1/2-z
1/2-x,1/2+y,1/2+z
1/2+x,1/2-y,1/2+z
loop_
_atom_site_type_symbol
_atom_site_label
_atom_site_fract_x
_atom_site_fract_y
_atom_site_fract_z
Si Si1 0.617564 0.360932 0.228980
Si Si2 0.388756 0.733052 0.119230
Si Si3 0.262383 0.945611 0.305238
Si Si4 0.387932 0.056733 0.500000
Si Si5 0.233682 0.678983 0.615153
Si Si6 0.117137 0.415464 0.614758
O O1 0.500000 0.369512 0.246970
O O2 0.641984 0.321770 0.142066
O O3 0.664862 0.411824 0.198484
O O4 0.665962 0.339623 0.330896
O O5 0.500000 0.742635 0.166237
O O6 0.309237 0.771600 0.164240
O O7 0.392704 0.740859 0.000000
O O8 0.331352 0.926285 0.397710
O O9 0.322076 0.945536 0.198492
O O10 0.226131 0.000000 0.325948
O O11 0.500000 0.079499 0.500000
O O12 0.396342 0.000000 0.500000
O O13 0.267022 0.687421 0.500000
O O14 0.144083 0.640444 0.625041
O O15 0.143896 0.433521 0.500000
O O16 0.000000 0.422529 0.636951
#
# Coordination Sequence:
#
# PCOD8291399 Si02
#       6
#    16  16  16   8  16  16
#     4  10  21  34  50  73 100 135 176 214 249 291
#     4   9  17  30  51  77 101 126 161 206 256 308
#     4  10  21  35  51  73 101 136 176 215 256 301
#     4   9  18  34  55  75  97 129 168 210 261 317
#     4   9  17  31  51  75 102 133 163 200 251 306
#     4   9  17  30  51  79 107 130 158 202 256 314
#
# _framework density 18.068355
#
# number of rings (size 3 to 8) (size 9 to 14) (size 15 to 20)
#    0.000    2.636    0.000    1.636    1.273    4.364 
#    0.000    0.909    0.000    2.727    0.000    5.091 
#    0.000    0.000    0.000    0.000    0.000    0.000 
#
# Total GULP energy -545419.773178 kJ/mol
# GULP energy per Si atom -12395.903936 kJ/mol
# Density = 1.802723 g / cm^3
# Si number density = 18.068355 Si / 1000 Ang^3
#
#
#
# Elastic Constant Matrix: (Units=GPa)
#
#
# Indices 1 2 3 4 5 6 
#
# 1 118.2545 62.0808 43.9441 0.0000 -0.0001 0.0000
# 2 62.0808 104.3548 30.2539 -0.0001 0.0001 0.0001
# 3 43.9441 30.2539 79.5174 -0.0015 0.0009 0.0002
# 4 0.0000 -0.0001 -0.0015 25.8777 0.0001 0.0001
# 5 -0.0001 0.0001 0.0009 0.0001 23.2969 0.0000
# 6 0.0000 0.0001 0.0002 0.0001 0.0000 23.1786
#
#
#
# Elastic Compliance Matrix: (Units=1/GPa)
#
#
# Indices 1 2 3 4 5 6 
#
# 1 0.013926 -0.006804 -0.005107 0.000000 0.000000 0.000000
# 2 -0.006804 0.014095 -0.001603 0.000000 0.000000 0.000000
# 3 -0.005107 -0.001603 0.016008 0.000001 -0.000001 0.000000
# 4 0.000000 0.000000 0.000001 0.038643 0.000000 0.000000
# 5 0.000000 0.000000 -0.000001 0.000000 0.042924 0.000000
# 6 0.000000 0.000000 0.000000 0.000000 0.000000 0.043143
#
#
# Mechanical properties :
#
#
# Convention : Reuss Voigt Hill
#
# Bulk Modulus (GPa) = 58.81876 63.85379 61.33628
# Shear Modulus (GPa) = 24.82188 25.52717 25.17453
#
# Velocity S-wave (km/s) = 3.71047 3.76282 3.73673
# Velocity P-wave (km/s) = 7.14009 7.36853 7.25521
#
# Compressibility (1/GPa) = 0.01700138
#
# Stress axis : x y z
#
# Youngs Moduli (GPa) = 71.80696 70.94709 62.46826
#
# Poissons Ratio (x) = 0.48273 0.31905
# Poissons Ratio (y) = 0.48858 0.10011
# Poissons Ratio (z) = 0.36675 0.11370
#
# Static dielectric constant tensor:
#      x y z
#    x 3.267950 0.000000 0.000000 
#    y 0.000000 3.309130 0.000000 
#    z 0.000000 0.000000 3.396820 
# 
# 
# High freq. dielectric constant tensor:
#      x y z
#    x 1.689020 0.000000 0.000000 
#    y 0.000000 1.696300 0.000000 
#    z 0.000000 0.000000 1.697350 
# 
# From -- ./inp_files/20267.got.cif
#   From: 2010.06.25/outbox.cif.g09.slc.cpg/sg71_11_cif.got.tgz:20267.got - 2010.06.28 04:59:45.
