data_PCOD8291302
_publ_section_title
;
Structure prediction by ZEFSAII (Michael W. Deem and Ramdas Pophale) SiO2 
 PCOD8291302
Probable space group: I M M M
;
_chemical_formula_sum "Si O2"
_cell_formula_units_Z 48
_cell_length_a 13.996195
_cell_length_b 7.543428
_cell_length_c 22.696442
_cell_angle_alpha 90.000000
_cell_angle_beta 90.000000
_cell_angle_gamma 90.000000
_cell_volume 2396.274215
_symmetry_space_group_name_H-M "I M M M"
_symmetry_group_IT_number 71
_symmetry_cell_setting 'orthorhombic'
loop_
_space_group_symop_operation_xyz
x,y,z
-x,-y,z
x,-y,-z
-x,y,-z
-x,-y,-z
x,y,-z
-x,y,z
x,-y,z
1/2+x,1/2+y,1/2+z
1/2-x,1/2-y,1/2+z
1/2+x,1/2-y,1/2-z
1/2-x,1/2+y,1/2-z
1/2-x,1/2-y,1/2-z
1/2+x,1/2+y,1/2-z
1/2-x,1/2+y,1/2+z
1/2+x,1/2-y,1/2+z
loop_
_atom_site_type_symbol
_atom_site_label
_atom_site_fract_x
_atom_site_fract_y
_atom_site_fract_z
Si Si1 0.260405 0.202318 0.432027
Si Si2 0.610164 0.201589 0.163165
Si Si3 0.612978 0.500000 0.749119
Si Si4 0.386747 0.500000 0.383177
O O1 0.234248 0.229573 0.500000
O O2 0.166973 0.259850 0.396377
O O3 0.350467 0.323493 0.415334
O O4 0.289033 0.000000 0.418222
O O5 0.500000 0.244103 0.148925
O O6 0.647977 0.325209 0.216187
O O7 0.624511 0.000000 0.183973
O O8 0.500000 0.500000 0.742763
O O9 0.656129 0.500000 0.683355
O O10 0.500000 0.500000 0.385470
#
# Coordination Sequence:
#
# PCOD8291302 Si02
#       4
#    16  16   8   8
#     4  11  24  41  61  90 123 158 206 251 296 361
#     4  10  20  37  62  93 127 159 191 239 300 365
#     4   9  20  39  61  90 125 157 198 242 298 368
#     4  11  25  44  64  85 118 163 207 259 303 342
#
# _framework density 20.031096999999999
#
# number of rings (size 3 to 8) (size 9 to 14) (size 15 to 20)
#    0.000    1.667    3.333    0.500    0.000    5.333 
#    0.000    8.333    0.000    0.000    0.000    0.000 
#    0.000    0.000    0.000    0.000    0.000    0.000 
#
# Total GULP energy -297691.035248 kJ/mol
# GULP energy per Si atom -12403.793135 kJ/mol
# Density = 1.998551 g / cm^3
# Si number density = 20.031097 Si / 1000 Ang^3
#
#
#
# Elastic Constant Matrix: (Units=GPa)
#
#
# Indices 1 2 3 4 5 6 
#
# 1 63.2592 38.8897 15.9669 0.0000 0.0000 0.0000
# 2 38.8897 175.1960 57.5677 0.0000 0.0000 0.0000
# 3 15.9669 57.5677 86.7163 0.0000 0.0000 0.0000
# 4 0.0000 0.0000 0.0000 31.0902 0.0000 0.0000
# 5 0.0000 0.0000 0.0000 0.0000 31.4516 0.0000
# 6 0.0000 0.0000 0.0000 0.0000 0.0000 19.1429
#
#
#
# Elastic Compliance Matrix: (Units=1/GPa)
#
#
# Indices 1 2 3 4 5 6 
#
# 1 0.018357 -0.003791 -0.000863 0.000000 0.000000 0.000000
# 2 -0.003791 0.008083 -0.004668 0.000000 0.000000 0.000000
# 3 -0.000863 -0.004668 0.014790 0.000000 0.000000 0.000000
# 4 0.000000 0.000000 0.000000 0.032164 0.000000 0.000000
# 5 0.000000 0.000000 0.000000 0.000000 0.031795 0.000000
# 6 0.000000 0.000000 0.000000 0.000000 0.000000 0.052239
#
#
# Mechanical properties :
#
#
# Convention : Reuss Voigt Hill
#
# Bulk Modulus (GPa) = 44.27770 61.11335 52.69552
# Shear Modulus (GPa) = 27.23297 30.52008 28.87652
#
# Velocity S-wave (km/s) = 3.69119 3.90761 3.80094
# Velocity P-wave (km/s) = 6.34972 7.13686 6.75476
#
# Compressibility (1/GPa) = 0.02258473
#
# Stress axis : x y z
#
# Youngs Moduli (GPa) = 54.47661 123.71105 67.61407
#
# Poissons Ratio (x) = 0.46900 0.05836
# Poissons Ratio (y) = 0.20653 0.31563
# Poissons Ratio (z) = 0.04702 0.57751
#
# Static dielectric constant tensor:
#      x y z
#    x 3.426620 0.000000 0.000000 
#    y 0.000000 4.056380 0.000000 
#    z 0.000000 0.000000 3.802100 
# 
# 
# High freq. dielectric constant tensor:
#      x y z
#    x 1.773130 0.000000 0.000000 
#    y 0.000000 1.801200 0.000000 
#    z 0.000000 0.000000 1.784850 
# 
# From -- ./inp_files/9205.got.cif
#   From: 2010.06.25/outbox.cif.g09.slc.cpg/sg71_5_cif.got.tgz:9205.got - 2010.06.28 04:59:45.
