data_PCOD8291822
_publ_section_title
;
Structure prediction by ZEFSAII (Michael W. Deem and Ramdas Pophale) SiO2 
 PCOD8291822
Probable space group: I M M M
;
_chemical_formula_sum "Si O2"
_cell_formula_units_Z 104
_cell_length_a 9.171891
_cell_length_b 28.035357
_cell_length_c 19.777099
_cell_angle_alpha 90.000000
_cell_angle_beta 90.000000
_cell_angle_gamma 90.000000
_cell_volume 5085.428623
_symmetry_space_group_name_H-M "I M M M"
_symmetry_group_IT_number 71
_symmetry_cell_setting 'orthorhombic'
loop_
_space_group_symop_operation_xyz
x,y,z
-x,-y,z
x,-y,-z
-x,y,-z
-x,-y,-z
x,y,-z
-x,y,z
x,-y,z
1/2+x,1/2+y,1/2+z
1/2-x,1/2-y,1/2+z
1/2+x,1/2-y,1/2-z
1/2-x,1/2+y,1/2-z
1/2-x,1/2-y,1/2-z
1/2+x,1/2+y,1/2-z
1/2-x,1/2+y,1/2+z
1/2+x,1/2-y,1/2+z
loop_
_atom_site_type_symbol
_atom_site_label
_atom_site_fract_x
_atom_site_fract_y
_atom_site_fract_z
Si Si1 0.661651 0.117590 0.799571
Si Si2 0.328500 0.444959 0.807964
Si Si3 0.668214 0.397460 0.578273
Si Si4 0.331004 0.371274 0.077370
Si Si5 0.664698 0.223556 0.807021
Si Si6 0.328677 0.773464 0.578680
Si Si7 0.330640 0.500000 0.572290
O O1 0.500000 0.095569 0.805700
O O2 0.756765 0.081729 0.755330
O O3 0.727928 0.131921 0.873472
O O4 0.658579 0.171172 0.772868
O O5 0.500000 0.444077 0.795157
O O6 0.273831 0.500000 0.813492
O O7 0.286223 0.416545 0.876325
O O8 0.712555 0.392742 0.500000
O O9 0.500000 0.383132 0.587843
O O10 0.704194 0.450643 0.609407
O O11 0.500000 0.357980 0.088318
O O12 0.235629 0.325439 0.097638
O O13 0.300415 0.386480 0.000000
O O14 0.500000 0.242666 0.817149
O O15 0.750000 0.250000 0.750000
O O16 0.750263 0.232022 0.877915
O O17 0.299591 0.761620 0.500000
O O18 0.500000 0.773715 0.594998
O O19 0.500000 0.500000 0.555314
O O20 0.248085 0.500000 0.500000
#
# Coordination Sequence:
#
# PCOD8291822 Si02
#       7
#    16  16  16  16  16  16   8
#     4  11  25  40  55  81 116 151 187 236 293 341
#     4  10  22  39  59  84 115 154 198 241 286 341
#     4   9  18  34  57  82 108 142 185 230 274 325
#     4   9  18  35  61  91 121 153 190 235 289 346
#     4  11  24  41  61  84 113 151 194 240 291 348
#     4  10  21  37  60  91 124 156 192 236 287 348
#     4   7  12  26  49  75  99 127 168 215 258 301
#
# _framework density 20.450586000000001
#
# number of rings (size 3 to 8) (size 9 to 14) (size 15 to 20)
#    0.000    2.231    0.000    3.231    1.077    8.000 
#    0.000    4.615    0.000    1.385    0.000    3.231 
#    0.000    0.000    0.000    0.000    0.000    0.000 
#
# Total GULP energy -644194.191718 kJ/mol
# GULP energy per Si atom -12388.349841 kJ/mol
# Density = 2.040404 g / cm^3
# Si number density = 20.450586 Si / 1000 Ang^3
#
#
#
# Elastic Constant Matrix: (Units=GPa)
#
#
# Indices 1 2 3 4 5 6 
#
# 1 87.7077 34.2679 45.8638 0.0000 0.0000 0.0000
# 2 34.2679 87.1250 35.6314 0.0001 0.0000 0.0000
# 3 45.8638 35.6314 104.8902 0.0003 -0.0002 0.0000
# 4 0.0000 0.0001 0.0003 35.1351 -0.0001 0.0000
# 5 0.0000 0.0000 -0.0002 -0.0001 23.4023 0.0000
# 6 0.0000 0.0000 0.0000 0.0000 0.0000 24.8387
#
#
#
# Elastic Compliance Matrix: (Units=1/GPa)
#
#
# Indices 1 2 3 4 5 6 
#
# 1 0.015873 -0.003954 -0.005598 0.000000 0.000000 0.000000
# 2 -0.003954 0.014315 -0.003134 0.000000 0.000000 0.000000
# 3 -0.005598 -0.003134 0.013046 0.000000 0.000000 0.000000
# 4 0.000000 0.000000 0.000000 0.028462 0.000000 0.000000
# 5 0.000000 0.000000 0.000000 0.000000 0.042731 0.000000
# 6 0.000000 0.000000 0.000000 0.000000 0.000000 0.040260
#
#
# Mechanical properties :
#
#
# Convention : Reuss Voigt Hill
#
# Bulk Modulus (GPa) = 55.98118 56.80544 56.39331
# Shear Modulus (GPa) = 26.88010 27.60587 27.24298
#
# Velocity S-wave (km/s) = 3.62939 3.67806 3.65380
# Velocity P-wave (km/s) = 6.70795 6.77309 6.74060
#
# Compressibility (1/GPa) = 0.01786315
#
# Stress axis : x y z
#
# Youngs Moduli (GPa) = 62.99837 69.85876 76.65267
#
# Poissons Ratio (x) = 0.27623 0.42906
# Poissons Ratio (y) = 0.24910 0.24021
# Poissons Ratio (z) = 0.35263 0.21892
#
# Static dielectric constant tensor:
#      x y z
#    x 3.647770 0.000000 0.000000 
#    y 0.000000 4.404670 0.000000 
#    z 0.000000 0.000000 4.210990 
# 
# 
# High freq. dielectric constant tensor:
#      x y z
#    x 1.787770 0.000000 0.000000 
#    y 0.000000 1.800650 0.000000 
#    z 0.000000 0.000000 1.803760 
# 
# From -- ./inp_files/50934.got.cif
#   From: 2010.06.25/outbox.cif.g09.slc.cpg/sg71_26_cif.got.tgz:50934.got - 2010.06.28 04:59:45.
