data_PCOD8291769
_publ_section_title
;
Structure prediction by ZEFSAII (Michael W. Deem and Ramdas Pophale) SiO2 
 PCOD8291769
Probable space group: I M M M
;
_chemical_formula_sum "Si O2"
_cell_formula_units_Z 64
_cell_length_a 23.871494
_cell_length_b 7.622956
_cell_length_c 18.842555
_cell_angle_alpha 90.000000
_cell_angle_beta 90.000000
_cell_angle_gamma 90.000000
_cell_volume 3428.805141
_symmetry_space_group_name_H-M "I M M M"
_symmetry_group_IT_number 71
_symmetry_cell_setting 'orthorhombic'
loop_
_space_group_symop_operation_xyz
x,y,z
-x,-y,z
x,-y,-z
-x,y,-z
-x,-y,-z
x,y,-z
-x,y,z
x,-y,z
1/2+x,1/2+y,1/2+z
1/2-x,1/2-y,1/2+z
1/2+x,1/2-y,1/2-z
1/2-x,1/2+y,1/2-z
1/2-x,1/2-y,1/2-z
1/2+x,1/2+y,1/2-z
1/2-x,1/2+y,1/2+z
1/2+x,1/2-y,1/2+z
loop_
_atom_site_type_symbol
_atom_site_label
_atom_site_fract_x
_atom_site_fract_y
_atom_site_fract_z
Si Si1 0.757143 0.500000 0.916212
Si Si2 0.935492 0.697169 0.657507
Si Si3 0.562656 0.705243 0.312606
Si Si4 0.131527 0.000000 0.415760
Si Si5 0.159931 0.798673 0.917381
O O1 0.694682 0.500000 0.884485
O O2 0.789413 0.324523 0.890967
O O3 0.752758 0.500000 0.000000
O O4 0.926338 0.500000 0.628998
O O5 0.918066 0.701869 0.740128
O O6 0.000000 0.756150 0.649821
O O7 0.898140 0.824811 0.610787
O O8 0.500000 0.765238 0.334610
O O9 0.564523 0.500000 0.297407
O O10 0.604103 0.758529 0.375819
O O11 0.130383 0.000000 0.500000
O O12 0.176811 0.000000 0.901610
O O13 0.146721 0.769295 0.000000
#
# Coordination Sequence:
#
# PCOD8291769 Si02
#       5
#     8  16  16   8  16
#     4   9  20  37  55  77 107 145 185 224 270 314
#     4  10  21  37  58  83 111 142 173 215 277 335
#     4   9  17  32  56  81 111 149 181 217 270 324
#     4  11  23  40  61  81 105 139 181 227 273 327
#     4   9  18  33  54  79 111 148 185 226 264 306
#
# _framework density 18.665393999999999
#
# number of rings (size 3 to 8) (size 9 to 14) (size 15 to 20)
#    0.000    2.500    1.250    0.375    1.750    3.000 
#    0.000    7.500    0.000    2.250    0.000    0.000 
#    0.000    0.000    0.000    0.000    0.000    0.000 
#
# Total GULP energy -396795.634637 kJ/mol
# GULP energy per Si atom -12399.863582 kJ/mol
# Density = 1.862291 g / cm^3
# Si number density = 18.665394 Si / 1000 Ang^3
#
#
#
# Elastic Constant Matrix: (Units=GPa)
#
#
# Indices 1 2 3 4 5 6 
#
# 1 139.5089 72.6002 66.3804 0.0000 0.0000 0.0000
# 2 72.6002 106.6846 46.6866 0.0000 0.0000 0.0000
# 3 66.3804 46.6866 71.8936 0.0000 0.0000 0.0000
# 4 0.0000 0.0000 0.0000 18.4705 0.0000 0.0000
# 5 0.0000 0.0000 0.0000 0.0000 8.8823 0.0000
# 6 0.0000 0.0000 0.0000 0.0000 0.0000 18.7597
#
#
#
# Elastic Compliance Matrix: (Units=1/GPa)
#
#
# Indices 1 2 3 4 5 6 
#
# 1 0.014964 -0.005779 -0.010063 0.000000 0.000000 0.000000
# 2 -0.005779 0.015327 -0.004617 0.000000 0.000000 0.000000
# 3 -0.010063 -0.004617 0.026199 0.000000 0.000000 0.000000
# 4 0.000000 0.000000 0.000000 0.054140 0.000000 0.000000
# 5 0.000000 0.000000 0.000000 0.000000 0.112583 0.000000
# 6 0.000000 0.000000 0.000000 0.000000 0.000000 0.053306
#
#
# Mechanical properties :
#
#
# Convention : Reuss Voigt Hill
#
# Bulk Modulus (GPa) = 64.22282 76.60239 70.41260
# Shear Modulus (GPa) = 15.49775 18.05052 16.77413
#
# Velocity S-wave (km/s) = 2.88461 3.11313 3.00104
# Velocity P-wave (km/s) = 6.75105 7.35194 7.05789
#
# Compressibility (1/GPa) = 0.01557079
#
# Stress axis : x y z
#
# Youngs Moduli (GPa) = 66.82809 65.24593 38.16911
#
# Poissons Ratio (x) = 0.37707 0.38411
# Poissons Ratio (y) = 0.38621 0.17622
# Poissons Ratio (z) = 0.67251 0.30123
#
# Static dielectric constant tensor:
#      x y z
#    x 3.598980 0.000000 0.000000 
#    y 0.000000 3.652260 0.000000 
#    z 0.000000 0.000000 3.224620 
# 
# 
# High freq. dielectric constant tensor:
#      x y z
#    x 1.717910 0.000000 0.000000 
#    y 0.000000 1.735960 0.000000 
#    z 0.000000 0.000000 1.706370 
# 
# From -- ./inp_files/9813.got.cif
#   From: 2010.06.25/outbox.cif.g09.slc.cpg/sg71_5_cif.got.tgz:9813.got - 2010.06.28 04:59:45.
