data_PCOD8291170
_publ_section_title
;
Structure prediction by ZEFSAII (Michael W. Deem and Ramdas Pophale) SiO2 
 PCOD8291170
Probable space group: I M M M
;
_chemical_formula_sum "Si O2"
_cell_formula_units_Z 104
_cell_length_a 27.126922
_cell_length_b 23.074980
_cell_length_c 8.474533
_cell_angle_alpha 90.000000
_cell_angle_beta 90.000000
_cell_angle_gamma 90.000000
_cell_volume 5304.660902
_symmetry_space_group_name_H-M "I M M M"
_symmetry_group_IT_number 71
_symmetry_cell_setting 'orthorhombic'
loop_
_space_group_symop_operation_xyz
x,y,z
-x,-y,z
x,-y,-z
-x,y,-z
-x,-y,-z
x,y,-z
-x,y,z
x,-y,z
1/2+x,1/2+y,1/2+z
1/2-x,1/2-y,1/2+z
1/2+x,1/2-y,1/2-z
1/2-x,1/2+y,1/2-z
1/2-x,1/2-y,1/2-z
1/2+x,1/2+y,1/2-z
1/2-x,1/2+y,1/2+z
1/2+x,1/2-y,1/2+z
loop_
_atom_site_type_symbol
_atom_site_label
_atom_site_fract_x
_atom_site_fract_y
_atom_site_fract_z
Si Si1 0.673642 0.790286 0.318800
Si Si2 0.424558 0.163105 0.815431
Si Si3 0.725226 0.676781 0.319535
Si Si4 0.311982 0.564409 0.179273
Si Si5 0.500000 0.247653 0.680023
Si Si6 0.414396 0.436401 0.322663
Si Si7 0.500000 0.934681 0.185035
Si Si8 0.000000 0.132947 0.319500
O O1 0.658336 0.797386 0.500000
O O2 0.633650 0.827625 0.218876
O O3 0.680474 0.721600 0.272772
O O4 0.727617 0.816421 0.291584
O O5 0.450972 0.211179 0.710469
O O6 0.449724 0.100946 0.766939
O O7 0.434522 0.173357 0.000000
O O8 0.740432 0.688798 0.500000
O O9 0.709462 0.610556 0.300803
O O10 0.291192 0.500000 0.218968
O O11 0.370400 0.564826 0.198599
O O12 0.299047 0.581603 0.000000
O O13 0.500000 0.270153 0.500000
O O14 0.500000 0.298401 0.807320
O O15 0.395447 0.422544 0.500000
O O16 0.439460 0.500000 0.318014
O O17 0.452473 0.388435 0.271725
O O18 0.500000 0.000000 0.262146
O O19 0.500000 0.943032 0.000000
O O20 0.000000 0.112242 0.500000
#
# Coordination Sequence:
#
# PCOD8291170 Si02
#       8
#    16  16  16  16   8  16   8   8
#     4  10  21  37  58  84 115 150 188 233 288 345
#     4  10  20  36  59  86 116 148 186 230 280 337
#     4  10  21  37  58  83 111 147 192 239 289 342
#     4  10  21  37  57  81 110 146 187 233 284 336
#     4  11  23  38  55  78 112 148 184 227 278 332
#     4  10  21  37  55  75 103 141 184 229 277 331
#     4   8  16  34  60  88 117 150 188 229 273 331
#     4  12  24  36  52  76 105 139 182 232 279 328
#
# _framework density 19.605401000000001
#
# number of rings (size 3 to 8) (size 9 to 14) (size 15 to 20)
#    0.000    1.923    0.000    4.385    2.154    4.615 
#    0.000    0.769    0.000   11.077    0.000    0.000 
#    0.000    0.000    0.000    0.000    0.000    0.000 
#
# Total GULP energy -644457.800121 kJ/mol
# GULP energy per Si atom -12393.419233 kJ/mol
# Density = 1.956078 g / cm^3
# Si number density = 19.605401 Si / 1000 Ang^3
#
#
#
# Elastic Constant Matrix: (Units=GPa)
#
#
# Indices 1 2 3 4 5 6 
#
# 1 77.5899 43.7904 17.7292 0.0000 0.0000 0.0000
# 2 43.7904 132.0119 28.3827 0.0000 0.0000 0.0000
# 3 17.7292 28.3827 64.7759 0.0000 0.0000 0.0000
# 4 0.0000 0.0000 0.0000 26.1962 0.0000 0.0000
# 5 0.0000 0.0000 0.0000 0.0000 31.3768 0.0000
# 6 0.0000 0.0000 0.0000 0.0000 0.0000 23.6700
#
#
#
# Elastic Compliance Matrix: (Units=1/GPa)
#
#
# Indices 1 2 3 4 5 6 
#
# 1 0.016159 -0.004868 -0.002290 0.000000 0.000000 0.000000
# 2 -0.004868 0.009829 -0.002975 0.000000 0.000000 0.000000
# 3 -0.002290 -0.002975 0.017368 0.000000 0.000000 0.000000
# 4 0.000000 0.000000 0.000000 0.038173 0.000000 0.000000
# 5 0.000000 0.000000 0.000000 0.000000 0.031871 0.000000
# 6 0.000000 0.000000 0.000000 0.000000 0.000000 0.042248
#
#
# Mechanical properties :
#
#
# Convention : Reuss Voigt Hill
#
# Bulk Modulus (GPa) = 43.30552 50.46472 46.88512
# Shear Modulus (GPa) = 27.23172 28.54695 27.88934
#
# Velocity S-wave (km/s) = 3.73096 3.82000 3.77574
# Velocity P-wave (km/s) = 6.37939 6.72700 6.55550
#
# Compressibility (1/GPa) = 0.02309175
#
# Stress axis : x y z
#
# Youngs Moduli (GPa) = 61.88581 101.73617 57.57743
#
# Poissons Ratio (x) = 0.49523 0.13184
# Poissons Ratio (y) = 0.30125 0.17127
# Poissons Ratio (z) = 0.14170 0.30262
#
# Static dielectric constant tensor:
#      x y z
#    x 3.406570 0.000000 0.000000 
#    y 0.000000 3.799700 0.000000 
#    z 0.000000 0.000000 3.432780 
# 
# 
# High freq. dielectric constant tensor:
#      x y z
#    x 1.746390 0.000000 0.000000 
#    y 0.000000 1.763240 0.000000 
#    z 0.000000 0.000000 1.766400 
# 
# From -- ./inp_files/15089.got.cif
#   From: 2010.06.25/outbox.cif.g09.slc.cpg/sg71_8_cif.got.tgz:15089.got - 2010.06.28 04:59:45.
