data_PCOD8291174
_publ_section_title
;
Structure prediction by ZEFSAII (Michael W. Deem and Ramdas Pophale) SiO2 
 PCOD8291174
Probable space group: I M M M
;
_chemical_formula_sum "Si O2"
_cell_formula_units_Z 72
_cell_length_a 15.532033
_cell_length_b 8.581403
_cell_length_c 26.849970
_cell_angle_alpha 90.000000
_cell_angle_beta 90.000000
_cell_angle_gamma 90.000000
_cell_volume 3578.742140
_symmetry_space_group_name_H-M "I M M M"
_symmetry_group_IT_number 71
_symmetry_cell_setting 'orthorhombic'
loop_
_space_group_symop_operation_xyz
x,y,z
-x,-y,z
x,-y,-z
-x,y,-z
-x,-y,-z
x,y,-z
-x,y,z
x,-y,z
1/2+x,1/2+y,1/2+z
1/2-x,1/2-y,1/2+z
1/2+x,1/2-y,1/2-z
1/2-x,1/2+y,1/2-z
1/2-x,1/2-y,1/2-z
1/2+x,1/2+y,1/2-z
1/2-x,1/2+y,1/2+z
1/2+x,1/2-y,1/2+z
loop_
_atom_site_type_symbol
_atom_site_label
_atom_site_fract_x
_atom_site_fract_y
_atom_site_fract_z
Si Si1 0.841604 0.681593 0.057923
Si Si2 0.331073 0.815826 0.778110
Si Si3 0.000000 0.684917 0.444259
Si Si4 0.500000 0.319102 0.384370
Si Si5 0.173984 0.684762 0.392275
Si Si6 0.000000 0.315982 0.775641
O O1 0.859721 0.500000 0.066777
O O2 0.749881 0.726451 0.080054
O O3 0.915503 0.779578 0.084428
O O4 0.842525 0.724680 0.000000
O O5 0.250000 0.750000 0.750000
O O6 0.327486 0.762266 0.835126
O O7 0.416216 0.746292 0.751885
O O8 0.330525 0.000000 0.774160
O O9 0.915202 0.743858 0.415988
O O10 0.000000 0.500000 0.445336
O O11 0.000000 0.753703 0.500000
O O12 0.500000 0.500000 0.371233
O O13 0.500000 0.225093 0.333333
O O14 0.186679 0.500000 0.398327
O O15 0.000000 0.500000 0.769878
#
# Coordination Sequence:
#
# PCOD8291174 Si02
#       6
#    16  16   8   8  16   8
#     4  11  24  41  60  84 116 153 191 234 290 351
#     4  10  21  36  56  82 112 148 188 230 276 330
#     4   9  17  31  55  85 114 145 182 227 279 330
#     4  12  25  40  61  88 114 145 192 243 289 343
#     4  10  20  36  59  87 117 150 192 238 282 332
#     4  10  21  39  60  83 118 158 190 228 286 345
#
# _framework density 20.1188
#
# number of rings (size 3 to 8) (size 9 to 14) (size 15 to 20)
#    0.000    1.667    0.000    4.667    0.000   12.000 
#    0.000    0.556    0.000    4.667    0.000    0.000 
#    0.000    0.000    0.000    0.000    0.000    0.000 
#
# Total GULP energy -446558.466555 kJ/mol
# GULP energy per Si atom -12404.401849 kJ/mol
# Density = 2.007301 g / cm^3
# Si number density = 20.118800 Si / 1000 Ang^3
#
#
#
# Elastic Constant Matrix: (Units=GPa)
#
#
# Indices 1 2 3 4 5 6 
#
# 1 254.6893 17.6495 146.1619 0.0000 0.0000 0.0000
# 2 17.6495 19.8169 16.2843 0.0000 0.0000 0.0000
# 3 146.1619 16.2843 225.1380 0.0000 0.0000 0.0000
# 4 0.0000 0.0000 0.0000 27.1399 0.0000 0.0000
# 5 0.0000 0.0000 0.0000 0.0000 49.1425 0.0000
# 6 0.0000 0.0000 0.0000 0.0000 0.0000 10.5383
#
#
#
# Elastic Compliance Matrix: (Units=1/GPa)
#
#
# Indices 1 2 3 4 5 6 
#
# 1 0.006365 -0.002417 -0.003957 0.000000 0.000000 0.000000
# 2 -0.002417 0.054569 -0.002378 0.000000 0.000000 0.000000
# 3 -0.003957 -0.002378 0.007183 0.000000 0.000000 0.000000
# 4 0.000000 0.000000 0.000000 0.036846 0.000000 0.000000
# 5 0.000000 0.000000 0.000000 0.000000 0.020349 0.000000
# 6 0.000000 0.000000 0.000000 0.000000 0.000000 0.094892
#
#
# Mechanical properties :
#
#
# Convention : Reuss Voigt Hill
#
# Bulk Modulus (GPa) = 19.75812 95.53729 57.64770
# Shear Modulus (GPa) = 19.64034 38.66737 29.15385
#
# Velocity S-wave (km/s) = 3.12784 4.38876 3.81081
# Velocity P-wave (km/s) = 4.78399 8.55987 6.93390
#
# Compressibility (1/GPa) = 0.05061210
#
# Stress axis : x y z
#
# Youngs Moduli (GPa) = 157.11195 18.32556 139.22022
#
# Poissons Ratio (x) = 0.04429 0.55094
# Poissons Ratio (y) = 0.37972 0.33106
# Poissons Ratio (z) = 0.62175 0.04358
#
# Static dielectric constant tensor:
#      x y z
#    x 3.895740 0.000000 0.000000 
#    y 0.000000 3.419790 0.000000 
#    z 0.000000 0.000000 3.841840 
# 
# 
# High freq. dielectric constant tensor:
#      x y z
#    x 1.807550 0.000000 0.000000 
#    y 0.000000 1.762770 0.000000 
#    z 0.000000 0.000000 1.806210 
# 
# From -- ./inp_files/14377.got.cif
#   From: 2010.06.25/outbox.cif.g09.slc.cpg/sg71_8_cif.got.tgz:14377.got - 2010.06.28 04:59:45.
