data_PCOD8291202
_publ_section_title
;
Structure prediction by ZEFSAII (Michael W. Deem and Ramdas Pophale) SiO2 
 PCOD8291202
Probable space group: I M M M
;
_chemical_formula_sum "Si O2"
_cell_formula_units_Z 56
_cell_length_a 18.076326
_cell_length_b 18.403588
_cell_length_c 7.853343
_cell_angle_alpha 90.000000
_cell_angle_beta 90.000000
_cell_angle_gamma 90.000000
_cell_volume 2612.565775
_symmetry_space_group_name_H-M "I M M M"
_symmetry_group_IT_number 71
_symmetry_cell_setting 'orthorhombic'
loop_
_space_group_symop_operation_xyz
x,y,z
-x,-y,z
x,-y,-z
-x,y,-z
-x,-y,-z
x,y,-z
-x,y,z
x,-y,z
1/2+x,1/2+y,1/2+z
1/2-x,1/2-y,1/2+z
1/2+x,1/2-y,1/2-z
1/2-x,1/2+y,1/2-z
1/2-x,1/2-y,1/2-z
1/2+x,1/2+y,1/2-z
1/2-x,1/2+y,1/2+z
1/2+x,1/2-y,1/2+z
loop_
_atom_site_type_symbol
_atom_site_label
_atom_site_fract_x
_atom_site_fract_y
_atom_site_fract_z
Si Si1 0.082249 0.312654 0.300977
Si Si2 0.649961 0.338606 0.193591
Si Si3 0.084918 0.077381 0.000000
Si Si4 0.206616 0.416678 0.298293
O O1 0.069433 0.313834 0.500000
O O2 0.135391 0.244959 0.253256
O O3 0.125636 0.385999 0.246254
O O4 0.000000 0.308941 0.214019
O O5 0.602207 0.383782 0.324663
O O6 0.734900 0.363342 0.208240
O O7 0.622734 0.352449 0.000000
O O8 0.000000 0.062012 0.000000
O O9 0.128218 0.000000 0.000000
O O10 0.220199 0.411344 0.500000
O O11 0.212878 0.500000 0.234376
#
# Coordination Sequence:
#
# PCOD8291202 Si02
#       4
#    16  16   8  16
#     4   9  19  36  59  89 122 159 206 255 304 363
#     4  11  22  39  64  88 121 161 204 248 303 358
#     4  11  24  40  60  90 124 158 202 251 302 364
#     4  10  20  36  60  89 123 162 203 252 307 362
#
# _framework density 21.434868000000002
#
# number of rings (size 3 to 8) (size 9 to 14) (size 15 to 20)
#    0.000    1.857    1.429    2.571    0.000    4.571 
#    2.571    4.286    0.000    0.000    0.000    2.000 
#    0.000    0.000    0.000    0.000    0.000    0.000 
#
# Total GULP energy -346963.980507 kJ/mol
# GULP energy per Si atom -12391.570732 kJ/mol
# Density = 2.138608 g / cm^3
# Si number density = 21.434868 Si / 1000 Ang^3
#
#
#
# Elastic Constant Matrix: (Units=GPa)
#
#
# Indices 1 2 3 4 5 6 
#
# 1 141.6381 78.5427 13.7859 0.0000 0.0000 0.0000
# 2 78.5427 136.3368 24.0173 0.0000 0.0000 0.0000
# 3 13.7859 24.0173 82.0169 0.0000 0.0000 0.0000
# 4 0.0000 0.0000 0.0000 24.9735 0.0000 0.0000
# 5 0.0000 0.0000 0.0000 0.0000 18.7954 0.0000
# 6 0.0000 0.0000 0.0000 0.0000 0.0000 32.9724
#
#
#
# Elastic Compliance Matrix: (Units=1/GPa)
#
#
# Indices 1 2 3 4 5 6 
#
# 1 0.010375 -0.005978 0.000007 0.000000 0.000000 0.000000
# 2 -0.005978 0.011178 -0.002269 0.000000 0.000000 0.000000
# 3 0.000007 -0.002269 0.012856 0.000000 0.000000 0.000000
# 4 0.000000 0.000000 0.000000 0.040042 0.000000 0.000000
# 5 0.000000 0.000000 0.000000 0.000000 0.053204 0.000000
# 6 0.000000 0.000000 0.000000 0.000000 0.000000 0.030328
#
#
# Mechanical properties :
#
#
# Convention : Reuss Voigt Hill
#
# Bulk Modulus (GPa) = 55.77527 65.85372 60.81450
# Shear Modulus (GPa) = 27.71010 31.59132 29.65071
#
# Velocity S-wave (km/s) = 3.59940 3.84321 3.72330
# Velocity P-wave (km/s) = 6.58419 7.10515 6.84962
#
# Compressibility (1/GPa) = 0.01792909
#
# Stress axis : x y z
#
# Youngs Moduli (GPa) = 96.39014 89.45968 77.78591
#
# Poissons Ratio (x) = 0.53478 -0.00052
# Poissons Ratio (y) = 0.57621 0.17646
# Poissons Ratio (z) = -0.00065 0.20294
#
# Static dielectric constant tensor:
#      x y z
#    x 4.098320 0.000000 0.000000 
#    y 0.000000 4.084740 0.000000 
#    z 0.000000 0.000000 3.646030 
# 
# 
# High freq. dielectric constant tensor:
#      x y z
#    x 1.846790 0.000000 0.000000 
#    y 0.000000 1.846380 0.000000 
#    z 0.000000 0.000000 1.818840 
# 
# From -- ./inp_files/4999.got.cif
#   From: 2010.06.25/outbox.cif.g09.slc.cpg/sg71_3_cif.got.tgz:4999.got - 2010.06.28 04:59:45.
