data_PCOD8291707
_publ_section_title
;
Structure prediction by ZEFSAII (Michael W. Deem and Ramdas Pophale) SiO2 
 PCOD8291707
Probable space group: I M M M
;
_chemical_formula_sum "Si O2"
_cell_formula_units_Z 72
_cell_length_a 15.385111
_cell_length_b 29.526410
_cell_length_c 7.921739
_cell_angle_alpha 90.000000
_cell_angle_beta 90.000000
_cell_angle_gamma 90.000000
_cell_volume 3598.585365
_symmetry_space_group_name_H-M "I M M M"
_symmetry_group_IT_number 71
_symmetry_cell_setting 'orthorhombic'
loop_
_space_group_symop_operation_xyz
x,y,z
-x,-y,z
x,-y,-z
-x,y,-z
-x,-y,-z
x,y,-z
-x,y,z
x,-y,z
1/2+x,1/2+y,1/2+z
1/2-x,1/2-y,1/2+z
1/2+x,1/2-y,1/2-z
1/2-x,1/2+y,1/2-z
1/2-x,1/2-y,1/2-z
1/2+x,1/2+y,1/2-z
1/2-x,1/2+y,1/2+z
1/2+x,1/2-y,1/2+z
loop_
_atom_site_type_symbol
_atom_site_label
_atom_site_fract_x
_atom_site_fract_y
_atom_site_fract_z
Si Si1 0.787413 0.949072 0.310536
Si Si2 0.593563 0.552852 0.500000
Si Si3 0.901094 0.187283 0.300751
Si Si4 0.732172 0.138791 0.194489
Si Si5 0.903605 0.289152 0.299422
O O1 0.827132 0.947884 0.500000
O O2 0.857966 0.933778 0.172144
O O3 0.715439 0.909368 0.291092
O O4 0.750770 0.000000 0.273331
O O5 0.579695 0.500000 0.500000
O O6 0.500000 0.577387 0.500000
O O7 0.887877 0.183580 0.500000
O O8 0.832177 0.154614 0.211450
O O9 0.882712 0.238454 0.235961
O O10 0.000000 0.173338 0.252051
O O11 0.667102 0.175871 0.275713
O O12 0.709685 0.130876 0.000000
O O13 0.899753 0.289145 0.500000
O O14 0.000000 0.303681 0.238290
#
# Coordination Sequence:
#
# PCOD8291707 Si02
#       5
#    16   8  16  16  16
#     4  10  21  37  55  76 106 143 182 225 274 324
#     4   9  18  34  54  76 103 135 177 225 268 318
#     4   9  18  33  51  73 106 145 181 218 263 321
#     4  11  20  31  53  80 106 140 182 228 273 322
#     4   8  16  32  53  77 105 139 180 225 274 326
#
# _framework density 20.007860999999998
#
# number of rings (size 3 to 8) (size 9 to 14) (size 15 to 20)
#    0.000    2.556    1.111    2.667    0.000    1.778 
#    0.000    3.333    0.000    6.000    0.000    4.667 
#    0.000    0.000    0.000    0.000    0.000    0.000 
#
# Total GULP energy -446044.048170 kJ/mol
# GULP energy per Si atom -12390.112449 kJ/mol
# Density = 1.996232 g / cm^3
# Si number density = 20.007861 Si / 1000 Ang^3
#
#
#
# Elastic Constant Matrix: (Units=GPa)
#
#
# Indices 1 2 3 4 5 6 
#
# 1 70.5420 50.5420 6.2102 -0.0073 -0.0101 0.0002
# 2 50.5420 139.5043 17.1449 -0.0068 -0.0074 0.0019
# 3 6.2102 17.1449 73.3773 0.0095 -0.0221 -0.0040
# 4 -0.0073 -0.0068 0.0095 24.7627 -0.0102 0.0000
# 5 -0.0101 -0.0074 -0.0221 -0.0102 15.0246 0.0035
# 6 0.0002 0.0019 -0.0040 0.0000 0.0035 17.3919
#
#
#
# Elastic Compliance Matrix: (Units=1/GPa)
#
#
# Indices 1 2 3 4 5 6 
#
# 1 0.019146 -0.006937 0.000000 0.000004 0.000009 0.000001
# 2 -0.006937 0.009893 -0.001725 0.000001 -0.000002 -0.000001
# 3 0.000000 -0.001725 0.014031 -0.000006 0.000020 0.000003
# 4 0.000004 0.000001 -0.000006 0.040383 0.000027 0.000000
# 5 0.000009 -0.000002 0.000020 0.000027 0.066558 -0.000014
# 6 0.000001 -0.000001 0.000003 0.000000 -0.000014 0.057498
#
#
# Mechanical properties :
#
#
# Convention : Reuss Voigt Hill
#
# Bulk Modulus (GPa) = 38.83676 47.91309 43.37493
# Shear Modulus (GPa) = 21.42119 25.40424 23.41272
#
# Velocity S-wave (km/s) = 3.27561 3.56717 3.42449
# Velocity P-wave (km/s) = 5.81026 6.40042 6.11246
#
# Compressibility (1/GPa) = 0.02574880
#
# Stress axis : x y z
#
# Youngs Moduli (GPa) = 52.23080 101.07889 71.27015
#
# Poissons Ratio (x) = 0.70113 -0.00003
# Poissons Ratio (y) = 0.36230 0.12291
# Poissons Ratio (z) = -0.00002 0.17431
#
# Static dielectric constant tensor:
#      x y z
#    x 3.696440 0.000000 0.000060 
#    y 0.000000 3.974130 -0.000060 
#    z 0.000060 -0.000060 3.439830 
# 
# 
# High freq. dielectric constant tensor:
#      x y z
#    x 1.740240 0.000000 0.000000 
#    y 0.000000 1.795300 0.000000 
#    z 0.000000 0.000000 1.769410 
# 
# From -- ./inp_files/8189.got.cif
#   From: 2010.06.25/outbox.cif.g09.slc.cpg/sg71_5_cif.got.tgz:8189.got - 2010.06.28 04:59:45.
