data_PCOD8291465
_publ_section_title
;
Structure prediction by ZEFSAII (Michael W. Deem and Ramdas Pophale) SiO2 
 PCOD8291465
Probable space group: I M M M
;
_chemical_formula_sum "Si O2"
_cell_formula_units_Z 96
_cell_length_a 20.321439
_cell_length_b 27.988936
_cell_length_c 8.877620
_cell_angle_alpha 90.000000
_cell_angle_beta 90.000000
_cell_angle_gamma 90.000000
_cell_volume 5049.372360
_symmetry_space_group_name_H-M "I M M M"
_symmetry_group_IT_number 71
_symmetry_cell_setting 'orthorhombic'
loop_
_space_group_symop_operation_xyz
x,y,z
-x,-y,z
x,-y,-z
-x,y,-z
-x,-y,-z
x,y,-z
-x,y,z
x,-y,z
1/2+x,1/2+y,1/2+z
1/2-x,1/2-y,1/2+z
1/2+x,1/2-y,1/2-z
1/2-x,1/2+y,1/2-z
1/2-x,1/2-y,1/2-z
1/2+x,1/2+y,1/2-z
1/2-x,1/2+y,1/2+z
1/2+x,1/2-y,1/2+z
loop_
_atom_site_type_symbol
_atom_site_label
_atom_site_fract_x
_atom_site_fract_y
_atom_site_fract_z
Si Si1 0.806139 0.112772 0.678406
Si Si2 0.927481 0.053532 0.320836
Si Si3 0.309830 0.278463 0.178599
Si Si4 0.423838 0.778557 0.675993
Si Si5 0.689941 0.054412 0.175880
Si Si6 0.425411 0.123310 0.826713
O O1 0.805984 0.109916 0.500000
O O2 0.873001 0.089495 0.744902
O O3 0.802720 0.167128 0.733848
O O4 0.744606 0.083577 0.736977
O O5 0.926455 0.054220 0.500000
O O6 0.000000 0.069352 0.263335
O O7 0.911505 0.000000 0.263447
O O8 0.250000 0.250000 0.250000
O O9 0.379936 0.259295 0.234754
O O10 0.306442 0.273844 0.000000
O O11 0.409567 0.773425 0.500000
O O12 0.500000 0.768356 0.715912
O O13 0.403856 0.831932 0.725108
O O14 0.619497 0.077955 0.212427
O O15 0.688111 0.000000 0.234189
O O16 0.706013 0.056601 0.000000
O O17 0.500000 0.107799 0.791075
O O18 0.417130 0.139085 0.000000
#
# Coordination Sequence:
#
# PCOD8291465 Si02
#       6
#    16  16  16  16  16  16
#     4  10  21  35  53  77 102 133 174 217 259 307
#     4   8  14  27  49  75 100 125 156 198 246 293
#     4  11  23  37  55  79 107 141 182 227 273 321
#     4  10  21  37  57  81 110 143 179 221 270 325
#     4  10  21  35  52  77 108 140 173 213 264 319
#     4   9  18  34  56  79 104 138 179 220 262 311
#
# _framework density 19.012264999999999
#
# number of rings (size 3 to 8) (size 9 to 14) (size 15 to 20)
#    0.000    2.333    0.000    3.000    0.000    7.667 
#    0.000    3.333    0.000    0.500    0.000    5.833 
#    0.000    0.000    0.000    0.000    0.000    0.000 
#
# Total GULP energy -595248.172020 kJ/mol
# GULP energy per Si atom -12401.003584 kJ/mol
# Density = 1.896899 g / cm^3
# Si number density = 19.012265 Si / 1000 Ang^3
#
#
#
# Elastic Constant Matrix: (Units=GPa)
#
#
# Indices 1 2 3 4 5 6 
#
# 1 128.9781 89.0019 27.6495 0.0000 0.0000 0.0000
# 2 89.0019 161.7455 34.7064 0.0000 0.0000 0.0000
# 3 27.6495 34.7064 34.9161 0.0000 0.0000 0.0000
# 4 0.0000 0.0000 0.0000 25.0900 0.0000 0.0000
# 5 0.0000 0.0000 0.0000 0.0000 31.1817 0.0000
# 6 0.0000 0.0000 0.0000 0.0000 0.0000 42.3152
#
#
#
# Elastic Compliance Matrix: (Units=1/GPa)
#
#
# Indices 1 2 3 4 5 6 
#
# 1 0.012930 -0.006251 -0.004025 0.000000 0.000000 0.000000
# 2 -0.006251 0.010881 -0.005865 0.000000 0.000000 0.000000
# 3 -0.004025 -0.005865 0.037658 0.000000 0.000000 0.000000
# 4 0.000000 0.000000 0.000000 0.039856 0.000000 0.000000
# 5 0.000000 0.000000 0.000000 0.000000 0.032070 0.000000
# 6 0.000000 0.000000 0.000000 0.000000 0.000000 0.023632
#
#
# Mechanical properties :
#
#
# Convention : Reuss Voigt Hill
#
# Bulk Modulus (GPa) = 34.26435 69.81728 52.04082
# Shear Modulus (GPa) = 25.12072 31.33616 28.22844
#
# Velocity S-wave (km/s) = 3.63890 4.06422 3.85742
# Velocity P-wave (km/s) = 5.97635 7.66980 6.87541
#
# Compressibility (1/GPa) = 0.02918485
#
# Stress axis : x y z
#
# Youngs Moduli (GPa) = 77.34146 91.90555 26.55483
#
# Poissons Ratio (x) = 0.57449 0.10689
# Poissons Ratio (y) = 0.48345 0.15575
# Poissons Ratio (z) = 0.31133 0.53906
#
# Static dielectric constant tensor:
#      x y z
#    x 3.752850 0.000000 0.000000 
#    y 0.000000 3.670820 0.000000 
#    z 0.000000 0.000000 3.281100 
# 
# 
# High freq. dielectric constant tensor:
#      x y z
#    x 1.754600 0.000000 0.000000 
#    y 0.000000 1.741770 0.000000 
#    z 0.000000 0.000000 1.717980 
# 
# From -- ./inp_files/10949.got.cif
#   From: 2010.06.25/outbox.cif.g09.slc.cpg/sg71_6_cif.got.tgz:10949.got - 2010.06.28 04:59:45.
