data_PCOD8291031
_publ_section_title
;
Structure prediction by ZEFSAII (Michael W. Deem and Ramdas Pophale) SiO2 
 PCOD8291031
Probable space group: I M M M
;
_chemical_formula_sum "Si O2"
_cell_formula_units_Z 80
_cell_length_a 9.794861
_cell_length_b 23.882673
_cell_length_c 17.063830
_cell_angle_alpha 90.000000
_cell_angle_beta 90.000000
_cell_angle_gamma 90.000000
_cell_volume 3991.698450
_symmetry_space_group_name_H-M "I M M M"
_symmetry_group_IT_number 71
_symmetry_cell_setting 'orthorhombic'
loop_
_space_group_symop_operation_xyz
x,y,z
-x,-y,z
x,-y,-z
-x,y,-z
-x,-y,-z
x,y,-z
-x,y,z
x,-y,z
1/2+x,1/2+y,1/2+z
1/2-x,1/2-y,1/2+z
1/2+x,1/2-y,1/2-z
1/2-x,1/2+y,1/2-z
1/2-x,1/2-y,1/2-z
1/2+x,1/2+y,1/2-z
1/2-x,1/2+y,1/2+z
1/2+x,1/2-y,1/2+z
loop_
_atom_site_type_symbol
_atom_site_label
_atom_site_fract_x
_atom_site_fract_y
_atom_site_fract_z
Si Si1 0.500000 0.207360 0.145139
Si Si2 0.500000 0.814114 0.680520
Si Si3 0.500000 0.334515 0.147839
Si Si4 0.734096 0.857867 0.088688
Si Si5 0.270103 0.118379 0.410121
Si Si6 0.000000 0.822113 0.178128
Si Si7 0.000000 0.561431 0.406532
Si Si8 0.342381 0.500000 0.907045
O O1 0.500000 0.172793 0.227151
O O2 0.500000 0.270296 0.167863
O O3 0.364740 0.195869 0.094210
O O4 0.370048 0.845120 0.643433
O O5 0.500000 0.746119 0.668207
O O6 0.625592 0.351895 0.094868
O O7 0.500000 0.353911 0.238033
O O8 0.639397 0.908526 0.121708
O O9 0.867056 0.848198 0.139084
O O10 0.781345 0.868134 0.000000
O O11 0.322691 0.118794 0.500000
O O12 0.245042 0.054471 0.379819
O O13 0.000000 0.500000 0.369920
O O14 0.000000 0.561664 0.500000
O O15 0.500000 0.500000 0.873477
O O16 0.354477 0.500000 0.000000
#
# Coordination Sequence:
#
# PCOD8291031 Si02
#       8
#     8   8   8  16  16   8   8   8
#     4  10  21  38  56  80 115 154 197 229 282 349
#     4  11  24  38  55  83 123 160 180 231 296 343
#     4  11  22  36  59  80 110 162 194 230 281 345
#     4  10  20  35  60  84 110 149 187 238 286 330
#     4  11  22  37  61  87 113 151 198 242 285 338
#     4  11  23  38  54  83 127 156 181 229 296 349
#     4   8  16  34  60  84 105 138 185 229 277 334
#     4   9  18  37  61  85 113 147 190 246 297 330
#
# _framework density 20.041594
#
# number of rings (size 3 to 8) (size 9 to 14) (size 15 to 20)
#    0.000    1.800    1.000    4.200    0.000    8.400 
#    0.000    2.000   22.000    2.400    0.000    0.000 
#    0.000    0.000    0.000    0.000    0.000    0.000 
#
# Total GULP energy -495546.167797 kJ/mol
# GULP energy per Si atom -12388.654195 kJ/mol
# Density = 1.999598 g / cm^3
# Si number density = 20.041594 Si / 1000 Ang^3
#
#
#
# Elastic Constant Matrix: (Units=GPa)
#
#
# Indices 1 2 3 4 5 6 
#
# 1 108.2549 40.9807 -1.4984 0.0000 0.0000 0.0000
# 2 40.9807 114.9872 28.9107 0.0000 0.0000 0.0000
# 3 -1.4984 28.9107 40.8493 -0.0001 0.0000 0.0000
# 4 0.0000 0.0000 -0.0001 17.1726 0.0000 -0.0001
# 5 0.0000 0.0000 0.0000 0.0000 31.3284 -0.0001
# 6 0.0000 0.0000 0.0000 -0.0001 -0.0001 -326.5947
#
#
#
# Elastic Compliance Matrix: (Units=1/GPa)
#
#
# Indices 1 2 3 4 5 6 
#
# 1 0.011173 -0.004969 0.003927 0.000000 0.000000 0.000000
# 2 -0.004969 0.012789 -0.009234 0.000000 0.000000 0.000000
# 3 0.003927 -0.009234 0.031159 0.000000 0.000000 0.000000
# 4 0.000000 0.000000 0.000000 0.058232 0.000000 0.000000
# 5 0.000000 0.000000 0.000000 0.000000 0.031920 0.000000
# 6 0.000000 0.000000 0.000000 0.000000 0.000000 -0.003062
#
#
# Mechanical properties :
#
#
# Convention : Reuss Voigt Hill
#
# Bulk Modulus (GPa) = 28.92754 44.54193 36.73473
# Shear Modulus (GPa) = 28.68829 -42.57217 -6.94194
#
# Velocity S-wave (km/s) = 3.78754 -4.61389 -1.86314
# Velocity P-wave (km/s) = 5.79589 2.47205 3.70684
#
# Compressibility (1/GPa) = 0.03456913
#
# Stress axis : x y z
#
# Youngs Moduli (GPa) = 89.50169 78.19082 32.09313
#
# Poissons Ratio (x) = 0.38855 -0.12602
# Poissons Ratio (y) = 0.44476 0.29634
# Poissons Ratio (z) = -0.35146 0.72199
#
# Static dielectric constant tensor:
#      x y z
#    x 3.631460 0.000000 0.000000 
#    y 0.000000 3.932430 0.000000 
#    z 0.000000 0.000000 3.532760 
# 
# 
# High freq. dielectric constant tensor:
#      x y z
#    x 1.786620 0.000000 0.000000 
#    y 0.000000 1.779740 0.000000 
#    z 0.000000 0.000000 1.773260 
# 
# From -- ./inp_files/50464.got.cif
#   From: 2010.06.25/outbox.cif.g09.slc.cpg/sg71_26_cif.got.tgz:50464.got - 2010.06.28 04:59:45.
