data_PCOD8291162
_publ_section_title
;
Structure prediction by ZEFSAII (Michael W. Deem and Ramdas Pophale) SiO2 
 PCOD8291162
Probable space group: I M M M
;
_chemical_formula_sum "Si O2"
_cell_formula_units_Z 104
_cell_length_a 24.462836
_cell_length_b 8.785590
_cell_length_c 25.368026
_cell_angle_alpha 90.000000
_cell_angle_beta 90.000000
_cell_angle_gamma 90.000000
_cell_volume 5452.107496
_symmetry_space_group_name_H-M "I M M M"
_symmetry_group_IT_number 71
_symmetry_cell_setting 'orthorhombic'
loop_
_space_group_symop_operation_xyz
x,y,z
-x,-y,z
x,-y,-z
-x,y,-z
-x,-y,-z
x,y,-z
-x,y,z
x,-y,z
1/2+x,1/2+y,1/2+z
1/2-x,1/2-y,1/2+z
1/2+x,1/2-y,1/2-z
1/2-x,1/2+y,1/2-z
1/2-x,1/2-y,1/2-z
1/2+x,1/2+y,1/2-z
1/2-x,1/2+y,1/2+z
1/2+x,1/2-y,1/2+z
loop_
_atom_site_type_symbol
_atom_site_label
_atom_site_fract_x
_atom_site_fract_y
_atom_site_fract_z
Si Si1 0.500000 0.668687 0.938744
Si Si2 0.062255 0.679460 0.059535
Si Si3 0.238257 0.821511 0.805561
Si Si4 0.343527 0.323273 0.154882
Si Si5 0.620072 0.319751 0.341391
Si Si6 0.609670 0.175406 0.938938
Si Si7 0.437994 0.319414 0.764582
O O1 0.500000 0.500000 0.910386
O O2 0.450512 0.774527 0.922249
O O3 0.500000 0.635223 0.000000
O O4 0.066899 0.500000 0.065823
O O5 0.101077 0.755842 0.102546
O O6 0.000000 0.732807 0.069413
O O7 0.080175 0.727344 0.000000
O O8 0.250000 0.750000 0.750000
O O9 0.289236 0.775403 0.840419
O O10 0.181556 0.760247 0.830350
O O11 0.233475 0.000000 0.798588
O O12 0.332183 0.500000 0.166405
O O13 0.353838 0.292814 0.093500
O O14 0.393757 0.262729 0.191703
O O15 0.618287 0.500000 0.345105
O O16 0.581338 0.262897 0.293303
O O17 0.618770 0.000000 0.922860
O O18 0.622368 0.201338 0.000000
O O19 0.500000 0.257513 0.775850
O O20 0.438874 0.500000 0.766126
#
# Coordination Sequence:
#
# PCOD8291162 Si02
#       7
#     8  16  16  16  16  16  16
#     4   9  17  31  53  79 105 141 187 227 270 331
#     4   9  19  36  57  85 123 160 191 230 285 345
#     4  11  22  39  60  83 113 150 194 241 288 340
#     4  11  22  37  58  84 113 149 192 234 288 350
#     4  10  20  36  59  85 113 149 194 237 282 338
#     4  10  21  37  55  78 111 147 184 233 288 336
#     4   9  18  33  53  81 116 147 178 226 284 337
#
# _framework density 19.075192999999999
#
# number of rings (size 3 to 8) (size 9 to 14) (size 15 to 20)
#    0.000    2.077    1.538    2.538    1.077    4.308 
#    0.000    1.538    0.000    1.846    0.000    0.000 
#    0.000    0.000    0.000    0.000    0.000    0.000 
#
# Total GULP energy -644436.481741 kJ/mol
# GULP energy per Si atom -12393.009264 kJ/mol
# Density = 1.903178 g / cm^3
# Si number density = 19.075193 Si / 1000 Ang^3
#
#
#
# Elastic Constant Matrix: (Units=GPa)
#
#
# Indices 1 2 3 4 5 6 
#
# 1 140.7545 25.8929 61.6979 0.0000 0.0000 0.0000
# 2 25.8929 39.9614 32.5397 0.0000 0.0000 0.0000
# 3 61.6979 32.5397 117.2421 0.0000 0.0000 0.0000
# 4 0.0000 0.0000 0.0000 30.9457 0.0000 0.0000
# 5 0.0000 0.0000 0.0000 0.0000 15.7929 0.0000
# 6 0.0000 0.0000 0.0000 0.0000 0.0000 31.2580
#
#
#
# Elastic Compliance Matrix: (Units=1/GPa)
#
#
# Indices 1 2 3 4 5 6 
#
# 1 0.009452 -0.002680 -0.004230 0.000000 0.000000 0.000000
# 2 -0.002680 0.033090 -0.007774 0.000000 0.000000 0.000000
# 3 -0.004230 -0.007774 0.012913 0.000000 0.000000 0.000000
# 4 0.000000 0.000000 0.000000 0.032315 0.000000 0.000000
# 5 0.000000 0.000000 0.000000 0.000000 0.063320 0.000000
# 6 0.000000 0.000000 0.000000 0.000000 0.000000 0.031992
#
#
# Mechanical properties :
#
#
# Convention : Reuss Voigt Hill
#
# Bulk Modulus (GPa) = 38.33208 59.80213 49.06710
# Shear Modulus (GPa) = 22.60962 27.45449 25.03205
#
# Velocity S-wave (km/s) = 3.44654 3.79790 3.62647
# Velocity P-wave (km/s) = 5.99809 7.11694 6.58133
#
# Compressibility (1/GPa) = 0.02608781
#
# Stress axis : x y z
#
# Youngs Moduli (GPa) = 105.80023 30.22017 77.44100
#
# Poissons Ratio (x) = 0.08098 0.32759
# Poissons Ratio (y) = 0.28351 0.60201
# Poissons Ratio (z) = 0.44756 0.23493
#
# Static dielectric constant tensor:
#      x y z
#    x 3.215190 0.000000 0.000000 
#    y 0.000000 2.638470 0.000000 
#    z 0.000000 0.000000 4.047900 
# 
# 
# High freq. dielectric constant tensor:
#      x y z
#    x 1.741470 0.000000 0.000000 
#    y 0.000000 1.725550 0.000000 
#    z 0.000000 0.000000 1.745260 
# 
# From -- ./inp_files/66414.got.cif
#   From: 2010.06.25/outbox.cif.g09.slc.cpg/sg71_34_cif.got.tgz:66414.got - 2010.06.28 04:59:45.
