data_PCOD8291073
_publ_section_title
;
Structure prediction by ZEFSAII (Michael W. Deem and Ramdas Pophale) SiO2 
 PCOD8291073
Probable space group: I M M M
;
_chemical_formula_sum "Si O2"
_cell_formula_units_Z 104
_cell_length_a 8.172040
_cell_length_b 22.880926
_cell_length_c 27.539586
_cell_angle_alpha 90.000000
_cell_angle_beta 90.000000
_cell_angle_gamma 90.000000
_cell_volume 5149.457611
_symmetry_space_group_name_H-M "I M M M"
_symmetry_group_IT_number 71
_symmetry_cell_setting 'orthorhombic'
loop_
_space_group_symop_operation_xyz
x,y,z
-x,-y,z
x,-y,-z
-x,y,-z
-x,-y,-z
x,y,-z
-x,y,z
x,-y,z
1/2+x,1/2+y,1/2+z
1/2-x,1/2-y,1/2+z
1/2+x,1/2-y,1/2-z
1/2-x,1/2+y,1/2-z
1/2-x,1/2-y,1/2-z
1/2+x,1/2+y,1/2-z
1/2-x,1/2+y,1/2+z
1/2+x,1/2-y,1/2+z
loop_
_atom_site_type_symbol
_atom_site_label
_atom_site_fract_x
_atom_site_fract_y
_atom_site_fract_z
Si Si1 0.000000 0.069651 0.554409
Si Si2 0.190101 0.135968 0.312991
Si Si3 0.191524 0.327757 0.555432
Si Si4 0.821019 0.431650 0.106427
Si Si5 0.308841 0.251274 0.640227
Si Si6 0.306606 0.356732 0.704667
Si Si7 0.194043 0.933781 0.117641
O O1 0.832996 0.095949 0.577326
O O2 0.000000 0.091508 0.500000
O O3 0.000000 0.000000 0.559687
O O4 0.289687 0.082745 0.337152
O O5 0.212982 0.192374 0.347266
O O6 0.266276 0.141968 0.259005
O O7 0.000000 0.119432 0.310465
O O8 0.256272 0.325009 0.500000
O O9 0.276244 0.275748 0.586093
O O10 0.230282 0.391941 0.576780
O O11 0.000000 0.316929 0.557416
O O12 0.824946 0.500000 0.098247
O O13 0.000000 0.406301 0.089956
O O14 0.500000 0.239008 0.646291
O O15 0.241131 0.298634 0.678541
O O16 0.500000 0.353457 0.707973
O O17 0.253449 0.412303 0.671788
O O18 0.000000 0.930208 0.112349
O O19 0.257919 0.000000 0.110254
#
# Coordination Sequence:
#
# PCOD8291073 Si02
#       7
#     8  16  16  16  16  16  16
#     4   9  18  36  60  82 106 140 180 222 272 326
#     4  11  20  33  56  82 112 150 188 226 282 342
#     4  10  21  37  56  78 107 144 185 233 290 343
#     4  10  21  37  56  83 117 148 185 231 279 336
#     4  10  20  36  56  79 108 140 185 237 284 339
#     4   8  17  32  52  79 109 146 186 228 279 334
#     4   9  18  34  55  81 113 147 188 233 275 330
#
# _framework density 20.196303
#
# number of rings (size 3 to 8) (size 9 to 14) (size 15 to 20)
#    0.000    2.385    0.769    2.769    0.000    2.769 
#    0.000   12.308    0.000    1.846    0.000    0.000 
#    0.000    0.000    0.000    0.000    0.000    0.000 
#
# Total GULP energy -644493.870395 kJ/mol
# GULP energy per Si atom -12394.112892 kJ/mol
# Density = 2.015034 g / cm^3
# Si number density = 20.196303 Si / 1000 Ang^3
#
#
#
# Elastic Constant Matrix: (Units=GPa)
#
#
# Indices 1 2 3 4 5 6 
#
# 1 94.6595 7.7072 38.2906 0.0000 0.0000 0.0000
# 2 7.7072 20.2071 20.6321 0.0000 0.0000 0.0000
# 3 38.2906 20.6321 150.1853 0.0000 0.0000 0.0000
# 4 0.0000 0.0000 0.0000 21.5801 0.0000 0.0000
# 5 0.0000 0.0000 0.0000 0.0000 19.8357 0.0000
# 6 0.0000 0.0000 0.0000 0.0000 0.0000 25.8342
#
#
#
# Elastic Compliance Matrix: (Units=1/GPa)
#
#
# Indices 1 2 3 4 5 6 
#
# 1 0.011827 -0.001666 -0.002787 0.000000 0.000000 0.000000
# 2 -0.001666 0.057796 -0.007515 0.000000 0.000000 0.000000
# 3 -0.002787 -0.007515 0.008401 0.000000 0.000000 0.000000
# 4 0.000000 0.000000 0.000000 0.046339 0.000000 0.000000
# 5 0.000000 0.000000 0.000000 0.000000 0.050414 0.000000
# 6 0.000000 0.000000 0.000000 0.000000 0.000000 0.038708
#
#
# Mechanical properties :
#
#
# Convention : Reuss Voigt Hill
#
# Bulk Modulus (GPa) = 18.48789 44.25686 31.37238
# Shear Modulus (GPa) = 19.57325 26.67815 23.12570
#
# Velocity S-wave (km/s) = 3.11649 3.63842 3.38752
# Velocity P-wave (km/s) = 4.70362 6.29378 5.55589
#
# Compressibility (1/GPa) = 0.05408945
#
# Stress axis : x y z
#
# Youngs Moduli (GPa) = 84.55244 17.30218 119.02919
#
# Poissons Ratio (x) = 0.02882 0.33168
# Poissons Ratio (y) = 0.14085 0.89453
# Poissons Ratio (z) = 0.23561 0.13003
#
# Static dielectric constant tensor:
#      x y z
#    x 3.738050 0.000000 0.000000 
#    y 0.000000 3.544740 0.000000 
#    z 0.000000 0.000000 3.926190 
# 
# 
# High freq. dielectric constant tensor:
#      x y z
#    x 1.784540 0.000000 0.000000 
#    y 0.000000 1.773240 0.000000 
#    z 0.000000 0.000000 1.787630 
# 
# From -- ./inp_files/63572.got.cif
#   From: 2010.06.25/outbox.cif.g09.slc.cpg/sg71_32_cif.got.tgz:63572.got - 2010.06.28 04:59:45.
