data_PCOD8291063
_publ_section_title
;
Structure prediction by ZEFSAII (Michael W. Deem and Ramdas Pophale) SiO2 
 PCOD8291063
Probable space group: I M M M
;
_chemical_formula_sum "Si O2"
_cell_formula_units_Z 72
_cell_length_a 27.378625
_cell_length_b 16.162816
_cell_length_c 8.935528
_cell_angle_alpha 90.000000
_cell_angle_beta 90.000000
_cell_angle_gamma 90.000000
_cell_volume 3954.111233
_symmetry_space_group_name_H-M "I M M M"
_symmetry_group_IT_number 71
_symmetry_cell_setting 'orthorhombic'
loop_
_space_group_symop_operation_xyz
x,y,z
-x,-y,z
x,-y,-z
-x,y,-z
-x,-y,-z
x,y,-z
-x,y,z
x,-y,z
1/2+x,1/2+y,1/2+z
1/2-x,1/2-y,1/2+z
1/2+x,1/2-y,1/2-z
1/2-x,1/2+y,1/2-z
1/2-x,1/2-y,1/2-z
1/2+x,1/2+y,1/2-z
1/2-x,1/2+y,1/2+z
1/2+x,1/2-y,1/2+z
loop_
_atom_site_type_symbol
_atom_site_label
_atom_site_fract_x
_atom_site_fract_y
_atom_site_fract_z
Si Si1 0.444273 0.166368 0.674336
Si Si2 0.395021 0.665924 0.675798
Si Si3 0.198089 0.262383 0.823051
Si Si4 0.443877 0.500000 0.679185
Si Si5 0.856791 0.594425 0.328788
O O1 0.432279 0.152323 0.500000
O O2 0.500000 0.147357 0.712012
O O3 0.432150 0.260799 0.719671
O O4 0.412350 0.103497 0.772048
O O5 0.393589 0.654102 0.500000
O O6 0.340311 0.691087 0.730829
O O7 0.415209 0.580196 0.745336
O O8 0.250000 0.250000 0.750000
O O9 0.178636 0.351707 0.774223
O O10 0.203706 0.260939 0.000000
O O11 0.500000 0.500000 0.736245
O O12 0.443732 0.500000 0.500000
O O13 0.853128 0.624394 0.500000
O O14 0.840078 0.500000 0.313218
#
# Coordination Sequence:
#
# PCOD8291063 Si02
#       5
#    16  16  16   8  16
#     4   9  17  30  49  73 103 139 175 210 254 310
#     4   8  15  27  44  70 102 134 168 208 250 302
#     4  10  20  36  56  76 102 135 173 214 263 318
#     4   9  14  22  42  72 105 135 163 201 250 301
#     4  10  21  36  53  75 102 132 171 218 264 310
#
# _framework density 18.208897
#
# number of rings (size 3 to 8) (size 9 to 14) (size 15 to 20)
#    0.000    2.778    0.000    3.333    0.000    5.333 
#    2.000    2.222    0.000    0.000    0.000    7.000 
#    0.000   29.333    0.000    0.000    0.000    0.000 
#
# Total GULP energy -446253.195358 kJ/mol
# GULP energy per Si atom -12395.922093 kJ/mol
# Density = 1.816745 g / cm^3
# Si number density = 18.208897 Si / 1000 Ang^3
#
#
#
# Elastic Constant Matrix: (Units=GPa)
#
#
# Indices 1 2 3 4 5 6 
#
# 1 140.8131 53.6514 41.1517 0.0000 0.0000 0.0000
# 2 53.6514 97.6801 29.0048 0.0000 0.0000 0.0000
# 3 41.1517 29.0048 53.0932 0.0000 0.0000 0.0000
# 4 0.0000 0.0000 0.0000 19.9424 0.0000 0.0000
# 5 0.0000 0.0000 0.0000 0.0000 30.3694 0.0000
# 6 0.0000 0.0000 0.0000 0.0000 0.0000 17.8241
#
#
#
# Elastic Compliance Matrix: (Units=1/GPa)
#
#
# Indices 1 2 3 4 5 6 
#
# 1 0.010305 -0.003925 -0.005843 0.000000 0.000000 0.000000
# 2 -0.003925 0.013715 -0.004450 0.000000 0.000000 0.000000
# 3 -0.005843 -0.004450 0.025795 0.000000 0.000000 0.000000
# 4 0.000000 0.000000 0.000000 0.050145 0.000000 0.000000
# 5 0.000000 0.000000 0.000000 0.000000 0.032928 0.000000
# 6 0.000000 0.000000 0.000000 0.000000 0.000000 0.056104
#
#
# Mechanical properties :
#
#
# Convention : Reuss Voigt Hill
#
# Bulk Modulus (GPa) = 46.77671 59.91135 53.34403
# Shear Modulus (GPa) = 22.26658 24.81241 23.53949
#
# Velocity S-wave (km/s) = 3.50071 3.69542 3.59938
# Velocity P-wave (km/s) = 6.48727 7.15415 6.82885
#
# Compressibility (1/GPa) = 0.02137816
#
# Stress axis : x y z
#
# Youngs Moduli (GPa) = 97.04456 72.91444 38.76786
#
# Poissons Ratio (x) = 0.28618 0.22651
# Poissons Ratio (y) = 0.38089 0.17252
# Poissons Ratio (z) = 0.56700 0.32448
#
# Static dielectric constant tensor:
#      x y z
#    x 3.530100 0.000000 0.000000 
#    y 0.000000 3.491460 0.000000 
#    z 0.000000 0.000000 3.108180 
# 
# 
# High freq. dielectric constant tensor:
#      x y z
#    x 1.708590 0.000000 0.000000 
#    y 0.000000 1.703500 0.000000 
#    z 0.000000 0.000000 1.675010 
# 
# From -- ./inp_files/8182.got.cif
#   From: 2010.06.25/outbox.cif.g09.slc.cpg/sg71_5_cif.got.tgz:8182.got - 2010.06.28 04:59:45.
