data_PCOD8291229
_publ_section_title
;
Structure prediction by ZEFSAII (Michael W. Deem and Ramdas Pophale) SiO2 
 PCOD8291229
Probable space group: I M M M
;
_chemical_formula_sum "Si O2"
_cell_formula_units_Z 104
_cell_length_a 20.501440
_cell_length_b 32.423583
_cell_length_c 8.139916
_cell_angle_alpha 90.000000
_cell_angle_beta 90.000000
_cell_angle_gamma 90.000000
_cell_volume 5410.847514
_symmetry_space_group_name_H-M "I M M M"
_symmetry_group_IT_number 71
_symmetry_cell_setting 'orthorhombic'
loop_
_space_group_symop_operation_xyz
x,y,z
-x,-y,z
x,-y,-z
-x,y,-z
-x,-y,-z
x,y,-z
-x,y,z
x,-y,z
1/2+x,1/2+y,1/2+z
1/2-x,1/2-y,1/2+z
1/2+x,1/2-y,1/2-z
1/2-x,1/2+y,1/2-z
1/2-x,1/2-y,1/2-z
1/2+x,1/2+y,1/2-z
1/2-x,1/2+y,1/2+z
1/2+x,1/2-y,1/2+z
loop_
_atom_site_type_symbol
_atom_site_label
_atom_site_fract_x
_atom_site_fract_y
_atom_site_fract_z
Si Si1 0.925730 0.543830 0.500000
Si Si2 0.573147 0.310874 0.809857
Si Si3 0.191964 0.865895 0.695104
Si Si4 0.865754 0.575119 0.819421
Si Si5 0.073869 0.278563 0.811129
Si Si6 0.174852 0.342262 0.312540
Si Si7 0.775750 0.955280 0.311890
O O1 0.887407 0.500000 0.500000
O O2 0.913463 0.568001 0.668210
O O3 0.000000 0.533744 0.500000
O O4 0.500000 0.327370 0.776709
O O5 0.622614 0.346706 0.754273
O O6 0.587094 0.269954 0.706160
O O7 0.583262 0.299462 0.000000
O O8 0.202398 0.867103 0.500000
O O9 0.248036 0.836464 0.773753
O O10 0.194001 0.913257 0.767227
O O11 0.848323 0.623211 0.815062
O O12 0.802129 0.547197 0.796159
O O13 0.897236 0.566001 0.000000
O O14 0.130471 0.301839 0.711090
O O15 0.000000 0.289036 0.746459
O O16 0.079583 0.291207 0.000000
O O17 0.167166 0.357184 0.500000
O O18 0.797824 0.956462 0.500000
O O19 0.796948 0.000000 0.231450
#
# Coordination Sequence:
#
# PCOD8291229 Si02
#       7
#     8  16  16  16  16  16  16
#     4  11  24  38  52  76 106 140 189 235 275 337
#     4   9  18  34  54  76 105 143 184 223 269 329
#     4   9  18  32  52  78 108 141 178 224 278 332
#     4  10  20  37  56  76 106 144 182 230 286 337
#     4  10  21  36  54  76 102 138 183 227 273 330
#     4  11  21  35  55  80 109 138 176 230 283 333
#     4   8  14  27  51  78 101 133 176 220 270 324
#
# _framework density 19.220649999999999
#
# number of rings (size 3 to 8) (size 9 to 14) (size 15 to 20)
#    0.000    2.385    0.769    3.231    0.000    4.000 
#    0.000    0.769    0.000    0.462    0.000    3.231 
#    0.000    0.000    0.000    7.846    0.000    9.231 
#
# Total GULP energy -644251.380511 kJ/mol
# GULP energy per Si atom -12389.449625 kJ/mol
# Density = 1.917690 g / cm^3
# Si number density = 19.220650 Si / 1000 Ang^3
#
#
#
# Elastic Constant Matrix: (Units=GPa)
#
#
# Indices 1 2 3 4 5 6 
#
# 1 109.1159 69.6962 31.2030 0.0005 0.0001 0.0001
# 2 69.6962 108.4772 20.6226 0.0000 0.0004 -0.0001
# 3 31.2030 20.6226 82.7700 0.0120 -0.0020 0.0000
# 4 0.0005 0.0000 0.0120 17.6755 0.0022 -0.0007
# 5 0.0001 0.0004 -0.0020 0.0022 18.6592 0.0001
# 6 0.0001 -0.0001 0.0000 -0.0007 0.0001 20.5594
#
#
#
# Elastic Compliance Matrix: (Units=1/GPa)
#
#
# Indices 1 2 3 4 5 6 
#
# 1 0.016598 -0.009946 -0.003779 0.000002 0.000000 0.000000
# 2 -0.009946 0.015636 -0.000147 0.000000 0.000000 0.000000
# 3 -0.003779 -0.000147 0.013543 -0.000009 0.000002 0.000000
# 4 0.000002 0.000000 -0.000009 0.056575 -0.000007 0.000002
# 5 0.000000 0.000000 0.000002 -0.000007 0.053593 0.000000
# 6 0.000000 0.000000 0.000000 0.000002 0.000000 0.048640
#
#
# Mechanical properties :
#
#
# Convention : Reuss Voigt Hill
#
# Bulk Modulus (GPa) = 55.44920 60.37853 57.91387
# Shear Modulus (GPa) = 20.97850 23.30157 22.14003
#
# Velocity S-wave (km/s) = 3.30730 3.48562 3.39763
# Velocity P-wave (km/s) = 6.59513 6.90514 6.75191
#
# Compressibility (1/GPa) = 0.01803452
#
# Stress axis : x y z
#
# Youngs Moduli (GPa) = 60.24861 63.95322 73.83965
#
# Poissons Ratio (x) = 0.63606 0.27905
# Poissons Ratio (y) = 0.59921 0.01082
# Poissons Ratio (z) = 0.22769 0.00937
#
# Static dielectric constant tensor:
#      x y z
#    x 3.436060 0.000000 -0.000010 
#    y 0.000000 3.583620 -0.000010 
#    z -0.000010 -0.000010 3.476600 
# 
# 
# High freq. dielectric constant tensor:
#      x y z
#    x 1.719490 0.000000 0.000000 
#    y 0.000000 1.745050 0.000000 
#    z 0.000000 0.000000 1.739150 
# 
# From -- ./inp_files/11476.got.cif
#   From: 2010.06.25/outbox.cif.g09.slc.cpg/sg71_6_cif.got.tgz:11476.got - 2010.06.28 04:59:45.
