data_PCOD8291685
_publ_section_title
;
Structure prediction by ZEFSAII (Michael W. Deem and Ramdas Pophale) SiO2 
 PCOD8291685
Probable space group: I M M M
;
_chemical_formula_sum "Si O2"
_cell_formula_units_Z 88
_cell_length_a 23.033867
_cell_length_b 9.751557
_cell_length_c 21.008348
_cell_angle_alpha 90.000000
_cell_angle_beta 90.000000
_cell_angle_gamma 90.000000
_cell_volume 4718.812502
_symmetry_space_group_name_H-M "I M M M"
_symmetry_group_IT_number 71
_symmetry_cell_setting 'orthorhombic'
loop_
_space_group_symop_operation_xyz
x,y,z
-x,-y,z
x,-y,-z
-x,y,-z
-x,-y,-z
x,y,-z
-x,y,z
x,-y,z
1/2+x,1/2+y,1/2+z
1/2-x,1/2-y,1/2+z
1/2+x,1/2-y,1/2-z
1/2-x,1/2+y,1/2-z
1/2-x,1/2-y,1/2-z
1/2+x,1/2+y,1/2-z
1/2-x,1/2+y,1/2+z
1/2+x,1/2-y,1/2+z
loop_
_atom_site_type_symbol
_atom_site_label
_atom_site_fract_x
_atom_site_fract_y
_atom_site_fract_z
Si Si1 0.238997 0.346813 0.570024
Si Si2 0.190420 0.662228 0.242106
Si Si3 0.658715 0.157850 0.401887
Si Si4 0.629430 0.243825 0.137493
Si Si5 0.063389 0.659792 0.000000
Si Si6 0.430683 0.500000 0.924556
Si Si7 0.431854 0.000000 0.928845
O O1 0.212390 0.361771 0.500000
O O2 0.248564 0.500000 0.599036
O O3 0.297423 0.261852 0.565360
O O4 0.194806 0.260146 0.611847
O O5 0.202966 0.500000 0.255874
O O6 0.250000 0.750000 0.250000
O O7 0.160948 0.681724 0.173500
O O8 0.139362 0.723647 0.287140
O O9 0.597453 0.198008 0.434578
O O10 0.674864 0.000000 0.418435
O O11 0.596785 0.378009 0.115244
O O12 0.589052 0.128287 0.109788
O O13 0.052801 0.500000 0.000000
O O14 0.000000 0.733663 0.000000
O O15 0.500000 0.500000 0.918530
O O16 0.413304 0.500000 0.000000
O O17 0.500000 0.000000 0.932675
O O18 0.405535 0.000000 0.000000
#
# Coordination Sequence:
#
# PCOD8291685 Si02
#       7
#    16  16  16  16   8   8   8
#     4  11  21  33  54  89 124 151 194 252 307 366
#     4  11  23  38  58  91 129 165 201 252 319 382
#     4  10  21  36  59  89 116 157 204 249 310 372
#     4  12  23  40  60  90 124 162 209 254 313 383
#     4   9  18  38  63  87 117 153 200 259 308 355
#     4  11  26  46  65  90 124 165 216 267 315 369
#     4  11  22  40  65  88 118 161 208 257 309 373
#
# _framework density 18.648758999999998
#
# number of rings (size 3 to 8) (size 9 to 14) (size 15 to 20)
#    0.000    1.182    4.545    2.182    2.545    1.455 
#    0.000    1.818    0.000    1.091    0.000    0.000 
#    0.000    0.000    0.000    0.000    0.000    0.000 
#
# Total GULP energy -545187.380582 kJ/mol
# GULP energy per Si atom -12390.622286 kJ/mol
# Density = 1.860631 g / cm^3
# Si number density = 18.648759 Si / 1000 Ang^3
#
#
#
# Elastic Constant Matrix: (Units=GPa)
#
#
# Indices 1 2 3 4 5 6 
#
# 1 121.6083 50.5991 55.8564 0.0000 0.0000 0.0000
# 2 50.5991 118.8550 46.0707 0.0000 0.0000 0.0000
# 3 55.8564 46.0707 144.6996 0.0000 0.0000 0.0000
# 4 0.0000 0.0000 0.0000 23.6935 0.0000 0.0000
# 5 0.0000 0.0000 0.0000 0.0000 28.9135 0.0000
# 6 0.0000 0.0000 0.0000 0.0000 0.0000 34.7644
#
#
#
# Elastic Compliance Matrix: (Units=1/GPa)
#
#
# Indices 1 2 3 4 5 6 
#
# 1 0.011147 -0.003511 -0.003185 0.000000 0.000000 0.000000
# 2 -0.003511 0.010704 -0.002053 0.000000 0.000000 0.000000
# 3 -0.003185 -0.002053 0.008794 0.000000 0.000000 0.000000
# 4 0.000000 0.000000 0.000000 0.042206 0.000000 0.000000
# 5 0.000000 0.000000 0.000000 0.000000 0.034586 0.000000
# 6 0.000000 0.000000 0.000000 0.000000 0.000000 0.028765
#
#
# Mechanical properties :
#
#
# Convention : Reuss Voigt Hill
#
# Bulk Modulus (GPa) = 76.06076 76.69060 76.37568
# Shear Modulus (GPa) = 31.62929 32.98338 32.30634
#
# Velocity S-wave (km/s) = 4.12278 4.21011 4.16668
# Velocity P-wave (km/s) = 7.97105 8.05272 8.01199
#
# Compressibility (1/GPa) = 0.01314738
#
# Stress axis : x y z
#
# Youngs Moduli (GPa) = 89.71118 93.42335 113.71479
#
# Poissons Ratio (x) = 0.32800 0.36219
# Poissons Ratio (y) = 0.31496 0.23343
# Poissons Ratio (z) = 0.28574 0.19178
#
# Static dielectric constant tensor:
#      x y z
#    x 3.514020 0.000000 0.000000 
#    y 0.000000 3.417220 0.000000 
#    z 0.000000 0.000000 3.713750 
# 
# 
# High freq. dielectric constant tensor:
#      x y z
#    x 1.713120 0.000000 0.000000 
#    y 0.000000 1.724140 0.000000 
#    z 0.000000 0.000000 1.737330 
# 
# From -- ./inp_files/61146.got.cif
#   From: 2010.06.25/outbox.cif.g09.slc.cpg/sg71_31_cif.got.tgz:61146.got - 2010.06.28 04:59:45.
