data_PCOD8291135
_publ_section_title
;
Structure prediction by ZEFSAII (Michael W. Deem and Ramdas Pophale) SiO2 
 PCOD8291135
Probable space group: I M M M
;
_chemical_formula_sum "Si O2"
_cell_formula_units_Z 104
_cell_length_a 18.407009
_cell_length_b 9.373938
_cell_length_c 31.782686
_cell_angle_alpha 90.000000
_cell_angle_beta 90.000000
_cell_angle_gamma 90.000000
_cell_volume 5483.980460
_symmetry_space_group_name_H-M "I M M M"
_symmetry_group_IT_number 71
_symmetry_cell_setting 'orthorhombic'
loop_
_space_group_symop_operation_xyz
x,y,z
-x,-y,z
x,-y,-z
-x,y,-z
-x,-y,-z
x,y,-z
-x,y,z
x,-y,z
1/2+x,1/2+y,1/2+z
1/2-x,1/2-y,1/2+z
1/2+x,1/2-y,1/2-z
1/2-x,1/2+y,1/2-z
1/2-x,1/2-y,1/2-z
1/2+x,1/2+y,1/2-z
1/2-x,1/2+y,1/2+z
1/2+x,1/2-y,1/2+z
loop_
_atom_site_type_symbol
_atom_site_label
_atom_site_fract_x
_atom_site_fract_y
_atom_site_fract_z
Si Si1 0.415557 0.168034 0.663120
Si Si2 0.697343 0.838934 0.047595
Si Si3 0.583894 0.334013 0.092874
Si Si4 0.324566 0.167140 0.255104
Si Si5 0.348108 0.666555 0.414826
Si Si6 0.083831 0.662642 0.325630
Si Si7 0.082421 0.168567 0.000000
O O1 0.500000 0.212431 0.668711
O O2 0.369941 0.215490 0.704014
O O3 0.380126 0.247528 0.623931
O O4 0.409149 0.000000 0.655547
O O5 0.630985 0.731717 0.055306
O O6 0.761675 0.809808 0.080948
O O7 0.668535 0.000000 0.053184
O O8 0.726503 0.816505 0.000000
O O9 0.500000 0.301874 0.082951
O O10 0.600076 0.500000 0.096368
O O11 0.608810 0.262368 0.136310
O O12 0.250000 0.250000 0.250000
O O13 0.372479 0.209039 0.215183
O O14 0.307555 0.000000 0.256820
O O15 0.367217 0.500000 0.408714
O O16 0.382563 0.730202 0.457518
O O17 0.100138 0.500000 0.338674
O O18 0.000000 0.685112 0.314559
O O19 0.000000 0.217078 0.000000
O O20 0.093856 0.000000 0.000000
#
# Coordination Sequence:
#
# PCOD8291135 Si02
#       7
#    16  16  16  16  16  16   8
#     4  10  22  40  59  82 116 154 188 227 280 338
#     4  10  21  38  59  83 114 151 191 236 282 334
#     4  10  22  38  57  84 116 148 185 233 288 342
#     4  10  22  38  57  83 114 149 187 229 277 331
#     4  10  20  36  58  85 113 145 189 235 278 327
#     4   9  18  36  61  83 106 144 191 232 272 325
#     4   9  16  30  55  83 110 141 180 228 277 321
#
# _framework density 18.964327999999998
#
# number of rings (size 3 to 8) (size 9 to 14) (size 15 to 20)
#    0.000    2.231    0.769    1.385    2.154    6.154 
#    0.000    1.923    0.000    4.154    0.000    0.000 
#    0.000    0.000    0.000    0.000    0.000    0.000 
#
# Total GULP energy -644860.657330 kJ/mol
# GULP energy per Si atom -12401.166487 kJ/mol
# Density = 1.892116 g / cm^3
# Si number density = 18.964328 Si / 1000 Ang^3
#
#
#
# Elastic Constant Matrix: (Units=GPa)
#
#
# Indices 1 2 3 4 5 6 
#
# 1 111.5689 55.8290 71.9386 0.0000 0.0000 0.0000
# 2 55.8290 65.9826 51.1175 0.0000 0.0000 0.0000
# 3 71.9386 51.1175 111.4967 0.0000 0.0000 0.0000
# 4 0.0000 0.0000 0.0000 32.2164 0.0000 0.0000
# 5 0.0000 0.0000 0.0000 0.0000 40.4406 0.0000
# 6 0.0000 0.0000 0.0000 0.0000 0.0000 32.3972
#
#
#
# Elastic Compliance Matrix: (Units=1/GPa)
#
#
# Indices 1 2 3 4 5 6 
#
# 1 0.018909 -0.010154 -0.007545 0.000000 0.000000 0.000000
# 2 -0.010154 0.028956 -0.006724 0.000000 0.000000 0.000000
# 3 -0.007545 -0.006724 0.016920 0.000000 0.000000 0.000000
# 4 0.000000 0.000000 0.000000 0.031040 0.000000 0.000000
# 5 0.000000 0.000000 0.000000 0.000000 0.024728 0.000000
# 6 0.000000 0.000000 0.000000 0.000000 0.000000 0.030867
#
#
# Mechanical properties :
#
#
# Convention : Reuss Voigt Hill
#
# Bulk Modulus (GPa) = 62.73959 71.86870 67.30414
# Shear Modulus (GPa) = 24.32158 28.35503 26.33831
#
# Velocity S-wave (km/s) = 3.58507 3.87095 3.73075
# Velocity P-wave (km/s) = 7.09167 7.61302 7.35696
#
# Compressibility (1/GPa) = 0.01593890
#
# Stress axis : x y z
#
# Youngs Moduli (GPa) = 52.88450 34.53488 59.10286
#
# Poissons Ratio (x) = 0.35067 0.44593
# Poissons Ratio (y) = 0.53700 0.39740
# Poissons Ratio (z) = 0.39901 0.23221
#
# Static dielectric constant tensor:
#      x y z
#    x 3.630410 0.000000 0.000000 
#    y 0.000000 3.304870 0.000000 
#    z 0.000000 0.000000 3.541560 
# 
# 
# High freq. dielectric constant tensor:
#      x y z
#    x 1.746670 0.000000 0.000000 
#    y 0.000000 1.719070 0.000000 
#    z 0.000000 0.000000 1.745210 
# 
# From -- ./inp_files/66410.got.cif
#   From: 2010.06.25/outbox.cif.g09.slc.cpg/sg71_34_cif.got.tgz:66410.got - 2010.06.28 04:59:45.
