data_PCOD8291455
_publ_section_title
;
Structure prediction by ZEFSAII (Michael W. Deem and Ramdas Pophale) SiO2 
 PCOD8291455
Probable space group: I M M M
;
_chemical_formula_sum "Si O2"
_cell_formula_units_Z 72
_cell_length_a 17.555031
_cell_length_b 27.221305
_cell_length_c 7.938277
_cell_angle_alpha 90.000000
_cell_angle_beta 90.000000
_cell_angle_gamma 90.000000
_cell_volume 3793.471202
_symmetry_space_group_name_H-M "I M M M"
_symmetry_group_IT_number 71
_symmetry_cell_setting 'orthorhombic'
loop_
_space_group_symop_operation_xyz
x,y,z
-x,-y,z
x,-y,-z
-x,y,-z
-x,-y,-z
x,y,-z
-x,y,z
x,-y,z
1/2+x,1/2+y,1/2+z
1/2-x,1/2-y,1/2+z
1/2+x,1/2-y,1/2-z
1/2-x,1/2+y,1/2-z
1/2-x,1/2-y,1/2-z
1/2+x,1/2+y,1/2-z
1/2-x,1/2+y,1/2+z
1/2+x,1/2-y,1/2+z
loop_
_atom_site_type_symbol
_atom_site_label
_atom_site_fract_x
_atom_site_fract_y
_atom_site_fract_z
Si Si1 0.910347 0.942723 0.500000
Si Si2 0.233404 0.304182 0.309541
Si Si3 0.655695 0.945318 0.806684
Si Si4 0.584403 0.849964 0.308245
Si Si5 0.183860 0.899614 0.802455
O O1 0.880360 0.917923 0.326855
O O2 0.000000 0.934722 0.500000
O O3 0.888234 0.000000 0.500000
O O4 0.256115 0.306903 0.500000
O O5 0.250000 0.250000 0.250000
O O6 0.144210 0.316213 0.290082
O O7 0.287401 0.346387 0.230069
O O8 0.606383 0.907303 0.699106
O O9 0.745598 0.936683 0.787530
O O10 0.637042 0.000000 0.741876
O O11 0.631537 0.938329 0.000000
O O12 0.585913 0.832679 0.500000
O O13 0.500000 0.841942 0.231537
O O14 0.155392 0.898284 0.000000
#
# Coordination Sequence:
#
# PCOD8291455 Si02
#       5
#     8  16  16  16  16
#     4  11  24  38  58  88 117 157 205 245 303 366
#     4  10  21  37  62  88 108 143 192 234 287 349
#     4   9  18  32  52  78 106 145 192 229 272 330
#     4  10  21  35  51  77 114 148 180 226 276 325
#     4   9  20  38  58  84 118 151 190 246 295 346
#
# _framework density 18.979979
#
# number of rings (size 3 to 8) (size 9 to 14) (size 15 to 20)
#    0.000    2.333    0.000    3.333    7.778    4.444 
#    0.000    4.444    0.000    1.333    0.000    0.000 
#    0.000    0.000    0.000    0.000    0.000    0.000 
#
# Total GULP energy -446142.949553 kJ/mol
# GULP energy per Si atom -12392.859710 kJ/mol
# Density = 1.893678 g / cm^3
# Si number density = 18.979979 Si / 1000 Ang^3
#
#
#
# Elastic Constant Matrix: (Units=GPa)
#
#
# Indices 1 2 3 4 5 6 
#
# 1 104.4204 58.9758 38.6936 0.0000 -0.0001 0.0000
# 2 58.9758 140.6142 28.7888 0.0000 0.0000 0.0000
# 3 38.6936 28.7888 73.5574 -0.0001 -0.0003 0.0000
# 4 0.0000 0.0000 -0.0001 31.4912 -0.0001 0.0000
# 5 -0.0001 0.0000 -0.0003 -0.0001 28.8624 0.0000
# 6 0.0000 0.0000 0.0000 0.0000 0.0000 15.7178
#
#
#
# Elastic Compliance Matrix: (Units=1/GPa)
#
#
# Indices 1 2 3 4 5 6 
#
# 1 0.014448 -0.004896 -0.005684 0.000000 0.000000 0.000000
# 2 -0.004896 0.009390 -0.001100 0.000000 0.000000 0.000000
# 3 -0.005684 -0.001100 0.017015 0.000000 0.000000 0.000000
# 4 0.000000 0.000000 0.000000 0.031755 0.000000 0.000000
# 5 0.000000 0.000000 0.000000 0.000000 0.034647 0.000000
# 6 0.000000 0.000000 0.000000 0.000000 0.000000 0.063622
#
#
# Mechanical properties :
#
#
# Convention : Reuss Voigt Hill
#
# Bulk Modulus (GPa) = 57.16187 63.50092 60.33140
# Shear Modulus (GPa) = 24.99144 28.02322 26.50733
#
# Velocity S-wave (km/s) = 3.63261 3.84664 3.74116
# Velocity P-wave (km/s) = 6.91207 7.29783 7.10757
#
# Compressibility (1/GPa) = 0.01749418
#
# Stress axis : x y z
#
# Youngs Moduli (GPa) = 69.21287 106.49300 58.77110
#
# Poissons Ratio (x) = 0.52140 0.33405
# Poissons Ratio (y) = 0.33887 0.06463
# Poissons Ratio (z) = 0.39341 0.11711
#
# Static dielectric constant tensor:
#      x y z
#    x 3.312180 0.000000 0.000000 
#    y 0.000000 3.456790 0.000000 
#    z 0.000000 0.000000 3.490770 
# 
# 
# High freq. dielectric constant tensor:
#      x y z
#    x 1.718200 0.000000 0.000000 
#    y 0.000000 1.738180 0.000000 
#    z 0.000000 0.000000 1.740450 
# 
# From -- ./inp_files/6090.got.cif
#   From: 2010.06.25/outbox.cif.g09.slc.cpg/sg71_4_cif.got.tgz:6090.got - 2010.06.28 04:59:45.
