data_PCOD8291352
_publ_section_title
;
Structure prediction by ZEFSAII (Michael W. Deem and Ramdas Pophale) SiO2 
 PCOD8291352
Probable space group: I M M M
;
_chemical_formula_sum "Si O2"
_cell_formula_units_Z 88
_cell_length_a 17.448493
_cell_length_b 22.285508
_cell_length_c 11.654356
_cell_angle_alpha 90.000000
_cell_angle_beta 90.000000
_cell_angle_gamma 90.000000
_cell_volume 4531.779203
_symmetry_space_group_name_H-M "I M M M"
_symmetry_group_IT_number 71
_symmetry_cell_setting 'orthorhombic'
loop_
_space_group_symop_operation_xyz
x,y,z
-x,-y,z
x,-y,-z
-x,y,-z
-x,-y,-z
x,y,-z
-x,y,z
x,-y,z
1/2+x,1/2+y,1/2+z
1/2-x,1/2-y,1/2+z
1/2+x,1/2-y,1/2-z
1/2-x,1/2+y,1/2-z
1/2-x,1/2-y,1/2-z
1/2+x,1/2+y,1/2-z
1/2-x,1/2+y,1/2+z
1/2+x,1/2-y,1/2+z
loop_
_atom_site_type_symbol
_atom_site_label
_atom_site_fract_x
_atom_site_fract_y
_atom_site_fract_z
Si Si1 0.908384 0.810499 0.000000
Si Si2 0.171061 0.932419 0.000000
Si Si3 0.087678 0.662040 0.370681
Si Si4 0.180166 0.885942 0.635465
Si Si5 0.207491 0.568860 0.699046
Si Si6 0.338860 0.732376 0.737231
Si Si7 0.415379 0.500000 0.135955
O O1 0.895658 0.882530 0.000000
O O2 0.865331 0.780362 0.107739
O O3 0.000000 0.797931 0.000000
O O4 0.223306 0.922582 0.889196
O O5 0.135805 0.000000 0.000000
O O6 0.104535 0.684217 0.500000
O O7 0.132198 0.600684 0.347124
O O8 0.109994 0.713952 0.283490
O O9 0.000000 0.645477 0.352078
O O10 0.184934 0.880882 0.500000
O O11 0.265525 0.898788 0.683389
O O12 0.143729 0.825658 0.685540
O O13 0.127686 0.940878 0.679174
O O14 0.186490 0.500000 0.720789
O O15 0.250000 0.750000 0.750000
O O16 0.500000 0.500000 0.190157
O O17 0.419405 0.500000 0.000000
#
# Coordination Sequence:
#
# PCOD8291352 Si02
#       7
#     8   8  16  16  16  16   8
#     4  12  26  43  62  95 134 168 211 269 330 387
#     4  10  20  39  63  90 122 168 214 255 310 383
#     4  11  24  42  64  93 126 160 205 266 327 379
#     4  11  22  37  62  93 121 161 215 252 302 367
#     4  11  21  39  65  92 124 162 211 263 309 379
#     4  12  25  41  66  90 126 166 215 258 315 382
#     4   9  20  38  58  85 124 157 192 247 301 354
#
# _framework density 19.418422
#
# number of rings (size 3 to 8) (size 9 to 14) (size 15 to 20)
#    0.000    1.000    5.455    1.091    2.545    2.000 
#    0.000    2.727    0.000    0.000    0.000    1.273 
#    0.000    0.000    0.000    0.000    0.000    0.000 
#
# Total GULP energy -545686.697591 kJ/mol
# GULP energy per Si atom -12401.970400 kJ/mol
# Density = 1.937422 g / cm^3
# Si number density = 19.418422 Si / 1000 Ang^3
#
#
#
# Elastic Constant Matrix: (Units=GPa)
#
#
# Indices 1 2 3 4 5 6 
#
# 1 111.1790 34.6312 46.7725 0.0000 0.0000 0.0000
# 2 34.6312 102.9674 42.3682 0.0000 0.0000 0.0000
# 3 46.7725 42.3682 121.8917 0.0000 0.0000 0.0000
# 4 0.0000 0.0000 0.0000 30.2894 0.0000 0.0000
# 5 0.0000 0.0000 0.0000 0.0000 27.0580 0.0000
# 6 0.0000 0.0000 0.0000 0.0000 0.0000 26.0144
#
#
#
# Elastic Compliance Matrix: (Units=1/GPa)
#
#
# Indices 1 2 3 4 5 6 
#
# 1 0.011185 -0.002329 -0.003482 0.000000 0.000000 0.000000
# 2 -0.002329 0.011818 -0.003214 0.000000 0.000000 0.000000
# 3 -0.003482 -0.003214 0.010657 0.000000 0.000000 0.000000
# 4 0.000000 0.000000 0.000000 0.033015 0.000000 0.000000
# 5 0.000000 0.000000 0.000000 0.000000 0.036958 0.000000
# 6 0.000000 0.000000 0.000000 0.000000 0.000000 0.038440
#
#
# Mechanical properties :
#
#
# Convention : Reuss Voigt Hill
#
# Bulk Modulus (GPa) = 64.06439 64.84244 64.45341
# Shear Modulus (GPa) = 30.24317 30.82343 30.53330
#
# Velocity S-wave (km/s) = 3.95073 3.98845 3.96964
# Velocity P-wave (km/s) = 7.33991 7.39426 7.36713
#
# Compressibility (1/GPa) = 0.01560930
#
# Stress axis : x y z
#
# Youngs Moduli (GPa) = 89.40557 84.61968 93.83134
#
# Poissons Ratio (x) = 0.19708 0.32676
# Poissons Ratio (y) = 0.20822 0.30157
# Poissons Ratio (z) = 0.31135 0.27197
#
# Static dielectric constant tensor:
#      x y z
#    x 3.519020 0.000000 0.000000 
#    y 0.000000 3.757710 0.000000 
#    z 0.000000 0.000000 3.730310 
# 
# 
# High freq. dielectric constant tensor:
#      x y z
#    x 1.742800 0.000000 0.000000 
#    y 0.000000 1.771210 0.000000 
#    z 0.000000 0.000000 1.764010 
# 
# From -- ./inp_files/24015.got.cif
#   From: 2010.06.25/outbox.cif.g09.slc.cpg/sg71_13_cif.got.tgz:24015.got - 2010.06.28 04:59:45.
