data_PCOD8291618
_publ_section_title
;
Structure prediction by ZEFSAII (Michael W. Deem and Ramdas Pophale) SiO2 
 PCOD8291618
Probable space group: I M M M
;
_chemical_formula_sum "Si O2"
_cell_formula_units_Z 88
_cell_length_a 9.186554
_cell_length_b 17.929936
_cell_length_c 27.061049
_cell_angle_alpha 90.000000
_cell_angle_beta 90.000000
_cell_angle_gamma 90.000000
_cell_volume 4457.342427
_symmetry_space_group_name_H-M "I M M M"
_symmetry_group_IT_number 71
_symmetry_cell_setting 'orthorhombic'
loop_
_space_group_symop_operation_xyz
x,y,z
-x,-y,z
x,-y,-z
-x,y,-z
-x,-y,-z
x,y,-z
-x,y,z
x,-y,z
1/2+x,1/2+y,1/2+z
1/2-x,1/2-y,1/2+z
1/2+x,1/2-y,1/2-z
1/2-x,1/2+y,1/2-z
1/2-x,1/2-y,1/2-z
1/2+x,1/2+y,1/2-z
1/2-x,1/2+y,1/2+z
1/2+x,1/2-y,1/2+z
loop_
_atom_site_type_symbol
_atom_site_label
_atom_site_fract_x
_atom_site_fract_y
_atom_site_fract_z
Si Si1 0.827420 0.500000 0.942681
Si Si2 0.173001 0.353060 0.118124
Si Si3 0.171009 0.585667 0.400464
Si Si4 0.162826 0.083551 0.808018
Si Si5 0.667205 0.686898 0.781037
Si Si6 0.662551 0.287703 0.555491
O O1 0.774385 0.426889 0.911895
O O2 0.000000 0.500000 0.945627
O O3 0.767580 0.500000 0.000000
O O4 0.252317 0.341939 0.170229
O O5 0.221736 0.280851 0.087411
O O6 0.000000 0.356257 0.126939
O O7 0.222766 0.500000 0.408801
O O8 0.229554 0.619878 0.348503
O O9 0.236628 0.638920 0.442239
O O10 0.000000 0.591372 0.401708
O O11 0.172327 0.116318 0.754100
O O12 0.000000 0.090521 0.829547
O O13 0.215537 0.000000 0.801203
O O14 0.500000 0.711204 0.792376
O O15 0.750000 0.750000 0.750000
O O16 0.662765 0.257957 0.500000
O O17 0.500000 0.309902 0.572526
#
# Coordination Sequence:
#
# PCOD8291618 Si02
#       6
#     8  16  16  16  16  16
#     4   9  18  36  63  91 119 155 201 253 304 355
#     4  10  21  37  59  87 117 150 193 242 293 347
#     4  10  21  36  55  82 113 144 181 230 284 335
#     4   9  19  36  56  76 103 143 184 218 260 320
#     4  11  23  37  56  82 115 151 188 233 283 341
#     4  10  21  37  57  80 108 145 189 233 277 333
#
# _framework density 19.742705999999998
#
# number of rings (size 3 to 8) (size 9 to 14) (size 15 to 20)
#    0.000    2.091    0.000    2.727    1.273   10.545 
#    0.000    1.818    0.000    2.182    0.000    0.000 
#    0.000    0.000    0.000    0.000    0.000    0.000 
#
# Total GULP energy -545348.297309 kJ/mol
# GULP energy per Si atom -12394.279484 kJ/mol
# Density = 1.969777 g / cm^3
# Si number density = 19.742706 Si / 1000 Ang^3
#
#
#
# Elastic Constant Matrix: (Units=GPa)
#
#
# Indices 1 2 3 4 5 6 
#
# 1 66.5268 46.2301 32.1204 0.0000 0.0000 0.0000
# 2 46.2301 110.2745 53.3830 0.0000 0.0000 0.0000
# 3 32.1204 53.3830 107.3652 0.0000 0.0000 0.0000
# 4 0.0000 0.0000 0.0000 35.3534 0.0000 0.0000
# 5 0.0000 0.0000 0.0000 0.0000 33.2423 0.0000
# 6 0.0000 0.0000 0.0000 0.0000 0.0000 22.8310
#
#
#
# Elastic Compliance Matrix: (Units=1/GPa)
#
#
# Indices 1 2 3 4 5 6 
#
# 1 0.021748 -0.007859 -0.002599 0.000000 0.000000 0.000000
# 2 -0.007859 0.014783 -0.004999 0.000000 0.000000 0.000000
# 3 -0.002599 -0.004999 0.012577 0.000000 0.000000 0.000000
# 4 0.000000 0.000000 0.000000 0.028286 0.000000 0.000000
# 5 0.000000 0.000000 0.000000 0.000000 0.030082 0.000000
# 6 0.000000 0.000000 0.000000 0.000000 0.000000 0.043800
#
#
# Mechanical properties :
#
#
# Convention : Reuss Voigt Hill
#
# Bulk Modulus (GPa) = 54.96308 60.84814 57.90561
# Shear Modulus (GPa) = 26.55986 28.44755 27.50371
#
# Velocity S-wave (km/s) = 3.67181 3.80006 3.73648
# Velocity P-wave (km/s) = 6.77321 7.08106 6.92884
#
# Compressibility (1/GPa) = 0.01819403
#
# Stress axis : x y z
#
# Youngs Moduli (GPa) = 45.98203 67.64486 79.51046
#
# Poissons Ratio (x) = 0.53164 0.20661
# Poissons Ratio (y) = 0.36139 0.39748
# Poissons Ratio (z) = 0.11949 0.33816
#
# Static dielectric constant tensor:
#      x y z
#    x 3.575530 0.000000 0.000000 
#    y 0.000000 3.812110 0.000000 
#    z 0.000000 0.000000 3.802270 
# 
# 
# High freq. dielectric constant tensor:
#      x y z
#    x 1.753680 0.000000 0.000000 
#    y 0.000000 1.777210 0.000000 
#    z 0.000000 0.000000 1.777380 
# 
# From -- ./inp_files/68043.got.cif
#   From: 2010.06.25/outbox.cif.g09.slc.cpg/sg71_35_cif.got.tgz:68043.got - 2010.06.28 04:59:45.
