data_PCOD8291693
_publ_section_title
;
Structure prediction by ZEFSAII (Michael W. Deem and Ramdas Pophale) SiO2 
 PCOD8291693
Probable space group: I M M M
;
_chemical_formula_sum "Si O2"
_cell_formula_units_Z 64
_cell_length_a 14.295759
_cell_length_b 8.936093
_cell_length_c 23.715431
_cell_angle_alpha 90.000000
_cell_angle_beta 90.000000
_cell_angle_gamma 90.000000
_cell_volume 3029.604380
_symmetry_space_group_name_H-M "I M M M"
_symmetry_group_IT_number 71
_symmetry_cell_setting 'orthorhombic'
loop_
_space_group_symop_operation_xyz
x,y,z
-x,-y,z
x,-y,-z
-x,y,-z
-x,-y,-z
x,y,-z
-x,y,z
x,-y,z
1/2+x,1/2+y,1/2+z
1/2-x,1/2-y,1/2+z
1/2+x,1/2-y,1/2-z
1/2-x,1/2+y,1/2-z
1/2-x,1/2-y,1/2-z
1/2+x,1/2+y,1/2-z
1/2-x,1/2+y,1/2+z
1/2+x,1/2-y,1/2+z
loop_
_atom_site_type_symbol
_atom_site_label
_atom_site_fract_x
_atom_site_fract_y
_atom_site_fract_z
Si Si1 0.108717 0.324416 0.605817
Si Si2 0.397640 0.239870 0.500000
Si Si3 0.304369 0.335821 0.000000
Si Si4 0.604672 0.334096 0.623605
Si Si5 0.262346 0.323254 0.810279
O O1 0.129680 0.500000 0.609540
O O2 0.165784 0.257441 0.554105
O O3 0.143472 0.245003 0.662765
O O4 0.000000 0.290854 0.597292
O O5 0.500000 0.155581 0.500000
O O6 0.307335 0.132596 0.500000
O O7 0.390520 0.340427 0.444118
O O8 0.352274 0.500000 0.000000
O O9 0.500000 0.291817 0.643577
O O10 0.631877 0.500000 0.645452
O O11 0.673998 0.212796 0.650023
O O12 0.273019 0.500000 0.804632
O O13 0.250000 0.250000 0.750000
#
# Coordination Sequence:
#
# PCOD8291693 Si02
#       5
#    16   8   8  16  16
#     4  11  25  45  69  96 129 172 219 270 328 388
#     4  10  21  36  63 101 139 174 209 251 313 385
#     4  12  24  39  65 101 137 175 214 265 325 386
#     4  10  21  39  65  97 132 170 211 257 314 382
#     4  12  26  44  67  94 127 169 216 269 325 382
#
# _framework density 21.124870999999999
#
# number of rings (size 3 to 8) (size 9 to 14) (size 15 to 20)
#    0.000    1.000    2.500    4.125    0.000    7.750 
#    0.000    2.500    0.000    0.000    0.000    0.000 
#    0.000    0.000    0.000    0.000    0.000    0.000 
#
# Total GULP energy -396743.835412 kJ/mol
# GULP energy per Si atom -12398.244857 kJ/mol
# Density = 2.107679 g / cm^3
# Si number density = 21.124871 Si / 1000 Ang^3
#
#
#
# Elastic Constant Matrix: (Units=GPa)
#
#
# Indices 1 2 3 4 5 6 
#
# 1 142.1893 56.7832 48.8884 0.0000 0.0000 0.0000
# 2 56.7832 157.2675 52.1426 0.0000 0.0000 0.0000
# 3 48.8884 52.1426 135.3742 0.0000 0.0000 0.0000
# 4 0.0000 0.0000 0.0000 28.8372 0.0000 0.0000
# 5 0.0000 0.0000 0.0000 0.0000 18.5542 0.0000
# 6 0.0000 0.0000 0.0000 0.0000 0.0000 26.0988
#
#
#
# Elastic Compliance Matrix: (Units=1/GPa)
#
#
# Indices 1 2 3 4 5 6 
#
# 1 0.008769 -0.002426 -0.002232 0.000000 0.000000 0.000000
# 2 -0.002426 0.007961 -0.002190 0.000000 0.000000 0.000000
# 3 -0.002232 -0.002190 0.009037 0.000000 0.000000 0.000000
# 4 0.000000 0.000000 0.000000 0.034677 0.000000 0.000000
# 5 0.000000 0.000000 0.000000 0.000000 0.053896 0.000000
# 6 0.000000 0.000000 0.000000 0.000000 0.000000 0.038316
#
#
# Mechanical properties :
#
#
# Convention : Reuss Voigt Hill
#
# Bulk Modulus (GPa) = 82.85380 83.38438 83.11909
# Shear Modulus (GPa) = 29.34674 33.16583 31.25629
#
# Velocity S-wave (km/s) = 3.73125 3.96661 3.85073
# Velocity P-wave (km/s) = 7.60717 7.78052 7.69433
#
# Compressibility (1/GPa) = 0.01206945
#
# Stress axis : x y z
#
# Youngs Moduli (GPa) = 114.03417 125.61717 110.65967
#
# Poissons Ratio (x) = 0.30476 0.24704
# Poissons Ratio (y) = 0.27666 0.24236
# Poissons Ratio (z) = 0.25457 0.27511
#
# Static dielectric constant tensor:
#      x y z
#    x 4.119850 0.000000 0.000000 
#    y 0.000000 3.718910 0.000000 
#    z 0.000000 0.000000 3.682620 
# 
# 
# High freq. dielectric constant tensor:
#      x y z
#    x 1.843180 0.000000 0.000000 
#    y 0.000000 1.826840 0.000000 
#    z 0.000000 0.000000 1.826840 
# 
# From -- ./inp_files/59490.got.cif
#   From: 2010.06.25/outbox.cif.g09.slc.cpg/sg71_30_cif.got.tgz:59490.got - 2010.06.28 04:59:45.
