data_PCOD8291468
_publ_section_title
;
Structure prediction by ZEFSAII (Michael W. Deem and Ramdas Pophale) SiO2 
 PCOD8291468
Probable space group: I M M M
;
_chemical_formula_sum "Si O2"
_cell_formula_units_Z 104
_cell_length_a 9.325288
_cell_length_b 30.929672
_cell_length_c 19.317180
_cell_angle_alpha 90.000000
_cell_angle_beta 90.000000
_cell_angle_gamma 90.000000
_cell_volume 5571.617508
_symmetry_space_group_name_H-M "I M M M"
_symmetry_group_IT_number 71
_symmetry_cell_setting 'orthorhombic'
loop_
_space_group_symop_operation_xyz
x,y,z
-x,-y,z
x,-y,-z
-x,y,-z
-x,-y,-z
x,y,-z
-x,y,z
x,-y,z
1/2+x,1/2+y,1/2+z
1/2-x,1/2-y,1/2+z
1/2+x,1/2-y,1/2-z
1/2-x,1/2+y,1/2-z
1/2-x,1/2-y,1/2-z
1/2+x,1/2+y,1/2-z
1/2-x,1/2+y,1/2+z
1/2+x,1/2-y,1/2+z
loop_
_atom_site_type_symbol
_atom_site_label
_atom_site_fract_x
_atom_site_fract_y
_atom_site_fract_z
Si Si1 0.669504 0.123095 0.795702
Si Si2 0.334909 0.548835 0.782031
Si Si3 0.670992 0.405922 0.579239
Si Si4 0.335883 0.413235 0.076105
Si Si5 0.666273 0.210696 0.717598
Si Si6 0.333491 0.826907 0.576719
Si Si7 0.344846 0.500000 0.581452
O O1 0.500000 0.117966 0.804356
O O2 0.730825 0.081415 0.756795
O O3 0.744775 0.127058 0.871119
O O4 0.711182 0.165994 0.753917
O O5 0.500000 0.560898 0.765345
O O6 0.300447 0.500000 0.757632
O O7 0.306846 0.551226 0.864863
O O8 0.710018 0.394709 0.500000
O O9 0.500000 0.403078 0.590288
O O10 0.730258 0.454359 0.600458
O O11 0.500000 0.398313 0.076656
O O12 0.245917 0.370989 0.093624
O O13 0.294555 0.432124 0.000000
O O14 0.500000 0.220063 0.729013
O O15 0.750000 0.250000 0.750000
O O16 0.705732 0.208029 0.635772
O O17 0.293473 0.808812 0.500000
O O18 0.500000 0.838410 0.581761
O O19 0.500000 0.500000 0.618515
O O20 0.370055 0.500000 0.500000
#
# Coordination Sequence:
#
# PCOD8291468 Si02
#       7
#    16  16  16  16  16  16   8
#     4  11  23  38  55  80 114 146 179 227 284 332
#     4  10  21  35  52  77 111 153 194 228 268 322
#     4   9  18  34  56  80 107 144 187 227 270 324
#     4   9  17  30  51  79 109 143 185 231 273 313
#     4  10  22  39  59  84 110 141 180 225 280 335
#     4   9  17  33  57  81 108 142 179 221 268 322
#     4   7  12  26  49  75 101 131 174 223 260 301
#
# _framework density 18.666032999999999
#
# number of rings (size 3 to 8) (size 9 to 14) (size 15 to 20)
#    0.000    2.538    1.538    1.385    1.077    2.769 
#    0.000    2.308    0.000    4.154    0.000    3.231 
#    0.000    0.000    0.000    0.000    0.000    0.000 
#
# Total GULP energy -644428.647572 kJ/mol
# GULP energy per Si atom -12392.858607 kJ/mol
# Density = 1.862355 g / cm^3
# Si number density = 18.666033 Si / 1000 Ang^3
#
#
#
# Elastic Constant Matrix: (Units=GPa)
#
#
# Indices 1 2 3 4 5 6 
#
# 1 57.1659 44.9673 49.2729 0.0000 0.0000 0.0000
# 2 44.9673 94.1887 58.3897 0.0001 0.0000 0.0000
# 3 49.2729 58.3897 122.2780 0.0007 0.0000 0.0000
# 4 0.0000 0.0001 0.0007 27.0751 0.0000 0.0000
# 5 0.0000 0.0000 0.0000 0.0000 28.2677 0.0000
# 6 0.0000 0.0000 0.0000 0.0000 0.0000 26.9180
#
#
#
# Elastic Compliance Matrix: (Units=1/GPa)
#
#
# Indices 1 2 3 4 5 6 
#
# 1 0.032917 -0.010643 -0.008182 0.000000 0.000000 0.000000
# 2 -0.010643 0.018523 -0.004556 0.000000 0.000000 0.000000
# 3 -0.008182 -0.004556 0.013651 0.000000 0.000000 0.000000
# 4 0.000000 0.000000 0.000000 0.036934 0.000000 0.000000
# 5 0.000000 0.000000 0.000000 0.000000 0.035376 0.000000
# 6 0.000000 0.000000 0.000000 0.000000 0.000000 0.037150
#
#
# Mechanical properties :
#
#
# Convention : Reuss Voigt Hill
#
# Bulk Modulus (GPa) = 54.56096 64.32139 59.44117
# Shear Modulus (GPa) = 21.98551 24.51900 23.25225
#
# Velocity S-wave (km/s) = 3.43568 3.62824 3.53327
# Velocity P-wave (km/s) = 6.71060 7.21707 6.96843
#
# Compressibility (1/GPa) = 0.01832812
#
# Stress axis : x y z
#
# Youngs Moduli (GPa) = 30.37932 53.98817 73.25610
#
# Poissons Ratio (x) = 0.57459 0.59938
# Poissons Ratio (y) = 0.32333 0.33377
# Poissons Ratio (z) = 0.24857 0.24598
#
# Static dielectric constant tensor:
#      x y z
#    x 3.271180 0.000000 0.000000 
#    y 0.000000 3.248860 0.000000 
#    z 0.000000 0.000000 3.879910 
# 
# 
# High freq. dielectric constant tensor:
#      x y z
#    x 1.706200 0.000000 0.000000 
#    y 0.000000 1.693870 0.000000 
#    z 0.000000 0.000000 1.749070 
# 
# From -- ./inp_files/50931.got.cif
#   From: 2010.06.25/outbox.cif.g09.slc.cpg/sg71_26_cif.got.tgz:50931.got - 2010.06.28 04:59:45.
