data_PCOD8291158
_publ_section_title
;
Structure prediction by ZEFSAII (Michael W. Deem and Ramdas Pophale) SiO2 
 PCOD8291158
Probable space group: I M M M
;
_chemical_formula_sum "Si O2"
_cell_formula_units_Z 88
_cell_length_a 8.491922
_cell_length_b 19.318017
_cell_length_c 27.555124
_cell_angle_alpha 90.000000
_cell_angle_beta 90.000000
_cell_angle_gamma 90.000000
_cell_volume 4520.338005
_symmetry_space_group_name_H-M "I M M M"
_symmetry_group_IT_number 71
_symmetry_cell_setting 'orthorhombic'
loop_
_space_group_symop_operation_xyz
x,y,z
-x,-y,z
x,-y,-z
-x,y,-z
-x,-y,-z
x,y,-z
-x,y,z
x,-y,z
1/2+x,1/2+y,1/2+z
1/2-x,1/2-y,1/2+z
1/2+x,1/2-y,1/2-z
1/2-x,1/2+y,1/2-z
1/2-x,1/2-y,1/2-z
1/2+x,1/2+y,1/2-z
1/2-x,1/2+y,1/2+z
1/2+x,1/2-y,1/2+z
loop_
_atom_site_type_symbol
_atom_site_label
_atom_site_fract_x
_atom_site_fract_y
_atom_site_fract_z
Si Si1 0.687097 0.500000 0.552957
Si Si2 0.679716 0.779625 0.447268
Si Si3 0.680534 0.360562 0.400292
Si Si4 0.318671 0.814462 0.196127
Si Si5 0.184562 0.921192 0.727772
Si Si6 0.814584 0.678945 0.843137
O O1 0.500000 0.500000 0.549063
O O2 0.763906 0.500000 0.500000
O O3 0.746404 0.567356 0.580572
O O4 0.758775 0.799878 0.500000
O O5 0.500000 0.804389 0.449598
O O6 0.689539 0.696536 0.442655
O O7 0.756379 0.813497 0.398233
O O8 0.500000 0.365853 0.380891
O O9 0.800263 0.340666 0.358329
O O10 0.500000 0.812242 0.212298
O O11 0.227766 0.869430 0.229121
O O12 0.249622 0.736042 0.195886
O O13 0.268457 0.895833 0.677989
O O14 0.000000 0.919213 0.718928
O O15 0.240242 0.000000 0.739172
O O16 0.000000 0.690313 0.846221
#
# Coordination Sequence:
#
# PCOD8291158 Si02
#       6
#     8  16  16  16  16  16
#     4   9  16  26  45  71  99 137 183 229 272 315
#     4   8  14  27  50  78 105 134 172 218 262 306
#     4   9  17  29  47  73 104 138 180 226 267 310
#     4  11  22  36  55  78 108 144 182 222 267 321
#     4  11  24  40  58  79 107 142 180 223 271 324
#     4  10  20  36  59  85 112 141 177 222 267 316
#
# _framework density 19.467571
#
# number of rings (size 3 to 8) (size 9 to 14) (size 15 to 20)
#    0.000    2.273    0.000    4.909    1.273    3.636 
#    0.000    0.000    0.000   19.636    0.000    3.818 
#    0.000    0.000    0.000    0.000    0.000    0.000 
#
# Total GULP energy -545213.202012 kJ/mol
# GULP energy per Si atom -12391.209137 kJ/mol
# Density = 1.942326 g / cm^3
# Si number density = 19.467571 Si / 1000 Ang^3
#
#
#
# Elastic Constant Matrix: (Units=GPa)
#
#
# Indices 1 2 3 4 5 6 
#
# 1 40.3846 16.2110 6.8563 0.0000 0.0000 0.0000
# 2 16.2110 87.2374 40.4752 0.0000 0.0000 0.0000
# 3 6.8563 40.4752 90.9744 0.0000 0.0000 0.0000
# 4 0.0000 0.0000 0.0000 15.4665 0.0000 0.0000
# 5 0.0000 0.0000 0.0000 0.0000 15.4093 0.0000
# 6 0.0000 0.0000 0.0000 0.0000 0.0000 23.1847
#
#
#
# Elastic Compliance Matrix: (Units=1/GPa)
#
#
# Indices 1 2 3 4 5 6 
#
# 1 0.026762 -0.005088 0.000247 0.000000 0.000000 0.000000
# 2 -0.005088 0.015412 -0.006473 0.000000 0.000000 0.000000
# 3 0.000247 -0.006473 0.013854 0.000000 0.000000 0.000000
# 4 0.000000 0.000000 0.000000 0.064656 0.000000 0.000000
# 5 0.000000 0.000000 0.000000 0.000000 0.064896 0.000000
# 6 0.000000 0.000000 0.000000 0.000000 0.000000 0.043132
#
#
# Mechanical properties :
#
#
# Convention : Reuss Voigt Hill
#
# Bulk Modulus (GPa) = 29.94112 38.40905 34.17508
# Shear Modulus (GPa) = 19.04959 21.14904 20.09932
#
# Velocity S-wave (km/s) = 3.13154 3.29959 3.21666
# Velocity P-wave (km/s) = 5.33749 5.85568 5.60258
#
# Compressibility (1/GPa) = 0.03339888
#
# Stress axis : x y z
#
# Youngs Moduli (GPa) = 37.36605 64.88532 72.18349
#
# Poissons Ratio (x) = 0.33011 -0.01780
# Poissons Ratio (y) = 0.19010 0.46727
# Poissons Ratio (z) = -0.00921 0.42003
#
# Static dielectric constant tensor:
#      x y z
#    x 3.197040 0.000000 0.000000 
#    y 0.000000 3.645350 0.000000 
#    z 0.000000 0.000000 3.811480 
# 
# 
# High freq. dielectric constant tensor:
#      x y z
#    x 1.724620 0.000000 0.000000 
#    y 0.000000 1.741010 0.000000 
#    z 0.000000 0.000000 1.768590 
# 
# From -- ./inp_files/68035.got.cif
#   From: 2010.06.25/outbox.cif.g09.slc.cpg/sg71_35_cif.got.tgz:68035.got - 2010.06.28 04:59:45.
