data_PCOD8291773
_publ_section_title
;
Structure prediction by ZEFSAII (Michael W. Deem and Ramdas Pophale) SiO2 
 PCOD8291773
Probable space group: I M M M
;
_chemical_formula_sum "Si O2"
_cell_formula_units_Z 104
_cell_length_a 25.997112
_cell_length_b 21.664848
_cell_length_c 8.888031
_cell_angle_alpha 90.000000
_cell_angle_beta 90.000000
_cell_angle_gamma 90.000000
_cell_volume 5005.947749
_symmetry_space_group_name_H-M "I M M M"
_symmetry_group_IT_number 71
_symmetry_cell_setting 'orthorhombic'
loop_
_space_group_symop_operation_xyz
x,y,z
-x,-y,z
x,-y,-z
-x,y,-z
-x,-y,-z
x,y,-z
-x,y,z
x,-y,z
1/2+x,1/2+y,1/2+z
1/2-x,1/2-y,1/2+z
1/2+x,1/2-y,1/2-z
1/2-x,1/2+y,1/2-z
1/2-x,1/2-y,1/2-z
1/2+x,1/2+y,1/2-z
1/2-x,1/2+y,1/2+z
1/2+x,1/2-y,1/2+z
loop_
_atom_site_type_symbol
_atom_site_label
_atom_site_fract_x
_atom_site_fract_y
_atom_site_fract_z
Si Si1 0.941700 0.321505 0.669874
Si Si2 0.390048 0.618910 0.177853
Si Si3 0.140725 0.244637 0.824989
Si Si4 0.000000 0.929402 0.321248
Si Si5 0.788754 0.645152 0.824486
Si Si6 0.203107 0.931379 0.825977
Si Si7 0.127082 0.569109 0.330831
O O1 0.932864 0.295303 0.500000
O O2 0.909841 0.284096 0.791955
O O3 0.925901 0.393112 0.675674
O O4 0.000000 0.315244 0.719443
O O5 0.364602 0.683107 0.228953
O O6 0.448643 0.606737 0.236149
O O7 0.352366 0.567059 0.244906
O O8 0.389250 0.615161 0.000000
O O9 0.190917 0.286046 0.777918
O O10 0.142953 0.227882 0.000000
O O11 0.000000 0.930731 0.500000
O O12 0.000000 0.000000 0.260134
O O13 0.737617 0.624860 0.736860
O O14 0.832279 0.595487 0.786632
O O15 0.776612 0.642631 0.000000
O O16 0.227808 0.000000 0.801488
O O17 0.194370 0.917498 0.000000
O O18 0.150918 0.572685 0.500000
O O19 0.113281 0.500000 0.284108
#
# Coordination Sequence:
#
# PCOD8291773 Si02
#       7
#    16  16  16   8  16  16  16
#     4   9  18  32  51  75 106 146 193 243 292 351
#     4  11  23  40  65  93 120 155 197 242 293 351
#     4  10  22  39  57  83 118 154 196 244 297 352
#     4   9  20  40  65  93 123 153 190 239 290 343
#     4  10  21  37  58  83 114 155 199 242 290 348
#     4  11  24  41  62  90 123 156 193 240 294 352
#     4   9  17  30  49  75 108 146 189 240 298 352
#
# _framework density 20.775288
#
# number of rings (size 3 to 8) (size 9 to 14) (size 15 to 20)
#    0.000    2.077    0.000    2.769    1.077    7.077 
#    0.000    2.692    0.000    2.769    0.000    4.308 
#    0.000    0.000    0.000    0.000    0.000    0.000 
#
# Total GULP energy -644575.445979 kJ/mol
# GULP energy per Si atom -12395.681653 kJ/mol
# Density = 2.072800 g / cm^3
# Si number density = 20.775288 Si / 1000 Ang^3
#
#
#
# Elastic Constant Matrix: (Units=GPa)
#
#
# Indices 1 2 3 4 5 6 
#
# 1 124.9482 35.7888 43.1687 0.0000 0.0000 0.0000
# 2 35.7888 107.8114 34.5330 0.0000 0.0000 0.0000
# 3 43.1687 34.5330 77.3697 0.0000 0.0000 0.0000
# 4 0.0000 0.0000 0.0000 28.7204 0.0000 0.0000
# 5 0.0000 0.0000 0.0000 0.0000 29.8842 0.0000
# 6 0.0000 0.0000 0.0000 0.0000 0.0000 24.4964
#
#
#
# Elastic Compliance Matrix: (Units=1/GPa)
#
#
# Indices 1 2 3 4 5 6 
#
# 1 0.010214 -0.001826 -0.004884 0.000000 0.000000 0.000000
# 2 -0.001826 0.011149 -0.003957 0.000000 0.000000 0.000000
# 3 -0.004884 -0.003957 0.017416 0.000000 0.000000 0.000000
# 4 0.000000 0.000000 0.000000 0.034818 0.000000 0.000000
# 5 0.000000 0.000000 0.000000 0.000000 0.033463 0.000000
# 6 0.000000 0.000000 0.000000 0.000000 0.000000 0.040822
#
#
# Mechanical properties :
#
#
# Convention : Reuss Voigt Hill
#
# Bulk Modulus (GPa) = 57.32444 59.67891 58.50168
# Shear Modulus (GPa) = 28.56624 29.72945 29.14785
#
# Velocity S-wave (km/s) = 3.71214 3.78696 3.74974
# Velocity P-wave (km/s) = 6.78423 6.92168 6.85330
#
# Compressibility (1/GPa) = 0.01744457
#
# Stress axis : x y z
#
# Youngs Moduli (GPa) = 97.90816 89.69200 57.41808
#
# Poissons Ratio (x) = 0.16380 0.28041
# Poissons Ratio (y) = 0.17880 0.22723
# Poissons Ratio (z) = 0.47815 0.35495
#
# Static dielectric constant tensor:
#      x y z
#    x 3.868900 0.000000 0.000000 
#    y 0.000000 3.903610 0.000000 
#    z 0.000000 0.000000 3.638280 
# 
# 
# High freq. dielectric constant tensor:
#      x y z
#    x 1.812680 0.000000 0.000000 
#    y 0.000000 1.820280 0.000000 
#    z 0.000000 0.000000 1.800650 
# 
# From -- ./inp_files/15024.got.cif
#   From: 2010.06.25/outbox.cif.g09.slc.cpg/sg71_8_cif.got.tgz:15024.got - 2010.06.28 04:59:45.
