data_PCOD8291289
_publ_section_title
;
Structure prediction by ZEFSAII (Michael W. Deem and Ramdas Pophale) SiO2 
 PCOD8291289
Probable space group: I M M M
;
_chemical_formula_sum "Si O2"
_cell_formula_units_Z 80
_cell_length_a 26.642459
_cell_length_b 17.190548
_cell_length_c 8.974685
_cell_angle_alpha 90.000000
_cell_angle_beta 90.000000
_cell_angle_gamma 90.000000
_cell_volume 4110.392001
_symmetry_space_group_name_H-M "I M M M"
_symmetry_group_IT_number 71
_symmetry_cell_setting 'orthorhombic'
loop_
_space_group_symop_operation_xyz
x,y,z
-x,-y,z
x,-y,-z
-x,y,-z
-x,-y,-z
x,y,-z
-x,y,z
x,-y,z
1/2+x,1/2+y,1/2+z
1/2-x,1/2-y,1/2+z
1/2+x,1/2-y,1/2-z
1/2-x,1/2+y,1/2-z
1/2-x,1/2-y,1/2-z
1/2+x,1/2+y,1/2-z
1/2-x,1/2+y,1/2+z
1/2+x,1/2-y,1/2+z
loop_
_atom_site_type_symbol
_atom_site_label
_atom_site_fract_x
_atom_site_fract_y
_atom_site_fract_z
Si Si1 0.118212 0.650100 0.325681
Si Si2 0.500000 0.588878 0.676167
Si Si3 0.776289 0.322728 0.825607
Si Si4 0.181938 0.915842 0.674415
Si Si5 0.943235 0.500000 0.323002
Si Si6 0.911102 0.820212 0.673897
O O1 0.130482 0.642437 0.500000
O O2 0.170447 0.653962 0.240293
O O3 0.085962 0.576898 0.266609
O O4 0.086103 0.728040 0.294134
O O5 0.500000 0.500000 0.735936
O O6 0.500000 0.589897 0.500000
O O7 0.451798 0.634112 0.732980
O O8 0.750000 0.250000 0.750000
O O9 0.739282 0.394357 0.791407
O O10 0.781963 0.305452 0.000000
O O11 0.173467 0.922050 0.500000
O O12 0.143019 0.850757 0.732463
O O13 0.170815 0.000000 0.748813
O O14 0.945717 0.500000 0.500000
O O15 0.000000 0.500000 0.258017
O O16 0.920207 0.837069 0.500000
#
# Coordination Sequence:
#
# PCOD8291289 Si02
#       6
#    16   8  16  16   8  16
#     4  10  21  38  60  89 119 151 200 249 297 353
#     4  11  25  41  57  84 121 148 180 235 299 353
#     4  11  21  36  58  84 119 157 195 239 293 354
#     4   9  18  33  54  81 112 147 189 234 277 336
#     4   9  20  38  63  89 119 159 205 260 309 356
#     4  10  20  37  62  85 109 149 200 241 279 344
#
# _framework density 19.462864
#
# number of rings (size 3 to 8) (size 9 to 14) (size 15 to 20)
#    0.000    2.000    2.000    1.500    2.800    2.400 
#    0.000    0.000    0.000    1.800    0.000    0.000 
#    0.000    0.000    0.000    0.000    0.000    0.000 
#
# Total GULP energy -495900.776738 kJ/mol
# GULP energy per Si atom -12397.519418 kJ/mol
# Density = 1.941857 g / cm^3
# Si number density = 19.462864 Si / 1000 Ang^3
#
#
#
# Elastic Constant Matrix: (Units=GPa)
#
#
# Indices 1 2 3 4 5 6 
#
# 1 157.8952 80.3845 49.1857 0.0000 0.0000 0.0000
# 2 80.3845 173.6856 42.0838 0.0000 0.0000 0.0000
# 3 49.1857 42.0838 55.3476 0.0000 0.0000 0.0000
# 4 0.0000 0.0000 0.0000 19.6394 0.0000 0.0000
# 5 0.0000 0.0000 0.0000 0.0000 35.3434 0.0000
# 6 0.0000 0.0000 0.0000 0.0000 0.0000 30.4949
#
#
#
# Elastic Compliance Matrix: (Units=1/GPa)
#
#
# Indices 1 2 3 4 5 6 
#
# 1 0.009887 -0.003000 -0.006505 0.000000 0.000000 0.000000
# 2 -0.003000 0.007968 -0.003393 0.000000 0.000000 0.000000
# 3 -0.006505 -0.003393 0.026429 0.000000 0.000000 0.000000
# 4 0.000000 0.000000 0.000000 0.050918 0.000000 0.000000
# 5 0.000000 0.000000 0.000000 0.000000 0.028294 0.000000
# 6 0.000000 0.000000 0.000000 0.000000 0.000000 0.032792
#
#
# Mechanical properties :
#
#
# Convention : Reuss Voigt Hill
#
# Bulk Modulus (GPa) = 54.08996 81.13738 67.61367
# Shear Modulus (GPa) = 26.56102 31.44716 29.00409
#
# Velocity S-wave (km/s) = 3.69820 4.02400 3.86453
# Velocity P-wave (km/s) = 6.78876 7.96046 7.39784
#
# Compressibility (1/GPa) = 0.01848772
#
# Stress axis : x y z
#
# Youngs Moduli (GPa) = 101.14395 125.50463 37.83787
#
# Poissons Ratio (x) = 0.37646 0.24615
# Poissons Ratio (y) = 0.30339 0.12837
# Poissons Ratio (z) = 0.65799 0.42581
#
# Static dielectric constant tensor:
#      x y z
#    x 4.105960 0.000000 0.000000 
#    y 0.000000 3.189090 0.000000 
#    z 0.000000 0.000000 3.253270 
# 
# 
# High freq. dielectric constant tensor:
#      x y z
#    x 1.767250 0.000000 0.000000 
#    y 0.000000 1.774730 0.000000 
#    z 0.000000 0.000000 1.722050 
# 
# From -- ./inp_files/14578.got.cif
#   From: 2010.06.25/outbox.cif.g09.slc.cpg/sg71_8_cif.got.tgz:14578.got - 2010.06.28 04:59:45.
