data_PCOD8291827
_publ_section_title
;
Structure prediction by ZEFSAII (Michael W. Deem and Ramdas Pophale) SiO2 
 PCOD8291827
Probable space group: I M M M
;
_chemical_formula_sum "Si O2"
_cell_formula_units_Z 80
_cell_length_a 8.497409
_cell_length_b 15.470543
_cell_length_c 29.121537
_cell_angle_alpha 90.000000
_cell_angle_beta 90.000000
_cell_angle_gamma 90.000000
_cell_volume 3828.303605
_symmetry_space_group_name_H-M "I M M M"
_symmetry_group_IT_number 71
_symmetry_cell_setting 'orthorhombic'
loop_
_space_group_symop_operation_xyz
x,y,z
-x,-y,z
x,-y,-z
-x,y,-z
-x,-y,-z
x,y,-z
-x,y,z
x,-y,z
1/2+x,1/2+y,1/2+z
1/2-x,1/2-y,1/2+z
1/2+x,1/2-y,1/2-z
1/2-x,1/2+y,1/2-z
1/2-x,1/2-y,1/2-z
1/2+x,1/2+y,1/2-z
1/2-x,1/2+y,1/2+z
1/2+x,1/2-y,1/2+z
loop_
_atom_site_type_symbol
_atom_site_label
_atom_site_fract_x
_atom_site_fract_y
_atom_site_fract_z
Si Si1 0.314357 0.664024 0.593852
Si Si2 0.827337 0.500000 0.259583
Si Si3 0.186982 0.650276 0.879214
Si Si4 0.668909 0.000000 0.135926
Si Si5 0.184293 0.832851 0.722044
Si Si6 0.187754 0.903733 0.000000
Si Si7 0.686422 0.500000 0.054526
O O1 0.500000 0.669923 0.594032
O O2 0.244277 0.755403 0.608818
O O3 0.266772 0.585986 0.626331
O O4 0.246172 0.646479 0.543539
O O5 0.871637 0.500000 0.311761
O O6 0.720253 0.416564 0.251686
O O7 0.000000 0.500000 0.233577
O O8 0.238179 0.640330 0.826556
O O9 0.255837 0.583009 0.916386
O O10 0.000000 0.642872 0.882540
O O11 0.500000 0.000000 0.109401
O O12 0.250000 0.750000 0.750000
O O13 0.000000 0.817868 0.715177
O O14 0.000000 0.907680 0.000000
O O15 0.257040 0.000000 0.000000
O O16 0.500000 0.500000 0.054401
O O17 0.744628 0.500000 0.000000
#
# Coordination Sequence:
#
# PCOD8291827 Si02
#       7
#    16   8  16   8  16   8   8
#     4  10  21  37  61  88 120 160 203 249 300 360
#     4  11  24  42  64  90 123 164 210 260 317 378
#     4  11  24  42  68  97 126 165 218 275 328 388
#     4  11  23  37  57  89 128 163 197 245 301 366
#     4  12  25  43  67  96 132 171 215 268 328 397
#     4   9  16  32  58  85 116 153 195 242 288 344
#     4  11  26  47  68  93 132 178 223 278 344 405
#
# _framework density 20.896985999999998
#
# number of rings (size 3 to 8) (size 9 to 14) (size 15 to 20)
#    0.000    1.200    1.000    5.100    1.400    7.200 
#    0.000    1.000    0.000    0.000    0.000    0.000 
#    0.000    0.000    0.000    0.000    0.000    0.000 
#
# Total GULP energy -495611.736045 kJ/mol
# GULP energy per Si atom -12390.293401 kJ/mol
# Density = 2.084942 g / cm^3
# Si number density = 20.896986 Si / 1000 Ang^3
#
#
#
# Elastic Constant Matrix: (Units=GPa)
#
#
# Indices 1 2 3 4 5 6 
#
# 1 72.8337 32.8136 29.5784 0.0000 0.0000 0.0000
# 2 32.8136 173.3046 53.1521 0.0000 0.0000 0.0000
# 3 29.5784 53.1521 132.6206 0.0000 0.0000 0.0000
# 4 0.0000 0.0000 0.0000 42.7717 0.0000 0.0000
# 5 0.0000 0.0000 0.0000 0.0000 31.3682 0.0000
# 6 0.0000 0.0000 0.0000 0.0000 0.0000 24.6169
#
#
#
# Elastic Compliance Matrix: (Units=1/GPa)
#
#
# Indices 1 2 3 4 5 6 
#
# 1 0.015786 -0.002177 -0.002648 0.000000 0.000000 0.000000
# 2 -0.002177 0.006879 -0.002272 0.000000 0.000000 0.000000
# 3 -0.002648 -0.002272 0.009041 0.000000 0.000000 0.000000
# 4 0.000000 0.000000 0.000000 0.023380 0.000000 0.000000
# 5 0.000000 0.000000 0.000000 0.000000 0.031879 0.000000
# 6 0.000000 0.000000 0.000000 0.000000 0.000000 0.040623
#
#
# Mechanical properties :
#
#
# Convention : Reuss Voigt Hill
#
# Bulk Modulus (GPa) = 57.09961 67.76078 62.43020
# Shear Modulus (GPa) = 33.87089 37.29900 35.58494
#
# Velocity S-wave (km/s) = 4.03035 4.22939 4.13107
# Velocity P-wave (km/s) = 7.00299 7.50645 7.25909
#
# Compressibility (1/GPa) = 0.01751326
#
# Stress axis : x y z
#
# Youngs Moduli (GPa) = 63.34682 145.37014 110.60281
#
# Poissons Ratio (x) = 0.31643 0.29292
# Poissons Ratio (y) = 0.13789 0.25124
# Poissons Ratio (z) = 0.16777 0.33021
#
# Static dielectric constant tensor:
#      x y z
#    x 3.719680 0.000000 0.000000 
#    y 0.000000 4.023850 0.000000 
#    z 0.000000 0.000000 3.954940 
# 
# 
# High freq. dielectric constant tensor:
#      x y z
#    x 1.815300 0.000000 0.000000 
#    y 0.000000 1.833600 0.000000 
#    z 0.000000 0.000000 1.831830 
# 
# From -- ./inp_files/63111.got.cif
#   From: 2010.06.25/outbox.cif.g09.slc.cpg/sg71_32_cif.got.tgz:63111.got - 2010.06.28 04:59:45.
