data_PCOD8291727
_publ_section_title
;
Structure prediction by ZEFSAII (Michael W. Deem and Ramdas Pophale) SiO2 
 PCOD8291727
Probable space group: I M M M
;
_chemical_formula_sum "Si O2"
_cell_formula_units_Z 88
_cell_length_a 19.115162
_cell_length_b 24.594340
_cell_length_c 8.917213
_cell_angle_alpha 90.000000
_cell_angle_beta 90.000000
_cell_angle_gamma 90.000000
_cell_volume 4192.202919
_symmetry_space_group_name_H-M "I M M M"
_symmetry_group_IT_number 71
_symmetry_cell_setting 'orthorhombic'
loop_
_space_group_symop_operation_xyz
x,y,z
-x,-y,z
x,-y,-z
-x,y,-z
-x,-y,-z
x,y,-z
-x,y,z
x,-y,z
1/2+x,1/2+y,1/2+z
1/2-x,1/2-y,1/2+z
1/2+x,1/2-y,1/2-z
1/2-x,1/2+y,1/2-z
1/2-x,1/2-y,1/2-z
1/2+x,1/2+y,1/2-z
1/2-x,1/2+y,1/2+z
1/2+x,1/2-y,1/2+z
loop_
_atom_site_type_symbol
_atom_site_label
_atom_site_fract_x
_atom_site_fract_y
_atom_site_fract_z
Si Si1 0.922598 0.731635 0.176236
Si Si2 0.359640 0.937269 0.823876
Si Si3 0.653252 0.339015 0.324723
Si Si4 0.080652 0.061999 0.674464
Si Si5 0.500000 0.064296 0.332589
Si Si6 0.204711 0.341331 0.821812
O O1 0.906105 0.794596 0.212674
O O2 0.861173 0.693300 0.242150
O O3 0.000000 0.717711 0.243326
O O4 0.924276 0.722385 0.000000
O O5 0.432720 0.915536 0.757193
O O6 0.299819 0.902756 0.742151
O O7 0.346641 0.000000 0.784167
O O8 0.359294 0.927084 0.000000
O O9 0.669687 0.342131 0.500000
O O10 0.628823 0.398024 0.270046
O O11 0.722988 0.317826 0.241598
O O12 0.092639 0.074308 0.500000
O O13 0.000000 0.071288 0.718109
O O14 0.102314 0.000000 0.712021
O O15 0.500000 0.090084 0.500000
O O16 0.500000 0.000000 0.343285
O O17 0.207232 0.341515 0.000000
#
# Coordination Sequence:
#
# PCOD8291727 Si02
#       6
#    16  16  16  16   8  16
#     4   9  20  39  62  88 115 147 192 246 301 352
#     4  10  21  37  56  81 116 153 192 243 297 345
#     4  11  22  38  61  87 121 159 194 238 295 357
#     4   9  19  37  61  90 124 159 197 243 291 343
#     4   9  17  31  53  79 107 145 191 233 280 341
#     4  11  23  38  60  86 117 156 199 247 295 355
#
# _framework density 20.991351000000002
#
# number of rings (size 3 to 8) (size 9 to 14) (size 15 to 20)
#    0.000    2.091    0.000    3.545    1.273    4.364 
#    0.000    3.636    0.000    4.364    0.000    0.000 
#    0.000    0.000    0.000    0.000    0.000    0.000 
#
# Total GULP energy -545602.167400 kJ/mol
# GULP energy per Si atom -12400.049259 kJ/mol
# Density = 2.094357 g / cm^3
# Si number density = 20.991351 Si / 1000 Ang^3
#
#
#
# Elastic Constant Matrix: (Units=GPa)
#
#
# Indices 1 2 3 4 5 6 
#
# 1 125.6260 46.5408 38.8345 0.0000 0.0000 0.0000
# 2 46.5408 91.3803 37.0929 0.0000 0.0000 0.0000
# 3 38.8345 37.0929 83.1759 0.0000 0.0000 0.0000
# 4 0.0000 0.0000 0.0000 22.4282 0.0000 0.0000
# 5 0.0000 0.0000 0.0000 0.0000 33.5614 0.0000
# 6 0.0000 0.0000 0.0000 0.0000 0.0000 28.6820
#
#
#
# Elastic Compliance Matrix: (Units=1/GPa)
#
#
# Indices 1 2 3 4 5 6 
#
# 1 0.010408 -0.004064 -0.003047 0.000000 0.000000 0.000000
# 2 -0.004064 0.014949 -0.004769 0.000000 0.000000 0.000000
# 3 -0.003047 -0.004769 0.015572 0.000000 0.000000 0.000000
# 4 0.000000 0.000000 0.000000 0.044587 0.000000 0.000000
# 5 0.000000 0.000000 0.000000 0.000000 0.029796 0.000000
# 6 0.000000 0.000000 0.000000 0.000000 0.000000 0.034865
#
#
# Mechanical properties :
#
#
# Convention : Reuss Voigt Hill
#
# Bulk Modulus (GPa) = 58.24555 60.56874 59.40714
# Shear Modulus (GPa) = 27.83043 28.78193 28.30618
#
# Velocity S-wave (km/s) = 3.64511 3.70690 3.67613
# Velocity P-wave (km/s) = 6.74710 6.87301 6.81035
#
# Compressibility (1/GPa) = 0.01716869
#
# Stress axis : x y z
#
# Youngs Moduli (GPa) = 96.08393 66.89440 64.21712
#
# Poissons Ratio (x) = 0.27185 0.19567
# Poissons Ratio (y) = 0.39047 0.30626
# Poissons Ratio (z) = 0.29276 0.31903
#
# Static dielectric constant tensor:
#      x y z
#    x 3.989310 0.000000 0.000000 
#    y 0.000000 3.793120 0.000000 
#    z 0.000000 0.000000 3.568680 
# 
# 
# High freq. dielectric constant tensor:
#      x y z
#    x 1.826460 0.000000 0.000000 
#    y 0.000000 1.828400 0.000000 
#    z 0.000000 0.000000 1.803870 
# 
# From -- ./inp_files/10497.got.cif
#   From: 2010.06.25/outbox.cif.g09.slc.cpg/sg71_6_cif.got.tgz:10497.got - 2010.06.28 04:59:45.
