data_PCOD8291172
_publ_section_title
;
Structure prediction by ZEFSAII (Michael W. Deem and Ramdas Pophale) SiO2 
 PCOD8291172
Probable space group: I M M M
;
_chemical_formula_sum "Si O2"
_cell_formula_units_Z 104
_cell_length_a 27.087844
_cell_length_b 22.076766
_cell_length_c 9.230815
_cell_angle_alpha 90.000000
_cell_angle_beta 90.000000
_cell_angle_gamma 90.000000
_cell_volume 5520.138079
_symmetry_space_group_name_H-M "I M M M"
_symmetry_group_IT_number 71
_symmetry_cell_setting 'orthorhombic'
loop_
_space_group_symop_operation_xyz
x,y,z
-x,-y,z
x,-y,-z
-x,y,-z
-x,-y,-z
x,y,-z
-x,y,z
x,-y,z
1/2+x,1/2+y,1/2+z
1/2-x,1/2-y,1/2+z
1/2+x,1/2-y,1/2-z
1/2-x,1/2+y,1/2-z
1/2-x,1/2-y,1/2-z
1/2+x,1/2+y,1/2-z
1/2-x,1/2+y,1/2+z
1/2+x,1/2-y,1/2+z
loop_
_atom_site_type_symbol
_atom_site_label
_atom_site_fract_x
_atom_site_fract_y
_atom_site_fract_z
Si Si1 0.000000 0.569368 0.671464
Si Si2 0.944616 0.213921 0.164650
Si Si3 0.820141 0.000000 0.831128
Si Si4 0.644204 0.369809 0.668453
Si Si5 0.770187 0.194593 0.337770
Si Si6 0.172164 0.377911 0.838443
Si Si7 0.283927 0.000000 0.329890
Si Si8 0.418629 0.834782 0.828317
O O1 0.047994 0.607828 0.722930
O O2 0.000000 0.500000 0.735849
O O3 0.000000 0.564607 0.500000
O O4 0.909474 0.157481 0.206728
O O5 0.938696 0.271946 0.266613
O O6 0.000000 0.188891 0.181414
O O7 0.933650 0.234893 0.000000
O O8 0.852517 0.940831 0.788754
O O9 0.767987 0.000000 0.751343
O O10 0.807670 0.000000 0.000000
O O11 0.657128 0.360885 0.500000
O O12 0.682231 0.331600 0.760969
O O13 0.784980 0.214577 0.500000
O O14 0.750000 0.250000 0.250000
O O15 0.727556 0.145709 0.340240
O O16 0.179889 0.445877 0.784470
O O17 0.137023 0.343171 0.727455
O O18 0.149050 0.373563 0.000000
O O19 0.271292 0.000000 0.500000
O O20 0.418692 0.829407 0.000000
#
# Coordination Sequence:
#
# PCOD8291172 Si02
#       8
#     8  16   8  16  16  16   8  16
#     4   9  20  38  55  77 111 146 181 230 288 339
#     4  10  21  39  61  83 113 152 192 236 294 353
#     4  10  20  36  59  86 117 149 192 244 290 345
#     4  10  21  37  58  85 115 150 192 240 293 350
#     4  11  22  36  55  80 113 149 185 229 280 338
#     4  10  22  37  54  79 112 146 181 223 272 333
#     4  10  20  38  58  78 112 153 191 229 276 342
#     4  11  22  37  60  85 112 146 190 240 287 337
#
# _framework density 18.840109000000002
#
# number of rings (size 3 to 8) (size 9 to 14) (size 15 to 20)
#    0.000    1.769    2.308    1.846    1.077    6.154 
#    0.000    0.385    0.000    4.154    0.000    0.000 
#    0.000    3.077    0.000    0.000    0.000    0.000 
#
# Total GULP energy -644689.355732 kJ/mol
# GULP energy per Si atom -12397.872226 kJ/mol
# Density = 1.879723 g / cm^3
# Si number density = 18.840109 Si / 1000 Ang^3
#
#
#
# Elastic Constant Matrix: (Units=GPa)
#
#
# Indices 1 2 3 4 5 6 
#
# 1 121.0488 50.3776 46.9153 0.0000 0.0000 0.0000
# 2 50.3776 111.3882 48.8724 0.0000 0.0000 0.0000
# 3 46.9153 48.8724 77.4956 0.0000 0.0000 0.0000
# 4 0.0000 0.0000 0.0000 25.9359 0.0000 0.0000
# 5 0.0000 0.0000 0.0000 0.0000 25.1367 0.0000
# 6 0.0000 0.0000 0.0000 0.0000 0.0000 19.9219
#
#
#
# Elastic Compliance Matrix: (Units=1/GPa)
#
#
# Indices 1 2 3 4 5 6 
#
# 1 0.011457 -0.002957 -0.005072 0.000000 0.000000 0.000000
# 2 -0.002957 0.013175 -0.006519 0.000000 0.000000 0.000000
# 3 -0.005072 -0.006519 0.020085 0.000000 0.000000 0.000000
# 4 0.000000 0.000000 0.000000 0.038557 0.000000 0.000000
# 5 0.000000 0.000000 0.000000 0.000000 0.039783 0.000000
# 6 0.000000 0.000000 0.000000 0.000000 0.000000 0.050196
#
#
# Mechanical properties :
#
#
# Convention : Reuss Voigt Hill
#
# Bulk Modulus (GPa) = 64.00605 66.91814 65.46210
# Shear Modulus (GPa) = 24.09006 25.11671 24.60339
#
# Velocity S-wave (km/s) = 3.57971 3.65520 3.61765
# Velocity P-wave (km/s) = 7.15072 7.30822 7.22990
#
# Compressibility (1/GPa) = 0.01562352
#
# Stress axis : x y z
#
# Youngs Moduli (GPa) = 87.28159 75.90136 49.78757
#
# Poissons Ratio (x) = 0.22441 0.25250
# Poissons Ratio (y) = 0.25805 0.32456
# Poissons Ratio (z) = 0.44265 0.49479
#
# Static dielectric constant tensor:
#      x y z
#    x 3.383370 0.000000 0.000000 
#    y 0.000000 0.908780 0.000000 
#    z 0.000000 0.000000 3.483270 
# 
# 
# High freq. dielectric constant tensor:
#      x y z
#    x 1.730520 0.000000 0.000000 
#    y 0.000000 1.739930 0.000000 
#    z 0.000000 0.000000 1.725930 
# 
# From -- ./inp_files/17068.got.cif
#   From: 2010.06.25/outbox.cif.g09.slc.cpg/sg71_9_cif.got.tgz:17068.got - 2010.06.28 04:59:45.
