data_PCOD8291951
_publ_section_title
;
Structure prediction by ZEFSAII (Michael W. Deem and Ramdas Pophale) SiO2 
 PCOD8291951
Probable space group: I M M M
;
_chemical_formula_sum "Si O2"
_cell_formula_units_Z 72
_cell_length_a 22.333353
_cell_length_b 17.590440
_cell_length_c 8.831930
_cell_angle_alpha 90.000000
_cell_angle_beta 90.000000
_cell_angle_gamma 90.000000
_cell_volume 3469.654665
_symmetry_space_group_name_H-M "I M M M"
_symmetry_group_IT_number 71
_symmetry_cell_setting 'orthorhombic'
loop_
_space_group_symop_operation_xyz
x,y,z
-x,-y,z
x,-y,-z
-x,y,-z
-x,-y,-z
x,y,-z
-x,y,z
x,-y,z
1/2+x,1/2+y,1/2+z
1/2-x,1/2-y,1/2+z
1/2+x,1/2-y,1/2-z
1/2-x,1/2+y,1/2-z
1/2-x,1/2-y,1/2-z
1/2+x,1/2+y,1/2-z
1/2-x,1/2+y,1/2+z
1/2+x,1/2-y,1/2+z
loop_
_atom_site_type_symbol
_atom_site_label
_atom_site_fract_x
_atom_site_fract_y
_atom_site_fract_z
Si Si1 0.339074 0.687165 0.676747
Si Si2 0.378755 0.851052 0.320345
Si Si3 0.500000 0.911721 0.820354
Si Si4 0.232063 0.414857 0.324179
Si Si5 0.068043 0.912569 0.330207
O O1 0.329934 0.693142 0.500000
O O2 0.352706 0.770666 0.742746
O O3 0.279312 0.646784 0.743890
O O4 0.395772 0.635112 0.709281
O O5 0.387614 0.851212 0.500000
O O6 0.441971 0.869583 0.244615
O O7 0.329555 0.912311 0.269764
O O8 0.500000 0.000000 0.769887
O O9 0.500000 0.904102 0.000000
O O10 0.218119 0.398701 0.500000
O O11 0.258673 0.500000 0.303904
O O12 0.093056 0.899339 0.500000
O O13 0.000000 0.884755 0.321794
O O14 0.073056 0.000000 0.284393
#
# Coordination Sequence:
#
# PCOD8291951 Si02
#       5
#    16  16   8  16  16
#     4  10  22  38  58  86 121 157 196 241 294 355
#     4  11  24  40  61  91 124 155 195 249 302 352
#     4  11  25  45  67  89 116 157 204 245 295 358
#     4  10  21  39  62  87 118 158 202 244 291 354
#     4   9  19  35  54  80 115 154 199 248 295 347
#
# _framework density 20.751346000000002
#
# number of rings (size 3 to 8) (size 9 to 14) (size 15 to 20)
#    0.000    1.889    0.000    3.667    1.556    8.444 
#    0.000    1.111    0.000    0.000    0.000    0.000 
#    0.000    0.000    0.000    0.000    0.000    0.000 
#
# Total GULP energy -446396.983860 kJ/mol
# GULP energy per Si atom -12399.916218 kJ/mol
# Density = 2.070411 g / cm^3
# Si number density = 20.751346 Si / 1000 Ang^3
#
#
#
# Elastic Constant Matrix: (Units=GPa)
#
#
# Indices 1 2 3 4 5 6 
#
# 1 128.5229 72.7115 39.1880 0.0000 0.0000 0.0000
# 2 72.7115 107.1867 34.2878 0.0000 0.0000 0.0000
# 3 39.1880 34.2878 41.8152 0.0000 0.0000 0.0000
# 4 0.0000 0.0000 0.0000 30.5060 0.0000 0.0000
# 5 0.0000 0.0000 0.0000 0.0000 37.3564 0.0000
# 6 0.0000 0.0000 0.0000 0.0000 0.0000 22.1677
#
#
#
# Elastic Compliance Matrix: (Units=1/GPa)
#
#
# Indices 1 2 3 4 5 6 
#
# 1 0.014090 -0.007231 -0.007276 0.000000 0.000000 0.000000
# 2 -0.007231 0.016357 -0.006637 0.000000 0.000000 0.000000
# 3 -0.007276 -0.006637 0.036175 0.000000 0.000000 0.000000
# 4 0.000000 0.000000 0.000000 0.032780 0.000000 0.000000
# 5 0.000000 0.000000 0.000000 0.000000 0.026769 0.000000
# 6 0.000000 0.000000 0.000000 0.000000 0.000000 0.045111
#
#
# Mechanical properties :
#
#
# Convention : Reuss Voigt Hill
#
# Bulk Modulus (GPa) = 41.08994 63.32215 52.20605
# Shear Modulus (GPa) = 22.55501 26.76185 24.65843
#
# Velocity S-wave (km/s) = 3.30042 3.59506 3.45088
# Velocity P-wave (km/s) = 5.86240 6.91473 6.41020
#
# Compressibility (1/GPa) = 0.02433686
#
# Stress axis : x y z
#
# Youngs Moduli (GPa) = 70.97320 61.13415 27.64343
#
# Poissons Ratio (x) = 0.44204 0.20112
# Poissons Ratio (y) = 0.51318 0.18346
# Poissons Ratio (z) = 0.51637 0.40572
#
# Static dielectric constant tensor:
#      x y z
#    x 3.764230 0.000000 0.000000 
#    y 0.000000 3.996480 0.000000 
#    z 0.000000 0.000000 3.566090 
# 
# 
# High freq. dielectric constant tensor:
#      x y z
#    x 1.819980 0.000000 0.000000 
#    y 0.000000 1.822060 0.000000 
#    z 0.000000 0.000000 1.797990 
# 
# From -- ./inp_files/10132.got.cif
#   From: 2010.06.25/outbox.cif.g09.slc.cpg/sg71_6_cif.got.tgz:10132.got - 2010.06.28 04:59:45.
