data_PCOD8291462
_publ_section_title
;
Structure prediction by ZEFSAII (Michael W. Deem and Ramdas Pophale) SiO2 
 PCOD8291462
Probable space group: I M M M
;
_chemical_formula_sum "Si O2"
_cell_formula_units_Z 88
_cell_length_a 8.987291
_cell_length_b 17.990043
_cell_length_c 30.481534
_cell_angle_alpha 90.000000
_cell_angle_beta 90.000000
_cell_angle_gamma 90.000000
_cell_volume 4928.307807
_symmetry_space_group_name_H-M "I M M M"
_symmetry_group_IT_number 71
_symmetry_cell_setting 'orthorhombic'
loop_
_space_group_symop_operation_xyz
x,y,z
-x,-y,z
x,-y,-z
-x,y,-z
-x,-y,-z
x,y,-z
-x,y,z
x,-y,z
1/2+x,1/2+y,1/2+z
1/2-x,1/2-y,1/2+z
1/2+x,1/2-y,1/2-z
1/2-x,1/2+y,1/2-z
1/2-x,1/2-y,1/2-z
1/2+x,1/2+y,1/2-z
1/2-x,1/2+y,1/2+z
1/2+x,1/2-y,1/2+z
loop_
_atom_site_type_symbol
_atom_site_label
_atom_site_fract_x
_atom_site_fract_y
_atom_site_fract_z
Si Si1 0.175444 0.728598 0.295021
Si Si2 0.831234 0.915797 0.826000
Si Si3 0.325117 0.086007 0.450379
Si Si4 0.174291 0.198080 0.615564
Si Si5 0.668802 0.339397 0.414933
Si Si6 0.323211 0.580624 0.500000
O O1 0.250000 0.750000 0.250000
O O2 0.223864 0.643890 0.303750
O O3 0.224692 0.787355 0.333435
O O4 0.000000 0.729978 0.289913
O O5 0.826660 0.902382 0.877904
O O6 0.000000 0.904856 0.808494
O O7 0.776718 0.000000 0.816070
O O8 0.274103 0.111194 0.500000
O O9 0.500000 0.098250 0.446435
O O10 0.250779 0.129890 0.409889
O O11 0.282748 0.000000 0.443918
O O12 0.217094 0.273029 0.591315
O O13 0.000000 0.183869 0.613268
O O14 0.500000 0.308262 0.419966
O O15 0.733435 0.376294 0.457998
O O16 0.248808 0.500000 0.500000
O O17 0.500000 0.574172 0.500000
#
# Coordination Sequence:
#
# PCOD8291462 Si02
#       6
#    16  16  16  16  16   8
#     4  10  21  37  56  78 105 137 175 219 268 320
#     4   9  17  31  52  76 102 134 172 213 258 306
#     4   9  19  36  57  80 106 138 178 222 265 314
#     4  10  21  35  52  77 106 136 170 212 261 315
#     4   9  17  29  47  71 100 136 174 211 247 289
#     4   9  16  26  43  69  98 129 170 213 243 272
#
# _framework density 17.856027999999998
#
# number of rings (size 3 to 8) (size 9 to 14) (size 15 to 20)
#    0.000    2.636    0.000    2.182    1.273    5.455 
#    0.000    1.818    0.000    3.273    0.000    0.000 
#    0.000    0.000    0.000    0.000    0.000    0.000 
#
# Total GULP energy -545217.698653 kJ/mol
# GULP energy per Si atom -12391.311333 kJ/mol
# Density = 1.781539 g / cm^3
# Si number density = 17.856028 Si / 1000 Ang^3
#
#
#
# Elastic Constant Matrix: (Units=GPa)
#
#
# Indices 1 2 3 4 5 6 
#
# 1 54.0111 42.7622 52.0646 0.0000 0.0000 0.0000
# 2 42.7622 108.1723 75.5436 0.0000 0.0000 0.0000
# 3 52.0646 75.5436 150.2990 0.0000 0.0000 0.0000
# 4 0.0000 0.0000 0.0000 18.8805 0.0000 0.0000
# 5 0.0000 0.0000 0.0000 0.0000 25.7383 0.0000
# 6 0.0000 0.0000 0.0000 0.0000 0.0000 20.2840
#
#
#
# Elastic Compliance Matrix: (Units=1/GPa)
#
#
# Indices 1 2 3 4 5 6 
#
# 1 0.031198 -0.007374 -0.007101 0.000000 0.000000 0.000000
# 2 -0.007374 0.015987 -0.005481 0.000000 0.000000 0.000000
# 3 -0.007101 -0.005481 0.011868 0.000000 0.000000 0.000000
# 4 0.000000 0.000000 0.000000 0.052965 0.000000 0.000000
# 5 0.000000 0.000000 0.000000 0.000000 0.038853 0.000000
# 6 0.000000 0.000000 0.000000 0.000000 0.000000 0.049300
#
#
# Mechanical properties :
#
#
# Convention : Reuss Voigt Hill
#
# Bulk Modulus (GPa) = 52.24297 72.58036 62.41166
# Shear Modulus (GPa) = 20.28698 22.45469 21.37084
#
# Velocity S-wave (km/s) = 3.37433 3.55003 3.46329
# Velocity P-wave (km/s) = 6.67105 7.58547 7.14291
#
# Compressibility (1/GPa) = 0.01914133
#
# Stress axis : x y z
#
# Youngs Moduli (GPa) = 32.05349 62.54894 84.25910
#
# Poissons Ratio (x) = 0.46124 0.59831
# Poissons Ratio (y) = 0.23636 0.46184
# Poissons Ratio (z) = 0.22760 0.34285
#
# Static dielectric constant tensor:
#      x y z
#    x 3.164630 0.000000 0.000000 
#    y 0.000000 3.322700 0.000000 
#    z 0.000000 0.000000 3.459540 
# 
# 
# High freq. dielectric constant tensor:
#      x y z
#    x 1.676710 0.000000 0.000000 
#    y 0.000000 1.688290 0.000000 
#    z 0.000000 0.000000 1.691520 
# 
# From -- ./inp_files/8791.got.cif
#   From: 2010.06.25/outbox.cif.g09.slc.cpg/sg71_5_cif.got.tgz:8791.got - 2010.06.28 04:59:45.
