data_PCOD8291864
_publ_section_title
;
Structure prediction by ZEFSAII (Michael W. Deem and Ramdas Pophale) SiO2 
 PCOD8291864
Probable space group: I M M M
;
_chemical_formula_sum "Si O2"
_cell_formula_units_Z 72
_cell_length_a 7.757622
_cell_length_b 19.192029
_cell_length_c 25.063680
_cell_angle_alpha 90.000000
_cell_angle_beta 90.000000
_cell_angle_gamma 90.000000
_cell_volume 3731.593625
_symmetry_space_group_name_H-M "I M M M"
_symmetry_group_IT_number 71
_symmetry_cell_setting 'orthorhombic'
loop_
_space_group_symop_operation_xyz
x,y,z
-x,-y,z
x,-y,-z
-x,y,-z
-x,-y,-z
x,y,-z
-x,y,z
x,-y,z
1/2+x,1/2+y,1/2+z
1/2-x,1/2-y,1/2+z
1/2+x,1/2-y,1/2-z
1/2-x,1/2+y,1/2-z
1/2-x,1/2-y,1/2-z
1/2+x,1/2+y,1/2-z
1/2-x,1/2+y,1/2+z
1/2+x,1/2-y,1/2+z
loop_
_atom_site_type_symbol
_atom_site_label
_atom_site_fract_x
_atom_site_fract_y
_atom_site_fract_z
Si Si1 0.798482 0.079191 0.000000
Si Si2 0.810588 0.421610 0.789127
Si Si3 0.000000 0.796693 0.441030
Si Si4 0.699909 0.314544 0.712465
Si Si5 0.703164 0.307434 0.412249
Si Si6 0.000000 0.917943 0.362175
O O1 0.746508 0.122713 0.053760
O O2 0.000000 0.068961 0.000000
O O3 0.715945 0.000000 0.000000
O O4 0.767772 0.500000 0.773182
O O5 0.805304 0.379990 0.734100
O O6 0.669655 0.394129 0.830299
O O7 0.000000 0.413770 0.815487
O O8 0.175824 0.754338 0.431839
O O9 0.000000 0.871148 0.413473
O O10 0.000000 0.823068 0.500000
O O11 0.500000 0.328975 0.719131
O O12 0.750000 0.250000 0.750000
O O13 0.748287 0.311104 0.650394
O O14 0.500000 0.289941 0.421157
O O15 0.000000 0.000000 0.376389
#
# Coordination Sequence:
#
# PCOD8291864 Si02
#       6
#     8  16   8  16  16   8
#     4   9  18  39  65  85 114 160 204 244 292 349
#     4  10  21  38  59  85 121 160 195 236 295 359
#     4  12  24  39  64  88 112 156 201 251 311 359
#     4  11  22  35  57  88 121 158 198 245 295 352
#     4  10  23  40  58  87 124 157 199 249 301 355
#     4  10  22  41  62  86 120 155 196 248 302 368
#
# _framework density 19.294705
#
# number of rings (size 3 to 8) (size 9 to 14) (size 15 to 20)
#    0.000    1.667    2.222    2.000    3.111    3.778 
#    0.000    3.333    0.000    0.000    0.000    4.667 
#    0.000    0.000    0.000    0.000    0.000    0.000 
#
# Total GULP energy -446075.389084 kJ/mol
# GULP energy per Si atom -12390.983030 kJ/mol
# Density = 1.925079 g / cm^3
# Si number density = 19.294705 Si / 1000 Ang^3
#
#
#
# Elastic Constant Matrix: (Units=GPa)
#
#
# Indices 1 2 3 4 5 6 
#
# 1 90.7400 27.3664 42.6849 0.0000 0.0000 0.0000
# 2 27.3664 91.7697 76.7242 0.0000 0.0000 0.0000
# 3 42.6849 76.7242 165.9863 0.0000 0.0000 0.0000
# 4 0.0000 0.0000 0.0000 37.1952 0.0000 0.0000
# 5 0.0000 0.0000 0.0000 0.0000 18.3379 0.0000
# 6 0.0000 0.0000 0.0000 0.0000 0.0000 24.8533
#
#
#
# Elastic Compliance Matrix: (Units=1/GPa)
#
#
# Indices 1 2 3 4 5 6 
#
# 1 0.012702 -0.001723 -0.002470 0.000000 0.000000 0.000000
# 2 -0.001723 0.017994 -0.007874 0.000000 0.000000 0.000000
# 3 -0.002470 -0.007874 0.010300 0.000000 0.000000 0.000000
# 4 0.000000 0.000000 0.000000 0.026885 0.000000 0.000000
# 5 0.000000 0.000000 0.000000 0.000000 0.054532 0.000000
# 6 0.000000 0.000000 0.000000 0.000000 0.000000 0.040236
#
#
# Mechanical properties :
#
#
# Convention : Reuss Voigt Hill
#
# Bulk Modulus (GPa) = 59.30787 71.33856 65.32322
# Shear Modulus (GPa) = 25.98705 29.52532 27.75618
#
# Velocity S-wave (km/s) = 3.67393 3.91606 3.79692
# Velocity P-wave (km/s) = 6.98581 7.58292 7.29048
#
# Compressibility (1/GPa) = 0.01686117
#
# Stress axis : x y z
#
# Youngs Moduli (GPa) = 78.72757 55.57428 97.09101
#
# Poissons Ratio (x) = 0.09573 0.23983
# Poissons Ratio (y) = 0.13562 0.76453
# Poissons Ratio (z) = 0.19447 0.43761
#
# Static dielectric constant tensor:
#      x y z
#    x 3.871470 0.000000 0.000000 
#    y 0.000000 3.586570 0.000000 
#    z 0.000000 0.000000 3.786900 
# 
# 
# High freq. dielectric constant tensor:
#      x y z
#    x 1.764360 0.000000 0.000000 
#    y 0.000000 1.750660 0.000000 
#    z 0.000000 0.000000 1.746860 
# 
# From -- ./inp_files/42101.got.cif
#   From: 2010.06.25/outbox.cif.g09.slc.cpg/sg71_22_cif.got.tgz:42101.got - 2010.06.28 04:59:45.
