data_PCOD8291055
_publ_section_title
;
Structure prediction by ZEFSAII (Michael W. Deem and Ramdas Pophale) SiO2 
 PCOD8291055
Probable space group: I M M M
;
_chemical_formula_sum "Si O2"
_cell_formula_units_Z 96
_cell_length_a 26.962217
_cell_length_b 7.559082
_cell_length_c 25.348958
_cell_angle_alpha 90.000000
_cell_angle_beta 90.000000
_cell_angle_gamma 90.000000
_cell_volume 5166.361224
_symmetry_space_group_name_H-M "I M M M"
_symmetry_group_IT_number 71
_symmetry_cell_setting 'orthorhombic'
loop_
_space_group_symop_operation_xyz
x,y,z
-x,-y,z
x,-y,-z
-x,y,-z
-x,-y,-z
x,y,-z
-x,y,z
x,-y,z
1/2+x,1/2+y,1/2+z
1/2-x,1/2-y,1/2+z
1/2+x,1/2-y,1/2-z
1/2-x,1/2+y,1/2-z
1/2-x,1/2-y,1/2-z
1/2+x,1/2+y,1/2-z
1/2-x,1/2+y,1/2+z
1/2+x,1/2-y,1/2+z
loop_
_atom_site_type_symbol
_atom_site_label
_atom_site_fract_x
_atom_site_fract_y
_atom_site_fract_z
Si Si1 0.372201 0.700486 0.653830
Si Si2 0.558008 0.000000 0.684966
Si Si3 0.804510 0.790368 0.558265
Si Si4 0.871170 0.789403 0.345639
Si Si5 0.557875 0.000000 0.190711
Si Si6 0.806106 0.706895 0.939494
Si Si7 0.693013 0.705360 0.251642
O O1 0.388822 0.500000 0.667497
O O2 0.346569 0.697415 0.596681
O O3 0.332798 0.782007 0.695897
O O4 0.420256 0.825064 0.656750
O O5 0.569856 0.000000 0.747177
O O6 0.500000 0.000000 0.673873
O O7 0.819247 0.719496 0.500000
O O8 0.846152 0.728810 0.599435
O O9 0.749424 0.721319 0.573713
O O10 0.801257 0.000000 0.557318
O O11 0.921155 0.678151 0.336813
O O12 0.833200 0.723179 0.300783
O O13 0.882671 0.000000 0.344024
O O14 0.500000 0.000000 0.179518
O O15 0.809340 0.500000 0.928051
O O16 0.819128 0.750417 0.000000
O O17 0.685196 0.500000 0.253246
O O18 0.750000 0.750000 0.250000
#
# Coordination Sequence:
#
# PCOD8291055 Si02
#       7
#    16   8  16  16   8  16  16
#     4  11  22  37  56  83 115 145 186 234 284 336
#     4  11  24  42  63  81 107 149 194 243 297 342
#     4   8  15  30  54  83 116 157 194 223 269 333
#     4  10  20  36  55  81 114 145 186 235 284 334
#     4  11  24  40  61  83 107 147 196 243 297 344
#     4   9  17  32  56  84 117 157 192 223 266 331
#     4  10  21  31  49  80 112 149 181 216 275 340
#
# _framework density 18.581742999999999
#
# number of rings (size 3 to 8) (size 9 to 14) (size 15 to 20)
#    0.000    2.167    2.500    2.000    2.333    2.333 
#    1.500    2.083    0.000    2.000    0.000    3.500 
#    0.000    0.000    0.000    0.000    0.000    0.000 
#
# Total GULP energy -595046.776153 kJ/mol
# GULP energy per Si atom -12396.807837 kJ/mol
# Density = 1.853945 g / cm^3
# Si number density = 18.581743 Si / 1000 Ang^3
#
#
#
# Elastic Constant Matrix: (Units=GPa)
#
#
# Indices 1 2 3 4 5 6 
#
# 1 127.2809 49.4344 62.7345 0.0000 0.0000 0.0000
# 2 49.4344 80.3492 32.5900 0.0000 0.0000 0.0000
# 3 62.7345 32.5900 115.8944 0.0000 0.0000 0.0000
# 4 0.0000 0.0000 0.0000 17.1123 0.0000 0.0000
# 5 0.0000 0.0000 0.0000 0.0000 26.4660 0.0000
# 6 0.0000 0.0000 0.0000 0.0000 0.0000 20.9438
#
#
#
# Elastic Compliance Matrix: (Units=1/GPa)
#
#
# Indices 1 2 3 4 5 6 
#
# 1 0.012639 -0.005645 -0.005254 0.000000 0.000000 0.000000
# 2 -0.005645 0.016569 -0.001604 0.000000 0.000000 0.000000
# 3 -0.005254 -0.001604 0.011924 0.000000 0.000000 0.000000
# 4 0.000000 0.000000 0.000000 0.058437 0.000000 0.000000
# 5 0.000000 0.000000 0.000000 0.000000 0.037784 0.000000
# 6 0.000000 0.000000 0.000000 0.000000 0.000000 0.047747
#
#
# Mechanical properties :
#
#
# Convention : Reuss Voigt Hill
#
# Bulk Modulus (GPa) = 62.01105 68.11580 65.06342
# Shear Modulus (GPa) = 23.20397 24.82213 24.01305
#
# Velocity S-wave (km/s) = 3.53760 3.65887 3.59875
# Velocity P-wave (km/s) = 7.08030 7.38828 7.23593
#
# Compressibility (1/GPa) = 0.01612616
#
# Stress axis : x y z
#
# Youngs Moduli (GPa) = 79.12248 60.35347 83.86748
#
# Poissons Ratio (x) = 0.34068 0.44064
# Poissons Ratio (y) = 0.44663 0.13450
# Poissons Ratio (z) = 0.41571 0.09679
#
# Static dielectric constant tensor:
#      x y z
#    x 3.124830 0.000000 0.000000 
#    y 0.000000 4.005950 0.000000 
#    z 0.000000 0.000000 3.743090 
# 
# 
# High freq. dielectric constant tensor:
#      x y z
#    x 1.690890 0.000000 0.000000 
#    y 0.000000 1.720670 0.000000 
#    z 0.000000 0.000000 1.724710 
# 
# From -- ./inp_files/61560.got.cif
#   From: 2010.06.25/outbox.cif.g09.slc.cpg/sg71_31_cif.got.tgz:61560.got - 2010.06.28 04:59:45.
