data_PCOD8291129
_publ_section_title
;
Structure prediction by ZEFSAII (Michael W. Deem and Ramdas Pophale) SiO2 
 PCOD8291129
Probable space group: I M M M
;
_chemical_formula_sum "Si O2"
_cell_formula_units_Z 104
_cell_length_a 13.006071
_cell_length_b 28.084813
_cell_length_c 14.063100
_cell_angle_alpha 90.000000
_cell_angle_beta 90.000000
_cell_angle_gamma 90.000000
_cell_volume 5136.871737
_symmetry_space_group_name_H-M "I M M M"
_symmetry_group_IT_number 71
_symmetry_cell_setting 'orthorhombic'
loop_
_space_group_symop_operation_xyz
x,y,z
-x,-y,z
x,-y,-z
-x,y,-z
-x,-y,-z
x,y,-z
-x,y,z
x,-y,z
1/2+x,1/2+y,1/2+z
1/2-x,1/2-y,1/2+z
1/2+x,1/2-y,1/2-z
1/2-x,1/2+y,1/2-z
1/2-x,1/2-y,1/2-z
1/2+x,1/2+y,1/2-z
1/2-x,1/2+y,1/2+z
1/2+x,1/2-y,1/2+z
loop_
_atom_site_type_symbol
_atom_site_label
_atom_site_fract_x
_atom_site_fract_y
_atom_site_fract_z
Si Si1 0.115420 0.554159 0.789442
Si Si2 0.115336 0.710391 0.607536
Si Si3 0.500000 0.446648 0.886826
Si Si4 0.383936 0.694474 0.792576
Si Si5 0.312318 0.652570 0.607110
Si Si6 0.260590 0.947299 0.892462
Si Si7 0.797776 0.892676 0.387807
O O1 0.122685 0.500000 0.825918
O O2 0.143321 0.556977 0.678119
O O3 0.192290 0.584843 0.852606
O O4 0.000000 0.573926 0.802918
O O5 0.122440 0.731002 0.500000
O O6 0.147287 0.751519 0.682408
O O7 0.192353 0.666356 0.620547
O O8 0.000000 0.691968 0.629096
O O9 0.500000 0.500000 0.846580
O O10 0.396703 0.421520 0.848394
O O11 0.500000 0.446137 0.000000
O O12 0.500000 0.685514 0.829235
O O13 0.379925 0.683770 0.679500
O O14 0.304873 0.660566 0.847652
O O15 0.350985 0.663662 0.500000
O O16 0.320291 0.595668 0.629270
O O17 0.208185 0.000000 0.880630
O O18 0.302232 0.940822 0.000000
O O19 0.796465 0.891391 0.500000
#
# Coordination Sequence:
#
# PCOD8291129 Si02
#       7
#    16  16   8  16  16  16  16
#     4  10  21  36  54  79 112 151 191 233 289 354
#     4   9  19  35  58  87 116 145 183 235 290 344
#     4   9  18  32  52  78 103 135 187 243 285 323
#     4  11  21  36  57  84 115 149 190 238 289 339
#     4  10  20  36  58  84 114 149 189 233 284 345
#     4   9  18  34  57  83 112 147 188 236 284 330
#     4  11  21  35  55  79 109 147 191 239 288 341
#
# _framework density 20.245785000000001
#
# number of rings (size 3 to 8) (size 9 to 14) (size 15 to 20)
#    0.000    2.077    2.308    1.385    0.000    3.077 
#    0.000    3.846    0.000    0.000    0.000    4.308 
#    0.000    0.000    0.000    0.000    0.000    0.000 
#
# Total GULP energy -644641.524706 kJ/mol
# GULP energy per Si atom -12396.952398 kJ/mol
# Density = 2.019970 g / cm^3
# Si number density = 20.245785 Si / 1000 Ang^3
#
#
#
# Elastic Constant Matrix: (Units=GPa)
#
#
# Indices 1 2 3 4 5 6 
#
# 1 52.5441 5.3807 12.6298 -0.0002 -0.0001 0.0000
# 2 5.3807 80.9557 25.8179 -0.0002 0.0000 0.0001
# 3 12.6298 25.8179 84.4727 0.0001 -0.0001 0.0001
# 4 -0.0002 -0.0002 0.0001 28.6249 0.0000 0.0000
# 5 -0.0001 0.0000 -0.0001 0.0000 26.8608 -0.0001
# 6 0.0000 0.0001 0.0001 0.0000 -0.0001 23.7232
#
#
#
# Elastic Compliance Matrix: (Units=1/GPa)
#
#
# Indices 1 2 3 4 5 6 
#
# 1 0.019753 -0.000411 -0.002828 0.000000 0.000000 0.000000
# 2 -0.000411 0.013695 -0.004124 0.000000 0.000000 0.000000
# 3 -0.002828 -0.004124 0.013521 0.000000 0.000000 0.000000
# 4 0.000000 0.000000 0.000000 0.034935 0.000000 0.000000
# 5 0.000000 0.000000 0.000000 0.000000 0.037229 0.000000
# 6 0.000000 0.000000 0.000000 0.000000 0.000000 0.042153
#
#
# Mechanical properties :
#
#
# Convention : Reuss Voigt Hill
#
# Bulk Modulus (GPa) = 31.01377 33.95881 32.48629
# Shear Modulus (GPa) = 26.77228 27.45140 27.11184
#
# Velocity S-wave (km/s) = 3.64038 3.68626 3.66339
# Velocity P-wave (km/s) = 5.74645 5.90997 5.82878
#
# Compressibility (1/GPa) = 0.03224374
#
# Stress axis : x y z
#
# Youngs Moduli (GPa) = 50.62415 73.01922 73.95655
#
# Poissons Ratio (x) = 0.03002 0.20913
# Poissons Ratio (y) = 0.02081 0.30501
# Poissons Ratio (z) = 0.14315 0.30115
#
# Static dielectric constant tensor:
#      x y z
#    x 3.431710 0.000000 0.000000 
#    y 0.000000 3.748750 0.000000 
#    z 0.000000 0.000000 3.680490 
# 
# 
# High freq. dielectric constant tensor:
#      x y z
#    x 1.763400 0.000000 0.000000 
#    y 0.000000 1.792500 0.000000 
#    z 0.000000 0.000000 1.791130 
# 
# From -- ./inp_files/33304.got.cif
#   From: 2010.06.25/outbox.cif.g09.slc.cpg/sg71_17_cif.got.tgz:33304.got - 2010.06.28 04:59:45.
