data_PCOD8291346
_publ_section_title
;
Structure prediction by ZEFSAII (Michael W. Deem and Ramdas Pophale) SiO2 
 PCOD8291346
Probable space group: I M M M
;
_chemical_formula_sum "Si O2"
_cell_formula_units_Z 88
_cell_length_a 18.561933
_cell_length_b 21.708926
_cell_length_c 10.989352
_cell_angle_alpha 90.000000
_cell_angle_beta 90.000000
_cell_angle_gamma 90.000000
_cell_volume 4428.265215
_symmetry_space_group_name_H-M "I M M M"
_symmetry_group_IT_number 71
_symmetry_cell_setting 'orthorhombic'
loop_
_space_group_symop_operation_xyz
x,y,z
-x,-y,z
x,-y,-z
-x,y,-z
-x,-y,-z
x,y,-z
-x,y,z
x,-y,z
1/2+x,1/2+y,1/2+z
1/2-x,1/2-y,1/2+z
1/2+x,1/2-y,1/2-z
1/2-x,1/2+y,1/2-z
1/2-x,1/2-y,1/2-z
1/2+x,1/2+y,1/2-z
1/2-x,1/2+y,1/2+z
1/2+x,1/2-y,1/2+z
loop_
_atom_site_type_symbol
_atom_site_label
_atom_site_fract_x
_atom_site_fract_y
_atom_site_fract_z
Si Si1 0.585566 0.431492 0.500000
Si Si2 0.416700 0.362524 0.261852
Si Si3 0.417414 0.771271 0.358826
Si Si4 0.415089 0.926631 0.000000
Si Si5 0.795694 0.071776 0.639022
Si Si6 0.654326 0.111849 0.249788
Si Si7 0.423467 0.000000 0.361156
O O1 0.618006 0.500000 0.500000
O O2 0.500000 0.431837 0.500000
O O3 0.613151 0.396401 0.618388
O O4 0.500000 0.377785 0.235255
O O5 0.405430 0.289993 0.280174
O O6 0.369939 0.389780 0.151275
O O7 0.397625 0.759366 0.500000
O O8 0.500000 0.793676 0.348538
O O9 0.365488 0.821375 0.299973
O O10 0.374371 0.896479 0.113613
O O11 0.500000 0.909356 0.000000
O O12 0.404185 0.000000 0.000000
O O13 0.768412 0.079132 0.500000
O O14 0.739739 0.101803 0.735298
O O15 0.808417 0.000000 0.670130
O O16 0.619865 0.060760 0.334693
O O17 0.500000 0.000000 0.287438
O O18 0.442490 0.000000 0.500000
#
# Coordination Sequence:
#
# PCOD8291346 Si02
#       7
#     8  16  16   8  16  16   8
#     4   9  16  31  59  91 119 147 192 257 319 371
#     4  10  21  39  62  91 123 164 216 266 319 379
#     4  10  20  38  64  93 126 163 206 259 313 377
#     4  11  22  39  61  89 130 169 207 262 317 370
#     4  11  24  42  63  89 126 167 211 269 323 372
#     4  12  23  39  61  91 126 167 207 253 315 383
#     4  11  20  33  59  91 120 157 207 252 293 356
#
# _framework density 19.872342
#
# number of rings (size 3 to 8) (size 9 to 14) (size 15 to 20)
#    0.000    1.364    2.727    3.818    0.000    4.364 
#    1.636    2.727    0.000    0.000    0.000    0.000 
#    0.000    0.000    0.000    0.000    0.000    0.000 
#
# Total GULP energy -545610.237826 kJ/mol
# GULP energy per Si atom -12400.232678 kJ/mol
# Density = 1.982711 g / cm^3
# Si number density = 19.872342 Si / 1000 Ang^3
#
#
#
# Elastic Constant Matrix: (Units=GPa)
#
#
# Indices 1 2 3 4 5 6 
#
# 1 113.7182 52.9974 44.8610 0.0000 0.0000 0.0000
# 2 52.9974 116.1361 28.4227 0.0000 0.0000 0.0000
# 3 44.8610 28.4227 89.2899 0.0000 0.0000 0.0000
# 4 0.0000 0.0000 0.0000 37.0282 0.0000 0.0000
# 5 0.0000 0.0000 0.0000 0.0000 39.5838 0.0000
# 6 0.0000 0.0000 0.0000 0.0000 0.0000 34.9803
#
#
#
# Elastic Compliance Matrix: (Units=1/GPa)
#
#
# Indices 1 2 3 4 5 6 
#
# 1 0.012957 -0.004684 -0.005018 0.000000 0.000000 0.000000
# 2 -0.004684 0.011032 -0.001158 0.000000 0.000000 0.000000
# 3 -0.005018 -0.001158 0.014090 0.000000 0.000000 0.000000
# 4 0.000000 0.000000 0.000000 0.027006 0.000000 0.000000
# 5 0.000000 0.000000 0.000000 0.000000 0.025263 0.000000
# 6 0.000000 0.000000 0.000000 0.000000 0.000000 0.028588
#
#
# Mechanical properties :
#
#
# Convention : Reuss Voigt Hill
#
# Bulk Modulus (GPa) = 61.14021 63.52289 62.33155
# Shear Modulus (GPa) = 34.22119 35.17600 34.69859
#
# Velocity S-wave (km/s) = 4.15426 4.21182 4.18314
# Velocity P-wave (km/s) = 7.33783 7.46240 7.40038
#
# Compressibility (1/GPa) = 0.01635585
#
# Stress axis : x y z
#
# Youngs Moduli (GPa) = 77.18117 90.64813 70.97483
#
# Poissons Ratio (x) = 0.42463 0.35619
# Poissons Ratio (y) = 0.36154 0.08219
# Poissons Ratio (z) = 0.38733 0.10498
#
# Static dielectric constant tensor:
#      x y z
#    x 3.586440 0.000000 0.000000 
#    y 0.000000 3.636840 0.000000 
#    z 0.000000 0.000000 3.583800 
# 
# 
# High freq. dielectric constant tensor:
#      x y z
#    x 1.769190 0.000000 0.000000 
#    y 0.000000 1.778690 0.000000 
#    z 0.000000 0.000000 1.769970 
# 
# From -- ./inp_files/23984.got.cif
#   From: 2010.06.25/outbox.cif.g09.slc.cpg/sg71_12_cif.got.tgz:23984.got - 2010.06.28 04:59:45.
