data_PCOD8291570
_publ_section_title
;
Structure prediction by ZEFSAII (Michael W. Deem and Ramdas Pophale) SiO2 
 PCOD8291570
Probable space group: I M M M
;
_chemical_formula_sum "Si O2"
_cell_formula_units_Z 104
_cell_length_a 9.361585
_cell_length_b 28.383827
_cell_length_c 19.974090
_cell_angle_alpha 90.000000
_cell_angle_beta 90.000000
_cell_angle_gamma 90.000000
_cell_volume 5307.467438
_symmetry_space_group_name_H-M "I M M M"
_symmetry_group_IT_number 71
_symmetry_cell_setting 'orthorhombic'
loop_
_space_group_symop_operation_xyz
x,y,z
-x,-y,z
x,-y,-z
-x,y,-z
-x,-y,-z
x,y,-z
-x,y,z
x,-y,z
1/2+x,1/2+y,1/2+z
1/2-x,1/2-y,1/2+z
1/2+x,1/2-y,1/2-z
1/2-x,1/2+y,1/2-z
1/2-x,1/2-y,1/2-z
1/2+x,1/2+y,1/2-z
1/2-x,1/2+y,1/2+z
1/2+x,1/2-y,1/2+z
loop_
_atom_site_type_symbol
_atom_site_label
_atom_site_fract_x
_atom_site_fract_y
_atom_site_fract_z
Si Si1 0.657670 0.000000 0.920982
Si Si2 0.660664 0.228560 0.808799
Si Si3 0.830169 0.446080 0.805385
Si Si4 0.834124 0.724774 0.077998
Si Si5 0.169691 0.382409 0.074325
Si Si6 0.165837 0.089349 0.923432
Si Si7 0.840902 0.621838 0.686588
O O1 0.746728 0.955564 0.897067
O O2 0.500000 0.000000 0.887670
O O3 0.644344 0.000000 0.000000
O O4 0.500000 0.249242 0.812434
O O5 0.750000 0.250000 0.750000
O O6 0.737769 0.239266 0.879385
O O7 0.651827 0.174326 0.786159
O O8 0.771525 0.500000 0.800758
O O9 0.769123 0.420135 0.872023
O O10 0.780978 0.415051 0.741610
O O11 0.000000 0.446591 0.808641
O O12 0.785466 0.670969 0.093362
O O13 0.000000 0.732076 0.097298
O O14 0.810526 0.736639 0.000000
O O15 0.000000 0.384554 0.073223
O O16 0.228246 0.395392 0.000000
O O17 0.229745 0.128693 0.875156
O O18 0.000000 0.080079 0.912216
O O19 0.198342 0.102461 0.000000
O O20 0.000000 0.606014 0.662554
#
# Coordination Sequence:
#
# PCOD8291570 Si02
#       7
#     8  16  16  16  16  16  16
#     4   9  17  31  53  77 101 135 176 215 260 315
#     4  11  23  38  57  80 109 145 187 234 282 338
#     4   9  17  29  47  73 104 137 177 222 263 310
#     4   9  18  34  57  83 112 146 181 220 274 339
#     4   8  14  27  49  77 109 142 172 208 261 323
#     4  10  21  36  54  78 107 138 178 229 277 322
#     4  10  22  37  53  76 106 143 184 227 277 331
#
# _framework density 19.595033999999998
#
# number of rings (size 3 to 8) (size 9 to 14) (size 15 to 20)
#    0.000    2.538    0.000    3.000    1.077    6.769 
#    0.000    4.615    0.000    0.000    0.000    0.000 
#    0.000    0.000    0.000    9.385    0.000    9.231 
#
# Total GULP energy -644424.714877 kJ/mol
# GULP energy per Si atom -12392.782978 kJ/mol
# Density = 1.955043 g / cm^3
# Si number density = 19.595034 Si / 1000 Ang^3
#
#
#
# Elastic Constant Matrix: (Units=GPa)
#
#
# Indices 1 2 3 4 5 6 
#
# 1 85.8290 31.1156 54.3252 -0.0003 0.0000 -0.0001
# 2 31.1156 98.5467 53.3246 -0.0001 0.0000 0.0000
# 3 54.3252 53.3246 121.6020 -0.0013 -0.0003 -0.0005
# 4 -0.0003 -0.0001 -0.0013 36.9816 -0.0001 -0.0001
# 5 0.0000 0.0000 -0.0003 -0.0001 25.5420 -0.0002
# 6 -0.0001 0.0000 -0.0005 -0.0001 -0.0002 16.7760
#
#
#
# Elastic Compliance Matrix: (Units=1/GPa)
#
#
# Indices 1 2 3 4 5 6 
#
# 1 0.016433 -0.001595 -0.006642 0.000000 0.000000 0.000000
# 2 -0.001595 0.013459 -0.005190 0.000000 0.000000 0.000000
# 3 -0.006642 -0.005190 0.013467 0.000000 0.000000 0.000000
# 4 0.000000 0.000000 0.000000 0.027040 0.000000 0.000000
# 5 0.000000 0.000000 0.000000 0.000000 0.039151 0.000000
# 6 0.000000 0.000000 0.000000 0.000000 0.000000 0.059609
#
#
# Mechanical properties :
#
#
# Convention : Reuss Voigt Hill
#
# Bulk Modulus (GPa) = 60.58347 64.83429 62.70888
# Shear Modulus (GPa) = 24.81204 27.00740 25.90972
#
# Velocity S-wave (km/s) = 3.56229 3.71654 3.64023
# Velocity P-wave (km/s) = 6.92133 7.18163 7.05268
#
# Compressibility (1/GPa) = 0.01650615
#
# Stress axis : x y z
#
# Youngs Moduli (GPa) = 60.85172 74.29885 74.25683
#
# Poissons Ratio (x) = 0.11847 0.49324
# Poissons Ratio (y) = 0.09703 0.38537
# Poissons Ratio (z) = 0.40420 0.38559
#
# Static dielectric constant tensor:
#      x y z
#    x 3.348770 0.000000 0.000000 
#    y 0.000000 3.785330 0.000000 
#    z 0.000000 0.000000 3.938210 
# 
# 
# High freq. dielectric constant tensor:
#      x y z
#    x 1.726170 0.000000 0.000000 
#    y 0.000000 1.762480 0.000000 
#    z 0.000000 0.000000 1.769260 
# 
# From -- ./inp_files/50879.got.cif
#   From: 2010.06.25/outbox.cif.g09.slc.cpg/sg71_26_cif.got.tgz:50879.got - 2010.06.28 04:59:45.
