data_PCOD8291305
_publ_section_title
;
Structure prediction by ZEFSAII (Michael W. Deem and Ramdas Pophale) SiO2 
 PCOD8291305
Probable space group: I M M M
;
_chemical_formula_sum "Si O2"
_cell_formula_units_Z 64
_cell_length_a 15.459714
_cell_length_b 11.938174
_cell_length_c 17.409743
_cell_angle_alpha 90.000000
_cell_angle_beta 90.000000
_cell_angle_gamma 90.000000
_cell_volume 3213.155325
_symmetry_space_group_name_H-M "I M M M"
_symmetry_group_IT_number 71
_symmetry_cell_setting 'orthorhombic'
loop_
_space_group_symop_operation_xyz
x,y,z
-x,-y,z
x,-y,-z
-x,y,-z
-x,-y,-z
x,y,-z
-x,y,z
x,-y,z
1/2+x,1/2+y,1/2+z
1/2-x,1/2-y,1/2+z
1/2+x,1/2-y,1/2-z
1/2-x,1/2+y,1/2-z
1/2-x,1/2-y,1/2-z
1/2+x,1/2+y,1/2-z
1/2-x,1/2+y,1/2+z
1/2+x,1/2-y,1/2+z
loop_
_atom_site_type_symbol
_atom_site_label
_atom_site_fract_x
_atom_site_fract_y
_atom_site_fract_z
Si Si1 0.325972 0.764756 0.854267
Si Si2 0.097011 0.000000 0.127691
Si Si3 0.000000 0.632670 0.089021
Si Si4 0.715277 0.000000 0.083073
Si Si5 0.366684 0.261091 0.310718
Si Si6 0.897953 0.868544 0.500000
O O1 0.387420 0.757914 0.779358
O O2 0.230637 0.725661 0.830642
O O3 0.359270 0.688543 0.923902
O O4 0.322395 0.894316 0.874055
O O5 0.106996 0.109959 0.179116
O O6 0.179693 0.000000 0.071052
O O7 0.000000 0.000000 0.088672
O O8 0.082655 0.681051 0.131852
O O9 0.000000 0.500000 0.094875
O O10 0.000000 0.672073 0.000000
O O11 0.673012 0.000000 0.000000
O O12 0.000000 0.850115 0.500000
O O13 0.873699 0.000000 0.500000
#
# Coordination Sequence:
#
# PCOD8291305 Si02
#       6
#    16   8   8   8  16   8
#     4  10  23  43  65  92 128 170 214 263 316 381
#     4  10  20  37  62  97 124 163 202 267 316 374
#     4  11  26  43  63  96 133 165 210 265 315 385
#     4  10  20  39  64  92 125 165 216 259 308 381
#     4  10  23  42  66  92 128 170 214 258 321 383
#     4  11  26  43  65  98 129 169 216 271 319 375
#
# _framework density 19.918116000000001
#
# number of rings (size 3 to 8) (size 9 to 14) (size 15 to 20)
#    0.000    1.750    2.500    0.000    7.000    2.250 
#    0.000    1.250    0.000    0.000    0.000    0.000 
#    0.000    0.000    0.000    0.000    0.000    0.000 
#
# Total GULP energy -396555.805708 kJ/mol
# GULP energy per Si atom -12392.368928 kJ/mol
# Density = 1.987278 g / cm^3
# Si number density = 19.918116 Si / 1000 Ang^3
#
#
#
# Elastic Constant Matrix: (Units=GPa)
#
#
# Indices 1 2 3 4 5 6 
#
# 1 80.9069 46.9563 50.4859 0.0000 0.0000 0.0000
# 2 46.9563 142.7691 82.6000 0.0000 0.0000 0.0000
# 3 50.4859 82.6000 197.2269 0.0000 0.0000 0.0000
# 4 0.0000 0.0000 0.0000 13.4771 0.0000 0.0000
# 5 0.0000 0.0000 0.0000 0.0000 26.4457 0.0000
# 6 0.0000 0.0000 0.0000 0.0000 0.0000 35.6584
#
#
#
# Elastic Compliance Matrix: (Units=1/GPa)
#
#
# Indices 1 2 3 4 5 6 
#
# 1 0.016175 -0.003860 -0.002524 0.000000 0.000000 0.000000
# 2 -0.003860 0.010165 -0.003269 0.000000 0.000000 0.000000
# 3 -0.002524 -0.003269 0.007086 0.000000 0.000000 0.000000
# 4 0.000000 0.000000 0.000000 0.074200 0.000000 0.000000
# 5 0.000000 0.000000 0.000000 0.000000 0.037813 0.000000
# 6 0.000000 0.000000 0.000000 0.000000 0.000000 0.028044
#
#
# Mechanical properties :
#
#
# Convention : Reuss Voigt Hill
#
# Bulk Modulus (GPa) = 70.82197 86.77636 78.79916
# Shear Modulus (GPa) = 25.31705 31.17360 28.24533
#
# Velocity S-wave (km/s) = 3.56906 3.96041 3.76982
# Velocity P-wave (km/s) = 7.25382 8.03581 7.65481
#
# Compressibility (1/GPa) = 0.01411991
#
# Stress axis : x y z
#
# Youngs Moduli (GPa) = 61.82431 98.37495 141.13154
#
# Poissons Ratio (x) = 0.37969 0.35622
# Poissons Ratio (y) = 0.23862 0.46140
# Poissons Ratio (z) = 0.15604 0.32162
#
# Static dielectric constant tensor:
#      x y z
#    x 3.749820 0.000000 0.000000 
#    y 0.000000 3.649520 0.000000 
#    z 0.000000 0.000000 3.776120 
# 
# 
# High freq. dielectric constant tensor:
#      x y z
#    x 1.775460 0.000000 0.000000 
#    y 0.000000 1.787280 0.000000 
#    z 0.000000 0.000000 1.787320 
# 
# From -- ./inp_files/21318.got.cif
#   From: 2010.06.25/outbox.cif.g09.slc.cpg/sg71_11_cif.got.tgz:21318.got - 2010.06.28 04:59:45.
