data_PCOD8291748
_publ_section_title
;
Structure prediction by ZEFSAII (Michael W. Deem and Ramdas Pophale) SiO2 
 PCOD8291748
Probable space group: I M M M
;
_chemical_formula_sum "Si O2"
_cell_formula_units_Z 104
_cell_length_a 25.930701
_cell_length_b 9.075073
_cell_length_c 21.718265
_cell_angle_alpha 90.000000
_cell_angle_beta 90.000000
_cell_angle_gamma 90.000000
_cell_volume 5110.807373
_symmetry_space_group_name_H-M "I M M M"
_symmetry_group_IT_number 71
_symmetry_cell_setting 'orthorhombic'
loop_
_space_group_symop_operation_xyz
x,y,z
-x,-y,z
x,-y,-z
-x,y,-z
-x,-y,-z
x,y,-z
-x,y,z
x,-y,z
1/2+x,1/2+y,1/2+z
1/2-x,1/2-y,1/2+z
1/2+x,1/2-y,1/2-z
1/2-x,1/2+y,1/2-z
1/2-x,1/2-y,1/2-z
1/2+x,1/2+y,1/2-z
1/2-x,1/2+y,1/2+z
1/2+x,1/2-y,1/2+z
loop_
_atom_site_type_symbol
_atom_site_label
_atom_site_fract_x
_atom_site_fract_y
_atom_site_fract_z
Si Si1 0.557132 0.331753 0.661581
Si Si2 0.801223 0.169783 0.568470
Si Si3 0.500000 0.825252 0.070017
Si Si4 0.390344 0.825404 0.877111
Si Si5 0.208407 0.326792 0.844352
Si Si6 0.616405 0.826816 0.567984
Si Si7 0.145847 0.173822 0.253413
O O1 0.500000 0.303294 0.687208
O O2 0.566486 0.500000 0.643460
O O3 0.565405 0.237225 0.600038
O O4 0.595839 0.281766 0.714478
O O5 0.775963 0.187542 0.500000
O O6 0.851872 0.273355 0.568848
O O7 0.762484 0.217018 0.623818
O O8 0.817214 0.000000 0.578663
O O9 0.551362 0.772095 0.106598
O O10 0.500000 0.000000 0.065981
O O11 0.500000 0.761625 0.000000
O O12 0.365702 0.745903 0.818436
O O13 0.388887 0.000000 0.868384
O O14 0.205869 0.500000 0.830288
O O15 0.165923 0.276558 0.893616
O O16 0.197032 0.239956 0.780304
O O17 0.621419 0.759612 0.500000
O O18 0.611217 0.000000 0.565258
O O19 0.154316 0.000000 0.261532
#
# Coordination Sequence:
#
# PCOD8291748 Si02
#       7
#    16  16   8  16  16  16  16
#     4   9  19  34  50  70 100 140 181 227 282 336
#     4  10  21  38  61  89 119 151 189 234 286 341
#     4   9  20  40  63  87 117 151 188 233 286 343
#     4  11  23  39  61  88 116 151 191 235 287 344
#     4   9  18  35  58  82 112 150 189 231 279 335
#     4   9  17  30  49  74 103 137 180 228 277 328
#     4  10  21  37  57  82 113 148 190 238 286 337
#
# _framework density 20.349035000000001
#
# number of rings (size 3 to 8) (size 9 to 14) (size 15 to 20)
#    0.000    2.385    0.000    1.846    1.077    5.538 
#    0.000    2.692    0.000    5.538    0.000    0.000 
#    0.000    0.000    0.000    0.000    0.000    0.000 
#
# Total GULP energy -644570.705966 kJ/mol
# GULP energy per Si atom -12395.590499 kJ/mol
# Density = 2.030272 g / cm^3
# Si number density = 20.349035 Si / 1000 Ang^3
#
#
#
# Elastic Constant Matrix: (Units=GPa)
#
#
# Indices 1 2 3 4 5 6 
#
# 1 120.1722 35.5075 43.5295 0.0000 0.0000 0.0000
# 2 35.5075 51.1160 36.2240 0.0000 0.0000 0.0000
# 3 43.5295 36.2240 112.9745 0.0000 0.0000 0.0000
# 4 0.0000 0.0000 0.0000 27.4705 0.0000 0.0000
# 5 0.0000 0.0000 0.0000 0.0000 26.2732 0.0000
# 6 0.0000 0.0000 0.0000 0.0000 0.0000 29.6632
#
#
#
# Elastic Compliance Matrix: (Units=1/GPa)
#
#
# Indices 1 2 3 4 5 6 
#
# 1 0.010912 -0.005953 -0.002296 0.000000 0.000000 0.000000
# 2 -0.005953 0.028563 -0.006865 0.000000 0.000000 0.000000
# 3 -0.002296 -0.006865 0.011937 0.000000 0.000000 0.000000
# 4 0.000000 0.000000 0.000000 0.036403 0.000000 0.000000
# 5 0.000000 0.000000 0.000000 0.000000 0.038062 0.000000
# 6 0.000000 0.000000 0.000000 0.000000 0.000000 0.033712
#
#
# Mechanical properties :
#
#
# Convention : Reuss Voigt Hill
#
# Bulk Modulus (GPa) = 47.20201 57.19830 52.20016
# Shear Modulus (GPa) = 25.39652 27.94816 26.67234
#
# Velocity S-wave (km/s) = 3.53660 3.71001 3.62434
# Velocity P-wave (km/s) = 6.31849 6.82070 6.57439
#
# Compressibility (1/GPa) = 0.02118554
#
# Stress axis : x y z
#
# Youngs Moduli (GPa) = 91.64318 35.00983 83.77187
#
# Poissons Ratio (x) = 0.20842 0.19231
# Poissons Ratio (y) = 0.54556 0.57508
# Poissons Ratio (z) = 0.21038 0.24034
#
# Static dielectric constant tensor:
#      x y z
#    x 3.933580 0.000000 0.000000 
#    y 0.000000 3.511070 0.000000 
#    z 0.000000 0.000000 3.908480 
# 
# 
# High freq. dielectric constant tensor:
#      x y z
#    x 1.798430 0.000000 0.000000 
#    y 0.000000 1.776730 0.000000 
#    z 0.000000 0.000000 1.804530 
# 
# From -- ./inp_files/56220.got.cif
#   From: 2010.06.25/outbox.cif.g09.slc.cpg/sg71_29_cif.got.tgz:56220.got - 2010.06.28 04:59:45.
