data_PCOD8291025
_publ_section_title
;
Structure prediction by ZEFSAII (Michael W. Deem and Ramdas Pophale) SiO2 
 PCOD8291025
Probable space group: I M M M
;
_chemical_formula_sum "Si O2"
_cell_formula_units_Z 104
_cell_length_a 17.571384
_cell_length_b 12.533197
_cell_length_c 26.372613
_cell_angle_alpha 90.000000
_cell_angle_beta 90.000000
_cell_angle_gamma 90.000000
_cell_volume 5807.924976
_symmetry_space_group_name_H-M "I M M M"
_symmetry_group_IT_number 71
_symmetry_cell_setting 'orthorhombic'
loop_
_space_group_symop_operation_xyz
x,y,z
-x,-y,z
x,-y,-z
-x,y,-z
-x,-y,-z
x,y,-z
-x,y,z
x,-y,z
1/2+x,1/2+y,1/2+z
1/2-x,1/2-y,1/2+z
1/2+x,1/2-y,1/2-z
1/2-x,1/2+y,1/2-z
1/2-x,1/2-y,1/2-z
1/2+x,1/2+y,1/2-z
1/2-x,1/2+y,1/2+z
1/2+x,1/2-y,1/2+z
loop_
_atom_site_type_symbol
_atom_site_label
_atom_site_fract_x
_atom_site_fract_y
_atom_site_fract_z
Si Si1 0.587145 0.373931 0.500000
Si Si2 0.500000 0.878744 0.624742
Si Si3 0.500000 0.119584 0.744531
Si Si4 0.228796 0.123163 0.442529
Si Si5 0.794225 0.873105 0.195765
Si Si6 0.359189 0.754543 0.787828
Si Si7 0.084931 0.878592 0.618699
Si Si8 0.142930 0.761883 0.900750
O O1 0.590340 0.500000 0.500000
O O2 0.500000 0.333077 0.500000
O O3 0.630317 0.334315 0.449961
O O4 0.500000 0.878461 0.684578
O O5 0.573556 0.818888 0.604203
O O6 0.500000 0.000000 0.603694
O O7 0.576929 0.173658 0.762599
O O8 0.500000 0.000000 0.765861
O O9 0.241005 0.160108 0.500000
O O10 0.141243 0.144036 0.427960
O O11 0.281235 0.192033 0.405805
O O12 0.250997 0.000000 0.435294
O O13 0.708855 0.828427 0.191779
O O14 0.830791 0.833094 0.247935
O O15 0.846463 0.835252 0.148727
O O16 0.791803 0.000000 0.196075
O O17 0.396657 0.695604 0.834492
O O18 0.000000 0.854427 0.598865
O O19 0.092996 0.000000 0.637604
#
# Coordination Sequence:
#
# PCOD8291025 Si02
#       8
#     8   8   8  16  16  16  16  16
#     4  11  24  40  60  82 111 148 193 245 292 339
#     4  11  24  39  57  86 117 152 191 236 290 339
#     4  11  22  38  59  83 113 152 191 227 283 339
#     4  10  21  37  59  85 113 149 189 234 287 340
#     4  11  24  38  57  85 114 151 192 232 283 341
#     4  11  21  39  58  83 118 146 186 237 281 331
#     4  10  20  35  59  88 117 148 184 231 287 343
#     4  12  21  41  59  82 114 150 191 241 283 340
#
# _framework density 17.906568
#
# number of rings (size 3 to 8) (size 9 to 14) (size 15 to 20)
#    0.000    1.154    5.385    1.846    0.000    0.308 
#    0.000    2.692    0.000    0.000    0.000    0.000 
#    0.000    2.462    0.000    0.000    0.000    0.000 
#
# Total GULP energy -644950.982400 kJ/mol
# GULP energy per Si atom -12402.903508 kJ/mol
# Density = 1.786581 g / cm^3
# Si number density = 17.906568 Si / 1000 Ang^3
#
#
#
# Elastic Constant Matrix: (Units=GPa)
#
#
# Indices 1 2 3 4 5 6 
#
# 1 111.9651 47.9537 13.1847 0.0000 0.0000 0.0000
# 2 47.9537 107.7998 32.7901 0.0000 0.0000 0.0000
# 3 13.1847 32.7901 55.7492 0.0000 0.0000 0.0000
# 4 0.0000 0.0000 0.0000 23.2905 0.0000 0.0000
# 5 0.0000 0.0000 0.0000 0.0000 33.9806 0.0000
# 6 0.0000 0.0000 0.0000 0.0000 0.0000 28.1396
#
#
#
# Elastic Compliance Matrix: (Units=1/GPa)
#
#
# Indices 1 2 3 4 5 6 
#
# 1 0.011039 -0.005013 0.000338 0.000000 0.000000 0.000000
# 2 -0.005013 0.013574 -0.006798 0.000000 0.000000 0.000000
# 3 0.000338 -0.006798 0.021856 0.000000 0.000000 0.000000
# 4 0.000000 0.000000 0.000000 0.042936 0.000000 0.000000
# 5 0.000000 0.000000 0.000000 0.000000 0.029429 0.000000
# 6 0.000000 0.000000 0.000000 0.000000 0.000000 0.035537
#
#
# Mechanical properties :
#
#
# Convention : Reuss Voigt Hill
#
# Bulk Modulus (GPa) = 42.51359 51.48569 46.99964
# Shear Modulus (GPa) = 27.00382 29.18787 28.09584
#
# Velocity S-wave (km/s) = 3.88756 4.04172 3.96539
# Velocity P-wave (km/s) = 6.62905 7.11305 6.87531
#
# Compressibility (1/GPa) = 0.02352189
#
# Stress axis : x y z
#
# Youngs Moduli (GPa) = 90.59047 73.66757 45.75355
#
# Poissons Ratio (x) = 0.36932 -0.01546
# Poissons Ratio (y) = 0.45415 0.31106
# Poissons Ratio (z) = -0.03062 0.50083
#
# Static dielectric constant tensor:
#      x y z
#    x 3.595650 0.000000 0.000000 
#    y 0.000000 3.335720 0.000000 
#    z 0.000000 0.000000 3.306950 
# 
# 
# High freq. dielectric constant tensor:
#      x y z
#    x 1.707760 0.000000 0.000000 
#    y 0.000000 1.694700 0.000000 
#    z 0.000000 0.000000 1.695690 
# 
# From -- ./inp_files/66057.got.cif
#   From: 2010.06.25/outbox.cif.g09.slc.cpg/sg71_34_cif.got.tgz:66057.got - 2010.06.28 04:59:45.
