data_PCOD8291251
_publ_section_title
;
Structure prediction by ZEFSAII (Michael W. Deem and Ramdas Pophale) SiO2 
 PCOD8291251
Probable space group: I M M M
;
_chemical_formula_sum "Si O2"
_cell_formula_units_Z 96
_cell_length_a 8.915268
_cell_length_b 25.279264
_cell_length_c 23.209682
_cell_angle_alpha 90.000000
_cell_angle_beta 90.000000
_cell_angle_gamma 90.000000
_cell_volume 5230.798837
_symmetry_space_group_name_H-M "I M M M"
_symmetry_group_IT_number 71
_symmetry_cell_setting 'orthorhombic'
loop_
_space_group_symop_operation_xyz
x,y,z
-x,-y,z
x,-y,-z
-x,y,-z
-x,-y,-z
x,y,-z
-x,y,z
x,-y,z
1/2+x,1/2+y,1/2+z
1/2-x,1/2-y,1/2+z
1/2+x,1/2-y,1/2-z
1/2-x,1/2+y,1/2-z
1/2-x,1/2-y,1/2-z
1/2+x,1/2+y,1/2-z
1/2-x,1/2+y,1/2+z
1/2+x,1/2-y,1/2+z
loop_
_atom_site_type_symbol
_atom_site_label
_atom_site_fract_x
_atom_site_fract_y
_atom_site_fract_z
Si Si1 0.670211 0.000000 0.431981
Si Si2 0.825178 0.308491 0.066558
Si Si3 0.826386 0.405585 0.370000
Si Si4 0.823208 0.000000 0.064548
Si Si5 0.823090 0.096720 0.370528
Si Si6 0.826759 0.438387 0.242864
Si Si7 0.327730 0.199992 0.934170
O O1 0.751092 0.948106 0.409824
O O2 0.500000 0.000000 0.408688
O O3 0.674652 0.000000 0.500000
O O4 0.731058 0.346712 0.107299
O O5 0.778173 0.248907 0.081816
O O6 0.000000 0.316007 0.079517
O O7 0.787875 0.321245 0.000000
O O8 0.729384 0.447839 0.403460
O O9 0.791073 0.408862 0.302387
O O10 0.781798 0.347585 0.392109
O O11 0.000000 0.418249 0.382301
O O12 0.000000 0.000000 0.063700
O O13 0.757300 0.000000 0.000000
O O14 0.775797 0.089458 0.304520
O O15 0.000000 0.092781 0.375843
O O16 0.784197 0.500000 0.248480
O O17 0.000000 0.431851 0.225345
O O18 0.500000 0.216986 0.924715
O O19 0.301380 0.181682 0.000000
#
# Coordination Sequence:
#
# PCOD8291251 Si02
#       7
#     8  16  16   8  16  16  16
#     4  11  23  38  57  82 113 146 180 223 280 341
#     4  10  21  38  60  84 113 150 187 226 279 339
#     4  10  20  37  60  84 110 148 194 235 281 335
#     4  11  23  34  49  80 119 152 184 231 286 337
#     4  12  24  37  57  84 113 146 188 233 279 331
#     4  10  20  37  59  81 111 151 192 233 279 334
#     4   9  18  34  58  87 116 145 182 232 284 334
#
# _framework density 18.352836
#
# number of rings (size 3 to 8) (size 9 to 14) (size 15 to 20)
#    0.000    1.667    1.667    3.500    0.000    6.333 
#    0.000    2.500    0.000    0.000    0.000    0.000 
#    0.000    0.000    0.000    0.000    0.000    0.000 
#
# Total GULP energy -595441.786379 kJ/mol
# GULP energy per Si atom -12405.037216 kJ/mol
# Density = 1.831106 g / cm^3
# Si number density = 18.352836 Si / 1000 Ang^3
#
#
#
# Elastic Constant Matrix: (Units=GPa)
#
#
# Indices 1 2 3 4 5 6 
#
# 1 107.1551 56.6925 58.9117 0.0000 0.0000 0.0000
# 2 56.6925 116.4988 70.5433 0.0000 0.0000 0.0000
# 3 58.9117 70.5433 112.6459 0.0000 0.0000 0.0000
# 4 0.0000 0.0000 0.0000 37.7019 0.0000 0.0000
# 5 0.0000 0.0000 0.0000 0.0000 24.6496 0.0000
# 6 0.0000 0.0000 0.0000 0.0000 0.0000 32.9096
#
#
#
# Elastic Compliance Matrix: (Units=1/GPa)
#
#
# Indices 1 2 3 4 5 6 
#
# 1 0.014099 -0.003860 -0.004956 0.000000 0.000000 0.000000
# 2 -0.003860 0.014884 -0.007302 0.000000 0.000000 0.000000
# 3 -0.004956 -0.007302 0.016042 0.000000 0.000000 0.000000
# 4 0.000000 0.000000 0.000000 0.026524 0.000000 0.000000
# 5 0.000000 0.000000 0.000000 0.000000 0.040569 0.000000
# 6 0.000000 0.000000 0.000000 0.000000 0.000000 0.030386
#
#
# Mechanical properties :
#
#
# Convention : Reuss Voigt Hill
#
# Bulk Modulus (GPa) = 78.19541 78.73275 78.46408
# Shear Modulus (GPa) = 27.93227 29.06238 28.49732
#
# Velocity S-wave (km/s) = 3.90546 3.98368 3.94477
# Velocity P-wave (km/s) = 7.93952 8.00951 7.97460
#
# Compressibility (1/GPa) = 0.01278847
#
# Stress axis : x y z
#
# Youngs Moduli (GPa) = 70.92479 67.18691 62.33493
#
# Poissons Ratio (x) = 0.25934 0.30896
# Poissons Ratio (y) = 0.27377 0.45518
# Poissons Ratio (z) = 0.35153 0.49061
#
# Static dielectric constant tensor:
#      x y z
#    x 3.400450 0.000000 0.000000 
#    y 0.000000 3.447370 0.000000 
#    z 0.000000 0.000000 3.463490 
# 
# 
# High freq. dielectric constant tensor:
#      x y z
#    x 1.714000 0.000000 0.000000 
#    y 0.000000 1.713210 0.000000 
#    z 0.000000 0.000000 1.714420 
# 
# From -- ./inp_files/57770.got.cif
#   From: 2010.06.25/outbox.cif.g09.slc.cpg/sg71_29_cif.got.tgz:57770.got - 2010.06.28 04:59:45.
