data_PCOD8291830
_publ_section_title
;
Structure prediction by ZEFSAII (Michael W. Deem and Ramdas Pophale) SiO2 
 PCOD8291830
Probable space group: I M M M
;
_chemical_formula_sum "Si O2"
_cell_formula_units_Z 92
_cell_length_a 21.749409
_cell_length_b 7.616491
_cell_length_c 26.278720
_cell_angle_alpha 90.000000
_cell_angle_beta 90.000000
_cell_angle_gamma 90.000000
_cell_volume 4353.179758
_symmetry_space_group_name_H-M "I M M M"
_symmetry_group_IT_number 71
_symmetry_cell_setting 'orthorhombic'
loop_
_space_group_symop_operation_xyz
x,y,z
-x,-y,z
x,-y,-z
-x,y,-z
-x,-y,-z
x,y,-z
-x,y,z
x,-y,z
1/2+x,1/2+y,1/2+z
1/2-x,1/2-y,1/2+z
1/2+x,1/2-y,1/2-z
1/2-x,1/2+y,1/2-z
1/2-x,1/2-y,1/2-z
1/2+x,1/2+y,1/2-z
1/2-x,1/2+y,1/2+z
1/2+x,1/2-y,1/2+z
loop_
_atom_site_type_symbol
_atom_site_label
_atom_site_fract_x
_atom_site_fract_y
_atom_site_fract_z
Si Si1 0.369785 0.000000 0.060881
Si Si2 0.500000 0.000000 0.884017
Si Si3 0.932719 0.699700 0.891850
Si Si4 0.131368 0.201216 0.269062
Si Si5 0.679188 0.801656 0.333435
Si Si6 0.691185 0.708779 0.873777
Si Si7 0.572566 0.693356 0.500000
Si Si8 0.500000 0.704571 0.799915
O O1 0.333693 0.175540 0.079416
O O2 0.439851 0.000000 0.080398
O O3 0.369642 0.000000 0.000000
O O4 0.500000 0.175163 0.849853
O O5 0.940602 0.500000 0.874806
O O6 0.881643 0.794625 0.856379
O O7 0.906630 0.705315 0.949426
O O8 0.000000 0.793553 0.886861
O O9 0.173487 0.300576 0.227822
O O10 0.148006 0.255053 0.326158
O O11 0.058819 0.244581 0.264032
O O12 0.146776 0.000000 0.259430
O O13 0.741611 0.720995 0.356125
O O14 0.679641 0.000000 0.352864
O O15 0.689200 0.500000 0.887171
O O16 0.602322 0.500000 0.500000
O O17 0.500000 0.681573 0.500000
O O18 0.500000 0.500000 0.818035
#
# Coordination Sequence:
#
# PCOD8291830 Si02
#       8
#     8   4  16  16  16  16   8   8
#     4  12  27  46  74 104 129 170 225 277 336 401
#     4  12  23  44  76 100 136 170 210 277 342 386
#     4   9  18  34  52  76 108 149 197 256 310 367
#     4  10  21  37  61  90 127 171 213 259 320 388
#     4  10  22  36  58  90 124 165 217 262 316 382
#     4  10  23  45  65  91 133 174 215 266 326 397
#     4   9  17  31  51  71  97 141 191 241 304 363
#     4  10  22  39  61  99 138 179 217 259 332 406
#
# _framework density 21.133977999999999
#
# number of rings (size 3 to 8) (size 9 to 14) (size 15 to 20)
#    0.000    2.000    1.739    0.913    4.870    2.087 
#    1.565    0.000    0.000    1.565    0.000    0.000 
#    0.000    0.000    0.000    0.000    0.000    0.000 
#
# Total GULP energy -570024.910143 kJ/mol
# GULP energy per Si atom -12391.845873 kJ/mol
# Density = 2.108588 g / cm^3
# Si number density = 21.133978 Si / 1000 Ang^3
#
#
#
# Elastic Constant Matrix: (Units=GPa)
#
#
# Indices 1 2 3 4 5 6 
#
# 1 140.1820 36.3467 49.9662 0.0000 0.0000 0.0000
# 2 36.3467 69.0268 33.5103 0.0000 0.0000 0.0000
# 3 49.9662 33.5103 109.7594 0.0000 0.0000 0.0000
# 4 0.0000 0.0000 0.0000 13.3645 0.0000 0.0000
# 5 0.0000 0.0000 0.0000 0.0000 25.2621 0.0000
# 6 0.0000 0.0000 0.0000 0.0000 0.0000 11.0419
#
#
#
# Elastic Compliance Matrix: (Units=1/GPa)
#
#
# Indices 1 2 3 4 5 6 
#
# 1 0.009102 -0.003265 -0.003147 0.000000 0.000000 0.000000
# 2 -0.003265 0.018179 -0.004064 0.000000 0.000000 0.000000
# 3 -0.003147 -0.004064 0.011784 0.000000 0.000000 0.000000
# 4 0.000000 0.000000 0.000000 0.074825 0.000000 0.000000
# 5 0.000000 0.000000 0.000000 0.000000 0.039585 0.000000
# 6 0.000000 0.000000 0.000000 0.000000 0.000000 0.090564
#
#
# Mechanical properties :
#
#
# Convention : Reuss Voigt Hill
#
# Bulk Modulus (GPa) = 55.20603 62.06828 58.63715
# Shear Modulus (GPa) = 18.44828 23.21003 20.82915
#
# Velocity S-wave (km/s) = 2.95773 3.31756 3.14280
# Velocity P-wave (km/s) = 6.15165 6.64136 6.40119
#
# Compressibility (1/GPa) = 0.01811396
#
# Stress axis : x y z
#
# Youngs Moduli (GPa) = 109.86951 55.00780 84.86090
#
# Poissons Ratio (x) = 0.17960 0.26702
# Poissons Ratio (y) = 0.35873 0.34487
# Poissons Ratio (z) = 0.34571 0.22355
#
# Static dielectric constant tensor:
#      x y z
#    x 4.280660 0.000000 0.000000 
#    y 0.000000 3.680170 0.000000 
#    z 0.000000 0.000000 3.723950 
# 
# 
# High freq. dielectric constant tensor:
#      x y z
#    x 1.836630 0.000000 0.000000 
#    y 0.000000 1.816380 0.000000 
#    z 0.000000 0.000000 1.809620 
# 
# From -- ./inp_files/61613.got.cif
#   From: 2010.06.25/outbox.cif.g09.slc.cpg/sg71_31_cif.got.tgz:61613.got - 2010.06.28 04:59:45.
