data_PCOD8291402
_publ_section_title
;
Structure prediction by ZEFSAII (Michael W. Deem and Ramdas Pophale) SiO2 
 PCOD8291402
Probable space group: I M M M
;
_chemical_formula_sum "Si O2"
_cell_formula_units_Z 96
_cell_length_a 17.725791
_cell_length_b 28.719041
_cell_length_c 9.607133
_cell_angle_alpha 90.000000
_cell_angle_beta 90.000000
_cell_angle_gamma 90.000000
_cell_volume 4890.681278
_symmetry_space_group_name_H-M "I M M M"
_symmetry_group_IT_number 71
_symmetry_cell_setting 'orthorhombic'
loop_
_space_group_symop_operation_xyz
x,y,z
-x,-y,z
x,-y,-z
-x,y,-z
-x,-y,-z
x,y,-z
-x,y,z
x,-y,z
1/2+x,1/2+y,1/2+z
1/2-x,1/2-y,1/2+z
1/2+x,1/2-y,1/2-z
1/2-x,1/2+y,1/2-z
1/2-x,1/2-y,1/2-z
1/2+x,1/2+y,1/2-z
1/2-x,1/2+y,1/2+z
1/2+x,1/2-y,1/2+z
loop_
_atom_site_type_symbol
_atom_site_label
_atom_site_fract_x
_atom_site_fract_y
_atom_site_fract_z
Si Si1 0.358414 0.446181 0.662971
Si Si2 0.589257 0.111328 0.659055
Si Si3 0.585829 0.637963 0.162943
Si Si4 0.187985 0.776432 0.343262
Si Si5 0.812441 0.554250 0.348740
Si Si6 0.415044 0.191701 0.846151
O O1 0.376883 0.439553 0.500000
O O2 0.375418 0.500000 0.705892
O O3 0.407612 0.410473 0.753345
O O4 0.272125 0.432383 0.695285
O O5 0.613575 0.114222 0.500000
O O6 0.500000 0.106163 0.678532
O O7 0.628540 0.067517 0.729697
O O8 0.623777 0.156817 0.735900
O O9 0.500000 0.656713 0.187850
O O10 0.650810 0.675188 0.213306
O O11 0.598507 0.628031 0.000000
O O12 0.220552 0.783008 0.500000
O O13 0.250000 0.750000 0.250000
O O14 0.117342 0.742694 0.344817
O O15 0.831927 0.577000 0.500000
O O16 0.817675 0.500000 0.366928
O O17 0.500000 0.197477 0.797130
O O18 0.408331 0.169426 0.000000
#
# Coordination Sequence:
#
# PCOD8291402 Si02
#       6
#    16  16  16  16  16  16
#     4   9  20  39  61  86 116 150 191 239 289 341
#     4  10  21  34  50  77 111 144 181 231 287 336
#     4  10  22  40  61  87 120 155 191 234 285 342
#     4  10  22  38  57  84 115 149 188 232 279 330
#     4   9  19  36  56  77 105 144 188 233 280 337
#     4   9  18  35  57  76 101 144 190 226 266 323
#
# _framework density 19.629166000000001
#
# number of rings (size 3 to 8) (size 9 to 14) (size 15 to 20)
#    0.000    2.500    0.000    2.000    2.333    6.667 
#    0.000    5.000    0.000    3.000    0.000    0.000 
#    0.000    0.000    0.000    0.000    0.000    0.000 
#
# Total GULP energy -594764.593766 kJ/mol
# GULP energy per Si atom -12390.929037 kJ/mol
# Density = 1.958449 g / cm^3
# Si number density = 19.629166 Si / 1000 Ang^3
#
#
#
# Elastic Constant Matrix: (Units=GPa)
#
#
# Indices 1 2 3 4 5 6 
#
# 1 56.2675 52.5915 51.1409 -0.0002 -0.0002 0.0001
# 2 52.5915 66.9880 42.9940 -0.0002 -0.0001 0.0000
# 3 51.1409 42.9940 95.9318 -0.0054 -0.0042 0.0002
# 4 -0.0002 -0.0002 -0.0054 33.1525 -0.0005 0.0002
# 5 -0.0002 -0.0001 -0.0042 -0.0005 -24.6033 -0.0003
# 6 0.0001 0.0000 0.0002 0.0002 -0.0003 32.6070
#
#
#
# Elastic Compliance Matrix: (Units=1/GPa)
#
#
# Indices 1 2 3 4 5 6 
#
# 1 0.094743 -0.058910 -0.024105 -0.000004 0.000003 0.000000
# 2 -0.058910 0.057586 0.005596 0.000001 -0.000001 0.000000
# 3 -0.024105 0.005596 0.020766 0.000003 -0.000003 0.000000
# 4 -0.000004 0.000001 0.000003 0.030164 -0.000001 0.000000
# 5 0.000003 -0.000001 -0.000003 -0.000001 -0.040645 0.000000
# 6 0.000000 0.000000 0.000000 0.000000 0.000000 0.030668
#
#
# Mechanical properties :
#
#
# Convention : Reuss Voigt Hill
#
# Bulk Modulus (GPa) = 54.77337 56.95998 55.86668
# Shear Modulus (GPa) = 14.11611 13.06198 13.58905
#
# Velocity S-wave (km/s) = 2.68459 2.58241 2.63399
# Velocity P-wave (km/s) = 6.12976 6.16221 6.14601
#
# Compressibility (1/GPa) = 0.01825705
#
# Stress axis : x y z
#
# Youngs Moduli (GPa) = 10.55491 17.36532 48.15529
#
# Poissons Ratio (x) = 1.02300 1.16078
# Poissons Ratio (y) = 0.62179 -0.26950
# Poissons Ratio (z) = 0.25443 -0.09718
#
# Static dielectric constant tensor:
#      x y z
#    x 3.672550 0.000000 0.000000 
#    y 0.000000 3.598620 0.000000 
#    z 0.000000 0.000000 3.608460 
# 
# 
# High freq. dielectric constant tensor:
#      x y z
#    x 1.760700 0.000000 0.000000 
#    y 0.000000 1.764790 0.000000 
#    z 0.000000 0.000000 1.759790 
# 
# From -- ./inp_files/10837.got.cif
#   From: 2010.06.25/outbox.cif.g09.slc.cpg/sg71_6_cif.got.tgz:10837.got - 2010.06.28 04:59:45.
