data_PCOD8291206
_publ_section_title
;
Structure prediction by ZEFSAII (Michael W. Deem and Ramdas Pophale) SiO2 
 PCOD8291206
Probable space group: I M M M
;
_chemical_formula_sum "Si O2"
_cell_formula_units_Z 72
_cell_length_a 14.128556
_cell_length_b 9.727001
_cell_length_c 23.529570
_cell_angle_alpha 90.000000
_cell_angle_beta 90.000000
_cell_angle_gamma 90.000000
_cell_volume 3233.633001
_symmetry_space_group_name_H-M "I M M M"
_symmetry_group_IT_number 71
_symmetry_cell_setting 'orthorhombic'
loop_
_space_group_symop_operation_xyz
x,y,z
-x,-y,z
x,-y,-z
-x,y,-z
-x,-y,-z
x,y,-z
-x,y,z
x,-y,z
1/2+x,1/2+y,1/2+z
1/2-x,1/2-y,1/2+z
1/2+x,1/2-y,1/2-z
1/2-x,1/2+y,1/2-z
1/2-x,1/2-y,1/2-z
1/2+x,1/2+y,1/2-z
1/2-x,1/2+y,1/2+z
1/2+x,1/2-y,1/2+z
loop_
_atom_site_type_symbol
_atom_site_label
_atom_site_fract_x
_atom_site_fract_y
_atom_site_fract_z
Si Si1 0.388039 0.655230 0.257091
Si Si2 0.769654 0.850699 0.935563
Si Si3 0.112008 0.341012 0.861744
Si Si4 0.111166 0.000000 0.437798
Si Si5 0.110746 0.739651 0.634541
O O1 0.500000 0.641692 0.258084
O O2 0.345201 0.500000 0.262129
O O3 0.351928 0.754636 0.307102
O O4 0.358107 0.729829 0.198879
O O5 0.840775 0.730302 0.916195
O O6 0.677834 0.872846 0.894356
O O7 0.821510 0.000000 0.933383
O O8 0.737128 0.817486 0.000000
O O9 0.144254 0.500000 0.856163
O O10 0.000000 0.331869 0.868538
O O11 0.142523 0.129983 0.402207
O O12 0.159722 0.000000 0.500000
O O13 0.000000 0.000000 0.444840
O O14 0.000000 0.699695 0.629787
#
# Coordination Sequence:
#
# PCOD8291206 Si02
#       5
#    16  16  16   8  16
#     4   9  17  34  62  93 126 162 203 249 303 370
#     4  11  26  44  62  89 123 163 211 257 309 374
#     4  10  23  43  67  94 121 154 201 260 323 378
#     4   9  16  28  50  82 119 161 204 242 285 336
#     4  10  20  36  60  92 129 168 207 248 296 357
#
# _framework density 22.265978
#
# number of rings (size 3 to 8) (size 9 to 14) (size 15 to 20)
#    0.000    2.111    1.111    1.333    1.556    5.778 
#    0.000    5.556    0.000    0.000    0.000    0.000 
#    0.000    0.000    0.000    0.000    0.000    0.000 
#
# Total GULP energy -446161.986724 kJ/mol
# GULP energy per Si atom -12393.388520 kJ/mol
# Density = 2.221530 g / cm^3
# Si number density = 22.265978 Si / 1000 Ang^3
#
#
#
# Elastic Constant Matrix: (Units=GPa)
#
#
# Indices 1 2 3 4 5 6 
#
# 1 54.5582 33.5199 31.2101 0.0000 0.0000 0.0000
# 2 33.5199 143.1727 74.3467 0.0000 0.0000 0.0000
# 3 31.2101 74.3467 142.6911 0.0000 0.0000 0.0000
# 4 0.0000 0.0000 0.0000 34.1222 0.0000 0.0000
# 5 0.0000 0.0000 0.0000 0.0000 31.8456 0.0000
# 6 0.0000 0.0000 0.0000 0.0000 0.0000 22.6995
#
#
#
# Elastic Compliance Matrix: (Units=1/GPa)
#
#
# Indices 1 2 3 4 5 6 
#
# 1 0.022282 -0.003682 -0.002955 0.000000 0.000000 0.000000
# 2 -0.003682 0.010184 -0.004501 0.000000 0.000000 0.000000
# 3 -0.002955 -0.004501 0.010000 0.000000 0.000000 0.000000
# 4 0.000000 0.000000 0.000000 0.029306 0.000000 0.000000
# 5 0.000000 0.000000 0.000000 0.000000 0.031402 0.000000
# 6 0.000000 0.000000 0.000000 0.000000 0.000000 0.044054
#
#
# Mechanical properties :
#
#
# Convention : Reuss Voigt Hill
#
# Bulk Modulus (GPa) = 49.53141 68.73061 59.13101
# Shear Modulus (GPa) = 28.37162 31.15646 29.76404
#
# Velocity S-wave (km/s) = 3.57349 3.74476 3.66013
# Velocity P-wave (km/s) = 6.27057 7.04504 6.66906
#
# Compressibility (1/GPa) = 0.02018921
#
# Stress axis : x y z
#
# Youngs Moduli (GPa) = 44.87977 98.19549 100.00498
#
# Poissons Ratio (x) = 0.36157 0.29552
# Poissons Ratio (y) = 0.16525 0.45009
# Poissons Ratio (z) = 0.13262 0.44195
#
# Static dielectric constant tensor:
#      x y z
#    x 3.685170 0.000000 0.000000 
#    y 0.000000 4.360350 0.000000 
#    z 0.000000 0.000000 4.214150 
# 
# 
# High freq. dielectric constant tensor:
#      x y z
#    x 1.858840 0.000000 0.000000 
#    y 0.000000 1.882410 0.000000 
#    z 0.000000 0.000000 1.883430 
# 
# From -- ./inp_files/12181.got.cif
#   From: 2010.06.25/outbox.cif.g09.slc.cpg/sg71_7_cif.got.tgz:12181.got - 2010.06.28 04:59:45.
