data_PCOD8291309
_publ_section_title
;
Structure prediction by ZEFSAII (Michael W. Deem and Ramdas Pophale) SiO2 
 PCOD8291309
Probable space group: I M M M
;
_chemical_formula_sum "Si O2"
_cell_formula_units_Z 64
_cell_length_a 11.687099
_cell_length_b 14.504760
_cell_length_c 18.798302
_cell_angle_alpha 90.000000
_cell_angle_beta 90.000000
_cell_angle_gamma 90.000000
_cell_volume 3186.661200
_symmetry_space_group_name_H-M "I M M M"
_symmetry_group_IT_number 71
_symmetry_cell_setting 'orthorhombic'
loop_
_space_group_symop_operation_xyz
x,y,z
-x,-y,z
x,-y,-z
-x,y,-z
-x,-y,-z
x,y,-z
-x,y,z
x,-y,z
1/2+x,1/2+y,1/2+z
1/2-x,1/2-y,1/2+z
1/2+x,1/2-y,1/2-z
1/2-x,1/2+y,1/2-z
1/2-x,1/2-y,1/2-z
1/2+x,1/2+y,1/2-z
1/2-x,1/2+y,1/2+z
1/2+x,1/2-y,1/2+z
loop_
_atom_site_type_symbol
_atom_site_label
_atom_site_fract_x
_atom_site_fract_y
_atom_site_fract_z
Si Si1 0.135035 0.000000 0.082612
Si Si2 0.748387 0.140623 0.182971
Si Si3 0.000000 0.395740 0.363209
Si Si4 0.775026 0.848331 0.660815
Si Si5 0.500000 0.700320 0.919654
Si Si6 0.866755 0.500000 0.916654
O O1 0.188270 0.910617 0.119196
O O2 0.000000 0.000000 0.092406
O O3 0.170526 0.000000 0.000000
O O4 0.612874 0.117771 0.184628
O O5 0.795822 0.109818 0.260131
O O6 0.777773 0.246933 0.169417
O O7 0.000000 0.312746 0.420789
O O8 0.000000 0.500000 0.396857
O O9 0.892995 0.844388 0.619192
O O10 0.686361 0.908540 0.616884
O O11 0.500000 0.665692 0.000000
O O12 0.000000 0.500000 0.899251
O O13 0.841669 0.500000 0.000000
#
# Coordination Sequence:
#
# PCOD8291309 Si02
#       6
#     8  16   8  16   8   8
#     4  11  25  41  61  93 129 165 203 247 307 381
#     4  10  22  41  64  93 125 162 211 250 315 367
#     4  10  20  37  63  99 122 161 198 260 311 371
#     4  10  23  41  64  90 123 167 206 265 302 366
#     4  10  22  40  62  94 127 162 209 254 315 373
#     4  11  25  41  61  91 122 166 214 254 308 364
#
# _framework density 20.083715999999999
#
# number of rings (size 3 to 8) (size 9 to 14) (size 15 to 20)
#    0.000    1.750    1.250    1.500    3.500    6.750 
#    0.000    3.750    0.000    0.000    0.000    0.000 
#    0.000    0.000    0.000    0.000    0.000    0.000 
#
# Total GULP energy -396780.291108 kJ/mol
# GULP energy per Si atom -12399.384097 kJ/mol
# Density = 2.003800 g / cm^3
# Si number density = 20.083716 Si / 1000 Ang^3
#
#
#
# Elastic Constant Matrix: (Units=GPa)
#
#
# Indices 1 2 3 4 5 6 
#
# 1 128.1152 59.8467 98.7342 0.0000 0.0000 0.0000
# 2 59.8467 121.1449 59.5510 0.0000 0.0000 0.0000
# 3 98.7342 59.5510 189.8956 0.0000 0.0000 0.0000
# 4 0.0000 0.0000 0.0000 25.1735 0.0000 0.0000
# 5 0.0000 0.0000 0.0000 0.0000 32.4571 0.0000
# 6 0.0000 0.0000 0.0000 0.0000 0.0000 -10.8820
#
#
#
# Elastic Compliance Matrix: (Units=1/GPa)
#
#
# Indices 1 2 3 4 5 6 
#
# 1 0.014569 -0.004107 -0.006287 0.000000 0.000000 0.000000
# 2 -0.004107 0.010917 -0.001288 0.000000 0.000000 0.000000
# 3 -0.006287 -0.001288 0.008939 0.000000 0.000000 0.000000
# 4 0.000000 0.000000 0.000000 0.039724 0.000000 0.000000
# 5 0.000000 0.000000 0.000000 0.000000 0.030810 0.000000
# 6 0.000000 0.000000 0.000000 0.000000 0.000000 -0.091895
#
#
# Mechanical properties :
#
#
# Convention : Reuss Voigt Hill
#
# Bulk Modulus (GPa) = 90.41176 97.26885 93.84031
# Shear Modulus (GPa) = 124.64104 24.08463 74.36284
#
# Velocity S-wave (km/s) = 7.88641 3.46672 6.09154
# Velocity P-wave (km/s) = 11.31559 8.03499 9.81335
#
# Compressibility (1/GPa) = 0.01106051
#
# Stress axis : x y z
#
# Youngs Moduli (GPa) = 68.63766 91.60386 111.86912
#
# Poissons Ratio (x) = 0.37619 0.70335
# Poissons Ratio (y) = 0.28188 0.14411
# Poissons Ratio (z) = 0.43154 0.11800
#
# Static dielectric constant tensor:
#      x y z
#    x 3.683390 0.000000 0.000000 
#    y 0.000000 3.799690 0.000000 
#    z 0.000000 0.000000 3.696880 
# 
# 
# High freq. dielectric constant tensor:
#      x y z
#    x 1.785200 0.000000 0.000000 
#    y 0.000000 1.794450 0.000000 
#    z 0.000000 0.000000 1.788040 
# 
# From -- ./inp_files/23274.got.cif
#   From: 2010.06.25/outbox.cif.g09.slc.cpg/sg71_12_cif.got.tgz:23274.got - 2010.06.28 04:59:45.
