data_PCOD8291443
_publ_section_title
;
Structure prediction by ZEFSAII (Michael W. Deem and Ramdas Pophale) SiO2 
 PCOD8291443
Probable space group: I M M M
;
_chemical_formula_sum "Si O2"
_cell_formula_units_Z 120
_cell_length_a 18.564066
_cell_length_b 25.168668
_cell_length_c 13.758115
_cell_angle_alpha 90.000000
_cell_angle_beta 90.000000
_cell_angle_gamma 90.000000
_cell_volume 6428.242785
_symmetry_space_group_name_H-M "I M M M"
_symmetry_group_IT_number 71
_symmetry_cell_setting 'orthorhombic'
loop_
_space_group_symop_operation_xyz
x,y,z
-x,-y,z
x,-y,-z
-x,y,-z
-x,-y,-z
x,y,-z
-x,y,z
x,-y,z
1/2+x,1/2+y,1/2+z
1/2-x,1/2-y,1/2+z
1/2+x,1/2-y,1/2-z
1/2-x,1/2+y,1/2-z
1/2-x,1/2-y,1/2-z
1/2+x,1/2+y,1/2-z
1/2-x,1/2+y,1/2+z
1/2+x,1/2-y,1/2+z
loop_
_atom_site_type_symbol
_atom_site_label
_atom_site_fract_x
_atom_site_fract_y
_atom_site_fract_z
Si Si1 0.415801 0.602647 0.290082
Si Si2 0.917689 0.338912 0.386207
Si Si3 0.086307 0.000000 0.891070
Si Si4 0.914583 0.791220 0.889862
Si Si5 0.418313 0.940170 0.237323
Si Si6 0.331309 0.748143 0.216130
Si Si7 0.836152 0.136388 0.386786
Si Si8 0.704179 0.060238 0.388647
O O1 0.500000 0.599167 0.300716
O O2 0.380510 0.550270 0.335358
O O3 0.386875 0.651080 0.355513
O O4 0.397284 0.607390 0.176447
O O5 0.905198 0.340552 0.500000
O O6 0.902725 0.398298 0.347900
O O7 0.858401 0.299096 0.342722
O O8 0.000000 0.320683 0.361566
O O9 0.000000 0.000000 0.890392
O O10 0.116026 0.000000 0.000000
O O11 0.879637 0.750775 0.813838
O O12 0.000000 0.786151 0.883352
O O13 0.887882 0.780233 0.000000
O O14 0.500000 0.934358 0.275637
O O15 0.366775 0.927364 0.327368
O O16 0.404791 0.000000 0.197085
O O17 0.250000 0.750000 0.250000
O O18 0.336848 0.697525 0.145476
O O19 0.856384 0.132161 0.500000
O O20 0.762532 0.105349 0.362621
O O21 0.681155 0.065974 0.500000
O O22 0.733396 0.000000 0.368552
#
# Coordination Sequence:
#
# PCOD8291443 Si02
#       8
#    16  16   8  16  16  16  16  16
#     4   9  18  31  49  75 102 134 177 222 265 308
#     4  10  21  37  57  81 110 143 178 218 267 324
#     4   9  16  28  49  75 101 129 165 214 268 314
#     4   9  18  34  54  75 102 135 172 216 267 319
#     4   9  18  34  57  84 109 134 169 215 266 322
#     4  11  22  36  55  79 107 140 179 224 268 317
#     4  10  21  35  51  73 103 144 186 219 262 316
#     4   9  18  33  53  76 104 142 180 216 264 318
#
# _framework density 18.667619999999999
#
# number of rings (size 3 to 8) (size 9 to 14) (size 15 to 20)
#    0.000    2.467    0.000    2.000    0.933    4.000 
#    0.000    3.333    0.000    2.800    0.000    0.000 
#    0.000    0.000    0.000    0.000    0.000    0.000 
#
# Total GULP energy -743712.183794 kJ/mol
# GULP energy per Si atom -12395.203063 kJ/mol
# Density = 1.862513 g / cm^3
# Si number density = 18.667620 Si / 1000 Ang^3
#
#
#
# Elastic Constant Matrix: (Units=GPa)
#
#
# Indices 1 2 3 4 5 6 
#
# 1 28.2988 27.0202 23.3342 0.0000 0.0000 0.0000
# 2 27.0202 102.9759 51.1639 0.0000 0.0000 0.0000
# 3 23.3342 51.1639 119.9471 0.0000 0.0000 0.0000
# 4 0.0000 0.0000 0.0000 29.0637 0.0000 0.0000
# 5 0.0000 0.0000 0.0000 0.0000 23.9381 0.0000
# 6 0.0000 0.0000 0.0000 0.0000 0.0000 26.3972
#
#
#
# Elastic Compliance Matrix: (Units=1/GPa)
#
#
# Indices 1 2 3 4 5 6 
#
# 1 0.049578 -0.010427 -0.005197 0.000000 0.000000 0.000000
# 2 -0.010427 0.014515 -0.004163 0.000000 0.000000 0.000000
# 3 -0.005197 -0.004163 0.011124 0.000000 0.000000 0.000000
# 4 0.000000 0.000000 0.000000 0.034407 0.000000 0.000000
# 5 0.000000 0.000000 0.000000 0.000000 0.041774 0.000000
# 6 0.000000 0.000000 0.000000 0.000000 0.000000 0.037883
#
#
# Mechanical properties :
#
#
# Convention : Reuss Voigt Hill
#
# Bulk Modulus (GPa) = 28.05587 50.47315 39.26451
# Shear Modulus (GPa) = 20.76952 25.86004 23.31478
#
# Velocity S-wave (km/s) = 3.33918 3.72598 3.53787
# Velocity P-wave (km/s) = 5.47070 6.75330 6.14556
#
# Compressibility (1/GPa) = 0.03564317
#
# Stress axis : x y z
#
# Youngs Moduli (GPa) = 20.17013 68.89218 89.89645
#
# Poissons Ratio (x) = 0.71832 0.46721
# Poissons Ratio (y) = 0.21031 0.37426
# Poissons Ratio (z) = 0.10483 0.28681
#
# Static dielectric constant tensor:
#      x y z
#    x 3.312180 0.000000 0.000000 
#    y 0.000000 3.773090 0.000000 
#    z 0.000000 0.000000 3.487570 
# 
# 
# High freq. dielectric constant tensor:
#      x y z
#    x 1.706660 0.000000 0.000000 
#    y 0.000000 1.732490 0.000000 
#    z 0.000000 0.000000 1.729340 
# 
# From -- ./inp_files/26293.got.cif
#   From: 2010.06.25/outbox.cif.g09.slc.cpg/sg71_14_cif.got.tgz:26293.got - 2010.06.28 04:59:45.
