data_PCOD8291154
_publ_section_title
;
Structure prediction by ZEFSAII (Michael W. Deem and Ramdas Pophale) SiO2 
 PCOD8291154
Probable space group: I M M M
;
_chemical_formula_sum "Si O2"
_cell_formula_units_Z 104
_cell_length_a 9.150210
_cell_length_b 18.199824
_cell_length_c 32.042978
_cell_angle_alpha 90.000000
_cell_angle_beta 90.000000
_cell_angle_gamma 90.000000
_cell_volume 5336.187991
_symmetry_space_group_name_H-M "I M M M"
_symmetry_group_IT_number 71
_symmetry_cell_setting 'orthorhombic'
loop_
_space_group_symop_operation_xyz
x,y,z
-x,-y,z
x,-y,-z
-x,y,-z
-x,-y,-z
x,y,-z
-x,y,z
x,-y,z
1/2+x,1/2+y,1/2+z
1/2-x,1/2-y,1/2+z
1/2+x,1/2-y,1/2-z
1/2-x,1/2+y,1/2-z
1/2-x,1/2-y,1/2-z
1/2+x,1/2+y,1/2-z
1/2-x,1/2+y,1/2+z
1/2+x,1/2-y,1/2+z
loop_
_atom_site_type_symbol
_atom_site_label
_atom_site_fract_x
_atom_site_fract_y
_atom_site_fract_z
Si Si1 0.668766 0.916859 0.254394
Si Si2 0.168583 0.662244 0.838417
Si Si3 0.167211 0.586916 0.000000
Si Si4 0.172211 0.916931 0.108021
Si Si5 0.331610 0.818207 0.952708
Si Si6 0.672429 0.324437 0.313370
Si Si7 0.671276 0.341936 0.077613
O O1 0.500000 0.909694 0.241842
O O2 0.690281 0.899062 0.303123
O O3 0.756960 0.857232 0.228112
O O4 0.725374 0.000000 0.246302
O O5 0.222310 0.740583 0.820186
O O6 0.264171 0.635586 0.877592
O O7 0.000000 0.668559 0.852708
O O8 0.248331 0.614359 0.041245
O O9 0.172181 0.500000 0.000000
O O10 0.000000 0.615534 0.000000
O O11 0.239770 0.884872 0.065903
O O12 0.229838 0.871677 0.147603
O O13 0.000000 0.911259 0.103820
O O14 0.225690 0.000000 0.113673
O O15 0.500000 0.840339 0.950314
O O16 0.299266 0.744435 0.927276
O O17 0.281146 0.805039 0.000000
O O18 0.500000 0.330691 0.307931
O O19 0.500000 0.360897 0.075429
#
# Coordination Sequence:
#
# PCOD8291154 Si02
#       7
#    16  16   8  16  16  16  16
#     4  10  22  38  56  82 117 153 189 236 295 355
#     4  10  21  38  60  86 116 153 197 242 293 354
#     4  11  25  43  65  93 124 161 202 243 293 352
#     4  10  21  36  55  83 116 150 193 242 290 342
#     4  10  21  38  58  82 114 151 190 234 288 346
#     4  10  20  36  59  84 112 151 198 244 289 347
#     4  11  22  39  63  91 121 153 194 245 296 348
#
# _framework density 19.489568999999999
#
# number of rings (size 3 to 8) (size 9 to 14) (size 15 to 20)
#    0.000    1.769    2.308    1.615    0.000    5.538 
#    0.000    3.077    0.000    0.000    0.000    0.000 
#    0.000    0.000    0.000    0.000    0.000    0.000 
#
# Total GULP energy -645024.725283 kJ/mol
# GULP energy per Si atom -12404.321640 kJ/mol
# Density = 1.944521 g / cm^3
# Si number density = 19.489569 Si / 1000 Ang^3
#
#
#
# Elastic Constant Matrix: (Units=GPa)
#
#
# Indices 1 2 3 4 5 6 
#
# 1 68.5780 32.8038 45.5013 0.0000 0.0000 0.0000
# 2 32.8038 71.9542 22.6447 0.0000 0.0000 0.0000
# 3 45.5013 22.6447 103.9521 0.0000 0.0000 0.0000
# 4 0.0000 0.0000 0.0000 27.9128 0.0000 0.0000
# 5 0.0000 0.0000 0.0000 0.0000 39.0435 0.0000
# 6 0.0000 0.0000 0.0000 0.0000 0.0000 27.1390
#
#
#
# Elastic Compliance Matrix: (Units=1/GPa)
#
#
# Indices 1 2 3 4 5 6 
#
# 1 0.024484 -0.008363 -0.008895 0.000000 0.000000 0.000000
# 2 -0.008363 0.017777 -0.000212 0.000000 0.000000 0.000000
# 3 -0.008895 -0.000212 0.013560 0.000000 0.000000 0.000000
# 4 0.000000 0.000000 0.000000 0.035826 0.000000 0.000000
# 5 0.000000 0.000000 0.000000 0.000000 0.025612 0.000000
# 6 0.000000 0.000000 0.000000 0.000000 0.000000 0.036847
#
#
# Mechanical properties :
#
#
# Convention : Reuss Voigt Hill
#
# Bulk Modulus (GPa) = 47.89148 49.59822 48.74485
# Shear Modulus (GPa) = 25.50924 28.38801 26.94862
#
# Velocity S-wave (km/s) = 3.62175 3.82065 3.72253
# Velocity P-wave (km/s) = 6.48966 6.70574 6.59859
#
# Compressibility (1/GPa) = 0.02088054
#
# Stress axis : x y z
#
# Youngs Moduli (GPa) = 40.84246 56.25227 73.74834
#
# Poissons Ratio (x) = 0.47043 0.65602
# Poissons Ratio (y) = 0.34156 0.01563
# Poissons Ratio (z) = 0.36331 0.01192
#
# Static dielectric constant tensor:
#      x y z
#    x 3.464560 0.000000 0.000000 
#    y 0.000000 3.576460 0.000000 
#    z 0.000000 0.000000 3.539500 
# 
# 
# High freq. dielectric constant tensor:
#      x y z
#    x 1.751830 0.000000 0.000000 
#    y 0.000000 1.761510 0.000000 
#    z 0.000000 0.000000 1.767720 
# 
# From -- ./inp_files/63307.got.cif
#   From: 2010.06.25/outbox.cif.g09.slc.cpg/sg71_32_cif.got.tgz:63307.got - 2010.06.28 04:59:45.
