data_PCOD8291109
_publ_section_title
;
Structure prediction by ZEFSAII (Michael W. Deem and Ramdas Pophale) SiO2 
 PCOD8291109
Probable space group: I M M M
;
_chemical_formula_sum "Si O2"
_cell_formula_units_Z 80
_cell_length_a 20.513555
_cell_length_b 9.021238
_cell_length_c 22.803330
_cell_angle_alpha 90.000000
_cell_angle_beta 90.000000
_cell_angle_gamma 90.000000
_cell_volume 4219.930933
_symmetry_space_group_name_H-M "I M M M"
_symmetry_group_IT_number 71
_symmetry_cell_setting 'orthorhombic'
loop_
_space_group_symop_operation_xyz
x,y,z
-x,-y,z
x,-y,-z
-x,y,-z
-x,-y,-z
x,y,-z
-x,y,z
x,-y,z
1/2+x,1/2+y,1/2+z
1/2-x,1/2-y,1/2+z
1/2+x,1/2-y,1/2-z
1/2-x,1/2+y,1/2-z
1/2-x,1/2-y,1/2-z
1/2+x,1/2+y,1/2-z
1/2-x,1/2+y,1/2+z
1/2+x,1/2-y,1/2+z
loop_
_atom_site_type_symbol
_atom_site_label
_atom_site_fract_x
_atom_site_fract_y
_atom_site_fract_z
Si Si1 0.118624 0.327810 0.372254
Si Si2 0.500000 0.166495 0.568935
Si Si3 0.381331 0.324001 0.371391
Si Si4 0.749653 0.324345 0.433632
Si Si5 0.424120 0.828997 0.743082
Si Si6 0.000000 0.825326 0.566266
O O1 0.106809 0.500000 0.386745
O O2 0.187540 0.270756 0.397154
O O3 0.114765 0.299491 0.302929
O O4 0.063881 0.233774 0.403124
O O5 0.500000 0.159765 0.500000
O O6 0.562898 0.253612 0.589479
O O7 0.500000 0.000000 0.595664
O O8 0.387318 0.500000 0.373691
O O9 0.313391 0.266815 0.398563
O O10 0.387988 0.271115 0.304661
O O11 0.750958 0.258990 0.500000
O O12 0.748226 0.500000 0.436984
O O13 0.500000 0.782487 0.749577
O O14 0.419205 0.000000 0.724351
O O15 0.000000 0.768176 0.500000
O O16 0.000000 0.000000 0.570653
#
# Coordination Sequence:
#
# PCOD8291109 Si02
#       6
#    16   8  16  16  16   8
#     4  10  20  38  63  85 108 151 198 234 279 338
#     4  11  23  38  57  82 111 148 194 239 284 337
#     4  11  22  36  58  86 115 151 190 232 287 341
#     4   9  19  36  58  86 117 145 185 241 287 332
#     4  10  20  36  57  84 118 148 187 241 285 329
#     4  11  23  36  53  84 121 150 184 237 290 335
#
# _framework density 18.957656
#
# number of rings (size 3 to 8) (size 9 to 14) (size 15 to 20)
#    0.000    1.800    2.000    2.400    0.000    4.800 
#    0.000    2.000    0.000    4.800    0.000    0.000 
#    0.000    0.000    0.000    0.000    0.000    0.000 
#
# Total GULP energy -496089.720225 kJ/mol
# GULP energy per Si atom -12402.243006 kJ/mol
# Density = 1.891451 g / cm^3
# Si number density = 18.957656 Si / 1000 Ang^3
#
#
#
# Elastic Constant Matrix: (Units=GPa)
#
#
# Indices 1 2 3 4 5 6 
#
# 1 169.1574 39.7037 74.7745 0.0000 0.0000 0.0000
# 2 39.7037 58.4096 42.5779 0.0000 0.0000 0.0000
# 3 74.7745 42.5779 135.6962 0.0000 0.0000 0.0000
# 4 0.0000 0.0000 0.0000 31.2286 0.0000 0.0000
# 5 0.0000 0.0000 0.0000 0.0000 40.6416 0.0000
# 6 0.0000 0.0000 0.0000 0.0000 0.0000 -30.5221
#
#
#
# Elastic Compliance Matrix: (Units=1/GPa)
#
#
# Indices 1 2 3 4 5 6 
#
# 1 0.008190 -0.002953 -0.003587 0.000000 0.000000 0.000000
# 2 -0.002953 0.023262 -0.005672 0.000000 0.000000 0.000000
# 3 -0.003587 -0.005672 0.011126 0.000000 0.000000 0.000000
# 4 0.000000 0.000000 0.000000 0.032022 0.000000 0.000000
# 5 0.000000 0.000000 0.000000 0.000000 0.024605 0.000000
# 6 0.000000 0.000000 0.000000 0.000000 0.000000 -0.032763
#
#
# Mechanical properties :
#
#
# Convention : Reuss Voigt Hill
#
# Bulk Modulus (GPa) = 55.08077 75.26393 65.17235
# Shear Modulus (GPa) = 51.59090 22.01677 36.80383
#
# Velocity S-wave (km/s) = 5.22234 3.41158 4.41088
# Velocity P-wave (km/s) = 8.09206 7.43678 7.77133
#
# Compressibility (1/GPa) = 0.01815516
#
# Stress axis : x y z
#
# Youngs Moduli (GPa) = 122.09806 42.98823 89.88351
#
# Poissons Ratio (x) = 0.12693 0.32238
# Poissons Ratio (y) = 0.36052 0.50982
# Poissons Ratio (z) = 0.43792 0.24383
#
# Static dielectric constant tensor:
#      x y z
#    x 3.723490 0.000000 0.000000 
#    y 0.000000 3.317480 0.000000 
#    z 0.000000 0.000000 3.699560 
# 
# 
# High freq. dielectric constant tensor:
#      x y z
#    x 1.743740 0.000000 0.000000 
#    y 0.000000 1.717780 0.000000 
#    z 0.000000 0.000000 1.755020 
# 
# From -- ./inp_files/61045.got.cif
#   From: 2010.06.25/outbox.cif.g09.slc.cpg/sg71_31_cif.got.tgz:61045.got - 2010.06.28 04:59:45.
