data_PCOD8291569
_publ_section_title
;
Structure prediction by ZEFSAII (Michael W. Deem and Ramdas Pophale) SiO2 
 PCOD8291569
Probable space group: I M M M
;
_chemical_formula_sum "Si O2"
_cell_formula_units_Z 88
_cell_length_a 25.339627
_cell_length_b 10.351050
_cell_length_c 18.216976
_cell_angle_alpha 90.000000
_cell_angle_beta 90.000000
_cell_angle_gamma 90.000000
_cell_volume 4778.162443
_symmetry_space_group_name_H-M "I M M M"
_symmetry_group_IT_number 71
_symmetry_cell_setting 'orthorhombic'
loop_
_space_group_symop_operation_xyz
x,y,z
-x,-y,z
x,-y,-z
-x,y,-z
-x,-y,-z
x,y,-z
-x,y,z
x,-y,z
1/2+x,1/2+y,1/2+z
1/2-x,1/2-y,1/2+z
1/2+x,1/2-y,1/2-z
1/2-x,1/2+y,1/2-z
1/2-x,1/2-y,1/2-z
1/2+x,1/2+y,1/2-z
1/2-x,1/2+y,1/2+z
1/2+x,1/2-y,1/2+z
loop_
_atom_site_type_symbol
_atom_site_label
_atom_site_fract_x
_atom_site_fract_y
_atom_site_fract_z
Si Si1 0.794119 0.646482 0.834392
Si Si2 0.101137 0.729722 0.913187
Si Si3 0.794061 0.649001 0.663517
Si Si4 0.500000 0.154847 0.829142
Si Si5 0.000000 0.357319 0.831457
Si Si6 0.399767 0.153151 0.917671
Si Si7 0.940406 0.000000 0.086325
O O1 0.773508 0.500000 0.849225
O O2 0.847083 0.668206 0.879362
O O3 0.807129 0.664596 0.749029
O O4 0.752221 0.753514 0.860835
O O5 0.050398 0.659032 0.882200
O O6 0.094296 0.878429 0.888871
O O7 0.103279 0.711525 0.000000
O O8 0.778274 0.500000 0.645012
O O9 0.845104 0.695548 0.619364
O O10 0.500000 0.218014 0.746808
O O11 0.448310 0.209261 0.870631
O O12 0.500000 0.000000 0.831895
O O13 0.000000 0.500000 0.800803
O O14 0.403090 0.000000 0.919806
O O15 0.402322 0.210014 0.000000
O O16 0.000000 0.000000 0.121377
O O17 0.948608 0.000000 0.000000
#
# Coordination Sequence:
#
# PCOD8291569 Si02
#       7
#    16  16  16   8   8  16   8
#     4  10  21  36  54  77 107 142 180 222 267 316
#     4  11  22  35  53  76 105 139 178 221 265 315
#     4   9  19  36  55  76 106 142 178 220 267 315
#     4   9  17  29  48  75 107 137 167 208 263 317
#     4  11  21  32  49  73 105 143 174 210 264 320
#     4   9  16  28  49  77 105 132 168 215 265 314
#     4   9  18  36  54  72 102 138 174 217 271 315
#
# _framework density 18.417121000000002
#
# number of rings (size 3 to 8) (size 9 to 14) (size 15 to 20)
#    0.000    2.273    0.909    2.182    1.273    6.545 
#    0.000    0.000    0.000    0.000    0.000    0.000 
#    0.000    1.455    0.000    0.000    0.000    0.000 
#
# Total GULP energy -545416.356377 kJ/mol
# GULP energy per Si atom -12395.826281 kJ/mol
# Density = 1.837520 g / cm^3
# Si number density = 18.417121 Si / 1000 Ang^3
#
#
#
# Elastic Constant Matrix: (Units=GPa)
#
#
# Indices 1 2 3 4 5 6 
#
# 1 147.3428 46.8525 59.2550 0.0000 0.0000 0.0000
# 2 46.8525 76.4608 30.9412 0.0000 0.0000 0.0000
# 3 59.2550 30.9412 73.2548 0.0000 0.0000 0.0000
# 4 0.0000 0.0000 0.0000 15.9763 0.0000 0.0000
# 5 0.0000 0.0000 0.0000 0.0000 66.9486 0.0000
# 6 0.0000 0.0000 0.0000 0.0000 0.0000 58.7195
#
#
#
# Elastic Compliance Matrix: (Units=1/GPa)
#
#
# Indices 1 2 3 4 5 6 
#
# 1 0.010882 -0.003746 -0.007220 0.000000 0.000000 0.000000
# 2 -0.003746 0.017065 -0.004177 0.000000 0.000000 0.000000
# 3 -0.007220 -0.004177 0.021255 0.000000 0.000000 0.000000
# 4 0.000000 0.000000 0.000000 0.062593 0.000000 0.000000
# 5 0.000000 0.000000 0.000000 0.000000 0.014937 0.000000
# 6 0.000000 0.000000 0.000000 0.000000 0.000000 0.017030
#
#
# Mechanical properties :
#
#
# Convention : Reuss Voigt Hill
#
# Bulk Modulus (GPa) = 52.86839 63.46175 58.16507
# Shear Modulus (GPa) = 27.72342 38.99619 33.35981
#
# Velocity S-wave (km/s) = 3.88404 4.60650 4.26061
# Velocity P-wave (km/s) = 6.99162 7.92628 7.47358
#
# Compressibility (1/GPa) = 0.01891489
#
# Stress axis : x y z
#
# Youngs Moduli (GPa) = 91.89826 58.60066 47.04703
#
# Poissons Ratio (x) = 0.21954 0.33966
# Poissons Ratio (y) = 0.34428 0.19653
# Poissons Ratio (z) = 0.66347 0.24480
#
# Static dielectric constant tensor:
#      x y z
#    x 3.366330 0.000000 0.000000 
#    y 0.000000 3.533330 0.000000 
#    z 0.000000 0.000000 3.420200 
# 
# 
# High freq. dielectric constant tensor:
#      x y z
#    x 1.718660 0.000000 0.000000 
#    y 0.000000 1.684920 0.000000 
#    z 0.000000 0.000000 1.715800 
# 
# From -- ./inp_files/47140.got.cif
#   From: 2010.06.25/outbox.cif.g09.slc.cpg/sg71_24_cif.got.tgz:47140.got - 2010.06.28 04:59:45.
