data_PCOD8291121
_publ_section_title
;
Structure prediction by ZEFSAII (Michael W. Deem and Ramdas Pophale) SiO2 
 PCOD8291121
Probable space group: I M M M
;
_chemical_formula_sum "Si O2"
_cell_formula_units_Z 72
_cell_length_a 8.647139
_cell_length_b 17.581161
_cell_length_c 22.676871
_cell_angle_alpha 90.000000
_cell_angle_beta 90.000000
_cell_angle_gamma 90.000000
_cell_volume 3447.490838
_symmetry_space_group_name_H-M "I M M M"
_symmetry_group_IT_number 71
_symmetry_cell_setting 'orthorhombic'
loop_
_space_group_symop_operation_xyz
x,y,z
-x,-y,z
x,-y,-z
-x,y,-z
-x,-y,-z
x,y,-z
-x,y,z
x,-y,z
1/2+x,1/2+y,1/2+z
1/2-x,1/2-y,1/2+z
1/2+x,1/2-y,1/2-z
1/2-x,1/2+y,1/2-z
1/2-x,1/2-y,1/2-z
1/2+x,1/2+y,1/2-z
1/2-x,1/2+y,1/2+z
1/2+x,1/2-y,1/2+z
loop_
_atom_site_type_symbol
_atom_site_label
_atom_site_fract_x
_atom_site_fract_y
_atom_site_fract_z
Si Si1 0.316942 0.912558 0.000000
Si Si2 0.318219 0.647597 0.379076
Si Si3 0.684169 0.810439 0.334959
Si Si4 0.816349 0.415832 0.935469
Si Si5 0.679065 0.084781 0.230332
O O1 0.258747 0.868456 0.942057
O O2 0.500000 0.911540 0.000000
O O3 0.255686 0.000000 0.000000
O O4 0.500000 0.649850 0.390100
O O5 0.256910 0.725430 0.347970
O O6 0.271936 0.584182 0.331338
O O7 0.500000 0.813570 0.335017
O O8 0.756317 0.860167 0.387578
O O9 0.744384 0.849213 0.274189
O O10 0.748704 0.500000 0.925543
O O11 0.000000 0.418390 0.929414
O O12 0.769212 0.385217 0.000000
O O13 0.500000 0.100086 0.216427
O O14 0.700039 0.000000 0.258255
#
# Coordination Sequence:
#
# PCOD8291121 Si02
#       5
#     8  16  16  16  16
#     4  11  25  45  65  83 108 147 192 234 279 335
#     4  11  23  37  58  87 117 147 183 235 291 338
#     4   9  18  31  50  79 115 149 184 227 278 333
#     4   8  13  22  40  68 103 142 182 225 270 318
#     4  10  20  36  58  82 113 154 195 233 275 330
#
# _framework density 20.884754999999998
#
# number of rings (size 3 to 8) (size 9 to 14) (size 15 to 20)
#    0.000    2.333    0.000    3.667    1.556    6.667 
#    0.000    1.111    0.000    0.000    0.000    0.000 
#    0.000    1.778    0.000    0.000    0.000    0.000 
#
# Total GULP energy -446162.278227 kJ/mol
# GULP energy per Si atom -12393.396617 kJ/mol
# Density = 2.083722 g / cm^3
# Si number density = 20.884755 Si / 1000 Ang^3
#
#
#
# Elastic Constant Matrix: (Units=GPa)
#
#
# Indices 1 2 3 4 5 6 
#
# 1 36.6452 24.6769 27.2383 0.0000 0.0000 0.0000
# 2 24.6769 110.1574 61.0078 0.0000 0.0000 0.0000
# 3 27.2383 61.0078 159.9621 0.0000 0.0000 0.0000
# 4 0.0000 0.0000 0.0000 31.9338 0.0000 0.0000
# 5 0.0000 0.0000 0.0000 0.0000 24.8573 0.0000
# 6 0.0000 0.0000 0.0000 0.0000 0.0000 19.0050
#
#
#
# Elastic Compliance Matrix: (Units=1/GPa)
#
#
# Indices 1 2 3 4 5 6 
#
# 1 0.033718 -0.005545 -0.003627 0.000000 0.000000 0.000000
# 2 -0.005545 0.012421 -0.003793 0.000000 0.000000 0.000000
# 3 -0.003627 -0.003793 0.008316 0.000000 0.000000 0.000000
# 4 0.000000 0.000000 0.000000 0.031315 0.000000 0.000000
# 5 0.000000 0.000000 0.000000 0.000000 0.040230 0.000000
# 6 0.000000 0.000000 0.000000 0.000000 0.000000 0.052618
#
#
# Mechanical properties :
#
#
# Convention : Reuss Voigt Hill
#
# Bulk Modulus (GPa) = 35.05626 59.17894 47.11760
# Shear Modulus (GPa) = 23.35853 28.08199 25.72026
#
# Velocity S-wave (km/s) = 3.34795 3.67088 3.51313
# Velocity P-wave (km/s) = 5.63623 6.80916 6.25027
#
# Compressibility (1/GPa) = 0.02852558
#
# Stress axis : x y z
#
# Youngs Moduli (GPa) = 29.65739 80.51102 120.25534
#
# Poissons Ratio (x) = 0.44642 0.43615
# Poissons Ratio (y) = 0.16444 0.45612
# Poissons Ratio (z) = 0.10756 0.30537
#
# Static dielectric constant tensor:
#      x y z
#    x 3.171440 0.000000 0.000000 
#    y 0.000000 4.089650 0.000000 
#    z 0.000000 0.000000 3.949720 
# 
# 
# High freq. dielectric constant tensor:
#      x y z
#    x 1.761590 0.000000 0.000000 
#    y 0.000000 1.828490 0.000000 
#    z 0.000000 0.000000 1.833280 
# 
# From -- ./inp_files/50202.got.cif
#   From: 2010.06.25/outbox.cif.g09.slc.cpg/sg71_26_cif.got.tgz:50202.got - 2010.06.28 04:59:45.
