data_PCOD8291298
_publ_section_title
;
Structure prediction by ZEFSAII (Michael W. Deem and Ramdas Pophale) SiO2 
 PCOD8291298
Probable space group: I M M M
;
_chemical_formula_sum "Si O2"
_cell_formula_units_Z 64
_cell_length_a 22.069653
_cell_length_b 9.040458
_cell_length_c 16.338159
_cell_angle_alpha 90.000000
_cell_angle_beta 90.000000
_cell_angle_gamma 90.000000
_cell_volume 3259.785743
_symmetry_space_group_name_H-M "I M M M"
_symmetry_group_IT_number 71
_symmetry_cell_setting 'orthorhombic'
loop_
_space_group_symop_operation_xyz
x,y,z
-x,-y,z
x,-y,-z
-x,y,-z
-x,-y,-z
x,y,-z
-x,y,z
x,-y,z
1/2+x,1/2+y,1/2+z
1/2-x,1/2-y,1/2+z
1/2+x,1/2-y,1/2-z
1/2-x,1/2+y,1/2-z
1/2-x,1/2-y,1/2-z
1/2+x,1/2+y,1/2-z
1/2-x,1/2+y,1/2+z
1/2+x,1/2-y,1/2+z
loop_
_atom_site_type_symbol
_atom_site_label
_atom_site_fract_x
_atom_site_fract_y
_atom_site_fract_z
Si Si1 0.142368 0.170408 0.358281
Si Si2 0.387346 0.330252 0.328186
Si Si3 0.260963 0.328282 0.596040
Si Si4 0.000000 0.674744 0.092903
Si Si5 0.070596 0.673323 0.500000
O O1 0.114890 0.189924 0.268774
O O2 0.210178 0.233247 0.358577
O O3 0.099660 0.259249 0.419233
O O4 0.144216 0.000000 0.385168
O O5 0.399772 0.500000 0.352308
O O6 0.325320 0.274987 0.369541
O O7 0.440767 0.230809 0.361595
O O8 0.257722 0.296868 0.500000
O O9 0.250157 0.500000 0.616399
O O10 0.000000 0.500000 0.096124
O O11 0.000000 0.733563 0.000000
O O12 0.084131 0.500000 0.500000
O O13 0.000000 0.710477 0.500000
#
# Coordination Sequence:
#
# PCOD8291298 Si02
#       5
#    16  16  16   8   8
#     4  11  23  39  62  93 125 158 202 255 308 360
#     4  10  23  41  63  91 123 163 205 249 306 368
#     4  10  20  37  62  90 123 163 204 245 299 368
#     4  11  25  43  63  92 125 160 205 255 304 355
#     4  11  25  43  63  87 121 166 209 248 305 369
#
# _framework density 19.633192999999999
#
# number of rings (size 3 to 8) (size 9 to 14) (size 15 to 20)
#    0.000    1.500    1.250    3.000    1.750    6.000 
#    0.000    0.000    0.000    0.000    0.000    0.000 
#    0.000    0.000    0.000    0.000    0.000    0.000 
#
# Total GULP energy -397012.968301 kJ/mol
# GULP energy per Si atom -12406.655259 kJ/mol
# Density = 1.958851 g / cm^3
# Si number density = 19.633193 Si / 1000 Ang^3
#
#
#
# Elastic Constant Matrix: (Units=GPa)
#
#
# Indices 1 2 3 4 5 6 
#
# 1 161.6879 77.4562 55.8431 0.0000 0.0000 0.0000
# 2 77.4562 87.3661 43.5807 0.0000 0.0000 0.0000
# 3 55.8431 43.5807 80.2574 0.0000 0.0000 0.0000
# 4 0.0000 0.0000 0.0000 28.3627 0.0000 0.0000
# 5 0.0000 0.0000 0.0000 0.0000 28.0388 0.0000
# 6 0.0000 0.0000 0.0000 0.0000 0.0000 4.3729
#
#
#
# Elastic Compliance Matrix: (Units=1/GPa)
#
#
# Indices 1 2 3 4 5 6 
#
# 1 0.011369 -0.008412 -0.003343 0.000000 0.000000 0.000000
# 2 -0.008412 0.021922 -0.006051 0.000000 0.000000 0.000000
# 3 -0.003343 -0.006051 0.018072 0.000000 0.000000 0.000000
# 4 0.000000 0.000000 0.000000 0.035258 0.000000 0.000000
# 5 0.000000 0.000000 0.000000 0.000000 0.035665 0.000000
# 6 0.000000 0.000000 0.000000 0.000000 0.000000 0.228681
#
#
# Mechanical properties :
#
#
# Convention : Reuss Voigt Hill
#
# Bulk Modulus (GPa) = 63.48642 75.89680 69.69161
# Shear Modulus (GPa) = 12.76070 22.31697 17.53884
#
# Velocity S-wave (km/s) = 2.55219 3.37515 2.99210
# Velocity P-wave (km/s) = 6.41025 7.34372 6.89280
#
# Compressibility (1/GPa) = 0.01575140
#
# Stress axis : x y z
#
# Youngs Moduli (GPa) = 87.95862 45.61563 55.33544
#
# Poissons Ratio (x) = 0.38372 0.18497
# Poissons Ratio (y) = 0.73990 0.33484
# Poissons Ratio (z) = 0.29402 0.27602
#
# Static dielectric constant tensor:
#      x y z
#    x 3.683220 0.000000 0.000000 
#    y 0.000000 3.616790 0.000000 
#    z 0.000000 0.000000 3.687000 
# 
# 
# High freq. dielectric constant tensor:
#      x y z
#    x 1.778680 0.000000 0.000000 
#    y 0.000000 1.767110 0.000000 
#    z 0.000000 0.000000 1.780080 
# 
# From -- ./inp_files/38769.got.cif
#   From: 2010.06.25/outbox.cif.g09.slc.cpg/sg71_20_cif.got.tgz:38769.got - 2010.06.28 04:59:45.
