data_PCOD8291265
_publ_section_title
;
Structure prediction by ZEFSAII (Michael W. Deem and Ramdas Pophale) SiO2 
 PCOD8291265
Probable space group: I M M M
;
_chemical_formula_sum "Si O2"
_cell_formula_units_Z 104
_cell_length_a 29.530201
_cell_length_b 8.878677
_cell_length_c 20.750579
_cell_angle_alpha 90.000000
_cell_angle_beta 90.000000
_cell_angle_gamma 90.000000
_cell_volume 5440.575973
_symmetry_space_group_name_H-M "I M M M"
_symmetry_group_IT_number 71
_symmetry_cell_setting 'orthorhombic'
loop_
_space_group_symop_operation_xyz
x,y,z
-x,-y,z
x,-y,-z
-x,y,-z
-x,-y,-z
x,y,-z
-x,y,z
x,-y,z
1/2+x,1/2+y,1/2+z
1/2-x,1/2-y,1/2+z
1/2+x,1/2-y,1/2-z
1/2-x,1/2+y,1/2-z
1/2-x,1/2-y,1/2-z
1/2+x,1/2+y,1/2-z
1/2-x,1/2+y,1/2+z
1/2+x,1/2-y,1/2+z
loop_
_atom_site_type_symbol
_atom_site_label
_atom_site_fract_x
_atom_site_fract_y
_atom_site_fract_z
Si Si1 0.553699 0.168854 0.500000
Si Si2 0.284754 0.677538 0.928594
Si Si3 0.447952 0.322440 0.630459
Si Si4 0.626691 0.325619 0.852990
Si Si5 0.874450 0.675432 0.217942
Si Si6 0.448561 0.169597 0.925453
Si Si7 0.226113 0.323063 0.811424
O O1 0.500000 0.168424 0.500000
O O2 0.570920 0.252714 0.436074
O O3 0.573549 0.000000 0.500000
O O4 0.279163 0.500000 0.933900
O O5 0.334720 0.719373 0.903939
O O6 0.248265 0.740978 0.877331
O O7 0.277423 0.749273 0.000000
O O8 0.500000 0.272598 0.644035
O O9 0.444633 0.500000 0.624500
O O10 0.416189 0.266568 0.687946
O O11 0.629688 0.500000 0.832590
O O12 0.632295 0.221339 0.791364
O O13 0.578756 0.292528 0.885436
O O14 0.886174 0.500000 0.213026
O O15 0.827103 0.714294 0.183006
O O16 0.500000 0.181166 0.901880
O O17 0.430391 0.000000 0.912970
O O18 0.444662 0.211156 0.000000
O O19 0.234833 0.500000 0.804498
O O20 0.250000 0.250000 0.750000
#
# Coordination Sequence:
#
# PCOD8291265 Si02
#       7
#     8  16  16  16  16  16  16
#     4   9  17  33  59  87 115 149 189 233 283 341
#     4   9  18  34  57  84 112 143 182 229 282 337
#     4  10  21  38  60  85 115 152 193 237 287 343
#     4  11  21  34  56  82 109 146 188 234 283 335
#     4  11  23  37  56  84 114 150 193 235 285 342
#     4   9  19  36  55  76 108 148 184 224 278 334
#     4  10  20  37  60  84 113 151 190 231 284 344
#
# _framework density 19.115622999999999
#
# number of rings (size 3 to 8) (size 9 to 14) (size 15 to 20)
#    0.000    2.077    1.538    2.538    0.000    4.308 
#    1.385    0.769    0.000    1.385    0.000    0.000 
#    0.000    0.000    0.000    0.000    0.000    0.000 
#
# Total GULP energy -644810.698013 kJ/mol
# GULP energy per Si atom -12400.205731 kJ/mol
# Density = 1.907211 g / cm^3
# Si number density = 19.115623 Si / 1000 Ang^3
#
#
#
# Elastic Constant Matrix: (Units=GPa)
#
#
# Indices 1 2 3 4 5 6 
#
# 1 100.6347 38.5685 57.9360 0.0000 0.0000 0.0000
# 2 38.5685 54.8446 27.3656 0.0000 0.0000 0.0000
# 3 57.9360 27.3656 133.4083 0.0000 0.0000 0.0000
# 4 0.0000 0.0000 0.0000 29.6025 0.0000 0.0000
# 5 0.0000 0.0000 0.0000 0.0000 34.4755 0.0000
# 6 0.0000 0.0000 0.0000 0.0000 0.0000 22.4200
#
#
#
# Elastic Compliance Matrix: (Units=1/GPa)
#
#
# Indices 1 2 3 4 5 6 
#
# 1 0.016390 -0.008884 -0.005296 0.000000 0.000000 0.000000
# 2 -0.008884 0.025128 -0.001296 0.000000 0.000000 0.000000
# 3 -0.005296 -0.001296 0.010061 0.000000 0.000000 0.000000
# 4 0.000000 0.000000 0.000000 0.033781 0.000000 0.000000
# 5 0.000000 0.000000 0.000000 0.000000 0.029006 0.000000
# 6 0.000000 0.000000 0.000000 0.000000 0.000000 0.044603
#
#
# Mechanical properties :
#
#
# Convention : Reuss Voigt Hill
#
# Bulk Modulus (GPa) = 48.47823 59.62531 54.05177
# Shear Modulus (GPa) = 25.40686 28.30077 26.85381
#
# Velocity S-wave (km/s) = 3.64966 3.85191 3.75215
# Velocity P-wave (km/s) = 6.57081 7.14441 6.86360
#
# Compressibility (1/GPa) = 0.02062782
#
# Stress axis : x y z
#
# Youngs Moduli (GPa) = 61.01107 39.79679 99.38922
#
# Poissons Ratio (x) = 0.35355 0.52633
# Poissons Ratio (y) = 0.54202 0.12883
# Poissons Ratio (z) = 0.32309 0.05159
#
# Static dielectric constant tensor:
#      x y z
#    x 3.556690 0.000000 0.000000 
#    y 0.000000 3.371810 0.000000 
#    z 0.000000 0.000000 3.667600 
# 
# 
# High freq. dielectric constant tensor:
#      x y z
#    x 1.741040 0.000000 0.000000 
#    y 0.000000 1.731640 0.000000 
#    z 0.000000 0.000000 1.747550 
# 
# From -- ./inp_files/16994.got.cif
#   From: 2010.06.25/outbox.cif.g09.slc.cpg/sg71_9_cif.got.tgz:16994.got - 2010.06.28 04:59:45.
