data_PCOD8291728
_publ_section_title
;
Structure prediction by ZEFSAII (Michael W. Deem and Ramdas Pophale) SiO2 
 PCOD8291728
Probable space group: I M M M
;
_chemical_formula_sum "Si O2"
_cell_formula_units_Z 72
_cell_length_a 26.645279
_cell_length_b 7.574542
_cell_length_c 18.176790
_cell_angle_alpha 90.000000
_cell_angle_beta 90.000000
_cell_angle_gamma 90.000000
_cell_volume 3668.544908
_symmetry_space_group_name_H-M "I M M M"
_symmetry_group_IT_number 71
_symmetry_cell_setting 'orthorhombic'
loop_
_space_group_symop_operation_xyz
x,y,z
-x,-y,z
x,-y,-z
-x,y,-z
-x,-y,-z
x,y,-z
-x,y,z
x,-y,z
1/2+x,1/2+y,1/2+z
1/2-x,1/2-y,1/2+z
1/2+x,1/2-y,1/2-z
1/2-x,1/2+y,1/2-z
1/2-x,1/2-y,1/2-z
1/2+x,1/2+y,1/2-z
1/2-x,1/2+y,1/2+z
1/2+x,1/2-y,1/2+z
loop_
_atom_site_type_symbol
_atom_site_label
_atom_site_fract_x
_atom_site_fract_y
_atom_site_fract_z
Si Si1 0.000000 0.792190 0.080427
Si Si2 0.813527 0.207821 0.917536
Si Si3 0.939933 0.500000 0.713043
Si Si4 0.092589 0.209531 0.821702
Si Si5 0.868348 0.500000 0.412747
Si Si6 0.704726 0.695377 0.086767
O O1 0.950837 0.730743 0.122881
O O2 0.000000 0.000000 0.072034
O O3 0.000000 0.703197 0.000000
O O4 0.855924 0.270123 0.860529
O O5 0.760460 0.266949 0.882369
O O6 0.815131 0.000000 0.924902
O O7 0.821987 0.288335 0.000000
O O8 0.916637 0.677269 0.748523
O O9 0.921818 0.500000 0.628136
O O10 0.000000 0.500000 0.715538
O O11 0.091238 0.000000 0.803114
O O12 0.878429 0.500000 0.500000
O O13 0.836697 0.331259 0.384638
O O14 0.687394 0.500000 0.110742
O O15 0.708886 0.717546 0.000000
#
# Coordination Sequence:
#
# PCOD8291728 Si02
#       6
#     8  16   8  16   8  16
#     4   9  16  31  55  81 112 158 208 240 268 313
#     4   9  16  30  56  87 122 162 200 232 268 322
#     4  12  26  43  62  84 110 150 197 245 309 361
#     4  10  21  37  56  81 121 163 195 236 283 334
#     4  10  22  43  66  86 110 139 188 250 304 368
#     4   9  17  32  58  89 118 148 182 231 293 346
#
# _framework density 19.626308999999999
#
# number of rings (size 3 to 8) (size 9 to 14) (size 15 to 20)
#    0.000    2.333    2.222    0.667    1.556    3.778 
#    0.000    3.333    0.000    0.000    0.000    4.667 
#    0.000    0.000    0.000    0.000    0.000    0.000 
#
# Total GULP energy -446253.469834 kJ/mol
# GULP energy per Si atom -12395.929718 kJ/mol
# Density = 1.958164 g / cm^3
# Si number density = 19.626309 Si / 1000 Ang^3
#
#
#
# Elastic Constant Matrix: (Units=GPa)
#
#
# Indices 1 2 3 4 5 6 
#
# 1 100.0359 42.7886 53.9098 0.0000 0.0000 0.0000
# 2 42.7886 86.6665 35.5984 0.0000 0.0000 0.0000
# 3 53.9098 35.5984 79.6234 0.0000 0.0000 0.0000
# 4 0.0000 0.0000 0.0000 14.8696 0.0000 0.0000
# 5 0.0000 0.0000 0.0000 0.0000 41.8392 0.0000
# 6 0.0000 0.0000 0.0000 0.0000 0.0000 5.7550
#
#
#
# Elastic Compliance Matrix: (Units=1/GPa)
#
#
# Indices 1 2 3 4 5 6 
#
# 1 0.017065 -0.004507 -0.009539 0.000000 0.000000 0.000000
# 2 -0.004507 0.015324 -0.003800 0.000000 0.000000 0.000000
# 3 -0.009539 -0.003800 0.020716 0.000000 0.000000 0.000000
# 4 0.000000 0.000000 0.000000 0.067251 0.000000 0.000000
# 5 0.000000 0.000000 0.000000 0.000000 0.023901 0.000000
# 6 0.000000 0.000000 0.000000 0.000000 0.000000 0.173763
#
#
# Mechanical properties :
#
#
# Convention : Reuss Voigt Hill
#
# Bulk Modulus (GPa) = 57.42445 58.99105 58.20775
# Shear Modulus (GPa) = 13.90757 21.42801 17.66779
#
# Velocity S-wave (km/s) = 2.66488 3.30783 3.00360
# Velocity P-wave (km/s) = 6.22826 6.68665 6.46152
#
# Compressibility (1/GPa) = 0.01741418
#
# Stress axis : x y z
#
# Youngs Moduli (GPa) = 58.60034 65.25517 48.27120
#
# Poissons Ratio (x) = 0.29411 0.46045
# Poissons Ratio (y) = 0.26412 0.18342
# Poissons Ratio (z) = 0.55898 0.24796
#
# Static dielectric constant tensor:
#      x y z
#    x 3.668210 0.000000 0.000000 
#    y 0.000000 3.570590 0.000000 
#    z 0.000000 0.000000 3.263380 
# 
# 
# High freq. dielectric constant tensor:
#      x y z
#    x 1.764500 0.000000 0.000000 
#    y 0.000000 1.767800 0.000000 
#    z 0.000000 0.000000 1.727170 
# 
# From -- ./inp_files/39984.got.cif
#   From: 2010.06.25/outbox.cif.g09.slc.cpg/sg71_20_cif.got.tgz:39984.got - 2010.06.28 04:59:45.
