data_PCOD8291510
_publ_section_title
;
Structure prediction by ZEFSAII (Michael W. Deem and Ramdas Pophale) SiO2 
 PCOD8291510
Probable space group: I M M M
;
_chemical_formula_sum "Si O2"
_cell_formula_units_Z 88
_cell_length_a 24.107538
_cell_length_b 19.730773
_cell_length_c 9.004264
_cell_angle_alpha 90.000000
_cell_angle_beta 90.000000
_cell_angle_gamma 90.000000
_cell_volume 4282.971455
_symmetry_space_group_name_H-M "I M M M"
_symmetry_group_IT_number 71
_symmetry_cell_setting 'orthorhombic'
loop_
_space_group_symop_operation_xyz
x,y,z
-x,-y,z
x,-y,-z
-x,y,-z
-x,-y,-z
x,y,-z
-x,y,z
x,-y,z
1/2+x,1/2+y,1/2+z
1/2-x,1/2-y,1/2+z
1/2+x,1/2-y,1/2-z
1/2-x,1/2+y,1/2-z
1/2-x,1/2-y,1/2-z
1/2+x,1/2+y,1/2-z
1/2-x,1/2+y,1/2+z
1/2+x,1/2-y,1/2+z
loop_
_atom_site_type_symbol
_atom_site_label
_atom_site_fract_x
_atom_site_fract_y
_atom_site_fract_z
Si Si1 0.063760 0.000000 0.322284
Si Si2 0.830686 0.575415 0.329228
Si Si3 0.369643 0.628723 0.826119
Si Si4 0.751119 0.823802 0.676386
Si Si5 0.562133 0.893552 0.670632
Si Si6 0.437487 0.735318 0.666193
O O1 0.097266 0.935198 0.256858
O O2 0.063444 0.000000 0.500000
O O3 0.000000 0.000000 0.263804
O O4 0.827410 0.598481 0.500000
O O5 0.804730 0.500000 0.309354
O O6 0.800335 0.631035 0.228751
O O7 0.894587 0.570104 0.278315
O O8 0.305929 0.634531 0.773279
O O9 0.399112 0.698282 0.783711
O O10 0.371509 0.620402 0.000000
O O11 0.748154 0.813977 0.500000
O O12 0.750000 0.750000 0.750000
O O13 0.576277 0.910902 0.500000
O O14 0.500000 0.919108 0.708374
O O15 0.566002 0.814005 0.699616
O O16 0.416208 0.719421 0.500000
O O17 0.500000 0.708896 0.685464
#
# Coordination Sequence:
#
# PCOD8291510 Si02
#       6
#     8  16  16  16  16  16
#     4   9  18  34  55  81 115 149 186 237 292 349
#     4  11  25  42  60  86 122 160 201 248 301 361
#     4  10  21  35  56  83 110 148 195 242 293 353
#     4  11  24  41  64  90 119 156 204 257 309 370
#     4   9  19  37  61  88 117 153 197 243 298 362
#     4   9  18  33  54  82 116 150 186 234 290 348
#
# _framework density 20.546482999999998
#
# number of rings (size 3 to 8) (size 9 to 14) (size 15 to 20)
#    0.000    2.091    0.000    3.818    1.273    8.364 
#    0.000    4.091    0.000    1.636    0.000    0.000 
#    0.000    0.000    0.000    0.000    0.000    0.000 
#
# Total GULP energy -545544.460059 kJ/mol
# GULP energy per Si atom -12398.737729 kJ/mol
# Density = 2.049972 g / cm^3
# Si number density = 20.546483 Si / 1000 Ang^3
#
#
#
# Elastic Constant Matrix: (Units=GPa)
#
#
# Indices 1 2 3 4 5 6 
#
# 1 119.6724 54.5327 39.2110 0.0000 0.0000 0.0000
# 2 54.5327 97.2173 40.5317 0.0000 0.0000 0.0000
# 3 39.2110 40.5317 40.2385 0.0000 0.0000 0.0000
# 4 0.0000 0.0000 0.0000 26.9604 0.0000 0.0000
# 5 0.0000 0.0000 0.0000 0.0000 30.4936 0.0000
# 6 0.0000 0.0000 0.0000 0.0000 0.0000 36.2403
#
#
#
# Elastic Compliance Matrix: (Units=1/GPa)
#
#
# Indices 1 2 3 4 5 6 
#
# 1 0.012911 -0.003443 -0.009114 0.000000 0.000000 0.000000
# 2 -0.003443 0.018651 -0.015433 0.000000 0.000000 0.000000
# 3 -0.009114 -0.015433 0.049278 0.000000 0.000000 0.000000
# 4 0.000000 0.000000 0.000000 0.037091 0.000000 0.000000
# 5 0.000000 0.000000 0.000000 0.000000 0.032794 0.000000
# 6 0.000000 0.000000 0.000000 0.000000 0.000000 0.027594
#
#
# Mechanical properties :
#
#
# Convention : Reuss Voigt Hill
#
# Bulk Modulus (GPa) = 40.22118 58.40877 49.31497
# Shear Modulus (GPa) = 20.61137 26.92905 23.77021
#
# Velocity S-wave (km/s) = 3.17070 3.62420 3.40501
# Velocity P-wave (km/s) = 5.74654 6.78251 6.28590
#
# Compressibility (1/GPa) = 0.02486252
#
# Stress axis : x y z
#
# Youngs Moduli (GPa) = 77.45336 53.61506 20.29306
#
# Poissons Ratio (x) = 0.18457 0.18494
# Poissons Ratio (y) = 0.26664 0.31318
# Poissons Ratio (z) = 0.70588 0.82742
#
# Static dielectric constant tensor:
#      x y z
#    x 4.012410 0.000000 0.000000 
#    y 0.000000 3.741350 0.000000 
#    z 0.000000 0.000000 3.492300 
# 
# 
# High freq. dielectric constant tensor:
#      x y z
#    x 1.813460 0.000000 0.000000 
#    y 0.000000 1.810100 0.000000 
#    z 0.000000 0.000000 1.782710 
# 
# From -- ./inp_files/12535.got.cif
#   From: 2010.06.25/outbox.cif.g09.slc.cpg/sg71_7_cif.got.tgz:12535.got - 2010.06.28 04:59:45.
