data_PCOD8291327
_publ_section_title
;
Structure prediction by ZEFSAII (Michael W. Deem and Ramdas Pophale) SiO2 
 PCOD8291327
Probable space group: I M M M
;
_chemical_formula_sum "Si O2"
_cell_formula_units_Z 88
_cell_length_a 24.420969
_cell_length_b 10.025791
_cell_length_c 18.192007
_cell_angle_alpha 90.000000
_cell_angle_beta 90.000000
_cell_angle_gamma 90.000000
_cell_volume 4454.122466
_symmetry_space_group_name_H-M "I M M M"
_symmetry_group_IT_number 71
_symmetry_cell_setting 'orthorhombic'
loop_
_space_group_symop_operation_xyz
x,y,z
-x,-y,z
x,-y,-z
-x,y,-z
-x,-y,-z
x,y,-z
-x,y,z
x,-y,z
1/2+x,1/2+y,1/2+z
1/2-x,1/2-y,1/2+z
1/2+x,1/2-y,1/2-z
1/2-x,1/2+y,1/2-z
1/2-x,1/2-y,1/2-z
1/2+x,1/2+y,1/2-z
1/2-x,1/2+y,1/2+z
1/2+x,1/2-y,1/2+z
loop_
_atom_site_type_symbol
_atom_site_label
_atom_site_fract_x
_atom_site_fract_y
_atom_site_fract_z
Si Si1 0.591578 0.226897 0.801871
Si Si2 0.000000 0.341693 0.585957
Si Si3 0.659751 0.000000 0.587489
Si Si4 0.613042 0.500000 0.582266
Si Si5 0.937224 0.000000 0.233875
Si Si6 0.715845 0.149564 0.800249
Si Si7 0.202959 0.219673 0.916505
Si Si8 0.060509 0.500000 0.191528
O O1 0.554811 0.216887 0.875671
O O2 0.592265 0.374424 0.769599
O O3 0.654370 0.193056 0.817876
O O4 0.567173 0.130316 0.740819
O O5 0.000000 0.500000 0.595219
O O6 0.000000 0.299908 0.500000
O O7 0.691605 0.131806 0.615503
O O8 0.652222 0.000000 0.500000
O O9 0.599982 0.000000 0.622201
O O10 0.586911 0.500000 0.500000
O O11 0.567065 0.500000 0.645038
O O12 0.648645 0.367354 0.593306
O O13 0.000000 0.000000 0.256416
O O14 0.750000 0.250000 0.750000
O O15 0.746609 0.148206 0.877702
O O16 0.715556 0.000000 0.766223
O O17 0.221021 0.231154 0.000000
O O18 0.000000 0.500000 0.157671
#
# Coordination Sequence:
#
# PCOD8291327 Si02
#       8
#    16   8   8   8   8  16  16   8
#     4  12  24  42  62  98 127 164 216 265 327 381
#     4  11  22  45  73  97 124 165 217 273 331 395
#     4  10  22  38  59  91 127 172 209 253 309 372
#     4  10  20  38  61  91 127 172 221 259 301 370
#     4  12  24  40  65  91 131 173 208 262 322 377
#     4  12  25  39  64  96 130 164 213 267 318 382
#     4  10  22  40  61  87 127 169 210 251 313 377
#     4  12  20  38  65  85 129 163 212 266 312 371
#
# _framework density 19.756978
#
# number of rings (size 3 to 8) (size 9 to 14) (size 15 to 20)
#    0.000    0.818    4.545    3.273    2.545    1.091 
#    0.000    0.909    0.000    5.455    0.000    0.000 
#    0.000    0.000    0.000    0.000    0.000    0.000 
#
# Total GULP energy -545667.753077 kJ/mol
# GULP energy per Si atom -12401.539843 kJ/mol
# Density = 1.971201 g / cm^3
# Si number density = 19.756978 Si / 1000 Ang^3
#
#
#
# Elastic Constant Matrix: (Units=GPa)
#
#
# Indices 1 2 3 4 5 6 
#
# 1 115.4466 23.3915 45.9146 0.0000 0.0000 0.0000
# 2 23.3915 148.7691 39.8301 0.0000 0.0000 0.0000
# 3 45.9146 39.8301 85.9437 0.0000 0.0000 0.0000
# 4 0.0000 0.0000 0.0000 29.3477 0.0000 0.0000
# 5 0.0000 0.0000 0.0000 0.0000 32.7540 0.0000
# 6 0.0000 0.0000 0.0000 0.0000 0.0000 28.8476
#
#
#
# Elastic Compliance Matrix: (Units=1/GPa)
#
#
# Indices 1 2 3 4 5 6 
#
# 1 0.011003 -0.000178 -0.005796 0.000000 0.000000 0.000000
# 2 -0.000178 0.007677 -0.003463 0.000000 0.000000 0.000000
# 3 -0.005796 -0.003463 0.016336 0.000000 0.000000 0.000000
# 4 0.000000 0.000000 0.000000 0.034074 0.000000 0.000000
# 5 0.000000 0.000000 0.000000 0.000000 0.030531 0.000000
# 6 0.000000 0.000000 0.000000 0.000000 0.000000 0.034665
#
#
# Mechanical properties :
#
#
# Convention : Reuss Voigt Hill
#
# Bulk Modulus (GPa) = 61.94473 63.15908 62.55191
# Shear Modulus (GPa) = 31.53768 34.25808 32.89788
#
# Velocity S-wave (km/s) = 3.99968 4.16862 4.08502
# Velocity P-wave (km/s) = 7.26301 7.43016 7.34706
#
# Compressibility (1/GPa) = 0.01614342
#
# Stress axis : x y z
#
# Youngs Moduli (GPa) = 90.88291 130.26096 61.21268
#
# Poissons Ratio (x) = 0.02324 0.35477
# Poissons Ratio (y) = 0.01621 0.21195
# Poissons Ratio (z) = 0.52673 0.45103
#
# Static dielectric constant tensor:
#      x y z
#    x 3.633490 0.000000 0.000000 
#    y 0.000000 4.044050 0.000000 
#    z 0.000000 0.000000 3.708590 
# 
# 
# High freq. dielectric constant tensor:
#      x y z
#    x 1.766100 0.000000 0.000000 
#    y 0.000000 1.789020 0.000000 
#    z 0.000000 0.000000 1.770170 
# 
# From -- ./inp_files/55642.got.cif
#   From: 2010.06.25/outbox.cif.g09.slc.cpg/sg71_28_cif.got.tgz:55642.got - 2010.06.28 04:59:45.
