data_PCOD8291219
_publ_section_title
;
Structure prediction by ZEFSAII (Michael W. Deem and Ramdas Pophale) SiO2 
 PCOD8291219
Probable space group: I M M M
;
_chemical_formula_sum "Si O2"
_cell_formula_units_Z 36
_cell_length_a 7.387927
_cell_length_b 20.953222
_cell_length_c 12.325585
_cell_angle_alpha 90.000000
_cell_angle_beta 90.000000
_cell_angle_gamma 90.000000
_cell_volume 1908.011337
_symmetry_space_group_name_H-M "I M M M"
_symmetry_group_IT_number 71
_symmetry_cell_setting 'orthorhombic'
loop_
_space_group_symop_operation_xyz
x,y,z
-x,-y,z
x,-y,-z
-x,y,-z
-x,-y,-z
x,y,-z
-x,y,z
x,-y,z
1/2+x,1/2+y,1/2+z
1/2-x,1/2-y,1/2+z
1/2+x,1/2-y,1/2-z
1/2-x,1/2+y,1/2-z
1/2-x,1/2-y,1/2-z
1/2+x,1/2+y,1/2-z
1/2-x,1/2+y,1/2+z
1/2+x,1/2-y,1/2+z
loop_
_atom_site_type_symbol
_atom_site_label
_atom_site_fract_x
_atom_site_fract_y
_atom_site_fract_z
Si Si1 0.699384 0.134817 0.500000
Si Si2 0.500000 0.257465 0.500000
Si Si3 0.209609 0.574717 0.783937
Si Si4 0.500000 0.379587 0.379674
O O1 0.500000 0.101918 0.500000
O O2 0.679193 0.212152 0.500000
O O3 0.794303 0.110265 0.389928
O O4 0.500000 0.302140 0.392508
O O5 0.237822 0.500000 0.800499
O O6 0.318933 0.598364 0.680070
O O7 0.000000 0.592898 0.764694
O O8 0.500000 0.411071 0.500000
#
# Coordination Sequence:
#
# PCOD8291219 Si02
#       4
#     8   4  16   8
#     4   8  17  37  58  86 111 142 187 238 287 330
#     4   8  20  40  56  80 120 156 184 232 278 332
#     4  10  20  36  62  87 113 147 187 242 292 330
#     4  10  23  39  54  84 118 159 189 226 274 340
#
# _framework density 18.867813000000002
#
# number of rings (size 3 to 8) (size 9 to 14) (size 15 to 20)
#    1.333    1.333    0.000    1.333    0.000    8.000 
#    0.000    4.444    4.889    0.000    0.000    0.000 
#    0.000    0.000    0.000    0.000    0.000    0.000 
#
# Total GULP energy -223031.360170 kJ/mol
# GULP energy per Si atom -12390.631121 kJ/mol
# Density = 1.882487 g / cm^3
# Si number density = 18.867813 Si / 1000 Ang^3
#
#
#
# Elastic Constant Matrix: (Units=GPa)
#
#
# Indices 1 2 3 4 5 6 
#
# 1 81.3599 35.5623 57.3090 0.0000 0.0000 0.0000
# 2 35.5623 106.4118 32.9178 0.0000 0.0000 0.0000
# 3 57.3090 32.9178 138.9741 0.0000 0.0000 0.0000
# 4 0.0000 0.0000 0.0000 45.7555 0.0000 0.0000
# 5 0.0000 0.0000 0.0000 0.0000 19.3622 0.0000
# 6 0.0000 0.0000 0.0000 0.0000 0.0000 -2.7773
#
#
#
# Elastic Compliance Matrix: (Units=1/GPa)
#
#
# Indices 1 2 3 4 5 6 
#
# 1 0.018931 -0.004221 -0.006807 0.000000 0.000000 0.000000
# 2 -0.004221 0.011082 -0.000884 0.000000 0.000000 0.000000
# 3 -0.006807 -0.000884 0.010212 0.000000 0.000000 0.000000
# 4 0.000000 0.000000 0.000000 0.021855 0.000000 0.000000
# 5 0.000000 0.000000 0.000000 0.000000 0.051647 0.000000
# 6 0.000000 0.000000 0.000000 0.000000 0.000000 -0.360058
#
#
# Mechanical properties :
#
#
# Convention : Reuss Voigt Hill
#
# Bulk Modulus (GPa) = 60.97388 64.25821 62.61605
# Shear Modulus (GPa) = -23.03712 25.86517 1.41402
#
# Velocity S-wave (km/s) = -3.49804 3.70653 0.86664
# Velocity P-wave (km/s) = 4.00893 7.24216 5.85322
#
# Compressibility (1/GPa) = 0.01640046
#
# Stress axis : x y z
#
# Youngs Moduli (GPa) = 52.82463 90.23974 97.92490
#
# Poissons Ratio (x) = 0.38089 0.66654
# Poissons Ratio (y) = 0.22297 0.08659
# Poissons Ratio (z) = 0.35956 0.07979
#
# Static dielectric constant tensor:
#      x y z
#    x 3.213500 0.000000 0.000000 
#    y 0.000000 3.333080 0.000000 
#    z 0.000000 0.000000 3.467520 
# 
# 
# High freq. dielectric constant tensor:
#      x y z
#    x 1.710800 0.000000 0.000000 
#    y 0.000000 1.729090 0.000000 
#    z 0.000000 0.000000 1.736600 
# 
# From -- ./inp_files/1888.got.cif
#   From: 2010.06.25/outbox.cif.g09.slc.cpg/sg71_1_cif.got.tgz:1888.got - 2010.06.28 04:59:45.
