data_PCOD8291784
_publ_section_title
;
Structure prediction by ZEFSAII (Michael W. Deem and Ramdas Pophale) SiO2 
 PCOD8291784
Probable space group: I M M M
;
_chemical_formula_sum "Si O2"
_cell_formula_units_Z 96
_cell_length_a 23.144961
_cell_length_b 25.318360
_cell_length_c 8.953397
_cell_angle_alpha 90.000000
_cell_angle_beta 90.000000
_cell_angle_gamma 90.000000
_cell_volume 5246.623087
_symmetry_space_group_name_H-M "I M M M"
_symmetry_group_IT_number 71
_symmetry_cell_setting 'orthorhombic'
loop_
_space_group_symop_operation_xyz
x,y,z
-x,-y,z
x,-y,-z
-x,y,-z
-x,-y,-z
x,y,-z
-x,y,z
x,-y,z
1/2+x,1/2+y,1/2+z
1/2-x,1/2-y,1/2+z
1/2+x,1/2-y,1/2-z
1/2-x,1/2+y,1/2-z
1/2-x,1/2-y,1/2-z
1/2+x,1/2+y,1/2-z
1/2-x,1/2+y,1/2+z
1/2+x,1/2-y,1/2+z
loop_
_atom_site_type_symbol
_atom_site_label
_atom_site_fract_x
_atom_site_fract_y
_atom_site_fract_z
Si Si1 0.434001 0.300561 0.828446
Si Si2 0.066147 0.000000 0.176211
Si Si3 0.626598 0.903045 0.825100
Si Si4 0.367111 0.594645 0.175038
Si Si5 0.245665 0.061460 0.173525
Si Si6 0.568191 0.000000 0.667913
Si Si7 0.433417 0.192589 0.325362
O O1 0.500000 0.318604 0.800510
O O2 0.392068 0.348180 0.783613
O O3 0.417305 0.251644 0.723946
O O4 0.425085 0.283580 0.000000
O O5 0.095830 0.948272 0.239049
O O6 0.000000 0.000000 0.226843
O O7 0.073648 0.000000 0.000000
O O8 0.693481 0.912098 0.787817
O O9 0.588595 0.947943 0.750610
O O10 0.608283 0.846553 0.762581
O O11 0.614812 0.905428 0.000000
O O12 0.301029 0.592138 0.227567
O O13 0.371444 0.583213 0.000000
O O14 0.247461 0.000000 0.218571
O O15 0.229945 0.067775 0.000000
O O16 0.500000 0.000000 0.666065
O O17 0.593041 0.000000 0.500000
O O18 0.421888 0.186382 0.500000
O O19 0.500000 0.180015 0.285139
#
# Coordination Sequence:
#
# PCOD8291784 Si02
#       7
#    16   8  16  16  16   8  16
#     4   9  19  37  59  83 113 148 185 228 278 333
#     4  11  23  36  53  80 115 152 186 225 280 341
#     4  11  22  38  59  82 110 149 193 232 277 333
#     4  11  22  36  58  86 113 145 189 236 283 333
#     4  10  21  39  58  79 112 151 191 233 277 331
#     4  11  23  36  53  82 117 146 178 229 286 337
#     4  10  21  37  58  86 117 147 183 230 283 337
#
# _framework density 18.297484000000001
#
# number of rings (size 3 to 8) (size 9 to 14) (size 15 to 20)
#    0.000    1.667    1.667    3.000    0.000    7.667 
#    0.000    2.500    0.000    0.000    0.000    0.000 
#    0.000    0.000    0.000    0.000    0.000    0.000 
#
# Total GULP energy -595450.019169 kJ/mol
# GULP energy per Si atom -12405.208733 kJ/mol
# Density = 1.825584 g / cm^3
# Si number density = 18.297484 Si / 1000 Ang^3
#
#
#
# Elastic Constant Matrix: (Units=GPa)
#
#
# Indices 1 2 3 4 5 6 
#
# 1 112.9531 69.0537 56.8868 0.0000 0.0000 0.0000
# 2 69.0537 112.5260 48.9320 0.0000 0.0000 0.0000
# 3 56.8868 48.9320 79.1303 0.0000 0.0000 0.0000
# 4 0.0000 0.0000 0.0000 32.8571 0.0000 0.0000
# 5 0.0000 0.0000 0.0000 0.0000 29.9320 0.0000
# 6 0.0000 0.0000 0.0000 0.0000 0.0000 41.6618
#
#
#
# Elastic Compliance Matrix: (Units=1/GPa)
#
#
# Indices 1 2 3 4 5 6 
#
# 1 0.017210 -0.007087 -0.007990 0.000000 0.000000 0.000000
# 2 -0.007087 0.015074 -0.004227 0.000000 0.000000 0.000000
# 3 -0.007990 -0.004227 0.020995 0.000000 0.000000 0.000000
# 4 0.000000 0.000000 0.000000 0.030435 0.000000 0.000000
# 5 0.000000 0.000000 0.000000 0.000000 0.033409 0.000000
# 6 0.000000 0.000000 0.000000 0.000000 0.000000 0.024003
#
#
# Mechanical properties :
#
#
# Convention : Reuss Voigt Hill
#
# Bulk Modulus (GPa) = 68.15654 72.70602 70.43128
# Shear Modulus (GPa) = 27.08251 29.53932 28.31092
#
# Velocity S-wave (km/s) = 3.85141 4.02231 3.93779
# Velocity P-wave (km/s) = 7.55697 7.83542 7.69745
#
# Compressibility (1/GPa) = 0.01467211
#
# Stress axis : x y z
#
# Youngs Moduli (GPa) = 58.10744 66.34136 47.63083
#
# Poissons Ratio (x) = 0.47013 0.38056
# Poissons Ratio (y) = 0.41178 0.20131
# Poissons Ratio (z) = 0.46426 0.28039
#
# Static dielectric constant tensor:
#      x y z
#    x 3.446600 0.000000 0.000000 
#    y 0.000000 3.458580 0.000000 
#    z 0.000000 0.000000 3.490600 
# 
# 
# High freq. dielectric constant tensor:
#      x y z
#    x 1.710650 0.000000 0.000000 
#    y 0.000000 1.711580 0.000000 
#    z 0.000000 0.000000 1.720650 
# 
# From -- ./inp_files/12948.got.cif
#   From: 2010.06.25/outbox.cif.g09.slc.cpg/sg71_7_cif.got.tgz:12948.got - 2010.06.28 04:59:45.
