data_PCOD8291853
_publ_section_title
;
Structure prediction by ZEFSAII (Michael W. Deem and Ramdas Pophale) SiO2 
 PCOD8291853
Probable space group: I M M M
;
_chemical_formula_sum "Si O2"
_cell_formula_units_Z 64
_cell_length_a 8.887046
_cell_length_b 21.006537
_cell_length_c 17.530600
_cell_angle_alpha 90.000000
_cell_angle_beta 90.000000
_cell_angle_gamma 90.000000
_cell_volume 3272.718654
_symmetry_space_group_name_H-M "I M M M"
_symmetry_group_IT_number 71
_symmetry_cell_setting 'orthorhombic'
loop_
_space_group_symop_operation_xyz
x,y,z
-x,-y,z
x,-y,-z
-x,y,-z
-x,-y,-z
x,y,-z
-x,y,z
x,-y,z
1/2+x,1/2+y,1/2+z
1/2-x,1/2-y,1/2+z
1/2+x,1/2-y,1/2-z
1/2-x,1/2+y,1/2-z
1/2-x,1/2-y,1/2-z
1/2+x,1/2+y,1/2-z
1/2-x,1/2+y,1/2+z
1/2+x,1/2-y,1/2+z
loop_
_atom_site_type_symbol
_atom_site_label
_atom_site_fract_x
_atom_site_fract_y
_atom_site_fract_z
Si Si1 0.332784 0.000000 0.410112
Si Si2 0.679788 0.072088 0.834674
Si Si3 0.676143 0.627691 0.088104
Si Si4 0.821894 0.685047 0.223970
Si Si5 0.163313 0.425151 0.500000
O O1 0.238869 0.060281 0.383160
O O2 0.500000 0.000000 0.371964
O O3 0.351066 0.000000 0.500000
O O4 0.500000 0.072589 0.839606
O O5 0.736825 0.124758 0.774151
O O6 0.733314 0.000000 0.811628
O O7 0.745616 0.091912 0.919311
O O8 0.500000 0.630641 0.104355
O O9 0.764836 0.679339 0.137188
O O10 0.713079 0.640577 0.000000
O O11 0.750000 0.750000 0.250000
O O12 0.000000 0.689952 0.226907
O O13 0.138404 0.500000 0.500000
O O14 0.000000 0.390891 0.500000
#
# Coordination Sequence:
#
# PCOD8291853 Si02
#       5
#     8  16  16  16   8
#     4   9  17  31  55  87 117 146 183 230 287 347
#     4   8  15  29  52  81 108 139 182 232 281 332
#     4  10  21  38  59  83 113 150 195 244 292 345
#     4  11  23  38  56  81 118 154 193 240 289 350
#     4   7  10  22  46  76 107 131 164 221 281 331
#
# _framework density 19.555606999999998
#
# number of rings (size 3 to 8) (size 9 to 14) (size 15 to 20)
#    0.000    2.750    0.000    3.375    1.750    3.000 
#    2.250    0.000    0.000    0.000    0.000    0.000 
#    0.000   12.000    0.000    0.000    0.000    0.000 
#
# Total GULP energy -396470.332162 kJ/mol
# GULP energy per Si atom -12389.697880 kJ/mol
# Density = 1.951110 g / cm^3
# Si number density = 19.555607 Si / 1000 Ang^3
#
#
#
# Elastic Constant Matrix: (Units=GPa)
#
#
# Indices 1 2 3 4 5 6 
#
# 1 66.5087 43.5144 47.1206 0.0000 0.0000 0.0000
# 2 43.5144 131.0917 72.6939 0.0000 0.0000 0.0000
# 3 47.1206 72.6939 116.3485 0.0000 0.0000 0.0000
# 4 0.0000 0.0000 0.0000 -52.3379 0.0000 0.0000
# 5 0.0000 0.0000 0.0000 0.0000 21.3847 0.0000
# 6 0.0000 0.0000 0.0000 0.0000 0.0000 29.8891
#
#
#
# Elastic Compliance Matrix: (Units=1/GPa)
#
#
# Indices 1 2 3 4 5 6 
#
# 1 0.022166 -0.003641 -0.006702 0.000000 0.000000 0.000000
# 2 -0.003641 0.012270 -0.006192 0.000000 0.000000 0.000000
# 3 -0.006702 -0.006192 0.015178 0.000000 0.000000 0.000000
# 4 0.000000 0.000000 0.000000 -0.019107 0.000000 0.000000
# 5 0.000000 0.000000 0.000000 0.000000 0.046763 0.000000
# 6 0.000000 0.000000 0.000000 0.000000 0.000000 0.033457
#
#
# Mechanical properties :
#
#
# Convention : Reuss Voigt Hill
#
# Bulk Modulus (GPa) = 60.44468 71.17852 65.81160
# Shear Modulus (GPa) = 33.48668 9.82851 21.65759
#
# Velocity S-wave (km/s) = 4.14258 2.24429 3.33150
# Velocity P-wave (km/s) = 7.33877 6.57212 6.96600
#
# Compressibility (1/GPa) = 0.01654405
#
# Stress axis : x y z
#
# Youngs Moduli (GPa) = 45.11315 81.49652 65.88549
#
# Poissons Ratio (x) = 0.29676 0.44158
# Poissons Ratio (y) = 0.16427 0.40795
# Poissons Ratio (z) = 0.30236 0.50461
#
# Static dielectric constant tensor:
#      x y z
#    x 3.226700 0.000000 0.000000 
#    y 0.000000 3.452150 0.000000 
#    z 0.000000 0.000000 5.424550 
# 
# 
# High freq. dielectric constant tensor:
#      x y z
#    x 1.723310 0.000000 0.000000 
#    y 0.000000 1.742680 0.000000 
#    z 0.000000 0.000000 1.777870 
# 
# From -- ./inp_files/41866.got.cif
#   From: 2010.06.25/outbox.cif.g09.slc.cpg/sg71_21_cif.got.tgz:41866.got - 2010.06.28 04:59:45.
