data_PCOD8291975
_publ_section_title
;
Structure prediction by ZEFSAII (Michael W. Deem and Ramdas Pophale) SiO2 
 PCOD8291975
Probable space group: I M M M
;
_chemical_formula_sum "Si O2"
_cell_formula_units_Z 112
_cell_length_a 14.226559
_cell_length_b 27.681471
_cell_length_c 13.664692
_cell_angle_alpha 90.000000
_cell_angle_beta 90.000000
_cell_angle_gamma 90.000000
_cell_volume 5381.320784
_symmetry_space_group_name_H-M "I M M M"
_symmetry_group_IT_number 71
_symmetry_cell_setting 'orthorhombic'
loop_
_space_group_symop_operation_xyz
x,y,z
-x,-y,z
x,-y,-z
-x,y,-z
-x,-y,-z
x,y,-z
-x,y,z
x,-y,z
1/2+x,1/2+y,1/2+z
1/2-x,1/2-y,1/2+z
1/2+x,1/2-y,1/2-z
1/2-x,1/2+y,1/2-z
1/2-x,1/2-y,1/2-z
1/2+x,1/2+y,1/2-z
1/2-x,1/2+y,1/2+z
1/2+x,1/2-y,1/2+z
loop_
_atom_site_type_symbol
_atom_site_label
_atom_site_fract_x
_atom_site_fract_y
_atom_site_fract_z
Si Si1 0.128743 0.000000 0.611450
Si Si2 0.760964 0.555742 0.388752
Si Si3 0.604386 0.905916 0.266020
Si Si4 0.612645 0.797467 0.274825
Si Si5 0.731749 0.755841 0.110543
Si Si6 0.110213 0.161191 0.607341
Si Si7 0.101964 0.083688 0.248278
Si Si8 0.849699 0.500000 0.111225
O O1 0.086795 0.954070 0.664898
O O2 0.239594 0.000000 0.622679
O O3 0.094837 0.000000 0.500000
O O4 0.758691 0.573441 0.500000
O O5 0.790642 0.500000 0.380151
O O6 0.832746 0.588149 0.329480
O O7 0.658546 0.563207 0.342964
O O8 0.500000 0.906589 0.224039
O O9 0.623338 0.852941 0.314165
O O10 0.614772 0.950130 0.341517
O O11 0.500000 0.784565 0.264253
O O12 0.673472 0.795212 0.173702
O O13 0.664778 0.759402 0.347828
O O14 0.663949 0.710564 0.113101
O O15 0.746105 0.775468 0.000000
O O16 0.127545 0.137156 0.500000
O O17 0.151125 0.128700 0.696138
O O18 0.000000 0.170527 0.623648
O O19 0.000000 0.097993 0.206354
O O20 0.884895 0.500000 0.000000
#
# Coordination Sequence:
#
# PCOD8291975 Si02
#       8
#     8  16  16  16  16  16  16   8
#     4  11  21  33  53  81 117 154 189 236 294 360
#     4  11  23  39  55  76 108 150 205 256 298 346
#     4  11  22  41  65  90 124 161 201 246 300 360
#     4  10  23  40  62  94 127 160 202 254 306 361
#     4  10  21  39  64  89 121 162 202 247 304 363
#     4   9  18  32  55  86 116 149 192 242 299 369
#     4  11  20  34  54  79 113 153 196 246 306 362
#     4  11  23  39  63  93 129 166 197 236 296 370
#
# _framework density 20.812733999999999
#
# number of rings (size 3 to 8) (size 9 to 14) (size 15 to 20)
#    0.000    1.571    2.857    2.143    0.000    4.571 
#    0.000    4.286    0.000    0.000    0.000    4.000 
#    0.000    0.000    0.000    0.000    0.000    0.000 
#
# Total GULP energy -693916.755897 kJ/mol
# GULP energy per Si atom -12391.370641 kJ/mol
# Density = 2.076536 g / cm^3
# Si number density = 20.812734 Si / 1000 Ang^3
#
#
#
# Elastic Constant Matrix: (Units=GPa)
#
#
# Indices 1 2 3 4 5 6 
#
# 1 104.5489 26.8981 35.9097 -0.0001 0.0000 0.0000
# 2 26.8981 75.2689 21.7828 0.0001 -0.0001 0.0000
# 3 35.9097 21.7828 113.4880 0.0028 -0.0011 -0.0001
# 4 -0.0001 0.0001 0.0028 18.3136 -0.0003 0.0000
# 5 0.0000 -0.0001 -0.0011 -0.0003 -10.6034 0.0001
# 6 0.0000 0.0000 -0.0001 0.0000 0.0001 26.8417
#
#
#
# Elastic Compliance Matrix: (Units=1/GPa)
#
#
# Indices 1 2 3 4 5 6 
#
# 1 0.011421 -0.003214 -0.002997 0.000001 0.000000 0.000000
# 2 -0.003214 0.014972 -0.001857 0.000000 0.000000 0.000000
# 3 -0.002997 -0.001857 0.010116 -0.000002 -0.000001 0.000000
# 4 0.000001 0.000000 -0.000002 0.054604 -0.000001 0.000000
# 5 0.000000 0.000000 -0.000001 -0.000001 -0.094310 0.000000
# 6 0.000000 0.000000 0.000000 0.000000 0.000000 0.037255
#
#
# Mechanical properties :
#
#
# Convention : Reuss Voigt Hill
#
# Bulk Modulus (GPa) = 49.08338 51.38745 50.23542
# Shear Modulus (GPa) = 87.74174 20.82474 54.28324
#
# Velocity S-wave (km/s) = 6.49994 3.16662 5.11257
# Velocity P-wave (km/s) = 8.94242 6.17365 7.68378
#
# Compressibility (1/GPa) = 0.02037350
#
# Stress axis : x y z
#
# Youngs Moduli (GPa) = 87.55646 66.79299 98.85183
#
# Poissons Ratio (x) = 0.21468 0.29625
# Poissons Ratio (y) = 0.28142 0.18353
# Poissons Ratio (z) = 0.26240 0.12401
#
# Static dielectric constant tensor:
#      x y z
#    x 3.955070 0.000000 0.000000 
#    y 0.000000 4.106630 0.000000 
#    z 0.000000 0.000000 3.959040 
# 
# 
# High freq. dielectric constant tensor:
#      x y z
#    x 1.828160 0.000000 0.000000 
#    y 0.000000 1.810950 0.000000 
#    z 0.000000 0.000000 1.801140 
# 
# From -- ./inp_files/35201.got.cif
#   From: 2010.06.25/outbox.cif.g09.slc.cpg/sg71_18_cif.got.tgz:35201.got - 2010.06.28 04:59:45.
