data_PCOD8291623
_publ_section_title
;
Structure prediction by ZEFSAII (Michael W. Deem and Ramdas Pophale) SiO2 
 PCOD8291623
Probable space group: I M M M
;
_chemical_formula_sum "Si O2"
_cell_formula_units_Z 64
_cell_length_a 17.498819
_cell_length_b 7.577900
_cell_length_c 24.501582
_cell_angle_alpha 90.000000
_cell_angle_beta 90.000000
_cell_angle_gamma 90.000000
_cell_volume 3249.015142
_symmetry_space_group_name_H-M "I M M M"
_symmetry_group_IT_number 71
_symmetry_cell_setting 'orthorhombic'
loop_
_space_group_symop_operation_xyz
x,y,z
-x,-y,z
x,-y,-z
-x,y,-z
-x,-y,-z
x,y,-z
-x,y,z
x,-y,z
1/2+x,1/2+y,1/2+z
1/2-x,1/2-y,1/2+z
1/2+x,1/2-y,1/2-z
1/2-x,1/2+y,1/2-z
1/2-x,1/2-y,1/2-z
1/2+x,1/2+y,1/2-z
1/2-x,1/2+y,1/2+z
1/2+x,1/2-y,1/2+z
loop_
_atom_site_type_symbol
_atom_site_label
_atom_site_fract_x
_atom_site_fract_y
_atom_site_fract_z
Si Si1 0.089481 0.500000 0.668229
Si Si2 0.337848 0.705844 0.759490
Si Si3 0.586320 0.706837 0.645873
Si Si4 0.791430 0.695636 0.938889
Si Si5 0.823666 0.500000 0.563481
O O1 0.128278 0.323997 0.692176
O O2 0.102780 0.500000 0.602746
O O3 0.000000 0.500000 0.680476
O O4 0.348687 0.500000 0.774551
O O5 0.250000 0.750000 0.750000
O O6 0.383156 0.758370 0.705186
O O7 0.500000 0.775772 0.640825
O O8 0.592146 0.500000 0.636131
O O9 0.635459 0.801346 0.599826
O O10 0.755573 0.500000 0.936643
O O11 0.726056 0.829658 0.920432
O O12 0.819043 0.743957 0.000000
O O13 0.849359 0.500000 0.500000
#
# Coordination Sequence:
#
# PCOD8291623 Si02
#       5
#     8  16  16  16   8
#     4  12  26  41  64  97 126 160 206 253 315 372
#     4  11  23  41  63  90 124 164 208 254 301 367
#     4  10  21  36  55  82 121 161 195 242 304 359
#     4  10  21  37  60  87 115 156 205 249 296 356
#     4  10  22  43  65  86 118 154 200 256 303 358
#
# _framework density 19.698274999999999
#
# number of rings (size 3 to 8) (size 9 to 14) (size 15 to 20)
#    0.000    1.500    2.500    2.250    1.750    5.750 
#    0.000    2.500    0.000    0.000    0.000    5.250 
#    0.000    0.000    0.000    0.000    0.000    0.000 
#
# Total GULP energy -396886.878486 kJ/mol
# GULP energy per Si atom -12402.714953 kJ/mol
# Density = 1.965344 g / cm^3
# Si number density = 19.698275 Si / 1000 Ang^3
#
#
#
# Elastic Constant Matrix: (Units=GPa)
#
#
# Indices 1 2 3 4 5 6 
#
# 1 102.1983 40.5871 43.9284 0.0000 0.0000 0.0000
# 2 40.5871 107.8856 45.1663 0.0000 0.0000 0.0000
# 3 43.9284 45.1663 107.6979 0.0000 0.0000 0.0000
# 4 0.0000 0.0000 0.0000 22.5808 0.0000 0.0000
# 5 0.0000 0.0000 0.0000 0.0000 22.8375 0.0000
# 6 0.0000 0.0000 0.0000 0.0000 0.0000 15.4927
#
#
#
# Elastic Compliance Matrix: (Units=1/GPa)
#
#
# Indices 1 2 3 4 5 6 
#
# 1 0.012697 -0.003164 -0.003852 0.000000 0.000000 0.000000
# 2 -0.003164 0.012032 -0.003755 0.000000 0.000000 0.000000
# 3 -0.003852 -0.003755 0.012431 0.000000 0.000000 0.000000
# 4 0.000000 0.000000 0.000000 0.044285 0.000000 0.000000
# 5 0.000000 0.000000 0.000000 0.000000 0.043788 0.000000
# 6 0.000000 0.000000 0.000000 0.000000 0.000000 0.064547
#
#
# Mechanical properties :
#
#
# Convention : Reuss Voigt Hill
#
# Bulk Modulus (GPa) = 64.03129 64.12724 64.07926
# Shear Modulus (GPa) = 23.09168 24.72220 23.90694
#
# Velocity S-wave (km/s) = 3.42756 3.54650 3.48754
# Velocity P-wave (km/s) = 6.94556 7.02821 6.98700
#
# Compressibility (1/GPa) = 0.01561736
#
# Stress axis : x y z
#
# Youngs Moduli (GPa) = 78.75729 83.11496 80.44223
#
# Poissons Ratio (x) = 0.26298 0.30987
# Poissons Ratio (y) = 0.24920 0.30208
# Poissons Ratio (z) = 0.30338 0.31211
#
# Static dielectric constant tensor:
#      x y z
#    x 3.547150 0.000000 0.000000 
#    y 0.000000 3.698130 0.000000 
#    z 0.000000 0.000000 3.638400 
# 
# 
# High freq. dielectric constant tensor:
#      x y z
#    x 1.751520 0.000000 0.000000 
#    y 0.000000 1.783140 0.000000 
#    z 0.000000 0.000000 1.774330 
# 
# From -- ./inp_files/9566.got.cif
#   From: 2010.06.25/outbox.cif.g09.slc.cpg/sg71_5_cif.got.tgz:9566.got - 2010.06.28 04:59:45.
