data_PCOD8291513
_publ_section_title
;
Structure prediction by ZEFSAII (Michael W. Deem and Ramdas Pophale) SiO2 
 PCOD8291513
Probable space group: I M M M
;
_chemical_formula_sum "Si O2"
_cell_formula_units_Z 88
_cell_length_a 27.306076
_cell_length_b 8.841593
_cell_length_c 19.135076
_cell_angle_alpha 90.000000
_cell_angle_beta 90.000000
_cell_angle_gamma 90.000000
_cell_volume 4619.766290
_symmetry_space_group_name_H-M "I M M M"
_symmetry_group_IT_number 71
_symmetry_cell_setting 'orthorhombic'
loop_
_space_group_symop_operation_xyz
x,y,z
-x,-y,z
x,-y,-z
-x,y,-z
-x,-y,-z
x,y,-z
-x,y,z
x,-y,z
1/2+x,1/2+y,1/2+z
1/2-x,1/2-y,1/2+z
1/2+x,1/2-y,1/2-z
1/2-x,1/2+y,1/2-z
1/2-x,1/2-y,1/2-z
1/2+x,1/2+y,1/2-z
1/2-x,1/2+y,1/2+z
1/2+x,1/2-y,1/2+z
loop_
_atom_site_type_symbol
_atom_site_label
_atom_site_fract_x
_atom_site_fract_y
_atom_site_fract_z
Si Si1 0.732918 0.174789 0.320447
Si Si2 0.054954 0.320148 0.076545
Si Si3 0.379511 0.824354 0.299280
Si Si4 0.000000 0.820309 0.579616
Si Si5 0.900011 0.820688 0.651304
Si Si6 0.192223 0.672316 0.582062
O O1 0.750000 0.250000 0.250000
O O2 0.675273 0.199270 0.326197
O O3 0.759564 0.253188 0.385238
O O4 0.747725 0.000000 0.319732
O O5 0.056930 0.500000 0.078459
O O6 0.088064 0.254234 0.138385
O O7 0.000000 0.262101 0.089253
O O8 0.073378 0.264313 0.000000
O O9 0.392371 0.733134 0.230073
O O10 0.390598 0.000000 0.284431
O O11 0.951793 0.761172 0.620493
O O12 0.000000 0.757111 0.500000
O O13 0.000000 0.000000 0.577772
O O14 0.856860 0.758444 0.603179
O O15 0.897940 0.000000 0.649428
O O16 0.198948 0.682102 0.500000
O O17 0.187998 0.500000 0.608655
#
# Coordination Sequence:
#
# PCOD8291513 Si02
#       6
#    16  16  16   8  16  16
#     4  11  22  37  58  83 117 155 194 239 287 341
#     4   8  15  30  53  81 112 146 184 228 279 332
#     4  10  21  35  56  86 117 148 188 240 287 339
#     4   9  20  38  57  81 114 149 190 238 285 345
#     4  11  22  37  60  86 115 154 194 235 287 353
#     4  11  24  41  61  86 117 151 194 246 294 345
#
# _framework density 19.048582
#
# number of rings (size 3 to 8) (size 9 to 14) (size 15 to 20)
#    0.000    1.909    1.818    2.727    1.273    3.636 
#    0.000    3.182    0.000    3.818    0.000    1.273 
#    0.000    0.000    0.000    0.000    0.000    0.000 
#
# Total GULP energy -545607.804859 kJ/mol
# GULP energy per Si atom -12400.177383 kJ/mol
# Density = 1.900523 g / cm^3
# Si number density = 19.048582 Si / 1000 Ang^3
#
#
#
# Elastic Constant Matrix: (Units=GPa)
#
#
# Indices 1 2 3 4 5 6 
#
# 1 120.7452 51.2237 66.5569 0.0000 0.0000 0.0000
# 2 51.2237 79.7214 50.4280 0.0000 0.0000 0.0000
# 3 66.5569 50.4280 115.9782 0.0000 0.0000 0.0000
# 4 0.0000 0.0000 0.0000 21.7782 0.0000 0.0000
# 5 0.0000 0.0000 0.0000 0.0000 44.4126 0.0000
# 6 0.0000 0.0000 0.0000 0.0000 0.0000 21.4378
#
#
#
# Elastic Compliance Matrix: (Units=1/GPa)
#
#
# Indices 1 2 3 4 5 6 
#
# 1 0.013521 -0.005213 -0.005493 0.000000 0.000000 0.000000
# 2 -0.005213 0.019313 -0.005405 0.000000 0.000000 0.000000
# 3 -0.005493 -0.005405 0.014125 0.000000 0.000000 0.000000
# 4 0.000000 0.000000 0.000000 0.045917 0.000000 0.000000
# 5 0.000000 0.000000 0.000000 0.000000 0.022516 0.000000
# 6 0.000000 0.000000 0.000000 0.000000 0.000000 0.046646
#
#
# Mechanical properties :
#
#
# Convention : Reuss Voigt Hill
#
# Bulk Modulus (GPa) = 67.86276 72.54022 70.20149
# Shear Modulus (GPa) = 25.10370 27.40813 26.25592
#
# Velocity S-wave (km/s) = 3.63420 3.79734 3.71666
# Velocity P-wave (km/s) = 7.30160 7.57567 7.43989
#
# Compressibility (1/GPa) = 0.01473562
#
# Stress axis : x y z
#
# Youngs Moduli (GPa) = 73.95757 51.77930 70.79791
#
# Poissons Ratio (x) = 0.26995 0.38887
# Poissons Ratio (y) = 0.38558 0.38269
# Poissons Ratio (z) = 0.40622 0.27989
#
# Static dielectric constant tensor:
#      x y z
#    x 3.631710 0.000000 0.000000 
#    y 0.000000 3.489850 0.000000 
#    z 0.000000 0.000000 3.670990 
# 
# 
# High freq. dielectric constant tensor:
#      x y z
#    x 1.751920 0.000000 0.000000 
#    y 0.000000 1.720310 0.000000 
#    z 0.000000 0.000000 1.754650 
# 
# From -- ./inp_files/49228.got.cif
#   From: 2010.06.25/outbox.cif.g09.slc.cpg/sg71_25_cif.got.tgz:49228.got - 2010.06.28 04:59:45.
