data_PCOD8291096
_publ_section_title
;
Structure prediction by ZEFSAII (Michael W. Deem and Ramdas Pophale) SiO2 
 PCOD8291096
Probable space group: I M M M
;
_chemical_formula_sum "Si O2"
_cell_formula_units_Z 88
_cell_length_a 30.333010
_cell_length_b 16.924494
_cell_length_c 8.886349
_cell_angle_alpha 90.000000
_cell_angle_beta 90.000000
_cell_angle_gamma 90.000000
_cell_volume 4561.992502
_symmetry_space_group_name_H-M "I M M M"
_symmetry_group_IT_number 71
_symmetry_cell_setting 'orthorhombic'
loop_
_space_group_symop_operation_xyz
x,y,z
-x,-y,z
x,-y,-z
-x,y,-z
-x,-y,-z
x,y,-z
-x,y,z
x,-y,z
1/2+x,1/2+y,1/2+z
1/2-x,1/2-y,1/2+z
1/2+x,1/2-y,1/2-z
1/2-x,1/2+y,1/2-z
1/2-x,1/2-y,1/2-z
1/2+x,1/2+y,1/2-z
1/2-x,1/2+y,1/2+z
1/2+x,1/2-y,1/2+z
loop_
_atom_site_type_symbol
_atom_site_label
_atom_site_fract_x
_atom_site_fract_y
_atom_site_fract_z
Si Si1 0.383171 0.136789 0.678718
Si Si2 0.713172 0.908903 0.664009
Si Si3 0.299930 0.408129 0.323853
Si Si4 0.548026 0.587459 0.821411
Si Si5 0.374887 0.694656 0.178980
Si Si6 0.550819 0.000000 0.678744
O O1 0.385719 0.147024 0.500000
O O2 0.335644 0.103646 0.729479
O O3 0.386798 0.219746 0.760214
O O4 0.422280 0.077850 0.734189
O O5 0.718482 0.866495 0.500000
O O6 0.750462 0.880122 0.780506
O O7 0.720779 0.000000 0.637822
O O8 0.306253 0.397377 0.500000
O O9 0.309411 0.500000 0.276926
O O10 0.330709 0.345587 0.239506
O O11 0.500000 0.619365 0.771570
O O12 0.555545 0.500000 0.755534
O O13 0.585223 0.643139 0.754780
O O14 0.551199 0.584665 0.000000
O O15 0.372304 0.697033 0.000000
O O16 0.500000 0.000000 0.740861
O O17 0.549904 0.000000 0.500000
#
# Coordination Sequence:
#
# PCOD8291096 Si02
#       6
#    16  16  16  16  16   8
#     4  10  20  36  57  81 109 143 182 228 279 329
#     4   9  17  33  57  79 102 139 187 231 271 324
#     4  10  21  36  55  81 112 146 182 225 276 326
#     4   8  15  30  52  75 100 135 178 219 258 307
#     4  11  22  34  52  81 114 147 182 223 272 329
#     4   9  18  36  63  89 111 143 189 235 286 347
#
# _framework density 19.289816999999999
#
# number of rings (size 3 to 8) (size 9 to 14) (size 15 to 20)
#    0.000    2.455    0.909    2.182    0.000    4.000 
#    0.000    0.455    0.000    2.182    0.000    6.364 
#    0.000    0.000    0.000    0.000    0.000    0.000 
#
# Total GULP energy -545234.865816 kJ/mol
# GULP energy per Si atom -12391.701496 kJ/mol
# Density = 1.924591 g / cm^3
# Si number density = 19.289817 Si / 1000 Ang^3
#
#
#
# Elastic Constant Matrix: (Units=GPa)
#
#
# Indices 1 2 3 4 5 6 
#
# 1 174.6147 80.7078 39.3130 0.0000 0.0000 0.0000
# 2 80.7078 105.8474 40.3937 0.0000 0.0000 0.0000
# 3 39.3130 40.3937 42.1217 0.0000 0.0000 0.0000
# 4 0.0000 0.0000 0.0000 27.8952 0.0000 0.0000
# 5 0.0000 0.0000 0.0000 0.0000 11.3674 0.0000
# 6 0.0000 0.0000 0.0000 0.0000 0.0000 -451.4477
#
#
#
# Elastic Compliance Matrix: (Units=1/GPa)
#
#
# Indices 1 2 3 4 5 6 
#
# 1 0.009061 -0.005807 -0.002888 0.000000 0.000000 0.000000
# 2 -0.005807 0.018622 -0.012438 0.000000 0.000000 0.000000
# 3 -0.002888 -0.012438 0.038365 0.000000 0.000000 0.000000
# 4 0.000000 0.000000 0.000000 0.035849 0.000000 0.000000
# 5 0.000000 0.000000 0.000000 0.000000 0.087971 0.000000
# 6 0.000000 0.000000 0.000000 0.000000 0.000000 -0.002215
#
#
# Mechanical properties :
#
#
# Convention : Reuss Voigt Hill
#
# Bulk Modulus (GPa) = 42.05110 71.49030 56.77070
# Shear Modulus (GPa) = 21.02201 -71.62574 -25.30186
#
# Velocity S-wave (km/s) = 3.30479 -6.10016 -3.62563
# Velocity P-wave (km/s) = 6.03400 3.53191 3.45939
#
# Compressibility (1/GPa) = 0.02378059
#
# Stress axis : x y z
#
# Youngs Moduli (GPa) = 110.36191 53.70000 26.06565
#
# Poissons Ratio (x) = 0.31182 0.07529
# Poissons Ratio (y) = 0.64085 0.32422
# Poissons Ratio (z) = 0.31876 0.66795
#
# Static dielectric constant tensor:
#      x y z
#    x 3.934970 0.000000 0.000000 
#    y 0.000000 3.545550 0.000000 
#    z 0.000000 0.000000 3.345260 
# 
# 
# High freq. dielectric constant tensor:
#      x y z
#    x 1.764220 0.000000 0.000000 
#    y 0.000000 1.744680 0.000000 
#    z 0.000000 0.000000 1.719920 
# 
# From -- ./inp_files/8835.got.cif
#   From: 2010.06.25/outbox.cif.g09.slc.cpg/sg71_5_cif.got.tgz:8835.got - 2010.06.28 04:59:45.
