data_PCOD8291054
_publ_section_title
;
Structure prediction by ZEFSAII (Michael W. Deem and Ramdas Pophale) SiO2 
 PCOD8291054
Probable space group: I M M M
;
_chemical_formula_sum "Si O2"
_cell_formula_units_Z 72
_cell_length_a 16.390309
_cell_length_b 13.164499
_cell_length_c 17.654713
_cell_angle_alpha 90.000000
_cell_angle_beta 90.000000
_cell_angle_gamma 90.000000
_cell_volume 3809.361069
_symmetry_space_group_name_H-M "I M M M"
_symmetry_group_IT_number 71
_symmetry_cell_setting 'orthorhombic'
loop_
_space_group_symop_operation_xyz
x,y,z
-x,-y,z
x,-y,-z
-x,y,-z
-x,-y,-z
x,y,-z
-x,y,z
x,-y,z
1/2+x,1/2+y,1/2+z
1/2-x,1/2-y,1/2+z
1/2+x,1/2-y,1/2-z
1/2-x,1/2+y,1/2-z
1/2-x,1/2-y,1/2-z
1/2+x,1/2+y,1/2-z
1/2-x,1/2+y,1/2+z
1/2+x,1/2-y,1/2+z
loop_
_atom_site_type_symbol
_atom_site_label
_atom_site_fract_x
_atom_site_fract_y
_atom_site_fract_z
Si Si1 0.907750 0.890678 0.857385
Si Si2 0.500000 0.620505 0.089611
Si Si3 0.096555 0.316048 0.916653
Si Si4 0.685537 0.112326 0.279351
Si Si5 0.136882 0.189932 0.699619
O O1 0.865765 0.797761 0.902724
O O2 0.907876 0.865317 0.768666
O O3 0.000000 0.901543 0.885089
O O4 0.863425 0.000000 0.872297
O O5 0.500000 0.500000 0.105477
O O6 0.581247 0.672114 0.125520
O O7 0.500000 0.643396 0.000000
O O8 0.129850 0.392670 0.854305
O O9 0.000000 0.310917 0.907784
O O10 0.122403 0.353642 0.000000
O O11 0.774341 0.141827 0.310315
O O12 0.649017 0.189753 0.217073
O O13 0.686463 0.000000 0.242689
#
# Coordination Sequence:
#
# PCOD8291054 Si02
#       5
#    16   8  16  16  16
#     4   9  15  26  50  75  98 133 168 208 258 301
#     4  11  22  36  59  87 116 149 179 223 287 341
#     4   9  19  33  46  70 107 139 174 215 256 309
#     4  10  21  35  56  80 104 143 184 224 274 321
#     4  10  20  36  55  81 111 135 179 232 269 323
#
# _framework density 18.900808000000001
#
# number of rings (size 3 to 8) (size 9 to 14) (size 15 to 20)
#    0.000    2.333    1.111    2.000    1.556    2.222 
#    0.000    3.333    0.000    1.333    0.000    0.000 
#    0.000    0.000    0.000    0.000    0.000    0.000 
#
# Total GULP energy -446104.223603 kJ/mol
# GULP energy per Si atom -12391.783989 kJ/mol
# Density = 1.885779 g / cm^3
# Si number density = 18.900808 Si / 1000 Ang^3
#
#
#
# Elastic Constant Matrix: (Units=GPa)
#
#
# Indices 1 2 3 4 5 6 
#
# 1 67.5875 35.5400 42.0743 0.0000 0.0000 0.0000
# 2 35.5400 133.2698 34.0878 0.0000 0.0000 0.0000
# 3 42.0743 34.0878 93.8225 0.0000 0.0000 0.0000
# 4 0.0000 0.0000 0.0000 15.0115 0.0000 0.0000
# 5 0.0000 0.0000 0.0000 0.0000 8.9254 0.0000
# 6 0.0000 0.0000 0.0000 0.0000 0.0000 16.1987
#
#
#
# Elastic Compliance Matrix: (Units=1/GPa)
#
#
# Indices 1 2 3 4 5 6 
#
# 1 0.022062 -0.003696 -0.008551 0.000000 0.000000 0.000000
# 2 -0.003696 0.008892 -0.001573 0.000000 0.000000 0.000000
# 3 -0.008551 -0.001573 0.015064 0.000000 0.000000 0.000000
# 4 0.000000 0.000000 0.000000 0.066616 0.000000 0.000000
# 5 0.000000 0.000000 0.000000 0.000000 0.112040 0.000000
# 6 0.000000 0.000000 0.000000 0.000000 0.000000 0.061733
#
#
# Mechanical properties :
#
#
# Convention : Reuss Voigt Hill
#
# Bulk Modulus (GPa) = 54.41204 57.56488 55.98846
# Shear Modulus (GPa) = 15.61652 20.22563 17.92108
#
# Velocity S-wave (km/s) = 2.87755 3.27478 3.08257
# Velocity P-wave (km/s) = 6.31594 6.69487 6.50816
#
# Compressibility (1/GPa) = 0.01837829
#
# Stress axis : x y z
#
# Youngs Moduli (GPa) = 45.32616 112.46523 66.38152
#
# Poissons Ratio (x) = 0.41572 0.56761
# Poissons Ratio (y) = 0.16754 0.10441
# Poissons Ratio (z) = 0.38757 0.17690
#
# Static dielectric constant tensor:
#      x y z
#    x 3.404280 0.000000 0.000000 
#    y 0.000000 3.746220 0.000000 
#    z 0.000000 0.000000 3.299700 
# 
# 
# High freq. dielectric constant tensor:
#      x y z
#    x 1.717230 0.000000 0.000000 
#    y 0.000000 1.743150 0.000000 
#    z 0.000000 0.000000 1.708340 
# 
# From -- ./inp_files/34081.got.cif
#   From: 2010.06.25/outbox.cif.g09.slc.cpg/sg71_18_cif.got.tgz:34081.got - 2010.06.28 04:59:45.
