data_PCOD8291511
_publ_section_title
;
Structure prediction by ZEFSAII (Michael W. Deem and Ramdas Pophale) SiO2 
 PCOD8291511
Probable space group: I M M M
;
_chemical_formula_sum "Si O2"
_cell_formula_units_Z 88
_cell_length_a 28.765398
_cell_length_b 13.177717
_cell_length_c 12.361385
_cell_angle_alpha 90.000000
_cell_angle_beta 90.000000
_cell_angle_gamma 90.000000
_cell_volume 4685.734711
_symmetry_space_group_name_H-M "I M M M"
_symmetry_group_IT_number 71
_symmetry_cell_setting 'orthorhombic'
loop_
_space_group_symop_operation_xyz
x,y,z
-x,-y,z
x,-y,-z
-x,y,-z
-x,-y,-z
x,y,-z
-x,y,z
x,-y,z
1/2+x,1/2+y,1/2+z
1/2-x,1/2-y,1/2+z
1/2+x,1/2-y,1/2-z
1/2-x,1/2+y,1/2-z
1/2-x,1/2-y,1/2-z
1/2+x,1/2+y,1/2-z
1/2-x,1/2+y,1/2+z
1/2+x,1/2-y,1/2+z
loop_
_atom_site_type_symbol
_atom_site_label
_atom_site_fract_x
_atom_site_fract_y
_atom_site_fract_z
Si Si1 0.054643 0.387174 0.622593
Si Si2 0.500000 0.618943 0.624599
Si Si3 0.310213 0.111788 0.500000
Si Si4 0.079846 0.611158 0.000000
Si Si5 0.081652 0.750278 0.806268
Si Si6 0.231773 0.619112 0.371449
Si Si7 0.812334 0.748623 0.803182
O O1 0.070986 0.372970 0.500000
O O2 0.068784 0.500000 0.662680
O O3 0.080820 0.301879 0.689770
O O4 0.000000 0.371740 0.633877
O O5 0.500000 0.500000 0.633323
O O6 0.500000 0.655110 0.500000
O O7 0.546646 0.655391 0.686011
O O8 0.365242 0.101961 0.500000
O O9 0.293806 0.170147 0.393289
O O10 0.287323 0.000000 0.500000
O O11 0.063059 0.669608 0.106338
O O12 0.056586 0.500000 0.000000
O O13 0.134783 0.784311 0.825374
O O14 0.230713 0.640248 0.500000
O O15 0.222599 0.500000 0.348171
O O16 0.193201 0.690585 0.312259
O O17 0.281197 0.650427 0.317330
#
# Coordination Sequence:
#
# PCOD8291511 Si02
#       7
#    16   8   8   8  16  16  16
#     4   9  18  32  52  80 112 146 183 223 275 338
#     4  11  24  40  57  82 115 153 198 238 276 322
#     4   9  16  30  50  76 111 146 181 221 274 334
#     4   9  18  29  48  79 110 144 180 222 281 337
#     4  11  20  36  56  80 116 151 187 235 279 329
#     4  10  21  38  59  84 114 147 186 234 286 342
#     4  10  21  35  56  85 113 146 189 232 283 340
#
# _framework density 18.780405999999999
#
# number of rings (size 3 to 8) (size 9 to 14) (size 15 to 20)
#    0.000    2.091    2.727    1.636    0.000    3.636 
#    0.000    4.091    0.000    1.091    0.000    2.545 
#    0.000    0.000    0.000    0.000    0.000    0.000 
#
# Total GULP energy -545487.550580 kJ/mol
# GULP energy per Si atom -12397.444331 kJ/mol
# Density = 1.873766 g / cm^3
# Si number density = 18.780406 Si / 1000 Ang^3
#
#
#
# Elastic Constant Matrix: (Units=GPa)
#
#
# Indices 1 2 3 4 5 6 
#
# 1 84.4214 29.9499 19.7830 0.0000 0.0000 0.0000
# 2 29.9499 67.2033 29.3974 0.0000 0.0000 0.0000
# 3 19.7830 29.3974 87.7089 0.0000 0.0000 0.0000
# 4 0.0000 0.0000 0.0000 28.5061 0.0000 0.0000
# 5 0.0000 0.0000 0.0000 0.0000 21.5731 0.0000
# 6 0.0000 0.0000 0.0000 0.0000 0.0000 15.0572
#
#
#
# Elastic Compliance Matrix: (Units=1/GPa)
#
#
# Indices 1 2 3 4 5 6 
#
# 1 0.014189 -0.005769 -0.001267 0.000000 0.000000 0.000000
# 2 -0.005769 0.019783 -0.005329 0.000000 0.000000 0.000000
# 3 -0.001267 -0.005329 0.013473 0.000000 0.000000 0.000000
# 4 0.000000 0.000000 0.000000 0.035080 0.000000 0.000000
# 5 0.000000 0.000000 0.000000 0.000000 0.046354 0.000000
# 6 0.000000 0.000000 0.000000 0.000000 0.000000 0.066414
#
#
# Mechanical properties :
#
#
# Convention : Reuss Voigt Hill
#
# Bulk Modulus (GPa) = 44.02515 44.17715 44.10115
# Shear Modulus (GPa) = 21.96889 23.70750 22.83819
#
# Velocity S-wave (km/s) = 3.42391 3.55681 3.49100
# Velocity P-wave (km/s) = 6.25491 6.35940 6.30737
#
# Compressibility (1/GPa) = 0.02271429
#
# Stress axis : x y z
#
# Youngs Moduli (GPa) = 70.47735 50.54939 74.22113
#
# Poissons Ratio (x) = 0.29164 0.09401
# Poissons Ratio (y) = 0.40661 0.39554
# Poissons Ratio (z) = 0.08927 0.26939
#
# Static dielectric constant tensor:
#      x y z
#    x 3.237890 0.000000 0.000000 
#    y 0.000000 3.384270 0.000000 
#    z 0.000000 0.000000 3.576670 
# 
# 
# High freq. dielectric constant tensor:
#      x y z
#    x 1.716460 0.000000 0.000000 
#    y 0.000000 1.713290 0.000000 
#    z 0.000000 0.000000 1.734090 
# 
# From -- ./inp_files/28642.got.cif
#   From: 2010.06.25/outbox.cif.g09.slc.cpg/sg71_15_cif.got.tgz:28642.got - 2010.06.28 04:59:45.
