data_PCOD8291793
_publ_section_title
;
Structure prediction by ZEFSAII (Michael W. Deem and Ramdas Pophale) SiO2 
 PCOD8291793
Probable space group: I M M M
;
_chemical_formula_sum "Si O2"
_cell_formula_units_Z 104
_cell_length_a 20.150119
_cell_length_b 14.438388
_cell_length_c 17.694502
_cell_angle_alpha 90.000000
_cell_angle_beta 90.000000
_cell_angle_gamma 90.000000
_cell_volume 5147.954122
_symmetry_space_group_name_H-M "I M M M"
_symmetry_group_IT_number 71
_symmetry_cell_setting 'orthorhombic'
loop_
_space_group_symop_operation_xyz
x,y,z
-x,-y,z
x,-y,-z
-x,y,-z
-x,-y,-z
x,y,-z
-x,y,z
x,-y,z
1/2+x,1/2+y,1/2+z
1/2-x,1/2-y,1/2+z
1/2+x,1/2-y,1/2-z
1/2-x,1/2+y,1/2-z
1/2-x,1/2-y,1/2-z
1/2+x,1/2+y,1/2-z
1/2-x,1/2+y,1/2+z
1/2+x,1/2-y,1/2+z
loop_
_atom_site_type_symbol
_atom_site_label
_atom_site_fract_x
_atom_site_fract_y
_atom_site_fract_z
Si Si1 0.300443 0.605117 0.353225
Si Si2 0.074774 0.770834 0.161822
Si Si3 0.663698 0.104025 0.914214
Si Si4 0.890826 0.772917 0.664069
Si Si5 0.000000 0.104894 0.589113
Si Si6 0.861828 0.393920 0.087917
Si Si7 0.730685 0.605097 0.182173
O O1 0.323875 0.500000 0.363333
O O2 0.367221 0.662813 0.369696
O O3 0.241667 0.632807 0.410530
O O4 0.265548 0.620627 0.271925
O O5 0.083649 0.762746 0.251229
O O6 0.080154 0.672402 0.118858
O O7 0.000000 0.808926 0.145762
O O8 0.613901 0.169594 0.868361
O O9 0.655896 0.000000 0.881088
O O10 0.640356 0.108460 0.000000
O O11 0.936919 0.839390 0.616396
O O12 0.820273 0.820442 0.651521
O O13 0.000000 0.099843 0.500000
O O14 0.000000 0.000000 0.622784
O O15 0.884946 0.500000 0.097782
O O16 0.799366 0.371651 0.141426
O O17 0.845083 0.373579 0.000000
O O18 0.708207 0.500000 0.163169
#
# Coordination Sequence:
#
# PCOD8291793 Si02
#       7
#    16  16  16  16   8  16  16
#     4   9  19  36  58  86 117 150 189 239 291 343
#     4  11  23  38  56  84 115 155 202 240 282 347
#     4  10  21  37  59  85 113 148 191 240 294 344
#     4  11  21  38  58  85 118 157 196 237 285 340
#     4  11  24  40  59  87 124 161 195 233 281 344
#     4  10  22  39  59  85 117 150 191 249 310 360
#     4   9  18  34  58  86 113 145 186 236 295 355
#
# _framework density 20.202200999999999
#
# number of rings (size 3 to 8) (size 9 to 14) (size 15 to 20)
#    0.000    1.923    0.769    2.769    0.000    8.923 
#    0.000    2.692    0.000    1.385    0.000    3.231 
#    0.000    0.000    0.000    0.000    0.000    0.000 
#
# Total GULP energy -644653.944221 kJ/mol
# GULP energy per Si atom -12397.191235 kJ/mol
# Density = 2.015622 g / cm^3
# Si number density = 20.202201 Si / 1000 Ang^3
#
#
#
# Elastic Constant Matrix: (Units=GPa)
#
#
# Indices 1 2 3 4 5 6 
#
# 1 67.4889 46.1207 13.1992 0.0000 0.0000 0.0000
# 2 46.1207 109.4165 24.4372 0.0000 0.0000 0.0000
# 3 13.1992 24.4372 43.4987 0.0000 0.0000 0.0000
# 4 0.0000 0.0000 0.0000 30.9360 0.0000 0.0000
# 5 0.0000 0.0000 0.0000 0.0000 -62.5707 0.0000
# 6 0.0000 0.0000 0.0000 0.0000 0.0000 33.3858
#
#
#
# Elastic Compliance Matrix: (Units=1/GPa)
#
#
# Indices 1 2 3 4 5 6 
#
# 1 0.020908 -0.008457 -0.001593 0.000000 0.000000 0.000000
# 2 -0.008457 0.013872 -0.005227 0.000000 0.000000 0.000000
# 3 -0.001593 -0.005227 0.026409 0.000000 0.000000 0.000000
# 4 0.000000 0.000000 0.000000 0.032325 0.000000 0.000000
# 5 0.000000 0.000000 0.000000 0.000000 -0.015982 0.000000
# 6 0.000000 0.000000 0.000000 0.000000 0.000000 0.029953
#
#
# Mechanical properties :
#
#
# Convention : Reuss Voigt Hill
#
# Bulk Modulus (GPa) = 32.64286 43.10205 37.87245
# Shear Modulus (GPa) = 33.72665 9.46003 21.59334
#
# Velocity S-wave (km/s) = 4.09033 2.16630 3.27289
# Velocity P-wave (km/s) = 6.20491 5.25726 5.75064
#
# Compressibility (1/GPa) = 0.03063457
#
# Stress axis : x y z
#
# Youngs Moduli (GPa) = 47.82748 72.08946 37.86602
#
# Poissons Ratio (x) = 0.60969 0.06033
# Poissons Ratio (y) = 0.40450 0.19791
# Poissons Ratio (z) = 0.07620 0.37679
#
# Static dielectric constant tensor:
#      x y z
#    x 4.352270 0.000000 0.000000 
#    y 0.000000 3.881590 0.000000 
#    z 0.000000 0.000000 3.639400 
# 
# 
# High freq. dielectric constant tensor:
#      x y z
#    x 1.774570 0.000000 0.000000 
#    y 0.000000 1.802500 0.000000 
#    z 0.000000 0.000000 1.784020 
# 
# From -- ./inp_files/36716.got.cif
#   From: 2010.06.25/outbox.cif.g09.slc.cpg/sg71_19_cif.got.tgz:36716.got - 2010.06.28 04:59:45.
