data_PCOD8291988
_publ_section_title
;
Structure prediction by ZEFSAII (Michael W. Deem and Ramdas Pophale) SiO2 
 PCOD8291988
Probable space group: I M M M
;
_chemical_formula_sum "Si O2"
_cell_formula_units_Z 56
_cell_length_a 15.138981
_cell_length_b 8.774339
_cell_length_c 19.721345
_cell_angle_alpha 90.000000
_cell_angle_beta 90.000000
_cell_angle_gamma 90.000000
_cell_volume 2619.676016
_symmetry_space_group_name_H-M "I M M M"
_symmetry_group_IT_number 71
_symmetry_cell_setting 'orthorhombic'
loop_
_space_group_symop_operation_xyz
x,y,z
-x,-y,z
x,-y,-z
-x,y,-z
-x,-y,-z
x,y,-z
-x,y,z
x,-y,z
1/2+x,1/2+y,1/2+z
1/2-x,1/2-y,1/2+z
1/2+x,1/2-y,1/2-z
1/2-x,1/2+y,1/2-z
1/2-x,1/2-y,1/2-z
1/2+x,1/2+y,1/2-z
1/2-x,1/2+y,1/2+z
1/2+x,1/2-y,1/2+z
loop_
_atom_site_type_symbol
_atom_site_label
_atom_site_fract_x
_atom_site_fract_y
_atom_site_fract_z
Si Si1 0.500000 0.322014 0.223229
Si Si2 0.338208 0.820052 0.856800
Si Si3 0.000000 0.673902 0.135048
Si Si4 0.812323 0.323071 0.923242
Si Si5 0.095881 0.319444 0.500000
O O1 0.500000 0.500000 0.208497
O O2 0.409222 0.252635 0.193371
O O3 0.500000 0.289390 0.302381
O O4 0.237424 0.758059 0.857960
O O5 0.358511 0.761882 0.932498
O O6 0.341466 0.000000 0.845083
O O7 0.084349 0.705830 0.088369
O O8 0.000000 0.500000 0.162674
O O9 0.788623 0.500000 0.919471
O O10 0.790540 0.260215 0.000000
O O11 0.090133 0.500000 0.500000
O O12 0.000000 0.245056 0.500000
#
# Coordination Sequence:
#
# PCOD8291988 Si02
#       5
#     8  16   8  16   8
#     4  12  26  42  60  89 125 162 207 255 300 357
#     4  11  21  37  62  92 125 161 199 244 304 370
#     4  10  23  44  65  85 120 169 209 246 301 364
#     4  10  21  39  65  96 124 154 200 256 307 356
#     4   9  16  30  54  85 118 153 193 236 290 360
#
# _framework density 21.37669
#
# number of rings (size 3 to 8) (size 9 to 14) (size 15 to 20)
#    0.000    1.571    2.857    2.571    0.000    4.000 
#    0.000    0.714    0.000    2.571    0.000    0.000 
#    0.000    0.000    0.000    0.000    0.000    0.000 
#
# Total GULP energy -346904.120027 kJ/mol
# GULP energy per Si atom -12389.432858 kJ/mol
# Density = 2.132804 g / cm^3
# Si number density = 21.376690 Si / 1000 Ang^3
#
#
#
# Elastic Constant Matrix: (Units=GPa)
#
#
# Indices 1 2 3 4 5 6 
#
# 1 118.8486 42.8378 18.6747 0.0000 0.0000 0.0000
# 2 42.8378 103.8723 32.1003 0.0000 0.0000 0.0000
# 3 18.6747 32.1003 73.0095 0.0000 0.0000 0.0000
# 4 0.0000 0.0000 0.0000 26.6771 0.0000 0.0000
# 5 0.0000 0.0000 0.0000 0.0000 20.5144 0.0000
# 6 0.0000 0.0000 0.0000 0.0000 0.0000 27.1094
#
#
#
# Elastic Compliance Matrix: (Units=1/GPa)
#
#
# Indices 1 2 3 4 5 6 
#
# 1 0.009929 -0.003830 -0.000856 0.000000 0.000000 0.000000
# 2 -0.003830 0.012619 -0.004568 0.000000 0.000000 0.000000
# 3 -0.000856 -0.004568 0.015924 0.000000 0.000000 0.000000
# 4 0.000000 0.000000 0.000000 0.037485 0.000000 0.000000
# 5 0.000000 0.000000 0.000000 0.000000 0.048746 0.000000
# 6 0.000000 0.000000 0.000000 0.000000 0.000000 0.036888
#
#
# Mechanical properties :
#
#
# Convention : Reuss Voigt Hill
#
# Bulk Modulus (GPa) = 50.09172 53.66179 51.87675
# Shear Modulus (GPa) = 26.77311 28.33468 27.55390
#
# Velocity S-wave (km/s) = 3.54283 3.64468 3.59412
# Velocity P-wave (km/s) = 6.34186 6.54745 6.44548
#
# Compressibility (1/GPa) = 0.01996338
#
# Stress axis : x y z
#
# Youngs Moduli (GPa) = 100.71353 79.24752 62.79733
#
# Poissons Ratio (x) = 0.30355 0.05373
# Poissons Ratio (y) = 0.38578 0.28688
# Poissons Ratio (z) = 0.08617 0.36203
#
# Static dielectric constant tensor:
#      x y z
#    x 4.283800 0.000000 0.000000 
#    y 0.000000 3.602690 0.000000 
#    z 0.000000 0.000000 3.524850 
# 
# 
# High freq. dielectric constant tensor:
#      x y z
#    x 1.864460 0.000000 0.000000 
#    y 0.000000 1.818190 0.000000 
#    z 0.000000 0.000000 1.829860 
# 
# From -- ./inp_files/5125.got.cif
#   From: 2010.06.25/outbox.cif.g09.slc.cpg/sg71_3_cif.got.tgz:5125.got - 2010.06.28 04:59:45.
