data_PCOD8291326
_publ_section_title
;
Structure prediction by ZEFSAII (Michael W. Deem and Ramdas Pophale) SiO2 
 PCOD8291326
Probable space group: I M M M
;
_chemical_formula_sum "Si O2"
_cell_formula_units_Z 104
_cell_length_a 20.131626
_cell_length_b 29.673264
_cell_length_c 8.993155
_cell_angle_alpha 90.000000
_cell_angle_beta 90.000000
_cell_angle_gamma 90.000000
_cell_volume 5372.250473
_symmetry_space_group_name_H-M "I M M M"
_symmetry_group_IT_number 71
_symmetry_cell_setting 'orthorhombic'
loop_
_space_group_symop_operation_xyz
x,y,z
-x,-y,z
x,-y,-z
-x,y,-z
-x,-y,-z
x,y,-z
-x,y,z
x,-y,z
1/2+x,1/2+y,1/2+z
1/2-x,1/2-y,1/2+z
1/2+x,1/2-y,1/2-z
1/2-x,1/2+y,1/2-z
1/2-x,1/2-y,1/2-z
1/2+x,1/2+y,1/2-z
1/2-x,1/2+y,1/2+z
1/2+x,1/2-y,1/2+z
loop_
_atom_site_type_symbol
_atom_site_label
_atom_site_fract_x
_atom_site_fract_y
_atom_site_fract_z
Si Si1 0.500000 0.668188 0.324361
Si Si2 0.243101 0.796229 0.165221
Si Si3 0.926734 0.500000 0.325047
Si Si4 0.360492 0.630202 0.322977
Si Si5 0.500000 0.771619 0.321936
Si Si6 0.641263 0.081008 0.328156
Si Si7 0.609157 0.830504 0.831317
Si Si8 0.288775 0.551991 0.828080
O O1 0.500000 0.666877 0.500000
O O2 0.434071 0.643061 0.265206
O O3 0.500000 0.719782 0.271605
O O4 0.250000 0.750000 0.250000
O O5 0.190468 0.831285 0.237731
O O6 0.314588 0.818069 0.162131
O O7 0.217789 0.784650 0.000000
O O8 0.929318 0.500000 0.500000
O O9 0.888115 0.542776 0.271677
O O10 0.000000 0.500000 0.255556
O O11 0.355731 0.627530 0.500000
O O12 0.343894 0.580642 0.259894
O O13 0.500000 0.777621 0.500000
O O14 0.434090 0.792847 0.250885
O O15 0.623053 0.073950 0.500000
O O16 0.605223 0.125517 0.269948
O O17 0.720185 0.078877 0.303784
O O18 0.582634 0.838642 0.000000
O O19 0.285075 0.500000 0.769559
O O20 0.308522 0.551408 0.000000
#
# Coordination Sequence:
#
# PCOD8291326 Si02
#       8
#     8  16   8  16   8  16  16  16
#     4   9  20  39  64  88 120 155 198 250 296 359
#     4  10  21  35  56  85 118 154 197 246 297 354
#     4  11  25  41  59  85 119 158 197 244 300 352
#     4  10  20  38  61  89 118 155 200 246 302 364
#     4  11  23  41  63  85 115 165 208 246 302 365
#     4  11  22  39  61  85 115 155 202 248 294 353
#     4  11  23  39  57  85 121 155 197 252 300 349
#     4  10  21  39  61  89 120 152 195 250 304 356
#
# _framework density 19.358739
#
# number of rings (size 3 to 8) (size 9 to 14) (size 15 to 20)
#    0.000    1.615    2.308    2.308    1.077    4.615 
#    0.000    2.308    0.000    2.308    0.000    0.000 
#    0.000    0.000    0.000    0.000    0.000    0.000 
#
# Total GULP energy -644725.773907 kJ/mol
# GULP energy per Si atom -12398.572575 kJ/mol
# Density = 1.931468 g / cm^3
# Si number density = 19.358739 Si / 1000 Ang^3
#
#
#
# Elastic Constant Matrix: (Units=GPa)
#
#
# Indices 1 2 3 4 5 6 
#
# 1 100.1818 28.4465 32.9166 0.0000 0.0000 0.0000
# 2 28.4465 102.0077 34.7568 0.0000 0.0000 0.0000
# 3 32.9166 34.7568 63.2401 -0.0001 -0.0001 0.0000
# 4 0.0000 0.0000 -0.0001 37.0578 0.0000 0.0000
# 5 0.0000 0.0000 -0.0001 0.0000 26.6187 0.0000
# 6 0.0000 0.0000 0.0000 0.0000 0.0000 38.2642
#
#
#
# Elastic Compliance Matrix: (Units=1/GPa)
#
#
# Indices 1 2 3 4 5 6 
#
# 1 0.012232 -0.001528 -0.005527 0.000000 0.000000 0.000000
# 2 -0.001528 0.012253 -0.005939 0.000000 0.000000 0.000000
# 3 -0.005527 -0.005939 0.021954 0.000000 0.000000 0.000000
# 4 0.000000 0.000000 0.000000 0.026985 0.000000 0.000000
# 5 0.000000 0.000000 0.000000 0.000000 0.037568 0.000000
# 6 0.000000 0.000000 0.000000 0.000000 0.000000 0.026134
#
#
# Mechanical properties :
#
#
# Convention : Reuss Voigt Hill
#
# Bulk Modulus (GPa) = 48.89807 50.85216 49.87511
# Shear Modulus (GPa) = 29.42412 31.67546 30.54979
#
# Velocity S-wave (km/s) = 3.90287 4.04943 3.97683
# Velocity P-wave (km/s) = 6.75453 6.94184 6.84882
#
# Compressibility (1/GPa) = 0.02045071
#
# Stress axis : x y z
#
# Youngs Moduli (GPa) = 81.75517 81.61410 45.55079
#
# Poissons Ratio (x) = 0.12469 0.25175
# Poissons Ratio (y) = 0.12491 0.27052
# Poissons Ratio (z) = 0.45185 0.48470
#
# Static dielectric constant tensor:
#      x y z
#    x 3.388190 0.000000 0.000000 
#    y 0.000000 3.108130 0.000000 
#    z 0.000000 0.000000 3.582620 
# 
# 
# High freq. dielectric constant tensor:
#      x y z
#    x 1.755430 0.000000 0.000000 
#    y 0.000000 1.761040 0.000000 
#    z 0.000000 0.000000 1.746530 
# 
# From -- ./inp_files/11203.got.cif
#   From: 2010.06.25/outbox.cif.g09.slc.cpg/sg71_6_cif.got.tgz:11203.got - 2010.06.28 04:59:45.
