data_PCOD8291818
_publ_section_title
;
Structure prediction by ZEFSAII (Michael W. Deem and Ramdas Pophale) SiO2 
 PCOD8291818
Probable space group: I M M M
;
_chemical_formula_sum "Si O2"
_cell_formula_units_Z 72
_cell_length_a 17.005279
_cell_length_b 14.446252
_cell_length_c 13.975676
_cell_angle_alpha 90.000000
_cell_angle_beta 90.000000
_cell_angle_gamma 90.000000
_cell_volume 3433.300145
_symmetry_space_group_name_H-M "I M M M"
_symmetry_group_IT_number 71
_symmetry_cell_setting 'orthorhombic'
loop_
_space_group_symop_operation_xyz
x,y,z
-x,-y,z
x,-y,-z
-x,y,-z
-x,-y,-z
x,y,-z
-x,y,z
x,-y,z
1/2+x,1/2+y,1/2+z
1/2-x,1/2-y,1/2+z
1/2+x,1/2-y,1/2-z
1/2-x,1/2+y,1/2-z
1/2-x,1/2-y,1/2-z
1/2+x,1/2+y,1/2-z
1/2-x,1/2+y,1/2+z
1/2+x,1/2-y,1/2+z
loop_
_atom_site_type_symbol
_atom_site_label
_atom_site_fract_x
_atom_site_fract_y
_atom_site_fract_z
Si Si1 0.188904 0.725639 0.113072
Si Si2 0.367994 0.742264 0.112803
Si Si3 0.910462 0.394935 0.244495
Si Si4 0.411885 0.602825 0.386163
Si Si5 0.000000 0.103078 0.386385
O O1 0.279152 0.723488 0.146082
O O2 0.145002 0.638698 0.158616
O O3 0.148490 0.820034 0.152953
O O4 0.181252 0.717196 0.000000
O O5 0.398038 0.836693 0.159265
O O6 0.421614 0.656472 0.148314
O O7 0.374839 0.756549 0.000000
O O8 0.888254 0.500000 0.269351
O O9 0.000000 0.386211 0.209018
O O10 0.414589 0.607768 0.500000
O O11 0.500000 0.622741 0.345615
O O12 0.383996 0.500000 0.354113
O O13 0.000000 0.096818 0.500000
O O14 0.000000 0.000000 0.341384
#
# Coordination Sequence:
#
# PCOD8291818 Si02
#       5
#    16  16  16  16   8
#     4  10  21  37  60  88 121 161 201 250 306 360
#     4  10  21  40  64  88 118 154 199 259 314 360
#     4  11  24  40  59  85 123 167 208 249 291 354
#     4   8  14  27  49  77 110 149 192 238 289 345
#     4   9  18  36  63  89 112 143 187 245 313 373
#
# _framework density 20.971076
#
# number of rings (size 3 to 8) (size 9 to 14) (size 15 to 20)
#    0.000    2.333    1.111    2.000    0.000    4.000 
#    0.000    7.778    0.000    0.000    0.000    0.000 
#    0.000    0.000    0.000    0.000    0.000    0.000 
#
# Total GULP energy -446469.345571 kJ/mol
# GULP energy per Si atom -12401.926266 kJ/mol
# Density = 2.092335 g / cm^3
# Si number density = 20.971076 Si / 1000 Ang^3
#
#
#
# Elastic Constant Matrix: (Units=GPa)
#
#
# Indices 1 2 3 4 5 6 
#
# 1 178.7078 105.8467 35.3233 0.0000 0.0000 0.0000
# 2 105.8467 193.8064 37.8145 0.0000 0.0000 0.0000
# 3 35.3233 37.8145 20.6310 0.0000 0.0000 0.0000
# 4 0.0000 0.0000 0.0000 30.9721 0.0000 0.0000
# 5 0.0000 0.0000 0.0000 0.0000 24.3372 0.0000
# 6 0.0000 0.0000 0.0000 0.0000 0.0000 16.8986
#
#
#
# Elastic Compliance Matrix: (Units=1/GPa)
#
#
# Indices 1 2 3 4 5 6 
#
# 1 0.009555 -0.003155 -0.010577 0.000000 0.000000 0.000000
# 2 -0.003155 0.009074 -0.011230 0.000000 0.000000 0.000000
# 3 -0.010577 -0.011230 0.087165 0.000000 0.000000 0.000000
# 4 0.000000 0.000000 0.000000 0.032287 0.000000 0.000000
# 5 0.000000 0.000000 0.000000 0.000000 0.041089 0.000000
# 6 0.000000 0.000000 0.000000 0.000000 0.000000 0.059176
#
#
# Mechanical properties :
#
#
# Convention : Reuss Voigt Hill
#
# Bulk Modulus (GPa) = 17.89895 83.45714 50.67804
# Shear Modulus (GPa) = 16.29225 28.71897 22.50561
#
# Velocity S-wave (km/s) = 2.79030 3.70463 3.27949
# Velocity P-wave (km/s) = 4.35139 7.62770 6.20952
#
# Compressibility (1/GPa) = 0.05586919
#
# Stress axis : x y z
#
# Youngs Moduli (GPa) = 104.65882 110.20675 11.47247
#
# Poissons Ratio (x) = 0.34765 0.12135
# Poissons Ratio (y) = 0.33015 0.12884
# Poissons Ratio (z) = 1.10702 1.23767
#
# Static dielectric constant tensor:
#      x y z
#    x 4.167770 0.000000 0.000000 
#    y 0.000000 3.930840 0.000000 
#    z 0.000000 0.000000 3.559520 
# 
# 
# High freq. dielectric constant tensor:
#      x y z
#    x 1.828620 0.000000 0.000000 
#    y 0.000000 1.818320 0.000000 
#    z 0.000000 0.000000 1.822020 
# 
# From -- ./inp_files/36064.got.cif
#   From: 2010.06.25/outbox.cif.g09.slc.cpg/sg71_19_cif.got.tgz:36064.got - 2010.06.28 04:59:45.
