data_PCOD8291012
_publ_section_title
;
Structure prediction by ZEFSAII (Michael W. Deem and Ramdas Pophale) SiO2 
 PCOD8291012
Probable space group: I M M M
;
_chemical_formula_sum "Si O2"
_cell_formula_units_Z 88
_cell_length_a 7.737173
_cell_length_b 28.050670
_cell_length_c 20.775501
_cell_angle_alpha 90.000000
_cell_angle_beta 90.000000
_cell_angle_gamma 90.000000
_cell_volume 4508.966952
_symmetry_space_group_name_H-M "I M M M"
_symmetry_group_IT_number 71
_symmetry_cell_setting 'orthorhombic'
loop_
_space_group_symop_operation_xyz
x,y,z
-x,-y,z
x,-y,-z
-x,y,-z
-x,-y,-z
x,y,-z
-x,y,z
x,-y,z
1/2+x,1/2+y,1/2+z
1/2-x,1/2-y,1/2+z
1/2+x,1/2-y,1/2-z
1/2-x,1/2+y,1/2-z
1/2-x,1/2-y,1/2-z
1/2+x,1/2+y,1/2-z
1/2-x,1/2+y,1/2+z
1/2+x,1/2-y,1/2+z
loop_
_atom_site_type_symbol
_atom_site_label
_atom_site_fract_x
_atom_site_fract_y
_atom_site_fract_z
Si Si1 0.500000 0.444582 0.187787
Si Si2 0.000000 0.879104 0.572680
Si Si3 0.204067 0.555035 0.500000
Si Si4 0.701076 0.375384 0.613590
Si Si5 0.300086 0.821267 0.366896
Si Si6 0.297050 0.273927 0.429557
Si Si7 0.308042 0.110897 0.255123
O O1 0.500000 0.500000 0.185774
O O2 0.500000 0.426367 0.115205
O O3 0.670854 0.428509 0.225061
O O4 0.174891 0.849886 0.585815
O O5 0.000000 0.896442 0.500000
O O6 0.270121 0.500000 0.500000
O O7 0.272642 0.581528 0.563616
O O8 0.000000 0.556466 0.500000
O O9 0.500000 0.371057 0.630468
O O10 0.779618 0.325912 0.586515
O O11 0.804268 0.383315 0.678983
O O12 0.500000 0.829047 0.388176
O O13 0.248838 0.765428 0.375280
O O14 0.269073 0.839156 0.293343
O O15 0.226104 0.257910 0.500000
O O16 0.500000 0.280376 0.433463
O O17 0.500000 0.093211 0.274391
#
# Coordination Sequence:
#
# PCOD8291012 Si02
#       7
#     8   8   8  16  16  16  16
#     4  10  22  41  62  85 116 152 191 245 300 344
#     4  10  20  35  58  90 121 151 196 236 279 353
#     4  11  25  43  59  81 115 153 199 252 305 356
#     4  11  21  38  61  85 115 152 193 246 300 350
#     4   9  19  36  57  84 120 160 194 235 285 340
#     4   9  17  32  55  82 116 155 193 233 286 348
#     4  10  21  39  61  85 116 153 197 243 291 350
#
# _framework density 19.516665
#
# number of rings (size 3 to 8) (size 9 to 14) (size 15 to 20)
#    0.000    2.091    1.818    1.364    0.000    3.818 
#    3.273    0.000    0.000    0.000    0.000    5.091 
#    0.000    0.000    0.000    0.000    0.000    0.000 
#
# Total GULP energy -545377.966231 kJ/mol
# GULP energy per Si atom -12394.953778 kJ/mol
# Density = 1.947224 g / cm^3
# Si number density = 19.516665 Si / 1000 Ang^3
#
#
#
# Elastic Constant Matrix: (Units=GPa)
#
#
# Indices 1 2 3 4 5 6 
#
# 1 87.9855 39.5691 28.1831 0.0000 0.0000 0.0000
# 2 39.5691 169.1322 68.7393 0.0000 0.0000 0.0000
# 3 28.1831 68.7393 139.3879 0.0000 0.0001 0.0000
# 4 0.0000 0.0000 0.0000 69.1619 0.0000 0.0000
# 5 0.0000 0.0000 0.0001 0.0000 45.3035 0.0000
# 6 0.0000 0.0000 0.0000 0.0000 0.0000 15.6386
#
#
#
# Elastic Compliance Matrix: (Units=1/GPa)
#
#
# Indices 1 2 3 4 5 6 
#
# 1 0.012918 -0.002452 -0.001403 0.000000 0.000000 0.000000
# 2 -0.002452 0.007860 -0.003380 0.000000 0.000000 0.000000
# 3 -0.001403 -0.003380 0.009125 0.000000 0.000000 0.000000
# 4 0.000000 0.000000 0.000000 0.014459 0.000000 0.000000
# 5 0.000000 0.000000 0.000000 0.000000 0.022073 0.000000
# 6 0.000000 0.000000 0.000000 0.000000 0.000000 0.063944
#
#
# Mechanical properties :
#
#
# Convention : Reuss Voigt Hill
#
# Bulk Modulus (GPa) = 64.79893 74.38762 69.59328
# Shear Modulus (GPa) = 33.33485 43.35509 38.34497
#
# Velocity S-wave (km/s) = 4.13730 4.71833 4.43734
# Velocity P-wave (km/s) = 7.48979 8.23900 7.87331
#
# Compressibility (1/GPa) = 0.01543235
#
# Stress axis : x y z
#
# Youngs Moduli (GPa) = 77.41426 127.22510 109.59058
#
# Poissons Ratio (x) = 0.31196 0.15371
# Poissons Ratio (y) = 0.18982 0.37046
# Poissons Ratio (z) = 0.10858 0.43007
#
# Static dielectric constant tensor:
#      x y z
#    x 3.350760 0.000000 0.000000 
#    y 0.000000 3.561740 0.000000 
#    z 0.000000 0.000000 3.641710 
# 
# 
# High freq. dielectric constant tensor:
#      x y z
#    x 1.766730 0.000000 0.000000 
#    y 0.000000 1.745960 0.000000 
#    z 0.000000 0.000000 1.759310 
# 
# From -- ./inp_files/51101.got.cif
#   From: 2010.06.25/outbox.cif.g09.slc.cpg/sg71_26_cif.got.tgz:51101.got - 2010.06.28 04:59:45.
