data_PCOD8291083
_publ_section_title
;
Structure prediction by ZEFSAII (Michael W. Deem and Ramdas Pophale) SiO2 
 PCOD8291083
Probable space group: I M M M
;
_chemical_formula_sum "Si O2"
_cell_formula_units_Z 72
_cell_length_a 31.930415
_cell_length_b 14.264626
_cell_length_c 7.704021
_cell_angle_alpha 90.000000
_cell_angle_beta 90.000000
_cell_angle_gamma 90.000000
_cell_volume 3508.992262
_symmetry_space_group_name_H-M "I M M M"
_symmetry_group_IT_number 71
_symmetry_cell_setting 'orthorhombic'
loop_
_space_group_symop_operation_xyz
x,y,z
-x,-y,z
x,-y,-z
-x,y,-z
-x,-y,-z
x,y,-z
-x,y,z
x,-y,z
1/2+x,1/2+y,1/2+z
1/2-x,1/2-y,1/2+z
1/2+x,1/2-y,1/2-z
1/2-x,1/2+y,1/2-z
1/2-x,1/2-y,1/2-z
1/2+x,1/2+y,1/2-z
1/2-x,1/2+y,1/2+z
1/2+x,1/2-y,1/2+z
loop_
_atom_site_type_symbol
_atom_site_label
_atom_site_fract_x
_atom_site_fract_y
_atom_site_fract_z
Si Si1 0.242838 0.106333 0.205460
Si Si2 0.408350 0.215041 0.197200
Si Si3 0.953234 0.897928 0.705599
Si Si4 0.683040 0.230701 0.302194
Si Si5 0.952645 0.610346 0.000000
O O1 0.286152 0.141870 0.287650
O O2 0.205445 0.174614 0.269421
O O3 0.233894 0.000000 0.267749
O O4 0.247258 0.112699 0.000000
O O5 0.421828 0.317414 0.269584
O O6 0.358209 0.209699 0.191919
O O7 0.428373 0.139534 0.325433
O O8 0.424592 0.197157 0.000000
O O9 0.953661 0.901248 0.500000
O O10 0.000000 0.875604 0.774391
O O11 0.938539 0.000000 0.777266
O O12 0.669221 0.244546 0.500000
O O13 0.953865 0.500000 0.000000
O O14 0.000000 0.651140 0.000000
#
# Coordination Sequence:
#
# PCOD8291083 Si02
#       5
#    16  16  16  16   8
#     4   9  19  36  58  83 115 158 201 245 299 358
#     4  11  22  39  64  91 122 164 204 251 308 368
#     4   8  15  30  54  85 118 151 191 238 291 356
#     4  10  20  36  56  84 121 156 197 249 299 356
#     4  11  26  46  65  89 121 157 208 270 319 363
#
# _framework density 20.518711
#
# number of rings (size 3 to 8) (size 9 to 14) (size 15 to 20)
#    0.000    2.333    1.111    2.000    0.000    4.889 
#    0.000    1.667    0.000    2.000    0.000    0.000 
#    0.000    0.000    0.000    0.000    0.000    0.000 
#
# Total GULP energy -446329.478152 kJ/mol
# GULP energy per Si atom -12398.041060 kJ/mol
# Density = 2.047201 g / cm^3
# Si number density = 20.518711 Si / 1000 Ang^3
#
#
#
# Elastic Constant Matrix: (Units=GPa)
#
#
# Indices 1 2 3 4 5 6 
#
# 1 120.0139 42.2273 28.5981 0.0000 0.0000 0.0000
# 2 42.2273 113.3870 27.6705 0.0000 0.0000 0.0000
# 3 28.5981 27.6705 71.2891 -0.0001 -0.0001 0.0000
# 4 0.0000 0.0000 -0.0001 23.9606 0.0000 0.0000
# 5 0.0000 0.0000 -0.0001 0.0000 -12.8776 0.0000
# 6 0.0000 0.0000 0.0000 0.0000 0.0000 16.0918
#
#
#
# Elastic Compliance Matrix: (Units=1/GPa)
#
#
# Indices 1 2 3 4 5 6 
#
# 1 0.010091 -0.003060 -0.002860 0.000000 0.000000 0.000000
# 2 -0.003060 0.010670 -0.002914 0.000000 0.000000 0.000000
# 3 -0.002860 -0.002914 0.016306 0.000000 0.000000 0.000000
# 4 0.000000 0.000000 0.000000 0.041735 0.000000 0.000000
# 5 0.000000 0.000000 0.000000 0.000000 -0.077654 0.000000
# 6 0.000000 0.000000 0.000000 0.000000 0.000000 0.062143
#
#
# Mechanical properties :
#
#
# Convention : Reuss Voigt Hill
#
# Bulk Modulus (GPa) = 51.55125 55.74243 53.64684
# Shear Modulus (GPa) = 57.19177 19.18123 38.18650
#
# Velocity S-wave (km/s) = 5.28521 3.06079 4.31868
# Velocity P-wave (km/s) = 7.90084 6.30213 7.14633
#
# Compressibility (1/GPa) = 0.01939817
#
# Stress axis : x y z
#
# Youngs Moduli (GPa) = 99.10243 93.72032 61.32774
#
# Poissons Ratio (x) = 0.28678 0.17541
# Poissons Ratio (y) = 0.30324 0.17871
# Poissons Ratio (z) = 0.28345 0.27310
#
# Static dielectric constant tensor:
#      x y z
#    x 3.666610 0.000000 0.000000 
#    y 0.000000 3.957750 0.000000 
#    z 0.000000 0.000000 3.485020 
# 
# 
# High freq. dielectric constant tensor:
#      x y z
#    x 1.795050 0.000000 0.000000 
#    y 0.000000 1.800420 0.000000 
#    z 0.000000 0.000000 1.793500 
# 
# From -- ./inp_files/16373.got.cif
#   From: 2010.06.25/outbox.cif.g09.slc.cpg/sg71_9_cif.got.tgz:16373.got - 2010.06.28 04:59:45.
