data_PCOD8291275
_publ_section_title
;
Structure prediction by ZEFSAII (Michael W. Deem and Ramdas Pophale) SiO2 
 PCOD8291275
Probable space group: I M M M
;
_chemical_formula_sum "Si O2"
_cell_formula_units_Z 88
_cell_length_a 30.125836
_cell_length_b 16.147993
_cell_length_c 9.485086
_cell_angle_alpha 90.000000
_cell_angle_beta 90.000000
_cell_angle_gamma 90.000000
_cell_volume 4614.226754
_symmetry_space_group_name_H-M "I M M M"
_symmetry_group_IT_number 71
_symmetry_cell_setting 'orthorhombic'
loop_
_space_group_symop_operation_xyz
x,y,z
-x,-y,z
x,-y,-z
-x,y,-z
-x,-y,-z
x,y,-z
-x,y,z
x,-y,z
1/2+x,1/2+y,1/2+z
1/2-x,1/2-y,1/2+z
1/2+x,1/2-y,1/2-z
1/2-x,1/2+y,1/2-z
1/2-x,1/2-y,1/2-z
1/2+x,1/2+y,1/2-z
1/2-x,1/2+y,1/2+z
1/2+x,1/2-y,1/2+z
loop_
_atom_site_type_symbol
_atom_site_label
_atom_site_fract_x
_atom_site_fract_y
_atom_site_fract_z
Si Si1 0.500000 0.903536 0.834566
Si Si2 0.763235 0.500000 0.335841
Si Si3 0.223116 0.821607 0.832966
Si Si4 0.877740 0.179139 0.842566
Si Si5 0.918137 0.641436 0.842793
Si Si6 0.048765 0.902366 0.657079
Si Si7 0.851944 0.500000 0.163500
O O1 0.457449 0.859893 0.768802
O O2 0.500000 0.000000 0.795577
O O3 0.500000 0.887704 0.000000
O O4 0.773779 0.500000 0.500000
O O5 0.737871 0.415276 0.294012
O O6 0.808588 0.500000 0.254312
O O7 0.250000 0.750000 0.750000
O O8 0.172079 0.817500 0.781861
O O9 0.227915 0.803781 0.000000
O O10 0.897010 0.269782 0.843318
O O11 0.910173 0.122680 0.752640
O O12 0.876417 0.141564 0.000000
O O13 0.880078 0.579606 0.793087
O O14 0.935379 0.617377 0.000000
O O15 0.056093 0.866188 0.500000
O O16 0.000000 0.871553 0.713528
O O17 0.048130 0.000000 0.651156
O O18 0.838629 0.500000 0.000000
#
# Coordination Sequence:
#
# PCOD8291275 Si02
#       7
#     8   8  16  16  16  16   8
#     4  11  23  37  55  83 116 153 196 241 287 342
#     4  10  22  38  61  89 119 155 191 241 304 355
#     4  10  22  41  62  88 122 157 197 247 302 356
#     4  10  22  37  59  88 116 149 195 242 286 343
#     4  10  21  37  57  82 114 153 193 236 285 337
#     4   9  20  39  59  81 114 152 188 231 286 345
#     4  10  20  37  61  84 111 151 195 234 280 340
#
# _framework density 19.071449999999999
#
# number of rings (size 3 to 8) (size 9 to 14) (size 15 to 20)
#    0.000    2.091    0.909    1.909    2.545    5.455 
#    0.000    0.909    0.000    0.000    0.000    0.000 
#    0.000    0.000    0.000    0.000    0.000    0.000 
#
# Total GULP energy -545492.037024 kJ/mol
# GULP energy per Si atom -12397.546296 kJ/mol
# Density = 1.902804 g / cm^3
# Si number density = 19.071450 Si / 1000 Ang^3
#
#
#
# Elastic Constant Matrix: (Units=GPa)
#
#
# Indices 1 2 3 4 5 6 
#
# 1 174.1711 48.3202 77.3510 0.0000 0.0000 0.0000
# 2 48.3202 79.9780 39.5904 0.0000 0.0000 0.0000
# 3 77.3510 39.5904 77.6247 0.0000 0.0000 0.0000
# 4 0.0000 0.0000 0.0000 30.0680 0.0000 0.0000
# 5 0.0000 0.0000 0.0000 0.0000 40.6130 0.0000
# 6 0.0000 0.0000 0.0000 0.0000 0.0000 32.6475
#
#
#
# Elastic Compliance Matrix: (Units=1/GPa)
#
#
# Indices 1 2 3 4 5 6 
#
# 1 0.010441 -0.001549 -0.009614 0.000000 0.000000 0.000000
# 2 -0.001549 0.016956 -0.007105 0.000000 0.000000 0.000000
# 3 -0.009614 -0.007105 0.026086 0.000000 0.000000 0.000000
# 4 0.000000 0.000000 0.000000 0.033258 0.000000 0.000000
# 5 0.000000 0.000000 0.000000 0.000000 0.024623 0.000000
# 6 0.000000 0.000000 0.000000 0.000000 0.000000 0.030630
#
#
# Mechanical properties :
#
#
# Convention : Reuss Voigt Hill
#
# Bulk Modulus (GPa) = 59.00382 73.58855 66.29618
# Shear Modulus (GPa) = 27.14760 31.76653 29.45706
#
# Velocity S-wave (km/s) = 3.77698 4.08568 3.93436
# Velocity P-wave (km/s) = 7.07292 7.80554 7.44825
#
# Compressibility (1/GPa) = 0.01694805
#
# Stress axis : x y z
#
# Youngs Moduli (GPa) = 95.77711 58.97584 38.33456
#
# Poissons Ratio (x) = 0.09135 0.36855
# Poissons Ratio (y) = 0.14835 0.27235
# Poissons Ratio (z) = 0.92081 0.41899
#
# Static dielectric constant tensor:
#      x y z
#    x 2.398510 0.000000 0.000000 
#    y 0.000000 3.585340 0.000000 
#    z 0.000000 0.000000 3.754210 
# 
# 
# High freq. dielectric constant tensor:
#      x y z
#    x 1.753110 0.000000 0.000000 
#    y 0.000000 1.750320 0.000000 
#    z 0.000000 0.000000 1.734020 
# 
# From -- ./inp_files/16720.got.cif
#   From: 2010.06.25/outbox.cif.g09.slc.cpg/sg71_9_cif.got.tgz:16720.got - 2010.06.28 04:59:45.
