data_PCOD8291230
_publ_section_title
;
Structure prediction by ZEFSAII (Michael W. Deem and Ramdas Pophale) SiO2 
 PCOD8291230
Probable space group: I M M M
;
_chemical_formula_sum "Si O2"
_cell_formula_units_Z 104
_cell_length_a 9.023003
_cell_length_b 29.464426
_cell_length_c 20.125074
_cell_angle_alpha 90.000000
_cell_angle_beta 90.000000
_cell_angle_gamma 90.000000
_cell_volume 5350.403958
_symmetry_space_group_name_H-M "I M M M"
_symmetry_group_IT_number 71
_symmetry_cell_setting 'orthorhombic'
loop_
_space_group_symop_operation_xyz
x,y,z
-x,-y,z
x,-y,-z
-x,y,-z
-x,-y,-z
x,y,-z
-x,y,z
x,-y,z
1/2+x,1/2+y,1/2+z
1/2-x,1/2-y,1/2+z
1/2+x,1/2-y,1/2-z
1/2-x,1/2+y,1/2-z
1/2-x,1/2-y,1/2-z
1/2+x,1/2+y,1/2-z
1/2-x,1/2+y,1/2+z
1/2+x,1/2-y,1/2+z
loop_
_atom_site_type_symbol
_atom_site_label
_atom_site_fract_x
_atom_site_fract_y
_atom_site_fract_z
Si Si1 0.833567 0.833490 0.386101
Si Si2 0.822899 0.130804 0.133386
Si Si3 0.825791 0.233225 0.500000
Si Si4 0.668650 0.079314 0.357457
Si Si5 0.678084 0.835588 0.000000
Si Si6 0.173642 0.000000 0.572896
Si Si7 0.664091 0.296047 0.740051
Si Si8 0.170429 0.552847 0.291984
O O1 0.774027 0.793237 0.433606
O O2 0.715214 0.873512 0.390920
O O3 0.839605 0.819983 0.310238
O O4 0.000000 0.848280 0.409006
O O5 0.767064 0.169668 0.185300
O O6 0.772587 0.080785 0.157159
O O7 0.000000 0.131020 0.126067
O O8 0.743162 0.139450 0.063951
O O9 0.759777 0.283883 0.500000
O O10 0.000000 0.238667 0.500000
O O11 0.500000 0.068430 0.377047
O O12 0.689593 0.077621 0.278558
O O13 0.778252 0.043527 0.387618
O O14 0.500000 0.838506 0.000000
O O15 0.246736 0.000000 0.500000
O O16 0.000000 0.000000 0.567276
O O17 0.500000 0.282992 0.716247
O O18 0.750000 0.250000 0.750000
O O19 0.221377 0.500000 0.288824
O O20 0.000000 0.555538 0.315205
#
# Coordination Sequence:
#
# PCOD8291230 Si02
#       8
#    16  16   8  16   8   8  16  16
#     4  10  20  37  56  83 119 159 204 247 295 357
#     4  11  23  40  62  93 126 159 202 257 312 371
#     4   9  20  37  61  85 117 163 213 255 295 360
#     4  11  22  38  59  87 120 155 199 255 306 353
#     4  11  23  43  68  90 118 164 205 248 312 380
#     4  11  25  41  59  83 115 162 209 248 299 363
#     4  10  21  35  56  85 120 159 204 253 301 356
#     4  10  21  40  64  91 123 160 202 249 306 371
#
# _framework density 19.437784000000001
#
# number of rings (size 3 to 8) (size 9 to 14) (size 15 to 20)
#    0.000    1.615    2.308    2.308    1.077    4.615 
#    0.000    1.923    0.000    2.308    0.000    0.000 
#    0.000    0.000    0.000    0.000    0.000    0.000 
#
# Total GULP energy -644729.375768 kJ/mol
# GULP energy per Si atom -12398.641842 kJ/mol
# Density = 1.939354 g / cm^3
# Si number density = 19.437784 Si / 1000 Ang^3
#
#
#
# Elastic Constant Matrix: (Units=GPa)
#
#
# Indices 1 2 3 4 5 6 
#
# 1 74.4412 39.9328 36.5240 0.0000 0.0000 0.0000
# 2 39.9328 96.8018 19.0186 -0.0001 0.0000 0.0000
# 3 36.5240 19.0186 94.2099 -0.0006 0.0000 0.0000
# 4 0.0000 -0.0001 -0.0006 31.8907 0.0000 0.0000
# 5 0.0000 0.0000 0.0000 0.0000 24.2931 0.0000
# 6 0.0000 0.0000 0.0000 0.0000 0.0000 32.2171
#
#
#
# Elastic Compliance Matrix: (Units=1/GPa)
#
#
# Indices 1 2 3 4 5 6 
#
# 1 0.020459 -0.007166 -0.006485 0.000000 0.000000 0.000000
# 2 -0.007166 0.013267 0.000100 0.000000 0.000000 0.000000
# 3 -0.006485 0.000100 0.013109 0.000000 0.000000 0.000000
# 4 0.000000 0.000000 0.000000 0.031357 0.000000 0.000000
# 5 0.000000 0.000000 0.000000 0.000000 0.041164 0.000000
# 6 0.000000 0.000000 0.000000 0.000000 0.000000 0.031039
#
#
# Mechanical properties :
#
#
# Convention : Reuss Voigt Hill
#
# Bulk Modulus (GPa) = 50.67780 50.71151 50.69466
# Shear Modulus (GPa) = 27.16282 29.01200 28.08741
#
# Velocity S-wave (km/s) = 3.74227 3.86755 3.80543
# Velocity P-wave (km/s) = 6.69337 6.78894 6.74132
#
# Compressibility (1/GPa) = 0.01973251
#
# Stress axis : x y z
#
# Youngs Moduli (GPa) = 48.87748 75.37610 76.28535
#
# Poissons Ratio (x) = 0.54013 0.49473
# Poissons Ratio (y) = 0.35024 -0.00762
# Poissons Ratio (z) = 0.31698 -0.00753
#
# Static dielectric constant tensor:
#      x y z
#    x 3.258510 0.000010 0.000000 
#    y 0.000010 3.245050 0.000000 
#    z 0.000000 0.000000 3.366940 
# 
# 
# High freq. dielectric constant tensor:
#      x y z
#    x 1.750070 0.000000 0.000000 
#    y 0.000000 1.761740 0.000000 
#    z 0.000000 0.000000 1.758300 
# 
# From -- ./inp_files/50956.got.cif
#   From: 2010.06.25/outbox.cif.g09.slc.cpg/sg71_26_cif.got.tgz:50956.got - 2010.06.28 04:59:45.
