data_PCOD8291249
_publ_section_title
;
Structure prediction by ZEFSAII (Michael W. Deem and Ramdas Pophale) SiO2 
 PCOD8291249
Probable space group: I M M M
;
_chemical_formula_sum "Si O2"
_cell_formula_units_Z 96
_cell_length_a 13.763722
_cell_length_b 17.242423
_cell_length_c 23.026904
_cell_angle_alpha 90.000000
_cell_angle_beta 90.000000
_cell_angle_gamma 90.000000
_cell_volume 5464.742941
_symmetry_space_group_name_H-M "I M M M"
_symmetry_group_IT_number 71
_symmetry_cell_setting 'orthorhombic'
loop_
_space_group_symop_operation_xyz
x,y,z
-x,-y,z
x,-y,-z
-x,y,-z
-x,-y,-z
x,y,-z
-x,y,z
x,-y,z
1/2+x,1/2+y,1/2+z
1/2-x,1/2-y,1/2+z
1/2+x,1/2-y,1/2-z
1/2-x,1/2+y,1/2-z
1/2-x,1/2-y,1/2-z
1/2+x,1/2+y,1/2-z
1/2-x,1/2+y,1/2+z
1/2+x,1/2-y,1/2+z
loop_
_atom_site_type_symbol
_atom_site_label
_atom_site_fract_x
_atom_site_fract_y
_atom_site_fract_z
Si Si1 0.611713 0.861340 0.500000
Si Si2 0.608632 0.910685 0.832367
Si Si3 0.114750 0.589421 0.875097
Si Si4 0.216845 0.665269 0.229745
Si Si5 0.297998 0.589411 0.395338
Si Si6 0.112633 0.820861 0.000000
Si Si7 0.105759 0.909385 0.775082
O O1 0.500000 0.884703 0.500000
O O2 0.655954 0.897284 0.559351
O O3 0.627934 0.770026 0.500000
O O4 0.500000 0.887684 0.852637
O O5 0.637315 0.862794 0.775809
O O6 0.682872 0.896011 0.885467
O O7 0.614698 0.000000 0.813224
O O8 0.135714 0.500000 0.856621
O O9 0.168504 0.652249 0.833415
O O10 0.000000 0.607463 0.872227
O O11 0.250000 0.750000 0.250000
O O12 0.316413 0.616275 0.227393
O O13 0.318764 0.500000 0.411729
O O14 0.334363 0.645172 0.444667
O O15 0.355318 0.615203 0.338028
O O16 0.000000 0.844979 0.000000
O O17 0.000000 0.870206 0.764567
O O18 0.094333 0.000000 0.771218
#
# Coordination Sequence:
#
# PCOD8291249 Si02
#       7
#     8  16  16  16  16   8  16
#     4   9  21  35  53  80 107 139 178 226 277 315
#     4   9  18  35  55  74 101 139 179 217 261 318
#     4  10  20  37  59  81 108 143 184 225 269 326
#     4  11  22  31  50  81 111 137 167 216 267 327
#     4   9  18  31  49  74 102 139 181 215 257 322
#     4  11  21  31  48  73 109 144 176 222 275 329
#     4   9  18  33  50  69 100 137 170 207 251 309
#
# _framework density 17.567157000000002
#
# number of rings (size 3 to 8) (size 9 to 14) (size 15 to 20)
#    0.000    2.333    0.000    4.000    4.667    5.000 
#    0.000    0.417    0.000    2.000    0.000    0.583 
#    0.000    2.667    0.000    0.000    0.000    0.000 
#
# Total GULP energy -594910.559914 kJ/mol
# GULP energy per Si atom -12393.969998 kJ/mol
# Density = 1.752717 g / cm^3
# Si number density = 17.567157 Si / 1000 Ang^3
#
#
#
# Elastic Constant Matrix: (Units=GPa)
#
#
# Indices 1 2 3 4 5 6 
#
# 1 126.9499 34.4143 44.9546 0.0000 0.0000 0.0000
# 2 34.4143 53.8855 47.8557 0.0000 0.0000 0.0000
# 3 44.9546 47.8557 99.2842 0.0000 0.0000 0.0000
# 4 0.0000 0.0000 0.0000 34.4956 0.0000 0.0000
# 5 0.0000 0.0000 0.0000 0.0000 30.3760 0.0000
# 6 0.0000 0.0000 0.0000 0.0000 0.0000 21.0062
#
#
#
# Elastic Compliance Matrix: (Units=1/GPa)
#
#
# Indices 1 2 3 4 5 6 
#
# 1 0.009869 -0.004082 -0.002501 0.000000 0.000000 0.000000
# 2 -0.004082 0.034136 -0.014606 0.000000 0.000000 0.000000
# 3 -0.002501 -0.014606 0.018245 0.000000 0.000000 0.000000
# 4 0.000000 0.000000 0.000000 0.028989 0.000000 0.000000
# 5 0.000000 0.000000 0.000000 0.000000 0.032921 0.000000
# 6 0.000000 0.000000 0.000000 0.000000 0.000000 0.047605
#
#
# Mechanical properties :
#
#
# Convention : Reuss Voigt Hill
#
# Bulk Modulus (GPa) = 50.32037 59.39657 54.85847
# Shear Modulus (GPa) = 22.64839 27.36858 25.00848
#
# Velocity S-wave (km/s) = 3.59450 3.95136 3.77715
# Velocity P-wave (km/s) = 6.77746 7.39609 7.09353
#
# Compressibility (1/GPa) = 0.01987267
#
# Stress axis : x y z
#
# Youngs Moduli (GPa) = 101.32368 29.29465 54.81055
#
# Poissons Ratio (x) = 0.11957 0.13710
# Poissons Ratio (y) = 0.41358 0.80054
# Poissons Ratio (z) = 0.25344 0.42787
#
# Static dielectric constant tensor:
#      x y z
#    x 3.718620 0.000000 0.000000 
#    y 0.000000 3.276770 0.000000 
#    z 0.000000 0.000000 2.958060 
# 
# 
# High freq. dielectric constant tensor:
#      x y z
#    x 1.673690 0.000000 0.000000 
#    y 0.000000 1.676610 0.000000 
#    z 0.000000 0.000000 1.664140 
# 
# From -- ./inp_files/59857.got.cif
#   From: 2010.06.25/outbox.cif.g09.slc.cpg/sg71_30_cif.got.tgz:59857.got - 2010.06.28 04:59:45.
