data_PCOD8291709
_publ_section_title
;
Structure prediction by ZEFSAII (Michael W. Deem and Ramdas Pophale) SiO2 
 PCOD8291709
Probable space group: I M M M
;
_chemical_formula_sum "Si O2"
_cell_formula_units_Z 120
_cell_length_a 30.273890
_cell_length_b 24.355462
_cell_length_c 8.626639
_cell_angle_alpha 90.000000
_cell_angle_beta 90.000000
_cell_angle_gamma 90.000000
_cell_volume 6360.719222
_symmetry_space_group_name_H-M "I M M M"
_symmetry_group_IT_number 71
_symmetry_cell_setting 'orthorhombic'
loop_
_space_group_symop_operation_xyz
x,y,z
-x,-y,z
x,-y,-z
-x,y,-z
-x,-y,-z
x,y,-z
-x,y,z
x,-y,z
1/2+x,1/2+y,1/2+z
1/2-x,1/2-y,1/2+z
1/2+x,1/2-y,1/2-z
1/2-x,1/2+y,1/2-z
1/2-x,1/2-y,1/2-z
1/2+x,1/2+y,1/2-z
1/2-x,1/2+y,1/2+z
1/2+x,1/2-y,1/2+z
loop_
_atom_site_type_symbol
_atom_site_label
_atom_site_fract_x
_atom_site_fract_y
_atom_site_fract_z
Si Si1 0.000000 0.435117 0.320720
Si Si2 0.921359 0.631866 0.816515
Si Si3 0.373302 0.327861 0.317159
Si Si4 0.201686 0.250920 0.819322
Si Si5 0.259756 0.936679 0.323861
Si Si6 0.549209 0.747238 0.315599
Si Si7 0.665772 0.438813 0.319598
Si Si8 0.670023 0.860689 0.820268
O O1 0.042629 0.411790 0.235135
O O2 0.000000 0.500000 0.301419
O O3 0.000000 0.417318 0.500000
O O4 0.935070 0.692788 0.760483
O O5 0.876357 0.613553 0.732282
O O6 0.915044 0.629332 0.000000
O O7 0.375068 0.318885 0.500000
O O8 0.328922 0.298328 0.253031
O O9 0.417423 0.299291 0.247558
O O10 0.370872 0.392777 0.274479
O O11 0.250000 0.250000 0.750000
O O12 0.177014 0.307011 0.782437
O O13 0.207683 0.243953 0.000000
O O14 0.266632 0.916487 0.500000
O O15 0.209179 0.926603 0.278860
O O16 0.291006 0.903623 0.208890
O O17 0.272302 0.000000 0.305568
O O18 0.548152 0.745708 0.500000
O O19 0.500000 0.735562 0.249896
O O20 0.678419 0.433715 0.500000
O O21 0.647033 0.500000 0.282730
O O22 0.669719 0.844947 0.000000
#
# Coordination Sequence:
#
# PCOD8291709 Si02
#       8
#     8  16  16  16  16  16  16  16
#     4  11  25  43  61  85 117 149 182 229 290 350
#     4  11  21  38  62  83 106 142 189 238 284 333
#     4   9  17  30  50  77 109 142 180 226 272 326
#     4  11  21  34  52  77 112 150 191 237 286 340
#     4  10  21  37  56  77 103 141 190 238 278 324
#     4   9  16  30  55  83 105 135 180 229 278 326
#     4   9  17  31  53  80 111 147 183 221 270 329
#     4  12  24  37  54  79 112 149 185 229 291 347
#
# _framework density 18.865791000000002
#
# number of rings (size 3 to 8) (size 9 to 14) (size 15 to 20)
#    0.000    1.800    2.000    3.400    0.000    2.933 
#    0.000    0.667    0.000    0.400    0.000    2.800 
#    0.000    0.000    0.000    3.333    0.000    3.467 
#
# Total GULP energy -743982.115901 kJ/mol
# GULP energy per Si atom -12399.701932 kJ/mol
# Density = 1.882285 g / cm^3
# Si number density = 18.865791 Si / 1000 Ang^3
#
#
#
# Elastic Constant Matrix: (Units=GPa)
#
#
# Indices 1 2 3 4 5 6 
#
# 1 95.6961 52.0371 24.9118 0.0000 0.0000 0.0000
# 2 52.0371 113.1117 18.9806 0.0000 0.0000 0.0000
# 3 24.9118 18.9806 42.7281 0.0000 0.0000 0.0000
# 4 0.0000 0.0000 0.0000 19.8949 0.0000 0.0000
# 5 0.0000 0.0000 0.0000 0.0000 23.8654 0.0000
# 6 0.0000 0.0000 0.0000 0.0000 0.0000 6.1859
#
#
#
# Elastic Compliance Matrix: (Units=1/GPa)
#
#
# Indices 1 2 3 4 5 6 
#
# 1 0.015352 -0.006009 -0.006282 0.000000 0.000000 0.000000
# 2 -0.006009 0.011905 -0.001785 0.000000 0.000000 0.000000
# 3 -0.006282 -0.001785 0.027859 0.000000 0.000000 0.000000
# 4 0.000000 0.000000 0.000000 0.050264 0.000000 0.000000
# 5 0.000000 0.000000 0.000000 0.000000 0.041902 0.000000
# 6 0.000000 0.000000 0.000000 0.000000 0.000000 0.161658
#
#
# Mechanical properties :
#
#
# Convention : Reuss Voigt Hill
#
# Bulk Modulus (GPa) = 37.08467 49.26609 43.17538
# Shear Modulus (GPa) = 14.44756 20.36300 17.40528
#
# Velocity S-wave (km/s) = 2.77032 3.28893 3.04070
# Velocity P-wave (km/s) = 5.47108 6.37129 5.93827
#
# Compressibility (1/GPa) = 0.02696532
#
# Stress axis : x y z
#
# Youngs Moduli (GPa) = 65.13620 84.00050 35.89481
#
# Poissons Ratio (x) = 0.50474 0.22548
# Poissons Ratio (y) = 0.39139 0.06407
# Poissons Ratio (z) = 0.40917 0.14994
#
# Static dielectric constant tensor:
#      x y z
#    x 3.507750 0.000000 0.000000 
#    y 0.000000 3.623200 0.000000 
#    z 0.000000 0.000000 3.281290 
# 
# 
# High freq. dielectric constant tensor:
#      x y z
#    x 1.729070 0.000000 0.000000 
#    y 0.000000 1.733680 0.000000 
#    z 0.000000 0.000000 1.714410 
# 
# From -- ./inp_files/15638.got.cif
#   From: 2010.06.25/outbox.cif.g09.slc.cpg/sg71_8_cif.got.tgz:15638.got - 2010.06.28 04:59:45.
