data_PCOD8291161
_publ_section_title
;
Structure prediction by ZEFSAII (Michael W. Deem and Ramdas Pophale) SiO2 
 PCOD8291161
Probable space group: I M M M
;
_chemical_formula_sum "Si O2"
_cell_formula_units_Z 104
_cell_length_a 9.272326
_cell_length_b 25.098445
_cell_length_c 24.054513
_cell_angle_alpha 90.000000
_cell_angle_beta 90.000000
_cell_angle_gamma 90.000000
_cell_volume 5597.989457
_symmetry_space_group_name_H-M "I M M M"
_symmetry_group_IT_number 71
_symmetry_cell_setting 'orthorhombic'
loop_
_space_group_symop_operation_xyz
x,y,z
-x,-y,z
x,-y,-z
-x,y,-z
-x,-y,-z
x,y,-z
-x,y,z
x,-y,z
1/2+x,1/2+y,1/2+z
1/2-x,1/2-y,1/2+z
1/2+x,1/2-y,1/2-z
1/2-x,1/2+y,1/2-z
1/2-x,1/2-y,1/2-z
1/2+x,1/2+y,1/2-z
1/2-x,1/2+y,1/2+z
1/2+x,1/2-y,1/2+z
loop_
_atom_site_type_symbol
_atom_site_label
_atom_site_fract_x
_atom_site_fract_y
_atom_site_fract_z
Si Si1 0.168936 0.439672 0.063725
Si Si2 0.168307 0.155617 0.620163
Si Si3 0.160889 0.936943 0.000000
Si Si4 0.840883 0.199646 0.264399
Si Si5 0.668981 0.233097 0.064700
Si Si6 0.831259 0.561245 0.392953
Si Si7 0.662586 0.652094 0.354781
O O1 0.208845 0.500000 0.082440
O O2 0.250732 0.397253 0.101267
O O3 0.000000 0.429980 0.070824
O O4 0.215474 0.431247 0.000000
O O5 0.223360 0.167721 0.682953
O O6 0.204844 0.205827 0.580518
O O7 0.000000 0.142374 0.618565
O O8 0.252283 0.917258 0.051996
O O9 0.000000 0.912219 0.000000
O O10 0.151734 0.000000 0.000000
O O11 0.750000 0.250000 0.250000
O O12 0.847035 0.165619 0.209326
O O13 0.000000 0.219119 0.282358
O O14 0.500000 0.220930 0.074147
O O15 0.760439 0.195158 0.105433
O O16 0.711722 0.223836 0.000000
O O17 0.797387 0.500000 0.379386
O O18 0.758018 0.598489 0.347539
O O19 0.000000 0.571294 0.399379
O O20 0.500000 0.642190 0.377740
#
# Coordination Sequence:
#
# PCOD8291161 Si02
#       7
#    16  16   8  16  16  16  16
#     4   9  19  36  57  84 120 158 193 232 282 341
#     4  10  20  36  59  85 113 147 190 236 282 335
#     4   9  17  31  53  79 105 135 173 219 268 317
#     4  10  21  38  59  82 109 145 190 235 279 333
#     4  10  21  36  55  81 114 149 182 224 280 338
#     4  10  21  37  56  77 104 142 184 223 270 329
#     4  11  23  37  56  82 110 144 186 231 282 332
#
# _framework density 18.578098000000001
#
# number of rings (size 3 to 8) (size 9 to 14) (size 15 to 20)
#    0.000    2.077    1.538    2.077    1.077    5.231 
#    0.000    1.538    0.000    4.615    0.000    0.000 
#    0.000    0.000    0.000    0.000    0.000    0.000 
#
# Total GULP energy -644538.763833 kJ/mol
# GULP energy per Si atom -12394.976228 kJ/mol
# Density = 1.853581 g / cm^3
# Si number density = 18.578098 Si / 1000 Ang^3
#
#
#
# Elastic Constant Matrix: (Units=GPa)
#
#
# Indices 1 2 3 4 5 6 
#
# 1 101.1495 67.1152 43.4933 0.0000 0.0000 0.0000
# 2 67.1152 121.2980 51.7023 0.0000 0.0000 0.0000
# 3 43.4933 51.7023 107.5254 0.0000 0.0000 0.0000
# 4 0.0000 0.0000 0.0000 27.6553 0.0000 0.0000
# 5 0.0000 0.0000 0.0000 0.0000 26.4236 0.0000
# 6 0.0000 0.0000 0.0000 0.0000 0.0000 36.4196
#
#
#
# Elastic Compliance Matrix: (Units=1/GPa)
#
#
# Indices 1 2 3 4 5 6 
#
# 1 0.016281 -0.007800 -0.002835 0.000000 0.000000 0.000000
# 2 -0.007800 0.014106 -0.003628 0.000000 0.000000 0.000000
# 3 -0.002835 -0.003628 0.012191 0.000000 0.000000 0.000000
# 4 0.000000 0.000000 0.000000 0.036159 0.000000 0.000000
# 5 0.000000 0.000000 0.000000 0.000000 0.037845 0.000000
# 6 0.000000 0.000000 0.000000 0.000000 0.000000 0.027458
#
#
# Mechanical properties :
#
#
# Convention : Reuss Voigt Hill
#
# Bulk Modulus (GPa) = 71.15975 72.73274 71.94624
# Shear Modulus (GPa) = 28.20872 29.27717 28.74295
#
# Velocity S-wave (km/s) = 3.90087 3.97406 3.93764
# Velocity P-wave (km/s) = 7.65998 7.76481 7.71257
#
# Compressibility (1/GPa) = 0.01405289
#
# Stress axis : x y z
#
# Youngs Moduli (GPa) = 61.42200 70.89063 82.02601
#
# Poissons Ratio (x) = 0.55294 0.23254
# Poissons Ratio (y) = 0.47909 0.29757
# Poissons Ratio (z) = 0.17413 0.25718
#
# Static dielectric constant tensor:
#      x y z
#    x 3.485870 0.000000 0.000000 
#    y 0.000000 3.246100 0.000000 
#    z 0.000000 0.000000 3.498090 
# 
# 
# High freq. dielectric constant tensor:
#      x y z
#    x 1.725790 0.000000 0.000000 
#    y 0.000000 1.721200 0.000000 
#    z 0.000000 0.000000 1.718630 
# 
# From -- ./inp_files/58009.got.cif
#   From: 2010.06.25/outbox.cif.g09.slc.cpg/sg71_30_cif.got.tgz:58009.got - 2010.06.28 04:59:45.
