data_PCOD8291047
_publ_section_title
;
Structure prediction by ZEFSAII (Michael W. Deem and Ramdas Pophale) SiO2 
 PCOD8291047
Probable space group: I M M M
;
_chemical_formula_sum "Si O2"
_cell_formula_units_Z 120
_cell_length_a 13.852373
_cell_length_b 15.616174
_cell_length_c 28.256876
_cell_angle_alpha 90.000000
_cell_angle_beta 90.000000
_cell_angle_gamma 90.000000
_cell_volume 6112.557569
_symmetry_space_group_name_H-M "I M M M"
_symmetry_group_IT_number 71
_symmetry_cell_setting 'orthorhombic'
loop_
_space_group_symop_operation_xyz
x,y,z
-x,-y,z
x,-y,-z
-x,y,-z
-x,-y,-z
x,y,-z
-x,y,z
x,-y,z
1/2+x,1/2+y,1/2+z
1/2-x,1/2-y,1/2+z
1/2+x,1/2-y,1/2-z
1/2-x,1/2+y,1/2-z
1/2-x,1/2-y,1/2-z
1/2+x,1/2+y,1/2-z
1/2-x,1/2+y,1/2+z
1/2+x,1/2-y,1/2+z
loop_
_atom_site_type_symbol
_atom_site_label
_atom_site_fract_x
_atom_site_fract_y
_atom_site_fract_z
Si Si1 0.203562 0.403474 0.319700
Si Si2 0.769233 0.163164 0.444312
Si Si3 0.392559 0.500000 0.055754
Si Si4 0.613631 0.756102 0.878163
Si Si5 0.113352 0.094257 0.319849
Si Si6 0.610674 0.900903 0.620856
Si Si7 0.610164 0.854817 0.275774
Si Si8 0.108893 0.845557 0.782044
O O1 0.194403 0.500000 0.338704
O O2 0.136677 0.344835 0.352484
O O3 0.169886 0.399534 0.265401
O O4 0.315481 0.372925 0.322705
O O5 0.750243 0.166386 0.500000
O O6 0.836397 0.084093 0.427718
O O7 0.827091 0.248562 0.427651
O O8 0.666652 0.154797 0.418176
O O9 0.500000 0.500000 0.078829
O O10 0.402207 0.500000 0.000000
O O11 0.500000 0.751949 0.887910
O O12 0.656232 0.675646 0.847866
O O13 0.138107 0.101589 0.264531
O O14 0.000000 0.101291 0.325904
O O15 0.149475 0.000000 0.338614
O O16 0.500000 0.869016 0.619825
O O17 0.653460 0.884767 0.673591
O O18 0.618860 0.000000 0.607099
O O19 0.500000 0.886098 0.271746
O O20 0.618759 0.753677 0.269551
O O21 0.000000 0.866698 0.799345
#
# Coordination Sequence:
#
# PCOD8291047 Si02
#       8
#    16  16   8  16  16  16  16  16
#     4  12  24  37  59  87 119 162 205 249 296 350
#     4  11  23  39  59  84 113 149 196 247 303 363
#     4   9  18  34  55  81 111 141 178 232 299 363
#     4  11  24  40  58  84 116 152 199 250 303 363
#     4   9  18  32  50  75 109 149 191 234 284 342
#     4  10  21  36  55  84 121 161 204 244 290 357
#     4  10  20  36  57  82 117 160 200 243 293 349
#     4  10  20  36  54  78 116 156 200 246 291 346
#
# _framework density 19.631717999999999
#
# number of rings (size 3 to 8) (size 9 to 14) (size 15 to 20)
#    0.000    1.667    2.000    2.800    2.800    3.467 
#    0.000    0.667    0.000    0.400    0.000    0.933 
#    0.000    0.000    0.000    7.467    0.000    0.000 
#
# Total GULP energy -744038.694612 kJ/mol
# GULP energy per Si atom -12400.644910 kJ/mol
# Density = 1.958703 g / cm^3
# Si number density = 19.631718 Si / 1000 Ang^3
#
#
#
# Elastic Constant Matrix: (Units=GPa)
#
#
# Indices 1 2 3 4 5 6 
#
# 1 73.8957 12.2793 40.7799 0.0000 0.0000 0.0000
# 2 12.2793 84.0322 24.3587 0.0000 0.0000 0.0000
# 3 40.7799 24.3587 80.5371 0.0000 0.0000 0.0000
# 4 0.0000 0.0000 0.0000 19.4838 0.0000 0.0000
# 5 0.0000 0.0000 0.0000 0.0000 24.8156 0.0000
# 6 0.0000 0.0000 0.0000 0.0000 0.0000 21.6811
#
#
#
# Elastic Compliance Matrix: (Units=1/GPa)
#
#
# Indices 1 2 3 4 5 6 
#
# 1 0.018780 0.000013 -0.009514 0.000000 0.000000 0.000000
# 2 0.000013 0.013044 -0.003952 0.000000 0.000000 0.000000
# 3 -0.009514 -0.003952 0.018429 0.000000 0.000000 0.000000
# 4 0.000000 0.000000 0.000000 0.051325 0.000000 0.000000
# 5 0.000000 0.000000 0.000000 0.000000 0.040297 0.000000
# 6 0.000000 0.000000 0.000000 0.000000 0.000000 0.046123
#
#
# Mechanical properties :
#
#
# Convention : Reuss Voigt Hill
#
# Bulk Modulus (GPa) = 42.82792 43.70007 43.26400
# Shear Modulus (GPa) = 22.45319 23.93258 23.19288
#
# Velocity S-wave (km/s) = 3.38556 3.49532 3.44088
# Velocity P-wave (km/s) = 6.09473 6.21272 6.15401
#
# Compressibility (1/GPa) = 0.02334925
#
# Stress axis : x y z
#
# Youngs Moduli (GPa) = 53.24680 76.66481 54.26215
#
# Poissons Ratio (x) = -0.00103 0.51622
# Poissons Ratio (y) = -0.00071 0.21444
# Poissons Ratio (z) = 0.50656 0.30297
#
# Static dielectric constant tensor:
#      x y z
#    x 3.734950 0.000000 0.000000 
#    y 0.000000 3.501380 0.000000 
#    z 0.000000 0.000000 3.331750 
# 
# 
# High freq. dielectric constant tensor:
#      x y z
#    x 1.781740 0.000000 0.000000 
#    y 0.000000 1.745260 0.000000 
#    z 0.000000 0.000000 1.731770 
# 
# From -- ./inp_files/70147.got.cif
#   From: 2010.06.25/outbox.cif.g09.slc.cpg/sg71_36_cif.got.tgz:70147.got - 2010.06.28 04:59:45.
