data_PCOD8291922
_publ_section_title
;
Structure prediction by ZEFSAII (Michael W. Deem and Ramdas Pophale) SiO2 
 PCOD8291922
Probable space group: I M M M
;
_chemical_formula_sum "Si O2"
_cell_formula_units_Z 72
_cell_length_a 16.335396
_cell_length_b 8.711830
_cell_length_c 25.098727
_cell_angle_alpha 90.000000
_cell_angle_beta 90.000000
_cell_angle_gamma 90.000000
_cell_volume 3571.829781
_symmetry_space_group_name_H-M "I M M M"
_symmetry_group_IT_number 71
_symmetry_cell_setting 'orthorhombic'
loop_
_space_group_symop_operation_xyz
x,y,z
-x,-y,z
x,-y,-z
-x,y,-z
-x,-y,-z
x,y,-z
-x,y,z
x,-y,z
1/2+x,1/2+y,1/2+z
1/2-x,1/2-y,1/2+z
1/2+x,1/2-y,1/2-z
1/2-x,1/2+y,1/2-z
1/2-x,1/2-y,1/2-z
1/2+x,1/2+y,1/2-z
1/2-x,1/2+y,1/2+z
1/2+x,1/2-y,1/2+z
loop_
_atom_site_type_symbol
_atom_site_label
_atom_site_fract_x
_atom_site_fract_y
_atom_site_fract_z
Si Si1 0.868691 0.676346 0.060297
Si Si2 0.326216 0.820214 0.783684
Si Si3 0.911701 0.680312 0.500000
Si Si4 0.500000 0.322511 0.368685
Si Si5 0.206247 0.677810 0.407299
Si Si6 0.000000 0.183605 0.750810
O O1 0.890157 0.500000 0.070508
O O2 0.775406 0.708071 0.072628
O O3 0.919427 0.779171 0.100063
O O4 0.890566 0.722466 0.000000
O O5 0.250000 0.750000 0.750000
O O6 0.310928 0.790739 0.845795
O O7 0.415146 0.745370 0.773937
O O8 0.330377 0.000000 0.770130
O O9 0.921876 0.500000 0.500000
O O10 0.868614 0.728121 0.555172
O O11 0.000000 0.761905 0.500000
O O12 0.500000 0.500000 0.358837
O O13 0.500000 0.248241 0.310471
O O14 0.230727 0.500000 0.416938
O O15 0.000000 0.000000 0.746200
#
# Coordination Sequence:
#
# PCOD8291922 Si02
#       6
#    16  16   8   8  16   8
#     4  11  23  38  58  88 125 159 195 241 302 362
#     4  11  24  41  64  94 126 163 209 257 309 371
#     4   9  18  34  61  90 115 146 191 245 292 341
#     4  11  24  40  61  86 115 155 208 252 290 352
#     4  10  21  38  63  90 119 157 203 247 294 355
#     4  11  25  44  64  90 123 162 209 259 313 370
#
# _framework density 20.157734000000001
#
# number of rings (size 3 to 8) (size 9 to 14) (size 15 to 20)
#    0.000    1.444    1.111    3.667    1.556   11.556 
#    0.000    0.000    0.000    0.667    0.000    0.000 
#    0.000    0.000    0.000    0.000    0.000    0.000 
#
# Total GULP energy -446269.121546 kJ/mol
# GULP energy per Si atom -12396.364487 kJ/mol
# Density = 2.011185 g / cm^3
# Si number density = 20.157734 Si / 1000 Ang^3
#
#
#
# Elastic Constant Matrix: (Units=GPa)
#
#
# Indices 1 2 3 4 5 6 
#
# 1 106.8646 20.7729 15.4977 0.0000 0.0000 0.0000
# 2 20.7729 58.6074 28.9548 0.0000 0.0000 0.0000
# 3 15.4977 28.9548 112.0919 0.0000 0.0000 0.0000
# 4 0.0000 0.0000 0.0000 28.6459 0.0000 0.0000
# 5 0.0000 0.0000 0.0000 0.0000 33.4007 0.0000
# 6 0.0000 0.0000 0.0000 0.0000 0.0000 29.2203
#
#
#
# Elastic Compliance Matrix: (Units=1/GPa)
#
#
# Indices 1 2 3 4 5 6 
#
# 1 0.010078 -0.003306 -0.000540 0.000000 0.000000 0.000000
# 2 -0.003306 0.020643 -0.004875 0.000000 0.000000 0.000000
# 3 -0.000540 -0.004875 0.010255 0.000000 0.000000 0.000000
# 4 0.000000 0.000000 0.000000 0.034909 0.000000 0.000000
# 5 0.000000 0.000000 0.000000 0.000000 0.029939 0.000000
# 6 0.000000 0.000000 0.000000 0.000000 0.000000 0.034223
#
#
# Mechanical properties :
#
#
# Convention : Reuss Voigt Hill
#
# Bulk Modulus (GPa) = 42.48881 45.33496 43.91189
# Shear Modulus (GPa) = 30.24178 32.40928 31.32553
#
# Velocity S-wave (km/s) = 3.87752 4.01407 3.94638
# Velocity P-wave (km/s) = 6.41645 6.63495 6.52661
#
# Compressibility (1/GPa) = 0.02353561
#
# Stress axis : x y z
#
# Youngs Moduli (GPa) = 99.22156 48.44266 97.51155
#
# Poissons Ratio (x) = 0.16014 0.05261
# Poissons Ratio (y) = 0.32799 0.47540
# Poissons Ratio (z) = 0.05353 0.23617
#
# Static dielectric constant tensor:
#      x y z
#    x 3.948430 0.000000 0.000000 
#    y 0.000000 3.587620 0.000000 
#    z 0.000000 0.000000 4.000550 
# 
# 
# High freq. dielectric constant tensor:
#      x y z
#    x 1.801570 0.000000 0.000000 
#    y 0.000000 1.779110 0.000000 
#    z 0.000000 0.000000 1.806570 
# 
# From -- ./inp_files/65188.got.cif
#   From: 2010.06.25/outbox.cif.g09.slc.cpg/sg71_33_cif.got.tgz:65188.got - 2010.06.28 04:59:45.
