data_PCOD8291760
_publ_section_title
;
Structure prediction by ZEFSAII (Michael W. Deem and Ramdas Pophale) SiO2 
 PCOD8291760
Probable space group: I M M M
;
_chemical_formula_sum "Si O2"
_cell_formula_units_Z 104
_cell_length_a 18.612231
_cell_length_b 9.033845
_cell_length_c 31.723591
_cell_angle_alpha 90.000000
_cell_angle_beta 90.000000
_cell_angle_gamma 90.000000
_cell_volume 5334.004907
_symmetry_space_group_name_H-M "I M M M"
_symmetry_group_IT_number 71
_symmetry_cell_setting 'orthorhombic'
loop_
_space_group_symop_operation_xyz
x,y,z
-x,-y,z
x,-y,-z
-x,y,-z
-x,-y,-z
x,y,-z
-x,y,z
x,-y,z
1/2+x,1/2+y,1/2+z
1/2-x,1/2-y,1/2+z
1/2+x,1/2-y,1/2-z
1/2-x,1/2+y,1/2-z
1/2-x,1/2-y,1/2-z
1/2+x,1/2+y,1/2-z
1/2-x,1/2+y,1/2+z
1/2+x,1/2-y,1/2+z
loop_
_atom_site_type_symbol
_atom_site_label
_atom_site_fract_x
_atom_site_fract_y
_atom_site_fract_z
Si Si1 0.416565 0.326666 0.669529
Si Si2 0.718730 0.672737 0.048297
Si Si3 0.579585 0.326240 0.094094
Si Si4 0.326045 0.175632 0.258128
Si Si5 0.352033 0.673726 0.420920
Si Si6 0.082389 0.670399 0.321721
Si Si7 0.083773 0.335949 0.000000
O O1 0.500000 0.280013 0.675089
O O2 0.406359 0.500000 0.678670
O O3 0.365353 0.235535 0.700416
O O4 0.391610 0.286685 0.622436
O O5 0.730131 0.500000 0.057250
O O6 0.636169 0.717765 0.057828
O O7 0.770765 0.764187 0.079132
O O8 0.736396 0.713524 0.000000
O O9 0.500000 0.262770 0.082621
O O10 0.574817 0.500000 0.099625
O O11 0.608429 0.261535 0.137942
O O12 0.250000 0.250000 0.250000
O O13 0.373686 0.223024 0.218502
O O14 0.317104 0.000000 0.262354
O O15 0.350115 0.500000 0.428804
O O16 0.395064 0.749061 0.458386
O O17 0.096227 0.500000 0.332121
O O18 0.000000 0.703801 0.311218
O O19 0.120325 0.500000 0.000000
O O20 0.000000 0.355245 0.000000
#
# Coordination Sequence:
#
# PCOD8291760 Si02
#       7
#    16  16  16  16  16  16   8
#     4  10  23  43  64  88 120 157 198 247 301 354
#     4  10  21  37  57  83 119 158 197 245 297 349
#     4   9  19  35  57  86 116 151 197 243 292 350
#     4  11  24  40  60  88 121 157 199 243 294 354
#     4  11  23  39  61  88 119 157 199 243 294 352
#     4   9  19  37  59  82 111 148 189 236 289 344
#     4  11  23  39  61  89 120 153 194 243 293 348
#
# _framework density 19.497544000000001
#
# number of rings (size 3 to 8) (size 9 to 14) (size 15 to 20)
#    0.000    1.923    0.769    2.077    2.154    5.538 
#    0.000    3.077    0.000    0.000    0.000    3.231 
#    0.000    0.000    0.000    0.000    0.000    0.000 
#
# Total GULP energy -644854.457433 kJ/mol
# GULP energy per Si atom -12401.047258 kJ/mol
# Density = 1.945317 g / cm^3
# Si number density = 19.497544 Si / 1000 Ang^3
#
#
#
# Elastic Constant Matrix: (Units=GPa)
#
#
# Indices 1 2 3 4 5 6 
#
# 1 126.4089 53.3385 63.5585 0.0000 0.0000 0.0000
# 2 53.3385 65.7249 47.4004 0.0000 0.0000 0.0000
# 3 63.5585 47.4004 92.2733 0.0000 0.0000 0.0000
# 4 0.0000 0.0000 0.0000 33.3710 0.0000 0.0000
# 5 0.0000 0.0000 0.0000 0.0000 40.5568 0.0000
# 6 0.0000 0.0000 0.0000 0.0000 0.0000 30.7493
#
#
#
# Elastic Compliance Matrix: (Units=1/GPa)
#
#
# Indices 1 2 3 4 5 6 
#
# 1 0.013834 -0.006917 -0.005976 0.000000 0.000000 0.000000
# 2 -0.006917 0.027628 -0.009427 0.000000 0.000000 0.000000
# 3 -0.005976 -0.009427 0.019796 0.000000 0.000000 0.000000
# 4 0.000000 0.000000 0.000000 0.029966 0.000000 0.000000
# 5 0.000000 0.000000 0.000000 0.000000 0.024657 0.000000
# 6 0.000000 0.000000 0.000000 0.000000 0.000000 0.032521
#
#
# Mechanical properties :
#
#
# Convention : Reuss Voigt Hill
#
# Bulk Modulus (GPa) = 60.17886 68.11133 64.14510
# Shear Modulus (GPa) = 25.17844 28.94272 27.06058
#
# Velocity S-wave (km/s) = 3.59745 3.85701 3.72949
# Velocity P-wave (km/s) = 6.94172 7.40571 7.17746
#
# Compressibility (1/GPa) = 0.01661713
#
# Stress axis : x y z
#
# Youngs Moduli (GPa) = 72.28448 36.19547 50.51447
#
# Poissons Ratio (x) = 0.25038 0.30186
# Poissons Ratio (y) = 0.50002 0.47623
# Poissons Ratio (z) = 0.43195 0.34123
#
# Static dielectric constant tensor:
#      x y z
#    x 3.926490 0.000000 0.000000 
#    y 0.000000 3.550770 0.000000 
#    z 0.000000 0.000000 3.657220 
# 
# 
# High freq. dielectric constant tensor:
#      x y z
#    x 1.776620 0.000000 0.000000 
#    y 0.000000 1.756670 0.000000 
#    z 0.000000 0.000000 1.760740 
# 
# From -- ./inp_files/66407.got.cif
#   From: 2010.06.25/outbox.cif.g09.slc.cpg/sg71_34_cif.got.tgz:66407.got - 2010.06.28 04:59:45.
