data_PCOD8291499
_publ_section_title
;
Structure prediction by ZEFSAII (Michael W. Deem and Ramdas Pophale) SiO2 
 PCOD8291499
Probable space group: I M M M
;
_chemical_formula_sum "Si O2"
_cell_formula_units_Z 64
_cell_length_a 27.736819
_cell_length_b 8.006485
_cell_length_c 14.920868
_cell_angle_alpha 90.000000
_cell_angle_beta 90.000000
_cell_angle_gamma 90.000000
_cell_volume 3313.543186
_symmetry_space_group_name_H-M "I M M M"
_symmetry_group_IT_number 71
_symmetry_cell_setting 'orthorhombic'
loop_
_space_group_symop_operation_xyz
x,y,z
-x,-y,z
x,-y,-z
-x,y,-z
-x,-y,-z
x,y,-z
-x,y,z
x,-y,z
1/2+x,1/2+y,1/2+z
1/2-x,1/2-y,1/2+z
1/2+x,1/2-y,1/2-z
1/2-x,1/2+y,1/2-z
1/2-x,1/2-y,1/2-z
1/2+x,1/2+y,1/2-z
1/2-x,1/2+y,1/2+z
1/2+x,1/2-y,1/2+z
loop_
_atom_site_type_symbol
_atom_site_label
_atom_site_fract_x
_atom_site_fract_y
_atom_site_fract_z
Si Si1 0.383710 0.303858 0.661010
Si Si2 0.868905 0.804995 0.636478
Si Si3 0.813359 0.191663 0.000000
Si Si4 0.793693 0.193246 0.500000
Si Si5 0.446507 0.806697 0.000000
Si Si6 0.943511 0.500000 0.898646
O O1 0.400114 0.500000 0.651654
O O2 0.364015 0.260274 0.759250
O O3 0.342427 0.260363 0.589269
O O4 0.426965 0.174053 0.646157
O O5 0.820880 0.730998 0.587727
O O6 0.917479 0.737183 0.590572
O O7 0.871913 0.000000 0.623828
O O8 0.763010 0.285031 0.000000
O O9 0.800078 0.000000 0.000000
O O10 0.804471 0.000000 0.500000
O O11 0.500000 0.720258 0.000000
O O12 0.455361 0.000000 0.000000
O O13 0.000000 0.500000 0.891257
O O14 0.924744 0.500000 0.000000
#
# Coordination Sequence:
#
# PCOD8291499 Si02
#       6
#    16  16   8   8   8   8
#     4  10  22  41  62  86 121 160 198 248 297 355
#     4   9  20  39  58  81 116 155 195 241 296 352
#     4  10  21  37  58  85 118 154 199 240 297 360
#     4   9  19  35  58  86 116 153 196 245 295 355
#     4  10  21  35  54  83 115 147 188 241 294 351
#     4  11  24  40  62  91 119 157 205 246 302 361
#
# _framework density 19.314672000000002
#
# number of rings (size 3 to 8) (size 9 to 14) (size 15 to 20)
#    0.000    2.250    1.250    1.125    3.500    5.500 
#    0.000    3.750    0.000    0.000    0.000    0.000 
#    0.000    0.000    0.000    0.000    0.000    0.000 
#
# Total GULP energy -396524.472950 kJ/mol
# GULP energy per Si atom -12391.389780 kJ/mol
# Density = 1.927071 g / cm^3
# Si number density = 19.314672 Si / 1000 Ang^3
#
#
#
# Elastic Constant Matrix: (Units=GPa)
#
#
# Indices 1 2 3 4 5 6 
#
# 1 99.6188 30.5352 69.1111 0.0000 0.0000 0.0000
# 2 30.5352 61.7360 47.3459 0.0000 0.0000 0.0000
# 3 69.1111 47.3459 172.0582 0.0000 0.0000 0.0000
# 4 0.0000 0.0000 0.0000 -556.2410 0.0000 0.0000
# 5 0.0000 0.0000 0.0000 0.0000 14.3682 0.0000
# 6 0.0000 0.0000 0.0000 0.0000 0.0000 28.6531
#
#
#
# Elastic Compliance Matrix: (Units=1/GPa)
#
#
# Indices 1 2 3 4 5 6 
#
# 1 0.014464 -0.003420 -0.004869 0.000000 0.000000 0.000000
# 2 -0.003420 0.021339 -0.004498 0.000000 0.000000 0.000000
# 3 -0.004869 -0.004498 0.009005 0.000000 0.000000 0.000000
# 4 0.000000 0.000000 0.000000 -0.001798 0.000000 0.000000
# 5 0.000000 0.000000 0.000000 0.000000 0.069598 0.000000
# 6 0.000000 0.000000 0.000000 0.000000 0.000000 0.034900
#
#
# Mechanical properties :
#
#
# Convention : Reuss Voigt Hill
#
# Bulk Modulus (GPa) = 51.98945 69.71083 60.85014
# Shear Modulus (GPa) = 27.85580 -90.21588 -31.18004
#
# Velocity S-wave (km/s) = 3.80176 -6.84177 -4.02222
# Velocity P-wave (km/s) = 6.80049 5.12276 3.16260
#
# Compressibility (1/GPa) = 0.01923467
#
# Stress axis : x y z
#
# Youngs Moduli (GPa) = 69.13515 46.86155 111.04406
#
# Poissons Ratio (x) = 0.16028 0.54065
# Poissons Ratio (y) = 0.23647 0.49950
# Poissons Ratio (z) = 0.33660 0.21079
#
# Static dielectric constant tensor:
#      x y z
#    x 3.501920 0.000000 0.000000 
#    y 0.000000 3.545340 0.000000 
#    z 0.000000 0.000000 3.577400 
# 
# 
# High freq. dielectric constant tensor:
#      x y z
#    x 1.742410 0.000000 0.000000 
#    y 0.000000 1.753170 0.000000 
#    z 0.000000 0.000000 1.762690 
# 
# From -- ./inp_files/38816.got.cif
#   From: 2010.06.25/outbox.cif.g09.slc.cpg/sg71_20_cif.got.tgz:38816.got - 2010.06.28 04:59:45.
