data_PCOD8291924
_publ_section_title
;
Structure prediction by ZEFSAII (Michael W. Deem and Ramdas Pophale) SiO2 
 PCOD8291924
Probable space group: I M M M
;
_chemical_formula_sum "Si O2"
_cell_formula_units_Z 104
_cell_length_a 27.116132
_cell_length_b 8.716014
_cell_length_c 22.127758
_cell_angle_alpha 90.000000
_cell_angle_beta 90.000000
_cell_angle_gamma 90.000000
_cell_volume 5229.775807
_symmetry_space_group_name_H-M "I M M M"
_symmetry_group_IT_number 71
_symmetry_cell_setting 'orthorhombic'
loop_
_space_group_symop_operation_xyz
x,y,z
-x,-y,z
x,-y,-z
-x,y,-z
-x,-y,-z
x,y,-z
-x,y,z
x,-y,z
1/2+x,1/2+y,1/2+z
1/2-x,1/2-y,1/2+z
1/2+x,1/2-y,1/2-z
1/2-x,1/2+y,1/2-z
1/2-x,1/2-y,1/2-z
1/2+x,1/2+y,1/2-z
1/2-x,1/2+y,1/2+z
1/2+x,1/2-y,1/2+z
loop_
_atom_site_type_symbol
_atom_site_label
_atom_site_fract_x
_atom_site_fract_y
_atom_site_fract_z
Si Si1 0.181769 0.316615 0.500000
Si Si2 0.578342 0.318009 0.661624
Si Si3 0.000000 0.317776 0.929055
Si Si4 0.944364 0.824118 0.704508
Si Si5 0.675588 0.180841 0.380932
Si Si6 0.637551 0.176158 0.875164
Si Si7 0.238600 0.677954 0.686670
Si Si8 0.295371 0.682830 0.500000
O O1 0.183596 0.500000 0.500000
O O2 0.153401 0.253450 0.559586
O O3 0.238556 0.258770 0.500000
O O4 0.572225 0.500000 0.656146
O O5 0.548109 0.242983 0.606421
O O6 0.560277 0.257387 0.727321
O O7 0.634982 0.266342 0.659277
O O8 0.000000 0.500000 0.926523
O O9 0.000000 0.263742 0.000000
O O10 0.910811 0.749613 0.653134
O O11 0.000000 0.799722 0.682063
O O12 0.928800 0.000000 0.707697
O O13 0.730346 0.226061 0.360919
O O14 0.671821 0.246073 0.447457
O O15 0.667200 0.000000 0.377286
O O16 0.681298 0.199500 0.827379
O O17 0.625365 0.000000 0.885666
O O18 0.253938 0.500000 0.683811
O O19 0.250000 0.750000 0.750000
O O20 0.297656 0.500000 0.500000
#
# Coordination Sequence:
#
# PCOD8291924 Si02
#       8
#     8  16   8  16  16  16  16   8
#     4   9  18  39  64  88 122 161 208 257 306 377
#     4  11  23  43  67  89 120 168 217 257 312 379
#     4  11  25  43  63  91 127 160 203 268 326 372
#     4  10  22  42  64  90 122 158 206 263 317 374
#     4  12  25  39  58  91 127 158 202 255 304 365
#     4  10  21  38  63  91 119 160 208 257 315 378
#     4  11  22  38  59  87 123 163 204 250 310 372
#     4  11  21  41  65  85 119 169 210 251 307 372
#
# _framework density 19.886129
#
# number of rings (size 3 to 8) (size 9 to 14) (size 15 to 20)
#    0.000    1.308    2.308    3.692    1.077    5.846 
#    0.000    0.769    0.000    2.308    0.000    0.000 
#    0.000    0.000    0.000    0.000    0.000    0.000 
#
# Total GULP energy -644732.849018 kJ/mol
# GULP energy per Si atom -12398.708635 kJ/mol
# Density = 1.984087 g / cm^3
# Si number density = 19.886129 Si / 1000 Ang^3
#
#
#
# Elastic Constant Matrix: (Units=GPa)
#
#
# Indices 1 2 3 4 5 6 
#
# 1 87.8474 33.6120 31.3572 0.0000 0.0000 0.0000
# 2 33.6120 65.2665 38.3525 0.0000 0.0000 0.0000
# 3 31.3572 38.3525 112.4200 0.0000 0.0000 0.0000
# 4 0.0000 0.0000 0.0000 33.4906 0.0000 0.0000
# 5 0.0000 0.0000 0.0000 0.0000 41.9121 0.0000
# 6 0.0000 0.0000 0.0000 0.0000 0.0000 35.7838
#
#
#
# Elastic Compliance Matrix: (Units=1/GPa)
#
#
# Indices 1 2 3 4 5 6 
#
# 1 0.014485 -0.006360 -0.001870 0.000000 0.000000 0.000000
# 2 -0.006360 0.021957 -0.005716 0.000000 0.000000 0.000000
# 3 -0.001870 -0.005716 0.011367 0.000000 0.000000 0.000000
# 4 0.000000 0.000000 0.000000 0.029859 0.000000 0.000000
# 5 0.000000 0.000000 0.000000 0.000000 0.023859 0.000000
# 6 0.000000 0.000000 0.000000 0.000000 0.000000 0.027946
#
#
# Mechanical properties :
#
#
# Convention : Reuss Voigt Hill
#
# Bulk Modulus (GPa) = 50.21631 52.46413 51.34022
# Shear Modulus (GPa) = 30.48691 33.05145 31.76918
#
# Velocity S-wave (km/s) = 3.91970 4.08123 4.00128
# Velocity P-wave (km/s) = 6.76699 6.97482 6.87169
#
# Compressibility (1/GPa) = 0.01991385
#
# Stress axis : x y z
#
# Youngs Moduli (GPa) = 69.03882 45.54444 87.97340
#
# Poissons Ratio (x) = 0.28969 0.16453
# Poissons Ratio (y) = 0.43912 0.50289
# Poissons Ratio (z) = 0.12912 0.26035
#
# Static dielectric constant tensor:
#      x y z
#    x 3.657540 0.000000 0.000000 
#    y 0.000000 3.508760 0.000000 
#    z 0.000000 0.000000 3.460430 
# 
# 
# High freq. dielectric constant tensor:
#      x y z
#    x 1.777990 0.000000 0.000000 
#    y 0.000000 1.766800 0.000000 
#    z 0.000000 0.000000 1.786410 
# 
# From -- ./inp_files/56300.got.cif
#   From: 2010.06.25/outbox.cif.g09.slc.cpg/sg71_29_cif.got.tgz:56300.got - 2010.06.28 04:59:45.
