data_PCOD8291798
_publ_section_title
;
Structure prediction by ZEFSAII (Michael W. Deem and Ramdas Pophale) SiO2 
 PCOD8291798
Probable space group: I M M M
;
_chemical_formula_sum "Si O2"
_cell_formula_units_Z 80
_cell_length_a 16.810083
_cell_length_b 11.529398
_cell_length_c 21.819423
_cell_angle_alpha 90.000000
_cell_angle_beta 90.000000
_cell_angle_gamma 90.000000
_cell_volume 4228.825368
_symmetry_space_group_name_H-M "I M M M"
_symmetry_group_IT_number 71
_symmetry_cell_setting 'orthorhombic'
loop_
_space_group_symop_operation_xyz
x,y,z
-x,-y,z
x,-y,-z
-x,y,-z
-x,-y,-z
x,y,-z
-x,y,z
x,-y,z
1/2+x,1/2+y,1/2+z
1/2-x,1/2-y,1/2+z
1/2+x,1/2-y,1/2-z
1/2-x,1/2+y,1/2-z
1/2-x,1/2-y,1/2-z
1/2+x,1/2+y,1/2-z
1/2-x,1/2+y,1/2+z
1/2+x,1/2-y,1/2+z
loop_
_atom_site_type_symbol
_atom_site_label
_atom_site_fract_x
_atom_site_fract_y
_atom_site_fract_z
Si Si1 0.628016 0.212465 0.267050
Si Si2 0.000000 0.820713 0.567573
Si Si3 0.745123 0.368786 0.671993
Si Si4 0.585087 0.000000 0.345199
Si Si5 0.324417 0.261563 0.068187
Si Si6 0.742706 0.000000 0.572098
Si Si7 0.000000 0.870568 0.703066
O O1 0.666868 0.291870 0.319442
O O2 0.694936 0.149331 0.227705
O O3 0.580640 0.112796 0.301868
O O4 0.576065 0.295326 0.223175
O O5 0.919755 0.744987 0.570150
O O6 0.000000 0.887350 0.500000
O O7 0.000000 0.895848 0.629692
O O8 0.716565 0.500000 0.669858
O O9 0.786843 0.338651 0.608409
O O10 0.500000 0.000000 0.381396
O O11 0.659849 0.000000 0.390898
O O12 0.296390 0.389353 0.091182
O O13 0.291857 0.242723 0.000000
O O14 0.722924 0.000000 0.500000
O O15 0.000000 0.000000 0.733097
#
# Coordination Sequence:
#
# PCOD8291798 Si02
#       7
#    16   8  16   8  16   8   8
#     4  11  23  38  56  89 116 151 202 241 299 358
#     4  10  22  37  56  86 119 158 202 247 288 336
#     4  11  22  37  59  82 118 160 199 248 292 355
#     4  12  22  39  67  89 118 152 191 252 305 360
#     4  10  21  37  59  86 119 156 204 247 293 352
#     4  10  22  40  62  88 117 155 200 253 299 353
#     4  12  24  38  59  86 122 158 192 247 301 361
#
# _framework density 18.917783
#
# number of rings (size 3 to 8) (size 9 to 14) (size 15 to 20)
#    0.000    1.200    6.000    0.600    1.400    0.800 
#    0.000    1.500    0.000    1.800    0.000    0.000 
#    0.000    6.400    0.000    0.000    0.000    0.000 
#
# Total GULP energy -495757.221623 kJ/mol
# GULP energy per Si atom -12393.930541 kJ/mol
# Density = 1.887473 g / cm^3
# Si number density = 18.917783 Si / 1000 Ang^3
#
#
#
# Elastic Constant Matrix: (Units=GPa)
#
#
# Indices 1 2 3 4 5 6 
#
# 1 104.8229 35.5891 38.8069 0.0000 0.0000 0.0000
# 2 35.5891 120.0231 37.3165 0.0000 0.0000 0.0000
# 3 38.8069 37.3165 82.1853 0.0000 0.0000 0.0000
# 4 0.0000 0.0000 0.0000 18.6043 0.0000 0.0000
# 5 0.0000 0.0000 0.0000 0.0000 32.9365 0.0000
# 6 0.0000 0.0000 0.0000 0.0000 0.0000 12.5946
#
#
#
# Elastic Compliance Matrix: (Units=1/GPa)
#
#
# Indices 1 2 3 4 5 6 
#
# 1 0.011995 -0.002091 -0.004715 0.000000 0.000000 0.000000
# 2 -0.002091 0.010066 -0.003583 0.000000 0.000000 0.000000
# 3 -0.004715 -0.003583 0.016021 0.000000 0.000000 0.000000
# 4 0.000000 0.000000 0.000000 0.053751 0.000000 0.000000
# 5 0.000000 0.000000 0.000000 0.000000 0.030361 0.000000
# 6 0.000000 0.000000 0.000000 0.000000 0.000000 0.079399
#
#
# Mechanical properties :
#
#
# Convention : Reuss Voigt Hill
#
# Bulk Modulus (GPa) = 57.78868 58.93960 58.36414
# Shear Modulus (GPa) = 21.91651 25.84834 23.88242
#
# Velocity S-wave (km/s) = 3.40739 3.70043 3.55693
# Velocity P-wave (km/s) = 6.78925 7.03426 6.91284
#
# Compressibility (1/GPa) = 0.01730443
#
# Stress axis : x y z
#
# Youngs Moduli (GPa) = 83.36650 99.34669 62.41930
#
# Poissons Ratio (x) = 0.20773 0.29428
# Poissons Ratio (y) = 0.17432 0.22365
# Poissons Ratio (z) = 0.39304 0.35596
#
# Static dielectric constant tensor:
#      x y z
#    x 3.519660 0.000000 0.000000 
#    y 0.000000 3.330070 0.000000 
#    z 0.000000 0.000000 3.493500 
# 
# 
# High freq. dielectric constant tensor:
#      x y z
#    x 1.737180 0.000000 0.000000 
#    y 0.000000 1.725720 0.000000 
#    z 0.000000 0.000000 1.732200 
# 
# From -- ./inp_files/53916.got.cif
#   From: 2010.06.25/outbox.cif.g09.slc.cpg/sg71_27_cif.got.tgz:53916.got - 2010.06.28 04:59:45.
