data_PCOD8291435
_publ_section_title
;
Structure prediction by ZEFSAII (Michael W. Deem and Ramdas Pophale) SiO2 
 PCOD8291435
Probable space group: I M M M
;
_chemical_formula_sum "Si O2"
_cell_formula_units_Z 72
_cell_length_a 17.961512
_cell_length_b 23.942685
_cell_length_c 8.341666
_cell_angle_alpha 90.000000
_cell_angle_beta 90.000000
_cell_angle_gamma 90.000000
_cell_volume 3587.306970
_symmetry_space_group_name_H-M "I M M M"
_symmetry_group_IT_number 71
_symmetry_cell_setting 'orthorhombic'
loop_
_space_group_symop_operation_xyz
x,y,z
-x,-y,z
x,-y,-z
-x,y,-z
-x,-y,-z
x,y,-z
-x,y,z
x,-y,z
1/2+x,1/2+y,1/2+z
1/2-x,1/2-y,1/2+z
1/2+x,1/2-y,1/2-z
1/2-x,1/2+y,1/2-z
1/2-x,1/2-y,1/2-z
1/2+x,1/2+y,1/2-z
1/2-x,1/2+y,1/2+z
1/2+x,1/2-y,1/2+z
loop_
_atom_site_type_symbol
_atom_site_label
_atom_site_fract_x
_atom_site_fract_y
_atom_site_fract_z
Si Si1 0.500000 0.566032 0.317638
Si Si2 0.207768 0.437862 0.687773
Si Si3 0.583780 0.144231 0.190946
Si Si4 0.147348 0.119042 0.687304
Si Si5 0.082783 0.232330 0.690246
O O1 0.500000 0.500000 0.317087
O O2 0.500000 0.588767 0.500000
O O3 0.571899 0.586453 0.222520
O O4 0.194837 0.442909 0.500000
O O5 0.206518 0.500000 0.764919
O O6 0.141049 0.400917 0.764498
O O7 0.286275 0.408632 0.715543
O O8 0.500000 0.130649 0.250932
O O9 0.608479 0.206287 0.250486
O O10 0.585968 0.142597 0.000000
O O11 0.165588 0.115497 0.500000
O O12 0.138839 0.183535 0.747030
O O13 0.078628 0.231903 0.500000
O O14 0.000000 0.219454 0.757895
#
# Coordination Sequence:
#
# PCOD8291435 Si02
#       5
#     8  16  16  16  16
#     4  11  23  37  53  75 105 141 178 217 260 302
#     4  10  21  35  50  75 110 140 173 220 265 306
#     4   8  15  30  54  79 102 134 172 215 269 318
#     4  11  21  34  54  78 104 140 180 214 254 310
#     4   8  14  28  50  77 104 129 167 217 261 303
#
# _framework density 20.070767
#
# number of rings (size 3 to 8) (size 9 to 14) (size 15 to 20)
#    0.000    2.556    1.111    3.000    0.000    5.333 
#    0.000    2.222    0.000    2.000    0.000    1.556 
#    0.000    0.000    0.000    0.000    0.000    0.000 
#
# Total GULP energy -446204.037997 kJ/mol
# GULP energy per Si atom -12394.556611 kJ/mol
# Density = 2.002509 g / cm^3
# Si number density = 20.070767 Si / 1000 Ang^3
#
#
#
# Elastic Constant Matrix: (Units=GPa)
#
#
# Indices 1 2 3 4 5 6 
#
# 1 122.9841 90.8218 -4.1286 0.0000 0.0000 0.0000
# 2 90.8218 184.3307 7.9353 0.0000 0.0000 0.0000
# 3 -4.1286 7.9353 15.1273 0.0000 0.0000 0.0000
# 4 0.0000 0.0000 0.0000 16.9907 0.0000 0.0000
# 5 0.0000 0.0000 0.0000 0.0000 -14.7589 0.0000
# 6 0.0000 0.0000 0.0000 0.0000 0.0000 -43.1737
#
#
#
# Elastic Compliance Matrix: (Units=1/GPa)
#
#
# Indices 1 2 3 4 5 6 
#
# 1 0.013538 -0.006987 0.007360 0.000000 0.000000 0.000000
# 2 -0.006987 0.009157 -0.006710 0.000000 0.000000 0.000000
# 3 0.007360 -0.006710 0.071635 0.000000 0.000000 0.000000
# 4 0.000000 0.000000 0.000000 0.058856 0.000000 0.000000
# 5 0.000000 0.000000 0.000000 0.000000 -0.067756 0.000000
# 6 0.000000 0.000000 0.000000 0.000000 0.000000 -0.023162
#
#
# Mechanical properties :
#
#
# Convention : Reuss Voigt Hill
#
# Bulk Modulus (GPa) = 12.24670 56.85547 34.55109
# Shear Modulus (GPa) = 48.94279 6.99918 27.97099
#
# Velocity S-wave (km/s) = 4.94349 1.86944 3.73717
# Velocity P-wave (km/s) = 6.22086 5.74881 5.98948
#
# Compressibility (1/GPa) = 0.08165464
#
# Stress axis : x y z
#
# Youngs Moduli (GPa) = 73.86501 109.21060 13.95975
#
# Poissons Ratio (x) = 0.76309 -0.10275
# Poissons Ratio (y) = 0.51612 0.09367
# Poissons Ratio (z) = -0.54366 0.73283
#
# Static dielectric constant tensor:
#      x y z
#    x 3.466130 0.000000 0.000000 
#    y 0.000000 4.304490 0.000000 
#    z 0.000000 0.000000 3.184960 
# 
# 
# High freq. dielectric constant tensor:
#      x y z
#    x 1.776600 0.000000 0.000000 
#    y 0.000000 1.802580 0.000000 
#    z 0.000000 0.000000 1.734970 
# 
# From -- ./inp_files/7949.got.cif
#   From: 2010.06.25/outbox.cif.g09.slc.cpg/sg71_4_cif.got.tgz:7949.got - 2010.06.28 04:59:45.
