data_PCOD8291373
_publ_section_title
;
Structure prediction by ZEFSAII (Michael W. Deem and Ramdas Pophale) SiO2 
 PCOD8291373
Probable space group: I M M M
;
_chemical_formula_sum "Si O2"
_cell_formula_units_Z 104
_cell_length_a 13.862987
_cell_length_b 14.474346
_cell_length_c 26.909856
_cell_angle_alpha 90.000000
_cell_angle_beta 90.000000
_cell_angle_gamma 90.000000
_cell_volume 5399.669017
_symmetry_space_group_name_H-M "I M M M"
_symmetry_group_IT_number 71
_symmetry_cell_setting 'orthorhombic'
loop_
_space_group_symop_operation_xyz
x,y,z
-x,-y,z
x,-y,-z
-x,y,-z
-x,-y,-z
x,y,-z
-x,y,z
x,-y,z
1/2+x,1/2+y,1/2+z
1/2-x,1/2-y,1/2+z
1/2+x,1/2-y,1/2-z
1/2-x,1/2+y,1/2-z
1/2-x,1/2-y,1/2-z
1/2+x,1/2+y,1/2-z
1/2-x,1/2+y,1/2+z
1/2+x,1/2-y,1/2+z
loop_
_atom_site_type_symbol
_atom_site_label
_atom_site_fract_x
_atom_site_fract_y
_atom_site_fract_z
Si Si1 0.796437 0.100673 0.941591
Si Si2 0.500000 0.391323 0.446254
Si Si3 0.610080 0.711101 0.847734
Si Si4 0.777123 0.606882 0.800754
Si Si5 0.109704 0.396444 0.702448
Si Si6 0.389673 0.108739 0.398693
Si Si7 0.283670 0.290804 0.943800
O O1 0.720268 0.181098 0.931948
O O2 0.899956 0.131999 0.917039
O O3 0.760947 0.000000 0.921023
O O4 0.816254 0.091319 0.000000
O O5 0.500000 0.500000 0.454690
O O6 0.500000 0.340180 0.500000
O O7 0.500000 0.681609 0.838133
O O8 0.677347 0.661918 0.807172
O O9 0.623723 0.822146 0.841674
O O10 0.639303 0.674897 0.903000
O O11 0.750849 0.500000 0.804099
O O12 0.822098 0.632618 0.747903
O O13 0.854346 0.633329 0.843249
O O14 0.135289 0.500000 0.682978
O O15 0.000000 0.394531 0.722170
O O16 0.500000 0.143314 0.405480
O O17 0.320376 0.160685 0.437806
O O18 0.382683 0.000000 0.409257
O O19 0.320614 0.309290 0.000000
#
# Coordination Sequence:
#
# PCOD8291373 Si02
#       7
#    16   8  16  16  16  16  16
#     4   8  14  25  41  61  85 114 153 200 244 287
#     4   7  10  18  34  56  79 103 135 181 234 282
#     4  10  21  35  50  72 102 134 172 214 248 283
#     4   9  17  32  55  80 104 129 158 195 247 309
#     4   9  17  31  55  84 108 129 154 190 244 309
#     4   9  18  32  50  74 103 129 156 200 256 311
#     4  10  21  33  47  68  94 133 180 217 251 289
#
# _framework density 19.260439999999999
#
# number of rings (size 3 to 8) (size 9 to 14) (size 15 to 20)
#    0.000    3.000    0.000    1.846    1.077    3.692 
#    0.000    0.769    0.000    0.000    0.000    8.615 
#    0.000    0.000    0.000    0.000    0.000    0.000 
#
# Total GULP energy -644221.601969 kJ/mol
# GULP energy per Si atom -12388.876961 kJ/mol
# Density = 1.921660 g / cm^3
# Si number density = 19.260440 Si / 1000 Ang^3
#
#
#
# Elastic Constant Matrix: (Units=GPa)
#
#
# Indices 1 2 3 4 5 6 
#
# 1 98.7955 30.7193 39.0685 0.0000 0.0000 0.0000
# 2 30.7193 46.8618 16.5539 0.0000 0.0000 0.0000
# 3 39.0685 16.5539 72.1525 0.0000 0.0000 0.0000
# 4 0.0000 0.0000 0.0000 20.6021 0.0000 0.0000
# 5 0.0000 0.0000 0.0000 0.0000 17.1933 0.0000
# 6 0.0000 0.0000 0.0000 0.0000 0.0000 25.3768
#
#
#
# Elastic Compliance Matrix: (Units=1/GPa)
#
#
# Indices 1 2 3 4 5 6 
#
# 1 0.015004 -0.007580 -0.006385 0.000000 0.000000 0.000000
# 2 -0.007580 0.027051 -0.002102 0.000000 0.000000 0.000000
# 3 -0.006385 -0.002102 0.017799 0.000000 0.000000 0.000000
# 4 0.000000 0.000000 0.000000 0.048539 0.000000 0.000000
# 5 0.000000 0.000000 0.000000 0.000000 0.058162 0.000000
# 6 0.000000 0.000000 0.000000 0.000000 0.000000 0.039406
#
#
# Mechanical properties :
#
#
# Convention : Reuss Voigt Hill
#
# Bulk Modulus (GPa) = 36.07529 43.38812 39.73170
# Shear Modulus (GPa) = 20.21555 21.39896 20.80725
#
# Velocity S-wave (km/s) = 3.24325 3.33683 3.29037
# Velocity P-wave (km/s) = 5.72676 6.11734 5.92527
#
# Compressibility (1/GPa) = 0.02771980
#
# Stress axis : x y z
#
# Youngs Moduli (GPa) = 66.64996 36.96767 56.18261
#
# Poissons Ratio (x) = 0.28021 0.35873
# Poissons Ratio (y) = 0.50520 0.11809
# Poissons Ratio (z) = 0.42556 0.07770
#
# Static dielectric constant tensor:
#      x y z
#    x 3.494550 0.000000 0.000000 
#    y 0.000000 3.556910 0.000000 
#    z 0.000000 0.000000 3.156930 
# 
# 
# High freq. dielectric constant tensor:
#      x y z
#    x 1.737640 0.000000 0.000000 
#    y 0.000000 1.748670 0.000000 
#    z 0.000000 0.000000 1.716430 
# 
# From -- ./inp_files/64657.got.cif
#   From: 2010.06.25/outbox.cif.g09.slc.cpg/sg71_33_cif.got.tgz:64657.got - 2010.06.28 04:59:45.
