data_PCOD8291994
_publ_section_title
;
Structure prediction by ZEFSAII (Michael W. Deem and Ramdas Pophale) SiO2 
 PCOD8291994
Probable space group: I M M M
;
_chemical_formula_sum "Si O2"
_cell_formula_units_Z 64
_cell_length_a 16.249330
_cell_length_b 14.754565
_cell_length_c 12.832733
_cell_angle_alpha 90.000000
_cell_angle_beta 90.000000
_cell_angle_gamma 90.000000
_cell_volume 3076.670780
_symmetry_space_group_name_H-M "I M M M"
_symmetry_group_IT_number 71
_symmetry_cell_setting 'orthorhombic'
loop_
_space_group_symop_operation_xyz
x,y,z
-x,-y,z
x,-y,-z
-x,y,-z
-x,-y,-z
x,y,-z
-x,y,z
x,-y,z
1/2+x,1/2+y,1/2+z
1/2-x,1/2-y,1/2+z
1/2+x,1/2-y,1/2-z
1/2-x,1/2+y,1/2-z
1/2-x,1/2-y,1/2-z
1/2+x,1/2+y,1/2-z
1/2-x,1/2+y,1/2+z
1/2+x,1/2-y,1/2+z
loop_
_atom_site_type_symbol
_atom_site_label
_atom_site_fract_x
_atom_site_fract_y
_atom_site_fract_z
Si Si1 0.593899 0.392608 0.000000
Si Si2 0.592678 0.718001 0.384602
Si Si3 0.373469 0.897669 0.712854
Si Si4 0.678743 0.397036 0.787879
Si Si5 0.500000 0.105581 0.885394
O O1 0.643443 0.359310 0.102345
O O2 0.592521 0.500000 0.000000
O O3 0.500000 0.354624 0.000000
O O4 0.623258 0.692319 0.500000
O O5 0.500000 0.684355 0.367487
O O6 0.596915 0.827021 0.373999
O O7 0.649183 0.667845 0.302797
O O8 0.276087 0.892216 0.719343
O O9 0.417309 0.867924 0.821510
O O10 0.401006 0.000000 0.682022
O O11 0.647933 0.500000 0.769634
O O12 0.500000 0.000000 0.905326
O O13 0.500000 0.154049 0.000000
#
# Coordination Sequence:
#
# PCOD8291994 Si02
#       5
#     8  16  16  16   8
#     4   9  18  36  62  89 118 154 204 262 312 372
#     4  11  24  40  59  88 125 165 209 252 304 379
#     4  10  21  40  62  87 122 162 207 259 317 371
#     4  10  22  40  63  90 122 162 209 263 321 373
#     4   9  18  36  61  87 118 157 205 260 314 374
#
# _framework density 20.801704999999998
#
# number of rings (size 3 to 8) (size 9 to 14) (size 15 to 20)
#    0.000    2.000    1.250    1.500    1.750    3.500 
#    2.250    5.000    0.000    0.000    0.000    0.000 
#    0.000    0.000    0.000    0.000    0.000    0.000 
#
# Total GULP energy -396675.286807 kJ/mol
# GULP energy per Si atom -12396.102713 kJ/mol
# Density = 2.075436 g / cm^3
# Si number density = 20.801705 Si / 1000 Ang^3
#
#
#
# Elastic Constant Matrix: (Units=GPa)
#
#
# Indices 1 2 3 4 5 6 
#
# 1 126.1072 18.4167 66.3031 0.0000 0.0000 0.0000
# 2 18.4167 58.2313 34.5833 0.0000 0.0000 0.0000
# 3 66.3031 34.5833 127.5795 0.0000 0.0000 0.0000
# 4 0.0000 0.0000 0.0000 27.0914 0.0000 0.0000
# 5 0.0000 0.0000 0.0000 0.0000 32.7922 0.0000
# 6 0.0000 0.0000 0.0000 0.0000 0.0000 -53.1251
#
#
#
# Elastic Compliance Matrix: (Units=1/GPa)
#
#
# Indices 1 2 3 4 5 6 
#
# 1 0.010912 -0.000099 -0.005644 0.000000 0.000000 0.000000
# 2 -0.000099 0.020469 -0.005497 0.000000 0.000000 0.000000
# 3 -0.005644 -0.005497 0.012261 0.000000 0.000000 0.000000
# 4 0.000000 0.000000 0.000000 0.036912 0.000000 0.000000
# 5 0.000000 0.000000 0.000000 0.000000 0.030495 0.000000
# 6 0.000000 0.000000 0.000000 0.000000 0.000000 -0.018823
#
#
# Mechanical properties :
#
#
# Convention : Reuss Voigt Hill
#
# Bulk Modulus (GPa) = 47.25476 61.16935 54.21206
# Shear Modulus (GPa) = 41.06449 14.19270 27.62859
#
# Velocity S-wave (km/s) = 4.44790 2.61489 3.64839
# Velocity P-wave (km/s) = 7.01031 6.21182 6.62311
#
# Compressibility (1/GPa) = 0.02116189
#
# Stress axis : x y z
#
# Youngs Moduli (GPa) = 91.64550 48.85454 81.55619
#
# Poissons Ratio (x) = 0.00484 0.46029
# Poissons Ratio (y) = 0.00908 0.44832
# Poissons Ratio (z) = 0.51724 0.26856
#
# Static dielectric constant tensor:
#      x y z
#    x 3.291030 0.000000 0.000000 
#    y 0.000000 3.794170 0.000000 
#    z 0.000000 0.000000 3.886610 
# 
# 
# High freq. dielectric constant tensor:
#      x y z
#    x 1.823600 0.000000 0.000000 
#    y 0.000000 1.806230 0.000000 
#    z 0.000000 0.000000 1.810270 
# 
# From -- ./inp_files/23245.got.cif
#   From: 2010.06.25/outbox.cif.g09.slc.cpg/sg71_12_cif.got.tgz:23245.got - 2010.06.28 04:59:45.
