data_PCOD8291562
_publ_section_title
;
Structure prediction by ZEFSAII (Michael W. Deem and Ramdas Pophale) SiO2 
 PCOD8291562
Probable space group: I M M M
;
_chemical_formula_sum "Si O2"
_cell_formula_units_Z 104
_cell_length_a 23.846857
_cell_length_b 9.507252
_cell_length_c 24.908133
_cell_angle_alpha 90.000000
_cell_angle_beta 90.000000
_cell_angle_gamma 90.000000
_cell_volume 5647.124063
_symmetry_space_group_name_H-M "I M M M"
_symmetry_group_IT_number 71
_symmetry_cell_setting 'orthorhombic'
loop_
_space_group_symop_operation_xyz
x,y,z
-x,-y,z
x,-y,-z
-x,y,-z
-x,-y,-z
x,y,-z
-x,y,z
x,-y,z
1/2+x,1/2+y,1/2+z
1/2-x,1/2-y,1/2+z
1/2+x,1/2-y,1/2-z
1/2-x,1/2+y,1/2-z
1/2-x,1/2-y,1/2-z
1/2+x,1/2+y,1/2-z
1/2-x,1/2+y,1/2+z
1/2+x,1/2-y,1/2+z
loop_
_atom_site_type_symbol
_atom_site_label
_atom_site_fract_x
_atom_site_fract_y
_atom_site_fract_z
Si Si1 0.349110 0.846619 0.848050
Si Si2 0.768730 0.152292 0.797019
Si Si3 0.000000 0.164695 0.438343
Si Si4 0.434268 0.161667 0.438334
Si Si5 0.619670 0.333910 0.061352
Si Si6 0.887031 0.168112 0.841452
Si Si7 0.564527 0.835896 0.243875
O O1 0.284941 0.863345 0.833550
O O2 0.339647 0.744028 0.898504
O O3 0.390574 0.786384 0.801566
O O4 0.372929 0.000000 0.864885
O O5 0.750000 0.250000 0.750000
O O6 0.822345 0.209311 0.829645
O O7 0.785357 0.000000 0.772869
O O8 0.058767 0.220857 0.415512
O O9 0.000000 0.204168 0.500000
O O10 0.000000 0.000000 0.430911
O O11 0.417995 0.196241 0.500000
O O12 0.500000 0.185348 0.429389
O O13 0.401047 0.267439 0.399567
O O14 0.418490 0.000000 0.424941
O O15 0.626583 0.500000 0.066140
O O16 0.629791 0.287012 0.000000
O O17 0.925909 0.240667 0.796361
O O18 0.897387 0.000000 0.842304
O O19 0.500000 0.813010 0.224347
O O20 0.574926 0.000000 0.258297
#
# Coordination Sequence:
#
# PCOD8291562 Si02
#       7
#    16  16   8  16  16  16  16
#     4  10  21  36  54  76 104 138 177 220 266 312
#     4  10  21  38  57  77 103 141 186 225 266 320
#     4   7  12  26  47  69  95 129 165 201 246 299
#     4   9  19  37  60  85 115 153 191 222 264 331
#     4   9  18  33  52  74 101 134 172 212 257 311
#     4  11  22  35  56  85 112 140 182 231 277 323
#     4  10  21  36  54  78 110 146 179 215 267 330
#
# _framework density 18.416454000000002
#
# number of rings (size 3 to 8) (size 9 to 14) (size 15 to 20)
#    0.000    2.385    1.538    2.308    1.077    4.923 
#    0.000    1.538    0.000    6.000    0.000    0.000 
#    0.000    0.000    0.000    0.000    0.000    0.000 
#
# Total GULP energy -644194.476318 kJ/mol
# GULP energy per Si atom -12388.355314 kJ/mol
# Density = 1.837454 g / cm^3
# Si number density = 18.416454 Si / 1000 Ang^3
#
#
#
# Elastic Constant Matrix: (Units=GPa)
#
#
# Indices 1 2 3 4 5 6 
#
# 1 91.8247 34.7688 38.0883 0.0000 0.0000 0.0000
# 2 34.7688 84.6877 65.9471 0.0000 0.0000 0.0000
# 3 38.0883 65.9471 113.8849 0.0000 0.0000 0.0000
# 4 0.0000 0.0000 0.0000 36.5538 0.0000 0.0000
# 5 0.0000 0.0000 0.0000 0.0000 26.3375 0.0000
# 6 0.0000 0.0000 0.0000 0.0000 0.0000 25.1226
#
#
#
# Elastic Compliance Matrix: (Units=1/GPa)
#
#
# Indices 1 2 3 4 5 6 
#
# 1 0.013226 -0.003616 -0.002329 0.000000 0.000000 0.000000
# 2 -0.003616 0.022494 -0.011816 0.000000 0.000000 0.000000
# 3 -0.002329 -0.011816 0.016402 0.000000 0.000000 0.000000
# 4 0.000000 0.000000 0.000000 0.027357 0.000000 0.000000
# 5 0.000000 0.000000 0.000000 0.000000 0.037969 0.000000
# 6 0.000000 0.000000 0.000000 0.000000 0.000000 0.039805
#
#
# Mechanical properties :
#
#
# Convention : Reuss Voigt Hill
#
# Bulk Modulus (GPa) = 60.24518 63.11175 61.67846
# Shear Modulus (GPa) = 25.21324 27.70900 26.46112
#
# Velocity S-wave (km/s) = 3.70410 3.88310 3.79465
# Velocity P-wave (km/s) = 7.14685 7.37890 7.26380
#
# Compressibility (1/GPa) = 0.01659884
#
# Stress axis : x y z
#
# Youngs Moduli (GPa) = 75.61049 44.45618 60.96717
#
# Poissons Ratio (x) = 0.16075 0.14202
# Poissons Ratio (y) = 0.27340 0.72040
# Poissons Ratio (z) = 0.17613 0.52531
#
# Static dielectric constant tensor:
#      x y z
#    x 3.306660 0.000000 0.000000 
#    y 0.000000 3.371930 0.000000 
#    z 0.000000 0.000000 -0.233980 
# 
# 
# High freq. dielectric constant tensor:
#      x y z
#    x 1.714960 0.000000 0.000000 
#    y 0.000000 1.709800 0.000000 
#    z 0.000000 0.000000 1.703570 
# 
# From -- ./inp_files/15288.got.cif
#   From: 2010.06.25/outbox.cif.g09.slc.cpg/sg71_8_cif.got.tgz:15288.got - 2010.06.28 04:59:45.
