data_PCOD8291363
_publ_section_title
;
Structure prediction by ZEFSAII (Michael W. Deem and Ramdas Pophale) SiO2 
 PCOD8291363
Probable space group: I M M M
;
_chemical_formula_sum "Si O2"
_cell_formula_units_Z 84
_cell_length_a 25.964178
_cell_length_b 12.699039
_cell_length_c 13.461171
_cell_angle_alpha 90.000000
_cell_angle_beta 90.000000
_cell_angle_gamma 90.000000
_cell_volume 4438.418770
_symmetry_space_group_name_H-M "I M M M"
_symmetry_group_IT_number 71
_symmetry_cell_setting 'orthorhombic'
loop_
_space_group_symop_operation_xyz
x,y,z
-x,-y,z
x,-y,-z
-x,y,-z
-x,-y,-z
x,y,-z
-x,y,z
x,-y,z
1/2+x,1/2+y,1/2+z
1/2-x,1/2-y,1/2+z
1/2+x,1/2-y,1/2-z
1/2-x,1/2+y,1/2-z
1/2-x,1/2-y,1/2-z
1/2+x,1/2+y,1/2-z
1/2-x,1/2+y,1/2+z
1/2+x,1/2-y,1/2+z
loop_
_atom_site_type_symbol
_atom_site_label
_atom_site_fract_x
_atom_site_fract_y
_atom_site_fract_z
Si Si1 0.616502 0.000000 0.689717
Si Si2 0.216163 0.118637 0.500000
Si Si3 0.187051 0.500000 0.000000
Si Si4 0.910293 0.294564 0.254565
Si Si5 0.184079 0.500000 0.387176
Si Si6 0.939307 0.883281 0.891628
Si Si7 0.000000 0.623055 0.382855
Si Si8 0.294443 0.778613 0.827269
O O1 0.582150 0.105174 0.680522
O O2 0.656948 0.000000 0.601963
O O3 0.639923 0.000000 0.802712
O O4 0.278088 0.105429 0.500000
O O5 0.199894 0.183990 0.595604
O O6 0.190749 0.000000 0.500000
O O7 0.922133 0.188570 0.198023
O O8 0.850553 0.288631 0.280753
O O9 0.949188 0.314198 0.345851
O O10 0.160429 0.500000 0.500000
O O11 0.218704 0.606394 0.374913
O O12 0.000000 0.886327 0.895007
O O13 0.917478 0.000000 0.870379
O O14 0.918838 0.844226 0.000000
O O15 0.000000 0.500000 0.348810
O O16 0.000000 0.631116 0.500000
O O17 0.250000 0.750000 0.750000
#
# Coordination Sequence:
#
# PCOD8291363 Si02
#       8
#     8   8   4  16   8  16   8  16
#     4  10  22  35  61  97 123 169 203 263 333 383
#     4  10  22  39  63  83 120 167 209 255 317 380
#     4  10  22  42  62  87 138 167 212 254 334 392
#     4  11  22  39  66  91 127 158 215 264 319 377
#     4  10  20  40  63  89 123 163 219 267 317 376
#     4   9  19  38  62  86 118 162 202 245 307 370
#     4  11  24  42  66  97 130 166 214 268 326 388
#     4  11  24  41  63  91 125 168 212 264 323 387
#
# _framework density 18.925659
#
# number of rings (size 3 to 8) (size 9 to 14) (size 15 to 20)
#    0.286    1.429    2.857    2.857    4.000    1.524 
#    1.714    0.000    0.000    2.857    0.000    0.000 
#    0.000    0.000    0.000    0.000    0.000    0.000 
#
# Total GULP energy -520301.434759 kJ/mol
# GULP energy per Si atom -12388.129399 kJ/mol
# Density = 1.888258 g / cm^3
# Si number density = 18.925659 Si / 1000 Ang^3
#
#
#
# Elastic Constant Matrix: (Units=GPa)
#
#
# Indices 1 2 3 4 5 6 
#
# 1 82.6002 28.8336 32.4891 0.0000 0.0000 0.0000
# 2 28.8336 152.4100 61.8857 0.0000 0.0000 0.0000
# 3 32.4891 61.8857 106.5706 0.0000 0.0000 0.0000
# 4 0.0000 0.0000 0.0000 8.3508 0.0000 0.0000
# 5 0.0000 0.0000 0.0000 0.0000 1.8566 0.0000
# 6 0.0000 0.0000 0.0000 0.0000 0.0000 26.1259
#
#
#
# Elastic Compliance Matrix: (Units=1/GPa)
#
#
# Indices 1 2 3 4 5 6 
#
# 1 0.013919 -0.001191 -0.003552 0.000000 0.000000 0.000000
# 2 -0.001191 0.008688 -0.004682 0.000000 0.000000 0.000000
# 3 -0.003552 -0.004682 0.013185 0.000000 0.000000 0.000000
# 4 0.000000 0.000000 0.000000 0.119749 0.000000 0.000000
# 5 0.000000 0.000000 0.000000 0.000000 0.538622 0.000000
# 6 0.000000 0.000000 0.000000 0.000000 0.000000 0.038276
#
#
# Mechanical properties :
#
#
# Convention : Reuss Voigt Hill
#
# Bulk Modulus (GPa) = 59.02297 65.33306 62.17802
# Shear Modulus (GPa) = 6.60558 21.82482 14.21520
#
# Velocity S-wave (km/s) = 1.87026 3.39954 2.74361
# Velocity P-wave (km/s) = 5.99318 7.07142 6.55451
#
# Compressibility (1/GPa) = 0.01694256
#
# Stress axis : x y z
#
# Youngs Moduli (GPa) = 71.84261 115.10631 75.84404
#
# Poissons Ratio (x) = 0.13711 0.26938
# Poissons Ratio (y) = 0.08558 0.35509
# Poissons Ratio (z) = 0.25517 0.53890
#
# Static dielectric constant tensor:
#      x y z
#    x 3.281360 0.000000 0.000000 
#    y 0.000000 0.150640 0.000000 
#    z 0.000000 0.000000 2.973250 
# 
# 
# High freq. dielectric constant tensor:
#      x y z
#    x 1.711510 0.000000 0.000000 
#    y 0.000000 1.756590 0.000000 
#    z 0.000000 0.000000 1.735290 
# 
# From -- ./inp_files/39056.got.cif
#   From: 2010.06.25/outbox.cif.g09.slc.cpg/sg71_20_cif.got.tgz:39056.got - 2010.06.28 04:59:45.
