data_PCOD8291038
_publ_section_title
;
Structure prediction by ZEFSAII (Michael W. Deem and Ramdas Pophale) SiO2 
 PCOD8291038
Probable space group: I M M M
;
_chemical_formula_sum "Si O2"
_cell_formula_units_Z 52
_cell_length_a 17.046635
_cell_length_b 7.569477
_cell_length_c 21.910268
_cell_angle_alpha 90.000000
_cell_angle_beta 90.000000
_cell_angle_gamma 90.000000
_cell_volume 2827.171965
_symmetry_space_group_name_H-M "I M M M"
_symmetry_group_IT_number 71
_symmetry_cell_setting 'orthorhombic'
loop_
_space_group_symop_operation_xyz
x,y,z
-x,-y,z
x,-y,-z
-x,y,-z
-x,-y,-z
x,y,-z
-x,y,z
x,-y,z
1/2+x,1/2+y,1/2+z
1/2-x,1/2-y,1/2+z
1/2+x,1/2-y,1/2-z
1/2-x,1/2+y,1/2-z
1/2-x,1/2-y,1/2-z
1/2+x,1/2+y,1/2-z
1/2-x,1/2+y,1/2+z
1/2+x,1/2-y,1/2+z
loop_
_atom_site_type_symbol
_atom_site_label
_atom_site_fract_x
_atom_site_fract_y
_atom_site_fract_z
Si Si1 0.000000 0.500000 0.251953
Si Si2 0.086798 0.500000 0.631015
Si Si3 0.144873 0.207561 0.068589
Si Si4 0.316479 0.698671 0.929933
Si Si5 0.000000 0.791064 0.848173
O O1 0.077405 0.500000 0.295301
O O2 0.000000 0.320055 0.213570
O O3 0.132461 0.324432 0.612292
O O4 0.000000 0.500000 0.600045
O O5 0.225537 0.297475 0.090266
O O6 0.075907 0.266642 0.113405
O O7 0.157756 0.000000 0.070890
O O8 0.122620 0.268124 0.000000
O O9 0.348447 0.500000 0.922020
O O10 0.323378 0.762941 0.000000
O O11 0.000000 0.000000 0.833284
#
# Coordination Sequence:
#
# PCOD8291038 Si02
#       5
#     4   8  16  16   8
#     4  10  26  42  58  78 110 160 214 240 264 324
#     4  10  23  42  60  76 116 153 199 243 288 324
#     4   9  17  33  60  91 124 151 178 227 297 356
#     4  10  20  35  60  93 119 143 181 236 300 358
#     4  10  21  38  60  83 120 155 196 236 276 330
#
# _framework density 18.392938999999998
#
# number of rings (size 3 to 8) (size 9 to 14) (size 15 to 20)
#    0.462    1.846    1.538    0.923    2.154    4.923 
#    0.000    3.846    0.000    0.000    0.000    0.000 
#    0.000    0.000    0.000    0.000    0.000    0.000 
#
# Total GULP energy -322366.461899 kJ/mol
# GULP energy per Si atom -12398.710073 kJ/mol
# Density = 1.835108 g / cm^3
# Si number density = 18.392939 Si / 1000 Ang^3
#
#
#
# Elastic Constant Matrix: (Units=GPa)
#
#
# Indices 1 2 3 4 5 6 
#
# 1 108.5983 59.6545 74.4914 0.0000 0.0000 0.0000
# 2 59.6545 96.6333 60.0725 0.0000 0.0000 0.0000
# 3 74.4914 60.0725 119.4852 0.0000 0.0000 0.0000
# 4 0.0000 0.0000 0.0000 30.1198 0.0000 0.0000
# 5 0.0000 0.0000 0.0000 0.0000 -21.8339 0.0000
# 6 0.0000 0.0000 0.0000 0.0000 0.0000 15.2710
#
#
#
# Elastic Compliance Matrix: (Units=1/GPa)
#
#
# Indices 1 2 3 4 5 6 
#
# 1 0.018269 -0.006106 -0.008320 0.000000 0.000000 0.000000
# 2 -0.006106 0.017094 -0.004787 0.000000 0.000000 0.000000
# 3 -0.008320 -0.004787 0.015963 0.000000 0.000000 0.000000
# 4 0.000000 0.000000 0.000000 0.033201 0.000000 0.000000
# 5 0.000000 0.000000 0.000000 0.000000 -0.045800 0.000000
# 6 0.000000 0.000000 0.000000 0.000000 0.000000 0.065484
#
#
# Mechanical properties :
#
#
# Convention : Reuss Voigt Hill
#
# Bulk Modulus (GPa) = 77.52167 79.23929 78.38048
# Shear Modulus (GPa) = 34.02821 13.41126 23.71974
#
# Velocity S-wave (km/s) = 4.30591 2.70321 3.59501
# Velocity P-wave (km/s) = 8.18292 7.27448 7.74203
#
# Compressibility (1/GPa) = 0.01289962
#
# Stress axis : x y z
#
# Youngs Moduli (GPa) = 54.73676 58.50007 62.64478
#
# Poissons Ratio (x) = 0.35721 0.52119
# Poissons Ratio (y) = 0.33423 0.29991
# Poissons Ratio (z) = 0.45540 0.28006
#
# Static dielectric constant tensor:
#      x y z
#    x 3.400740 0.000000 0.000000 
#    y 0.000000 3.309120 0.000000 
#    z 0.000000 0.000000 3.173070 
# 
# 
# High freq. dielectric constant tensor:
#      x y z
#    x 1.714140 0.000000 0.000000 
#    y 0.000000 1.723290 0.000000 
#    z 0.000000 0.000000 1.685540 
# 
# From -- ./inp_files/53652.got.cif
#   From: 2010.06.25/outbox.cif.g09.slc.cpg/sg71_27_cif.got.tgz:53652.got - 2010.06.28 04:59:45.
