data_PCOD8291329
_publ_section_title
;
Structure prediction by ZEFSAII (Michael W. Deem and Ramdas Pophale) SiO2 
 PCOD8291329
Probable space group: I M M M
;
_chemical_formula_sum "Si O2"
_cell_formula_units_Z 104
_cell_length_a 15.797977
_cell_length_b 17.614866
_cell_length_c 19.916944
_cell_angle_alpha 90.000000
_cell_angle_beta 90.000000
_cell_angle_gamma 90.000000
_cell_volume 5542.472197
_symmetry_space_group_name_H-M "I M M M"
_symmetry_group_IT_number 71
_symmetry_cell_setting 'orthorhombic'
loop_
_space_group_symop_operation_xyz
x,y,z
-x,-y,z
x,-y,-z
-x,y,-z
-x,-y,-z
x,y,-z
-x,y,z
x,-y,z
1/2+x,1/2+y,1/2+z
1/2-x,1/2-y,1/2+z
1/2+x,1/2-y,1/2-z
1/2-x,1/2+y,1/2-z
1/2-x,1/2-y,1/2-z
1/2+x,1/2+y,1/2-z
1/2-x,1/2+y,1/2+z
1/2+x,1/2-y,1/2+z
loop_
_atom_site_type_symbol
_atom_site_label
_atom_site_fract_x
_atom_site_fract_y
_atom_site_fract_z
Si Si1 0.598650 0.807441 0.810887
Si Si2 0.273264 0.085184 0.624411
Si Si3 0.597882 0.305534 0.312393
Si Si4 0.141081 0.194188 0.423602
Si Si5 0.901760 0.312804 0.075346
Si Si6 0.000000 0.917048 0.579661
Si Si7 0.250821 0.413775 0.719717
O O1 0.500000 0.833496 0.814034
O O2 0.613868 0.750026 0.750011
O O3 0.627570 0.768941 0.880225
O O4 0.661421 0.878413 0.803409
O O5 0.231386 0.153888 0.581727
O O6 0.370040 0.109830 0.612500
O O7 0.243806 0.089626 0.700384
O O8 0.256796 0.000000 0.595849
O O9 0.500000 0.335049 0.311868
O O10 0.619782 0.261658 0.380895
O O11 0.665113 0.373768 0.309158
O O12 0.119902 0.216655 0.500000
O O13 0.080664 0.128313 0.394436
O O14 0.000000 0.325994 0.072752
O O15 0.865432 0.301260 0.000000
O O16 0.000000 0.924802 0.500000
O O17 0.000000 0.000000 0.613623
O O18 0.251765 0.500000 0.693608
#
# Coordination Sequence:
#
# PCOD8291329 Si02
#       7
#    16  16  16  16  16   8  16
#     4  11  21  37  61  83 109 152 199 240 280 333
#     4  11  22  35  52  80 118 156 188 224 275 339
#     4  10  20  38  62  85 110 147 191 236 287 344
#     4  11  21  34  54  82 112 149 189 227 275 335
#     4  10  21  37  58  84 111 144 188 237 286 338
#     4   9  18  32  48  74 115 149 174 214 266 327
#     4  11  23  38  58  85 118 151 191 243 290 334
#
# _framework density 18.764189999999999
#
# number of rings (size 3 to 8) (size 9 to 14) (size 15 to 20)
#    0.000    1.462    3.846    2.308    0.000    2.769 
#    0.000    2.308    0.000    1.846    0.000    3.231 
#    0.000    0.000    0.000    0.000    0.000    0.000 
#
# Total GULP energy -644574.736277 kJ/mol
# GULP energy per Si atom -12395.668005 kJ/mol
# Density = 1.872148 g / cm^3
# Si number density = 18.764190 Si / 1000 Ang^3
#
#
#
# Elastic Constant Matrix: (Units=GPa)
#
#
# Indices 1 2 3 4 5 6 
#
# 1 105.7720 73.2243 33.5866 0.0000 0.0000 0.0000
# 2 73.2243 99.5463 31.4034 0.0000 0.0000 0.0000
# 3 33.5866 31.4034 77.4294 0.0000 0.0000 0.0000
# 4 0.0000 0.0000 0.0000 22.7274 0.0000 0.0000
# 5 0.0000 0.0000 0.0000 0.0000 23.2012 0.0000
# 6 0.0000 0.0000 0.0000 0.0000 0.0000 28.2810
#
#
#
# Elastic Compliance Matrix: (Units=1/GPa)
#
#
# Indices 1 2 3 4 5 6 
#
# 1 0.019888 -0.013655 -0.003089 0.000000 0.000000 0.000000
# 2 -0.013655 0.020895 -0.002551 0.000000 0.000000 0.000000
# 3 -0.003089 -0.002551 0.015290 0.000000 0.000000 0.000000
# 4 0.000000 0.000000 0.000000 0.044000 0.000000 0.000000
# 5 0.000000 0.000000 0.000000 0.000000 0.043101 0.000000
# 6 0.000000 0.000000 0.000000 0.000000 0.000000 0.035359
#
#
# Mechanical properties :
#
#
# Convention : Reuss Voigt Hill
#
# Bulk Modulus (GPa) = 57.20024 62.13068 59.66546
# Shear Modulus (GPa) = 22.42651 24.47750 23.45200
#
# Velocity S-wave (km/s) = 3.46088 3.61568 3.53913
# Velocity P-wave (km/s) = 6.82057 7.11435 6.96901
#
# Compressibility (1/GPa) = 0.01748244
#
# Stress axis : x y z
#
# Youngs Moduli (GPa) = 50.28096 47.85892 65.40415
#
# Poissons Ratio (x) = 0.65351 0.20202
# Poissons Ratio (y) = 0.68659 0.16686
# Poissons Ratio (z) = 0.15531 0.12210
#
# Static dielectric constant tensor:
#      x y z
#    x -0.165560 0.000000 0.000000 
#    y 0.000000 3.403540 0.000000 
#    z 0.000000 0.000000 3.563770 
# 
# 
# High freq. dielectric constant tensor:
#      x y z
#    x 1.749640 0.000000 0.000000 
#    y 0.000000 1.704450 0.000000 
#    z 0.000000 0.000000 1.720050 
# 
# From -- ./inp_files/54139.got.cif
#   From: 2010.06.25/outbox.cif.g09.slc.cpg/sg71_28_cif.got.tgz:54139.got - 2010.06.28 04:59:45.
