data_PCOD8291927
_publ_section_title
;
Structure prediction by ZEFSAII (Michael W. Deem and Ramdas Pophale) SiO2 
 PCOD8291927
Probable space group: I M M M
;
_chemical_formula_sum "Si O2"
_cell_formula_units_Z 88
_cell_length_a 11.480754
_cell_length_b 16.587742
_cell_length_c 23.629071
_cell_angle_alpha 90.000000
_cell_angle_beta 90.000000
_cell_angle_gamma 90.000000
_cell_volume 4499.915208
_symmetry_space_group_name_H-M "I M M M"
_symmetry_group_IT_number 71
_symmetry_cell_setting 'orthorhombic'
loop_
_space_group_symop_operation_xyz
x,y,z
-x,-y,z
x,-y,-z
-x,y,-z
-x,-y,-z
x,y,-z
-x,y,z
x,-y,z
1/2+x,1/2+y,1/2+z
1/2-x,1/2-y,1/2+z
1/2+x,1/2-y,1/2-z
1/2-x,1/2+y,1/2-z
1/2-x,1/2-y,1/2-z
1/2+x,1/2+y,1/2-z
1/2-x,1/2+y,1/2+z
1/2+x,1/2-y,1/2+z
loop_
_atom_site_type_symbol
_atom_site_label
_atom_site_fract_x
_atom_site_fract_y
_atom_site_fract_z
Si Si1 0.362152 0.000000 0.565368
Si Si2 0.374826 0.886938 0.000000
Si Si3 0.500000 0.407744 0.708127
Si Si4 0.500000 0.588588 0.840096
Si Si5 0.864161 0.411244 0.622487
Si Si6 0.873120 0.797156 0.500000
Si Si7 0.761859 0.151371 0.387557
Si Si8 0.715936 0.709195 0.309586
O O1 0.318662 0.074437 0.602785
O O2 0.500000 0.000000 0.563512
O O3 0.313911 0.000000 0.500000
O O4 0.307056 0.908733 0.941271
O O5 0.500000 0.932852 0.000000
O O6 0.403300 0.794464 0.000000
O O7 0.500000 0.500000 0.681025
O O8 0.500000 0.421224 0.773918
O O9 0.610828 0.354294 0.691050
O O10 0.500000 0.500000 0.869127
O O11 0.383592 0.635139 0.856418
O O12 0.839402 0.500000 0.648659
O O13 0.822219 0.342523 0.665347
O O14 0.000000 0.393956 0.615132
O O15 0.791636 0.815471 0.551874
O O16 0.000000 0.843728 0.500000
O O17 0.688242 0.216828 0.351923
O O18 0.750000 0.750000 0.250000
#
# Coordination Sequence:
#
# PCOD8291927 Si02
#       8
#     8   8   8   8  16   8  16  16
#     4  11  26  45  63  91 137 180 217 256 313 400
#     4   9  17  32  58  95 129 157 194 250 320 387
#     4  11  26  48  67  90 127 178 225 265 321 385
#     4  11  22  39  66  97 127 165 218 278 327 387
#     4  10  21  38  63  95 130 163 200 256 323 382
#     4  11  20  32  62 100 131 162 207 269 329 390
#     4  12  23  40  65  97 131 170 218 268 330 388
#     4  12  26  41  66  91 130 168 220 266 316 379
#
# _framework density 19.555924000000001
#
# number of rings (size 3 to 8) (size 9 to 14) (size 15 to 20)
#    0.000    1.000    6.364    0.818    3.818    1.091 
#    1.636    1.364    0.000    1.636    0.000    3.818 
#    0.000    0.000    0.000    0.000    0.000    0.000 
#
# Total GULP energy -545155.400045 kJ/mol
# GULP energy per Si atom -12389.895456 kJ/mol
# Density = 1.951141 g / cm^3
# Si number density = 19.555924 Si / 1000 Ang^3
#
#
#
# Elastic Constant Matrix: (Units=GPa)
#
#
# Indices 1 2 3 4 5 6 
#
# 1 76.0327 50.4356 33.8208 0.0000 0.0000 0.0000
# 2 50.4356 162.0750 65.4470 0.0000 0.0000 0.0000
# 3 33.8208 65.4470 123.3552 0.0000 0.0000 0.0000
# 4 0.0000 0.0000 0.0000 18.7747 0.0000 0.0000
# 5 0.0000 0.0000 0.0000 0.0000 28.4785 0.0000
# 6 0.0000 0.0000 0.0000 0.0000 0.0000 41.0460
#
#
#
# Elastic Compliance Matrix: (Units=1/GPa)
#
#
# Indices 1 2 3 4 5 6 
#
# 1 0.017103 -0.004363 -0.002374 0.000000 0.000000 0.000000
# 2 -0.004363 0.008966 -0.003560 0.000000 0.000000 0.000000
# 3 -0.002374 -0.003560 0.010647 0.000000 0.000000 0.000000
# 4 0.000000 0.000000 0.000000 0.053263 0.000000 0.000000
# 5 0.000000 0.000000 0.000000 0.000000 0.035114 0.000000
# 6 0.000000 0.000000 0.000000 0.000000 0.000000 0.024363
#
#
# Mechanical properties :
#
#
# Convention : Reuss Voigt Hill
#
# Bulk Modulus (GPa) = 62.03857 73.42996 67.73426
# Shear Modulus (GPa) = 28.50242 31.77717 30.13979
#
# Velocity S-wave (km/s) = 3.82184 4.03543 3.93008
# Velocity P-wave (km/s) = 7.16016 7.70345 7.43676
#
# Compressibility (1/GPa) = 0.01611900
#
# Stress axis : x y z
#
# Youngs Moduli (GPa) = 58.47022 111.53814 93.92702
#
# Poissons Ratio (x) = 0.48669 0.22299
# Poissons Ratio (y) = 0.25513 0.33442
# Poissons Ratio (z) = 0.13881 0.39712
#
# Static dielectric constant tensor:
#      x y z
#    x 3.321630 0.000000 0.000000 
#    y 0.000000 4.036080 0.000000 
#    z 0.000000 0.000000 3.723600 
# 
# 
# High freq. dielectric constant tensor:
#      x y z
#    x 1.731090 0.000000 0.000000 
#    y 0.000000 1.786780 0.000000 
#    z 0.000000 0.000000 1.766480 
# 
# From -- ./inp_files/58781.got.cif
#   From: 2010.06.25/outbox.cif.g09.slc.cpg/sg71_30_cif.got.tgz:58781.got - 2010.06.28 04:59:45.
