data_PCOD8291700
_publ_section_title
;
Structure prediction by ZEFSAII (Michael W. Deem and Ramdas Pophale) SiO2 
 PCOD8291700
Probable space group: I M M M
;
_chemical_formula_sum "Si O2"
_cell_formula_units_Z 96
_cell_length_a 24.291198
_cell_length_b 8.842342
_cell_length_c 23.962907
_cell_angle_alpha 90.000000
_cell_angle_beta 90.000000
_cell_angle_gamma 90.000000
_cell_volume 5147.018682
_symmetry_space_group_name_H-M "I M M M"
_symmetry_group_IT_number 71
_symmetry_cell_setting 'orthorhombic'
loop_
_space_group_symop_operation_xyz
x,y,z
-x,-y,z
x,-y,-z
-x,y,-z
-x,-y,-z
x,y,-z
-x,y,z
x,-y,z
1/2+x,1/2+y,1/2+z
1/2-x,1/2-y,1/2+z
1/2+x,1/2-y,1/2-z
1/2-x,1/2+y,1/2-z
1/2-x,1/2-y,1/2-z
1/2+x,1/2+y,1/2-z
1/2-x,1/2+y,1/2+z
1/2+x,1/2-y,1/2+z
loop_
_atom_site_type_symbol
_atom_site_label
_atom_site_fract_x
_atom_site_fract_y
_atom_site_fract_z
Si Si1 0.062715 0.678545 0.271989
Si Si2 0.846252 0.674874 0.063491
Si Si3 0.939329 0.320691 0.854260
Si Si4 0.138856 0.825827 0.636728
Si Si5 0.230058 0.321812 0.563618
Si Si6 0.439808 0.165795 0.935270
O O1 0.066588 0.500000 0.279744
O O2 0.075938 0.727615 0.208673
O O3 0.111242 0.751325 0.308867
O O4 0.000000 0.731613 0.287414
O O5 0.833332 0.500000 0.077359
O O6 0.894004 0.743095 0.102966
O O7 0.792087 0.771495 0.074754
O O8 0.866535 0.692829 0.000000
O O9 0.941022 0.500000 0.858604
O O10 0.000000 0.256683 0.869926
O O11 0.194589 0.750415 0.613729
O O12 0.095350 0.804175 0.587142
O O13 0.150471 0.000000 0.649031
O O14 0.211850 0.272580 0.500000
O O15 0.225613 0.500000 0.569051
O O16 0.500000 0.171108 0.907289
O O17 0.413098 0.000000 0.921564
O O18 0.445626 0.188000 0.000000
#
# Coordination Sequence:
#
# PCOD8291700 Si02
#       6
#    16  16  16  16  16  16
#     4   9  18  34  54  73  99 139 181 214 246 295
#     4   9  17  31  54  84 114 137 161 203 255 301
#     4   8  15  30  54  83 111 139 170 202 242 298
#     4  12  23  32  47  72  99 128 169 219 266 307
#     4  10  21  37  55  73  98 136 178 214 252 306
#     4   9  18  32  48  66  91 125 164 205 252 309
#
# _framework density 18.651572999999999
#
# number of rings (size 3 to 8) (size 9 to 14) (size 15 to 20)
#    0.000    2.500    0.000    4.500    0.000    6.333 
#    0.000    4.167    0.000    1.500    0.000    2.333 
#    0.000    0.000    0.000    0.000    0.000    0.000 
#
# Total GULP energy -594750.030864 kJ/mol
# GULP energy per Si atom -12390.625643 kJ/mol
# Density = 1.860912 g / cm^3
# Si number density = 18.651573 Si / 1000 Ang^3
#
#
#
# Elastic Constant Matrix: (Units=GPa)
#
#
# Indices 1 2 3 4 5 6 
#
# 1 123.7935 39.7747 79.9206 0.0000 0.0000 0.0000
# 2 39.7747 60.3992 33.1869 0.0000 0.0000 0.0000
# 3 79.9206 33.1869 111.9836 0.0000 0.0000 0.0000
# 4 0.0000 0.0000 0.0000 15.7200 0.0000 0.0000
# 5 0.0000 0.0000 0.0000 0.0000 41.1993 0.0000
# 6 0.0000 0.0000 0.0000 0.0000 0.0000 22.9971
#
#
#
# Elastic Compliance Matrix: (Units=1/GPa)
#
#
# Indices 1 2 3 4 5 6 
#
# 1 0.016224 -0.005163 -0.010049 0.000000 0.000000 0.000000
# 2 -0.005163 0.021420 -0.002663 0.000000 0.000000 0.000000
# 3 -0.010049 -0.002663 0.016891 0.000000 0.000000 0.000000
# 4 0.000000 0.000000 0.000000 0.063613 0.000000 0.000000
# 5 0.000000 0.000000 0.000000 0.000000 0.024272 0.000000
# 6 0.000000 0.000000 0.000000 0.000000 0.000000 0.043484
#
#
# Mechanical properties :
#
#
# Convention : Reuss Voigt Hill
#
# Bulk Modulus (GPa) = 53.23415 66.88230 60.05823
# Shear Modulus (GPa) = 21.93790 25.53622 23.73706
#
# Velocity S-wave (km/s) = 3.43329 3.70417 3.57130
# Velocity P-wave (km/s) = 6.65733 7.36418 7.01966
#
# Compressibility (1/GPa) = 0.01878493
#
# Stress axis : x y z
#
# Youngs Moduli (GPa) = 61.63577 46.68603 59.20333
#
# Poissons Ratio (x) = 0.24103 0.59493
# Poissons Ratio (y) = 0.31821 0.15768
# Poissons Ratio (z) = 0.61938 0.12434
#
# Static dielectric constant tensor:
#      x y z
#    x 3.668510 0.000000 0.000000 
#    y 0.000000 3.183580 0.000000 
#    z 0.000000 0.000000 3.549210 
# 
# 
# High freq. dielectric constant tensor:
#      x y z
#    x 1.721940 0.000000 0.000000 
#    y 0.000000 1.695640 0.000000 
#    z 0.000000 0.000000 1.722030 
# 
# From -- ./inp_files/61545.got.cif
#   From: 2010.06.25/outbox.cif.g09.slc.cpg/sg71_31_cif.got.tgz:61545.got - 2010.06.28 04:59:45.
