data_PCOD8291163
_publ_section_title
;
Structure prediction by ZEFSAII (Michael W. Deem and Ramdas Pophale) SiO2 
 PCOD8291163
Probable space group: I M M M
;
_chemical_formula_sum "Si O2"
_cell_formula_units_Z 56
_cell_length_a 17.666247
_cell_length_b 8.890351
_cell_length_c 17.296135
_cell_angle_alpha 90.000000
_cell_angle_beta 90.000000
_cell_angle_gamma 90.000000
_cell_volume 2716.516031
_symmetry_space_group_name_H-M "I M M M"
_symmetry_group_IT_number 71
_symmetry_cell_setting 'orthorhombic'
loop_
_space_group_symop_operation_xyz
x,y,z
-x,-y,z
x,-y,-z
-x,y,-z
-x,-y,-z
x,y,-z
-x,y,z
x,-y,z
1/2+x,1/2+y,1/2+z
1/2-x,1/2-y,1/2+z
1/2+x,1/2-y,1/2-z
1/2-x,1/2+y,1/2-z
1/2-x,1/2-y,1/2-z
1/2+x,1/2+y,1/2-z
1/2-x,1/2+y,1/2+z
1/2+x,1/2-y,1/2+z
loop_
_atom_site_type_symbol
_atom_site_label
_atom_site_fract_x
_atom_site_fract_y
_atom_site_fract_z
Si Si1 0.852518 0.333261 0.409680
Si Si2 0.222149 0.322406 0.829147
Si Si3 0.087207 0.174864 0.088601
Si Si4 0.000000 0.830883 0.592489
O O1 0.864325 0.349487 0.500000
O O2 0.843463 0.500000 0.372576
O O3 0.779128 0.232197 0.395528
O O4 0.926438 0.253510 0.373772
O O5 0.223722 0.500000 0.821597
O O6 0.250000 0.250000 0.750000
O O7 0.138043 0.270433 0.852438
O O8 0.000000 0.205398 0.110035
O O9 0.107330 0.000000 0.098584
O O10 0.102797 0.223984 0.000000
O O11 0.000000 0.832692 0.500000
O O12 0.000000 0.000000 0.625223
#
# Coordination Sequence:
#
# PCOD8291163 Si02
#       4
#    16  16  16   8
#     4  10  20  36  59  85 115 152 194 240 290 346
#     4  12  25  40  58  84 120 158 200 247 300 360
#     4   9  19  39  67  95 123 157 198 246 302 364
#     4   9  17  31  53  83 115 145 184 231 278 331
#
# _framework density 20.614640999999999
#
# number of rings (size 3 to 8) (size 9 to 14) (size 15 to 20)
#    0.000    1.857    0.000    5.571    0.000    8.000 
#    2.571    1.429    0.000    0.000    0.000    0.000 
#    0.000    0.000    0.000    0.000    0.000    0.000 
#
# Total GULP energy -347241.724057 kJ/mol
# GULP energy per Si atom -12401.490145 kJ/mol
# Density = 2.056772 g / cm^3
# Si number density = 20.614641 Si / 1000 Ang^3
#
#
#
# Elastic Constant Matrix: (Units=GPa)
#
#
# Indices 1 2 3 4 5 6 
#
# 1 142.3763 80.1890 39.4065 0.0000 0.0000 0.0000
# 2 80.1890 183.4250 47.2940 0.0000 0.0000 0.0000
# 3 39.4065 47.2940 54.6218 0.0000 0.0000 0.0000
# 4 0.0000 0.0000 0.0000 27.2140 0.0000 0.0000
# 5 0.0000 0.0000 0.0000 0.0000 27.3841 0.0000
# 6 0.0000 0.0000 0.0000 0.0000 0.0000 43.4664
#
#
#
# Elastic Compliance Matrix: (Units=1/GPa)
#
#
# Indices 1 2 3 4 5 6 
#
# 1 0.010096 -0.003264 -0.004457 0.000000 0.000000 0.000000
# 2 -0.003264 0.008074 -0.004636 0.000000 0.000000 0.000000
# 3 -0.004457 -0.004636 0.025537 0.000000 0.000000 0.000000
# 4 0.000000 0.000000 0.000000 0.036746 0.000000 0.000000
# 5 0.000000 0.000000 0.000000 0.000000 0.036517 0.000000
# 6 0.000000 0.000000 0.000000 0.000000 0.000000 0.023006
#
#
# Mechanical properties :
#
#
# Convention : Reuss Voigt Hill
#
# Bulk Modulus (GPa) = 52.65258 79.35579 66.00418
# Shear Modulus (GPa) = 29.23587 33.84849 31.54218
#
# Velocity S-wave (km/s) = 3.77000 4.05651 3.91588
# Velocity P-wave (km/s) = 6.67438 7.77938 7.24797
#
# Compressibility (1/GPa) = 0.01899242
#
# Stress axis : x y z
#
# Youngs Moduli (GPa) = 99.05044 123.84990 39.15844
#
# Poissons Ratio (x) = 0.40430 0.17453
# Poissons Ratio (y) = 0.32335 0.18154
# Poissons Ratio (z) = 0.44148 0.57416
#
# Static dielectric constant tensor:
#      x y z
#    x 3.962180 0.000000 0.000000 
#    y 0.000000 3.996420 0.000000 
#    z 0.000000 0.000000 3.416240 
# 
# 
# High freq. dielectric constant tensor:
#      x y z
#    x 1.820790 0.000000 0.000000 
#    y 0.000000 1.813730 0.000000 
#    z 0.000000 0.000000 1.777270 
# 
# From -- ./inp_files/5038.got.cif
#   From: 2010.06.25/outbox.cif.g09.slc.cpg/sg71_3_cif.got.tgz:5038.got - 2010.06.28 04:59:45.
