data_PCOD8291008
_publ_section_title
;
Structure prediction by ZEFSAII (Michael W. Deem and Ramdas Pophale) SiO2 
 PCOD8291008
Probable space group: I M M M
;
_chemical_formula_sum "Si O2"
_cell_formula_units_Z 104
_cell_length_a 27.269043
_cell_length_b 17.077795
_cell_length_c 11.678549
_cell_angle_alpha 90.000000
_cell_angle_beta 90.000000
_cell_angle_gamma 90.000000
_cell_volume 5438.643350
_symmetry_space_group_name_H-M "I M M M"
_symmetry_group_IT_number 71
_symmetry_cell_setting 'orthorhombic'
loop_
_space_group_symop_operation_xyz
x,y,z
-x,-y,z
x,-y,-z
-x,y,-z
-x,-y,-z
x,y,-z
-x,y,z
x,-y,z
1/2+x,1/2+y,1/2+z
1/2-x,1/2-y,1/2+z
1/2+x,1/2-y,1/2-z
1/2-x,1/2+y,1/2-z
1/2-x,1/2-y,1/2-z
1/2+x,1/2+y,1/2-z
1/2-x,1/2+y,1/2+z
1/2+x,1/2-y,1/2+z
loop_
_atom_site_type_symbol
_atom_site_label
_atom_site_fract_x
_atom_site_fract_y
_atom_site_fract_z
Si Si1 0.329378 0.592153 0.000000
Si Si2 0.603119 0.837443 0.136814
Si Si3 0.787517 0.091115 0.134885
Si Si4 0.809491 0.409812 0.243650
Si Si5 0.057278 0.087403 0.873272
Si Si6 0.717577 0.906676 0.500000
Si Si7 0.000000 0.410782 0.364584
Si Si8 0.629884 0.668144 0.777583
O O1 0.359074 0.621400 0.891633
O O2 0.329123 0.500000 0.000000
O O3 0.273779 0.624230 0.000000
O O4 0.640060 0.901652 0.187036
O O5 0.548242 0.862626 0.175461
O O6 0.622767 0.759007 0.195732
O O7 0.606833 0.831883 0.000000
O O8 0.735956 0.123663 0.183131
O O9 0.828405 0.149349 0.184704
O O10 0.797479 0.000000 0.169364
O O11 0.786890 0.100766 0.000000
O O12 0.798757 0.500000 0.227729
O O13 0.809490 0.373288 0.114402
O O14 0.078376 0.141351 0.774197
O O15 0.000000 0.084753 0.854005
O O16 0.079431 0.000000 0.862744
O O17 0.070086 0.120347 0.000000
O O18 0.716790 0.000000 0.500000
O O19 0.000000 0.500000 0.314180
O O20 0.000000 0.417402 0.500000
#
# Coordination Sequence:
#
# PCOD8291008 Si02
#       8
#     8  16  16  16  16   8   8  16
#     4  11  20  36  57  80 118 172 209 224 272 354
#     4  11  24  40  59  89 121 148 190 250 307 351
#     4  10  20  35  58  88 119 157 204 247 283 339
#     4  10  20  38  63  87 116 152 196 245 293 356
#     4   9  19  37  60  83 109 149 205 257 293 342
#     4   9  18  36  60  86 116 156 200 233 274 352
#     4   9  20  42  70  89 107 146 193 240 299 360
#     4  12  22  35  54  84 123 161 192 244 294 347
#
# _framework density 19.122416000000001
#
# number of rings (size 3 to 8) (size 9 to 14) (size 15 to 20)
#    0.000    1.769    2.308    3.231    1.077    3.385 
#    2.769    0.385    0.000    1.846    0.000    2.154 
#    0.000    0.000    0.000    0.000    0.000    0.000 
#
# Total GULP energy -644572.222375 kJ/mol
# GULP energy per Si atom -12395.619661 kJ/mol
# Density = 1.907889 g / cm^3
# Si number density = 19.122416 Si / 1000 Ang^3
#
#
#
# Elastic Constant Matrix: (Units=GPa)
#
#
# Indices 1 2 3 4 5 6 
#
# 1 116.1523 36.3157 54.8866 0.0000 0.0000 0.0000
# 2 36.3157 55.1044 32.9305 0.0000 0.0000 0.0000
# 3 54.8866 32.9305 111.6868 0.0000 0.0000 0.0000
# 4 0.0000 0.0000 0.0000 33.2274 0.0000 0.0000
# 5 0.0000 0.0000 0.0000 0.0000 35.8860 0.0000
# 6 0.0000 0.0000 0.0000 0.0000 0.0000 10.1808
#
#
#
# Elastic Compliance Matrix: (Units=1/GPa)
#
#
# Indices 1 2 3 4 5 6 
#
# 1 0.012461 -0.005526 -0.004494 0.000000 0.000000 0.000000
# 2 -0.005526 0.024480 -0.004502 0.000000 0.000000 0.000000
# 3 -0.004494 -0.004502 0.012490 0.000000 0.000000 0.000000
# 4 0.000000 0.000000 0.000000 0.030096 0.000000 0.000000
# 5 0.000000 0.000000 0.000000 0.000000 0.027866 0.000000
# 6 0.000000 0.000000 0.000000 0.000000 0.000000 0.098225
#
#
# Mechanical properties :
#
#
# Convention : Reuss Voigt Hill
#
# Bulk Modulus (GPa) = 49.05531 59.02325 54.03928
# Shear Modulus (GPa) = 20.70761 26.44620 23.57691
#
# Velocity S-wave (km/s) = 3.29431 3.72290 3.51514
# Velocity P-wave (km/s) = 6.33869 7.02944 6.69298
#
# Compressibility (1/GPa) = 0.02038515
#
# Stress axis : x y z
#
# Youngs Moduli (GPa) = 80.25047 40.84990 80.06638
#
# Poissons Ratio (x) = 0.22575 0.35984
# Poissons Ratio (y) = 0.44350 0.36045
# Poissons Ratio (z) = 0.36067 0.18390
#
# Static dielectric constant tensor:
#      x y z
#    x 3.524590 0.000000 0.000000 
#    y 0.000000 3.393920 0.000000 
#    z 0.000000 0.000000 3.719640 
# 
# 
# High freq. dielectric constant tensor:
#      x y z
#    x 1.745920 0.000000 0.000000 
#    y 0.000000 1.722840 0.000000 
#    z 0.000000 0.000000 1.749640 
# 
# From -- ./inp_files/28951.got.cif
#   From: 2010.06.25/outbox.cif.g09.slc.cpg/sg71_15_cif.got.tgz:28951.got - 2010.06.28 04:59:45.
