data_PCOD8291389
_publ_section_title
;
Structure prediction by ZEFSAII (Michael W. Deem and Ramdas Pophale) SiO2 
 PCOD8291389
Probable space group: I M M M
;
_chemical_formula_sum "Si O2"
_cell_formula_units_Z 96
_cell_length_a 30.148272
_cell_length_b 9.562255
_cell_length_c 19.037803
_cell_angle_alpha 90.000000
_cell_angle_beta 90.000000
_cell_angle_gamma 90.000000
_cell_volume 5488.321884
_symmetry_space_group_name_H-M "I M M M"
_symmetry_group_IT_number 71
_symmetry_cell_setting 'orthorhombic'
loop_
_space_group_symop_operation_xyz
x,y,z
-x,-y,z
x,-y,-z
-x,y,-z
-x,-y,-z
x,y,-z
-x,y,z
x,-y,z
1/2+x,1/2+y,1/2+z
1/2-x,1/2-y,1/2+z
1/2+x,1/2-y,1/2-z
1/2-x,1/2+y,1/2-z
1/2-x,1/2-y,1/2-z
1/2+x,1/2+y,1/2-z
1/2-x,1/2+y,1/2+z
1/2+x,1/2-y,1/2+z
loop_
_atom_site_type_symbol
_atom_site_label
_atom_site_fract_x
_atom_site_fract_y
_atom_site_fract_z
Si Si1 0.625021 0.665726 0.578255
Si Si2 0.197645 0.338152 0.685409
Si Si3 0.450888 0.333467 0.679476
Si Si4 0.701438 0.662268 0.679779
Si Si5 0.051634 0.839210 0.662581
Si Si6 0.620831 0.837421 0.080544
O O1 0.623262 0.730482 0.500000
O O2 0.620184 0.500000 0.574237
O O3 0.584566 0.728414 0.624375
O O4 0.671768 0.707358 0.613347
O O5 0.192817 0.500000 0.706017
O O6 0.247704 0.304014 0.660614
O O7 0.184845 0.248105 0.753103
O O8 0.165252 0.295574 0.622360
O O9 0.500000 0.278362 0.658881
O O10 0.450891 0.500000 0.678378
O O11 0.438458 0.285118 0.758300
O O12 0.694288 0.500000 0.698102
O O13 0.078836 0.747435 0.607984
O O14 0.000000 0.821308 0.644846
O O15 0.066150 0.000000 0.654370
O O16 0.609800 0.000000 0.089896
O O17 0.629585 0.798086 0.000000
#
# Coordination Sequence:
#
# PCOD8291389 Si02
#       6
#    16  16  16  16  16  16
#     4   9  16  24  38  64  93 119 148 181 220 267
#     4   9  18  32  49  68  90 119 155 192 230 273
#     4   8  14  25  41  62  89 119 149 183 223 265
#     4   9  17  30  49  70  91 118 154 195 232 267
#     4   9  18  33  52  71  91 119 156 195 232 271
#     4  10  21  34  47  67  96 126 153 186 233 285
#
# _framework density 17.491685
#
# number of rings (size 3 to 8) (size 9 to 14) (size 15 to 20)
#    0.000    3.000    0.000    2.000    0.000    4.000 
#    0.000    6.667    0.000    0.500    0.000    4.667 
#    0.000    0.000    0.000   14.333    0.000   11.667 
#
# Total GULP energy -595126.823314 kJ/mol
# GULP energy per Si atom -12398.475486 kJ/mol
# Density = 1.745187 g / cm^3
# Si number density = 17.491685 Si / 1000 Ang^3
#
#
#
# Elastic Constant Matrix: (Units=GPa)
#
#
# Indices 1 2 3 4 5 6 
#
# 1 106.6451 36.2520 80.1819 0.0000 0.0000 0.0000
# 2 36.2520 33.0450 43.6212 0.0000 0.0000 0.0000
# 3 80.1819 43.6212 144.0766 0.0000 0.0000 0.0000
# 4 0.0000 0.0000 0.0000 20.8172 0.0000 0.0000
# 5 0.0000 0.0000 0.0000 0.0000 23.4894 0.0000
# 6 0.0000 0.0000 0.0000 0.0000 0.0000 20.3814
#
#
#
# Elastic Compliance Matrix: (Units=1/GPa)
#
#
# Indices 1 2 3 4 5 6 
#
# 1 0.018251 -0.011018 -0.006821 0.000000 0.000000 0.000000
# 2 -0.011018 0.057059 -0.011144 0.000000 0.000000 0.000000
# 3 -0.006821 -0.011144 0.014111 0.000000 0.000000 0.000000
# 4 0.000000 0.000000 0.000000 0.048037 0.000000 0.000000
# 5 0.000000 0.000000 0.000000 0.000000 0.042572 0.000000
# 6 0.000000 0.000000 0.000000 0.000000 0.000000 0.049064
#
#
# Mechanical properties :
#
#
# Convention : Reuss Voigt Hill
#
# Bulk Modulus (GPa) = 31.79104 67.09742 49.44423
# Shear Modulus (GPa) = 16.80417 21.18505 18.99461
#
# Velocity S-wave (km/s) = 3.10287 3.48393 3.29891
# Velocity P-wave (km/s) = 5.57238 7.39098 6.54515
#
# Compressibility (1/GPa) = 0.03145541
#
# Stress axis : x y z
#
# Youngs Moduli (GPa) = 54.79254 17.52565 70.86729
#
# Poissons Ratio (x) = 0.19309 0.48340
# Poissons Ratio (y) = 0.60368 0.78974
# Poissons Ratio (z) = 0.37375 0.19530
#
# Static dielectric constant tensor:
#      x y z
#    x 3.423640 0.000000 0.000000 
#    y 0.000000 2.893210 0.000000 
#    z 0.000000 0.000000 3.375600 
# 
# 
# High freq. dielectric constant tensor:
#      x y z
#    x 1.689310 0.000000 0.000000 
#    y 0.000000 1.632810 0.000000 
#    z 0.000000 0.000000 1.673550 
# 
# From -- ./inp_files/10889.got.cif
#   From: 2010.06.25/outbox.cif.g09.slc.cpg/sg71_6_cif.got.tgz:10889.got - 2010.06.28 04:59:45.
