data_PCOD8291893
_publ_section_title
;
Structure prediction by ZEFSAII (Michael W. Deem and Ramdas Pophale) SiO2 
 PCOD8291893
Probable space group: I M M M
;
_chemical_formula_sum "Si O2"
_cell_formula_units_Z 112
_cell_length_a 13.566712
_cell_length_b 14.549014
_cell_length_c 27.664592
_cell_angle_alpha 90.000000
_cell_angle_beta 90.000000
_cell_angle_gamma 90.000000
_cell_volume 5460.500322
_symmetry_space_group_name_H-M "I M M M"
_symmetry_group_IT_number 71
_symmetry_cell_setting 'orthorhombic'
loop_
_space_group_symop_operation_xyz
x,y,z
-x,-y,z
x,-y,-z
-x,y,-z
-x,-y,-z
x,y,-z
-x,y,z
x,-y,z
1/2+x,1/2+y,1/2+z
1/2-x,1/2-y,1/2+z
1/2+x,1/2-y,1/2-z
1/2-x,1/2+y,1/2-z
1/2-x,1/2-y,1/2-z
1/2+x,1/2+y,1/2-z
1/2-x,1/2+y,1/2+z
1/2+x,1/2-y,1/2+z
loop_
_atom_site_type_symbol
_atom_site_label
_atom_site_fract_x
_atom_site_fract_y
_atom_site_fract_z
Si Si1 0.885881 0.393104 0.860685
Si Si2 0.884967 0.744506 0.945529
Si Si3 0.220255 0.890693 0.112568
Si Si4 0.779600 0.823705 0.289181
Si Si5 0.607959 0.603264 0.294000
Si Si6 0.117171 0.100982 0.445826
Si Si7 0.885123 0.258773 0.623887
O O1 0.869671 0.500000 0.872363
O O2 0.855028 0.337405 0.908885
O O3 0.816144 0.363934 0.816044
O O4 0.000000 0.373987 0.846259
O O5 0.834611 0.841349 0.931632
O O6 0.000000 0.763114 0.942837
O O7 0.853144 0.716591 0.000000
O O8 0.171044 0.851376 0.162392
O O9 0.333172 0.856281 0.113770
O O10 0.217941 0.000000 0.105943
O O11 0.750000 0.750000 0.250000
O O12 0.836296 0.900009 0.257432
O O13 0.861503 0.779457 0.323486
O O14 0.500000 0.651753 0.290258
O O15 0.591993 0.500000 0.311069
O O16 0.155885 0.116867 0.500000
O O17 0.159381 0.182360 0.412866
O O18 0.000000 0.104322 0.444445
O O19 0.151948 0.000000 0.426883
O O20 0.000000 0.275734 0.617258
#
# Coordination Sequence:
#
# PCOD8291893 Si02
#       7
#    16  16  16  16  16  16  16
#     4  10  22  41  66  98 136 172 203 245 310 386
#     4  10  21  40  67  97 128 163 206 257 313 376
#     4  11  23  42  62  86 123 165 211 266 322 374
#     4  12  22  39  60  87 125 164 205 255 301 358
#     4  10  21  38  61  87 117 156 201 250 306 366
#     4   8  16  34  60  88 118 152 189 233 292 363
#     4  11  23  39  60  90 123 161 208 259 311 367
#
# _framework density 20.510940000000002
#
# number of rings (size 3 to 8) (size 9 to 14) (size 15 to 20)
#    0.000    1.714    2.857    1.714    0.000    5.714 
#    0.000    3.571    0.000    0.000    0.000    3.000 
#    0.000    0.000    0.000    0.000    0.000    0.000 
#
# Total GULP energy -694189.372280 kJ/mol
# GULP energy per Si atom -12396.238791 kJ/mol
# Density = 2.046426 g / cm^3
# Si number density = 20.510940 Si / 1000 Ang^3
#
#
#
# Elastic Constant Matrix: (Units=GPa)
#
#
# Indices 1 2 3 4 5 6 
#
# 1 115.7356 50.2166 56.7881 0.0000 0.0000 0.0000
# 2 50.2166 124.5696 58.1717 0.0000 0.0000 0.0000
# 3 56.7881 58.1717 133.5344 0.0000 0.0000 0.0000
# 4 0.0000 0.0000 0.0000 29.0100 0.0000 0.0000
# 5 0.0000 0.0000 0.0000 0.0000 29.6379 0.0000
# 6 0.0000 0.0000 0.0000 0.0000 0.0000 32.4454
#
#
#
# Elastic Compliance Matrix: (Units=1/GPa)
#
#
# Indices 1 2 3 4 5 6 
#
# 1 0.011759 -0.003019 -0.003685 0.000000 0.000000 0.000000
# 2 -0.003019 0.010853 -0.003444 0.000000 0.000000 0.000000
# 3 -0.003685 -0.003444 0.010556 0.000000 0.000000 0.000000
# 4 0.000000 0.000000 0.000000 0.034471 0.000000 0.000000
# 5 0.000000 0.000000 0.000000 0.000000 0.033741 0.000000
# 6 0.000000 0.000000 0.000000 0.000000 0.000000 0.030821
#
#
# Mechanical properties :
#
#
# Convention : Reuss Voigt Hill
#
# Bulk Modulus (GPa) = 77.69411 78.24360 77.96886
# Shear Modulus (GPa) = 31.89027 32.12954 32.00991
#
# Velocity S-wave (km/s) = 3.94736 3.96215 3.95476
# Velocity P-wave (km/s) = 7.66402 7.69165 7.67785
#
# Compressibility (1/GPa) = 0.01287099
#
# Stress axis : x y z
#
# Youngs Moduli (GPa) = 85.04363 92.14050 94.73044
#
# Poissons Ratio (x) = 0.27819 0.34912
# Poissons Ratio (y) = 0.25676 0.32625
# Poissons Ratio (z) = 0.31342 0.31733
#
# Static dielectric constant tensor:
#      x y z
#    x 3.948820 0.000000 0.000000 
#    y 0.000000 3.702950 0.000000 
#    z 0.000000 0.000000 4.080520 
# 
# 
# High freq. dielectric constant tensor:
#      x y z
#    x 1.811650 0.000000 0.000000 
#    y 0.000000 1.795960 0.000000 
#    z 0.000000 0.000000 1.801860 
# 
# From -- ./inp_files/59927.got.cif
#   From: 2010.06.25/outbox.cif.g09.slc.cpg/sg71_30_cif.got.tgz:59927.got - 2010.06.28 04:59:45.
