data_PCOD8291176
_publ_section_title
;
Structure prediction by ZEFSAII (Michael W. Deem and Ramdas Pophale) SiO2 
 PCOD8291176
Probable space group: I M M M
;
_chemical_formula_sum "Si O2"
_cell_formula_units_Z 56
_cell_length_a 8.797929
_cell_length_b 32.252130
_cell_length_c 9.818033
_cell_angle_alpha 90.000000
_cell_angle_beta 90.000000
_cell_angle_gamma 90.000000
_cell_volume 2785.886007
_symmetry_space_group_name_H-M "I M M M"
_symmetry_group_IT_number 71
_symmetry_cell_setting 'orthorhombic'
loop_
_space_group_symop_operation_xyz
x,y,z
-x,-y,z
x,-y,-z
-x,y,-z
-x,-y,-z
x,y,-z
-x,y,z
x,-y,z
1/2+x,1/2+y,1/2+z
1/2-x,1/2-y,1/2+z
1/2+x,1/2-y,1/2-z
1/2-x,1/2+y,1/2-z
1/2-x,1/2-y,1/2-z
1/2+x,1/2+y,1/2-z
1/2-x,1/2+y,1/2+z
1/2+x,1/2-y,1/2+z
loop_
_atom_site_type_symbol
_atom_site_label
_atom_site_fract_x
_atom_site_fract_y
_atom_site_fract_z
Si Si1 0.819702 0.780874 0.500000
Si Si2 0.324855 0.926141 0.653669
Si Si3 0.179496 0.687912 0.500000
Si Si4 0.679046 0.657861 0.230753
Si Si5 0.680528 0.000000 0.155184
O O1 0.751007 0.734522 0.500000
O O2 0.762389 0.805105 0.633506
O O3 0.000000 0.779902 0.500000
O O4 0.309793 0.944025 0.500000
O O5 0.500000 0.914734 0.685056
O O6 0.221316 0.885712 0.664149
O O7 0.262677 0.959616 0.762556
O O8 0.235187 0.662133 0.628039
O O9 0.000000 0.689990 0.500000
O O10 0.500000 0.660138 0.253914
O O11 0.500000 0.000000 0.152973
O O12 0.745235 0.000000 0.000000
#
# Coordination Sequence:
#
# PCOD8291176 Si02
#       5
#     8  16   8  16   8
#     4   9  20  39  61  84 117 156 200 244 292 349
#     4  10  20  36  59  87 117 154 198 241 286 343
#     4  11  23  39  59  86 117 156 203 250 291 345
#     4  11  22  39  60  87 121 158 194 242 301 354
#     4   9  19  35  58  87 118 152 192 241 289 336
#
# _framework density 20.101324999999999
#
# number of rings (size 3 to 8) (size 9 to 14) (size 15 to 20)
#    0.000    1.857    1.429    2.571    2.000    1.714 
#    0.000    5.000    0.000    2.571    0.000    0.000 
#    0.000    0.000    0.000    0.000    0.000    0.000 
#
# Total GULP energy -347265.650649 kJ/mol
# GULP energy per Si atom -12402.344666 kJ/mol
# Density = 2.005557 g / cm^3
# Si number density = 20.101325 Si / 1000 Ang^3
#
#
#
# Elastic Constant Matrix: (Units=GPa)
#
#
# Indices 1 2 3 4 5 6 
#
# 1 49.1451 17.2097 24.5752 0.0008 0.0003 0.0002
# 2 17.2097 95.2654 38.4111 0.0022 0.0009 0.0002
# 3 24.5752 38.4111 150.1793 0.0047 0.0010 0.0009
# 4 0.0008 0.0022 0.0047 31.9497 -0.0005 -0.0001
# 5 0.0003 0.0009 0.0010 -0.0005 15.7975 0.0010
# 6 0.0002 0.0002 0.0009 -0.0001 0.0010 27.7530
#
#
#
# Elastic Compliance Matrix: (Units=1/GPa)
#
#
# Indices 1 2 3 4 5 6 
#
# 1 0.022869 -0.002924 -0.002994 0.000000 0.000000 0.000000
# 2 -0.002924 0.012078 -0.002611 0.000000 0.000000 0.000000
# 3 -0.002994 -0.002611 0.007816 -0.000001 0.000000 0.000000
# 4 0.000000 0.000000 -0.000001 0.031299 0.000001 0.000000
# 5 0.000000 0.000000 0.000000 0.000001 0.063301 -0.000002
# 6 0.000000 0.000000 0.000000 0.000000 -0.000002 0.036032
#
#
# Mechanical properties :
#
#
# Convention : Reuss Voigt Hill
#
# Bulk Modulus (GPa) = 38.90243 50.55356 44.72799
# Shear Modulus (GPa) = 25.12281 29.39298 27.25789
#
# Velocity S-wave (km/s) = 3.53910 3.82807 3.68642
# Velocity P-wave (km/s) = 6.00795 6.68901 6.35761
#
# Compressibility (1/GPa) = 0.02570534
#
# Stress axis : x y z
#
# Youngs Moduli (GPa) = 43.72695 82.79637 127.93559
#
# Poissons Ratio (x) = 0.24209 0.38309
# Poissons Ratio (y) = 0.12786 0.33399
# Poissons Ratio (z) = 0.13094 0.21615
#
# Static dielectric constant tensor:
#      x y z
#    x 3.282770 0.000000 0.000000 
#    y 0.000000 3.725220 0.000000 
#    z 0.000000 0.000000 3.858960 
# 
# 
# High freq. dielectric constant tensor:
#      x y z
#    x 1.752390 0.000000 0.000000 
#    y 0.000000 1.789850 0.000000 
#    z 0.000000 0.000000 1.801770 
# 
# From -- ./inp_files/3608.got.cif
#   From: 2010.06.25/outbox.cif.g09.slc.cpg/sg71_2_cif.got.tgz:3608.got - 2010.06.28 04:59:45.
