data_PCOD8291133
_publ_section_title
;
Structure prediction by ZEFSAII (Michael W. Deem and Ramdas Pophale) SiO2 
 PCOD8291133
Probable space group: I M M M
;
_chemical_formula_sum "Si O2"
_cell_formula_units_Z 88
_cell_length_a 10.137923
_cell_length_b 16.744055
_cell_length_c 27.025797
_cell_angle_alpha 90.000000
_cell_angle_beta 90.000000
_cell_angle_gamma 90.000000
_cell_volume 4587.627427
_symmetry_space_group_name_H-M "I M M M"
_symmetry_group_IT_number 71
_symmetry_cell_setting 'orthorhombic'
loop_
_space_group_symop_operation_xyz
x,y,z
-x,-y,z
x,-y,-z
-x,y,-z
-x,-y,-z
x,y,-z
-x,y,z
x,-y,z
1/2+x,1/2+y,1/2+z
1/2-x,1/2-y,1/2+z
1/2+x,1/2-y,1/2-z
1/2-x,1/2+y,1/2-z
1/2-x,1/2-y,1/2-z
1/2+x,1/2+y,1/2-z
1/2-x,1/2+y,1/2+z
1/2+x,1/2-y,1/2+z
loop_
_atom_site_type_symbol
_atom_site_label
_atom_site_fract_x
_atom_site_fract_y
_atom_site_fract_z
Si Si1 0.500000 0.643573 0.056013
Si Si2 0.743287 0.823583 0.711278
Si Si3 0.784256 0.712075 0.055530
Si Si4 0.646550 0.302151 0.644121
Si Si5 0.000000 0.411888 0.058179
Si Si6 0.646446 0.092036 0.799471
Si Si7 0.000000 0.907468 0.334111
O O1 0.628670 0.698110 0.060040
O O2 0.500000 0.588228 0.105319
O O3 0.500000 0.601434 0.000000
O O4 0.750000 0.750000 0.750000
O O5 0.659263 0.787801 0.666226
O O6 0.671513 0.894577 0.740877
O O7 0.878178 0.858268 0.688757
O O8 0.823557 0.790987 0.086207
O O9 0.867519 0.635104 0.074368
O O10 0.826401 0.732232 0.000000
O O11 0.500000 0.335870 0.653355
O O12 0.749011 0.363233 0.666845
O O13 0.000000 0.500000 0.083551
O O14 0.000000 0.424098 0.000000
O O15 0.500000 0.123013 0.812864
O O16 0.660840 0.000000 0.811660
O O17 0.000000 0.000000 0.316051
#
# Coordination Sequence:
#
# PCOD8291133 Si02
#       7
#     8  16  16  16   8  16   8
#     4  10  22  39  58  85 120 163 208 254 309 362
#     4  10  23  37  60  83 117 157 198 246 301 368
#     4  10  20  36  58  84 117 155 201 245 295 359
#     4  11  22  36  62  91 117 154 198 248 301 361
#     4   9  18  34  53  74 110 155 194 235 283 342
#     4  10  23  41  62  86 118 156 196 247 305 367
#     4  12  24  39  59  91 129 166 212 266 317 368
#
# _framework density 19.182029
#
# number of rings (size 3 to 8) (size 9 to 14) (size 15 to 20)
#    0.000    1.727    2.727    1.091   11.455    1.273 
#    0.000    1.818    0.000    0.545    0.000    2.545 
#    0.000    0.000    0.000    0.000    0.000    0.000 
#
# Total GULP energy -545133.877979 kJ/mol
# GULP energy per Si atom -12389.406318 kJ/mol
# Density = 1.913837 g / cm^3
# Si number density = 19.182029 Si / 1000 Ang^3
#
#
#
# Elastic Constant Matrix: (Units=GPa)
#
#
# Indices 1 2 3 4 5 6 
#
# 1 173.8951 57.3878 50.1364 0.0000 0.0000 0.0000
# 2 57.3878 70.0301 47.1359 0.0000 0.0000 0.0000
# 3 50.1364 47.1359 100.4841 0.0000 0.0000 0.0000
# 4 0.0000 0.0000 0.0000 24.0827 0.0000 0.0000
# 5 0.0000 0.0000 0.0000 0.0000 25.0145 0.0000
# 6 0.0000 0.0000 0.0000 0.0000 0.0000 26.6161
#
#
#
# Elastic Compliance Matrix: (Units=1/GPa)
#
#
# Indices 1 2 3 4 5 6 
#
# 1 0.008004 -0.005657 -0.001340 0.000000 0.000000 0.000000
# 2 -0.005657 0.024867 -0.008842 0.000000 0.000000 0.000000
# 3 -0.001340 -0.008842 0.014768 0.000000 0.000000 0.000000
# 4 0.000000 0.000000 0.000000 0.041524 0.000000 0.000000
# 5 0.000000 0.000000 0.000000 0.000000 0.039977 0.000000
# 6 0.000000 0.000000 0.000000 0.000000 0.000000 0.037571
#
#
# Mechanical properties :
#
#
# Convention : Reuss Voigt Hill
#
# Bulk Modulus (GPa) = 62.65416 72.63661 67.64539
# Shear Modulus (GPa) = 24.54484 27.79260 26.16872
#
# Velocity S-wave (km/s) = 3.58099 3.81056 3.69756
# Velocity P-wave (km/s) = 7.05917 7.57031 7.31921
#
# Compressibility (1/GPa) = 0.01596063
#
# Stress axis : x y z
#
# Youngs Moduli (GPa) = 124.94057 40.21404 67.71364
#
# Poissons Ratio (x) = 0.22750 0.09072
# Poissons Ratio (y) = 0.70680 0.59874
# Poissons Ratio (z) = 0.16740 0.35558
#
# Static dielectric constant tensor:
#      x y z
#    x 3.612050 0.000000 0.000000 
#    y 0.000000 3.297740 0.000000 
#    z 0.000000 0.000000 3.921540 
# 
# 
# High freq. dielectric constant tensor:
#      x y z
#    x 1.762660 0.000000 0.000000 
#    y 0.000000 1.712820 0.000000 
#    z 0.000000 0.000000 1.751880 
# 
# From -- ./inp_files/68091.got.cif
#   From: 2010.06.25/outbox.cif.g09.slc.cpg/sg71_35_cif.got.tgz:68091.got - 2010.06.28 04:59:45.
