data_PCOD8291447
_publ_section_title
;
Structure prediction by ZEFSAII (Michael W. Deem and Ramdas Pophale) SiO2 
 PCOD8291447
Probable space group: I M M M
;
_chemical_formula_sum "Si O2"
_cell_formula_units_Z 120
_cell_length_a 9.115271
_cell_length_b 26.291639
_cell_length_c 27.707237
_cell_angle_alpha 90.000000
_cell_angle_beta 90.000000
_cell_angle_gamma 90.000000
_cell_volume 6640.189368
_symmetry_space_group_name_H-M "I M M M"
_symmetry_group_IT_number 71
_symmetry_cell_setting 'orthorhombic'
loop_
_space_group_symop_operation_xyz
x,y,z
-x,-y,z
x,-y,-z
-x,y,-z
-x,-y,-z
x,y,-z
-x,y,z
x,-y,z
1/2+x,1/2+y,1/2+z
1/2-x,1/2-y,1/2+z
1/2+x,1/2-y,1/2-z
1/2-x,1/2+y,1/2-z
1/2-x,1/2-y,1/2-z
1/2+x,1/2+y,1/2-z
1/2-x,1/2+y,1/2+z
1/2+x,1/2-y,1/2+z
loop_
_atom_site_type_symbol
_atom_site_label
_atom_site_fract_x
_atom_site_fract_y
_atom_site_fract_z
Si Si1 0.168945 0.912084 0.387499
Si Si2 0.671354 0.797272 0.054764
Si Si3 0.327697 0.744673 0.300940
Si Si4 0.167876 0.798021 0.616966
Si Si5 0.664525 0.059380 0.702973
Si Si6 0.672115 0.000000 0.556143
Si Si7 0.170448 0.558413 0.687196
Si Si8 0.171804 0.852615 0.863228
O O1 0.192764 0.854204 0.404891
O O2 0.220593 0.913464 0.331987
O O3 0.262638 0.949090 0.420902
O O4 0.000000 0.928842 0.390453
O O5 0.500000 0.809319 0.058555
O O6 0.707637 0.740935 0.074323
O O7 0.756739 0.839246 0.085537
O O8 0.727439 0.800293 0.000000
O O9 0.500000 0.751824 0.293870
O O10 0.250000 0.750000 0.250000
O O11 0.270207 0.788588 0.336662
O O12 0.287342 0.689826 0.323411
O O13 0.000000 0.791173 0.634141
O O14 0.500000 0.080682 0.694583
O O15 0.715086 0.069566 0.757573
O O16 0.665641 0.000000 0.691029
O O17 0.500000 0.000000 0.566106
O O18 0.711067 0.000000 0.500000
O O19 0.203365 0.500000 0.674074
O O20 0.267805 0.593047 0.652874
O O21 0.000000 0.570945 0.679346
O O22 0.000000 0.856641 0.870971
#
# Coordination Sequence:
#
# PCOD8291447 Si02
#       8
#    16  16  16  16  16   8  16  16
#     4  11  22  35  55  81 108 138 176 230 284 331
#     4   9  18  36  61  82 103 138 181 222 268 326
#     4  10  21  35  51  75 109 149 187 223 268 322
#     4   9  20  36  53  79 110 138 176 225 275 328
#     4   9  18  33  52  74 104 144 184 221 261 314
#     4  11  25  43  59  75 101 141 187 233 282 339
#     4   9  19  35  55  81 111 148 189 222 258 312
#     4  10  21  35  53  81 114 145 178 222 273 321
#
# _framework density 18.071774000000001
#
# number of rings (size 3 to 8) (size 9 to 14) (size 15 to 20)
#    0.000    2.333    0.667    2.200    1.867    4.800 
#    0.000    2.667    0.000    0.400    0.000    2.800 
#    0.000    0.000    0.000    0.000    0.000    0.000 
#
# Total GULP energy -744137.823787 kJ/mol
# GULP energy per Si atom -12402.297063 kJ/mol
# Density = 1.803064 g / cm^3
# Si number density = 18.071774 Si / 1000 Ang^3
#
#
#
# Elastic Constant Matrix: (Units=GPa)
#
#
# Indices 1 2 3 4 5 6 
#
# 1 84.4908 47.2138 64.4929 0.0000 0.0000 0.0000
# 2 47.2138 92.7123 57.3665 0.0000 0.0000 0.0000
# 3 64.4929 57.3665 132.8433 0.0000 0.0000 0.0000
# 4 0.0000 0.0000 0.0000 19.7395 0.0000 0.0000
# 5 0.0000 0.0000 0.0000 0.0000 24.0721 0.0000
# 6 0.0000 0.0000 0.0000 0.0000 0.0000 26.6435
#
#
#
# Elastic Compliance Matrix: (Units=1/GPa)
#
#
# Indices 1 2 3 4 5 6 
#
# 1 0.020981 -0.005980 -0.007604 0.000000 0.000000 0.000000
# 2 -0.005980 0.016423 -0.004189 0.000000 0.000000 0.000000
# 3 -0.007604 -0.004189 0.013028 0.000000 0.000000 0.000000
# 4 0.000000 0.000000 0.000000 0.050660 0.000000 0.000000
# 5 0.000000 0.000000 0.000000 0.000000 0.041542 0.000000
# 6 0.000000 0.000000 0.000000 0.000000 0.000000 0.037533
#
#
# Mechanical properties :
#
#
# Convention : Reuss Voigt Hill
#
# Bulk Modulus (GPa) = 67.17078 72.02142 69.59610
# Shear Modulus (GPa) = 22.65783 23.48925 23.07354
#
# Velocity S-wave (km/s) = 3.54470 3.60915 3.57707
# Velocity P-wave (km/s) = 7.34866 7.57017 7.46024
#
# Compressibility (1/GPa) = 0.01488743
#
# Stress axis : x y z
#
# Youngs Moduli (GPa) = 47.66187 60.88907 76.75726
#
# Poissons Ratio (x) = 0.36411 0.58363
# Poissons Ratio (y) = 0.28501 0.32154
# Poissons Ratio (z) = 0.36240 0.25507
#
# Static dielectric constant tensor:
#      x y z
#    x 3.348160 0.000000 0.000000 
#    y 0.000000 3.301360 0.000000 
#    z 0.000000 0.000000 3.304860 
# 
# 
# High freq. dielectric constant tensor:
#      x y z
#    x 1.703700 0.000000 0.000000 
#    y 0.000000 1.696300 0.000000 
#    z 0.000000 0.000000 1.689310 
# 
# From -- ./inp_files/63810.got.cif
#   From: 2010.06.25/outbox.cif.g09.slc.cpg/sg71_32_cif.got.tgz:63810.got - 2010.06.28 04:59:45.
