data_PCOD8291554
_publ_section_title
;
Structure prediction by ZEFSAII (Michael W. Deem and Ramdas Pophale) SiO2 
 PCOD8291554
Probable space group: I M M M
;
_chemical_formula_sum "Si O2"
_cell_formula_units_Z 104
_cell_length_a 19.710933
_cell_length_b 32.352210
_cell_length_c 9.235327
_cell_angle_alpha 90.000000
_cell_angle_beta 90.000000
_cell_angle_gamma 90.000000
_cell_volume 5889.296396
_symmetry_space_group_name_H-M "I M M M"
_symmetry_group_IT_number 71
_symmetry_cell_setting 'orthorhombic'
loop_
_space_group_symop_operation_xyz
x,y,z
-x,-y,z
x,-y,-z
-x,y,-z
-x,-y,-z
x,y,-z
-x,y,z
x,-y,z
1/2+x,1/2+y,1/2+z
1/2-x,1/2-y,1/2+z
1/2+x,1/2-y,1/2-z
1/2-x,1/2+y,1/2-z
1/2-x,1/2-y,1/2-z
1/2+x,1/2+y,1/2-z
1/2-x,1/2+y,1/2+z
1/2+x,1/2-y,1/2+z
loop_
_atom_site_type_symbol
_atom_site_label
_atom_site_fract_x
_atom_site_fract_y
_atom_site_fract_z
Si Si1 0.702292 0.544929 0.171701
Si Si2 0.327309 0.365257 0.170762
Si Si3 0.921292 0.197136 0.166808
Si Si4 0.148793 0.436470 0.164403
Si Si5 0.673036 0.156689 0.335922
Si Si6 0.077538 0.500000 0.345186
Si Si7 0.077956 0.718755 0.670705
O O1 0.672000 0.500000 0.225065
O O2 0.663240 0.586551 0.221901
O O3 0.779014 0.548792 0.227708
O O4 0.703470 0.546190 0.000000
O O5 0.381145 0.340622 0.263998
O O6 0.252256 0.347702 0.206046
O O7 0.342138 0.360725 0.000000
O O8 0.903117 0.238410 0.253367
O O9 0.000000 0.186230 0.181499
O O10 0.899995 0.203120 0.000000
O O11 0.138121 0.387705 0.176646
O O12 0.092248 0.458353 0.258299
O O13 0.141343 0.451272 0.000000
O O14 0.666236 0.173706 0.500000
O O15 0.632305 0.185740 0.226665
O O16 0.116382 0.500000 0.500000
O O17 0.000000 0.500000 0.378768
O O18 0.087498 0.724154 0.500000
O O19 0.000000 0.705885 0.708067
#
# Coordination Sequence:
#
# PCOD8291554 Si02
#       7
#    16  16  16  16  16   8  16
#     4   8  13  26  52  78  99 125 160 204 248 291
#     4   9  18  32  53  82 108 132 167 210 258 307
#     4  10  21  37  56  76 101 135 172 210 253 305
#     4   9  17  32  52  69  90 126 169 208 247 296
#     4   9  19  34  53  79 106 132 168 214 261 307
#     4  11  23  33  41  61  95 131 168 213 260 299
#     4  10  21  36  54  75 100 136 178 215 257 308
#
# _framework density 17.659155999999999
#
# number of rings (size 3 to 8) (size 9 to 14) (size 15 to 20)
#    0.000    2.692    0.769    3.000    0.000    4.923 
#    0.000    5.385    0.000    0.462    0.000    3.231 
#    0.000    0.000    0.000    0.000    0.000    0.000 
#
# Total GULP energy -644409.009245 kJ/mol
# GULP energy per Si atom -12392.480947 kJ/mol
# Density = 1.761896 g / cm^3
# Si number density = 17.659156 Si / 1000 Ang^3
#
#
#
# Elastic Constant Matrix: (Units=GPa)
#
#
# Indices 1 2 3 4 5 6 
#
# 1 54.7222 52.9240 40.5189 0.0021 0.0000 0.0004
# 2 52.9240 131.7421 59.8889 0.0014 0.0009 0.0011
# 3 40.5189 59.8889 93.6839 -0.0017 -0.0012 -0.0007
# 4 0.0021 0.0014 -0.0017 23.2957 0.0019 0.0012
# 5 0.0000 0.0009 -0.0012 0.0019 27.7607 -0.0009
# 6 0.0004 0.0011 -0.0007 0.0012 -0.0009 29.5103
#
#
#
# Elastic Compliance Matrix: (Units=1/GPa)
#
#
# Indices 1 2 3 4 5 6 
#
# 1 0.034031 -0.009840 -0.008429 -0.000003 0.000000 0.000000
# 2 -0.009840 0.013545 -0.004403 0.000000 -0.000001 0.000000
# 3 -0.008429 -0.004403 0.017134 0.000002 0.000001 0.000001
# 4 -0.000003 0.000000 0.000002 0.042926 -0.000003 -0.000002
# 5 0.000000 -0.000001 0.000001 -0.000003 0.036022 0.000001
# 6 0.000000 0.000000 0.000001 -0.000002 0.000001 0.033887
#
#
# Mechanical properties :
#
#
# Convention : Reuss Voigt Hill
#
# Bulk Modulus (GPa) = 51.63174 65.20131 58.41653
# Shear Modulus (GPa) = 21.80125 24.56778 23.18452
#
# Velocity S-wave (km/s) = 3.51744 3.73395 3.62731
# Velocity P-wave (km/s) = 6.76742 7.45601 7.12004
#
# Compressibility (1/GPa) = 0.01936793
#
# Stress axis : x y z
#
# Youngs Moduli (GPa) = 29.38466 73.82781 58.36199
#
# Poissons Ratio (x) = 0.72644 0.49191
# Poissons Ratio (y) = 0.28913 0.25698
# Poissons Ratio (z) = 0.24767 0.32508
#
# Static dielectric constant tensor:
#      x y z
#    x 3.044550 0.000000 0.000000 
#    y 0.000000 3.480770 0.000000 
#    z 0.000000 0.000000 3.156940 
# 
# 
# High freq. dielectric constant tensor:
#      x y z
#    x 1.656990 0.000000 0.000000 
#    y 0.000000 1.694410 0.000000 
#    z 0.000000 0.000000 1.671800 
# 
# From -- ./inp_files/11546.got.cif
#   From: 2010.06.25/outbox.cif.g09.slc.cpg/sg71_6_cif.got.tgz:11546.got - 2010.06.28 04:59:45.
