data_PCOD8291990
_publ_section_title
;
Structure prediction by ZEFSAII (Michael W. Deem and Ramdas Pophale) SiO2 
 PCOD8291990
Probable space group: I M M M
;
_chemical_formula_sum "Si O2"
_cell_formula_units_Z 96
_cell_length_a 14.031358
_cell_length_b 32.747098
_cell_length_c 11.057514
_cell_angle_alpha 90.000000
_cell_angle_beta 90.000000
_cell_angle_gamma 90.000000
_cell_volume 5080.775703
_symmetry_space_group_name_H-M "I M M M"
_symmetry_group_IT_number 71
_symmetry_cell_setting 'orthorhombic'
loop_
_space_group_symop_operation_xyz
x,y,z
-x,-y,z
x,-y,-z
-x,y,-z
-x,-y,-z
x,y,-z
-x,y,z
x,-y,z
1/2+x,1/2+y,1/2+z
1/2-x,1/2-y,1/2+z
1/2+x,1/2-y,1/2-z
1/2-x,1/2+y,1/2-z
1/2-x,1/2-y,1/2-z
1/2+x,1/2+y,1/2-z
1/2-x,1/2+y,1/2+z
1/2+x,1/2-y,1/2+z
loop_
_atom_site_type_symbol
_atom_site_label
_atom_site_fract_x
_atom_site_fract_y
_atom_site_fract_z
Si Si1 0.103151 0.044233 0.140430
Si Si2 0.607830 0.608453 0.000000
Si Si3 0.113577 0.244320 0.738354
Si Si4 0.732909 0.397443 0.234620
Si Si5 0.758464 0.689976 0.643194
Si Si6 0.609232 0.046019 0.641850
Si Si7 0.395126 0.703942 0.000000
O O1 0.183007 0.077718 0.159902
O O2 0.000000 0.058403 0.193242
O O3 0.130709 0.000000 0.198094
O O4 0.092785 0.038375 0.000000
O O5 0.666399 0.595737 0.882183
O O6 0.500000 0.589716 0.000000
O O7 0.599675 0.656334 0.000000
O O8 0.150268 0.290251 0.712984
O O9 0.166966 0.220627 0.847468
O O10 0.153785 0.219834 0.621312
O O11 0.000000 0.243377 0.761440
O O12 0.741648 0.351592 0.282842
O O13 0.834715 0.418250 0.210992
O O14 0.778328 0.682220 0.500000
O O15 0.621879 0.052916 0.500000
O O16 0.500000 0.051143 0.680564
O O17 0.644100 0.000000 0.676113
O O18 0.500000 0.723863 0.000000
#
# Coordination Sequence:
#
# PCOD8291990 Si02
#       7
#    16   8  16  16  16  16   8
#     4   9  19  36  56  79 111 151 189 225 275 343
#     4  11  22  34  52  84 115 146 183 227 284 342
#     4  10  21  40  61  79 110 151 189 229 278 334
#     4  12  21  35  57  85 116 148 185 236 287 341
#     4  11  24  37  57  87 116 145 189 235 280 337
#     4   9  19  37  59  82 111 150 195 238 284 337
#     4   9  16  34  60  76 100 149 187 214 268 334
#
# _framework density 18.894752
#
# number of rings (size 3 to 8) (size 9 to 14) (size 15 to 20)
#    0.000    1.833    3.333    2.500    0.000    1.667 
#    0.000    0.000    0.000    3.500    0.000    5.833 
#    0.000    0.000    0.000    0.000    0.000    0.000 
#
# Total GULP energy -594712.871812 kJ/mol
# GULP energy per Si atom -12389.851496 kJ/mol
# Density = 1.885175 g / cm^3
# Si number density = 18.894752 Si / 1000 Ang^3
#
#
#
# Elastic Constant Matrix: (Units=GPa)
#
#
# Indices 1 2 3 4 5 6 
#
# 1 113.7577 54.2305 25.0244 0.0015 0.0000 0.0001
# 2 54.2305 102.7019 25.9217 0.0002 0.0003 -0.0010
# 3 25.0244 25.9217 56.2943 0.0078 -0.0038 -0.0117
# 4 0.0015 0.0002 0.0078 19.1878 -0.0024 -0.0060
# 5 0.0000 0.0003 -0.0038 -0.0024 25.3796 0.0013
# 6 0.0001 -0.0010 -0.0117 -0.0060 0.0013 19.8461
#
#
#
# Elastic Compliance Matrix: (Units=1/GPa)
#
#
# Indices 1 2 3 4 5 6 
#
# 1 0.012116 -0.005701 -0.002761 0.000000 0.000000 -0.000002
# 2 -0.005701 0.013700 -0.003774 0.000002 -0.000001 -0.000002
# 3 -0.002761 -0.003774 0.020729 -0.000008 0.000003 0.000012
# 4 0.000000 0.000002 -0.000008 0.052117 0.000005 0.000016
# 5 0.000000 -0.000001 0.000003 0.000005 0.039402 -0.000002
# 6 -0.000002 -0.000002 0.000012 0.000016 -0.000002 0.050388
#
#
# Mechanical properties :
#
#
# Convention : Reuss Voigt Hill
#
# Bulk Modulus (GPa) = 45.30420 53.67858 49.49139
# Shear Modulus (GPa) = 22.69851 24.05452 23.37652
#
# Velocity S-wave (km/s) = 3.46976 3.57189 3.52120
# Velocity P-wave (km/s) = 6.33099 6.74405 6.54078
#
# Compressibility (1/GPa) = 0.02207301
#
# Stress axis : x y z
#
# Youngs Moduli (GPa) = 82.53869 72.99442 48.24185
#
# Poissons Ratio (x) = 0.41612 0.13318
# Poissons Ratio (y) = 0.47053 0.18207
# Poissons Ratio (z) = 0.22787 0.27549
#
# Static dielectric constant tensor:
#      x y z
#    x 3.578070 0.000000 0.000010 
#    y 0.000000 3.426000 -0.000010 
#    z 0.000010 -0.000010 3.389550 
# 
# 
# High freq. dielectric constant tensor:
#      x y z
#    x 1.731890 0.000000 0.000000 
#    y 0.000000 1.736780 0.000000 
#    z 0.000000 0.000000 1.722650 
# 
# From -- ./inp_files/22638.got.cif
#   From: 2010.06.25/outbox.cif.g09.slc.cpg/sg71_12_cif.got.tgz:22638.got - 2010.06.28 04:59:45.
