data_PCOD8291528
_publ_section_title
;
Structure prediction by ZEFSAII (Michael W. Deem and Ramdas Pophale) SiO2 
 PCOD8291528
Probable space group: I M M M
;
_chemical_formula_sum "Si O2"
_cell_formula_units_Z 104
_cell_length_a 27.009950
_cell_length_b 21.375634
_cell_length_c 9.307178
_cell_angle_alpha 90.000000
_cell_angle_beta 90.000000
_cell_angle_gamma 90.000000
_cell_volume 5373.543944
_symmetry_space_group_name_H-M "I M M M"
_symmetry_group_IT_number 71
_symmetry_cell_setting 'orthorhombic'
loop_
_space_group_symop_operation_xyz
x,y,z
-x,-y,z
x,-y,-z
-x,y,-z
-x,-y,-z
x,y,-z
-x,y,z
x,-y,z
1/2+x,1/2+y,1/2+z
1/2-x,1/2-y,1/2+z
1/2+x,1/2-y,1/2-z
1/2-x,1/2+y,1/2-z
1/2-x,1/2-y,1/2-z
1/2+x,1/2+y,1/2-z
1/2-x,1/2+y,1/2+z
1/2+x,1/2-y,1/2+z
loop_
_atom_site_type_symbol
_atom_site_label
_atom_site_fract_x
_atom_site_fract_y
_atom_site_fract_z
Si Si1 0.724166 0.307501 0.829899
Si Si2 0.942327 0.500000 0.659304
Si Si3 0.056929 0.290929 0.663697
Si Si4 0.386143 0.667317 0.161855
Si Si5 0.444949 0.572367 0.664205
Si Si6 0.108313 0.393781 0.170360
Si Si7 0.281365 0.069974 0.330276
O O1 0.750000 0.250000 0.750000
O O2 0.666538 0.305346 0.786784
O O3 0.745125 0.374943 0.775120
O O4 0.733227 0.299221 0.000000
O O5 0.917280 0.500000 0.500000
O O6 0.928848 0.439667 0.750490
O O7 0.000000 0.500000 0.636754
O O8 0.064627 0.315135 0.500000
O O9 0.070919 0.218505 0.674791
O O10 0.093810 0.325434 0.773024
O O11 0.000000 0.299296 0.711186
O O12 0.401859 0.608175 0.254019
O O13 0.380017 0.643139 0.000000
O O14 0.443783 0.593889 0.500000
O O15 0.500000 0.585903 0.727335
O O16 0.432120 0.500000 0.679291
O O17 0.163551 0.411239 0.217977
O O18 0.101228 0.397885 0.000000
O O19 0.278465 0.066286 0.500000
O O20 0.268340 0.000000 0.268268
#
# Coordination Sequence:
#
# PCOD8291528 Si02
#       7
#    16   8  16  16  16  16  16
#     4  10  21  37  59  84 112 147 187 235 287 340
#     4  11  23  37  53  75 107 143 175 215 274 329
#     4  10  21  36  52  74 111 151 181 220 277 332
#     4  10  21  36  56  84 113 146 189 234 281 335
#     4   9  19  36  57  82 114 151 187 227 282 344
#     4  11  21  35  56  80 105 138 185 231 267 315
#     4   9  18  35  57  80 108 143 181 224 279 330
#
# _framework density 19.35408
#
# number of rings (size 3 to 8) (size 9 to 14) (size 15 to 20)
#    0.000    2.077    0.769    3.000    0.000    5.846 
#    0.000    3.077    0.000    0.000    0.000    0.000 
#    0.000    0.000    0.000    0.000    0.000    0.000 
#
# Total GULP energy -644723.546617 kJ/mol
# GULP energy per Si atom -12398.529743 kJ/mol
# Density = 1.931003 g / cm^3
# Si number density = 19.354080 Si / 1000 Ang^3
#
#
#
# Elastic Constant Matrix: (Units=GPa)
#
#
# Indices 1 2 3 4 5 6 
#
# 1 89.6413 53.3548 37.5268 0.0000 0.0000 0.0000
# 2 53.3548 106.8945 40.7509 0.0000 0.0000 0.0000
# 3 37.5268 40.7509 68.8668 0.0000 0.0000 0.0000
# 4 0.0000 0.0000 0.0000 24.7835 0.0000 0.0000
# 5 0.0000 0.0000 0.0000 0.0000 24.4474 0.0000
# 6 0.0000 0.0000 0.0000 0.0000 0.0000 36.7654
#
#
#
# Elastic Compliance Matrix: (Units=1/GPa)
#
#
# Indices 1 2 3 4 5 6 
#
# 1 0.017400 -0.006547 -0.005607 0.000000 0.000000 0.000000
# 2 -0.006547 0.014544 -0.005038 0.000000 0.000000 0.000000
# 3 -0.005607 -0.005038 0.020558 0.000000 0.000000 0.000000
# 4 0.000000 0.000000 0.000000 0.040349 0.000000 0.000000
# 5 0.000000 0.000000 0.000000 0.000000 0.040904 0.000000
# 6 0.000000 0.000000 0.000000 0.000000 0.000000 0.027199
#
#
# Mechanical properties :
#
#
# Convention : Reuss Voigt Hill
#
# Bulk Modulus (GPa) = 55.20118 58.74085 56.97102
# Shear Modulus (GPa) = 24.82885 26.11726 25.47305
#
# Velocity S-wave (km/s) = 3.58561 3.67746 3.63183
# Velocity P-wave (km/s) = 6.76208 6.96047 6.86199
#
# Compressibility (1/GPa) = 0.01811555
#
# Stress axis : x y z
#
# Youngs Moduli (GPa) = 57.47145 68.75814 48.64370
#
# Poissons Ratio (x) = 0.45018 0.27276
# Poissons Ratio (y) = 0.37628 0.24508
# Poissons Ratio (z) = 0.32226 0.34642
#
# Static dielectric constant tensor:
#      x y z
#    x 3.595070 0.000000 0.000000 
#    y 0.000000 3.989210 0.000000 
#    z 0.000000 0.000000 3.394110 
# 
# 
# High freq. dielectric constant tensor:
#      x y z
#    x 1.756260 0.000000 0.000000 
#    y 0.000000 1.762110 0.000000 
#    z 0.000000 0.000000 1.733330 
# 
# From -- ./inp_files/15050.got.cif
#   From: 2010.06.25/outbox.cif.g09.slc.cpg/sg71_8_cif.got.tgz:15050.got - 2010.06.28 04:59:45.
