data_PCOD8291090
_publ_section_title
;
Structure prediction by ZEFSAII (Michael W. Deem and Ramdas Pophale) SiO2 
 PCOD8291090
Probable space group: I M M M
;
_chemical_formula_sum "Si O2"
_cell_formula_units_Z 104
_cell_length_a 26.351928
_cell_length_b 8.720568
_cell_length_c 23.648525
_cell_angle_alpha 90.000000
_cell_angle_beta 90.000000
_cell_angle_gamma 90.000000
_cell_volume 5434.520438
_symmetry_space_group_name_H-M "I M M M"
_symmetry_group_IT_number 71
_symmetry_cell_setting 'orthorhombic'
loop_
_space_group_symop_operation_xyz
x,y,z
-x,-y,z
x,-y,-z
-x,y,-z
-x,-y,-z
x,y,-z
-x,y,z
x,-y,z
1/2+x,1/2+y,1/2+z
1/2-x,1/2-y,1/2+z
1/2+x,1/2-y,1/2-z
1/2-x,1/2+y,1/2-z
1/2-x,1/2-y,1/2-z
1/2+x,1/2+y,1/2-z
1/2-x,1/2+y,1/2+z
1/2+x,1/2-y,1/2+z
loop_
_atom_site_type_symbol
_atom_site_label
_atom_site_fract_x
_atom_site_fract_y
_atom_site_fract_z
Si Si1 0.173996 0.321078 0.650751
Si Si2 0.500000 0.172585 0.067253
Si Si3 0.057010 0.180114 0.152013
Si Si4 0.370521 0.180690 0.563953
Si Si5 0.144224 0.820097 0.764298
Si Si6 0.897317 0.824674 0.566780
Si Si7 0.216771 0.320243 0.851311
O O1 0.169693 0.500000 0.663309
O O2 0.143927 0.227974 0.699132
O O3 0.147423 0.278198 0.592010
O O4 0.232187 0.275129 0.644828
O O5 0.450945 0.262379 0.089817
O O6 0.500000 0.000000 0.091561
O O7 0.500000 0.169987 0.000000
O O8 0.080800 0.249929 0.095224
O O9 0.090482 0.224385 0.206966
O O10 0.000000 0.244763 0.160690
O O11 0.055873 0.000000 0.143407
O O12 0.367963 0.244446 0.500000
O O13 0.318679 0.227606 0.595855
O O14 0.377083 0.000000 0.564584
O O15 0.189126 0.724270 0.793321
O O16 0.155448 0.000000 0.770778
O O17 0.893646 0.807897 0.500000
O O18 0.891230 0.000000 0.586137
O O19 0.229412 0.500000 0.851066
#
# Coordination Sequence:
#
# PCOD8291090 Si02
#       7
#    16   8  16  16  16  16  16
#     4  12  24  37  55  82 113 143 182 229 280 334
#     4   9  17  33  57  81 107 139 173 213 262 313
#     4   9  19  36  57  81 110 145 184 229 278 325
#     4   9  19  35  55  81 112 147 186 226 271 327
#     4  10  20  37  58  79 107 143 186 230 279 335
#     4  10  21  38  59  82 109 144 184 223 268 324
#     4  10  20  36  57  79 108 145 186 230 279 331
#
# _framework density 19.136922999999999
#
# number of rings (size 3 to 8) (size 9 to 14) (size 15 to 20)
#    0.000    2.077    0.000    3.462    0.000    4.615 
#    1.385    3.077    0.000    0.000    0.000    0.000 
#    0.000    0.000    0.000    0.000    0.000    0.000 
#
# Total GULP energy -644955.807470 kJ/mol
# GULP energy per Si atom -12402.996298 kJ/mol
# Density = 1.909337 g / cm^3
# Si number density = 19.136923 Si / 1000 Ang^3
#
#
#
# Elastic Constant Matrix: (Units=GPa)
#
#
# Indices 1 2 3 4 5 6 
#
# 1 128.9146 38.4387 58.8952 0.0000 0.0000 0.0000
# 2 38.4387 61.0110 30.2283 0.0000 0.0000 0.0000
# 3 58.8952 30.2283 72.6804 0.0000 0.0000 0.0000
# 4 0.0000 0.0000 0.0000 29.7779 0.0000 0.0000
# 5 0.0000 0.0000 0.0000 0.0000 17.4185 0.0000
# 6 0.0000 0.0000 0.0000 0.0000 0.0000 33.4328
#
#
#
# Elastic Compliance Matrix: (Units=1/GPa)
#
#
# Indices 1 2 3 4 5 6 
#
# 1 0.012957 -0.003730 -0.008948 0.000000 0.000000 0.000000
# 2 -0.003730 0.021718 -0.006010 0.000000 0.000000 0.000000
# 3 -0.008948 -0.006010 0.023510 0.000000 0.000000 0.000000
# 4 0.000000 0.000000 0.000000 0.033582 0.000000 0.000000
# 5 0.000000 0.000000 0.000000 0.000000 0.057410 0.000000
# 6 0.000000 0.000000 0.000000 0.000000 0.000000 0.029911
#
#
# Mechanical properties :
#
#
# Convention : Reuss Voigt Hill
#
# Bulk Modulus (GPa) = 48.05828 57.52561 52.79195
# Shear Modulus (GPa) = 22.38120 25.12875 23.75497
#
# Velocity S-wave (km/s) = 3.42355 3.62761 3.52705
# Velocity P-wave (km/s) = 6.38709 6.90444 6.65080
#
# Compressibility (1/GPa) = 0.02080807
#
# Stress axis : x y z
#
# Youngs Moduli (GPa) = 77.17605 46.04403 42.53546
#
# Poissons Ratio (x) = 0.17174 0.38063
# Poissons Ratio (y) = 0.28786 0.25565
# Poissons Ratio (z) = 0.69061 0.27674
#
# Static dielectric constant tensor:
#      x y z
#    x 3.660250 0.000000 0.000000 
#    y 0.000000 3.522520 0.000000 
#    z 0.000000 0.000000 3.492950 
# 
# 
# High freq. dielectric constant tensor:
#      x y z
#    x 1.749290 0.000000 0.000000 
#    y 0.000000 1.750300 0.000000 
#    z 0.000000 0.000000 1.735330 
# 
# From -- ./inp_files/56246.got.cif
#   From: 2010.06.25/outbox.cif.g09.slc.cpg/sg71_29_cif.got.tgz:56246.got - 2010.06.28 04:59:45.
