data_PCOD8291094
_publ_section_title
;
Structure prediction by ZEFSAII (Michael W. Deem and Ramdas Pophale) SiO2 
 PCOD8291094
Probable space group: I M M M
;
_chemical_formula_sum "Si O2"
_cell_formula_units_Z 72
_cell_length_a 8.812883
_cell_length_b 27.350822
_cell_length_c 16.144200
_cell_angle_alpha 90.000000
_cell_angle_beta 90.000000
_cell_angle_gamma 90.000000
_cell_volume 3891.391417
_symmetry_space_group_name_H-M "I M M M"
_symmetry_group_IT_number 71
_symmetry_cell_setting 'orthorhombic'
loop_
_space_group_symop_operation_xyz
x,y,z
-x,-y,z
x,-y,-z
-x,y,-z
-x,-y,-z
x,y,-z
-x,y,z
x,-y,z
1/2+x,1/2+y,1/2+z
1/2-x,1/2-y,1/2+z
1/2+x,1/2-y,1/2-z
1/2-x,1/2+y,1/2-z
1/2-x,1/2-y,1/2-z
1/2+x,1/2+y,1/2-z
1/2-x,1/2+y,1/2+z
1/2+x,1/2-y,1/2+z
loop_
_atom_site_type_symbol
_atom_site_label
_atom_site_fract_x
_atom_site_fract_y
_atom_site_fract_z
Si Si1 0.676181 0.362021 0.908655
Si Si2 0.678323 0.054001 0.677514
Si Si3 0.819925 0.196838 0.750357
Si Si4 0.319703 0.442832 0.500000
Si Si5 0.320112 0.889699 0.842122
O O1 0.500000 0.372289 0.898784
O O2 0.758168 0.413847 0.897397
O O3 0.730609 0.324242 0.838943
O O4 0.715937 0.341154 0.000000
O O5 0.500000 0.052100 0.669107
O O6 0.726359 0.076334 0.765452
O O7 0.749098 0.000000 0.671304
O O8 0.750000 0.250000 0.750000
O O9 0.748709 0.164265 0.824546
O O10 0.000000 0.198953 0.761934
O O11 0.268788 0.500000 0.500000
O O12 0.500000 0.438704 0.500000
O O13 0.253768 0.414728 0.578699
O O14 0.500000 0.885106 0.854795
#
# Coordination Sequence:
#
# PCOD8291094 Si02
#       5
#    16  16  16   8  16
#     4   9  19  35  53  75 103 136 174 216 260 313
#     4   9  18  32  51  76 106 140 177 216 260 312
#     4  10  20  37  59  80 107 141 181 229 280 333
#     4  11  23  37  55  83 119 153 187 233 286 339
#     4  10  20  36  57  80 108 145 188 230 275 331
#
# _framework density 18.502381
#
# number of rings (size 3 to 8) (size 9 to 14) (size 15 to 20)
#    0.000    2.333    0.000    2.333    0.000    4.889 
#    2.000    2.222    0.000    0.000    0.000    0.000 
#    0.000    0.000    0.000    0.000    0.000    0.000 
#
# Total GULP energy -446356.429251 kJ/mol
# GULP energy per Si atom -12398.789701 kJ/mol
# Density = 1.846027 g / cm^3
# Si number density = 18.502381 Si / 1000 Ang^3
#
#
#
# Elastic Constant Matrix: (Units=GPa)
#
#
# Indices 1 2 3 4 5 6 
#
# 1 61.3311 49.0372 40.6750 0.0000 0.0000 0.0000
# 2 49.0372 166.2121 63.0503 0.0000 0.0000 0.0000
# 3 40.6750 63.0503 114.8728 0.0003 -0.0001 0.0000
# 4 0.0000 0.0000 0.0003 20.9899 0.0000 0.0000
# 5 0.0000 0.0000 -0.0001 0.0000 30.1979 0.0000
# 6 0.0000 0.0000 0.0000 0.0000 0.0000 32.8798
#
#
#
# Elastic Compliance Matrix: (Units=1/GPa)
#
#
# Indices 1 2 3 4 5 6 
#
# 1 0.024092 -0.004890 -0.005847 0.000000 0.000000 0.000000
# 2 -0.004890 0.008591 -0.002984 0.000000 0.000000 0.000000
# 3 -0.005847 -0.002984 0.012413 0.000000 0.000000 0.000000
# 4 0.000000 0.000000 0.000000 0.047642 0.000000 0.000000
# 5 0.000000 0.000000 0.000000 0.000000 0.033115 0.000000
# 6 0.000000 0.000000 0.000000 0.000000 0.000000 0.030414
#
#
# Mechanical properties :
#
#
# Convention : Reuss Voigt Hill
#
# Bulk Modulus (GPa) = 56.64016 71.99344 64.31680
# Shear Modulus (GPa) = 26.37216 29.45707 27.91462
#
# Velocity S-wave (km/s) = 3.77946 3.99440 3.88842
# Velocity P-wave (km/s) = 7.05157 7.76328 7.41597
#
# Compressibility (1/GPa) = 0.01765532
#
# Stress axis : x y z
#
# Youngs Moduli (GPa) = 41.50687 116.40106 80.55871
#
# Poissons Ratio (x) = 0.56920 0.47101
# Poissons Ratio (y) = 0.20297 0.24037
# Poissons Ratio (z) = 0.24268 0.34732
#
# Static dielectric constant tensor:
#      x y z
#    x 3.428220 0.000000 0.000000 
#    y 0.000000 3.917700 0.000000 
#    z 0.000000 0.000000 3.561490 
# 
# 
# High freq. dielectric constant tensor:
#      x y z
#    x 1.722220 0.000000 0.000000 
#    y 0.000000 1.719680 0.000000 
#    z 0.000000 0.000000 1.717550 
# 
# From -- ./inp_files/5999.got.cif
#   From: 2010.06.25/outbox.cif.g09.slc.cpg/sg71_3_cif.got.tgz:5999.got - 2010.06.28 04:59:45.
