data_PCOD8291956
_publ_section_title
;
Structure prediction by ZEFSAII (Michael W. Deem and Ramdas Pophale) SiO2 
 PCOD8291956
Probable space group: I M M M
;
_chemical_formula_sum "Si O2"
_cell_formula_units_Z 64
_cell_length_a 15.297669
_cell_length_b 23.986130
_cell_length_c 8.856986
_cell_angle_alpha 90.000000
_cell_angle_beta 90.000000
_cell_angle_gamma 90.000000
_cell_volume 3249.910500
_symmetry_space_group_name_H-M "I M M M"
_symmetry_group_IT_number 71
_symmetry_cell_setting 'orthorhombic'
loop_
_space_group_symop_operation_xyz
x,y,z
-x,-y,z
x,-y,-z
-x,y,-z
-x,-y,-z
x,y,-z
-x,y,z
x,-y,z
1/2+x,1/2+y,1/2+z
1/2-x,1/2-y,1/2+z
1/2+x,1/2-y,1/2-z
1/2-x,1/2+y,1/2-z
1/2-x,1/2-y,1/2-z
1/2+x,1/2+y,1/2-z
1/2-x,1/2+y,1/2+z
1/2+x,1/2-y,1/2+z
loop_
_atom_site_type_symbol
_atom_site_label
_atom_site_fract_x
_atom_site_fract_y
_atom_site_fract_z
Si Si1 0.500000 0.312244 0.178931
Si Si2 0.603647 0.000000 0.173303
Si Si3 0.500000 0.186790 0.820541
Si Si4 0.647675 0.114526 0.325974
Si Si5 0.901372 0.000000 0.821903
Si Si6 0.155509 0.110714 0.326427
O O1 0.500000 0.249675 0.243809
O O2 0.586377 0.344281 0.237699
O O3 0.500000 0.308811 0.000000
O O4 0.641408 0.053383 0.256848
O O5 0.500000 0.000000 0.183398
O O6 0.635277 0.000000 0.000000
O O7 0.413074 0.157073 0.762888
O O8 0.500000 0.184096 0.000000
O O9 0.618345 0.112210 0.500000
O O10 0.747306 0.135768 0.309110
O O11 0.850276 0.054028 0.766373
O O12 0.000000 0.000000 0.757001
O O13 0.901842 0.000000 0.000000
O O14 0.134103 0.096770 0.500000
#
# Coordination Sequence:
#
# PCOD8291956 Si02
#       6
#     8   8   8  16   8  16
#     4   9  20  40  63  84 112 152 201 241 276 341
#     4  11  22  37  60  87 116 154 192 229 286 351
#     4  11  23  40  61  84 113 156 198 237 290 345
#     4  11  23  38  60  90 119 149 191 243 291 339
#     4  11  22  35  56  91 127 153 184 235 293 342
#     4  10  21  39  63  87 114 155 198 235 284 344
#
# _framework density 19.69285
#
# number of rings (size 3 to 8) (size 9 to 14) (size 15 to 20)
#    0.000    1.500    2.500    2.625    0.000    7.000 
#    0.000    2.500    0.000    0.000    0.000    0.000 
#    0.000    0.000    0.000    0.000    0.000    0.000 
#
# Total GULP energy -396930.414648 kJ/mol
# GULP energy per Si atom -12404.075458 kJ/mol
# Density = 1.964803 g / cm^3
# Si number density = 19.692850 Si / 1000 Ang^3
#
#
#
# Elastic Constant Matrix: (Units=GPa)
#
#
# Indices 1 2 3 4 5 6 
#
# 1 134.4282 64.6138 42.8782 -0.0001 0.0000 0.0000
# 2 64.6138 163.4547 44.7013 -0.0003 0.0001 0.0000
# 3 42.8782 44.7013 89.8815 -0.0027 0.0007 0.0003
# 4 -0.0001 -0.0003 -0.0027 39.8206 0.0001 0.0001
# 5 0.0000 0.0001 0.0007 0.0001 26.3829 0.0000
# 6 0.0000 0.0000 0.0003 0.0001 0.0000 4.4419
#
#
#
# Elastic Compliance Matrix: (Units=1/GPa)
#
#
# Indices 1 2 3 4 5 6 
#
# 1 0.009930 -0.003044 -0.003223 0.000000 0.000000 0.000000
# 2 -0.003044 0.008014 -0.002534 0.000000 0.000000 0.000000
# 3 -0.003223 -0.002534 0.013924 0.000001 0.000000 -0.000001
# 4 0.000000 0.000000 0.000001 0.025113 0.000000 0.000000
# 5 0.000000 0.000000 0.000000 0.000000 0.037903 0.000000
# 6 0.000000 0.000000 -0.000001 0.000000 0.000000 0.225131
#
#
# Mechanical properties :
#
#
# Convention : Reuss Voigt Hill
#
# Bulk Modulus (GPa) = 70.09654 76.90566 73.50110
# Shear Modulus (GPa) = 14.60402 29.83381 22.21892
#
# Velocity S-wave (km/s) = 2.72617 3.89647 3.36262
# Velocity P-wave (km/s) = 6.75141 7.70588 7.24438
#
# Compressibility (1/GPa) = 0.01426604
#
# Stress axis : x y z
#
# Youngs Moduli (GPa) = 100.70375 124.78129 71.82101
#
# Poissons Ratio (x) = 0.37982 0.23150
# Poissons Ratio (y) = 0.30653 0.18196
# Poissons Ratio (z) = 0.32460 0.31614
#
# Static dielectric constant tensor:
#      x y z
#    x 3.821990 0.000000 0.000000 
#    y 0.000000 3.651090 0.000000 
#    z 0.000000 0.000000 3.543320 
# 
# 
# High freq. dielectric constant tensor:
#      x y z
#    x 1.785960 0.000000 0.000000 
#    y 0.000000 1.761460 0.000000 
#    z 0.000000 0.000000 1.761790 
# 
# From -- ./inp_files/5624.got.cif
#   From: 2010.06.25/outbox.cif.g09.slc.cpg/sg71_3_cif.got.tgz:5624.got - 2010.06.28 04:59:45.
