data_PCOD8291247
_publ_section_title
;
Structure prediction by ZEFSAII (Michael W. Deem and Ramdas Pophale) SiO2 
 PCOD8291247
Probable space group: I M M M
;
_chemical_formula_sum "Si O2"
_cell_formula_units_Z 48
_cell_length_a 8.856533
_cell_length_b 16.452917
_cell_length_c 18.966109
_cell_angle_alpha 90.000000
_cell_angle_beta 90.000000
_cell_angle_gamma 90.000000
_cell_volume 2763.661791
_symmetry_space_group_name_H-M "I M M M"
_symmetry_group_IT_number 71
_symmetry_cell_setting 'orthorhombic'
loop_
_space_group_symop_operation_xyz
x,y,z
-x,-y,z
x,-y,-z
-x,y,-z
-x,-y,-z
x,y,-z
-x,y,z
x,-y,z
1/2+x,1/2+y,1/2+z
1/2-x,1/2-y,1/2+z
1/2+x,1/2-y,1/2-z
1/2-x,1/2+y,1/2-z
1/2-x,1/2-y,1/2-z
1/2+x,1/2+y,1/2-z
1/2-x,1/2+y,1/2+z
1/2+x,1/2-y,1/2+z
loop_
_atom_site_type_symbol
_atom_site_label
_atom_site_fract_x
_atom_site_fract_y
_atom_site_fract_z
Si Si1 0.176079 0.691579 0.000000
Si Si2 0.179253 0.500000 0.395016
Si Si3 0.822405 0.119305 0.000000
Si Si4 0.170534 0.910265 0.618641
Si Si5 0.177957 0.500000 0.767044
O O1 0.245197 0.653919 0.070299
O O2 0.214674 0.786095 0.000000
O O3 0.000000 0.673388 0.000000
O O4 0.248336 0.580318 0.430530
O O5 0.227966 0.500000 0.313779
O O6 0.000000 0.500000 0.404860
O O7 0.000000 0.101517 0.000000
O O8 0.000000 0.879687 0.630815
O O9 0.171563 0.000000 0.582099
O O10 0.254083 0.919157 0.694680
O O11 0.000000 0.500000 0.776058
#
# Coordination Sequence:
#
# PCOD8291247 Si02
#       5
#     8   8   8  16   8
#     4  11  21  33  51  78 108 138 173 211 254 302
#     4  10  20  37  59  79  99 132 175 214 260 307
#     4  10  22  36  55  79 103 135 172 214 259 303
#     4   9  19  32  51  79 106 138 173 206 254 305
#     4   9  18  33  54  78 103 134 172 211 252 307
#
# _framework density 17.368259999999999
#
# number of rings (size 3 to 8) (size 9 to 14) (size 15 to 20)
#    1.000    1.333    0.000    4.000    0.000    7.333 
#    0.000    1.667    0.000    0.000    0.000    0.000 
#    0.000    0.000    0.000    0.000    0.000    0.000 
#
# Total GULP energy -297459.304880 kJ/mol
# GULP energy per Si atom -12394.137703 kJ/mol
# Density = 1.732873 g / cm^3
# Si number density = 17.368260 Si / 1000 Ang^3
#
#
#
# Elastic Constant Matrix: (Units=GPa)
#
#
# Indices 1 2 3 4 5 6 
#
# 1 134.2896 64.6047 81.0186 0.0000 0.0000 0.0000
# 2 64.6047 101.1914 68.5067 0.0000 0.0000 0.0000
# 3 81.0186 68.5067 173.8769 0.0000 0.0000 0.0000
# 4 0.0000 0.0000 0.0000 3.0374 0.0000 0.0000
# 5 0.0000 0.0000 0.0000 0.0000 26.5513 0.0000
# 6 0.0000 0.0000 0.0000 0.0000 0.0000 26.9468
#
#
#
# Elastic Compliance Matrix: (Units=1/GPa)
#
#
# Indices 1 2 3 4 5 6 
#
# 1 0.012174 -0.005362 -0.003560 0.000000 0.000000 0.000000
# 2 -0.005362 0.015839 -0.003742 0.000000 0.000000 0.000000
# 3 -0.003560 -0.003742 0.008884 0.000000 0.000000 0.000000
# 4 0.000000 0.000000 0.000000 0.329228 0.000000 0.000000
# 5 0.000000 0.000000 0.000000 0.000000 0.037663 0.000000
# 6 0.000000 0.000000 0.000000 0.000000 0.000000 0.037110
#
#
# Mechanical properties :
#
#
# Convention : Reuss Voigt Hill
#
# Bulk Modulus (GPa) = 86.43682 93.06866 89.75274
# Shear Modulus (GPa) = 10.63642 24.32229 17.47936
#
# Velocity S-wave (km/s) = 2.47737 3.74623 3.17582
# Velocity P-wave (km/s) = 7.61960 8.50965 8.07690
#
# Compressibility (1/GPa) = 0.01156914
#
# Stress axis : x y z
#
# Youngs Moduli (GPa) = 82.14210 63.13478 112.55976
#
# Poissons Ratio (x) = 0.33856 0.40069
# Poissons Ratio (y) = 0.44048 0.42119
# Poissons Ratio (z) = 0.29241 0.23624
#
# Static dielectric constant tensor:
#      x y z
#    x 3.365270 0.000000 0.000000 
#    y 0.000000 3.036860 0.000000 
#    z 0.000000 0.000000 3.171380 
# 
# 
# High freq. dielectric constant tensor:
#      x y z
#    x 1.693270 0.000000 0.000000 
#    y 0.000000 1.647290 0.000000 
#    z 0.000000 0.000000 1.666130 
# 
# From -- ./inp_files/49898.got.cif
#   From: 2010.06.25/outbox.cif.g09.slc.cpg/sg71_25_cif.got.tgz:49898.got - 2010.06.28 04:59:45.
