data_PCOD8291177
_publ_section_title
;
Structure prediction by ZEFSAII (Michael W. Deem and Ramdas Pophale) SiO2 
 PCOD8291177
Probable space group: I M M M
;
_chemical_formula_sum "Si O2"
_cell_formula_units_Z 96
_cell_length_a 23.422278
_cell_length_b 25.020827
_cell_length_c 8.798307
_cell_angle_alpha 90.000000
_cell_angle_beta 90.000000
_cell_angle_gamma 90.000000
_cell_volume 5156.201765
_symmetry_space_group_name_H-M "I M M M"
_symmetry_group_IT_number 71
_symmetry_cell_setting 'orthorhombic'
loop_
_space_group_symop_operation_xyz
x,y,z
-x,-y,z
x,-y,-z
-x,y,-z
-x,-y,-z
x,y,-z
-x,y,z
x,-y,z
1/2+x,1/2+y,1/2+z
1/2-x,1/2-y,1/2+z
1/2+x,1/2-y,1/2-z
1/2-x,1/2+y,1/2-z
1/2-x,1/2-y,1/2-z
1/2+x,1/2+y,1/2-z
1/2-x,1/2+y,1/2+z
1/2+x,1/2-y,1/2+z
loop_
_atom_site_type_symbol
_atom_site_label
_atom_site_fract_x
_atom_site_fract_y
_atom_site_fract_z
Si Si1 0.687610 0.312437 0.823702
Si Si2 0.000000 0.060435 0.679485
Si Si3 0.807540 0.000000 0.823738
Si Si4 0.500000 0.061709 0.320201
Si Si5 0.884040 0.593803 0.323091
Si Si6 0.386419 0.599747 0.677015
Si Si7 0.313196 0.000000 0.678813
Si Si8 0.195273 0.309677 0.325745
O O1 0.641675 0.344834 0.727077
O O2 0.751852 0.328618 0.777119
O O3 0.676494 0.250372 0.785494
O O4 0.679198 0.325699 0.000000
O O5 0.945031 0.092394 0.734505
O O6 0.000000 0.058771 0.500000
O O7 0.000000 0.000000 0.746389
O O8 0.843925 0.051826 0.782056
O O9 0.753379 0.000000 0.714969
O O10 0.788397 0.000000 0.000000
O O11 0.500000 0.065924 0.500000
O O12 0.554770 0.091803 0.255513
O O13 0.500000 0.000000 0.267129
O O14 0.890661 0.580418 0.500000
O O15 0.841093 0.552196 0.249313
O O16 0.858923 0.652768 0.295097
O O17 0.400388 0.601168 0.500000
O O18 0.324035 0.000000 0.500000
O O19 0.215849 0.313706 0.500000
#
# Coordination Sequence:
#
# PCOD8291177 Si02
#       8
#    16   8   8   8  16  16   8  16
#     4  10  20  36  59  87 118 151 189 237 289 336
#     4  11  23  39  60  85 114 149 192 240 290 340
#     4  10  22  37  54  79 113 150 185 228 278 336
#     4  11  23  39  58  83 115 146 183 235 285 331
#     4  11  22  38  60  82 109 149 193 229 274 341
#     4  11  22  38  59  83 114 152 194 233 280 342
#     4  12  24  35  52  83 118 146 179 232 287 332
#     4   9  20  38  59  85 116 151 191 235 285 341
#
# _framework density 18.618355000000001
#
# number of rings (size 3 to 8) (size 9 to 14) (size 15 to 20)
#    0.000    1.500    1.667    3.750    0.000    8.000 
#    0.000    0.833    0.000    2.000    0.000    0.000 
#    0.000    0.000    0.000    0.000    0.000    0.000 
#
# Total GULP energy -595500.492005 kJ/mol
# GULP energy per Si atom -12406.260250 kJ/mol
# Density = 1.857598 g / cm^3
# Si number density = 18.618355 Si / 1000 Ang^3
#
#
#
# Elastic Constant Matrix: (Units=GPa)
#
#
# Indices 1 2 3 4 5 6 
#
# 1 133.2255 63.2438 48.7502 0.0000 0.0000 0.0000
# 2 63.2438 102.6572 41.0671 0.0000 0.0000 0.0000
# 3 48.7502 41.0671 81.4655 0.0000 0.0000 0.0000
# 4 0.0000 0.0000 0.0000 27.6712 0.0000 0.0000
# 5 0.0000 0.0000 0.0000 0.0000 24.8213 0.0000
# 6 0.0000 0.0000 0.0000 0.0000 0.0000 -14.4961
#
#
#
# Elastic Compliance Matrix: (Units=1/GPa)
#
#
# Indices 1 2 3 4 5 6 
#
# 1 0.011654 -0.005499 -0.004202 0.000000 0.000000 0.000000
# 2 -0.005499 0.014796 -0.004168 0.000000 0.000000 0.000000
# 3 -0.004202 -0.004168 0.016891 0.000000 0.000000 0.000000
# 4 0.000000 0.000000 0.000000 0.036139 0.000000 0.000000
# 5 0.000000 0.000000 0.000000 0.000000 0.040288 0.000000
# 6 0.000000 0.000000 0.000000 0.000000 0.000000 -0.068984
#
#
# Mechanical properties :
#
#
# Convention : Reuss Voigt Hill
#
# Bulk Modulus (GPa) = 64.08983 69.27449 66.68216
# Shear Modulus (GPa) = 59.72074 18.55173 39.13623
#
# Velocity S-wave (km/s) = 5.66974 3.16004 4.58976
# Velocity P-wave (km/s) = 8.79539 7.11357 7.99880
#
# Compressibility (1/GPa) = 0.01560310
#
# Stress axis : x y z
#
# Youngs Moduli (GPa) = 85.80770 67.58478 59.20319
#
# Poissons Ratio (x) = 0.37163 0.24877
# Poissons Ratio (y) = 0.47183 0.24678
# Poissons Ratio (z) = 0.36057 0.28172
#
# Static dielectric constant tensor:
#      x y z
#    x 3.405240 0.000000 0.000000 
#    y 0.000000 3.873310 0.000000 
#    z 0.000000 0.000000 3.513090 
# 
# 
# High freq. dielectric constant tensor:
#      x y z
#    x 1.722940 0.000000 0.000000 
#    y 0.000000 1.724360 0.000000 
#    z 0.000000 0.000000 1.734290 
# 
# From -- ./inp_files/12969.got.cif
#   From: 2010.06.25/outbox.cif.g09.slc.cpg/sg71_7_cif.got.tgz:12969.got - 2010.06.28 04:59:45.
