data_PCOD8291107
_publ_section_title
;
Structure prediction by ZEFSAII (Michael W. Deem and Ramdas Pophale) SiO2 
 PCOD8291107
Probable space group: I M M M
;
_chemical_formula_sum "Si O2"
_cell_formula_units_Z 88
_cell_length_a 14.451147
_cell_length_b 27.968468
_cell_length_c 10.197227
_cell_angle_alpha 90.000000
_cell_angle_beta 90.000000
_cell_angle_gamma 90.000000
_cell_volume 4121.478932
_symmetry_space_group_name_H-M "I M M M"
_symmetry_group_IT_number 71
_symmetry_cell_setting 'orthorhombic'
loop_
_space_group_symop_operation_xyz
x,y,z
-x,-y,z
x,-y,-z
-x,y,-z
-x,-y,-z
x,y,-z
-x,y,z
x,-y,z
1/2+x,1/2+y,1/2+z
1/2-x,1/2-y,1/2+z
1/2+x,1/2-y,1/2-z
1/2-x,1/2+y,1/2-z
1/2-x,1/2-y,1/2-z
1/2+x,1/2+y,1/2-z
1/2-x,1/2+y,1/2+z
1/2+x,1/2-y,1/2+z
loop_
_atom_site_type_symbol
_atom_site_label
_atom_site_fract_x
_atom_site_fract_y
_atom_site_fract_z
Si Si1 0.742749 0.946185 0.355755
Si Si2 0.109445 0.706141 0.645145
Si Si3 0.609337 0.552738 0.500000
Si Si4 0.108070 0.597326 0.650328
Si Si5 0.108726 0.885946 0.246195
Si Si6 0.390497 0.281802 0.352132
O O1 0.696810 0.942571 0.500000
O O2 0.665025 0.935706 0.247923
O O3 0.828409 0.908336 0.360053
O O4 0.780636 0.000000 0.331259
O O5 0.146898 0.720782 0.500000
O O6 0.138006 0.652051 0.677122
O O7 0.151268 0.740411 0.758311
O O8 0.000000 0.711253 0.643413
O O9 0.654269 0.500000 0.500000
O O10 0.500000 0.549268 0.500000
O O11 0.642082 0.581825 0.374907
O O12 0.130444 0.583324 0.500000
O O13 0.000000 0.590077 0.679212
O O14 0.137185 0.831850 0.213879
O O15 0.000000 0.890316 0.280040
O O16 0.349124 0.277767 0.500000
O O17 0.500000 0.277963 0.361971
#
# Coordination Sequence:
#
# PCOD8291107 Si02
#       6
#    16  16   8  16  16  16
#     4  11  26  43  59  86 120 153 194 246 303 358
#     4   8  15  30  54  84 116 149 187 232 286 349
#     4   9  16  28  50  78 105 143 197 245 283 323
#     4   9  20  41  67  92 117 149 193 243 294 355
#     4  10  20  36  57  83 119 161 202 243 287 341
#     4   9  16  28  50  83 120 154 192 238 286 340
#
# _framework density 21.351559000000002
#
# number of rings (size 3 to 8) (size 9 to 14) (size 15 to 20)
#    0.000    2.636    0.909    1.636    1.273    4.000 
#    0.000    7.273    0.000    0.000    0.000    0.000 
#    0.000    0.000    0.000    0.000    0.000    0.000 
#
# Total GULP energy -545347.684911 kJ/mol
# GULP energy per Si atom -12394.265566 kJ/mol
# Density = 2.130296 g / cm^3
# Si number density = 21.351559 Si / 1000 Ang^3
#
#
#
# Elastic Constant Matrix: (Units=GPa)
#
#
# Indices 1 2 3 4 5 6 
#
# 1 53.3657 5.0623 36.3147 0.0007 0.0000 0.0000
# 2 5.0623 92.5945 68.6466 0.0003 0.0002 0.0001
# 3 36.3147 68.6466 133.2346 0.0021 -0.0017 -0.0001
# 4 0.0007 0.0003 0.0021 64.1964 -0.0003 0.0000
# 5 0.0000 0.0002 -0.0017 -0.0003 17.3049 0.0002
# 6 0.0000 0.0001 -0.0001 0.0000 0.0002 14.1824
#
#
#
# Elastic Compliance Matrix: (Units=1/GPa)
#
#
# Indices 1 2 3 4 5 6 
#
# 1 0.024868 0.005931 -0.009834 0.000000 -0.000001 0.000000
# 2 0.005931 0.018889 -0.011349 0.000000 -0.000001 0.000000
# 3 -0.009834 -0.011349 0.016033 0.000000 0.000002 0.000000
# 4 0.000000 0.000000 0.000000 0.015577 0.000000 0.000000
# 5 -0.000001 -0.000001 0.000002 0.000000 0.057787 -0.000001
# 6 0.000000 0.000000 0.000000 0.000000 -0.000001 0.070510
#
#
# Mechanical properties :
#
#
# Convention : Reuss Voigt Hill
#
# Bulk Modulus (GPa) = 34.14523 55.47133 44.80828
# Shear Modulus (GPa) = 20.49770 30.41483 25.45627
#
# Velocity S-wave (km/s) = 3.10176 3.77832 3.45663
# Velocity P-wave (km/s) = 5.37164 6.71347 6.07969
#
# Compressibility (1/GPa) = 0.02928667
#
# Stress axis : x y z
#
# Youngs Moduli (GPa) = 40.21266 52.94029 62.37071
#
# Poissons Ratio (x) = -0.31398 0.61334
# Poissons Ratio (y) = -0.23850 0.70784
# Poissons Ratio (z) = 0.39544 0.60081
#
# Static dielectric constant tensor:
#      x y z
#    x 3.503300 0.000000 0.000000 
#    y 0.000000 3.977570 0.000000 
#    z 0.000000 0.000000 4.121580 
# 
# 
# High freq. dielectric constant tensor:
#      x y z
#    x 1.820540 0.000000 0.000000 
#    y 0.000000 1.839570 0.000000 
#    z 0.000000 0.000000 1.835330 
# 
# From -- ./inp_files/22318.got.cif
#   From: 2010.06.25/outbox.cif.g09.slc.cpg/sg71_12_cif.got.tgz:22318.got - 2010.06.28 04:59:45.
