data_PCOD8291937
_publ_section_title
;
Structure prediction by ZEFSAII (Michael W. Deem and Ramdas Pophale) SiO2 
 PCOD8291937
Probable space group: I M M M
;
_chemical_formula_sum "Si O2"
_cell_formula_units_Z 88
_cell_length_a 8.856700
_cell_length_b 19.165646
_cell_length_c 27.041585
_cell_angle_alpha 90.000000
_cell_angle_beta 90.000000
_cell_angle_gamma 90.000000
_cell_volume 4590.156997
_symmetry_space_group_name_H-M "I M M M"
_symmetry_group_IT_number 71
_symmetry_cell_setting 'orthorhombic'
loop_
_space_group_symop_operation_xyz
x,y,z
-x,-y,z
x,-y,-z
-x,y,-z
-x,-y,-z
x,y,-z
-x,y,z
x,-y,z
1/2+x,1/2+y,1/2+z
1/2-x,1/2-y,1/2+z
1/2+x,1/2-y,1/2-z
1/2-x,1/2+y,1/2-z
1/2-x,1/2-y,1/2-z
1/2+x,1/2+y,1/2-z
1/2-x,1/2+y,1/2+z
1/2+x,1/2-y,1/2+z
loop_
_atom_site_type_symbol
_atom_site_label
_atom_site_fract_x
_atom_site_fract_y
_atom_site_fract_z
Si Si1 0.178770 0.080333 0.000000
Si Si2 0.324702 0.309383 0.121594
Si Si3 0.679095 0.922504 0.192160
Si Si4 0.321887 0.182929 0.725920
Si Si5 0.822008 0.654237 0.593785
Si Si6 0.171028 0.421200 0.058113
O O1 0.238616 0.119723 0.047994
O O2 0.000000 0.083860 0.000000
O O3 0.235271 0.000000 0.000000
O O4 0.500000 0.308507 0.135806
O O5 0.230372 0.326943 0.170184
O O6 0.277883 0.235584 0.097629
O O7 0.290756 0.369665 0.082504
O O8 0.500000 0.925765 0.190072
O O9 0.732027 0.883345 0.241804
O O10 0.737849 0.882384 0.143659
O O11 0.749229 0.000000 0.192947
O O12 0.500000 0.191388 0.727841
O O13 0.250000 0.250000 0.750000
O O14 0.000000 0.644138 0.586334
O O15 0.203734 0.500000 0.076183
O O16 0.000000 0.399958 0.072641
O O17 0.193713 0.416060 0.000000
#
# Coordination Sequence:
#
# PCOD8291937 Si02
#       6
#     8  16  16  16  16  16
#     4  11  25  41  57  85 122 153 190 243 297 348
#     4  11  23  38  59  90 121 152 197 245 291 352
#     4   9  18  35  60  86 111 146 194 239 278 333
#     4  11  21  37  59  85 118 155 194 241 294 347
#     4  10  21  39  61  85 115 154 199 239 283 347
#     4   9  20  40  63  87 117 155 198 241 292 355
#
# _framework density 19.171458000000001
#
# number of rings (size 3 to 8) (size 9 to 14) (size 15 to 20)
#    0.000    1.909    1.818    2.455    1.273    4.364 
#    0.000    2.727    0.000    2.727    0.000    0.000 
#    0.000    0.000    0.000    0.000    0.000    0.000 
#
# Total GULP energy -545691.892996 kJ/mol
# GULP energy per Si atom -12402.088477 kJ/mol
# Density = 1.912782 g / cm^3
# Si number density = 19.171458 Si / 1000 Ang^3
#
#
#
# Elastic Constant Matrix: (Units=GPa)
#
#
# Indices 1 2 3 4 5 6 
#
# 1 55.5366 44.1005 41.3558 0.0000 0.0000 0.0000
# 2 44.1005 158.7352 73.5005 0.0000 0.0000 0.0000
# 3 41.3558 73.5005 117.4988 0.0000 0.0000 0.0000
# 4 0.0000 0.0000 0.0000 37.8318 0.0000 0.0000
# 5 0.0000 0.0000 0.0000 0.0000 32.9115 0.0000
# 6 0.0000 0.0000 0.0000 0.0000 0.0000 30.8217
#
#
#
# Elastic Compliance Matrix: (Units=1/GPa)
#
#
# Indices 1 2 3 4 5 6 
#
# 1 0.026293 -0.004251 -0.006595 0.000000 0.000000 0.000000
# 2 -0.004251 0.009556 -0.004481 0.000000 0.000000 0.000000
# 3 -0.006595 -0.004481 0.013635 0.000000 0.000000 0.000000
# 4 0.000000 0.000000 0.000000 0.026433 0.000000 0.000000
# 5 0.000000 0.000000 0.000000 0.000000 0.030384 0.000000
# 6 0.000000 0.000000 0.000000 0.000000 0.000000 0.032445
#
#
# Mechanical properties :
#
#
# Convention : Reuss Voigt Hill
#
# Bulk Modulus (GPa) = 53.10931 72.18714 62.64823
# Shear Modulus (GPa) = 28.46129 31.83393 30.14761
#
# Velocity S-wave (km/s) = 3.85719 4.07933 3.96981
# Velocity P-wave (km/s) = 6.89925 7.74100 7.33221
#
# Compressibility (1/GPa) = 0.01882909
#
# Stress axis : x y z
#
# Youngs Moduli (GPa) = 38.03316 104.64739 73.33930
#
# Poissons Ratio (x) = 0.44486 0.48367
# Poissons Ratio (y) = 0.16168 0.32866
# Poissons Ratio (z) = 0.25083 0.46897
#
# Static dielectric constant tensor:
#      x y z
#    x 3.325410 0.000000 0.000000 
#    y 0.000000 3.768530 0.000000 
#    z 0.000000 0.000000 5.125580 
# 
# 
# High freq. dielectric constant tensor:
#      x y z
#    x 1.727720 0.000000 0.000000 
#    y 0.000000 1.759860 0.000000 
#    z 0.000000 0.000000 1.755040 
# 
# From -- ./inp_files/55544.got.cif
#   From: 2010.06.25/outbox.cif.g09.slc.cpg/sg71_28_cif.got.tgz:55544.got - 2010.06.28 04:59:45.
