data_PCOD8291876
_publ_section_title
;
Structure prediction by ZEFSAII (Michael W. Deem and Ramdas Pophale) SiO2 
 PCOD8291876
Probable space group: I M M M
;
_chemical_formula_sum "Si O2"
_cell_formula_units_Z 88
_cell_length_a 27.114851
_cell_length_b 9.066851
_cell_length_c 17.726645
_cell_angle_alpha 90.000000
_cell_angle_beta 90.000000
_cell_angle_gamma 90.000000
_cell_volume 4358.030331
_symmetry_space_group_name_H-M "I M M M"
_symmetry_group_IT_number 71
_symmetry_cell_setting 'orthorhombic'
loop_
_space_group_symop_operation_xyz
x,y,z
-x,-y,z
x,-y,-z
-x,y,-z
-x,-y,-z
x,y,-z
-x,y,z
x,-y,z
1/2+x,1/2+y,1/2+z
1/2-x,1/2-y,1/2+z
1/2+x,1/2-y,1/2-z
1/2-x,1/2+y,1/2-z
1/2-x,1/2-y,1/2-z
1/2+x,1/2+y,1/2-z
1/2-x,1/2+y,1/2+z
1/2+x,1/2-y,1/2+z
loop_
_atom_site_type_symbol
_atom_site_label
_atom_site_fract_x
_atom_site_fract_y
_atom_site_fract_z
Si Si1 0.769532 0.669645 0.824267
Si Si2 0.826554 0.168806 0.414324
Si Si3 0.056119 0.168709 0.822791
Si Si4 0.500000 0.824519 0.083270
Si Si5 0.351592 0.670067 0.584939
Si Si6 0.908034 0.674565 0.322734
O O1 0.779626 0.500000 0.803094
O O2 0.750000 0.750000 0.750000
O O3 0.730378 0.684257 0.891796
O O4 0.820117 0.739492 0.854204
O O5 0.833019 0.226952 0.500000
O O6 0.857096 0.266194 0.355778
O O7 0.844095 0.000000 0.407802
O O8 0.090046 0.186818 0.896879
O O9 0.081879 0.269122 0.760522
O O10 0.000000 0.220784 0.840235
O O11 0.056184 0.000000 0.794550
O O12 0.451803 0.764728 0.124808
O O13 0.500000 0.000000 0.081523
O O14 0.500000 0.756755 0.000000
O O15 0.343203 0.729463 0.500000
O O16 0.335392 0.500000 0.591192
O O17 0.905564 0.500000 0.321194
#
# Coordination Sequence:
#
# PCOD8291876 Si02
#       6
#    16  16  16   8  16  16
#     4  11  23  40  62  88 119 156 196 239 292 350
#     4  10  22  39  57  80 114 153 192 235 284 341
#     4  10  21  38  60  85 116 154 194 239 292 349
#     4   9  18  32  49  73 108 145 182 230 285 335
#     4  10  22  40  62  89 120 154 196 246 296 349
#     4  11  21  35  56  83 115 151 192 238 287 342
#
# _framework density 20.192608
#
# number of rings (size 3 to 8) (size 9 to 14) (size 15 to 20)
#    0.000    1.727    0.909    3.273    0.000    9.091 
#    0.000    1.818    0.000    2.182    0.000    2.545 
#    0.000    0.000    0.000    0.000    0.000    0.000 
#
# Total GULP energy -545694.398751 kJ/mol
# GULP energy per Si atom -12402.145426 kJ/mol
# Density = 2.014665 g / cm^3
# Si number density = 20.192608 Si / 1000 Ang^3
#
#
#
# Elastic Constant Matrix: (Units=GPa)
#
#
# Indices 1 2 3 4 5 6 
#
# 1 115.1911 42.6409 42.7824 0.0000 0.0000 0.0000
# 2 42.6409 84.8442 44.4323 0.0000 0.0000 0.0000
# 3 42.7824 44.4323 112.1998 0.0000 0.0000 0.0000
# 4 0.0000 0.0000 0.0000 25.1191 0.0000 0.0000
# 5 0.0000 0.0000 0.0000 0.0000 37.4890 0.0000
# 6 0.0000 0.0000 0.0000 0.0000 0.0000 28.3638
#
#
#
# Elastic Compliance Matrix: (Units=1/GPa)
#
#
# Indices 1 2 3 4 5 6 
#
# 1 0.011229 -0.004291 -0.002582 0.000000 0.000000 0.000000
# 2 -0.004291 0.016510 -0.004902 0.000000 0.000000 0.000000
# 3 -0.002582 -0.004902 0.011839 0.000000 0.000000 0.000000
# 4 0.000000 0.000000 0.000000 0.039810 0.000000 0.000000
# 5 0.000000 0.000000 0.000000 0.000000 0.026674 0.000000
# 6 0.000000 0.000000 0.000000 0.000000 0.000000 0.035256
#
#
# Mechanical properties :
#
#
# Convention : Reuss Voigt Hill
#
# Bulk Modulus (GPa) = 62.39558 63.54960 62.97259
# Shear Modulus (GPa) = 29.37530 30.35301 29.86415
#
# Velocity S-wave (km/s) = 3.81826 3.88129 3.84990
# Velocity P-wave (km/s) = 7.09973 7.18511 7.14255
#
# Compressibility (1/GPa) = 0.01602678
#
# Stress axis : x y z
#
# Youngs Moduli (GPa) = 89.05734 60.56940 84.46987
#
# Poissons Ratio (x) = 0.25990 0.21813
# Poissons Ratio (y) = 0.38214 0.41407
# Poissons Ratio (z) = 0.22997 0.29691
#
# Static dielectric constant tensor:
#      x y z
#    x 3.791480 0.000000 0.000000 
#    y 0.000000 3.533950 0.000000 
#    z 0.000000 0.000000 3.678170 
# 
# 
# High freq. dielectric constant tensor:
#      x y z
#    x 1.800040 0.000000 0.000000 
#    y 0.000000 1.776190 0.000000 
#    z 0.000000 0.000000 1.791900 
# 
# From -- ./inp_files/49219.got.cif
#   From: 2010.06.25/outbox.cif.g09.slc.cpg/sg71_25_cif.got.tgz:49219.got - 2010.06.28 04:59:45.
