data_PCOD8291593
_publ_section_title
;
Structure prediction by ZEFSAII (Michael W. Deem and Ramdas Pophale) SiO2 
 PCOD8291593
Probable space group: I M M M
;
_chemical_formula_sum "Si O2"
_cell_formula_units_Z 72
_cell_length_a 31.862852
_cell_length_b 8.936682
_cell_length_c 13.121810
_cell_angle_alpha 90.000000
_cell_angle_beta 90.000000
_cell_angle_gamma 90.000000
_cell_volume 3736.411462
_symmetry_space_group_name_H-M "I M M M"
_symmetry_group_IT_number 71
_symmetry_cell_setting 'orthorhombic'
loop_
_space_group_symop_operation_xyz
x,y,z
-x,-y,z
x,-y,-z
-x,y,-z
-x,-y,-z
x,y,-z
-x,y,z
x,-y,z
1/2+x,1/2+y,1/2+z
1/2-x,1/2-y,1/2+z
1/2+x,1/2-y,1/2-z
1/2-x,1/2+y,1/2-z
1/2-x,1/2-y,1/2-z
1/2+x,1/2+y,1/2-z
1/2-x,1/2+y,1/2+z
1/2+x,1/2-y,1/2+z
loop_
_atom_site_type_symbol
_atom_site_label
_atom_site_fract_x
_atom_site_fract_y
_atom_site_fract_z
Si Si1 0.595710 0.822805 0.199547
Si Si2 0.951697 0.175067 0.883949
Si Si3 0.952780 0.322041 0.500000
Si Si4 0.259533 0.669137 0.612989
Si Si5 0.684164 0.325782 0.797216
O O1 0.577243 0.762881 0.305294
O O2 0.569710 0.761910 0.102264
O O3 0.642881 0.769151 0.183888
O O4 0.594604 0.000000 0.203759
O O5 0.000000 0.216883 0.862776
O O6 0.944096 0.000000 0.867899
O O7 0.939719 0.220188 0.000000
O O8 0.952386 0.500000 0.500000
O O9 0.000000 0.258980 0.500000
O O10 0.277872 0.682499 0.500000
O O11 0.244776 0.500000 0.638528
O O12 0.297758 0.715325 0.685871
O O13 0.219600 0.777851 0.622075
O O14 0.673630 0.500000 0.809700
#
# Coordination Sequence:
#
# PCOD8291593 Si02
#       5
#    16  16   8  16  16
#     4  11  22  36  57  84 114 150 192 238 283 338
#     4   9  19  37  59  82 111 147 184 229 289 346
#     4   9  20  38  57  79 111 153 195 237 287 335
#     4   9  19  37  59  78 104 144 185 227 279 338
#     4  10  21  36  54  82 113 143 183 230 282 337
#
# _framework density 19.269825999999998
#
# number of rings (size 3 to 8) (size 9 to 14) (size 15 to 20)
#    0.000    2.333    0.000    2.667    1.556    4.000 
#    0.000    5.000    0.000    4.000    0.000    0.000 
#    0.000    0.000    0.000    0.000    0.000    0.000 
#
# Total GULP energy -446422.548767 kJ/mol
# GULP energy per Si atom -12400.626355 kJ/mol
# Density = 1.922597 g / cm^3
# Si number density = 19.269826 Si / 1000 Ang^3
#
#
#
# Elastic Constant Matrix: (Units=GPa)
#
#
# Indices 1 2 3 4 5 6 
#
# 1 108.9492 25.1571 51.7794 0.0000 0.0000 0.0000
# 2 25.1571 44.4553 28.8840 0.0000 0.0000 0.0000
# 3 51.7794 28.8840 118.2412 0.0000 0.0000 0.0000
# 4 0.0000 0.0000 0.0000 28.7398 0.0000 0.0000
# 5 0.0000 0.0000 0.0000 0.0000 15.8816 0.0000
# 6 0.0000 0.0000 0.0000 0.0000 0.0000 33.5236
#
#
#
# Elastic Compliance Matrix: (Units=1/GPa)
#
#
# Indices 1 2 3 4 5 6 
#
# 1 0.012182 -0.004074 -0.004339 0.000000 0.000000 0.000000
# 2 -0.004074 0.028101 -0.005080 0.000000 0.000000 0.000000
# 3 -0.004339 -0.005080 0.011599 0.000000 0.000000 0.000000
# 4 0.000000 0.000000 0.000000 0.034795 0.000000 0.000000
# 5 0.000000 0.000000 0.000000 0.000000 0.062966 0.000000
# 6 0.000000 0.000000 0.000000 0.000000 0.000000 0.029830
#
#
# Mechanical properties :
#
#
# Convention : Reuss Voigt Hill
#
# Bulk Modulus (GPa) = 40.17115 53.69853 46.93484
# Shear Modulus (GPa) = 23.28209 26.68399 24.98304
#
# Velocity S-wave (km/s) = 3.47971 3.72527 3.60458
# Velocity P-wave (km/s) = 6.08576 6.81400 6.46015
#
# Compressibility (1/GPa) = 0.02489349
#
# Stress axis : x y z
#
# Youngs Moduli (GPa) = 82.09080 35.58599 86.21763
#
# Poissons Ratio (x) = 0.14498 0.37412
# Poissons Ratio (y) = 0.33445 0.43802
# Poissons Ratio (z) = 0.35621 0.18079
#
# Static dielectric constant tensor:
#      x y z
#    x 3.453910 0.000000 0.000000 
#    y 0.000000 3.408180 0.000000 
#    z 0.000000 0.000000 3.682880 
# 
# 
# High freq. dielectric constant tensor:
#      x y z
#    x 1.747370 0.000000 0.000000 
#    y 0.000000 1.739720 0.000000 
#    z 0.000000 0.000000 1.761200 
# 
# From -- ./inp_files/31442.got.cif
#   From: 2010.06.25/outbox.cif.g09.slc.cpg/sg71_16_cif.got.tgz:31442.got - 2010.06.28 04:59:45.
