data_PCOD8291390
_publ_section_title
;
Structure prediction by ZEFSAII (Michael W. Deem and Ramdas Pophale) SiO2 
 PCOD8291390
Probable space group: I M M M
;
_chemical_formula_sum "Si O2"
_cell_formula_units_Z 72
_cell_length_a 9.543494
_cell_length_b 23.497672
_cell_length_c 17.732317
_cell_angle_alpha 90.000000
_cell_angle_beta 90.000000
_cell_angle_gamma 90.000000
_cell_volume 3976.470168
_symmetry_space_group_name_H-M "I M M M"
_symmetry_group_IT_number 71
_symmetry_cell_setting 'orthorhombic'
loop_
_space_group_symop_operation_xyz
x,y,z
-x,-y,z
x,-y,-z
-x,y,-z
-x,-y,-z
x,y,-z
-x,y,z
x,-y,z
1/2+x,1/2+y,1/2+z
1/2-x,1/2-y,1/2+z
1/2+x,1/2-y,1/2-z
1/2-x,1/2+y,1/2-z
1/2-x,1/2-y,1/2-z
1/2+x,1/2+y,1/2-z
1/2-x,1/2+y,1/2+z
1/2+x,1/2-y,1/2+z
loop_
_atom_site_type_symbol
_atom_site_label
_atom_site_fract_x
_atom_site_fract_y
_atom_site_fract_z
Si Si1 0.167117 0.435789 0.500000
Si Si2 0.837432 0.434140 0.792684
Si Si3 0.333673 0.753680 0.083812
Si Si4 0.838222 0.872281 0.588568
Si Si5 0.833354 0.369955 0.353971
O O1 0.223889 0.500000 0.500000
O O2 0.225866 0.404532 0.574377
O O3 0.000000 0.434383 0.500000
O O4 0.814074 0.500000 0.773284
O O5 0.753680 0.418351 0.867824
O O6 0.775800 0.397335 0.723069
O O7 0.000000 0.420756 0.806974
O O8 0.500000 0.753849 0.078008
O O9 0.286049 0.691302 0.112293
O O10 0.282446 0.804032 0.139633
O O11 0.273125 0.765463 0.000000
O O12 0.815256 0.881639 0.500000
O O13 0.000000 0.881268 0.610149
O O14 0.000000 0.374194 0.354046
#
# Coordination Sequence:
#
# PCOD8291390 Si02
#       5
#     8  16  16  16  16
#     4   9  14  20  36  64  97 133 166 189 218 272
#     4  10  21  34  47  70 104 132 156 194 243 290
#     4   8  13  25  46  71  96 122 157 199 239 279
#     4   9  19  35  54  73  92 120 163 209 245 283
#     4   9  15  25  43  68  99 132 159 189 233 282
#
# _framework density 18.106511000000001
#
# number of rings (size 3 to 8) (size 9 to 14) (size 15 to 20)
#    0.000    3.000    1.111    2.000    0.000    4.889 
#    0.000    2.222    0.000    0.000    0.000    0.778 
#    0.000    2.667    0.000    0.000    0.000    0.000 
#
# Total GULP energy -446210.416384 kJ/mol
# GULP energy per Si atom -12394.733788 kJ/mol
# Density = 1.806530 g / cm^3
# Si number density = 18.106511 Si / 1000 Ang^3
#
#
#
# Elastic Constant Matrix: (Units=GPa)
#
#
# Indices 1 2 3 4 5 6 
#
# 1 28.2193 27.1389 32.8229 0.0000 0.0000 0.0000
# 2 27.1389 74.2368 44.7733 0.0000 0.0000 0.0000
# 3 32.8229 44.7733 92.2917 -0.0001 0.0000 0.0000
# 4 0.0000 0.0000 -0.0001 36.2454 0.0000 0.0000
# 5 0.0000 0.0000 0.0000 0.0000 16.5299 0.0000
# 6 0.0000 0.0000 0.0000 0.0000 0.0000 17.0809
#
#
#
# Elastic Compliance Matrix: (Units=1/GPa)
#
#
# Indices 1 2 3 4 5 6 
#
# 1 0.070668 -0.015092 -0.017811 0.000000 0.000000 0.000000
# 2 -0.015092 0.022265 -0.005434 0.000000 0.000000 0.000000
# 3 -0.017811 -0.005434 0.019806 0.000000 0.000000 0.000000
# 4 0.000000 0.000000 0.000000 0.027590 0.000000 0.000000
# 5 0.000000 0.000000 0.000000 0.000000 0.060497 0.000000
# 6 0.000000 0.000000 0.000000 0.000000 0.000000 0.058545
#
#
# Mechanical properties :
#
#
# Convention : Reuss Voigt Hill
#
# Bulk Modulus (GPa) = 27.72818 44.91311 36.32064
# Shear Modulus (GPa) = 14.36515 19.97207 17.16861
#
# Velocity S-wave (km/s) = 2.81974 3.32480 3.08263
# Velocity P-wave (km/s) = 5.09396 6.29268 5.72478
#
# Compressibility (1/GPa) = 0.03606440
#
# Stress axis : x y z
#
# Youngs Moduli (GPa) = 14.15077 44.91359 50.49074
#
# Poissons Ratio (x) = 0.67784 0.89928
# Poissons Ratio (y) = 0.21357 0.27436
# Poissons Ratio (z) = 0.25204 0.24406
#
# Static dielectric constant tensor:
#      x y z
#    x 2.683840 0.000000 0.000000 
#    y 0.000000 3.625360 0.000000 
#    z 0.000000 0.000000 3.322150 
# 
# 
# High freq. dielectric constant tensor:
#      x y z
#    x 1.628680 0.000000 0.000000 
#    y 0.000000 1.718030 0.000000 
#    z 0.000000 0.000000 1.699040 
# 
# From -- ./inp_files/12170.got.cif
#   From: 2010.06.25/outbox.cif.g09.slc.cpg/sg71_7_cif.got.tgz:12170.got - 2010.06.28 04:59:45.
