data_PCOD8291666
_publ_section_title
;
Structure prediction by ZEFSAII (Michael W. Deem and Ramdas Pophale) SiO2 
 PCOD8291666
Probable space group: I M M M
;
_chemical_formula_sum "Si O2"
_cell_formula_units_Z 64
_cell_length_a 16.753634
_cell_length_b 17.994573
_cell_length_c 11.602794
_cell_angle_alpha 90.000000
_cell_angle_beta 90.000000
_cell_angle_gamma 90.000000
_cell_volume 3497.946404
_symmetry_space_group_name_H-M "I M M M"
_symmetry_group_IT_number 71
_symmetry_cell_setting 'orthorhombic'
loop_
_space_group_symop_operation_xyz
x,y,z
-x,-y,z
x,-y,-z
-x,y,-z
-x,-y,-z
x,y,-z
-x,y,z
x,-y,z
1/2+x,1/2+y,1/2+z
1/2-x,1/2-y,1/2+z
1/2+x,1/2-y,1/2-z
1/2-x,1/2+y,1/2-z
1/2-x,1/2-y,1/2-z
1/2+x,1/2+y,1/2-z
1/2-x,1/2+y,1/2+z
1/2+x,1/2-y,1/2+z
loop_
_atom_site_type_symbol
_atom_site_label
_atom_site_fract_x
_atom_site_fract_y
_atom_site_fract_z
Si Si1 0.000000 0.584816 0.622867
Si Si2 0.641952 0.146158 0.266811
Si Si3 0.406649 0.716896 0.131931
Si Si4 0.795145 0.914982 0.632237
Si Si5 0.591149 0.083703 0.500000
O O1 0.917953 0.601324 0.686403
O O2 0.000000 0.500000 0.596377
O O3 0.000000 0.628451 0.500000
O O4 0.642824 0.230566 0.219738
O O5 0.730909 0.111642 0.272016
O O6 0.609618 0.137736 0.394743
O O7 0.500000 0.720833 0.163880
O O8 0.375224 0.633138 0.148952
O O9 0.391747 0.742122 0.000000
O O10 0.761658 0.904908 0.500000
O O11 0.818669 0.000000 0.655870
O O12 0.500000 0.062829 0.500000
O O13 0.634225 0.000000 0.500000
#
# Coordination Sequence:
#
# PCOD8291666 Si02
#       5
#     8  16  16  16   8
#     4  11  22  33  51  79 114 155 185 214 273 348
#     4  12  20  34  54  81 115 145 183 233 281 332
#     4  10  21  38  58  82 114 152 189 232 282 336
#     4  10  21  36  57  85 114 147 190 238 286 331
#     4  11  20  30  50  80 112 150 186 227 278 332
#
# _framework density 18.296451000000001
#
# number of rings (size 3 to 8) (size 9 to 14) (size 15 to 20)
#    0.000    1.250    3.750    3.750    0.000    0.500 
#    0.000    2.500    0.000    0.000    0.000    0.000 
#    0.000    3.000    0.000    0.000    0.000    0.000 
#
# Total GULP energy -396504.370192 kJ/mol
# GULP energy per Si atom -12390.761569 kJ/mol
# Density = 1.825481 g / cm^3
# Si number density = 18.296451 Si / 1000 Ang^3
#
#
#
# Elastic Constant Matrix: (Units=GPa)
#
#
# Indices 1 2 3 4 5 6 
#
# 1 50.4703 39.9157 30.5246 0.0000 0.0000 0.0000
# 2 39.9157 145.8551 52.4576 0.0000 0.0000 0.0000
# 3 30.5246 52.4576 106.8020 0.0000 0.0000 0.0000
# 4 0.0000 0.0000 0.0000 25.8051 0.0000 0.0000
# 5 0.0000 0.0000 0.0000 0.0000 16.0106 0.0000
# 6 0.0000 0.0000 0.0000 0.0000 0.0000 30.2348
#
#
#
# Elastic Compliance Matrix: (Units=1/GPa)
#
#
# Indices 1 2 3 4 5 6 
#
# 1 0.027342 -0.005674 -0.005027 0.000000 0.000000 0.000000
# 2 -0.005674 0.009505 -0.003047 0.000000 0.000000 0.000000
# 3 -0.005027 -0.003047 0.012296 0.000000 0.000000 0.000000
# 4 0.000000 0.000000 0.000000 0.038752 0.000000 0.000000
# 5 0.000000 0.000000 0.000000 0.000000 0.062459 0.000000
# 6 0.000000 0.000000 0.000000 0.000000 0.000000 0.033074
#
#
# Mechanical properties :
#
#
# Convention : Reuss Voigt Hill
#
# Bulk Modulus (GPa) = 46.19751 60.99146 53.59448
# Shear Modulus (GPa) = 22.92098 26.42541 24.67320
#
# Velocity S-wave (km/s) = 3.54327 3.80451 3.67621
# Velocity P-wave (km/s) = 6.48413 7.25993 6.88297
#
# Compressibility (1/GPa) = 0.02164619
#
# Stress axis : x y z
#
# Youngs Moduli (GPa) = 36.57370 105.21033 81.32477
#
# Poissons Ratio (x) = 0.59701 0.40885
# Poissons Ratio (y) = 0.20754 0.24777
# Poissons Ratio (z) = 0.18387 0.32054
#
# Static dielectric constant tensor:
#      x y z
#    x 3.408630 0.000000 0.000000 
#    y 0.000000 3.461870 0.000000 
#    z 0.000000 0.000000 3.324800 
# 
# 
# High freq. dielectric constant tensor:
#      x y z
#    x 1.709300 0.000000 0.000000 
#    y 0.000000 1.712930 0.000000 
#    z 0.000000 0.000000 1.696600 
# 
# From -- ./inp_files/23382.got.cif
#   From: 2010.06.25/outbox.cif.g09.slc.cpg/sg71_12_cif.got.tgz:23382.got - 2010.06.28 04:59:45.
