data_PCOD8291831
_publ_section_title
;
Structure prediction by ZEFSAII (Michael W. Deem and Ramdas Pophale) SiO2 
 PCOD8291831
Probable space group: I M M M
;
_chemical_formula_sum "Si O2"
_cell_formula_units_Z 72
_cell_length_a 13.242195
_cell_length_b 28.917208
_cell_length_c 9.924230
_cell_angle_alpha 90.000000
_cell_angle_beta 90.000000
_cell_angle_gamma 90.000000
_cell_volume 3800.258670
_symmetry_space_group_name_H-M "I M M M"
_symmetry_group_IT_number 71
_symmetry_cell_setting 'orthorhombic'
loop_
_space_group_symop_operation_xyz
x,y,z
-x,-y,z
x,-y,-z
-x,y,-z
-x,-y,-z
x,y,-z
-x,y,z
x,-y,z
1/2+x,1/2+y,1/2+z
1/2-x,1/2-y,1/2+z
1/2+x,1/2-y,1/2-z
1/2-x,1/2+y,1/2-z
1/2-x,1/2-y,1/2-z
1/2+x,1/2+y,1/2-z
1/2-x,1/2+y,1/2+z
1/2+x,1/2-y,1/2+z
loop_
_atom_site_type_symbol
_atom_site_label
_atom_site_fract_x
_atom_site_fract_y
_atom_site_fract_z
Si Si1 0.881832 0.055085 0.000000
Si Si2 0.386681 0.748074 0.849325
Si Si3 0.617846 0.000000 0.660278
Si Si4 0.618732 0.447777 0.000000
Si Si5 0.707746 0.181151 0.342415
Si Si6 0.757754 0.082147 0.742126
O O1 0.821546 0.076128 0.876120
O O2 0.000000 0.070251 0.000000
O O3 0.874782 0.000000 0.000000
O O4 0.500000 0.729504 0.837976
O O5 0.372274 0.787392 0.736924
O O6 0.317569 0.703600 0.822491
O O7 0.364602 0.768067 0.000000
O O8 0.668949 0.044828 0.726356
O O9 0.500000 0.000000 0.698636
O O10 0.633307 0.000000 0.500000
O O11 0.657991 0.420970 0.128177
O O12 0.661658 0.500000 0.000000
O O13 0.500000 0.447906 0.000000
O O14 0.677169 0.177112 0.500000
O O15 0.705280 0.131835 0.268982
#
# Coordination Sequence:
#
# PCOD8291831 Si02
#       6
#     8  16   8   8  16  16
#     4  11  24  40  60  87 126 166 196 242 305 360
#     4   9  20  39  60  85 117 153 194 244 302 360
#     4  11  22  39  62  89 121 159 201 249 298 343
#     4  11  20  34  60  87 116 154 200 240 295 360
#     4  10  21  37  62  88 117 154 196 249 298 347
#     4  12  21  40  59  89 123 158 200 249 296 349
#
# _framework density 18.946079999999998
#
# number of rings (size 3 to 8) (size 9 to 14) (size 15 to 20)
#    0.000    1.444    4.444    0.667    1.556    4.889 
#    0.000    1.111    0.000    0.000    0.000    0.000 
#    0.000    0.000    0.000    0.000    0.000    0.000 
#
# Total GULP energy -446405.895231 kJ/mol
# GULP energy per Si atom -12400.163756 kJ/mol
# Density = 1.890296 g / cm^3
# Si number density = 18.946080 Si / 1000 Ang^3
#
#
#
# Elastic Constant Matrix: (Units=GPa)
#
#
# Indices 1 2 3 4 5 6 
#
# 1 104.2859 32.6773 43.0346 -0.0003 0.0040 0.0001
# 2 32.6773 112.6485 36.1015 -0.0012 0.0085 -0.0001
# 3 43.0346 36.1015 126.5815 -0.0103 0.1343 -0.0017
# 4 -0.0003 -0.0012 -0.0103 43.3373 -0.0097 -0.0008
# 5 0.0040 0.0085 0.1343 -0.0097 16.0937 0.0150
# 6 0.0001 -0.0001 -0.0017 -0.0008 0.0150 13.1660
#
#
#
# Elastic Compliance Matrix: (Units=1/GPa)
#
#
# Indices 1 2 3 4 5 6 
#
# 1 0.011684 -0.002329 -0.003308 -0.000001 0.000026 -0.000001
# 2 -0.002329 0.010234 -0.002127 0.000000 0.000013 0.000000
# 3 -0.003308 -0.002127 0.009631 0.000002 -0.000078 0.000001
# 4 -0.000001 0.000000 0.000002 0.023075 0.000014 0.000001
# 5 0.000026 0.000013 -0.000078 0.000014 0.062137 -0.000071
# 6 -0.000001 0.000000 0.000001 0.000001 -0.000071 0.075953
#
#
# Mechanical properties :
#
#
# Convention : Reuss Voigt Hill
#
# Bulk Modulus (GPa) = 62.41653 63.01587 62.71620
# Shear Modulus (GPa) = 23.41006 29.96624 26.68815
#
# Velocity S-wave (km/s) = 3.51895 3.98132 3.75725
# Velocity P-wave (km/s) = 7.03750 7.38020 7.21089
#
# Compressibility (1/GPa) = 0.01602140
#
# Stress axis : x y z
#
# Youngs Moduli (GPa) = 85.58770 97.70878 103.82686
#
# Poissons Ratio (x) = 0.22758 0.34346
# Poissons Ratio (y) = 0.19935 0.22085
# Poissons Ratio (z) = 0.28312 0.20783
#
# Static dielectric constant tensor:
#      x y z
#    x 3.448200 0.000000 0.000000 
#    y 0.000000 3.466200 0.000000 
#    z 0.000000 0.000000 3.585570 
# 
# 
# High freq. dielectric constant tensor:
#      x y z
#    x 1.738330 0.000000 0.000000 
#    y 0.000000 1.730730 0.000000 
#    z 0.000000 0.000000 1.743270 
# 
# From -- ./inp_files/6154.got.cif
#   From: 2010.06.25/outbox.cif.g09.slc.cpg/sg71_4_cif.got.tgz:6154.got - 2010.06.28 04:59:45.
