data_PCOD8291591
_publ_section_title
;
Structure prediction by ZEFSAII (Michael W. Deem and Ramdas Pophale) SiO2 
 PCOD8291591
Probable space group: I M M M
;
_chemical_formula_sum "Si O2"
_cell_formula_units_Z 72
_cell_length_a 13.225520
_cell_length_b 31.663903
_cell_length_c 8.788018
_cell_angle_alpha 90.000000
_cell_angle_beta 90.000000
_cell_angle_gamma 90.000000
_cell_volume 3680.172204
_symmetry_space_group_name_H-M "I M M M"
_symmetry_group_IT_number 71
_symmetry_cell_setting 'orthorhombic'
loop_
_space_group_symop_operation_xyz
x,y,z
-x,-y,z
x,-y,-z
-x,y,-z
-x,-y,-z
x,y,-z
-x,y,z
x,-y,z
1/2+x,1/2+y,1/2+z
1/2-x,1/2-y,1/2+z
1/2+x,1/2-y,1/2-z
1/2-x,1/2+y,1/2-z
1/2-x,1/2-y,1/2-z
1/2+x,1/2+y,1/2-z
1/2-x,1/2+y,1/2+z
1/2+x,1/2-y,1/2+z
loop_
_atom_site_type_symbol
_atom_site_label
_atom_site_fract_x
_atom_site_fract_y
_atom_site_fract_z
Si Si1 0.112301 0.738486 0.173209
Si Si2 0.798100 0.816049 0.676680
Si Si3 0.500000 0.450322 0.175800
Si Si4 0.388262 0.952348 0.180755
Si Si5 0.309330 0.594672 0.679926
O O1 0.123503 0.779198 0.280531
O O2 0.186437 0.700588 0.220866
O O3 0.000000 0.720340 0.191974
O O4 0.135552 0.752540 0.000000
O O5 0.808839 0.827416 0.500000
O O6 0.822762 0.856904 0.774678
O O7 0.500000 0.500000 0.200860
O O8 0.399674 0.432262 0.251549
O O9 0.500000 0.437444 0.000000
O O10 0.500000 0.936884 0.237188
O O11 0.298540 0.922535 0.244133
O O12 0.368981 0.000000 0.239484
O O13 0.386399 0.951834 0.000000
O O14 0.314665 0.590300 0.500000
#
# Coordination Sequence:
#
# PCOD8291591 Si02
#       5
#    16  16   8  16  16
#     4   9  19  37  59  79 106 146 190 235 282 336
#     4  10  21  36  54  81 113 145 184 232 286 337
#     4  11  25  43  61  83 115 155 197 245 297 343
#     4   8  15  30  53  81 111 142 179 226 278 330
#     4  11  22  36  58  86 116 151 191 235 281 343
#
# _framework density 19.564302000000001
#
# number of rings (size 3 to 8) (size 9 to 14) (size 15 to 20)
#    0.000    2.333    0.000    3.000    1.556    4.000 
#    0.000    0.000    0.000    2.000    0.000    7.778 
#    0.000    0.000    0.000    0.000    0.000    0.000 
#
# Total GULP energy -446371.598259 kJ/mol
# GULP energy per Si atom -12399.211063 kJ/mol
# Density = 1.951977 g / cm^3
# Si number density = 19.564302 Si / 1000 Ang^3
#
#
#
# Elastic Constant Matrix: (Units=GPa)
#
#
# Indices 1 2 3 4 5 6 
#
# 1 122.3574 30.8387 41.3529 -0.0071 0.0080 0.0005
# 2 30.8387 74.4451 38.6262 -0.0134 0.0111 0.0047
# 3 41.3529 38.6262 66.2537 -0.0678 0.0476 0.0118
# 4 -0.0071 -0.0134 -0.0678 16.8614 0.0201 0.0072
# 5 0.0080 0.0111 0.0476 0.0201 19.8697 -0.0004
# 6 0.0005 0.0047 0.0118 0.0072 -0.0004 16.9045
#
#
#
# Elastic Compliance Matrix: (Units=1/GPa)
#
#
# Indices 1 2 3 4 5 6 
#
# 1 0.010452 -0.001355 -0.005734 -0.000020 0.000010 0.000004
# 2 -0.001355 0.019434 -0.010485 -0.000027 0.000015 0.000002
# 3 -0.005734 -0.010485 0.024785 0.000089 -0.000051 -0.000014
# 4 -0.000020 -0.000027 0.000089 0.059307 -0.000060 -0.000025
# 5 0.000010 0.000015 -0.000051 -0.000060 0.050328 0.000001
# 6 0.000004 0.000002 -0.000014 -0.000025 0.000001 0.059156
#
#
# Mechanical properties :
#
#
# Convention : Reuss Voigt Hill
#
# Bulk Modulus (GPa) = 51.21740 53.85464 52.53602
# Shear Modulus (GPa) = 18.85958 20.87635 19.86797
#
# Velocity S-wave (km/s) = 3.10817 3.27014 3.19018
# Velocity P-wave (km/s) = 6.25434 6.46878 6.36247
#
# Compressibility (1/GPa) = 0.01952461
#
# Stress axis : x y z
#
# Youngs Moduli (GPa) = 95.67433 51.45667 40.34672
#
# Poissons Ratio (x) = 0.06970 0.23135
# Poissons Ratio (y) = 0.12960 0.42302
# Poissons Ratio (z) = 0.54860 0.53950
#
# Static dielectric constant tensor:
#      x y z
#    x 3.907880 0.000000 0.000000 
#    y 0.000000 3.461190 0.000000 
#    z 0.000000 0.000000 3.404940 
# 
# 
# High freq. dielectric constant tensor:
#      x y z
#    x 1.777680 0.000000 0.000000 
#    y 0.000000 1.755480 0.000000 
#    z 0.000000 0.000000 1.744190 
# 
# From -- ./inp_files/6459.got.cif
#   From: 2010.06.25/outbox.cif.g09.slc.cpg/sg71_4_cif.got.tgz:6459.got - 2010.06.28 04:59:45.
