data_PCOD8291817
_publ_section_title
;
Structure prediction by ZEFSAII (Michael W. Deem and Ramdas Pophale) SiO2 
 PCOD8291817
Probable space group: I M M M
;
_chemical_formula_sum "Si O2"
_cell_formula_units_Z 72
_cell_length_a 17.450599
_cell_length_b 7.596006
_cell_length_c 27.033085
_cell_angle_alpha 90.000000
_cell_angle_beta 90.000000
_cell_angle_gamma 90.000000
_cell_volume 3583.366654
_symmetry_space_group_name_H-M "I M M M"
_symmetry_group_IT_number 71
_symmetry_cell_setting 'orthorhombic'
loop_
_space_group_symop_operation_xyz
x,y,z
-x,-y,z
x,-y,-z
-x,y,-z
-x,-y,-z
x,y,-z
-x,y,z
x,-y,z
1/2+x,1/2+y,1/2+z
1/2-x,1/2-y,1/2+z
1/2+x,1/2-y,1/2-z
1/2-x,1/2+y,1/2-z
1/2-x,1/2-y,1/2-z
1/2+x,1/2+y,1/2-z
1/2-x,1/2+y,1/2+z
1/2+x,1/2-y,1/2+z
loop_
_atom_site_type_symbol
_atom_site_label
_atom_site_fract_x
_atom_site_fract_y
_atom_site_fract_z
Si Si1 0.907386 0.500000 0.191353
Si Si2 0.000000 0.791716 0.054113
Si Si3 0.362573 0.300257 0.379089
Si Si4 0.412199 0.299500 0.123848
Si Si5 0.775517 0.204115 0.555673
Si Si6 0.590188 0.000000 0.196866
O O1 0.868567 0.326173 0.168134
O O2 0.877627 0.500000 0.247706
O O3 0.000000 0.500000 0.186047
O O4 0.924813 0.726633 0.082314
O O5 0.000000 0.000000 0.049506
O O6 0.000000 0.704045 0.000000
O O7 0.380508 0.500000 0.361785
O O8 0.280977 0.300313 0.406317
O O9 0.500000 0.256793 0.109509
O O10 0.402960 0.500000 0.142517
O O11 0.361998 0.265136 0.074828
O O12 0.382244 0.174660 0.167979
O O13 0.768834 0.282184 0.500000
O O14 0.754038 0.000000 0.555309
O O15 0.500000 0.000000 0.200691
#
# Coordination Sequence:
#
# PCOD8291817 Si02
#       6
#     8   8  16  16  16   8
#     4  11  22  40  62  87 115 153 200 253 296 340
#     4   9  18  33  53  79 110 149 197 234 277 345
#     4  11  22  37  57  83 119 158 196 240 292 347
#     4   9  19  38  62  87 118 153 192 241 295 357
#     4  10  21  37  60  88 121 157 194 239 295 353
#     4   9  20  38  63  88 113 148 198 248 300 349
#
# _framework density 20.092835999999998
#
# number of rings (size 3 to 8) (size 9 to 14) (size 15 to 20)
#    0.000    2.111    2.222    0.667    1.556    2.667 
#    0.000    6.111    0.000    2.000    0.000    0.000 
#    0.000    0.000    0.000    0.000    0.000    0.000 
#
# Total GULP energy -446373.782760 kJ/mol
# GULP energy per Si atom -12399.271743 kJ/mol
# Density = 2.004710 g / cm^3
# Si number density = 20.092836 Si / 1000 Ang^3
#
#
#
# Elastic Constant Matrix: (Units=GPa)
#
#
# Indices 1 2 3 4 5 6 
#
# 1 90.7291 25.1586 38.1734 0.0000 0.0000 0.0000
# 2 25.1586 101.3324 50.8018 0.0000 0.0000 0.0000
# 3 38.1734 50.8018 122.4769 0.0000 0.0000 0.0000
# 4 0.0000 0.0000 0.0000 20.1274 0.0000 0.0000
# 5 0.0000 0.0000 0.0000 0.0000 24.5050 0.0000
# 6 0.0000 0.0000 0.0000 0.0000 0.0000 19.7193
#
#
#
# Elastic Compliance Matrix: (Units=1/GPa)
#
#
# Indices 1 2 3 4 5 6 
#
# 1 0.012862 -0.001494 -0.003389 0.000000 0.000000 0.000000
# 2 -0.001494 0.012633 -0.004774 0.000000 0.000000 0.000000
# 3 -0.003389 -0.004774 0.011201 0.000000 0.000000 0.000000
# 4 0.000000 0.000000 0.000000 0.049683 0.000000 0.000000
# 5 0.000000 0.000000 0.000000 0.000000 0.040808 0.000000
# 6 0.000000 0.000000 0.000000 0.000000 0.000000 0.050712
#
#
# Mechanical properties :
#
#
# Convention : Reuss Voigt Hill
#
# Bulk Modulus (GPa) = 57.53309 60.31177 58.92243
# Shear Modulus (GPa) = 24.62947 26.23063 25.43005
#
# Velocity S-wave (km/s) = 3.50492 3.61705 3.56143
# Velocity P-wave (km/s) = 6.71380 6.89390 6.80444
#
# Compressibility (1/GPa) = 0.01738130
#
# Stress axis : x y z
#
# Youngs Moduli (GPa) = 77.74795 79.15743 89.27463
#
# Poissons Ratio (x) = 0.11829 0.30255
# Poissons Ratio (y) = 0.11618 0.42622
# Poissons Ratio (z) = 0.26349 0.37792
#
# Static dielectric constant tensor:
#      x y z
#    x 3.563670 0.000000 0.000000 
#    y 0.000000 3.666130 0.000000 
#    z 0.000000 0.000000 3.736470 
# 
# 
# High freq. dielectric constant tensor:
#      x y z
#    x 1.777200 0.000000 0.000000 
#    y 0.000000 1.788200 0.000000 
#    z 0.000000 0.000000 1.769910 
# 
# From -- ./inp_files/65179.got.cif
#   From: 2010.06.25/outbox.cif.g09.slc.cpg/sg71_33_cif.got.tgz:65179.got - 2010.06.28 04:59:45.
