data_PCOD8291898
_publ_section_title
;
Structure prediction by ZEFSAII (Michael W. Deem and Ramdas Pophale) SiO2 
 PCOD8291898
Probable space group: I M M M
;
_chemical_formula_sum "Si O2"
_cell_formula_units_Z 80
_cell_length_a 14.376819
_cell_length_b 29.083746
_cell_length_c 8.933902
_cell_angle_alpha 90.000000
_cell_angle_beta 90.000000
_cell_angle_gamma 90.000000
_cell_volume 3735.548096
_symmetry_space_group_name_H-M "I M M M"
_symmetry_group_IT_number 71
_symmetry_cell_setting 'orthorhombic'
loop_
_space_group_symop_operation_xyz
x,y,z
-x,-y,z
x,-y,-z
-x,y,-z
-x,-y,-z
x,y,-z
-x,y,z
x,-y,z
1/2+x,1/2+y,1/2+z
1/2-x,1/2-y,1/2+z
1/2+x,1/2-y,1/2-z
1/2-x,1/2+y,1/2-z
1/2-x,1/2-y,1/2-z
1/2+x,1/2+y,1/2-z
1/2-x,1/2+y,1/2+z
1/2+x,1/2-y,1/2+z
loop_
_atom_site_type_symbol
_atom_site_label
_atom_site_fract_x
_atom_site_fract_y
_atom_site_fract_z
Si Si1 0.609586 0.628984 0.173115
Si Si2 0.728631 0.447549 0.672629
Si Si3 0.606569 0.904252 0.323571
Si Si4 0.389069 0.278811 0.669620
Si Si5 0.389548 0.811396 0.168184
O O1 0.500000 0.624609 0.196731
O O2 0.654672 0.583869 0.242971
O O3 0.648647 0.674663 0.254048
O O4 0.636886 0.632262 0.000000
O O5 0.733439 0.432993 0.500000
O O6 0.695886 0.500000 0.691155
O O7 0.830949 0.442820 0.745049
O O8 0.620014 0.906289 0.500000
O O9 0.500000 0.913292 0.277257
O O10 0.642524 0.854778 0.266440
O O11 0.352783 0.277060 0.500000
O O12 0.500000 0.277832 0.675580
O O13 0.348190 0.234877 0.758324
O O14 0.500000 0.808519 0.166427
O O15 0.350282 0.816304 0.000000
#
# Coordination Sequence:
#
# PCOD8291898 Si02
#       5
#    16  16  16  16  16
#     4  10  21  38  61  88 118 153 193 237 287 343
#     4  11  25  43  62  85 114 149 191 241 295 349
#     4  10  21  38  61  88 118 153 193 237 287 343
#     4   9  16  28  50  81 117 155 193 232 277 333
#     4   9  16  28  50  81 117 155 193 232 277 333
#
# _framework density 21.415866999999999
#
# number of rings (size 3 to 8) (size 9 to 14) (size 15 to 20)
#    0.000    2.200    0.000    3.000    0.000    9.600 
#    0.000    5.000    0.000    0.000    0.000    0.000 
#    0.000    0.000    0.000    0.000    0.000    0.000 
#
# Total GULP energy -496139.110473 kJ/mol
# GULP energy per Si atom -12403.477762 kJ/mol
# Density = 2.136712 g / cm^3
# Si number density = 21.415867 Si / 1000 Ang^3
#
#
#
# Elastic Constant Matrix: (Units=GPa)
#
#
# Indices 1 2 3 4 5 6 
#
# 1 8.8974 1.5556 9.7946 0.0000 -0.0006 -0.0014
# 2 1.5556 91.9851 39.2965 -0.0021 0.0000 -0.0049
# 3 9.7946 39.2965 139.6430 -0.0031 -0.0057 -0.0043
# 4 0.0000 -0.0021 -0.0031 42.1347 -0.0007 -0.0049
# 5 -0.0006 0.0000 -0.0057 -0.0007 24.6348 -0.0090
# 6 -0.0014 -0.0049 -0.0043 -0.0049 -0.0090 224.8840
#
#
#
# Elastic Compliance Matrix: (Units=1/GPa)
#
#
# Indices 1 2 3 4 5 6 
#
# 1 0.122062 0.001811 -0.009071 0.000000 0.000001 0.000001
# 2 0.001811 0.012384 -0.003612 0.000000 -0.000001 0.000000
# 3 -0.009071 -0.003612 0.008814 0.000000 0.000002 0.000000
# 4 0.000000 0.000000 0.000000 0.023733 0.000001 0.000001
# 5 0.000001 -0.000001 0.000002 0.000001 0.040593 0.000002
# 6 0.000001 0.000000 0.000000 0.000001 0.000002 0.004447
#
#
# Mechanical properties :
#
#
# Convention : Reuss Voigt Hill
#
# Bulk Modulus (GPa) = 8.22941 37.97988 23.10464
# Shear Modulus (GPa) = 18.22942 70.98927 44.60934
#
# Velocity S-wave (km/s) = 2.92072 5.76367 4.56895
# Velocity P-wave (km/s) = 3.90194 7.87821 6.21656
#
# Compressibility (1/GPa) = 0.12151545
#
# Stress axis : x y z
#
# Youngs Moduli (GPa) = 8.19255 80.75127 113.45877
#
# Poissons Ratio (x) = -0.14623 1.02919
# Poissons Ratio (y) = -0.01484 0.40980
# Poissons Ratio (z) = 0.07432 0.29166
#
# Static dielectric constant tensor:
#      x y z
#    x 3.652080 0.000000 0.000000 
#    y 0.000000 3.868170 -0.000010 
#    z 0.000000 -0.000010 4.016280 
# 
# 
# High freq. dielectric constant tensor:
#      x y z
#    x 1.831800 0.000000 0.000000 
#    y 0.000000 1.839020 0.000000 
#    z 0.000000 0.000000 1.854670 
# 
# From -- ./inp_files/8322.got.cif
#   From: 2010.06.25/outbox.cif.g09.slc.cpg/sg71_5_cif.got.tgz:8322.got - 2010.06.28 04:59:45.
