data_PCOD8291215
_publ_section_title
;
Structure prediction by ZEFSAII (Michael W. Deem and Ramdas Pophale) SiO2 
 PCOD8291215
Probable space group: I M M M
;
_chemical_formula_sum "Si O2"
_cell_formula_units_Z 88
_cell_length_a 23.952221
_cell_length_b 9.921016
_cell_length_c 18.506573
_cell_angle_alpha 90.000000
_cell_angle_beta 90.000000
_cell_angle_gamma 90.000000
_cell_volume 4397.723748
_symmetry_space_group_name_H-M "I M M M"
_symmetry_group_IT_number 71
_symmetry_cell_setting 'orthorhombic'
loop_
_space_group_symop_operation_xyz
x,y,z
-x,-y,z
x,-y,-z
-x,y,-z
-x,-y,-z
x,y,-z
-x,y,z
x,-y,z
1/2+x,1/2+y,1/2+z
1/2-x,1/2-y,1/2+z
1/2+x,1/2-y,1/2-z
1/2-x,1/2+y,1/2-z
1/2-x,1/2-y,1/2-z
1/2+x,1/2+y,1/2-z
1/2-x,1/2+y,1/2+z
1/2+x,1/2-y,1/2+z
loop_
_atom_site_type_symbol
_atom_site_label
_atom_site_fract_x
_atom_site_fract_y
_atom_site_fract_z
Si Si1 0.593176 0.243851 0.806924
Si Si2 0.000000 0.838696 0.585158
Si Si3 0.652959 0.000000 0.585494
Si Si4 0.605879 0.500000 0.579262
Si Si5 0.937294 0.000000 0.227916
Si Si6 0.783371 0.651928 0.696875
Si Si7 0.199350 0.215539 0.918983
Si Si8 0.061345 0.500000 0.207281
O O1 0.555447 0.274229 0.877903
O O2 0.596662 0.372995 0.755820
O O3 0.656592 0.208654 0.827198
O O4 0.567171 0.127595 0.758839
O O5 0.000000 0.801112 0.500000
O O6 0.000000 0.000000 0.595475
O O7 0.689187 0.869168 0.606138
O O8 0.635848 0.000000 0.500000
O O9 0.599583 0.000000 0.636810
O O10 0.577363 0.500000 0.500000
O O11 0.559077 0.500000 0.640891
O O12 0.642151 0.365749 0.589163
O O13 0.000000 0.000000 0.259529
O O14 0.790026 0.500000 0.729534
O O15 0.750000 0.750000 0.750000
O O16 0.747584 0.642818 0.624794
O O17 0.221351 0.213114 0.000000
O O18 0.000000 0.500000 0.173539
#
# Coordination Sequence:
#
# PCOD8291215 Si02
#       8
#    16   8   8   8   8  16  16   8
#     4  12  24  42  64  99 128 166 220 272 334 386
#     4  11  24  49  75  97 128 175 227 279 335 405
#     4  10  22  40  61  93 129 174 219 259 305 376
#     4  10  20  36  61  91 125 170 213 257 311 378
#     4  12  22  40  65  89 127 171 214 262 320 385
#     4  12  26  40  65  98 133 168 216 270 325 394
#     4  10  22  41  62  86 126 170 211 254 318 381
#     4  12  22  38  65  91 135 169 212 268 324 379
#
# _framework density 20.010352000000001
#
# number of rings (size 3 to 8) (size 9 to 14) (size 15 to 20)
#    0.000    0.818    4.545    3.273    2.545    1.091 
#    0.000    0.909    0.000    5.455    0.000    0.000 
#    0.000    0.000    0.000    0.000    0.000    0.000 
#
# Total GULP energy -545540.654058 kJ/mol
# GULP energy per Si atom -12398.651229 kJ/mol
# Density = 1.996481 g / cm^3
# Si number density = 20.010352 Si / 1000 Ang^3
#
#
#
# Elastic Constant Matrix: (Units=GPa)
#
#
# Indices 1 2 3 4 5 6 
#
# 1 102.0705 25.0215 49.1204 0.0000 0.0000 0.0000
# 2 25.0215 146.5464 38.9439 0.0000 0.0000 0.0000
# 3 49.1204 38.9439 116.0952 0.0000 0.0000 0.0000
# 4 0.0000 0.0000 0.0000 22.6833 0.0000 0.0000
# 5 0.0000 0.0000 0.0000 0.0000 33.0197 0.0000
# 6 0.0000 0.0000 0.0000 0.0000 0.0000 22.9255
#
#
#
# Elastic Compliance Matrix: (Units=1/GPa)
#
#
# Indices 1 2 3 4 5 6 
#
# 1 0.012385 -0.000793 -0.004974 0.000000 0.000000 0.000000
# 2 -0.000793 0.007542 -0.002195 0.000000 0.000000 0.000000
# 3 -0.004974 -0.002195 0.011454 0.000000 0.000000 0.000000
# 4 0.000000 0.000000 0.000000 0.044085 0.000000 0.000000
# 5 0.000000 0.000000 0.000000 0.000000 0.030285 0.000000
# 6 0.000000 0.000000 0.000000 0.000000 0.000000 0.043620
#
#
# Mechanical properties :
#
#
# Convention : Reuss Voigt Hill
#
# Bulk Modulus (GPa) = 64.68879 65.65374 65.17127
# Shear Modulus (GPa) = 29.33441 32.50080 30.91760
#
# Velocity S-wave (km/s) = 3.83294 4.03451 3.93502
# Velocity P-wave (km/s) = 7.21016 7.38811 7.29968
#
# Compressibility (1/GPa) = 0.01545863
#
# Stress axis : x y z
#
# Youngs Moduli (GPa) = 80.74056 132.58463 87.30208
#
# Poissons Ratio (x) = 0.10511 0.43427
# Poissons Ratio (y) = 0.06401 0.19160
# Poissons Ratio (z) = 0.40163 0.29098
#
# Static dielectric constant tensor:
#      x y z
#    x 3.545900 0.000000 0.000000 
#    y 0.000000 4.663700 0.000000 
#    z 0.000000 0.000000 3.804230 
# 
# 
# High freq. dielectric constant tensor:
#      x y z
#    x 1.771400 0.000000 0.000000 
#    y 0.000000 1.803480 0.000000 
#    z 0.000000 0.000000 1.785800 
# 
# From -- ./inp_files/55643.got.cif
#   From: 2010.06.25/outbox.cif.g09.slc.cpg/sg71_28_cif.got.tgz:55643.got - 2010.06.28 04:59:45.
