data_PCOD8291387
_publ_section_title
;
Structure prediction by ZEFSAII (Michael W. Deem and Ramdas Pophale) SiO2 
 PCOD8291387
Probable space group: I M M M
;
_chemical_formula_sum "Si O2"
_cell_formula_units_Z 80
_cell_length_a 20.315712
_cell_length_b 18.195061
_cell_length_c 13.122730
_cell_angle_alpha 90.000000
_cell_angle_beta 90.000000
_cell_angle_gamma 90.000000
_cell_volume 4850.759655
_symmetry_space_group_name_H-M "I M M M"
_symmetry_group_IT_number 71
_symmetry_cell_setting 'orthorhombic'
loop_
_space_group_symop_operation_xyz
x,y,z
-x,-y,z
x,-y,-z
-x,y,-z
-x,-y,-z
x,y,-z
-x,y,z
x,-y,z
1/2+x,1/2+y,1/2+z
1/2-x,1/2-y,1/2+z
1/2+x,1/2-y,1/2-z
1/2-x,1/2+y,1/2-z
1/2-x,1/2-y,1/2-z
1/2+x,1/2+y,1/2-z
1/2-x,1/2+y,1/2+z
1/2+x,1/2-y,1/2+z
loop_
_atom_site_type_symbol
_atom_site_label
_atom_site_fract_x
_atom_site_fract_y
_atom_site_fract_z
Si Si1 0.801644 0.851050 0.302365
Si Si2 0.573193 0.583284 0.880408
Si Si3 0.752410 0.000000 0.614722
Si Si4 0.804941 0.753784 0.117137
Si Si5 0.927197 0.657790 0.879829
Si Si6 0.598941 0.000000 0.611822
O O1 0.878343 0.855673 0.333618
O O2 0.770910 0.930427 0.318004
O O3 0.797225 0.827283 0.184213
O O4 0.761426 0.794131 0.372849
O O5 0.500000 0.595375 0.834881
O O6 0.597711 0.500000 0.854654
O O7 0.570891 0.594685 0.000000
O O8 0.675977 0.000000 0.598377
O O9 0.785515 0.000000 0.500000
O O10 0.868700 0.709710 0.161668
O O11 0.814653 0.777094 0.000000
O O12 0.923027 0.575329 0.831062
O O13 0.000000 0.690707 0.855465
O O14 0.914851 0.650477 0.000000
O O15 0.565496 0.000000 0.500000
#
# Coordination Sequence:
#
# PCOD8291387 Si02
#       6
#    16  16   8  16  16   8
#     4  11  20  31  52  72  93 129 161 200 243 289
#     4   9  17  29  48  74  97 116 149 202 251 282
#     4  11  18  29  52  76  94 116 155 203 245 281
#     4  10  21  34  46  69 100 131 163 194 234 290
#     4   9  16  27  44  67  96 127 155 186 229 278
#     4   9  15  24  43  70  97 120 150 191 227 270
#
# _framework density 16.492262
#
# number of rings (size 3 to 8) (size 9 to 14) (size 15 to 20)
#    0.000    2.200    3.000    2.700    0.000    2.000 
#    0.000    0.500    0.000    0.000    0.000    1.400 
#    0.000    0.000    0.000    5.200    0.000    0.800 
#
# Total GULP energy -495670.373686 kJ/mol
# GULP energy per Si atom -12391.759342 kJ/mol
# Density = 1.645472 g / cm^3
# Si number density = 16.492262 Si / 1000 Ang^3
#
#
#
# Elastic Constant Matrix: (Units=GPa)
#
#
# Indices 1 2 3 4 5 6 
#
# 1 109.9770 40.8908 30.5732 0.0000 0.0000 0.0000
# 2 40.8908 91.0677 45.7391 0.0000 0.0000 0.0000
# 3 30.5732 45.7391 60.9687 0.0000 0.0000 0.0000
# 4 0.0000 0.0000 0.0000 17.8258 0.0000 0.0000
# 5 0.0000 0.0000 0.0000 0.0000 12.4163 0.0000
# 6 0.0000 0.0000 0.0000 0.0000 0.0000 18.9843
#
#
#
# Elastic Compliance Matrix: (Units=1/GPa)
#
#
# Indices 1 2 3 4 5 6 
#
# 1 0.011240 -0.003556 -0.002969 0.000000 0.000000 0.000000
# 2 -0.003556 0.018745 -0.012279 0.000000 0.000000 0.000000
# 3 -0.002969 -0.012279 0.027103 0.000000 0.000000 0.000000
# 4 0.000000 0.000000 0.000000 0.056098 0.000000 0.000000
# 5 0.000000 0.000000 0.000000 0.000000 0.080539 0.000000
# 6 0.000000 0.000000 0.000000 0.000000 0.000000 0.052675
#
#
# Mechanical properties :
#
#
# Convention : Reuss Voigt Hill
#
# Bulk Modulus (GPa) = 51.33593 55.15772 53.24683
# Shear Modulus (GPa) = 17.21160 19.49932 18.35546
#
# Velocity S-wave (km/s) = 3.23401 3.44223 3.33975
# Velocity P-wave (km/s) = 6.71863 7.02252 6.87226
#
# Compressibility (1/GPa) = 0.01947953
#
# Stress axis : x y z
#
# Youngs Moduli (GPa) = 88.96579 53.34793 36.89672
#
# Poissons Ratio (x) = 0.18970 0.10954
# Poissons Ratio (y) = 0.31636 0.45307
# Poissons Ratio (z) = 0.26412 0.65508
#
# Static dielectric constant tensor:
#      x y z
#    x 3.516620 0.000000 0.000000 
#    y 0.000000 3.124450 0.000000 
#    z 0.000000 0.000000 2.657630 
# 
# 
# High freq. dielectric constant tensor:
#      x y z
#    x 1.662560 0.000000 0.000000 
#    y 0.000000 1.622240 0.000000 
#    z 0.000000 0.000000 1.574830 
# 
# From -- ./inp_files/27371.got.cif
#   From: 2010.06.25/outbox.cif.g09.slc.cpg/sg71_14_cif.got.tgz:27371.got - 2010.06.28 04:59:45.
