data_PCOD8291960
_publ_section_title
;
Structure prediction by ZEFSAII (Michael W. Deem and Ramdas Pophale) SiO2 
 PCOD8291960
Probable space group: I M M M
;
_chemical_formula_sum "Si O2"
_cell_formula_units_Z 88
_cell_length_a 26.826632
_cell_length_b 19.048523
_cell_length_c 9.254083
_cell_angle_alpha 90.000000
_cell_angle_beta 90.000000
_cell_angle_gamma 90.000000
_cell_volume 4728.907824
_symmetry_space_group_name_H-M "I M M M"
_symmetry_group_IT_number 71
_symmetry_cell_setting 'orthorhombic'
loop_
_space_group_symop_operation_xyz
x,y,z
-x,-y,z
x,-y,-z
-x,y,-z
-x,-y,-z
x,y,-z
-x,y,z
x,-y,z
1/2+x,1/2+y,1/2+z
1/2-x,1/2-y,1/2+z
1/2+x,1/2-y,1/2-z
1/2-x,1/2+y,1/2-z
1/2-x,1/2-y,1/2-z
1/2+x,1/2+y,1/2-z
1/2-x,1/2+y,1/2+z
1/2+x,1/2-y,1/2+z
loop_
_atom_site_type_symbol
_atom_site_label
_atom_site_fract_x
_atom_site_fract_y
_atom_site_fract_z
Si Si1 0.733784 0.317978 0.165330
Si Si2 0.000000 0.417650 0.828807
Si Si3 0.406421 0.850433 0.830170
Si Si4 0.056079 0.077896 0.170359
Si Si5 0.616999 0.308537 0.163239
Si Si6 0.197681 0.582567 0.664803
O O1 0.750000 0.250000 0.250000
O O2 0.674964 0.324143 0.177829
O O3 0.759430 0.385859 0.234800
O O4 0.751056 0.311437 0.000000
O O5 0.951532 0.381422 0.761592
O O6 0.000000 0.500000 0.790081
O O7 0.000000 0.405312 0.000000
O O8 0.397480 0.769652 0.787003
O O9 0.356779 0.892225 0.785577
O O10 0.418138 0.859220 0.000000
O O11 0.090812 0.136293 0.235589
O O12 0.000000 0.090350 0.225588
O O13 0.074029 0.000000 0.217638
O O14 0.058484 0.084932 0.000000
O O15 0.598845 0.320055 0.000000
O O16 0.207083 0.607111 0.500000
O O17 0.200592 0.500000 0.681396
#
# Coordination Sequence:
#
# PCOD8291960 Si02
#       6
#    16   8  16  16  16  16
#     4  11  22  39  60  84 118 154 193 240 290 343
#     4  11  25  41  57  85 122 153 192 245 293 342
#     4  10  21  40  62  85 116 156 198 237 285 347
#     4   9  20  39  60  84 116 152 190 233 284 342
#     4  10  22  38  59  87 117 149 192 240 283 340
#     4  10  21  39  63  89 118 154 197 240 286 346
#
# _framework density 18.608947000000001
#
# number of rings (size 3 to 8) (size 9 to 14) (size 15 to 20)
#    0.000    1.909    1.818    1.909    1.273    6.182 
#    0.000    4.545    0.000    0.000    0.000    0.000 
#    0.000    0.000    0.000    0.000    0.000    0.000 
#
# Total GULP energy -545686.729525 kJ/mol
# GULP energy per Si atom -12401.971126 kJ/mol
# Density = 1.856659 g / cm^3
# Si number density = 18.608947 Si / 1000 Ang^3
#
#
#
# Elastic Constant Matrix: (Units=GPa)
#
#
# Indices 1 2 3 4 5 6 
#
# 1 98.1102 64.6914 57.9989 0.0000 0.0000 0.0000
# 2 64.6914 112.7469 58.9580 0.0000 0.0000 0.0000
# 3 57.9989 58.9580 84.9442 0.0000 0.0000 0.0000
# 4 0.0000 0.0000 0.0000 35.3900 0.0000 0.0000
# 5 0.0000 0.0000 0.0000 0.0000 34.3298 0.0000
# 6 0.0000 0.0000 0.0000 0.0000 0.0000 32.6817
#
#
#
# Elastic Compliance Matrix: (Units=1/GPa)
#
#
# Indices 1 2 3 4 5 6 
#
# 1 0.019922 -0.006778 -0.008898 0.000000 0.000000 0.000000
# 2 -0.006778 0.016228 -0.006636 0.000000 0.000000 0.000000
# 3 -0.008898 -0.006636 0.022454 0.000000 0.000000 0.000000
# 4 0.000000 0.000000 0.000000 0.028257 0.000000 0.000000
# 5 0.000000 0.000000 0.000000 0.000000 0.029129 0.000000
# 6 0.000000 0.000000 0.000000 0.000000 0.000000 0.030598
#
#
# Mechanical properties :
#
#
# Convention : Reuss Voigt Hill
#
# Bulk Modulus (GPa) = 71.52869 73.23311 72.38090
# Shear Modulus (GPa) = 25.52680 28.09048 26.80864
#
# Velocity S-wave (km/s) = 3.70773 3.88946 3.79968
# Velocity P-wave (km/s) = 7.53996 7.72073 7.63088
#
# Compressibility (1/GPa) = 0.01398040
#
# Stress axis : x y z
#
# Youngs Moduli (GPa) = 50.19608 61.62011 44.53532
#
# Poissons Ratio (x) = 0.41764 0.39629
# Poissons Ratio (y) = 0.34021 0.29555
# Poissons Ratio (z) = 0.44666 0.40892
#
# Static dielectric constant tensor:
#      x y z
#    x 3.375350 0.000000 0.000000 
#    y 0.000000 3.586230 0.000000 
#    z 0.000000 0.000000 3.631820 
# 
# 
# High freq. dielectric constant tensor:
#      x y z
#    x 1.729280 0.000000 0.000000 
#    y 0.000000 1.736300 0.000000 
#    z 0.000000 0.000000 1.720840 
# 
# From -- ./inp_files/10465.got.cif
#   From: 2010.06.25/outbox.cif.g09.slc.cpg/sg71_6_cif.got.tgz:10465.got - 2010.06.28 04:59:45.
