data_PCOD8291284
_publ_section_title
;
Structure prediction by ZEFSAII (Michael W. Deem and Ramdas Pophale) SiO2 
 PCOD8291284
Probable space group: I M M M
;
_chemical_formula_sum "Si O2"
_cell_formula_units_Z 68
_cell_length_a 28.078359
_cell_length_b 7.706597
_cell_length_c 15.784916
_cell_angle_alpha 90.000000
_cell_angle_beta 90.000000
_cell_angle_gamma 90.000000
_cell_volume 3415.675831
_symmetry_space_group_name_H-M "I M M M"
_symmetry_group_IT_number 71
_symmetry_cell_setting 'orthorhombic'
loop_
_space_group_symop_operation_xyz
x,y,z
-x,-y,z
x,-y,-z
-x,y,-z
-x,-y,-z
x,y,-z
-x,y,z
x,-y,z
1/2+x,1/2+y,1/2+z
1/2-x,1/2-y,1/2+z
1/2+x,1/2-y,1/2-z
1/2-x,1/2+y,1/2-z
1/2-x,1/2-y,1/2-z
1/2+x,1/2+y,1/2-z
1/2-x,1/2+y,1/2+z
1/2+x,1/2-y,1/2+z
loop_
_atom_site_type_symbol
_atom_site_label
_atom_site_fract_x
_atom_site_fract_y
_atom_site_fract_z
Si Si1 0.553556 0.193148 0.218257
Si Si2 0.944515 0.000000 0.841716
Si Si3 0.133143 0.795567 0.597476
Si Si4 0.376495 0.500000 0.500000
Si Si5 0.701030 0.791997 0.500000
Si Si6 0.733828 0.297304 0.843816
O O1 0.500000 0.235416 0.187042
O O2 0.569252 0.328859 0.289327
O O3 0.587686 0.203240 0.137627
O O4 0.556520 0.000000 0.257603
O O5 0.000000 0.000000 0.868321
O O6 0.910856 0.000000 0.920918
O O7 0.134871 0.743959 0.500000
O O8 0.181192 0.720197 0.640726
O O9 0.128268 0.000000 0.610873
O O10 0.346653 0.321703 0.500000
O O11 0.729780 0.731902 0.584066
O O12 0.689933 0.000000 0.500000
O O13 0.730040 0.500000 0.855484
O O14 0.750000 0.250000 0.750000
#
# Coordination Sequence:
#
# PCOD8291284 Si02
#       6
#    16   8  16   4   8  16
#     4  10  22  40  63  92 126 162 206 258 314 377
#     4  10  23  46  67  92 127 163 206 264 319 376
#     4  10  20  37  61  87 122 166 209 253 308 371
#     4  12  27  40  72  94 124 162 217 258 318 390
#     4  10  24  45  61  93 135 165 203 268 315 367
#     4  10  22  39  60  85 123 166 207 256 312 371
#
# _framework density 19.908211999999999
#
# number of rings (size 3 to 8) (size 9 to 14) (size 15 to 20)
#    0.000    1.882    2.353    0.176    4.941    2.824 
#    0.000    2.353    0.000    3.529    0.000    0.000 
#    0.000    0.000    0.000    0.000    0.000    0.000 
#
# Total GULP energy -421579.624848 kJ/mol
# GULP energy per Si atom -12399.400731 kJ/mol
# Density = 1.986290 g / cm^3
# Si number density = 19.908212 Si / 1000 Ang^3
#
#
#
# Elastic Constant Matrix: (Units=GPa)
#
#
# Indices 1 2 3 4 5 6 
#
# 1 139.9608 44.1212 92.2823 0.0000 0.0000 0.0000
# 2 44.1212 88.9803 42.7525 0.0000 0.0000 0.0000
# 3 92.2823 42.7525 159.6406 0.0000 0.0000 0.0000
# 4 0.0000 0.0000 0.0000 9.2493 0.0000 0.0000
# 5 0.0000 0.0000 0.0000 0.0000 44.8591 0.0000
# 6 0.0000 0.0000 0.0000 0.0000 0.0000 12.6584
#
#
#
# Elastic Compliance Matrix: (Units=1/GPa)
#
#
# Indices 1 2 3 4 5 6 
#
# 1 0.012231 -0.003062 -0.006250 0.000000 0.000000 0.000000
# 2 -0.003062 0.013664 -0.001890 0.000000 0.000000 0.000000
# 3 -0.006250 -0.001890 0.010383 0.000000 0.000000 0.000000
# 4 0.000000 0.000000 0.000000 0.108116 0.000000 0.000000
# 5 0.000000 0.000000 0.000000 0.000000 0.022292 0.000000
# 6 0.000000 0.000000 0.000000 0.000000 0.000000 0.078999
#
#
# Mechanical properties :
#
#
# Convention : Reuss Voigt Hill
#
# Bulk Modulus (GPa) = 72.06953 82.98820 77.52887
# Shear Modulus (GPa) = 18.33414 27.31507 22.82461
#
# Velocity S-wave (km/s) = 3.03798 3.70814 3.38966
# Velocity P-wave (km/s) = 6.97031 7.75304 7.37207
#
# Compressibility (1/GPa) = 0.01387549
#
# Stress axis : x y z
#
# Youngs Moduli (GPa) = 81.75781 73.18243 96.30881
#
# Poissons Ratio (x) = 0.22406 0.60198
# Poissons Ratio (y) = 0.25032 0.18198
# Poissons Ratio (z) = 0.51103 0.13828
#
# Static dielectric constant tensor:
#      x y z
#    x 3.781910 0.000000 0.000000 
#    y 0.000000 3.736130 0.000000 
#    z 0.000000 0.000000 3.423340 
# 
# 
# High freq. dielectric constant tensor:
#      x y z
#    x 1.787350 0.000000 0.000000 
#    y 0.000000 1.779660 0.000000 
#    z 0.000000 0.000000 1.771490 
# 
# From -- ./inp_files/46871.got.cif
#   From: 2010.06.25/outbox.cif.g09.slc.cpg/sg71_24_cif.got.tgz:46871.got - 2010.06.28 04:59:45.
