data_PCOD8291426
_publ_section_title
;
Structure prediction by ZEFSAII (Michael W. Deem and Ramdas Pophale) SiO2 
 PCOD8291426
Probable space group: I M M M
;
_chemical_formula_sum "Si O2"
_cell_formula_units_Z 88
_cell_length_a 9.450507
_cell_length_b 28.323928
_cell_length_c 17.365873
_cell_angle_alpha 90.000000
_cell_angle_beta 90.000000
_cell_angle_gamma 90.000000
_cell_volume 4648.418388
_symmetry_space_group_name_H-M "I M M M"
_symmetry_group_IT_number 71
_symmetry_cell_setting 'orthorhombic'
loop_
_space_group_symop_operation_xyz
x,y,z
-x,-y,z
x,-y,-z
-x,y,-z
-x,-y,-z
x,y,-z
-x,y,z
x,-y,z
1/2+x,1/2+y,1/2+z
1/2-x,1/2-y,1/2+z
1/2+x,1/2-y,1/2-z
1/2-x,1/2+y,1/2-z
1/2-x,1/2-y,1/2-z
1/2+x,1/2+y,1/2-z
1/2-x,1/2+y,1/2+z
1/2+x,1/2-y,1/2+z
loop_
_atom_site_type_symbol
_atom_site_label
_atom_site_fract_x
_atom_site_fract_y
_atom_site_fract_z
Si Si1 0.835409 0.265384 0.175730
Si Si2 0.660122 0.500000 0.591745
Si Si3 0.656228 0.327478 0.409379
Si Si4 0.340948 0.087979 0.908066
Si Si5 0.333579 0.859059 0.411033
Si Si6 0.659682 0.552075 0.091432
O O1 0.750000 0.250000 0.250000
O O2 0.804916 0.225833 0.111724
O O3 0.781666 0.314853 0.140336
O O4 0.000000 0.268687 0.197279
O O5 0.500000 0.500000 0.624626
O O6 0.655295 0.500000 0.500000
O O7 0.744382 0.454618 0.622866
O O8 0.655783 0.332009 0.500000
O O9 0.500000 0.340792 0.377283
O O10 0.771896 0.363783 0.375562
O O11 0.500000 0.083496 0.875004
O O12 0.345269 0.087385 0.000000
O O13 0.290839 0.849780 0.500000
O O14 0.500000 0.866344 0.403721
O O15 0.260080 0.906239 0.377083
O O16 0.500000 0.562126 0.119410
O O17 0.708815 0.500000 0.121460
O O18 0.666690 0.551863 0.000000
#
# Coordination Sequence:
#
# PCOD8291426 Si02
#       6
#    16   8  16  16  16  16
#     4  10  21  35  50  70  96 128 164 202 245 290
#     4   9  15  23  37  59  89 123 155 185 224 279
#     4   9  17  31  50  69  91 122 159 196 237 288
#     4   9  16  25  39  63  93 120 148 188 236 279
#     4   9  17  30  49  73 100 130 166 206 245 287
#     4   8  14  25  42  68 102 133 159 192 238 291
#
# _framework density 18.931170000000002
#
# number of rings (size 3 to 8) (size 9 to 14) (size 15 to 20)
#    0.000    3.000    0.000    1.909    0.000    7.273 
#    0.000    1.818    0.000    5.455    2.364    0.000 
#    0.000    0.000    0.000    0.000    0.000    0.000 
#
# Total GULP energy -545362.748252 kJ/mol
# GULP energy per Si atom -12394.607915 kJ/mol
# Density = 1.888808 g / cm^3
# Si number density = 18.931170 Si / 1000 Ang^3
#
#
#
# Elastic Constant Matrix: (Units=GPa)
#
#
# Indices 1 2 3 4 5 6 
#
# 1 113.8370 90.6497 21.2813 0.0000 0.0000 0.0000
# 2 90.6497 190.1187 30.2307 0.0000 0.0000 0.0000
# 3 21.2813 30.2307 24.0598 -0.0001 0.0000 0.0000
# 4 0.0000 0.0000 -0.0001 8.1856 0.0000 0.0000
# 5 0.0000 0.0000 0.0000 0.0000 17.8675 0.0000
# 6 0.0000 0.0000 0.0000 0.0000 0.0000 35.7476
#
#
#
# Elastic Compliance Matrix: (Units=1/GPa)
#
#
# Indices 1 2 3 4 5 6 
#
# 1 0.014670 -0.006163 -0.005233 0.000000 0.000000 0.000000
# 2 -0.006163 0.009162 -0.006061 0.000000 0.000000 0.000000
# 3 -0.005233 -0.006061 0.053807 0.000001 0.000000 0.000000
# 4 0.000000 0.000000 0.000001 0.122166 0.000000 0.000000
# 5 0.000000 0.000000 0.000000 0.000000 0.055968 0.000000
# 6 0.000000 0.000000 0.000000 0.000000 0.000000 0.027974
#
#
# Mechanical properties :
#
#
# Convention : Reuss Voigt Hill
#
# Bulk Modulus (GPa) = 23.40467 68.03766 45.72117
# Shear Modulus (GPa) = 15.01946 24.75039 19.88493
#
# Velocity S-wave (km/s) = 2.81974 3.61971 3.24447
# Velocity P-wave (km/s) = 4.79491 7.31349 6.18378
#
# Compressibility (1/GPa) = 0.04272652
#
# Stress axis : x y z
#
# Youngs Moduli (GPa) = 68.16531 109.14552 18.58504
#
# Poissons Ratio (x) = 0.67264 0.09725
# Poissons Ratio (y) = 0.42009 0.11264
# Poissons Ratio (z) = 0.35668 0.66152
#
# Static dielectric constant tensor:
#      x y z
#    x 3.642970 0.000000 0.000000 
#    y 0.000000 4.002250 -0.000020 
#    z 0.000000 -0.000020 2.356510 
# 
# 
# High freq. dielectric constant tensor:
#      x y z
#    x 1.735400 0.000000 0.000000 
#    y 0.000000 1.753170 0.000000 
#    z 0.000000 0.000000 1.673780 
# 
# From -- ./inp_files/42465.got.cif
#   From: 2010.06.25/outbox.cif.g09.slc.cpg/sg71_22_cif.got.tgz:42465.got - 2010.06.28 04:59:45.
