data_PCOD8291980
_publ_section_title
;
Structure prediction by ZEFSAII (Michael W. Deem and Ramdas Pophale) SiO2 
 PCOD8291980
Probable space group: I M M M
;
_chemical_formula_sum "Si O2"
_cell_formula_units_Z 88
_cell_length_a 20.584719
_cell_length_b 24.240508
_cell_length_c 8.981785
_cell_angle_alpha 90.000000
_cell_angle_beta 90.000000
_cell_angle_gamma 90.000000
_cell_volume 4481.767416
_symmetry_space_group_name_H-M "I M M M"
_symmetry_group_IT_number 71
_symmetry_cell_setting 'orthorhombic'
loop_
_space_group_symop_operation_xyz
x,y,z
-x,-y,z
x,-y,-z
-x,y,-z
-x,-y,-z
x,y,-z
-x,y,z
x,-y,z
1/2+x,1/2+y,1/2+z
1/2-x,1/2-y,1/2+z
1/2+x,1/2-y,1/2-z
1/2-x,1/2+y,1/2-z
1/2-x,1/2-y,1/2-z
1/2+x,1/2+y,1/2-z
1/2-x,1/2+y,1/2+z
1/2+x,1/2-y,1/2+z
loop_
_atom_site_type_symbol
_atom_site_label
_atom_site_fract_x
_atom_site_fract_y
_atom_site_fract_z
Si Si1 0.136910 0.610299 0.329291
Si Si2 0.216579 0.500000 0.334675
Si Si3 0.346307 0.500000 0.827454
Si Si4 0.929678 0.785603 0.823340
Si Si5 0.926072 0.091234 0.828864
Si Si6 0.690876 0.783963 0.677880
Si Si7 0.000000 0.436314 0.322743
O O1 0.135358 0.630781 0.500000
O O2 0.172127 0.552589 0.312814
O O3 0.180105 0.653729 0.234498
O O4 0.063416 0.598770 0.269035
O O5 0.248175 0.500000 0.500000
O O6 0.270840 0.500000 0.209321
O O7 0.378173 0.445384 0.764671
O O8 0.357330 0.500000 0.000000
O O9 0.917672 0.847313 0.764567
O O10 0.874012 0.746073 0.764126
O O11 0.000000 0.764082 0.765911
O O12 0.930084 0.788038 0.000000
O O13 0.000000 0.070749 0.810503
O O14 0.904602 0.087637 0.000000
O O15 0.699315 0.783558 0.500000
O O16 0.750000 0.750000 0.750000
O O17 0.000000 0.500000 0.260597
O O18 0.000000 0.440435 0.500000
#
# Coordination Sequence:
#
# PCOD8291980 Si02
#       7
#    16   8   8  16  16  16   8
#     4  10  21  39  64  92 120 155 200 248 301 358
#     4  10  22  40  61  82 112 158 204 235 278 357
#     4  12  25  35  51  82 119 149 182 237 300 348
#     4   8  17  36  60  83 108 146 195 238 277 334
#     4   9  18  36  61  83 104 141 195 240 277 338
#     4  11  24  40  61  88 123 161 202 250 300 360
#     4   9  16  34  65  97 125 155 199 254 305 362
#
# _framework density 19.635110999999998
#
# number of rings (size 3 to 8) (size 9 to 14) (size 15 to 20)
#    0.000    2.273    0.909    2.727    3.818    2.182 
#    0.000    0.909    0.000    2.727    0.000    0.000 
#    0.000    0.000    0.000    0.000    0.000    0.000 
#
# Total GULP energy -545395.675696 kJ/mol
# GULP energy per Si atom -12395.356266 kJ/mol
# Density = 1.959042 g / cm^3
# Si number density = 19.635111 Si / 1000 Ang^3
#
#
#
# Elastic Constant Matrix: (Units=GPa)
#
#
# Indices 1 2 3 4 5 6 
#
# 1 121.6441 63.1810 44.3324 0.0000 0.0000 0.0000
# 2 63.1810 114.7430 35.1529 0.0000 0.0000 0.0000
# 3 44.3324 35.1529 68.0024 0.0000 0.0000 0.0000
# 4 0.0000 0.0000 0.0000 -32.4355 0.0000 0.0000
# 5 0.0000 0.0000 0.0000 0.0000 20.3552 0.0000
# 6 0.0000 0.0000 0.0000 0.0000 0.0000 29.7011
#
#
#
# Elastic Compliance Matrix: (Units=1/GPa)
#
#
# Indices 1 2 3 4 5 6 
#
# 1 0.013166 -0.005489 -0.005745 0.000000 0.000000 0.000000
# 2 -0.005489 0.012644 -0.002957 0.000000 0.000000 0.000000
# 3 -0.005745 -0.002957 0.019980 0.000000 0.000000 0.000000
# 4 0.000000 0.000000 0.000000 -0.030830 0.000000 0.000000
# 5 0.000000 0.000000 0.000000 0.000000 0.049128 0.000000
# 6 0.000000 0.000000 0.000000 0.000000 0.000000 0.033669
#
#
# Mechanical properties :
#
#
# Convention : Reuss Voigt Hill
#
# Bulk Modulus (GPa) = 57.45494 65.52468 61.48981
# Shear Modulus (GPa) = 37.89576 14.30570 26.10073
#
# Velocity S-wave (km/s) = 4.39794 2.70215 3.64990
# Velocity P-wave (km/s) = 7.42388 6.57108 7.01046
#
# Compressibility (1/GPa) = 0.01740494
#
# Stress axis : x y z
#
# Youngs Moduli (GPa) = 75.95520 79.09071 50.05071
#
# Poissons Ratio (x) = 0.43415 0.28756
# Poissons Ratio (y) = 0.41694 0.14802
# Poissons Ratio (z) = 0.43639 0.23390
#
# Static dielectric constant tensor:
#      x y z
#    x 3.955540 0.000000 0.000000 
#    y 0.000000 3.573780 0.000000 
#    z 0.000000 0.000000 3.268400 
# 
# 
# High freq. dielectric constant tensor:
#      x y z
#    x 1.778100 0.000000 0.000000 
#    y 0.000000 1.775350 0.000000 
#    z 0.000000 0.000000 1.728240 
# 
# From -- ./inp_files/10513.got.cif
#   From: 2010.06.25/outbox.cif.g09.slc.cpg/sg71_6_cif.got.tgz:10513.got - 2010.06.28 04:59:45.
