data_PCOD8291998
_publ_section_title
;
Structure prediction by ZEFSAII (Michael W. Deem and Ramdas Pophale) SiO2 
 PCOD8291998
Probable space group: I M M M
;
_chemical_formula_sum "Si O2"
_cell_formula_units_Z 88
_cell_length_a 25.019953
_cell_length_b 20.321190
_cell_length_c 8.733215
_cell_angle_alpha 90.000000
_cell_angle_beta 90.000000
_cell_angle_gamma 90.000000
_cell_volume 4440.274079
_symmetry_space_group_name_H-M "I M M M"
_symmetry_group_IT_number 71
_symmetry_cell_setting 'orthorhombic'
loop_
_space_group_symop_operation_xyz
x,y,z
-x,-y,z
x,-y,-z
-x,y,-z
-x,-y,-z
x,y,-z
-x,y,z
x,-y,z
1/2+x,1/2+y,1/2+z
1/2-x,1/2-y,1/2+z
1/2+x,1/2-y,1/2-z
1/2-x,1/2+y,1/2-z
1/2-x,1/2-y,1/2-z
1/2+x,1/2+y,1/2-z
1/2-x,1/2+y,1/2+z
1/2+x,1/2-y,1/2+z
loop_
_atom_site_type_symbol
_atom_site_label
_atom_site_fract_x
_atom_site_fract_y
_atom_site_fract_z
Si Si1 0.827120 0.500000 0.677355
Si Si2 0.500000 0.075717 0.678908
Si Si3 0.214396 0.000000 0.320885
Si Si4 0.308676 0.756303 0.322358
Si Si5 0.558957 0.423073 0.329995
Si Si6 0.116370 0.378602 0.818983
Si Si7 0.345709 0.627607 0.823895
O O1 0.810653 0.500000 0.500000
O O2 0.775894 0.500000 0.784159
O O3 0.860694 0.563533 0.717189
O O4 0.500000 0.064670 0.500000
O O5 0.552668 0.119745 0.723019
O O6 0.500000 0.000000 0.749953
O O7 0.188173 0.933472 0.255068
O O8 0.203704 0.000000 0.500000
O O9 0.298961 0.766214 0.500000
O O10 0.250000 0.750000 0.250000
O O11 0.349676 0.813970 0.266420
O O12 0.337307 0.688879 0.285167
O O13 0.582485 0.408345 0.500000
O O14 0.500000 0.392880 0.318499
O O15 0.557342 0.500000 0.299786
O O16 0.592378 0.389920 0.194573
O O17 0.124386 0.391190 0.000000
O O18 0.331428 0.643658 0.000000
#
# Coordination Sequence:
#
# PCOD8291998 Si02
#       7
#     8   8   8  16  16  16  16
#     4  12  24  35  57  91 120 148 188 242 298 357
#     4   9  16  34  68  96 114 147 196 247 293 355
#     4  10  22  38  56  82 114 155 201 245 292 353
#     4  11  24  41  61  87 120 160 203 251 305 365
#     4   9  18  34  57  84 114 148 189 239 290 343
#     4  10  21  40  64  88 117 156 200 244 296 363
#     4  11  22  38  59  84 117 155 198 247 300 360
#
# _framework density 19.818594999999998
#
# number of rings (size 3 to 8) (size 9 to 14) (size 15 to 20)
#    0.000    1.727    1.818    3.545    0.000    7.636 
#    1.636    1.818    0.000    0.000    0.000    0.000 
#    0.000    0.000    0.000    0.000    0.000    0.000 
#
# Total GULP energy -545194.961611 kJ/mol
# GULP energy per Si atom -12390.794582 kJ/mol
# Density = 1.977349 g / cm^3
# Si number density = 19.818595 Si / 1000 Ang^3
#
#
#
# Elastic Constant Matrix: (Units=GPa)
#
#
# Indices 1 2 3 4 5 6 
#
# 1 150.8888 64.4104 20.6829 0.0000 0.0000 0.0000
# 2 64.4104 128.5923 25.0440 0.0000 0.0000 0.0000
# 3 20.6829 25.0440 29.1926 0.0000 0.0000 0.0000
# 4 0.0000 0.0000 0.0000 23.7764 0.0000 0.0000
# 5 0.0000 0.0000 0.0000 0.0000 31.8147 0.0000
# 6 0.0000 0.0000 0.0000 0.0000 0.0000 21.5124
#
#
#
# Elastic Compliance Matrix: (Units=1/GPa)
#
#
# Indices 1 2 3 4 5 6 
#
# 1 0.008628 -0.003759 -0.002888 0.000000 0.000000 0.000000
# 2 -0.003759 0.010974 -0.006751 0.000000 0.000000 0.000000
# 3 -0.002888 -0.006751 0.042093 0.000000 0.000000 0.000000
# 4 0.000000 0.000000 0.000000 0.042058 0.000000 0.000000
# 5 0.000000 0.000000 0.000000 0.000000 0.031432 0.000000
# 6 0.000000 0.000000 0.000000 0.000000 0.000000 0.046485
#
#
# Mechanical properties :
#
#
# Convention : Reuss Voigt Hill
#
# Bulk Modulus (GPa) = 28.65444 58.77205 43.71325
# Shear Modulus (GPa) = 22.71687 28.65646 25.68666
#
# Velocity S-wave (km/s) = 3.38929 3.80667 3.60403
# Velocity P-wave (km/s) = 5.45950 7.00289 6.27880
#
# Compressibility (1/GPa) = 0.03489860
#
# Stress axis : x y z
#
# Youngs Moduli (GPa) = 115.90221 91.12175 23.75675
#
# Poissons Ratio (x) = 0.34255 0.06861
# Poissons Ratio (y) = 0.43570 0.16039
# Poissons Ratio (z) = 0.33472 0.61520
#
# Static dielectric constant tensor:
#      x y z
#    x 4.544940 0.000000 0.000000 
#    y 0.000000 3.956350 0.000000 
#    z 0.000000 0.000000 3.504160 
# 
# 
# High freq. dielectric constant tensor:
#      x y z
#    x 1.788550 0.000000 0.000000 
#    y 0.000000 1.766740 0.000000 
#    z 0.000000 0.000000 1.752870 
# 
# From -- ./inp_files/12599.got.cif
#   From: 2010.06.25/outbox.cif.g09.slc.cpg/sg71_7_cif.got.tgz:12599.got - 2010.06.28 04:59:45.
