data_PCOD8291420
_publ_section_title
;
Structure prediction by ZEFSAII (Michael W. Deem and Ramdas Pophale) SiO2 
 PCOD8291420
Probable space group: I M M M
;
_chemical_formula_sum "Si O2"
_cell_formula_units_Z 64
_cell_length_a 9.109898
_cell_length_b 28.266457
_cell_length_c 14.319378
_cell_angle_alpha 90.000000
_cell_angle_beta 90.000000
_cell_angle_gamma 90.000000
_cell_volume 3687.304846
_symmetry_space_group_name_H-M "I M M M"
_symmetry_group_IT_number 71
_symmetry_cell_setting 'orthorhombic'
loop_
_space_group_symop_operation_xyz
x,y,z
-x,-y,z
x,-y,-z
-x,y,-z
-x,-y,-z
x,y,-z
-x,y,z
x,-y,z
1/2+x,1/2+y,1/2+z
1/2-x,1/2-y,1/2+z
1/2+x,1/2-y,1/2-z
1/2-x,1/2+y,1/2-z
1/2-x,1/2-y,1/2-z
1/2+x,1/2+y,1/2-z
1/2-x,1/2+y,1/2+z
1/2+x,1/2-y,1/2+z
loop_
_atom_site_type_symbol
_atom_site_label
_atom_site_fract_x
_atom_site_fract_y
_atom_site_fract_z
Si Si1 0.828242 0.055415 0.000000
Si Si2 0.332769 0.200394 0.000000
Si Si3 0.827709 0.619979 0.643020
Si Si4 0.325294 0.947533 0.500000
Si Si5 0.674283 0.126925 0.647590
Si Si6 0.826117 0.298462 0.000000
O O1 0.756959 0.077446 0.092844
O O2 0.000000 0.066751 0.000000
O O3 0.795391 0.000000 0.000000
O O4 0.297760 0.169457 0.091398
O O5 0.231085 0.245672 0.000000
O O6 0.500000 0.217671 0.000000
O O7 0.763501 0.625451 0.747473
O O8 0.000000 0.607511 0.641026
O O9 0.500000 0.950113 0.500000
O O10 0.271445 0.919766 0.592375
O O11 0.256013 0.000000 0.500000
O O12 0.500000 0.127980 0.651048
O O13 0.729951 0.173619 0.592448
O O14 0.000000 0.296711 0.000000
#
# Coordination Sequence:
#
# PCOD8291420 Si02
#       6
#     8   8  16   8  16   8
#     4  10  21  35  49  69  98 125 151 190 235 276
#     4   9  18  30  43  64  93 121 156 201 237 267
#     4   9  18  33  51  69  92 123 158 195 231 271
#     4   8  13  22  39  66  96 119 143 184 234 276
#     4   8  15  28  45  67  94 121 152 191 231 272
#     4   9  17  30  48  69  95 125 154 188 234 283
#
# _framework density 17.356850999999999
#
# number of rings (size 3 to 8) (size 9 to 14) (size 15 to 20)
#    0.000    3.250    0.000    2.625    0.000    5.000 
#    0.000    3.750    0.000    0.000    0.000    0.000 
#    0.000    7.000    0.000    0.000    0.000    0.000 
#
# Total GULP energy -396661.797602 kJ/mol
# GULP energy per Si atom -12395.681175 kJ/mol
# Density = 1.731735 g / cm^3
# Si number density = 17.356851 Si / 1000 Ang^3
#
#
#
# Elastic Constant Matrix: (Units=GPa)
#
#
# Indices 1 2 3 4 5 6 
#
# 1 36.6396 40.1337 32.9738 0.0003 0.0000 0.0000
# 2 40.1337 141.3241 79.0376 0.0005 0.0000 0.0000
# 3 32.9738 79.0376 185.7265 0.0021 0.0002 -0.0002
# 4 0.0003 0.0005 0.0021 13.6180 0.0001 -0.0001
# 5 0.0000 0.0000 0.0002 0.0001 5.5705 0.0002
# 6 0.0000 0.0000 -0.0002 -0.0001 0.0002 26.6038
#
#
#
# Elastic Compliance Matrix: (Units=1/GPa)
#
#
# Indices 1 2 3 4 5 6 
#
# 1 0.040885 -0.009910 -0.003042 0.000000 0.000000 0.000000
# 2 -0.009910 0.011688 -0.003215 0.000000 0.000000 0.000000
# 3 -0.003042 -0.003215 0.007292 -0.000001 0.000000 0.000000
# 4 0.000000 0.000000 -0.000001 0.073432 -0.000001 0.000000
# 5 0.000000 0.000000 0.000000 -0.000001 0.179518 -0.000001
# 6 0.000000 0.000000 0.000000 0.000000 -0.000001 0.037589
#
#
# Mechanical properties :
#
#
# Convention : Reuss Voigt Hill
#
# Bulk Modulus (GPa) = 36.31937 74.22007 55.26972
# Shear Modulus (GPa) = 12.75793 23.26144 18.00969
#
# Velocity S-wave (km/s) = 2.71410 3.66483 3.22469
# Velocity P-wave (km/s) = 5.54908 7.79500 6.76588
#
# Compressibility (1/GPa) = 0.02753352
#
# Stress axis : x y z
#
# Youngs Moduli (GPa) = 24.45901 85.55882 137.13215
#
# Poissons Ratio (x) = 0.84785 0.41710
# Poissons Ratio (y) = 0.24238 0.44082
# Poissons Ratio (z) = 0.07439 0.27503
#
# Static dielectric constant tensor:
#      x y z
#    x 2.813500 0.000000 0.000000 
#    y 0.000000 3.259130 0.000000 
#    z 0.000000 0.000000 3.721500 
# 
# 
# High freq. dielectric constant tensor:
#      x y z
#    x 1.626770 0.000000 0.000000 
#    y 0.000000 1.672470 0.000000 
#    z 0.000000 0.000000 1.679830 
# 
# From -- ./inp_files/31616.got.cif
#   From: 2010.06.25/outbox.cif.g09.slc.cpg/sg71_16_cif.got.tgz:31616.got - 2010.06.28 04:59:45.
