data_PCOD8291021
_publ_section_title
;
Structure prediction by ZEFSAII (Michael W. Deem and Ramdas Pophale) SiO2 
 PCOD8291021
Probable space group: I M M M
;
_chemical_formula_sum "Si O2"
_cell_formula_units_Z 82
_cell_length_a 24.973516
_cell_length_b 19.615386
_cell_length_c 8.680847
_cell_angle_alpha 90.000000
_cell_angle_beta 90.000000
_cell_angle_gamma 90.000000
_cell_volume 4252.444471
_symmetry_space_group_name_H-M "I M M M"
_symmetry_group_IT_number 71
_symmetry_cell_setting 'orthorhombic'
loop_
_space_group_symop_operation_xyz
x,y,z
-x,-y,z
x,-y,-z
-x,y,-z
-x,-y,-z
x,y,-z
-x,y,z
x,-y,z
1/2+x,1/2+y,1/2+z
1/2-x,1/2-y,1/2+z
1/2+x,1/2-y,1/2-z
1/2-x,1/2+y,1/2-z
1/2-x,1/2-y,1/2-z
1/2+x,1/2+y,1/2-z
1/2-x,1/2+y,1/2+z
1/2+x,1/2-y,1/2+z
loop_
_atom_site_type_symbol
_atom_site_label
_atom_site_fract_x
_atom_site_fract_y
_atom_site_fract_z
Si Si1 0.500000 0.000000 0.000000
Si Si2 0.000000 0.075732 0.183359
Si Si3 0.293553 0.578239 0.819618
Si Si4 0.500000 0.136599 0.833352
Si Si5 0.780976 0.685084 0.319327
Si Si6 0.604638 0.195407 0.324127
Si Si7 0.894426 0.145332 0.823874
O O1 0.500000 0.944610 0.860642
O O2 0.947185 0.111477 0.247128
O O3 0.000000 0.000000 0.248193
O O4 0.000000 0.079338 0.000000
O O5 0.298916 0.500000 0.763273
O O6 0.244628 0.613769 0.732446
O O7 0.346322 0.621152 0.782535
O O8 0.282378 0.581771 0.000000
O O9 0.446590 0.156237 0.740848
O O10 0.500000 0.175182 0.000000
O O11 0.775735 0.693259 0.500000
O O12 0.750000 0.750000 0.250000
O O13 0.842640 0.678899 0.273118
O O14 0.613825 0.172345 0.500000
O O15 0.594697 0.275256 0.313667
O O16 0.882694 0.122701 0.000000
#
# Coordination Sequence:
#
# PCOD8291021 Si02
#       7
#     2   8  16   8  16  16  16
#     4   8  24  48  70  92 136 172 220 280 336 406
#     4   9  17  30  50  81 116 156 202 244 289 356
#     4  11  24  41  60  88 127 169 211 260 319 387
#     4  10  22  44  68  94 127 169 213 266 328 391
#     4  12  24  41  65  94 127 168 215 268 329 391
#     4  11  22  39  66  98 127 163 213 273 324 387
#     4  10  20  35  59  87 121 163 208 258 315 373
#
# _framework density 19.283026
#
# number of rings (size 3 to 8) (size 9 to 14) (size 15 to 20)
#    0.293    1.073    1.951    4.390    0.000    4.683 
#    1.756    1.463    0.000    1.756    0.000    0.000 
#    0.000    0.000    0.000    0.000    0.000    0.000 
#
# Total GULP energy -507918.649690 kJ/mol
# GULP energy per Si atom -12388.259749 kJ/mol
# Density = 1.923914 g / cm^3
# Si number density = 19.283026 Si / 1000 Ang^3
#
#
#
# Elastic Constant Matrix: (Units=GPa)
#
#
# Indices 1 2 3 4 5 6 
#
# 1 134.3266 46.2932 35.8985 0.0000 0.0000 0.0000
# 2 46.2932 107.2228 44.4163 0.0000 0.0000 0.0000
# 3 35.8985 44.4163 110.2540 0.0000 0.0000 0.0000
# 4 0.0000 0.0000 0.0000 21.0602 0.0000 0.0000
# 5 0.0000 0.0000 0.0000 0.0000 42.0638 0.0000
# 6 0.0000 0.0000 0.0000 0.0000 0.0000 157.5861
#
#
#
# Elastic Compliance Matrix: (Units=1/GPa)
#
#
# Indices 1 2 3 4 5 6 
#
# 1 0.008985 -0.003202 -0.001636 0.000000 0.000000 0.000000
# 2 -0.003202 0.012335 -0.003927 0.000000 0.000000 0.000000
# 3 -0.001636 -0.003927 0.011185 0.000000 0.000000 0.000000
# 4 0.000000 0.000000 0.000000 0.047483 0.000000 0.000000
# 5 0.000000 0.000000 0.000000 0.000000 0.023773 0.000000
# 6 0.000000 0.000000 0.000000 0.000000 0.000000 0.006346
#
#
# Mechanical properties :
#
#
# Convention : Reuss Voigt Hill
#
# Bulk Modulus (GPa) = 66.77182 67.22436 66.99809
# Shear Modulus (GPa) = 37.69950 59.15505 48.42728
#
# Velocity S-wave (km/s) = 4.42640 5.54472 5.01682
# Velocity P-wave (km/s) = 7.79913 8.71375 8.26910
#
# Compressibility (1/GPa) = 0.01497638
#
# Stress axis : x y z
#
# Youngs Moduli (GPa) = 111.29547 81.06757 89.40935
#
# Poissons Ratio (x) = 0.25955 0.14625
# Poissons Ratio (y) = 0.35634 0.35110
# Poissons Ratio (z) = 0.18205 0.31834
#
# Static dielectric constant tensor:
#      x y z
#    x 3.644270 0.000000 0.000000 
#    y 0.000000 3.619280 0.000000 
#    z 0.000000 0.000000 3.563040 
# 
# 
# High freq. dielectric constant tensor:
#      x y z
#    x 1.756370 0.000000 0.000000 
#    y 0.000000 1.753650 0.000000 
#    z 0.000000 0.000000 1.751880 
# 
# From -- ./inp_files/12452.got.cif
#   From: 2010.06.25/outbox.cif.g09.slc.cpg/sg71_7_cif.got.tgz:12452.got - 2010.06.28 04:59:45.
