data_PCOD8291910
_publ_section_title
;
Structure prediction by ZEFSAII (Michael W. Deem and Ramdas Pophale) SiO2 
 PCOD8291910
Probable space group: I M M M
;
_chemical_formula_sum "Si O2"
_cell_formula_units_Z 72
_cell_length_a 13.649401
_cell_length_b 17.003150
_cell_length_c 15.692318
_cell_angle_alpha 90.000000
_cell_angle_beta 90.000000
_cell_angle_gamma 90.000000
_cell_volume 3641.917298
_symmetry_space_group_name_H-M "I M M M"
_symmetry_group_IT_number 71
_symmetry_cell_setting 'orthorhombic'
loop_
_space_group_symop_operation_xyz
x,y,z
-x,-y,z
x,-y,-z
-x,y,-z
-x,-y,-z
x,y,-z
-x,y,z
x,-y,z
1/2+x,1/2+y,1/2+z
1/2-x,1/2-y,1/2+z
1/2+x,1/2-y,1/2-z
1/2-x,1/2+y,1/2-z
1/2-x,1/2-y,1/2-z
1/2+x,1/2+y,1/2-z
1/2-x,1/2+y,1/2+z
1/2+x,1/2-y,1/2+z
loop_
_atom_site_type_symbol
_atom_site_label
_atom_site_fract_x
_atom_site_fract_y
_atom_site_fract_z
Si Si1 0.390131 0.908180 0.748614
Si Si2 0.888340 0.908084 0.674702
Si Si3 0.890467 0.092036 0.000000
Si Si4 0.292105 0.338797 0.336647
Si Si5 0.289374 0.835851 0.597737
O O1 0.500000 0.878180 0.766514
O O2 0.318134 0.864172 0.813647
O O3 0.363078 0.891921 0.649687
O O4 0.380792 0.000000 0.765795
O O5 0.866319 0.860628 0.761033
O O6 0.819257 0.873898 0.600168
O O7 0.000000 0.894504 0.646865
O O8 0.865968 0.000000 0.690296
O O9 0.828171 0.116563 0.080781
O O10 0.000000 0.130561 0.000000
O O11 0.903157 0.000000 0.000000
O O12 0.291420 0.246326 0.352789
O O13 0.323584 0.827056 0.500000
#
# Coordination Sequence:
#
# PCOD8291910 Si02
#       5
#    16  16   8  16  16
#     4  10  22  40  62  84 111 155 202 241 283 336
#     4  10  21  38  62  87 113 152 197 242 294 349
#     4  11  22  36  59  89 120 153 189 235 289 344
#     4  11  21  38  59  86 120 152 191 239 293 342
#     4  11  23  38  56  87 121 152 192 237 293 346
#
# _framework density 19.769805999999999
#
# number of rings (size 3 to 8) (size 9 to 14) (size 15 to 20)
#    0.000    1.444    1.111    7.333    0.000    8.889 
#    0.000    2.778    0.000    2.000    0.000    0.000 
#    0.000    0.000    0.000    0.000    0.000    0.000 
#
# Total GULP energy -446426.577856 kJ/mol
# GULP energy per Si atom -12400.738274 kJ/mol
# Density = 1.972481 g / cm^3
# Si number density = 19.769806 Si / 1000 Ang^3
#
#
#
# Elastic Constant Matrix: (Units=GPa)
#
#
# Indices 1 2 3 4 5 6 
#
# 1 115.5300 22.9452 25.0176 0.0000 0.0000 0.0000
# 2 22.9452 68.1823 10.5872 0.0000 0.0000 0.0000
# 3 25.0176 10.5872 92.6254 0.0000 0.0000 0.0000
# 4 0.0000 0.0000 0.0000 40.9097 0.0000 0.0000
# 5 0.0000 0.0000 0.0000 0.0000 14.8396 0.0000
# 6 0.0000 0.0000 0.0000 0.0000 0.0000 11.7189
#
#
#
# Elastic Compliance Matrix: (Units=1/GPa)
#
#
# Indices 1 2 3 4 5 6 
#
# 1 0.009732 -0.002919 -0.002295 0.000000 0.000000 0.000000
# 2 -0.002919 0.015807 -0.001018 0.000000 0.000000 0.000000
# 3 -0.002295 -0.001018 0.011532 0.000000 0.000000 0.000000
# 4 0.000000 0.000000 0.000000 0.024444 0.000000 0.000000
# 5 0.000000 0.000000 0.000000 0.000000 0.067387 0.000000
# 6 0.000000 0.000000 0.000000 0.000000 0.000000 0.085332
#
#
# Mechanical properties :
#
#
# Convention : Reuss Voigt Hill
#
# Bulk Modulus (GPa) = 40.63838 43.71530 42.17684
# Shear Modulus (GPa) = 21.28545 28.01283 24.64914
#
# Velocity S-wave (km/s) = 3.28482 3.76832 3.53485
# Velocity P-wave (km/s) = 5.91499 6.41045 6.16770
#
# Compressibility (1/GPa) = 0.02460728
#
# Stress axis : x y z
#
# Youngs Moduli (GPa) = 102.74899 63.26318 86.71183
#
# Poissons Ratio (x) = 0.18466 0.19901
# Poissons Ratio (y) = 0.29991 0.08831
# Poissons Ratio (z) = 0.23581 0.06443
#
# Static dielectric constant tensor:
#      x y z
#    x 3.802350 0.000000 0.000000 
#    y 0.000000 3.771130 0.000000 
#    z 0.000000 0.000000 3.527590 
# 
# 
# High freq. dielectric constant tensor:
#      x y z
#    x 1.776170 0.000000 0.000000 
#    y 0.000000 1.786550 0.000000 
#    z 0.000000 0.000000 1.761220 
# 
# From -- ./inp_files/34088.got.cif
#   From: 2010.06.25/outbox.cif.g09.slc.cpg/sg71_18_cif.got.tgz:34088.got - 2010.06.28 04:59:45.
