data_PCOD8291641
_publ_section_title
;
Structure prediction by ZEFSAII (Michael W. Deem and Ramdas Pophale) SiO2 
 PCOD8291641
Probable space group: I M M M
;
_chemical_formula_sum "Si O2"
_cell_formula_units_Z 104
_cell_length_a 8.715563
_cell_length_b 28.730952
_cell_length_c 20.493906
_cell_angle_alpha 90.000000
_cell_angle_beta 90.000000
_cell_angle_gamma 90.000000
_cell_volume 5131.805678
_symmetry_space_group_name_H-M "I M M M"
_symmetry_group_IT_number 71
_symmetry_cell_setting 'orthorhombic'
loop_
_space_group_symop_operation_xyz
x,y,z
-x,-y,z
x,-y,-z
-x,y,-z
-x,-y,-z
x,y,-z
-x,y,z
x,-y,z
1/2+x,1/2+y,1/2+z
1/2-x,1/2-y,1/2+z
1/2+x,1/2-y,1/2-z
1/2-x,1/2+y,1/2-z
1/2-x,1/2-y,1/2-z
1/2+x,1/2+y,1/2-z
1/2-x,1/2+y,1/2+z
1/2+x,1/2-y,1/2+z
loop_
_atom_site_type_symbol
_atom_site_label
_atom_site_fract_x
_atom_site_fract_y
_atom_site_fract_z
Si Si1 0.179128 0.196106 0.676456
Si Si2 0.178419 0.052808 0.882949
Si Si3 0.318609 0.446638 0.000000
Si Si4 0.675122 0.858922 0.073099
Si Si5 0.319804 0.892300 0.379069
Si Si6 0.174020 0.553297 0.751610
Si Si7 0.821357 0.793492 0.175782
O O1 0.267722 0.161187 0.628055
O O2 0.226263 0.188143 0.752306
O O3 0.224637 0.248207 0.656060
O O4 0.000000 0.188788 0.665208
O O5 0.277143 0.086849 0.928234
O O6 0.212497 0.064518 0.807556
O O7 0.000000 0.060512 0.896814
O O8 0.228413 0.000000 0.899181
O O9 0.262913 0.418743 0.937187
O O10 0.255200 0.500000 0.000000
O O11 0.500000 0.447466 0.000000
O O12 0.500000 0.853634 0.096360
O O13 0.786432 0.832811 0.122902
O O14 0.695589 0.839009 0.000000
O O15 0.500000 0.894837 0.391911
O O16 0.269283 0.916814 0.312343
O O17 0.184847 0.500000 0.773375
O O18 0.000000 0.566200 0.730984
O O19 0.000000 0.780557 0.174845
#
# Coordination Sequence:
#
# PCOD8291641 Si02
#       7
#    16  16   8  16  16  16  16
#     4  10  21  38  62  91 122 152 188 238 295 351
#     4  10  21  36  56  84 116 150 191 240 288 336
#     4  11  25  43  61  83 117 161 205 251 306 367
#     4  11  24  40  58  82 114 154 195 234 284 343
#     4  11  22  37  59  87 117 153 198 245 294 352
#     4   9  18  33  55  83 114 149 189 236 289 342
#     4  10  21  39  64  92 119 151 192 240 293 349
#
# _framework density 20.265771999999998
#
# number of rings (size 3 to 8) (size 9 to 14) (size 15 to 20)
#    0.000    1.769    0.000    3.923    0.000    9.231 
#    1.385    3.077    0.000    0.000    0.000    0.000 
#    0.000    0.000    0.000    0.000    0.000    0.000 
#
# Total GULP energy -645002.207482 kJ/mol
# GULP energy per Si atom -12403.888605 kJ/mol
# Density = 2.021965 g / cm^3
# Si number density = 20.265772 Si / 1000 Ang^3
#
#
#
# Elastic Constant Matrix: (Units=GPa)
#
#
# Indices 1 2 3 4 5 6 
#
# 1 60.2984 23.4423 25.9940 0.0000 0.0000 0.0000
# 2 23.4423 99.6856 46.9819 0.0001 0.0000 0.0000
# 3 25.9940 46.9819 70.7479 0.0003 0.0001 0.0000
# 4 0.0000 0.0001 0.0003 24.9416 0.0000 0.0000
# 5 0.0000 0.0000 0.0001 0.0000 31.3701 0.0000
# 6 0.0000 0.0000 0.0000 0.0000 0.0000 35.4656
#
#
#
# Elastic Compliance Matrix: (Units=1/GPa)
#
#
# Indices 1 2 3 4 5 6 
#
# 1 0.019924 -0.001798 -0.006126 0.000000 0.000000 0.000000
# 2 -0.001798 0.014764 -0.009144 0.000000 0.000000 0.000000
# 3 -0.006126 -0.009144 0.022458 0.000000 0.000000 0.000000
# 4 0.000000 0.000000 0.000000 0.040094 0.000000 0.000000
# 5 0.000000 0.000000 0.000000 0.000000 0.031878 0.000000
# 6 0.000000 0.000000 0.000000 0.000000 0.000000 0.028196
#
#
# Mechanical properties :
#
#
# Convention : Reuss Voigt Hill
#
# Bulk Modulus (GPa) = 43.46033 47.06314 45.26173
# Shear Modulus (GPa) = 25.11056 27.30969 26.21012
#
# Velocity S-wave (km/s) = 3.52385 3.67492 3.60018
# Velocity P-wave (km/s) = 6.16834 6.42496 6.29796
#
# Compressibility (1/GPa) = 0.02300949
#
# Stress axis : x y z
#
# Youngs Moduli (GPa) = 50.19000 67.73349 44.52813
#
# Poissons Ratio (x) = 0.12179 0.27280
# Poissons Ratio (y) = 0.09024 0.40715
# Poissons Ratio (z) = 0.30749 0.61933
#
# Static dielectric constant tensor:
#      x y z
#    x 3.614750 0.000000 0.000000 
#    y 0.000000 3.725260 0.000000 
#    z 0.000000 0.000000 3.605600 
# 
# 
# High freq. dielectric constant tensor:
#      x y z
#    x 1.796830 0.000000 0.000000 
#    y 0.000000 1.798510 0.000000 
#    z 0.000000 0.000000 1.781110 
# 
# From -- ./inp_files/50942.got.cif
#   From: 2010.06.25/outbox.cif.g09.slc.cpg/sg71_26_cif.got.tgz:50942.got - 2010.06.28 04:59:45.
