data_PCOD8291086
_publ_section_title
;
Structure prediction by ZEFSAII (Michael W. Deem and Ramdas Pophale) SiO2 
 PCOD8291086
Probable space group: I M M M
;
_chemical_formula_sum "Si O2"
_cell_formula_units_Z 96
_cell_length_a 23.594318
_cell_length_b 8.934795
_cell_length_c 24.870906
_cell_angle_alpha 90.000000
_cell_angle_beta 90.000000
_cell_angle_gamma 90.000000
_cell_volume 5243.045505
_symmetry_space_group_name_H-M "I M M M"
_symmetry_group_IT_number 71
_symmetry_cell_setting 'orthorhombic'
loop_
_space_group_symop_operation_xyz
x,y,z
-x,-y,z
x,-y,-z
-x,y,-z
-x,-y,-z
x,y,-z
-x,y,z
x,-y,z
1/2+x,1/2+y,1/2+z
1/2-x,1/2-y,1/2+z
1/2+x,1/2-y,1/2-z
1/2-x,1/2+y,1/2-z
1/2-x,1/2-y,1/2-z
1/2+x,1/2+y,1/2-z
1/2-x,1/2+y,1/2+z
1/2+x,1/2-y,1/2+z
loop_
_atom_site_type_symbol
_atom_site_label
_atom_site_fract_x
_atom_site_fract_y
_atom_site_fract_z
Si Si1 0.115502 0.323511 0.154813
Si Si2 0.314316 0.824464 0.938692
Si Si3 0.300738 0.173441 0.560924
Si Si4 0.615735 0.672087 0.851277
Si Si5 0.310538 0.326243 0.253114
Si Si6 0.500000 0.678024 0.198589
Si Si7 0.000000 0.821372 0.820964
O O1 0.108299 0.500000 0.163940
O O2 0.146777 0.286738 0.098924
O O3 0.150679 0.256082 0.203802
O O4 0.054944 0.244402 0.149689
O O5 0.254410 0.760782 0.918149
O O6 0.365810 0.762302 0.903673
O O7 0.312055 0.000000 0.932117
O O8 0.325103 0.774730 0.000000
O O9 0.316861 0.220296 0.500000
O O10 0.285010 0.000000 0.564684
O O11 0.609028 0.500000 0.867687
O O12 0.661726 0.692178 0.804906
O O13 0.555589 0.738473 0.831702
O O14 0.304736 0.500000 0.269144
O O15 0.250000 0.250000 0.250000
O O16 0.500000 0.500000 0.200787
O O17 0.500000 0.736724 0.259592
O O18 0.000000 0.000000 0.825081
#
# Coordination Sequence:
#
# PCOD8291086 Si02
#       7
#    16  16  16  16  16   8   8
#     4  11  22  36  56  84 112 142 187 233 276 333
#     4  10  21  36  55  82 114 144 178 225 279 330
#     4   9  19  37  59  81 109 147 187 227 273 325
#     4  10  20  36  57  78 104 142 186 225 267 325
#     4  11  22  35  53  80 114 147 179 225 282 334
#     4   9  18  37  58  77 102 140 187 227 264 315
#     4  11  21  39  60  79 110 152 187 227 279 330
#
# _framework density 18.309968999999999
#
# number of rings (size 3 to 8) (size 9 to 14) (size 15 to 20)
#    0.000    1.833    1.667    2.750    0.000    7.667 
#    0.000    1.250    0.000    5.000    0.000    0.000 
#    0.000    0.000    0.000    0.000    0.000    0.000 
#
# Total GULP energy -595375.645571 kJ/mol
# GULP energy per Si atom -12403.659283 kJ/mol
# Density = 1.826829 g / cm^3
# Si number density = 18.309969 Si / 1000 Ang^3
#
#
#
# Elastic Constant Matrix: (Units=GPa)
#
#
# Indices 1 2 3 4 5 6 
#
# 1 128.0650 42.6582 44.3490 0.0000 0.0000 0.0000
# 2 42.6582 72.7656 38.3319 0.0000 0.0000 0.0000
# 3 44.3490 38.3319 83.0778 0.0000 0.0000 0.0000
# 4 0.0000 0.0000 0.0000 29.5229 0.0000 0.0000
# 5 0.0000 0.0000 0.0000 0.0000 28.7571 0.0000
# 6 0.0000 0.0000 0.0000 0.0000 0.0000 33.2988
#
#
#
# Elastic Compliance Matrix: (Units=1/GPa)
#
#
# Indices 1 2 3 4 5 6 
#
# 1 0.010477 -0.004222 -0.003645 0.000000 0.000000 0.000000
# 2 -0.004222 0.019857 -0.006908 0.000000 0.000000 0.000000
# 3 -0.003645 -0.006908 0.017170 0.000000 0.000000 0.000000
# 4 0.000000 0.000000 0.000000 0.033872 0.000000 0.000000
# 5 0.000000 0.000000 0.000000 0.000000 0.034774 0.000000
# 6 0.000000 0.000000 0.000000 0.000000 0.000000 0.030031
#
#
# Mechanical properties :
#
#
# Convention : Reuss Voigt Hill
#
# Bulk Modulus (GPa) = 55.69791 59.39852 57.54822
# Shear Modulus (GPa) = 27.51542 28.88703 28.20122
#
# Velocity S-wave (km/s) = 3.88075 3.97629 3.92881
# Velocity P-wave (km/s) = 7.11096 7.32067 7.21658
#
# Compressibility (1/GPa) = 0.01795399
#
# Stress axis : x y z
#
# Youngs Moduli (GPa) = 95.44602 50.35999 58.24085
#
# Poissons Ratio (x) = 0.21262 0.21228
# Poissons Ratio (y) = 0.40298 0.40234
# Poissons Ratio (z) = 0.34789 0.34790
#
# Static dielectric constant tensor:
#      x y z
#    x 3.543600 0.000000 0.000000 
#    y 0.000000 3.395690 0.000000 
#    z 0.000000 0.000000 3.399900 
# 
# 
# High freq. dielectric constant tensor:
#      x y z
#    x 1.714340 0.000000 0.000000 
#    y 0.000000 1.710060 0.000000 
#    z 0.000000 0.000000 1.709160 
# 
# From -- ./inp_files/57785.got.cif
#   From: 2010.06.25/outbox.cif.g09.slc.cpg/sg71_29_cif.got.tgz:57785.got - 2010.06.28 04:59:45.
