data_PCOD8291799
_publ_section_title
;
Structure prediction by ZEFSAII (Michael W. Deem and Ramdas Pophale) SiO2 
 PCOD8291799
Probable space group: I M M M
;
_chemical_formula_sum "Si O2"
_cell_formula_units_Z 80
_cell_length_a 27.536537
_cell_length_b 16.549304
_cell_length_c 9.113741
_cell_angle_alpha 90.000000
_cell_angle_beta 90.000000
_cell_angle_gamma 90.000000
_cell_volume 4153.227668
_symmetry_space_group_name_H-M "I M M M"
_symmetry_group_IT_number 71
_symmetry_cell_setting 'orthorhombic'
loop_
_space_group_symop_operation_xyz
x,y,z
-x,-y,z
x,-y,-z
-x,y,-z
-x,-y,-z
x,y,-z
-x,y,z
x,-y,z
1/2+x,1/2+y,1/2+z
1/2-x,1/2-y,1/2+z
1/2+x,1/2-y,1/2-z
1/2-x,1/2+y,1/2-z
1/2-x,1/2-y,1/2-z
1/2+x,1/2+y,1/2-z
1/2-x,1/2+y,1/2+z
1/2+x,1/2-y,1/2+z
loop_
_atom_site_type_symbol
_atom_site_label
_atom_site_fract_x
_atom_site_fract_y
_atom_site_fract_z
Si Si1 0.812849 0.168570 0.167906
Si Si2 0.444226 0.000000 0.331981
Si Si3 0.290688 0.827218 0.165722
Si Si4 0.407289 0.327807 0.171906
Si Si5 0.394972 0.139433 0.836081
Si Si6 0.000000 0.095180 0.172414
O O1 0.760281 0.123248 0.189528
O O2 0.798318 0.259680 0.210416
O O3 0.856592 0.133561 0.267699
O O4 0.830730 0.164338 0.000000
O O5 0.423644 0.082658 0.270985
O O6 0.500000 0.000000 0.294889
O O7 0.431479 0.000000 0.500000
O O8 0.337936 0.884246 0.176990
O O9 0.290323 0.788669 0.000000
O O10 0.405246 0.232537 0.206060
O O11 0.452430 0.366540 0.255114
O O12 0.411758 0.346669 0.000000
O O13 0.413899 0.123348 0.000000
O O14 0.000000 0.000000 0.202857
O O15 0.000000 0.114676 0.000000
#
# Coordination Sequence:
#
# PCOD8291799 Si02
#       6
#    16   8  16  16  16   8
#     4   9  15  26  49  81 113 144 180 224 275 326
#     4  11  25  39  51  75 111 149 191 242 289 324
#     4   8  15  28  48  77 111 144 183 227 274 329
#     4  10  21  37  59  87 115 146 187 229 275 335
#     4   9  19  36  57  81 110 148 191 229 272 331
#     4  11  25  43  63  86 113 144 181 227 282 337
#
# _framework density 19.262127
#
# number of rings (size 3 to 8) (size 9 to 14) (size 15 to 20)
#    0.000    2.600    0.000    3.000    1.400    6.400 
#    0.000    0.000    2.200    0.000    0.000    0.000 
#    0.000    0.000    0.000    0.000    0.000    0.000 
#
# Total GULP energy -495559.419364 kJ/mol
# GULP energy per Si atom -12388.985484 kJ/mol
# Density = 1.921829 g / cm^3
# Si number density = 19.262127 Si / 1000 Ang^3
#
#
#
# Elastic Constant Matrix: (Units=GPa)
#
#
# Indices 1 2 3 4 5 6 
#
# 1 200.1594 53.3218 81.4313 0.0000 0.0000 0.0000
# 2 53.3218 58.2688 48.2310 0.0000 0.0000 0.0000
# 3 81.4313 48.2310 125.7375 0.0000 0.0000 0.0000
# 4 0.0000 0.0000 0.0000 17.8633 0.0000 0.0000
# 5 0.0000 0.0000 0.0000 0.0000 37.4765 0.0000
# 6 0.0000 0.0000 0.0000 0.0000 0.0000 8.9067
#
#
#
# Elastic Compliance Matrix: (Units=1/GPa)
#
#
# Indices 1 2 3 4 5 6 
#
# 1 0.007399 -0.004109 -0.003216 0.000000 0.000000 0.000000
# 2 -0.004109 0.027428 -0.007860 0.000000 0.000000 0.000000
# 3 -0.003216 -0.007860 0.013050 0.000000 0.000000 0.000000
# 4 0.000000 0.000000 0.000000 0.055981 0.000000 0.000000
# 5 0.000000 0.000000 0.000000 0.000000 0.026683 0.000000
# 6 0.000000 0.000000 0.000000 0.000000 0.000000 0.112275
#
#
# Mechanical properties :
#
#
# Convention : Reuss Voigt Hill
#
# Bulk Modulus (GPa) = 57.11542 83.34820 70.23181
# Shear Modulus (GPa) = 17.91982 26.26142 22.09062
#
# Velocity S-wave (km/s) = 3.05341 3.69639 3.39018
# Velocity P-wave (km/s) = 6.49208 7.84743 7.20171
#
# Compressibility (1/GPa) = 0.01750841
#
# Stress axis : x y z
#
# Youngs Moduli (GPa) = 135.15631 36.45931 76.62590
#
# Poissons Ratio (x) = 0.14981 0.24639
# Poissons Ratio (y) = 0.55537 0.60226
# Poissons Ratio (z) = 0.43460 0.28656
#
# Static dielectric constant tensor:
#      x y z
#    x 4.081410 0.000000 0.000000 
#    y 0.000000 2.978200 0.000000 
#    z 0.000000 0.000000 3.630380 
# 
# 
# High freq. dielectric constant tensor:
#      x y z
#    x 1.779090 0.000000 0.000000 
#    y 0.000000 1.690110 0.000000 
#    z 0.000000 0.000000 1.760540 
# 
# From -- ./inp_files/14610.got.cif
#   From: 2010.06.25/outbox.cif.g09.slc.cpg/sg71_8_cif.got.tgz:14610.got - 2010.06.28 04:59:45.
