data_PCOD8291842
_publ_section_title
;
Structure prediction by ZEFSAII (Michael W. Deem and Ramdas Pophale) SiO2 
 PCOD8291842
Probable space group: I M M M
;
_chemical_formula_sum "Si O2"
_cell_formula_units_Z 88
_cell_length_a 17.848060
_cell_length_b 19.267283
_cell_length_c 13.583979
_cell_angle_alpha 90.000000
_cell_angle_beta 90.000000
_cell_angle_gamma 90.000000
_cell_volume 4671.307914
_symmetry_space_group_name_H-M "I M M M"
_symmetry_group_IT_number 71
_symmetry_cell_setting 'orthorhombic'
loop_
_space_group_symop_operation_xyz
x,y,z
-x,-y,z
x,-y,-z
-x,y,-z
-x,-y,-z
x,y,-z
-x,y,z
x,-y,z
1/2+x,1/2+y,1/2+z
1/2-x,1/2-y,1/2+z
1/2+x,1/2-y,1/2-z
1/2-x,1/2+y,1/2-z
1/2-x,1/2-y,1/2-z
1/2+x,1/2+y,1/2-z
1/2-x,1/2+y,1/2+z
1/2+x,1/2-y,1/2+z
loop_
_atom_site_type_symbol
_atom_site_label
_atom_site_fract_x
_atom_site_fract_y
_atom_site_fract_z
Si Si1 0.683985 0.798386 0.217588
Si Si2 0.084954 0.920917 0.231335
Si Si3 0.912198 0.500000 0.106286
Si Si4 0.085782 0.194051 0.388880
Si Si5 0.087084 0.649470 0.884870
Si Si6 0.769188 0.919864 0.885864
O O1 0.750000 0.750000 0.250000
O O2 0.635312 0.761614 0.133492
O O3 0.634679 0.800442 0.316909
O O4 0.713210 0.872148 0.177607
O O5 0.107288 0.871376 0.321453
O O6 0.143937 0.907339 0.143791
O O7 0.000000 0.905769 0.193296
O O8 0.091089 0.000000 0.269520
O O9 0.891856 0.572445 0.158485
O O10 0.000000 0.500000 0.086839
O O11 0.871965 0.500000 0.000000
O O12 0.101694 0.170295 0.500000
O O13 0.000000 0.216042 0.373398
O O14 0.000000 0.666722 0.870829
O O15 0.109097 0.657100 0.000000
O O16 0.746387 0.000000 0.866927
O O17 0.761659 0.900077 0.000000
#
# Coordination Sequence:
#
# PCOD8291842 Si02
#       6
#    16  16   8  16  16  16
#     4  12  23  37  56  82 115 153 190 232 278 339
#     4   9  18  36  61  87 112 144 192 237 278 334
#     4   7  12  28  54  82 107 131 164 213 273 329
#     4  10  21  38  58  81 113 151 188 228 277 333
#     4   9  19  36  59  86 113 141 179 228 280 332
#     4  10  22  40  59  82 115 153 192 235 284 335
#
# _framework density 18.838407
#
# number of rings (size 3 to 8) (size 9 to 14) (size 15 to 20)
#    0.000    2.273    1.818    2.182    1.273    2.182 
#    0.000    3.636    0.000    0.000    0.000    3.818 
#    0.000    0.000    0.000    0.000    0.000    0.000 
#
# Total GULP energy -545294.588698 kJ/mol
# GULP energy per Si atom -12393.058834 kJ/mol
# Density = 1.879553 g / cm^3
# Si number density = 18.838407 Si / 1000 Ang^3
#
#
#
# Elastic Constant Matrix: (Units=GPa)
#
#
# Indices 1 2 3 4 5 6 
#
# 1 79.5403 46.5838 52.6961 0.0000 0.0000 0.0000
# 2 46.5838 86.0933 45.0526 0.0000 0.0000 0.0000
# 3 52.6961 45.0526 103.7859 0.0000 0.0000 0.0000
# 4 0.0000 0.0000 0.0000 10.3222 0.0000 0.0000
# 5 0.0000 0.0000 0.0000 0.0000 28.3745 0.0000
# 6 0.0000 0.0000 0.0000 0.0000 0.0000 34.3589
#
#
#
# Elastic Compliance Matrix: (Units=1/GPa)
#
#
# Indices 1 2 3 4 5 6 
#
# 1 0.022555 -0.008037 -0.007963 0.000000 0.000000 0.000000
# 2 -0.008037 0.017893 -0.003687 0.000000 0.000000 0.000000
# 3 -0.007963 -0.003687 0.015279 0.000000 0.000000 0.000000
# 4 0.000000 0.000000 0.000000 0.096879 0.000000 0.000000
# 5 0.000000 0.000000 0.000000 0.000000 0.035243 0.000000
# 6 0.000000 0.000000 0.000000 0.000000 0.000000 0.029105
#
#
# Mechanical properties :
#
#
# Convention : Reuss Voigt Hill
#
# Bulk Modulus (GPa) = 61.14980 62.00940 61.57960
# Shear Modulus (GPa) = 19.10016 22.95025 21.02520
#
# Velocity S-wave (km/s) = 3.18763 3.49416 3.34441
# Velocity P-wave (km/s) = 6.78812 7.01903 6.90454
#
# Compressibility (1/GPa) = 0.01635328
#
# Stress axis : x y z
#
# Youngs Moduli (GPa) = 44.33626 55.88720 65.45026
#
# Poissons Ratio (x) = 0.44916 0.52119
# Poissons Ratio (y) = 0.35633 0.24129
# Poissons Ratio (z) = 0.35306 0.20603
#
# Static dielectric constant tensor:
#      x y z
#    x 3.422200 0.000000 0.000000 
#    y 0.000000 3.669950 0.000000 
#    z 0.000000 0.000000 3.317160 
# 
# 
# High freq. dielectric constant tensor:
#      x y z
#    x 1.727750 0.000000 0.000000 
#    y 0.000000 1.739420 0.000000 
#    z 0.000000 0.000000 1.718350 
# 
# From -- ./inp_files/23975.got.cif
#   From: 2010.06.25/outbox.cif.g09.slc.cpg/sg71_12_cif.got.tgz:23975.got - 2010.06.28 04:59:45.
