data_PCOD8291653
_publ_section_title
;
Structure prediction by ZEFSAII (Michael W. Deem and Ramdas Pophale) SiO2 
 PCOD8291653
Probable space group: I M M M
;
_chemical_formula_sum "Si O2"
_cell_formula_units_Z 72
_cell_length_a 8.884954
_cell_length_b 29.050950
_cell_length_c 13.999906
_cell_angle_alpha 90.000000
_cell_angle_beta 90.000000
_cell_angle_gamma 90.000000
_cell_volume 3613.604699
_symmetry_space_group_name_H-M "I M M M"
_symmetry_group_IT_number 71
_symmetry_cell_setting 'orthorhombic'
loop_
_space_group_symop_operation_xyz
x,y,z
-x,-y,z
x,-y,-z
-x,y,-z
-x,-y,-z
x,y,-z
-x,y,z
x,-y,z
1/2+x,1/2+y,1/2+z
1/2-x,1/2-y,1/2+z
1/2+x,1/2-y,1/2-z
1/2-x,1/2+y,1/2-z
1/2-x,1/2-y,1/2-z
1/2+x,1/2+y,1/2-z
1/2-x,1/2+y,1/2+z
1/2+x,1/2-y,1/2+z
loop_
_atom_site_type_symbol
_atom_site_label
_atom_site_fract_x
_atom_site_fract_y
_atom_site_fract_z
Si Si1 0.824157 0.819092 0.284124
Si Si2 0.821670 0.551331 0.603090
Si Si3 0.831253 0.000000 0.612264
Si Si4 0.323737 0.774010 0.109573
Si Si5 0.178345 0.411795 0.799484
O O1 0.760881 0.810114 0.177610
O O2 0.785552 0.777335 0.355103
O O3 0.747076 0.863413 0.333345
O O4 0.000000 0.827935 0.275870
O O5 0.765687 0.570679 0.500000
O O6 0.756255 0.500000 0.619598
O O7 0.768906 0.583764 0.688842
O O8 0.000000 0.548208 0.603454
O O9 0.742819 0.954363 0.642086
O O10 0.840826 0.000000 0.500000
O O11 0.000000 0.000000 0.656054
O O12 0.500000 0.784354 0.118309
O O13 0.269245 0.779648 0.000000
O O14 0.000000 0.411424 0.812861
#
# Coordination Sequence:
#
# PCOD8291653 Si02
#       5
#    16  16   8  16  16
#     4  10  21  36  56  86 119 150 186 234 291 348
#     4   8  14  27  49  76 104 137 178 221 267 321
#     4  11  25  43  60  79 110 154 199 245 296 338
#     4   9  19  38  61  82 109 149 194 237 285 345
#     4  11  21  36  59  86 115 150 193 239 283 337
#
# _framework density 19.924702
#
# number of rings (size 3 to 8) (size 9 to 14) (size 15 to 20)
#    0.000    2.333    1.111    2.333    0.000    4.000 
#    0.000    4.444    0.000    2.667    0.000    0.000 
#    0.000    0.000    0.000    0.000    0.000    0.000 
#
# Total GULP energy -446278.794442 kJ/mol
# GULP energy per Si atom -12396.633179 kJ/mol
# Density = 1.987935 g / cm^3
# Si number density = 19.924702 Si / 1000 Ang^3
#
#
#
# Elastic Constant Matrix: (Units=GPa)
#
#
# Indices 1 2 3 4 5 6 
#
# 1 80.9078 51.7097 30.7662 -0.0001 0.0000 0.0000
# 2 51.7097 120.2998 22.5874 0.0001 0.0000 0.0000
# 3 30.7662 22.5874 75.2280 0.0001 0.0000 -0.0002
# 4 -0.0001 0.0001 0.0001 13.1613 0.0000 -0.0002
# 5 0.0000 0.0000 0.0000 0.0000 26.6297 0.0001
# 6 0.0000 0.0000 -0.0002 -0.0002 0.0001 28.2373
#
#
#
# Elastic Compliance Matrix: (Units=1/GPa)
#
#
# Indices 1 2 3 4 5 6 
#
# 1 0.019071 -0.007135 -0.005657 0.000000 0.000000 0.000000
# 2 -0.007135 0.011479 -0.000528 0.000000 0.000000 0.000000
# 3 -0.005657 -0.000528 0.015765 0.000000 0.000000 0.000000
# 4 0.000000 0.000000 0.000000 0.075980 0.000000 0.000000
# 5 0.000000 0.000000 0.000000 0.000000 0.037552 0.000000
# 6 0.000000 0.000000 0.000000 0.000000 0.000000 0.035414
#
#
# Mechanical properties :
#
#
# Convention : Reuss Voigt Hill
#
# Bulk Modulus (GPa) = 50.83009 54.06246 52.44628
# Shear Modulus (GPa) = 21.88548 25.03048 23.45798
#
# Velocity S-wave (km/s) = 3.31782 3.54821 3.43495
# Velocity P-wave (km/s) = 6.34379 6.63164 6.48932
#
# Compressibility (1/GPa) = 0.01967339
#
# Stress axis : x y z
#
# Youngs Moduli (GPa) = 52.43452 87.11657 63.43081
#
# Poissons Ratio (x) = 0.62162 0.35884
# Poissons Ratio (y) = 0.37414 0.03351
# Poissons Ratio (z) = 0.29663 0.04603
#
# Static dielectric constant tensor:
#      x y z
#    x 3.467600 0.000000 0.000000 
#    y 0.000000 3.608600 0.000000 
#    z 0.000000 0.000000 3.863520 
# 
# 
# High freq. dielectric constant tensor:
#      x y z
#    x 1.758060 0.000000 0.000000 
#    y 0.000000 1.779340 0.000000 
#    z 0.000000 0.000000 1.777460 
# 
# From -- ./inp_files/14297.got.cif
#   From: 2010.06.25/outbox.cif.g09.slc.cpg/sg71_8_cif.got.tgz:14297.got - 2010.06.28 04:59:45.
