data_PCOD8291563
_publ_section_title
;
Structure prediction by ZEFSAII (Michael W. Deem and Ramdas Pophale) SiO2 
 PCOD8291563
Probable space group: I M M M
;
_chemical_formula_sum "Si O2"
_cell_formula_units_Z 88
_cell_length_a 9.123882
_cell_length_b 18.936055
_cell_length_c 27.564550
_cell_angle_alpha 90.000000
_cell_angle_beta 90.000000
_cell_angle_gamma 90.000000
_cell_volume 4762.336437
_symmetry_space_group_name_H-M "I M M M"
_symmetry_group_IT_number 71
_symmetry_cell_setting 'orthorhombic'
loop_
_space_group_symop_operation_xyz
x,y,z
-x,-y,z
x,-y,-z
-x,y,-z
-x,-y,-z
x,y,-z
-x,y,z
x,-y,z
1/2+x,1/2+y,1/2+z
1/2-x,1/2-y,1/2+z
1/2+x,1/2-y,1/2-z
1/2-x,1/2+y,1/2-z
1/2-x,1/2-y,1/2-z
1/2+x,1/2+y,1/2-z
1/2-x,1/2+y,1/2+z
1/2+x,1/2-y,1/2+z
loop_
_atom_site_type_symbol
_atom_site_label
_atom_site_fract_x
_atom_site_fract_y
_atom_site_fract_z
Si Si1 0.660638 0.080898 0.000000
Si Si2 0.168055 0.797732 0.446585
Si Si3 0.172226 0.579807 0.236834
Si Si4 0.826160 0.158235 0.078830
Si Si5 0.171472 0.321042 0.675637
Si Si6 0.332103 0.659575 0.842553
O O1 0.756001 0.096855 0.952731
O O2 0.500000 0.120034 0.000000
O O3 0.626270 0.000000 0.000000
O O4 0.187894 0.834612 0.500000
O O5 0.275535 0.731646 0.444764
O O6 0.204952 0.847456 0.400360
O O7 0.000000 0.771617 0.440032
O O8 0.222823 0.500000 0.250478
O O9 0.224662 0.636926 0.276694
O O10 0.237713 0.601284 0.184968
O O11 0.000000 0.582801 0.231256
O O12 0.767476 0.146659 0.132806
O O13 0.000000 0.153757 0.078064
O O14 0.205287 0.237481 0.678569
O O15 0.000000 0.334148 0.665300
O O16 0.500000 0.641443 0.832649
#
# Coordination Sequence:
#
# PCOD8291563 Si02
#       6
#     8  16  16  16  16  16
#     4  11  23  37  51  65  93 143 186 213 254 313
#     4   9  17  32  55  78 105 138 171 208 256 316
#     4  10  21  36  54  76 104 140 179 219 267 326
#     4  11  21  32  50  78 106 129 166 220 269 308
#     4   9  19  36  55  75 103 140 181 218 258 318
#     4   9  18  32  53  81 106 135 175 220 268 313
#
# _framework density 18.478324000000001
#
# number of rings (size 3 to 8) (size 9 to 14) (size 15 to 20)
#    0.000    2.273    0.909    3.545    0.000    5.455 
#    0.000    1.818    0.000    0.545    0.000    3.818 
#    0.000    0.000    0.000    0.000    0.000    0.000 
#
# Total GULP energy -545369.660283 kJ/mol
# GULP energy per Si atom -12394.765006 kJ/mol
# Density = 1.843627 g / cm^3
# Si number density = 18.478324 Si / 1000 Ang^3
#
#
#
# Elastic Constant Matrix: (Units=GPa)
#
#
# Indices 1 2 3 4 5 6 
#
# 1 79.7686 23.6826 40.5793 0.0000 0.0000 0.0000
# 2 23.6826 52.0186 40.1051 0.0000 0.0000 0.0000
# 3 40.5793 40.1051 140.0242 0.0000 0.0000 0.0000
# 4 0.0000 0.0000 0.0000 19.0368 0.0000 0.0000
# 5 0.0000 0.0000 0.0000 0.0000 38.0602 0.0000
# 6 0.0000 0.0000 0.0000 0.0000 0.0000 20.8673
#
#
#
# Elastic Compliance Matrix: (Units=1/GPa)
#
#
# Indices 1 2 3 4 5 6 
#
# 1 0.015523 -0.004619 -0.003176 0.000000 0.000000 0.000000
# 2 -0.004619 0.026046 -0.006121 0.000000 0.000000 0.000000
# 3 -0.003176 -0.006121 0.009815 0.000000 0.000000 0.000000
# 4 0.000000 0.000000 0.000000 0.052530 0.000000 0.000000
# 5 0.000000 0.000000 0.000000 0.000000 0.026274 0.000000
# 6 0.000000 0.000000 0.000000 0.000000 0.000000 0.047922
#
#
# Mechanical properties :
#
#
# Convention : Reuss Voigt Hill
#
# Bulk Modulus (GPa) = 42.45834 53.39390 47.92612
# Shear Modulus (GPa) = 23.38708 26.75582 25.07145
#
# Velocity S-wave (km/s) = 3.56146 3.80933 3.68748
# Velocity P-wave (km/s) = 6.31975 6.95026 6.64249
#
# Compressibility (1/GPa) = 0.02355250
#
# Stress axis : x y z
#
# Youngs Moduli (GPa) = 64.42018 38.39323 101.88233
#
# Poissons Ratio (x) = 0.17733 0.32355
# Poissons Ratio (y) = 0.29755 0.62367
# Poissons Ratio (z) = 0.20458 0.23502
#
# Static dielectric constant tensor:
#      x y z
#    x 3.299970 0.000000 0.000000 
#    y 0.000000 3.108720 0.000000 
#    z 0.000000 0.000000 3.685690 
# 
# 
# High freq. dielectric constant tensor:
#      x y z
#    x 1.713120 0.000000 0.000000 
#    y 0.000000 1.676820 0.000000 
#    z 0.000000 0.000000 1.731380 
# 
# From -- ./inp_files/11328.got.cif
#   From: 2010.06.25/outbox.cif.g09.slc.cpg/sg71_6_cif.got.tgz:11328.got - 2010.06.28 04:59:45.
