data_PCOD8291519
_publ_section_title
;
Structure prediction by ZEFSAII (Michael W. Deem and Ramdas Pophale) SiO2 
 PCOD8291519
Probable space group: I M M M
;
_chemical_formula_sum "Si O2"
_cell_formula_units_Z 104
_cell_length_a 22.687515
_cell_length_b 29.785994
_cell_length_c 9.014769
_cell_angle_alpha 90.000000
_cell_angle_beta 90.000000
_cell_angle_gamma 90.000000
_cell_volume 6091.912121
_symmetry_space_group_name_H-M "I M M M"
_symmetry_group_IT_number 71
_symmetry_cell_setting 'orthorhombic'
loop_
_space_group_symop_operation_xyz
x,y,z
-x,-y,z
x,-y,-z
-x,y,-z
-x,-y,-z
x,y,-z
-x,y,z
x,-y,z
1/2+x,1/2+y,1/2+z
1/2-x,1/2-y,1/2+z
1/2+x,1/2-y,1/2-z
1/2-x,1/2+y,1/2-z
1/2-x,1/2-y,1/2-z
1/2+x,1/2+y,1/2-z
1/2-x,1/2+y,1/2+z
1/2+x,1/2-y,1/2+z
loop_
_atom_site_type_symbol
_atom_site_label
_atom_site_fract_x
_atom_site_fract_y
_atom_site_fract_z
Si Si1 0.934626 0.807741 0.824250
Si Si2 0.000000 0.946862 0.670618
Si Si3 0.566260 0.123090 0.174734
Si Si4 0.218209 0.052165 0.672092
Si Si5 0.339065 0.948628 0.171991
Si Si6 0.429743 0.210936 0.334635
Si Si7 0.889370 0.098202 0.175832
O O1 0.908530 0.759514 0.768874
O O2 0.893242 0.849246 0.778346
O O3 0.000000 0.816692 0.757724
O O4 0.940086 0.804201 0.000000
O O5 0.058056 0.929124 0.750342
O O6 0.000000 0.931094 0.500000
O O7 0.000000 0.000000 0.682488
O O8 0.500000 0.114770 0.236290
O O9 0.606832 0.081931 0.227197
O O10 0.593145 0.169856 0.234856
O O11 0.565186 0.126675 0.000000
O O12 0.213387 0.064933 0.500000
O O13 0.282972 0.064255 0.729754
O O14 0.172692 0.081042 0.765936
O O15 0.204107 0.000000 0.698657
O O16 0.358094 0.000000 0.198180
O O17 0.323623 0.939913 0.000000
O O18 0.404832 0.203265 0.500000
O O19 0.500000 0.212358 0.336257
O O20 0.893696 0.091576 0.000000
#
# Coordination Sequence:
#
# PCOD8291519 Si02
#       7
#    16   8  16  16  16  16  16
#     4   8  14  27  46  69  95 122 157 200 241 282
#     4  11  23  35  45  65 101 135 161 199 252 299
#     4   9  17  29  47  75 107 129 151 192 241 283
#     4  10  21  36  51  68  94 127 162 203 248 290
#     4   9  18  33  52  72  95 128 167 198 229 281
#     4   8  14  26  46  68  94 129 161 188 227 286
#     4  11  20  32  52  73  94 124 165 209 247 291
#
# _framework density 17.071816999999999
#
# number of rings (size 3 to 8) (size 9 to 14) (size 15 to 20)
#    0.000    2.692    0.769    2.538    0.000    4.308 
#    0.000    3.077    0.000    0.923    0.000    4.308 
#    0.000    0.000    0.000    0.000    0.000    0.000 
#
# Total GULP energy -644587.145833 kJ/mol
# GULP energy per Si atom -12395.906651 kJ/mol
# Density = 1.703296 g / cm^3
# Si number density = 17.071817 Si / 1000 Ang^3
#
#
#
# Elastic Constant Matrix: (Units=GPa)
#
#
# Indices 1 2 3 4 5 6 
#
# 1 81.8712 70.9357 38.1712 0.0000 0.0000 0.0000
# 2 70.9357 136.4699 48.2701 0.0000 0.0000 0.0000
# 3 38.1712 48.2701 58.9890 0.0000 0.0000 0.0000
# 4 0.0000 0.0000 0.0000 25.9423 0.0000 0.0000
# 5 0.0000 0.0000 0.0000 0.0000 18.4858 0.0000
# 6 0.0000 0.0000 0.0000 0.0000 0.0000 14.0805
#
#
#
# Elastic Compliance Matrix: (Units=1/GPa)
#
#
# Indices 1 2 3 4 5 6 
#
# 1 0.024440 -0.010006 -0.007627 0.000000 0.000000 0.000000
# 2 -0.010006 0.014409 -0.005316 0.000000 0.000000 0.000000
# 3 -0.007627 -0.005316 0.026238 0.000000 0.000000 0.000000
# 4 0.000000 0.000000 0.000000 0.038547 0.000000 0.000000
# 5 0.000000 0.000000 0.000000 0.000000 0.054096 0.000000
# 6 0.000000 0.000000 0.000000 0.000000 0.000000 0.071020
#
#
# Mechanical properties :
#
#
# Convention : Reuss Voigt Hill
#
# Bulk Modulus (GPa) = 52.11422 65.78710 58.95066
# Shear Modulus (GPa) = 17.79092 19.69860 18.74476
#
# Velocity S-wave (km/s) = 3.23169 3.40055 3.31720
# Velocity P-wave (km/s) = 6.67217 7.35102 7.01980
#
# Compressibility (1/GPa) = 0.01918862
#
# Stress axis : x y z
#
# Youngs Moduli (GPa) = 40.91730 69.40220 38.11316
#
# Poissons Ratio (x) = 0.69442 0.29069
# Poissons Ratio (y) = 0.40941 0.20261
# Poissons Ratio (z) = 0.31208 0.36894
#
# Static dielectric constant tensor:
#      x y z
#    x 3.089860 0.000000 0.000000 
#    y 0.000000 3.561220 0.000000 
#    z 0.000000 0.000000 3.140250 
# 
# 
# High freq. dielectric constant tensor:
#      x y z
#    x 1.628370 0.000000 0.000000 
#    y 0.000000 1.669900 0.000000 
#    z 0.000000 0.000000 1.648390 
# 
# From -- ./inp_files/11509.got.cif
#   From: 2010.06.25/outbox.cif.g09.slc.cpg/sg71_6_cif.got.tgz:11509.got - 2010.06.28 04:59:45.
