data_PCOD8291052
_publ_section_title
;
Structure prediction by ZEFSAII (Michael W. Deem and Ramdas Pophale) SiO2 
 PCOD8291052
Probable space group: I M M M
;
_chemical_formula_sum "Si O2"
_cell_formula_units_Z 96
_cell_length_a 21.191981
_cell_length_b 16.169666
_cell_length_c 15.677370
_cell_angle_alpha 90.000000
_cell_angle_beta 90.000000
_cell_angle_gamma 90.000000
_cell_volume 5372.121338
_symmetry_space_group_name_H-M "I M M M"
_symmetry_group_IT_number 71
_symmetry_cell_setting 'orthorhombic'
loop_
_space_group_symop_operation_xyz
x,y,z
-x,-y,z
x,-y,-z
-x,y,-z
-x,-y,-z
x,y,-z
-x,y,z
x,-y,z
1/2+x,1/2+y,1/2+z
1/2-x,1/2-y,1/2+z
1/2+x,1/2-y,1/2-z
1/2-x,1/2+y,1/2-z
1/2-x,1/2-y,1/2-z
1/2+x,1/2+y,1/2-z
1/2-x,1/2+y,1/2+z
1/2+x,1/2-y,1/2+z
loop_
_atom_site_type_symbol
_atom_site_label
_atom_site_fract_x
_atom_site_fract_y
_atom_site_fract_z
Si Si1 0.285550 0.904157 0.238793
Si Si2 0.337985 0.795097 0.094990
Si Si3 0.212315 0.699739 0.904606
Si Si4 0.650837 0.648856 0.672212
Si Si5 0.925377 0.000000 0.594265
Si Si6 0.925653 0.173974 0.669470
Si Si7 0.929050 0.000000 0.900049
O O1 0.330529 0.866561 0.165286
O O2 0.303234 0.866148 0.331008
O O3 0.212820 0.889934 0.215233
O O4 0.301134 0.000000 0.244229
O O5 0.284453 0.726161 0.108338
O O6 0.403726 0.745016 0.103766
O O7 0.334588 0.834510 0.000000
O O8 0.169282 0.781582 0.896217
O O9 0.201329 0.662781 0.000000
O O10 0.608041 0.694568 0.741925
O O11 0.609150 0.580055 0.627226
O O12 0.902594 0.082004 0.642779
O O13 0.895017 0.000000 0.500000
O O14 0.000000 0.000000 0.586261
O O15 0.000000 0.178538 0.678545
O O16 0.000000 0.000000 0.858834
O O17 0.936013 0.000000 0.000000
#
# Coordination Sequence:
#
# PCOD8291052 Si02
#       7
#    16  16  16  16   8  16   8
#     4  11  21  37  58  80 109 142 186 240 283 327
#     4  10  20  36  55  80 113 145 184 229 274 328
#     4  10  20  36  58  80 108 145 183 233 288 331
#     4  11  19  37  54  79 115 149 184 225 275 331
#     4   9  19  31  43  71 111 149 189 219 248 311
#     4  11  20  32  54  79 111 154 187 218 269 334
#     4  11  23  35  51  83 121 155 194 228 261 326
#
# _framework density 17.870035999999999
#
# number of rings (size 3 to 8) (size 9 to 14) (size 15 to 20)
#    0.000    1.500    4.167    3.000    0.000    3.000 
#    0.000    0.000    0.000    0.500    0.000    1.167 
#    0.000    1.333    0.000    0.000    0.000    0.000 
#
# Total GULP energy -595148.036068 kJ/mol
# GULP energy per Si atom -12398.917418 kJ/mol
# Density = 1.782936 g / cm^3
# Si number density = 17.870036 Si / 1000 Ang^3
#
#
#
# Elastic Constant Matrix: (Units=GPa)
#
#
# Indices 1 2 3 4 5 6 
#
# 1 70.0010 38.4436 16.6971 0.0000 0.0000 0.0000
# 2 38.4436 110.5245 52.3959 0.0000 0.0000 0.0000
# 3 16.6971 52.3959 114.9823 0.0000 0.0000 0.0000
# 4 0.0000 0.0000 0.0000 20.2491 0.0000 0.0000
# 5 0.0000 0.0000 0.0000 0.0000 19.6261 0.0000
# 6 0.0000 0.0000 0.0000 0.0000 0.0000 34.1383
#
#
#
# Elastic Compliance Matrix: (Units=1/GPa)
#
#
# Indices 1 2 3 4 5 6 
#
# 1 0.017667 -0.006287 0.000299 0.000000 0.000000 0.000000
# 2 -0.006287 0.013778 -0.005366 0.000000 0.000000 0.000000
# 3 0.000299 -0.005366 0.011099 0.000000 0.000000 0.000000
# 4 0.000000 0.000000 0.000000 0.049385 0.000000 0.000000
# 5 0.000000 0.000000 0.000000 0.000000 0.050952 0.000000
# 6 0.000000 0.000000 0.000000 0.000000 0.000000 0.029293
#
#
# Mechanical properties :
#
#
# Convention : Reuss Voigt Hill
#
# Bulk Modulus (GPa) = 50.41015 56.73122 53.57069
# Shear Modulus (GPa) = 24.81482 27.33409 26.07446
#
# Velocity S-wave (km/s) = 3.73047 3.91526 3.82398
# Velocity P-wave (km/s) = 6.84294 7.22873 7.03848
#
# Compressibility (1/GPa) = 0.01983727
#
# Stress axis : x y z
#
# Youngs Moduli (GPa) = 56.60324 72.57839 90.10192
#
# Poissons Ratio (x) = 0.45630 -0.02698
# Poissons Ratio (y) = 0.35586 0.48345
# Poissons Ratio (z) = -0.01695 0.38943
#
# Static dielectric constant tensor:
#      x y z
#    x 3.218040 0.000000 0.000000 
#    y 0.000000 3.409960 0.000000 
#    z 0.000000 0.000000 3.499550 
# 
# 
# High freq. dielectric constant tensor:
#      x y z
#    x 1.670250 0.000000 0.000000 
#    y 0.000000 1.673460 0.000000 
#    z 0.000000 0.000000 1.707660 
# 
# From -- ./inp_files/39203.got.cif
#   From: 2010.06.25/outbox.cif.g09.slc.cpg/sg71_20_cif.got.tgz:39203.got - 2010.06.28 04:59:45.
