data_PCOD8291961
_publ_section_title
;
Structure prediction by ZEFSAII (Michael W. Deem and Ramdas Pophale) SiO2 
 PCOD8291961
Probable space group: I M M M
;
_chemical_formula_sum "Si O2"
_cell_formula_units_Z 64
_cell_length_a 17.515776
_cell_length_b 8.684478
_cell_length_c 20.904433
_cell_angle_alpha 90.000000
_cell_angle_beta 90.000000
_cell_angle_gamma 90.000000
_cell_volume 3179.885588
_symmetry_space_group_name_H-M "I M M M"
_symmetry_group_IT_number 71
_symmetry_cell_setting 'orthorhombic'
loop_
_space_group_symop_operation_xyz
x,y,z
-x,-y,z
x,-y,-z
-x,y,-z
-x,-y,-z
x,y,-z
-x,y,z
x,-y,z
1/2+x,1/2+y,1/2+z
1/2-x,1/2-y,1/2+z
1/2+x,1/2-y,1/2-z
1/2-x,1/2+y,1/2-z
1/2-x,1/2-y,1/2-z
1/2+x,1/2+y,1/2-z
1/2-x,1/2+y,1/2+z
1/2+x,1/2-y,1/2+z
loop_
_atom_site_type_symbol
_atom_site_label
_atom_site_fract_x
_atom_site_fract_y
_atom_site_fract_z
Si Si1 0.665978 0.184122 0.426894
Si Si2 0.910125 0.671482 0.500000
Si Si3 0.912133 0.820229 0.630295
Si Si4 0.000000 0.332681 0.075325
Si Si5 0.771981 0.680042 0.682964
O O1 0.686626 0.235592 0.500000
O O2 0.580860 0.250020 0.407019
O O3 0.726738 0.248689 0.376876
O O4 0.664927 0.000000 0.423054
O O5 0.872619 0.500000 0.500000
O O6 0.884084 0.771069 0.560157
O O7 0.000000 0.651816 0.500000
O O8 0.861625 0.720501 0.678459
O O9 0.000000 0.778239 0.642908
O O10 0.896510 0.000000 0.639534
O O11 0.000000 0.500000 0.108987
O O12 0.000000 0.356808 0.000000
O O13 0.757780 0.500000 0.683410
O O14 0.750000 0.750000 0.750000
#
# Coordination Sequence:
#
# PCOD8291961 Si02
#       5
#    16   8  16   8  16
#     4   9  18  36  64  94 123 157 198 245 300 362
#     4   9  17  31  55  89 123 154 193 240 289 347
#     4  10  21  39  63  89 119 156 199 248 303 361
#     4   7  12  28  57  91 121 151 192 239 288 353
#     4  12  26  43  61  85 122 162 206 253 304 363
#
# _framework density 20.12651
#
# number of rings (size 3 to 8) (size 9 to 14) (size 15 to 20)
#    0.000    2.250    0.000    4.875    1.750    3.500 
#    2.250    0.625    0.000    2.250    0.000    0.000 
#    0.000    0.000    0.000    0.000    0.000    0.000 
#
# Total GULP energy -396516.144158 kJ/mol
# GULP energy per Si atom -12391.129505 kJ/mol
# Density = 2.008070 g / cm^3
# Si number density = 20.126510 Si / 1000 Ang^3
#
#
#
# Elastic Constant Matrix: (Units=GPa)
#
#
# Indices 1 2 3 4 5 6 
#
# 1 114.5223 38.6020 65.9506 0.0000 0.0000 0.0000
# 2 38.6020 75.5060 41.1318 0.0000 0.0000 0.0000
# 3 65.9506 41.1318 123.1079 0.0000 0.0000 0.0000
# 4 0.0000 0.0000 0.0000 30.3580 0.0000 0.0000
# 5 0.0000 0.0000 0.0000 0.0000 15.7422 0.0000
# 6 0.0000 0.0000 0.0000 0.0000 0.0000 25.4551
#
#
#
# Elastic Compliance Matrix: (Units=1/GPa)
#
#
# Indices 1 2 3 4 5 6 
#
# 1 0.013378 -0.003589 -0.005968 0.000000 0.000000 0.000000
# 2 -0.003589 0.017153 -0.003809 0.000000 0.000000 0.000000
# 3 -0.005968 -0.003809 0.012593 0.000000 0.000000 0.000000
# 4 0.000000 0.000000 0.000000 0.032940 0.000000 0.000000
# 5 0.000000 0.000000 0.000000 0.000000 0.063524 0.000000
# 6 0.000000 0.000000 0.000000 0.000000 0.000000 0.039285
#
#
# Mechanical properties :
#
#
# Convention : Reuss Voigt Hill
#
# Bulk Modulus (GPa) = 60.99846 67.16724 64.08285
# Shear Modulus (GPa) = 23.68904 25.47452 24.58178
#
# Velocity S-wave (km/s) = 3.43448 3.56155 3.49859
# Velocity P-wave (km/s) = 6.78976 7.09633 6.94473
#
# Compressibility (1/GPa) = 0.01639386
#
# Stress axis : x y z
#
# Youngs Moduli (GPa) = 74.74774 58.29751 79.41157
#
# Poissons Ratio (x) = 0.20920 0.47393
# Poissons Ratio (y) = 0.26824 0.30246
# Poissons Ratio (z) = 0.44609 0.22204
#
# Static dielectric constant tensor:
#      x y z
#    x 3.809050 0.000000 0.000000 
#    y 0.000000 3.506490 0.000000 
#    z 0.000000 0.000000 3.647920 
# 
# 
# High freq. dielectric constant tensor:
#      x y z
#    x 1.801840 0.000000 0.000000 
#    y 0.000000 1.770220 0.000000 
#    z 0.000000 0.000000 1.765260 
# 
# From -- ./inp_files/53694.got.cif
#   From: 2010.06.25/outbox.cif.g09.slc.cpg/sg71_27_cif.got.tgz:53694.got - 2010.06.28 04:59:45.
