data_PCOD8291804
_publ_section_title
;
Structure prediction by ZEFSAII (Michael W. Deem and Ramdas Pophale) SiO2 
 PCOD8291804
Probable space group: I M M M
;
_chemical_formula_sum "Si O2"
_cell_formula_units_Z 88
_cell_length_a 28.743937
_cell_length_b 17.317902
_cell_length_c 9.205917
_cell_angle_alpha 90.000000
_cell_angle_beta 90.000000
_cell_angle_gamma 90.000000
_cell_volume 4582.564485
_symmetry_space_group_name_H-M "I M M M"
_symmetry_group_IT_number 71
_symmetry_cell_setting 'orthorhombic'
loop_
_space_group_symop_operation_xyz
x,y,z
-x,-y,z
x,-y,-z
-x,y,-z
-x,-y,-z
x,y,-z
-x,y,z
x,-y,z
1/2+x,1/2+y,1/2+z
1/2-x,1/2-y,1/2+z
1/2+x,1/2-y,1/2-z
1/2-x,1/2+y,1/2-z
1/2-x,1/2-y,1/2-z
1/2+x,1/2+y,1/2-z
1/2-x,1/2+y,1/2+z
1/2+x,1/2-y,1/2+z
loop_
_atom_site_type_symbol
_atom_site_label
_atom_site_fract_x
_atom_site_fract_y
_atom_site_fract_z
Si Si1 0.896087 0.638326 0.329136
Si Si2 0.191404 0.590182 0.169475
Si Si3 0.883532 0.090730 0.832573
Si Si4 0.053259 0.796723 0.668320
Si Si5 0.945014 0.500000 0.832884
Si Si6 0.205137 0.091687 0.339220
O O1 0.896485 0.620192 0.500000
O O2 0.843543 0.639047 0.268978
O O3 0.918066 0.720598 0.292729
O O4 0.926271 0.575333 0.246147
O O5 0.183465 0.500000 0.203106
O O6 0.243505 0.617332 0.213503
O O7 0.182457 0.606881 0.000000
O O8 0.927046 0.131292 0.757361
O O9 0.834731 0.122326 0.768034
O O10 0.889031 0.000000 0.805287
O O11 0.883557 0.112488 0.000000
O O12 0.057630 0.817646 0.500000
O O13 0.000000 0.783190 0.713896
O O14 0.000000 0.500000 0.822098
O O15 0.927890 0.500000 0.000000
O O16 0.194777 0.125042 0.500000
O O17 0.204994 0.000000 0.346259
#
# Coordination Sequence:
#
# PCOD8291804 Si02
#       6
#    16  16  16  16   8  16
#     4  11  22  36  56  83 113 147 189 237 284 327
#     4   9  17  31  53  82 116 152 190 229 271 326
#     4  10  21  37  59  88 116 141 177 230 285 339
#     4  10  23  42  60  79 108 147 189 233 282 338
#     4  11  23  37  55  79 109 149 195 237 280 335
#     4   8  15  30  54  82 112 149 186 222 269 326
#
# _framework density 19.203220999999999
#
# number of rings (size 3 to 8) (size 9 to 14) (size 15 to 20)
#    0.000    2.273    0.909    3.000    0.000    5.455 
#    0.000    4.545    0.000    0.000    0.000    0.000 
#    0.000    0.000    0.000    0.000    0.000    0.000 
#
# Total GULP energy -545648.088212 kJ/mol
# GULP energy per Si atom -12401.092914 kJ/mol
# Density = 1.915951 g / cm^3
# Si number density = 19.203221 Si / 1000 Ang^3
#
#
#
# Elastic Constant Matrix: (Units=GPa)
#
#
# Indices 1 2 3 4 5 6 
#
# 1 135.9251 54.7793 72.7959 0.0000 0.0000 0.0000
# 2 54.7793 55.2654 53.2195 0.0000 0.0000 0.0000
# 3 72.7959 53.2195 107.4235 0.0000 0.0000 0.0000
# 4 0.0000 0.0000 0.0000 21.5516 0.0000 0.0000
# 5 0.0000 0.0000 0.0000 0.0000 35.6523 0.0000
# 6 0.0000 0.0000 0.0000 0.0000 0.0000 18.5778
#
#
#
# Elastic Compliance Matrix: (Units=1/GPa)
#
#
# Indices 1 2 3 4 5 6 
#
# 1 0.013427 -0.008695 -0.004791 0.000000 0.000000 0.000000
# 2 -0.008695 0.040234 -0.014040 0.000000 0.000000 0.000000
# 3 -0.004791 -0.014040 0.019511 0.000000 0.000000 0.000000
# 4 0.000000 0.000000 0.000000 0.046400 0.000000 0.000000
# 5 0.000000 0.000000 0.000000 0.000000 0.028049 0.000000
# 6 0.000000 0.000000 0.000000 0.000000 0.000000 0.053828
#
#
# Mechanical properties :
#
#
# Convention : Reuss Voigt Hill
#
# Bulk Modulus (GPa) = 55.19019 73.35593 64.27306
# Shear Modulus (GPa) = 19.04457 23.01095 21.02776
#
# Velocity S-wave (km/s) = 3.15260 3.46538 3.31269
# Velocity P-wave (km/s) = 6.48493 7.36848 6.94078
#
# Compressibility (1/GPa) = 0.01811916
#
# Stress axis : x y z
#
# Youngs Moduli (GPa) = 74.47520 24.85481 51.25200
#
# Poissons Ratio (x) = 0.21612 0.24556
# Poissons Ratio (y) = 0.64759 0.71958
# Poissons Ratio (z) = 0.35683 0.34896
#
# Static dielectric constant tensor:
#      x y z
#    x 3.779400 0.000000 0.000000 
#    y 0.000000 3.245160 0.000000 
#    z 0.000000 0.000000 3.561400 
# 
# 
# High freq. dielectric constant tensor:
#      x y z
#    x 1.764060 0.000000 0.000000 
#    y 0.000000 1.721370 0.000000 
#    z 0.000000 0.000000 1.748130 
# 
# From -- ./inp_files/16698.got.cif
#   From: 2010.06.25/outbox.cif.g09.slc.cpg/sg71_9_cif.got.tgz:16698.got - 2010.06.28 04:59:45.
