data_PCOD8291815
_publ_section_title
;
Structure prediction by ZEFSAII (Michael W. Deem and Ramdas Pophale) SiO2 
 PCOD8291815
Probable space group: I M M M
;
_chemical_formula_sum "Si O2"
_cell_formula_units_Z 72
_cell_length_a 13.281113
_cell_length_b 9.948509
_cell_length_c 29.076946
_cell_angle_alpha 90.000000
_cell_angle_beta 90.000000
_cell_angle_gamma 90.000000
_cell_volume 3841.857559
_symmetry_space_group_name_H-M "I M M M"
_symmetry_group_IT_number 71
_symmetry_cell_setting 'orthorhombic'
loop_
_space_group_symop_operation_xyz
x,y,z
-x,-y,z
x,-y,-z
-x,y,-z
-x,-y,-z
x,y,-z
-x,y,z
x,-y,z
1/2+x,1/2+y,1/2+z
1/2-x,1/2-y,1/2+z
1/2+x,1/2-y,1/2-z
1/2-x,1/2+y,1/2-z
1/2-x,1/2-y,1/2-z
1/2+x,1/2+y,1/2-z
1/2-x,1/2+y,1/2+z
1/2+x,1/2-y,1/2+z
loop_
_atom_site_type_symbol
_atom_site_label
_atom_site_fract_x
_atom_site_fract_y
_atom_site_fract_z
Si Si1 0.617635 0.151071 0.232822
Si Si2 0.758380 0.241739 0.418811
Si Si3 0.245473 0.342909 0.179598
Si Si4 0.382506 0.840075 0.500000
Si Si5 0.617777 0.000000 0.054812
Si Si6 0.618257 0.500000 0.948372
O O1 0.500000 0.167142 0.234261
O O2 0.657521 0.261405 0.197247
O O3 0.655898 0.179202 0.284379
O O4 0.649710 0.000000 0.217285
O O5 0.709874 0.224376 0.368324
O O6 0.668326 0.225545 0.455198
O O7 0.820702 0.376708 0.424804
O O8 0.843870 0.130142 0.422638
O O9 0.272778 0.500000 0.173606
O O10 0.500000 0.801470 0.500000
O O11 0.367432 0.000000 0.500000
O O12 0.500000 0.000000 0.070742
O O13 0.622386 0.000000 0.000000
O O14 0.500000 0.500000 0.948882
O O15 0.662538 0.500000 0.000000
#
# Coordination Sequence:
#
# PCOD8291815 Si02
#       6
#    16  16  16   8   8   8
#     4   9  20  39  60  84 114 150 193 239 293 355
#     4  12  21  40  58  88 122 154 200 248 291 347
#     4  10  21  37  60  85 117 153 191 243 296 344
#     4  11  22  39  64  91 119 157 199 243 294 345
#     4  11  24  40  60  85 120 166 202 240 301 358
#     4  11  20  34  58  83 118 156 192 238 295 352
#
# _framework density 18.740933999999999
#
# number of rings (size 3 to 8) (size 9 to 14) (size 15 to 20)
#    0.000    1.444    4.444    0.667    1.556    4.889 
#    0.000    3.333    0.000    0.000    0.000    0.000 
#    0.000    0.000    0.000    0.000    0.000    0.000 
#
# Total GULP energy -446364.681375 kJ/mol
# GULP energy per Si atom -12399.018927 kJ/mol
# Density = 1.869828 g / cm^3
# Si number density = 18.740934 Si / 1000 Ang^3
#
#
#
# Elastic Constant Matrix: (Units=GPa)
#
#
# Indices 1 2 3 4 5 6 
#
# 1 93.6211 44.9812 43.0209 0.0000 0.0000 0.0000
# 2 44.9812 125.2931 46.9062 0.0000 0.0000 0.0000
# 3 43.0209 46.9062 133.9178 0.0000 0.0000 0.0000
# 4 0.0000 0.0000 0.0000 79.0265 0.0000 0.0000
# 5 0.0000 0.0000 0.0000 0.0000 11.0860 0.0000
# 6 0.0000 0.0000 0.0000 0.0000 0.0000 34.0022
#
#
#
# Elastic Compliance Matrix: (Units=1/GPa)
#
#
# Indices 1 2 3 4 5 6 
#
# 1 0.013970 -0.003839 -0.003143 0.000000 0.000000 0.000000
# 2 -0.003839 0.010241 -0.002354 0.000000 0.000000 0.000000
# 3 -0.003143 -0.002354 0.009301 0.000000 0.000000 0.000000
# 4 0.000000 0.000000 0.000000 0.012654 0.000000 0.000000
# 5 0.000000 0.000000 0.000000 0.000000 0.090204 0.000000
# 6 0.000000 0.000000 0.000000 0.000000 0.000000 0.029410
#
#
# Mechanical properties :
#
#
# Convention : Reuss Voigt Hill
#
# Bulk Modulus (GPa) = 67.38196 69.18317 68.28256
# Shear Modulus (GPa) = 26.39945 39.35118 32.87532
#
# Velocity S-wave (km/s) = 3.75727 4.58727 4.19286
# Velocity P-wave (km/s) = 7.40643 8.06555 7.74301
#
# Compressibility (1/GPa) = 0.01484077
#
# Stress axis : x y z
#
# Youngs Moduli (GPa) = 71.58154 97.65116 107.50971
#
# Poissons Ratio (x) = 0.37484 0.33794
# Poissons Ratio (y) = 0.27477 0.25305
# Poissons Ratio (z) = 0.22501 0.22984
#
# Static dielectric constant tensor:
#      x y z
#    x 3.321960 0.000000 0.000000 
#    y 0.000000 3.538900 0.000000 
#    z 0.000000 0.000000 3.678640 
# 
# 
# High freq. dielectric constant tensor:
#      x y z
#    x 1.719390 0.000000 0.000000 
#    y 0.000000 1.736090 0.000000 
#    z 0.000000 0.000000 1.736070 
# 
# From -- ./inp_files/6560.got.cif
#   From: 2010.06.25/outbox.cif.g09.slc.cpg/sg71_4_cif.got.tgz:6560.got - 2010.06.28 04:59:45.
