data_PCOD8291164
_publ_section_title
;
Structure prediction by ZEFSAII (Michael W. Deem and Ramdas Pophale) SiO2 
 PCOD8291164
Probable space group: I M M M
;
_chemical_formula_sum "Si O2"
_cell_formula_units_Z 88
_cell_length_a 17.274878
_cell_length_b 8.884582
_cell_length_c 28.924755
_cell_angle_alpha 90.000000
_cell_angle_beta 90.000000
_cell_angle_gamma 90.000000
_cell_volume 4439.373426
_symmetry_space_group_name_H-M "I M M M"
_symmetry_group_IT_number 71
_symmetry_cell_setting 'orthorhombic'
loop_
_space_group_symop_operation_xyz
x,y,z
-x,-y,z
x,-y,-z
-x,y,-z
-x,-y,-z
x,y,-z
-x,y,z
x,-y,z
1/2+x,1/2+y,1/2+z
1/2-x,1/2-y,1/2+z
1/2+x,1/2-y,1/2-z
1/2-x,1/2+y,1/2-z
1/2-x,1/2-y,1/2-z
1/2+x,1/2+y,1/2-z
1/2-x,1/2+y,1/2+z
1/2+x,1/2-y,1/2+z
loop_
_atom_site_type_symbol
_atom_site_label
_atom_site_fract_x
_atom_site_fract_y
_atom_site_fract_z
Si Si1 0.286922 0.330013 0.182162
Si Si2 0.909527 0.321813 0.500000
Si Si3 0.190146 0.174857 0.580176
Si Si4 0.842821 0.830931 0.947628
Si Si5 0.000000 0.320229 0.077467
Si Si6 0.000000 0.674879 0.819213
Si Si7 0.356565 0.670016 0.279317
O O1 0.252854 0.500000 0.181543
O O2 0.333021 0.299501 0.134097
O O3 0.345506 0.310407 0.224530
O O4 0.217246 0.214256 0.189924
O O5 0.899963 0.500000 0.500000
O O6 0.869177 0.259838 0.453535
O O7 0.000000 0.274365 0.500000
O O8 0.277677 0.236205 0.578683
O O9 0.189260 0.000000 0.566156
O O10 0.924141 0.745204 0.946739
O O11 0.850379 0.000000 0.926790
O O12 0.814174 0.841849 0.000000
O O13 0.000000 0.500000 0.072843
O O14 0.000000 0.256672 0.129536
O O15 0.925642 0.721501 0.791096
O O16 0.000000 0.500000 0.825150
O O17 0.378212 0.500000 0.292164
#
# Coordination Sequence:
#
# PCOD8291164 Si02
#       7
#    16   8  16  16   8   8  16
#     4   9  20  38  59  87 118 149 189 238 287 342
#     4  11  25  45  65  88 121 152 189 247 301 351
#     4  11  22  39  65  91 117 154 197 240 292 356
#     4  11  23  38  57  84 121 157 195 245 293 340
#     4  11  24  38  55  82 118 160 205 247 285 337
#     4  11  23  38  54  79 116 153 191 240 288 336
#     4  10  20  36  59  85 116 153 193 237 286 342
#
# _framework density 19.822617000000001
#
# number of rings (size 3 to 8) (size 9 to 14) (size 15 to 20)
#    0.000    1.545    0.909    3.818    0.000   10.909 
#    1.636    0.000    0.000    0.000    0.000    0.000 
#    0.000    0.000    0.000    0.000    0.000    0.000 
#
# Total GULP energy -545615.717030 kJ/mol
# GULP energy per Si atom -12400.357205 kJ/mol
# Density = 1.977750 g / cm^3
# Si number density = 19.822617 Si / 1000 Ang^3
#
#
#
# Elastic Constant Matrix: (Units=GPa)
#
#
# Indices 1 2 3 4 5 6 
#
# 1 72.9613 27.7271 33.5013 0.0000 0.0000 0.0000
# 2 27.7271 88.9988 37.4917 0.0000 0.0000 0.0000
# 3 33.5013 37.4917 127.4598 0.0000 0.0000 0.0000
# 4 0.0000 0.0000 0.0000 28.8067 0.0000 0.0000
# 5 0.0000 0.0000 0.0000 0.0000 17.3572 0.0000
# 6 0.0000 0.0000 0.0000 0.0000 0.0000 37.1369
#
#
#
# Elastic Compliance Matrix: (Units=1/GPa)
#
#
# Indices 1 2 3 4 5 6 
#
# 1 0.016650 -0.003817 -0.003254 0.000000 0.000000 0.000000
# 2 -0.003817 0.013700 -0.003027 0.000000 0.000000 0.000000
# 3 -0.003254 -0.003027 0.009591 0.000000 0.000000 0.000000
# 4 0.000000 0.000000 0.000000 0.034714 0.000000 0.000000
# 5 0.000000 0.000000 0.000000 0.000000 0.057613 0.000000
# 6 0.000000 0.000000 0.000000 0.000000 0.000000 0.026927
#
#
# Mechanical properties :
#
#
# Convention : Reuss Voigt Hill
#
# Bulk Modulus (GPa) = 50.63923 54.09555 52.36739
# Shear Modulus (GPa) = 26.88569 29.37348 28.12958
#
# Velocity S-wave (km/s) = 3.68681 3.85361 3.77113
# Velocity P-wave (km/s) = 6.61250 6.86655 6.74072
#
# Compressibility (1/GPa) = 0.01974753
#
# Stress axis : x y z
#
# Youngs Moduli (GPa) = 60.05895 72.99168 104.26345
#
# Poissons Ratio (x) = 0.27858 0.33924
# Poissons Ratio (y) = 0.22922 0.31557
# Poissons Ratio (z) = 0.19541 0.22092
#
# Static dielectric constant tensor:
#      x y z
#    x 3.664260 0.000000 0.000000 
#    y 0.000000 3.759940 0.000000 
#    z 0.000000 0.000000 3.812450 
# 
# 
# High freq. dielectric constant tensor:
#      x y z
#    x 1.755740 0.000000 0.000000 
#    y 0.000000 1.786910 0.000000 
#    z 0.000000 0.000000 1.787710 
# 
# From -- ./inp_files/70392.got.cif
#   From: 2010.06.25/outbox.cif.g09.slc.cpg/sg71_36_cif.got.tgz:70392.got - 2010.06.28 04:59:45.
