data_PCOD8291058
_publ_section_title
;
Structure prediction by ZEFSAII (Michael W. Deem and Ramdas Pophale) SiO2 
 PCOD8291058
Probable space group: I M M M
;
_chemical_formula_sum "Si O2"
_cell_formula_units_Z 112
_cell_length_a 14.581293
_cell_length_b 15.815071
_cell_length_c 26.394683
_cell_angle_alpha 90.000000
_cell_angle_beta 90.000000
_cell_angle_gamma 90.000000
_cell_volume 6086.724337
_symmetry_space_group_name_H-M "I M M M"
_symmetry_group_IT_number 71
_symmetry_cell_setting 'orthorhombic'
loop_
_space_group_symop_operation_xyz
x,y,z
-x,-y,z
x,-y,-z
-x,y,-z
-x,-y,-z
x,y,-z
-x,y,z
x,-y,z
1/2+x,1/2+y,1/2+z
1/2-x,1/2-y,1/2+z
1/2+x,1/2-y,1/2-z
1/2-x,1/2+y,1/2-z
1/2-x,1/2-y,1/2-z
1/2+x,1/2+y,1/2-z
1/2-x,1/2+y,1/2+z
1/2+x,1/2-y,1/2+z
loop_
_atom_site_type_symbol
_atom_site_label
_atom_site_fract_x
_atom_site_fract_y
_atom_site_fract_z
Si Si1 0.100662 0.178573 0.128605
Si Si2 0.251526 0.405659 0.125318
Si Si3 0.895877 0.170165 0.557536
Si Si4 0.606111 0.174624 0.557267
Si Si5 0.892810 0.341367 0.383867
Si Si6 0.260745 0.755439 0.809434
Si Si7 0.601543 0.500000 0.417086
Si Si8 0.305824 0.000000 0.057718
O O1 0.124609 0.229835 0.076995
O O2 0.168156 0.200349 0.173337
O O3 0.000000 0.205794 0.147335
O O4 0.105801 0.079933 0.119084
O O5 0.248277 0.500000 0.148006
O O6 0.336567 0.398045 0.087284
O O7 0.158728 0.389741 0.093802
O O8 0.265985 0.340668 0.171067
O O9 0.863248 0.170335 0.500000
O O10 0.880563 0.264575 0.577591
O O11 0.000000 0.141150 0.563670
O O12 0.643750 0.169646 0.500000
O O13 0.500000 0.149593 0.559130
O O14 0.845748 0.312677 0.330457
O O15 0.840551 0.419477 0.410138
O O16 0.000000 0.363333 0.374021
O O17 0.250000 0.750000 0.750000
O O18 0.500000 0.500000 0.445919
O O19 0.694715 0.500000 0.450177
O O20 0.346550 0.000000 0.000000
#
# Coordination Sequence:
#
# PCOD8291058 Si02
#       8
#    16  16  16  16  16  16   8   8
#     4   9  18  35  57  80 111 145 184 231 282 343
#     4  10  21  36  52  77 107 137 173 226 273 323
#     4   9  18  33  54  78 109 148 183 218 267 328
#     4   9  18  32  52  77 108 146 179 210 257 320
#     4  10  21  38  57  83 118 153 195 242 285 342
#     4  10  21  40  61  82 104 144 189 239 295 346
#     4  10  20  36  55  84 122 155 189 239 291 341
#     4  12  23  35  58  91 127 166 199 237 290 356
#
# _framework density 18.400701999999999
#
# number of rings (size 3 to 8) (size 9 to 14) (size 15 to 20)
#    0.000    2.286    1.429    1.071    0.000    4.143 
#    2.571    2.857    0.000    0.000    0.000    0.000 
#    0.000    0.000    0.000    0.000    0.000    0.000 
#
# Total GULP energy -694060.189324 kJ/mol
# GULP energy per Si atom -12393.931952 kJ/mol
# Density = 1.835882 g / cm^3
# Si number density = 18.400702 Si / 1000 Ang^3
#
#
#
# Elastic Constant Matrix: (Units=GPa)
#
#
# Indices 1 2 3 4 5 6 
#
# 1 114.7725 36.2159 47.4722 0.0000 0.0000 0.0000
# 2 36.2159 113.1597 39.5047 0.0000 0.0000 0.0000
# 3 47.4722 39.5047 129.4672 0.0000 0.0000 0.0000
# 4 0.0000 0.0000 0.0000 10.7111 0.0000 0.0000
# 5 0.0000 0.0000 0.0000 0.0000 19.7580 0.0000
# 6 0.0000 0.0000 0.0000 0.0000 0.0000 22.8692
#
#
#
# Elastic Compliance Matrix: (Units=1/GPa)
#
#
# Indices 1 2 3 4 5 6 
#
# 1 0.010788 -0.002319 -0.003248 0.000000 0.000000 0.000000
# 2 -0.002319 0.010389 -0.002320 0.000000 0.000000 0.000000
# 3 -0.003248 -0.002320 0.009623 0.000000 0.000000 0.000000
# 4 0.000000 0.000000 0.000000 0.093361 0.000000 0.000000
# 5 0.000000 0.000000 0.000000 0.000000 0.050613 0.000000
# 6 0.000000 0.000000 0.000000 0.000000 0.000000 0.043727
#
#
# Mechanical properties :
#
#
# Convention : Reuss Voigt Hill
#
# Bulk Modulus (GPa) = 66.54906 67.08726 66.81816
# Shear Modulus (GPa) = 20.89578 26.28142 23.58860
#
# Velocity S-wave (km/s) = 3.37352 3.78336 3.58430
# Velocity P-wave (km/s) = 7.17072 7.45811 7.31583
#
# Compressibility (1/GPa) = 0.01502651
#
# Stress axis : x y z
#
# Youngs Moduli (GPa) = 92.69514 96.25558 103.91932
#
# Poissons Ratio (x) = 0.22319 0.33755
# Poissons Ratio (y) = 0.21493 0.24108
# Poissons Ratio (z) = 0.30109 0.22330
#
# Static dielectric constant tensor:
#      x y z
#    x 3.979350 0.000000 0.000000 
#    y 0.000000 3.340210 0.000000 
#    z 0.000000 0.000000 3.096290 
# 
# 
# High freq. dielectric constant tensor:
#      x y z
#    x 1.734310 0.000000 0.000000 
#    y 0.000000 1.712110 0.000000 
#    z 0.000000 0.000000 1.682000 
# 
# From -- ./inp_files/65561.got.cif
#   From: 2010.06.25/outbox.cif.g09.slc.cpg/sg71_33_cif.got.tgz:65561.got - 2010.06.28 04:59:45.
