data_PCOD8291453
_publ_section_title
;
Structure prediction by ZEFSAII (Michael W. Deem and Ramdas Pophale) SiO2 
 PCOD8291453
Probable space group: I M M M
;
_chemical_formula_sum "Si O2"
_cell_formula_units_Z 72
_cell_length_a 17.031054
_cell_length_b 25.319951
_cell_length_c 9.045384
_cell_angle_alpha 90.000000
_cell_angle_beta 90.000000
_cell_angle_gamma 90.000000
_cell_volume 3900.599811
_symmetry_space_group_name_H-M "I M M M"
_symmetry_group_IT_number 71
_symmetry_cell_setting 'orthorhombic'
loop_
_space_group_symop_operation_xyz
x,y,z
-x,-y,z
x,-y,-z
-x,y,-z
-x,-y,-z
x,y,-z
-x,y,z
x,-y,z
1/2+x,1/2+y,1/2+z
1/2-x,1/2-y,1/2+z
1/2+x,1/2-y,1/2-z
1/2-x,1/2+y,1/2-z
1/2-x,1/2-y,1/2-z
1/2+x,1/2+y,1/2-z
1/2-x,1/2+y,1/2+z
1/2+x,1/2-y,1/2+z
loop_
_atom_site_type_symbol
_atom_site_label
_atom_site_fract_x
_atom_site_fract_y
_atom_site_fract_z
Si Si1 0.587166 0.345579 0.167475
Si Si2 0.628691 0.441441 0.334323
Si Si3 0.733366 0.304730 0.673575
Si Si4 0.591918 0.000000 0.325757
Si Si5 0.695422 0.914083 0.829636
O O1 0.500000 0.321045 0.180231
O O2 0.583695 0.407062 0.212668
O O3 0.644417 0.317628 0.282191
O O4 0.618575 0.339852 0.000000
O O5 0.613184 0.419060 0.500000
O O6 0.594885 0.500000 0.319415
O O7 0.721833 0.442686 0.305519
O O8 0.738079 0.296872 0.500000
O O9 0.750000 0.250000 0.750000
O O10 0.793073 0.352317 0.721169
O O11 0.630332 0.945914 0.263112
O O12 0.500000 0.000000 0.283707
O O13 0.604732 0.000000 0.500000
O O14 0.668887 0.916207 0.000000
#
# Coordination Sequence:
#
# PCOD8291453 Si02
#       5
#    16  16  16   8  16
#     4  10  21  35  51  76 110 143 177 219 265 315
#     4   9  17  31  51  75 104 139 179 218 259 315
#     4  10  21  38  61  85 108 140 185 232 280 337
#     4  11  23  35  51  81 116 147 184 233 285 334
#     4   9  18  35  56  78 106 141 182 223 269 330
#
# _framework density 18.4587
#
# number of rings (size 3 to 8) (size 9 to 14) (size 15 to 20)
#    0.000    2.333    1.111    3.000    0.000    8.000 
#    0.000    3.333    0.000    1.333    0.000    0.000 
#    0.000    0.000    0.000    0.000    0.000    0.000 
#
# Total GULP energy -446145.507738 kJ/mol
# GULP energy per Si atom -12392.930771 kJ/mol
# Density = 1.841669 g / cm^3
# Si number density = 18.458700 Si / 1000 Ang^3
#
#
#
# Elastic Constant Matrix: (Units=GPa)
#
#
# Indices 1 2 3 4 5 6 
#
# 1 88.0882 46.6209 43.5616 0.0000 0.0000 0.0000
# 2 46.6209 136.4449 54.4002 0.0000 0.0000 0.0000
# 3 43.5616 54.4002 84.3965 -0.0001 0.0000 0.0000
# 4 0.0000 0.0000 -0.0001 36.1061 0.0000 0.0000
# 5 0.0000 0.0000 0.0000 0.0000 28.3649 0.0000
# 6 0.0000 0.0000 0.0000 0.0000 0.0000 10.0902
#
#
#
# Elastic Compliance Matrix: (Units=1/GPa)
#
#
# Indices 1 2 3 4 5 6 
#
# 1 0.016074 -0.002940 -0.006402 0.000000 0.000000 0.000000
# 2 -0.002940 0.010402 -0.005187 0.000000 0.000000 0.000000
# 3 -0.006402 -0.005187 0.018497 0.000000 0.000000 0.000000
# 4 0.000000 0.000000 0.000000 0.027696 0.000000 0.000000
# 5 0.000000 0.000000 0.000000 0.000000 0.035255 0.000000
# 6 0.000000 0.000000 0.000000 0.000000 0.000000 0.099106
#
#
# Mechanical properties :
#
#
# Convention : Reuss Voigt Hill
#
# Bulk Modulus (GPa) = 62.83500 66.45499 64.64500
# Shear Modulus (GPa) = 20.71321 25.86872 23.29097
#
# Velocity S-wave (km/s) = 3.35347 3.74764 3.55602
# Velocity P-wave (km/s) = 7.00779 7.40314 7.20818
#
# Compressibility (1/GPa) = 0.01591470
#
# Stress axis : x y z
#
# Youngs Moduli (GPa) = 62.21249 96.13911 54.06388
#
# Poissons Ratio (x) = 0.28264 0.34610
# Poissons Ratio (y) = 0.18290 0.28044
# Poissons Ratio (z) = 0.39826 0.49869
#
# Static dielectric constant tensor:
#      x y z
#    x 3.267270 0.000000 0.000000 
#    y 0.000000 3.709210 0.000000 
#    z 0.000000 0.000000 3.460160 
# 
# 
# High freq. dielectric constant tensor:
#      x y z
#    x 1.698830 0.000000 0.000000 
#    y 0.000000 1.711960 0.000000 
#    z 0.000000 0.000000 1.718420 
# 
# From -- ./inp_files/6102.got.cif
#   From: 2010.06.25/outbox.cif.g09.slc.cpg/sg71_4_cif.got.tgz:6102.got - 2010.06.28 04:59:45.
