data_PCOD8291232
_publ_section_title
;
Structure prediction by ZEFSAII (Michael W. Deem and Ramdas Pophale) SiO2 
 PCOD8291232
Probable space group: I M M M
;
_chemical_formula_sum "Si O2"
_cell_formula_units_Z 104
_cell_length_a 32.291971
_cell_length_b 18.857691
_cell_length_c 9.419132
_cell_angle_alpha 90.000000
_cell_angle_beta 90.000000
_cell_angle_gamma 90.000000
_cell_volume 5735.799372
_symmetry_space_group_name_H-M "I M M M"
_symmetry_group_IT_number 71
_symmetry_cell_setting 'orthorhombic'
loop_
_space_group_symop_operation_xyz
x,y,z
-x,-y,z
x,-y,-z
-x,y,-z
-x,-y,-z
x,y,-z
-x,y,z
x,-y,z
1/2+x,1/2+y,1/2+z
1/2-x,1/2-y,1/2+z
1/2+x,1/2-y,1/2-z
1/2-x,1/2+y,1/2-z
1/2-x,1/2-y,1/2-z
1/2+x,1/2+y,1/2-z
1/2-x,1/2+y,1/2+z
1/2+x,1/2-y,1/2+z
loop_
_atom_site_type_symbol
_atom_site_label
_atom_site_fract_x
_atom_site_fract_y
_atom_site_fract_z
Si Si1 0.088622 0.916254 0.663134
Si Si2 0.118223 0.340467 0.832784
Si Si3 0.797951 0.416450 0.837741
Si Si4 0.740102 0.680593 0.662839
Si Si5 0.856858 0.184319 0.160201
Si Si6 0.000000 0.077593 0.331975
Si Si7 0.047655 0.581525 0.665685
O O1 0.097354 0.898957 0.500000
O O2 0.123324 0.878474 0.752168
O O3 0.043245 0.884607 0.710734
O O4 0.090264 0.000000 0.691289
O O5 0.156720 0.390262 0.790724
O O6 0.130096 0.261426 0.780569
O O7 0.077109 0.366528 0.753817
O O8 0.109618 0.343454 0.000000
O O9 0.796537 0.500000 0.822348
O O10 0.763038 0.385551 0.734650
O O11 0.789132 0.391963 0.000000
O O12 0.754968 0.688545 0.500000
O O13 0.750000 0.750000 0.750000
O O14 0.691460 0.669438 0.670402
O O15 0.872641 0.178425 0.000000
O O16 0.000000 0.067363 0.500000
O O17 0.000000 0.000000 0.260843
O O18 0.056402 0.593277 0.500000
O O19 0.056661 0.500000 0.707726
O O20 0.000000 0.600474 0.701316
#
# Coordination Sequence:
#
# PCOD8291232 Si02
#       7
#    16  16  16  16  16   8  16
#     4   9  18  34  57  83 109 140 182 226 268 319
#     4  10  20  37  57  79 111 149 187 224 269 326
#     4  10  21  38  60  86 115 145 182 231 279 323
#     4  11  22  39  60  79 108 147 186 227 275 331
#     4  10  22  38  55  78 111 147 180 220 272 326
#     4   7  12  28  53  77 103 135 172 219 266 309
#     4   9  19  36  56  80 112 146 182 229 279 323
#
# _framework density 18.131737000000001
#
# number of rings (size 3 to 8) (size 9 to 14) (size 15 to 20)
#    0.000    2.385    1.538    2.308    0.000    4.923 
#    1.385    4.231    0.000    1.385    0.000    0.000 
#    0.000    0.000    0.000    0.000    0.000    0.000 
#
# Total GULP energy -644620.270141 kJ/mol
# GULP energy per Si atom -12396.543657 kJ/mol
# Density = 1.809047 g / cm^3
# Si number density = 18.131737 Si / 1000 Ang^3
#
#
#
# Elastic Constant Matrix: (Units=GPa)
#
#
# Indices 1 2 3 4 5 6 
#
# 1 108.5120 54.7758 62.7453 0.0000 0.0000 0.0000
# 2 54.7758 71.2900 49.1498 0.0000 0.0000 0.0000
# 3 62.7453 49.1498 82.4290 0.0000 0.0000 0.0000
# 4 0.0000 0.0000 0.0000 30.3106 0.0000 0.0000
# 5 0.0000 0.0000 0.0000 0.0000 34.0519 0.0000
# 6 0.0000 0.0000 0.0000 0.0000 0.0000 33.1147
#
#
#
# Elastic Compliance Matrix: (Units=1/GPa)
#
#
# Indices 1 2 3 4 5 6 
#
# 1 0.018667 -0.007720 -0.009606 0.000000 0.000000 0.000000
# 2 -0.007720 0.027012 -0.010230 0.000000 0.000000 0.000000
# 3 -0.009606 -0.010230 0.025544 0.000000 0.000000 0.000000
# 4 0.000000 0.000000 0.000000 0.032992 0.000000 0.000000
# 5 0.000000 0.000000 0.000000 0.000000 0.029367 0.000000
# 6 0.000000 0.000000 0.000000 0.000000 0.000000 0.030198
#
#
# Mechanical properties :
#
#
# Convention : Reuss Voigt Hill
#
# Bulk Modulus (GPa) = 62.07161 66.17475 64.12318
# Shear Modulus (GPa) = 22.29536 25.86611 24.08074
#
# Velocity S-wave (km/s) = 3.51042 3.78109 3.64826
# Velocity P-wave (km/s) = 7.12311 7.45909 7.29304
#
# Compressibility (1/GPa) = 0.01611042
#
# Stress axis : x y z
#
# Youngs Moduli (GPa) = 53.56942 37.02112 39.14855
#
# Poissons Ratio (x) = 0.28581 0.37608
# Poissons Ratio (y) = 0.41356 0.40047
# Poissons Ratio (z) = 0.51461 0.37871
#
# Static dielectric constant tensor:
#      x y z
#    x 3.285400 0.000000 0.000000 
#    y 0.000000 3.227670 0.000000 
#    z 0.000000 0.000000 3.498690 
# 
# 
# High freq. dielectric constant tensor:
#      x y z
#    x 1.714100 0.000000 0.000000 
#    y 0.000000 1.695660 0.000000 
#    z 0.000000 0.000000 1.692540 
# 
# From -- ./inp_files/15039.got.cif
#   From: 2010.06.25/outbox.cif.g09.slc.cpg/sg71_8_cif.got.tgz:15039.got - 2010.06.28 04:59:45.
