data_PCOD8291617
_publ_section_title
;
Structure prediction by ZEFSAII (Michael W. Deem and Ramdas Pophale) SiO2 
 PCOD8291617
Probable space group: I M M M
;
_chemical_formula_sum "Si O2"
_cell_formula_units_Z 72
_cell_length_a 31.712012
_cell_length_b 8.985162
_cell_length_c 13.044487
_cell_angle_alpha 90.000000
_cell_angle_beta 90.000000
_cell_angle_gamma 90.000000
_cell_volume 3716.864365
_symmetry_space_group_name_H-M "I M M M"
_symmetry_group_IT_number 71
_symmetry_cell_setting 'orthorhombic'
loop_
_space_group_symop_operation_xyz
x,y,z
-x,-y,z
x,-y,-z
-x,y,-z
-x,-y,-z
x,y,-z
-x,y,z
x,-y,z
1/2+x,1/2+y,1/2+z
1/2-x,1/2-y,1/2+z
1/2+x,1/2-y,1/2-z
1/2-x,1/2+y,1/2-z
1/2-x,1/2-y,1/2-z
1/2+x,1/2+y,1/2-z
1/2-x,1/2+y,1/2+z
1/2+x,1/2-y,1/2+z
loop_
_atom_site_type_symbol
_atom_site_label
_atom_site_fract_x
_atom_site_fract_y
_atom_site_fract_z
Si Si1 0.096499 0.676319 0.800528
Si Si2 0.048395 0.174271 0.382926
Si Si3 0.729754 0.167895 0.882936
Si Si4 0.816579 0.171609 0.212333
Si Si5 0.952713 0.323036 0.000000
O O1 0.095475 0.500000 0.794323
O O2 0.078472 0.737932 0.693991
O O3 0.143898 0.729606 0.819460
O O4 0.069817 0.736531 0.897270
O O5 0.060153 0.217369 0.500000
O O6 0.000000 0.218364 0.360733
O O7 0.055224 0.000000 0.365602
O O8 0.779250 0.204253 0.868414
O O9 0.700127 0.283060 0.824252
O O10 0.721016 0.000000 0.843196
O O11 0.717490 0.185254 0.000000
O O12 0.830286 0.000000 0.214149
O O13 0.952469 0.500000 0.000000
O O14 0.000000 0.259390 0.000000
#
# Coordination Sequence:
#
# PCOD8291617 Si02
#       5
#    16  16  16  16   8
#     4  11  22  36  57  84 114 150 190 233 277 333
#     4   9  19  37  59  82 110 144 182 229 285 338
#     4   9  19  37  59  80 107 144 183 228 278 331
#     4  10  21  36  55  82 112 143 181 227 278 331
#     4   9  20  38  57  81 115 153 191 235 285 331
#
# _framework density 19.371165999999999
#
# number of rings (size 3 to 8) (size 9 to 14) (size 15 to 20)
#    0.000    2.333    0.000    2.667    1.556    4.000 
#    0.000    2.778    0.000    4.000    0.000    0.000 
#    0.000    0.000    0.000    0.000    0.000    0.000 
#
# Total GULP energy -446455.775269 kJ/mol
# GULP energy per Si atom -12401.549313 kJ/mol
# Density = 1.932708 g / cm^3
# Si number density = 19.371166 Si / 1000 Ang^3
#
#
#
# Elastic Constant Matrix: (Units=GPa)
#
#
# Indices 1 2 3 4 5 6 
#
# 1 102.0039 26.6681 37.5056 0.0000 0.0000 0.0000
# 2 26.6681 51.9697 29.8839 0.0000 0.0000 0.0000
# 3 37.5056 29.8839 96.7796 0.0000 0.0000 0.0000
# 4 0.0000 0.0000 0.0000 26.0712 0.0000 0.0000
# 5 0.0000 0.0000 0.0000 0.0000 10.4892 0.0000
# 6 0.0000 0.0000 0.0000 0.0000 0.0000 26.6188
#
#
#
# Elastic Compliance Matrix: (Units=1/GPa)
#
#
# Indices 1 2 3 4 5 6 
#
# 1 0.012174 -0.004297 -0.003391 0.000000 0.000000 0.000000
# 2 -0.004297 0.024913 -0.006027 0.000000 0.000000 0.000000
# 3 -0.003391 -0.006027 0.013508 0.000000 0.000000 0.000000
# 4 0.000000 0.000000 0.000000 0.038356 0.000000 0.000000
# 5 0.000000 0.000000 0.000000 0.000000 0.095336 0.000000
# 6 0.000000 0.000000 0.000000 0.000000 0.000000 0.037567
#
#
# Mechanical properties :
#
#
# Convention : Reuss Voigt Hill
#
# Bulk Modulus (GPa) = 43.17058 48.76315 45.96686
# Shear Modulus (GPa) = 19.45473 23.08222 21.26847
#
# Velocity S-wave (km/s) = 3.17253 3.45567 3.31712
# Velocity P-wave (km/s) = 5.97949 6.41482 6.20097
#
# Compressibility (1/GPa) = 0.02316392
#
# Stress axis : x y z
#
# Youngs Moduli (GPa) = 82.14376 40.13979 74.03001
#
# Poissons Ratio (x) = 0.17248 0.25103
# Poissons Ratio (y) = 0.35298 0.44621
# Poissons Ratio (z) = 0.27854 0.24194
#
# Static dielectric constant tensor:
#      x y z
#    x 3.535550 0.000000 0.000000 
#    y 0.000000 3.435830 0.000000 
#    z 0.000000 0.000000 3.554220 
# 
# 
# High freq. dielectric constant tensor:
#      x y z
#    x 1.757280 0.000000 0.000000 
#    y 0.000000 1.744680 0.000000 
#    z 0.000000 0.000000 1.758110 
# 
# From -- ./inp_files/39960.got.cif
#   From: 2010.06.25/outbox.cif.g09.slc.cpg/sg71_20_cif.got.tgz:39960.got - 2010.06.28 04:59:45.
