data_PCOD8291652
_publ_section_title
;
Structure prediction by ZEFSAII (Michael W. Deem and Ramdas Pophale) SiO2 
 PCOD8291652
Probable space group: I M M M
;
_chemical_formula_sum "Si O2"
_cell_formula_units_Z 88
_cell_length_a 8.586879
_cell_length_b 30.277742
_cell_length_c 16.875784
_cell_angle_alpha 90.000000
_cell_angle_beta 90.000000
_cell_angle_gamma 90.000000
_cell_volume 4387.557138
_symmetry_space_group_name_H-M "I M M M"
_symmetry_group_IT_number 71
_symmetry_cell_setting 'orthorhombic'
loop_
_space_group_symop_operation_xyz
x,y,z
-x,-y,z
x,-y,-z
-x,y,-z
-x,-y,-z
x,y,-z
-x,y,z
x,-y,z
1/2+x,1/2+y,1/2+z
1/2-x,1/2-y,1/2+z
1/2+x,1/2-y,1/2-z
1/2-x,1/2+y,1/2-z
1/2-x,1/2-y,1/2-z
1/2+x,1/2+y,1/2-z
1/2-x,1/2+y,1/2+z
1/2+x,1/2-y,1/2+z
loop_
_atom_site_type_symbol
_atom_site_label
_atom_site_fract_x
_atom_site_fract_y
_atom_site_fract_z
Si Si1 0.183578 0.116429 0.370955
Si Si2 0.184605 0.548275 0.587397
Si Si3 0.815811 0.551250 0.000000
Si Si4 0.183798 0.623753 0.300912
Si Si5 0.329845 0.287407 0.090827
Si Si6 0.319206 0.698444 0.592330
O O1 0.259431 0.076728 0.421065
O O2 0.225531 0.114393 0.279402
O O3 0.247222 0.164367 0.398685
O O4 0.000000 0.113235 0.385042
O O5 0.254630 0.556143 0.500000
O O6 0.234156 0.500000 0.618997
O O7 0.252155 0.584900 0.644838
O O8 0.000000 0.552112 0.583270
O O9 0.755433 0.500000 0.000000
O O10 0.000000 0.551338 0.000000
O O11 0.222148 0.668904 0.346337
O O12 0.000000 0.621303 0.285078
O O13 0.500000 0.285171 0.134061
O O14 0.215669 0.248669 0.120734
O O15 0.358750 0.278250 0.000000
O O16 0.270691 0.689880 0.500000
O O17 0.500000 0.688791 0.603995
#
# Coordination Sequence:
#
# PCOD8291652 Si02
#       6
#    16  16   8  16  16  16
#     4  11  23  41  63  88 118 154 194 244 303 359
#     4   8  15  30  53  79 107 143 188 235 282 335
#     4  11  25  45  69  95 121 153 199 251 302 365
#     4  11  22  35  55  86 121 157 195 242 298 359
#     4   9  18  36  60  83 109 148 197 244 292 354
#     4  10  21  36  56  85 119 158 200 246 297 351
#
# _framework density 20.056718
#
# number of rings (size 3 to 8) (size 9 to 14) (size 15 to 20)
#    0.000    2.091    0.909    3.000    0.000    5.455 
#    0.000    1.818    0.000    1.636    0.000    6.364 
#    0.000    0.000    0.000    0.000    0.000    0.000 
#
# Total GULP energy -545302.906665 kJ/mol
# GULP energy per Si atom -12393.247879 kJ/mol
# Density = 2.001107 g / cm^3
# Si number density = 20.056718 Si / 1000 Ang^3
#
#
#
# Elastic Constant Matrix: (Units=GPa)
#
#
# Indices 1 2 3 4 5 6 
#
# 1 41.6185 27.2052 20.4478 0.0002 0.0000 0.0000
# 2 27.2052 164.6860 65.4576 0.0005 0.0000 0.0000
# 3 20.4478 65.4576 94.3743 0.0041 -0.0001 0.0000
# 4 0.0002 0.0005 0.0041 100.6392 -0.0001 -0.0001
# 5 0.0000 0.0000 -0.0001 -0.0001 30.6986 0.0000
# 6 0.0000 0.0000 0.0000 -0.0001 0.0000 21.0555
#
#
#
# Elastic Compliance Matrix: (Units=1/GPa)
#
#
# Indices 1 2 3 4 5 6 
#
# 1 0.027959 -0.003052 -0.003941 0.000000 0.000000 0.000000
# 2 -0.003052 0.008717 -0.005384 0.000000 0.000000 0.000000
# 3 -0.003941 -0.005384 0.015185 -0.000001 0.000000 0.000000
# 4 0.000000 0.000000 -0.000001 0.009936 0.000000 0.000000
# 5 0.000000 0.000000 0.000000 0.000000 0.032575 0.000000
# 6 0.000000 0.000000 0.000000 0.000000 0.000000 0.047494
#
#
# Mechanical properties :
#
#
# Convention : Reuss Voigt Hill
#
# Bulk Modulus (GPa) = 36.89320 58.54443 47.71882
# Shear Modulus (GPa) = 28.46486 42.98320 35.72403
#
# Velocity S-wave (km/s) = 3.77134 4.63437 4.22495
# Velocity P-wave (km/s) = 6.11542 7.60850 6.90245
#
# Compressibility (1/GPa) = 0.02710526
#
# Stress axis : x y z
#
# Youngs Moduli (GPa) = 35.76639 114.72456 65.85651
#
# Poissons Ratio (x) = 0.35018 0.25952
# Poissons Ratio (y) = 0.10917 0.35460
# Poissons Ratio (z) = 0.14095 0.61772
#
# Static dielectric constant tensor:
#      x y z
#    x 3.492370 0.000000 0.000000 
#    y 0.000000 3.993520 0.000000 
#    z 0.000000 0.000000 3.643360 
# 
# 
# High freq. dielectric constant tensor:
#      x y z
#    x 1.765820 0.000000 0.000000 
#    y 0.000000 1.795620 0.000000 
#    z 0.000000 0.000000 1.775790 
# 
# From -- ./inp_files/42440.got.cif
#   From: 2010.06.25/outbox.cif.g09.slc.cpg/sg71_22_cif.got.tgz:42440.got - 2010.06.28 04:59:45.
