data_PCOD8291516
_publ_section_title
;
Structure prediction by ZEFSAII (Michael W. Deem and Ramdas Pophale) SiO2 
 PCOD8291516
Probable space group: I M M M
;
_chemical_formula_sum "Si O2"
_cell_formula_units_Z 104
_cell_length_a 23.431296
_cell_length_b 29.455948
_cell_length_c 7.401583
_cell_angle_alpha 90.000000
_cell_angle_beta 90.000000
_cell_angle_gamma 90.000000
_cell_volume 5108.506243
_symmetry_space_group_name_H-M "I M M M"
_symmetry_group_IT_number 71
_symmetry_cell_setting 'orthorhombic'
loop_
_space_group_symop_operation_xyz
x,y,z
-x,-y,z
x,-y,-z
-x,y,-z
-x,-y,-z
x,y,-z
-x,y,z
x,-y,z
1/2+x,1/2+y,1/2+z
1/2-x,1/2-y,1/2+z
1/2+x,1/2-y,1/2-z
1/2-x,1/2+y,1/2-z
1/2-x,1/2-y,1/2-z
1/2+x,1/2+y,1/2-z
1/2-x,1/2+y,1/2+z
1/2+x,1/2-y,1/2+z
loop_
_atom_site_type_symbol
_atom_site_label
_atom_site_fract_x
_atom_site_fract_y
_atom_site_fract_z
Si Si1 0.434223 0.111692 0.786406
Si Si2 0.627421 0.947718 0.500000
Si Si3 0.868593 0.302226 0.295367
Si Si4 0.629961 0.702191 0.711305
Si Si5 0.249224 0.164693 0.214917
Si Si6 0.933423 0.113549 0.788209
Si Si7 0.875190 0.052224 0.500000
Si Si8 0.751664 0.912255 0.500000
O O1 0.500000 0.107488 0.732760
O O2 0.398451 0.073917 0.681525
O O3 0.412860 0.161206 0.714574
O O4 0.425082 0.104551 0.000000
O O5 0.695592 0.943098 0.500000
O O6 0.610289 0.000000 0.500000
O O7 0.862198 0.316166 0.500000
O O8 0.891954 0.251176 0.277204
O O9 0.804954 0.308029 0.213216
O O10 0.626753 0.702516 0.500000
O O11 0.694607 0.694012 0.777853
O O12 0.588927 0.662411 0.784023
O O13 0.247347 0.116967 0.316647
O O14 0.248081 0.155379 0.000000
O O15 0.901007 0.074511 0.680330
O O16 0.000000 0.110707 0.746127
O O17 0.920041 0.106953 0.000000
O O18 0.806948 0.055840 0.500000
O O19 0.893359 0.000000 0.500000
#
# Coordination Sequence:
#
# PCOD8291516 Si02
#       8
#    16   8  16  16  16  16   8   8
#     4  10  23  44  65  90 129 171 212 263 313 371
#     4  12  26  44  69  99 124 160 214 269 327 388
#     4  10  21  35  58  90 127 167 213 258 311 371
#     4  10  21  35  58  90 127 167 213 258 311 371
#     4  10  21  38  59  88 123 171 215 257 312 379
#     4  10  23  44  65  90 129 171 212 263 313 371
#     4  12  26  44  69  99 124 160 214 269 327 388
#     4  12  23  40  72  88 130 168 196 266 337 374
#
# _framework density 20.358201000000001
#
# number of rings (size 3 to 8) (size 9 to 14) (size 15 to 20)
#    0.000    1.538    3.077    1.154    4.308    2.462 
#    0.000    1.538    0.000    2.769    0.000    0.000 
#    0.000    0.000    0.000    0.000    0.000    0.000 
#
# Total GULP energy -644726.286574 kJ/mol
# GULP energy per Si atom -12398.582434 kJ/mol
# Density = 2.031186 g / cm^3
# Si number density = 20.358201 Si / 1000 Ang^3
#
#
#
# Elastic Constant Matrix: (Units=GPa)
#
#
# Indices 1 2 3 4 5 6 
#
# 1 144.1417 65.3612 41.8610 0.0000 0.0000 0.0000
# 2 65.3612 164.7235 41.2496 0.0000 0.0000 0.0000
# 3 41.8610 41.2496 69.2439 0.0000 0.0000 0.0000
# 4 0.0000 0.0000 0.0000 25.1416 0.0000 0.0000
# 5 0.0000 0.0000 0.0000 0.0000 4.0594 0.0000
# 6 0.0000 0.0000 0.0000 0.0000 0.0000 13.3538
#
#
#
# Elastic Compliance Matrix: (Units=1/GPa)
#
#
# Indices 1 2 3 4 5 6 
#
# 1 0.009331 -0.002691 -0.004038 0.000000 0.000000 0.000000
# 2 -0.002691 0.007911 -0.003086 0.000000 0.000000 0.000000
# 3 -0.004038 -0.003086 0.018721 0.000000 0.000000 0.000000
# 4 0.000000 0.000000 0.000000 0.039775 0.000000 0.000000
# 5 0.000000 0.000000 0.000000 0.000000 0.246341 0.000000
# 6 0.000000 0.000000 0.000000 0.000000 0.000000 0.074885
#
#
# Mechanical properties :
#
#
# Convention : Reuss Voigt Hill
#
# Bulk Modulus (GPa) = 61.22415 75.00587 68.11501
# Shear Modulus (GPa) = 11.84728 23.82010 17.83369
#
# Velocity S-wave (km/s) = 2.41496 3.42431 2.96293
# Velocity P-wave (km/s) = 6.15750 7.24966 6.72579
#
# Compressibility (1/GPa) = 0.01633342
#
# Stress axis : x y z
#
# Youngs Moduli (GPa) = 107.17523 126.39952 53.41616
#
# Poissons Ratio (x) = 0.34017 0.21567
# Poissons Ratio (y) = 0.28843 0.16484
# Poissons Ratio (z) = 0.43272 0.39007
#
# Static dielectric constant tensor:
#      x y z
#    x 4.036890 0.000000 0.000000 
#    y 0.000000 3.802530 0.000000 
#    z 0.000000 0.000000 3.715340 
# 
# 
# High freq. dielectric constant tensor:
#      x y z
#    x 1.804170 0.000000 0.000000 
#    y 0.000000 1.781650 0.000000 
#    z 0.000000 0.000000 1.800990 
# 
# From -- ./inp_files/13357.got.cif
#   From: 2010.06.25/outbox.cif.g09.slc.cpg/sg71_7_cif.got.tgz:13357.got - 2010.06.28 04:59:45.
