data_PCOD8291321
_publ_section_title
;
Structure prediction by ZEFSAII (Michael W. Deem and Ramdas Pophale) SiO2 
 PCOD8291321
Probable space group: I M M M
;
_chemical_formula_sum "Si O2"
_cell_formula_units_Z 104
_cell_length_a 20.569273
_cell_length_b 9.152630
_cell_length_c 29.385445
_cell_angle_alpha 90.000000
_cell_angle_beta 90.000000
_cell_angle_gamma 90.000000
_cell_volume 5532.190420
_symmetry_space_group_name_H-M "I M M M"
_symmetry_group_IT_number 71
_symmetry_cell_setting 'orthorhombic'
loop_
_space_group_symop_operation_xyz
x,y,z
-x,-y,z
x,-y,-z
-x,y,-z
-x,-y,-z
x,y,-z
-x,y,z
x,-y,z
1/2+x,1/2+y,1/2+z
1/2-x,1/2-y,1/2+z
1/2+x,1/2-y,1/2-z
1/2-x,1/2+y,1/2-z
1/2-x,1/2-y,1/2-z
1/2+x,1/2+y,1/2-z
1/2-x,1/2+y,1/2+z
1/2+x,1/2-y,1/2+z
loop_
_atom_site_type_symbol
_atom_site_label
_atom_site_fract_x
_atom_site_fract_y
_atom_site_fract_z
Si Si1 0.863191 0.668409 0.128102
Si Si2 0.573832 0.664644 0.552470
Si Si3 0.573149 0.328536 0.289851
Si Si4 0.000000 0.835556 0.553827
Si Si5 0.287180 0.668798 0.125844
Si Si6 0.370245 0.172246 0.052935
Si Si7 0.810666 0.171282 0.273265
O O1 0.879639 0.500000 0.134117
O O2 0.880944 0.720055 0.077701
O O3 0.907343 0.755612 0.163094
O O4 0.787886 0.701560 0.135339
O O5 0.578845 0.704875 0.500000
O O6 0.500000 0.679423 0.569606
O O7 0.598787 0.500000 0.561386
O O8 0.500000 0.281483 0.275994
O O9 0.577512 0.500000 0.297802
O O10 0.622505 0.277930 0.250434
O O11 0.063844 0.749665 0.570274
O O12 0.000000 0.842370 0.500000
O O13 0.000000 0.000000 0.574381
O O14 0.299138 0.500000 0.112484
O O15 0.312280 0.768622 0.084498
O O16 0.320980 0.710863 0.173626
O O17 0.378195 0.000000 0.059652
O O18 0.355233 0.209477 0.000000
O O19 0.750000 0.250000 0.250000
O O20 0.797220 0.000000 0.267709
#
# Coordination Sequence:
#
# PCOD8291321 Si02
#       7
#    16  16  16   8  16  16  16
#     4  11  22  35  54  81 112 145 185 232 282 335
#     4   9  19  36  55  75 104 143 185 228 275 331
#     4  10  21  37  59  85 111 144 188 233 279 337
#     4   9  17  33  59  85 111 149 189 227 281 339
#     4  10  22  38  55  81 114 148 188 230 279 340
#     4  10  21  37  58  85 116 149 190 237 281 334
#     4  10  20  38  61  83 112 149 189 232 282 339
#
# _framework density 18.799064000000001
#
# number of rings (size 3 to 8) (size 9 to 14) (size 15 to 20)
#    0.000    2.077    1.538    2.077    0.000    7.077 
#    1.385    3.846    0.000    0.000    0.000    0.000 
#    0.000    0.000    0.000    0.000    0.000    0.000 
#
# Total GULP energy -644865.135100 kJ/mol
# GULP energy per Si atom -12401.252598 kJ/mol
# Density = 1.875628 g / cm^3
# Si number density = 18.799064 Si / 1000 Ang^3
#
#
#
# Elastic Constant Matrix: (Units=GPa)
#
#
# Indices 1 2 3 4 5 6 
#
# 1 106.6525 54.8847 55.9769 0.0000 0.0000 0.0000
# 2 54.8847 58.4976 39.6051 0.0000 0.0000 0.0000
# 3 55.9769 39.6051 96.9896 0.0000 0.0000 0.0000
# 4 0.0000 0.0000 0.0000 25.9889 0.0000 0.0000
# 5 0.0000 0.0000 0.0000 0.0000 35.3171 0.0000
# 6 0.0000 0.0000 0.0000 0.0000 0.0000 34.0075
#
#
#
# Elastic Compliance Matrix: (Units=1/GPa)
#
#
# Indices 1 2 3 4 5 6 
#
# 1 0.019956 -0.015100 -0.005351 0.000000 0.000000 0.000000
# 2 -0.015100 0.035053 -0.005599 0.000000 0.000000 0.000000
# 3 -0.005351 -0.005599 0.015685 0.000000 0.000000 0.000000
# 4 0.000000 0.000000 0.000000 0.038478 0.000000 0.000000
# 5 0.000000 0.000000 0.000000 0.000000 0.028315 0.000000
# 6 0.000000 0.000000 0.000000 0.000000 0.000000 0.029405
#
#
# Mechanical properties :
#
#
# Convention : Reuss Voigt Hill
#
# Bulk Modulus (GPa) = 53.78262 62.56367 58.17314
# Shear Modulus (GPa) = 22.20360 26.50757 24.35558
#
# Velocity S-wave (km/s) = 3.44044 3.75913 3.60331
# Velocity P-wave (km/s) = 6.66735 7.22453 6.95153
#
# Compressibility (1/GPa) = 0.01859337
#
# Stress axis : x y z
#
# Youngs Moduli (GPa) = 50.11148 28.52850 63.75553
#
# Poissons Ratio (x) = 0.43078 0.34117
# Poissons Ratio (y) = 0.75669 0.35694
# Poissons Ratio (z) = 0.26815 0.15972
#
# Static dielectric constant tensor:
#      x y z
#    x 3.570490 0.000000 0.000000 
#    y 0.000000 3.449880 0.000000 
#    z 0.000000 0.000000 3.421910 
# 
# 
# High freq. dielectric constant tensor:
#      x y z
#    x 1.731710 0.000000 0.000000 
#    y 0.000000 1.728890 0.000000 
#    z 0.000000 0.000000 1.727630 
# 
# From -- ./inp_files/70735.got.cif
#   From: 2010.06.25/outbox.cif.g09.slc.cpg/sg71_36_cif.got.tgz:70735.got - 2010.06.28 04:59:45.
