data_PCOD8291011
_publ_section_title
;
Structure prediction by ZEFSAII (Michael W. Deem and Ramdas Pophale) SiO2 
 PCOD8291011
Probable space group: I M M M
;
_chemical_formula_sum "Si O2"
_cell_formula_units_Z 88
_cell_length_a 26.089166
_cell_length_b 7.773244
_cell_length_c 21.811909
_cell_angle_alpha 90.000000
_cell_angle_beta 90.000000
_cell_angle_gamma 90.000000
_cell_volume 4423.399592
_symmetry_space_group_name_H-M "I M M M"
_symmetry_group_IT_number 71
_symmetry_cell_setting 'orthorhombic'
loop_
_space_group_symop_operation_xyz
x,y,z
-x,-y,z
x,-y,-z
-x,y,-z
-x,-y,-z
x,y,-z
-x,y,z
x,-y,z
1/2+x,1/2+y,1/2+z
1/2-x,1/2-y,1/2+z
1/2+x,1/2-y,1/2-z
1/2-x,1/2+y,1/2-z
1/2-x,1/2-y,1/2-z
1/2+x,1/2+y,1/2-z
1/2-x,1/2+y,1/2+z
1/2+x,1/2-y,1/2+z
loop_
_atom_site_type_symbol
_atom_site_label
_atom_site_fract_x
_atom_site_fract_y
_atom_site_fract_z
Si Si1 0.893849 0.299325 0.866603
Si Si2 0.631370 0.000000 0.069211
Si Si3 0.307901 0.698840 0.872363
Si Si4 0.617239 0.308567 0.231995
Si Si5 0.440687 0.000000 0.823868
Si Si6 0.500000 0.702676 0.430024
Si Si7 0.794588 0.702161 0.067201
O O1 0.887977 0.500000 0.852493
O O2 0.879663 0.198085 0.804968
O O3 0.950102 0.265116 0.893437
O O4 0.850815 0.230625 0.913727
O O5 0.662019 0.825138 0.082592
O O6 0.579585 0.000000 0.107560
O O7 0.613763 0.000000 0.000000
O O8 0.316831 0.500000 0.892423
O O9 0.327884 0.729287 0.802265
O O10 0.248029 0.749720 0.881212
O O11 0.598916 0.500000 0.212976
O O12 0.575681 0.170887 0.211627
O O13 0.500000 0.000000 0.827387
O O14 0.500000 0.500000 0.431974
O O15 0.500000 0.776371 0.500000
O O16 0.797732 0.500000 0.060788
O O17 0.780900 0.781336 0.000000
#
# Coordination Sequence:
#
# PCOD8291011 Si02
#       7
#    16   8  16  16   8   8  16
#     4  11  22  37  60  86 113 151 197 244 293 348
#     4  10  20  35  58  90 118 149 196 234 281 352
#     4   9  19  37  59  84 118 156 190 236 289 340
#     4  10  21  38  59  86 116 150 198 242 289 346
#     4  10  22  39  60  84 116 154 191 241 296 345
#     4  11  25  43  59  81 117 157 199 247 297 348
#     4   9  18  34  57  84 114 150 192 236 289 349
#
# _framework density 19.894200999999999
#
# number of rings (size 3 to 8) (size 9 to 14) (size 15 to 20)
#    0.000    2.091    0.909    1.909    1.273    3.818 
#    3.273    0.000    0.000    0.000    0.000    5.091 
#    0.000    0.000    0.000    0.000    0.000    0.000 
#
# Total GULP energy -545273.424093 kJ/mol
# GULP energy per Si atom -12392.577820 kJ/mol
# Density = 1.984892 g / cm^3
# Si number density = 19.894201 Si / 1000 Ang^3
#
#
#
# Elastic Constant Matrix: (Units=GPa)
#
#
# Indices 1 2 3 4 5 6 
#
# 1 173.7444 34.1249 74.5182 0.0000 0.0000 0.0000
# 2 34.1249 88.6330 25.2697 0.0000 0.0000 0.0000
# 3 74.5182 25.2697 142.2067 0.0000 0.0000 0.0000
# 4 0.0000 0.0000 0.0000 33.9376 0.0000 0.0000
# 5 0.0000 0.0000 0.0000 0.0000 22.5822 0.0000
# 6 0.0000 0.0000 0.0000 0.0000 0.0000 16.9167
#
#
#
# Elastic Compliance Matrix: (Units=1/GPa)
#
#
# Indices 1 2 3 4 5 6 
#
# 1 0.007721 -0.001916 -0.003706 0.000000 0.000000 0.000000
# 2 -0.001916 0.012360 -0.001192 0.000000 0.000000 0.000000
# 3 -0.003706 -0.001192 0.009186 0.000000 0.000000 0.000000
# 4 0.000000 0.000000 0.000000 0.029466 0.000000 0.000000
# 5 0.000000 0.000000 0.000000 0.000000 0.044283 0.000000
# 6 0.000000 0.000000 0.000000 0.000000 0.000000 0.059113
#
#
# Mechanical properties :
#
#
# Convention : Reuss Voigt Hill
#
# Bulk Modulus (GPa) = 63.94278 74.71222 69.32750
# Shear Modulus (GPa) = 27.62893 32.73205 30.18049
#
# Velocity S-wave (km/s) = 3.73069 4.06064 3.89916
# Velocity P-wave (km/s) = 7.12521 7.72149 7.42933
#
# Compressibility (1/GPa) = 0.01563898
#
# Stress axis : x y z
#
# Youngs Moduli (GPa) = 129.51288 80.90493 108.86603
#
# Poissons Ratio (x) = 0.15504 0.40340
# Poissons Ratio (y) = 0.24819 0.12979
# Poissons Ratio (z) = 0.47991 0.09645
#
# Static dielectric constant tensor:
#      x y z
#    x 3.744840 0.000000 0.000000 
#    y 0.000000 3.596120 0.000000 
#    z 0.000000 0.000000 3.897780 
# 
# 
# High freq. dielectric constant tensor:
#      x y z
#    x 1.767530 0.000000 0.000000 
#    y 0.000000 1.782040 0.000000 
#    z 0.000000 0.000000 1.776510 
# 
# From -- ./inp_files/55638.got.cif
#   From: 2010.06.25/outbox.cif.g09.slc.cpg/sg71_28_cif.got.tgz:55638.got - 2010.06.28 04:59:45.
