data_PCOD8291209
_publ_section_title
;
Structure prediction by ZEFSAII (Michael W. Deem and Ramdas Pophale) SiO2 
 PCOD8291209
Probable space group: I M M M
;
_chemical_formula_sum "Si O2"
_cell_formula_units_Z 104
_cell_length_a 14.073631
_cell_length_b 14.671800
_cell_length_c 24.831960
_cell_angle_alpha 90.000000
_cell_angle_beta 90.000000
_cell_angle_gamma 90.000000
_cell_volume 5127.439659
_symmetry_space_group_name_H-M "I M M M"
_symmetry_group_IT_number 71
_symmetry_cell_setting 'orthorhombic'
loop_
_space_group_symop_operation_xyz
x,y,z
-x,-y,z
x,-y,-z
-x,y,-z
-x,-y,-z
x,y,-z
-x,y,z
x,-y,z
1/2+x,1/2+y,1/2+z
1/2-x,1/2-y,1/2+z
1/2+x,1/2-y,1/2-z
1/2-x,1/2+y,1/2-z
1/2-x,1/2-y,1/2-z
1/2+x,1/2+y,1/2-z
1/2-x,1/2+y,1/2+z
1/2+x,1/2-y,1/2+z
loop_
_atom_site_type_symbol
_atom_site_label
_atom_site_fract_x
_atom_site_fract_y
_atom_site_fract_z
Si Si1 0.695975 0.899106 0.890453
Si Si2 0.890348 0.102103 0.252137
Si Si3 0.394809 0.649178 0.368120
Si Si4 0.612254 0.725160 0.848350
Si Si5 0.104045 0.324326 0.939404
Si Si6 0.304077 0.398136 0.938279
Si Si7 0.105729 0.607973 0.500000
O O1 0.810232 0.910643 0.893190
O O2 0.662145 0.825124 0.846255
O O3 0.660839 0.858533 0.947268
O O4 0.652966 0.000000 0.878325
O O5 0.876561 0.153879 0.195783
O O6 0.845893 0.165763 0.298757
O O7 0.000000 0.089608 0.266071
O O8 0.843564 0.000000 0.250826
O O9 0.500000 0.606273 0.379489
O O10 0.387358 0.748338 0.393641
O O11 0.500000 0.740616 0.844471
O O12 0.638184 0.673543 0.903146
O O13 0.189891 0.393993 0.929479
O O14 0.000000 0.372289 0.933493
O O15 0.112307 0.282118 0.000000
O O16 0.336288 0.500000 0.922433
O O17 0.329991 0.376603 0.000000
O O18 0.101823 0.500000 0.500000
O O19 0.000000 0.649789 0.500000
#
# Coordination Sequence:
#
# PCOD8291209 Si02
#       7
#    16  16  16  16  16  16   8
#     4  11  23  38  58  87 118 152 198 242 287 353
#     4   9  19  37  59  83 114 153 196 237 289 358
#     4  10  20  36  61  87 116 152 190 239 295 348
#     4  11  23  38  59  83 112 154 198 243 293 342
#     4   9  18  34  57  85 117 152 188 229 284 351
#     4  10  21  37  58  87 119 149 188 238 290 345
#     4   9  20  38  57  79 114 158 194 227 275 341
#
# _framework density 20.283027000000001
#
# number of rings (size 3 to 8) (size 9 to 14) (size 15 to 20)
#    0.000    2.077    1.538    1.385    2.154    4.000 
#    0.000    2.308    0.000    1.385    0.000    4.308 
#    0.000    0.000    0.000    0.000    0.000    0.000 
#
# Total GULP energy -644421.557594 kJ/mol
# GULP energy per Si atom -12392.722261 kJ/mol
# Density = 2.023686 g / cm^3
# Si number density = 20.283027 Si / 1000 Ang^3
#
#
#
# Elastic Constant Matrix: (Units=GPa)
#
#
# Indices 1 2 3 4 5 6 
#
# 1 93.5338 21.4910 34.9609 0.0000 0.0000 0.0000
# 2 21.4910 100.7576 50.9539 0.0000 0.0000 0.0000
# 3 34.9609 50.9539 104.9795 0.0000 0.0000 0.0000
# 4 0.0000 0.0000 0.0000 8.9051 0.0000 0.0000
# 5 0.0000 0.0000 0.0000 0.0000 24.7802 0.0000
# 6 0.0000 0.0000 0.0000 0.0000 0.0000 20.6199
#
#
#
# Elastic Compliance Matrix: (Units=1/GPa)
#
#
# Indices 1 2 3 4 5 6 
#
# 1 0.012252 -0.000729 -0.003726 0.000000 0.000000 0.000000
# 2 -0.000729 0.013197 -0.006163 0.000000 0.000000 0.000000
# 3 -0.003726 -0.006163 0.013758 0.000000 0.000000 0.000000
# 4 0.000000 0.000000 0.000000 0.112295 0.000000 0.000000
# 5 0.000000 0.000000 0.000000 0.000000 0.040355 0.000000
# 6 0.000000 0.000000 0.000000 0.000000 0.000000 0.048497
#
#
# Mechanical properties :
#
#
# Convention : Reuss Voigt Hill
#
# Bulk Modulus (GPa) = 55.64623 57.12026 56.38325
# Shear Modulus (GPa) = 18.68611 23.65205 21.16908
#
# Velocity S-wave (km/s) = 3.03853 3.41853 3.23412
# Velocity P-wave (km/s) = 6.30909 6.61850 6.46565
#
# Compressibility (1/GPa) = 0.01797067
#
# Stress axis : x y z
#
# Youngs Moduli (GPa) = 81.62188 75.77639 72.68600
#
# Poissons Ratio (x) = 0.05522 0.27086
# Poissons Ratio (y) = 0.05948 0.44794
# Poissons Ratio (z) = 0.30416 0.46698
#
# Static dielectric constant tensor:
#      x y z
#    x 3.830720 0.000000 0.000000 
#    y 0.000000 3.580060 0.000000 
#    z 0.000000 0.000000 3.709020 
# 
# 
# High freq. dielectric constant tensor:
#      x y z
#    x 1.789230 0.000000 0.000000 
#    y 0.000000 1.780940 0.000000 
#    z 0.000000 0.000000 1.783940 
# 
# From -- ./inp_files/59940.got.cif
#   From: 2010.06.25/outbox.cif.g09.slc.cpg/sg71_30_cif.got.tgz:59940.got - 2010.06.28 04:59:45.
