data_PCOD8291333
_publ_section_title
;
Structure prediction by ZEFSAII (Michael W. Deem and Ramdas Pophale) SiO2 
 PCOD8291333
Probable space group: I M M M
;
_chemical_formula_sum "Si O2"
_cell_formula_units_Z 96
_cell_length_a 14.043938
_cell_length_b 22.646827
_cell_length_c 14.911923
_cell_angle_alpha 90.000000
_cell_angle_beta 90.000000
_cell_angle_gamma 90.000000
_cell_volume 4742.746569
_symmetry_space_group_name_H-M "I M M M"
_symmetry_group_IT_number 71
_symmetry_cell_setting 'orthorhombic'
loop_
_space_group_symop_operation_xyz
x,y,z
-x,-y,z
x,-y,-z
-x,y,-z
-x,-y,-z
x,y,-z
-x,y,z
x,-y,z
1/2+x,1/2+y,1/2+z
1/2-x,1/2-y,1/2+z
1/2+x,1/2-y,1/2-z
1/2-x,1/2+y,1/2-z
1/2-x,1/2-y,1/2-z
1/2+x,1/2+y,1/2-z
1/2-x,1/2+y,1/2+z
1/2+x,1/2-y,1/2+z
loop_
_atom_site_type_symbol
_atom_site_label
_atom_site_fract_x
_atom_site_fract_y
_atom_site_fract_z
Si Si1 0.109288 0.658934 0.104990
Si Si2 0.606503 0.929915 0.098076
Si Si3 0.892283 0.138752 0.253260
Si Si4 0.104923 0.760640 0.397985
Si Si5 0.714227 0.931062 0.271887
Si Si6 0.197144 0.216219 0.896531
O O1 0.157084 0.603133 0.151963
O O2 0.162816 0.718739 0.133630
O O3 0.000000 0.664597 0.135432
O O4 0.118213 0.647642 0.000000
O O5 0.500000 0.906763 0.118516
O O6 0.677513 0.908181 0.175056
O O7 0.605879 0.000000 0.095130
O O8 0.640215 0.905589 0.000000
O O9 0.882578 0.183297 0.335308
O O10 0.826669 0.082538 0.275689
O O11 0.857973 0.168383 0.161238
O O12 0.000000 0.116390 0.241010
O O13 0.116148 0.783673 0.500000
O O14 0.188301 0.712952 0.378541
O O15 0.000000 0.731491 0.383223
O O16 0.696236 0.000000 0.287340
O O17 0.171120 0.204423 0.000000
#
# Coordination Sequence:
#
# PCOD8291333 Si02
#       6
#    16  16  16  16  16  16
#     4  10  21  37  59  88 121 154 189 236 294 354
#     4   8  15  31  54  76 100 135 181 232 283 332
#     4  11  23  38  59  83 112 153 198 243 290 342
#     4   9  18  34  58  86 115 147 184 230 287 347
#     4  11  23  37  56  82 115 156 200 241 284 340
#     4  10  20  38  62  88 118 151 190 239 299 358
#
# _framework density 20.241436
#
# number of rings (size 3 to 8) (size 9 to 14) (size 15 to 20)
#    0.000    2.167    1.667    2.000    0.000    3.333 
#    0.000    1.667    0.000    2.000    0.000    7.000 
#    0.000    0.000    0.000    0.000    0.000    0.000 
#
# Total GULP energy -595155.078321 kJ/mol
# GULP energy per Si atom -12399.064132 kJ/mol
# Density = 2.019537 g / cm^3
# Si number density = 20.241436 Si / 1000 Ang^3
#
#
#
# Elastic Constant Matrix: (Units=GPa)
#
#
# Indices 1 2 3 4 5 6 
#
# 1 137.0635 12.5099 33.6948 0.0001 -0.0001 -0.0001
# 2 12.5099 43.6312 13.0603 0.0004 -0.0001 -0.0001
# 3 33.6948 13.0603 56.9830 0.0003 0.0000 0.0000
# 4 0.0001 0.0004 0.0003 19.4175 0.0000 0.0000
# 5 -0.0001 -0.0001 0.0000 0.0000 28.7112 0.0000
# 6 -0.0001 -0.0001 0.0000 0.0000 0.0000 24.2090
#
#
#
# Elastic Compliance Matrix: (Units=1/GPa)
#
#
# Indices 1 2 3 4 5 6 
#
# 1 0.008578 -0.001011 -0.004841 0.000000 0.000000 0.000000
# 2 -0.001011 0.024727 -0.005070 0.000000 0.000000 0.000000
# 3 -0.004841 -0.005070 0.021573 0.000000 0.000000 0.000000
# 4 0.000000 0.000000 0.000000 0.051500 0.000000 0.000000
# 5 0.000000 0.000000 0.000000 0.000000 0.034830 0.000000
# 6 0.000000 0.000000 0.000000 0.000000 0.000000 0.041307
#
#
# Mechanical properties :
#
#
# Convention : Reuss Voigt Hill
#
# Bulk Modulus (GPa) = 30.26977 39.57861 34.92419
# Shear Modulus (GPa) = 23.21598 26.36172 24.78885
#
# Velocity S-wave (km/s) = 3.39034 3.61274 3.50331
# Velocity P-wave (km/s) = 5.50570 6.08262 5.80134
#
# Compressibility (1/GPa) = 0.03303626
#
# Stress axis : x y z
#
# Youngs Moduli (GPa) = 116.57544 40.44220 46.35328
#
# Poissons Ratio (x) = 0.04087 0.22438
# Poissons Ratio (y) = 0.11780 0.23500
# Poissons Ratio (z) = 0.56431 0.20503
#
# Static dielectric constant tensor:
#      x y z
#    x 4.079180 0.000000 0.000000 
#    y 0.000000 3.251680 0.000000 
#    z 0.000000 0.000000 3.887300 
# 
# 
# High freq. dielectric constant tensor:
#      x y z
#    x 1.802890 0.000000 0.000000 
#    y 0.000000 1.759600 0.000000 
#    z 0.000000 0.000000 1.802320 
# 
# From -- ./inp_files/34507.got.cif
#   From: 2010.06.25/outbox.cif.g09.slc.cpg/sg71_18_cif.got.tgz:34507.got - 2010.06.28 04:59:45.
