data_PCOD8291187
_publ_section_title
;
Structure prediction by ZEFSAII (Michael W. Deem and Ramdas Pophale) SiO2 
 PCOD8291187
Probable space group: I M M M
;
_chemical_formula_sum "Si O2"
_cell_formula_units_Z 72
_cell_length_a 23.026039
_cell_length_b 7.591732
_cell_length_c 22.974967
_cell_angle_alpha 90.000000
_cell_angle_beta 90.000000
_cell_angle_gamma 90.000000
_cell_volume 4016.196937
_symmetry_space_group_name_H-M "I M M M"
_symmetry_group_IT_number 71
_symmetry_cell_setting 'orthorhombic'
loop_
_space_group_symop_operation_xyz
x,y,z
-x,-y,z
x,-y,-z
-x,y,-z
-x,-y,-z
x,y,-z
-x,y,z
x,-y,z
1/2+x,1/2+y,1/2+z
1/2-x,1/2-y,1/2+z
1/2+x,1/2-y,1/2-z
1/2-x,1/2+y,1/2-z
1/2-x,1/2-y,1/2-z
1/2+x,1/2+y,1/2-z
1/2-x,1/2+y,1/2+z
1/2+x,1/2-y,1/2+z
loop_
_atom_site_type_symbol
_atom_site_label
_atom_site_fract_x
_atom_site_fract_y
_atom_site_fract_z
Si Si1 0.131166 0.000000 0.869377
Si Si2 0.567386 0.500000 0.748976
Si Si3 0.565999 0.800466 0.433245
Si Si4 0.159556 0.799602 0.566415
Si Si5 0.566264 0.799622 0.159965
Si Si6 0.750444 0.000000 0.932458
O O1 0.105693 0.822557 0.895397
O O2 0.115338 0.000000 0.801630
O O3 0.198943 0.000000 0.884516
O O4 0.500000 0.500000 0.726794
O O5 0.580696 0.325477 0.785928
O O6 0.571008 0.742638 0.500000
O O7 0.500000 0.781033 0.411777
O O8 0.587579 0.000000 0.425020
O O9 0.139721 0.771928 0.500000
O O10 0.104609 0.749813 0.604849
O O11 0.213595 0.674555 0.580798
O O12 0.179434 0.000000 0.578229
O O13 0.500000 0.771871 0.140082
O O14 0.578015 0.000000 0.179954
O O15 0.772725 0.000000 0.000000
#
# Coordination Sequence:
#
# PCOD8291187 Si02
#       6
#     8   8  16  16  16   8
#     4  12  22  35  56  78 108 158 198 232 270 325
#     4  10  22  38  55  83 115 147 192 236 278 328
#     4   9  18  32  52  80 109 136 176 237 301 350
#     4  10  20  36  60  85 114 147 179 227 287 343
#     4  10  20  36  60  85 114 147 179 227 287 343
#     4  10  22  38  55  83 115 147 192 236 278 328
#
# _framework density 17.927408
#
# number of rings (size 3 to 8) (size 9 to 14) (size 15 to 20)
#    0.000    2.000    2.222    2.667    0.000    3.111 
#    0.000    7.778    0.000    0.000    0.000    0.000 
#    0.000    0.000    0.000    0.000    0.000    0.000 
#
# Total GULP energy -446411.543941 kJ/mol
# GULP energy per Si atom -12400.320665 kJ/mol
# Density = 1.788660 g / cm^3
# Si number density = 17.927408 Si / 1000 Ang^3
#
#
#
# Elastic Constant Matrix: (Units=GPa)
#
#
# Indices 1 2 3 4 5 6 
#
# 1 110.6757 65.1734 81.0177 0.0000 0.0000 0.0000
# 2 65.1734 150.1919 66.0646 0.0000 0.0000 0.0000
# 3 81.0177 66.0646 106.9075 0.0000 0.0000 0.0000
# 4 0.0000 0.0000 0.0000 28.3535 0.0000 0.0000
# 5 0.0000 0.0000 0.0000 0.0000 35.7711 0.0000
# 6 0.0000 0.0000 0.0000 0.0000 0.0000 29.5436
#
#
#
# Elastic Compliance Matrix: (Units=1/GPa)
#
#
# Indices 1 2 3 4 5 6 
#
# 1 0.021190 -0.002927 -0.014250 0.000000 0.000000 0.000000
# 2 -0.002927 0.009548 -0.003682 0.000000 0.000000 0.000000
# 3 -0.014250 -0.003682 0.022428 0.000000 0.000000 0.000000
# 4 0.000000 0.000000 0.000000 0.035269 0.000000 0.000000
# 5 0.000000 0.000000 0.000000 0.000000 0.027955 0.000000
# 6 0.000000 0.000000 0.000000 0.000000 0.000000 0.033848
#
#
# Mechanical properties :
#
#
# Convention : Reuss Voigt Hill
#
# Bulk Modulus (GPa) = 87.34738 88.03183 87.68960
# Shear Modulus (GPa) = 25.53973 29.10160 27.32067
#
# Velocity S-wave (km/s) = 3.77851 4.03339 3.90803
# Velocity P-wave (km/s) = 8.23801 8.42035 8.32967
#
# Compressibility (1/GPa) = 0.01144854
#
# Stress axis : x y z
#
# Youngs Moduli (GPa) = 47.19112 104.73486 44.58690
#
# Poissons Ratio (x) = 0.30658 0.63536
# Poissons Ratio (y) = 0.13814 0.16416
# Poissons Ratio (z) = 0.67247 0.38562
#
# Static dielectric constant tensor:
#      x y z
#    x 3.177880 0.000000 0.000000 
#    y 0.000000 3.717170 0.000000 
#    z 0.000000 0.000000 3.186600 
# 
# 
# High freq. dielectric constant tensor:
#      x y z
#    x 1.677900 0.000000 0.000000 
#    y 0.000000 1.720110 0.000000 
#    z 0.000000 0.000000 1.678060 
# 
# From -- ./inp_files/54733.got.cif
#   From: 2010.06.25/outbox.cif.g09.slc.cpg/sg71_28_cif.got.tgz:54733.got - 2010.06.28 04:59:45.
