data_PCOD8291006
_publ_section_title
;
Structure prediction by ZEFSAII (Michael W. Deem and Ramdas Pophale) SiO2 
 PCOD8291006
Probable space group: I M M M
;
_chemical_formula_sum "Si O2"
_cell_formula_units_Z 104
_cell_length_a 26.995561
_cell_length_b 18.983610
_cell_length_c 11.200704
_cell_angle_alpha 90.000000
_cell_angle_beta 90.000000
_cell_angle_gamma 90.000000
_cell_volume 5740.060641
_symmetry_space_group_name_H-M "I M M M"
_symmetry_group_IT_number 71
_symmetry_cell_setting 'orthorhombic'
loop_
_space_group_symop_operation_xyz
x,y,z
-x,-y,z
x,-y,-z
-x,y,-z
-x,-y,-z
x,y,-z
-x,y,z
x,-y,z
1/2+x,1/2+y,1/2+z
1/2-x,1/2-y,1/2+z
1/2+x,1/2-y,1/2-z
1/2-x,1/2+y,1/2-z
1/2-x,1/2-y,1/2-z
1/2+x,1/2+y,1/2-z
1/2-x,1/2+y,1/2+z
1/2+x,1/2-y,1/2+z
loop_
_atom_site_type_symbol
_atom_site_label
_atom_site_fract_x
_atom_site_fract_y
_atom_site_fract_z
Si Si1 0.943124 0.301487 0.862376
Si Si2 0.380046 0.417585 0.500000
Si Si3 0.590317 0.342761 0.261038
Si Si4 0.312018 0.297201 0.140679
Si Si5 0.868138 0.420456 0.137574
Si Si6 0.500000 0.420059 0.859149
Si Si7 0.218732 0.649909 0.733532
Si Si8 0.735769 0.582446 0.500000
O O1 0.926828 0.236844 0.781165
O O2 0.912745 0.370082 0.822237
O O3 0.000000 0.319877 0.839625
O O4 0.932951 0.281941 0.000000
O O5 0.391520 0.500000 0.500000
O O6 0.404747 0.383520 0.615190
O O7 0.322110 0.401493 0.500000
O O8 0.641803 0.342446 0.188932
O O9 0.549313 0.381856 0.184255
O O10 0.261819 0.339369 0.169079
O O11 0.310132 0.222476 0.208197
O O12 0.317146 0.285846 0.000000
O O13 0.885793 0.500000 0.161078
O O14 0.819371 0.406031 0.214062
O O15 0.854487 0.407639 0.000000
O O16 0.500000 0.500000 0.811274
O O17 0.500000 0.417862 0.000000
O O18 0.241285 0.619064 0.614037
O O19 0.747636 0.500000 0.500000
#
# Coordination Sequence:
#
# PCOD8291006 Si02
#       8
#    16   8  16  16  16   8  16   8
#     4  10  20  35  58  88 117 150 191 243 299 346
#     4  11  24  39  60  91 121 153 196 244 301 360
#     4  12  21  40  64  86 120 155 194 250 295 351
#     4  11  23  36  58  87 117 154 200 242 292 355
#     4  10  21  37  58  86 122 160 198 242 295 356
#     4  11  26  45  63  85 118 158 200 246 301 359
#     4  11  21  37  58  84 119 154 195 247 294 343
#     4  11  22  38  57  82 120 159 192 237 298 349
#
# _framework density 18.118276000000002
#
# number of rings (size 3 to 8) (size 9 to 14) (size 15 to 20)
#    0.000    1.154    5.385    1.846    0.000    0.615 
#    0.000    2.308    0.000    3.692    0.000    0.000 
#    0.000    3.692    0.000    0.000    0.000    0.000 
#
# Total GULP energy -645058.797547 kJ/mol
# GULP energy per Si atom -12404.976876 kJ/mol
# Density = 1.807704 g / cm^3
# Si number density = 18.118276 Si / 1000 Ang^3
#
#
#
# Elastic Constant Matrix: (Units=GPa)
#
#
# Indices 1 2 3 4 5 6 
#
# 1 102.2353 56.6429 38.0825 0.0000 0.0000 0.0000
# 2 56.6429 114.7642 34.3403 0.0000 0.0000 0.0000
# 3 38.0825 34.3403 73.8973 0.0000 0.0000 0.0000
# 4 0.0000 0.0000 0.0000 30.6986 0.0000 0.0000
# 5 0.0000 0.0000 0.0000 0.0000 34.4432 0.0000
# 6 0.0000 0.0000 0.0000 0.0000 0.0000 32.4580
#
#
#
# Elastic Compliance Matrix: (Units=1/GPa)
#
#
# Indices 1 2 3 4 5 6 
#
# 1 0.014868 -0.005860 -0.004939 0.000000 0.000000 0.000000
# 2 -0.005860 0.012431 -0.002757 0.000000 0.000000 0.000000
# 3 -0.004939 -0.002757 0.017358 0.000000 0.000000 0.000000
# 4 0.000000 0.000000 0.000000 0.032575 0.000000 0.000000
# 5 0.000000 0.000000 0.000000 0.000000 0.029033 0.000000
# 6 0.000000 0.000000 0.000000 0.000000 0.000000 0.030809
#
#
# Mechanical properties :
#
#
# Convention : Reuss Voigt Hill
#
# Bulk Modulus (GPa) = 56.99363 61.00312 58.99837
# Shear Modulus (GPa) = 29.40586 30.30872 29.85729
#
# Velocity S-wave (km/s) = 4.03301 4.09446 4.06385
# Velocity P-wave (km/s) = 7.29463 7.48968 7.39280
#
# Compressibility (1/GPa) = 0.01754582
#
# Stress axis : x y z
#
# Youngs Moduli (GPa) = 67.25874 80.44541 57.60901
#
# Poissons Ratio (x) = 0.47144 0.28452
# Poissons Ratio (y) = 0.39416 0.15880
# Poissons Ratio (z) = 0.33217 0.22175
#
# Static dielectric constant tensor:
#      x y z
#    x 3.402420 0.000000 0.000000 
#    y 0.000000 3.434530 0.000000 
#    z 0.000000 0.000000 2.865410 
# 
# 
# High freq. dielectric constant tensor:
#      x y z
#    x 1.711930 0.000000 0.000000 
#    y 0.000000 1.709080 0.000000 
#    z 0.000000 0.000000 1.698680 
# 
# From -- ./inp_files/28935.got.cif
#   From: 2010.06.25/outbox.cif.g09.slc.cpg/sg71_15_cif.got.tgz:28935.got - 2010.06.28 04:59:45.
