data_PCOD8291344
_publ_section_title
;
Structure prediction by ZEFSAII (Michael W. Deem and Ramdas Pophale) SiO2 
 PCOD8291344
Probable space group: I M M M
;
_chemical_formula_sum "Si O2"
_cell_formula_units_Z 104
_cell_length_a 21.630925
_cell_length_b 13.692047
_cell_length_c 17.850334
_cell_angle_alpha 90.000000
_cell_angle_beta 90.000000
_cell_angle_gamma 90.000000
_cell_volume 5286.762727
_symmetry_space_group_name_H-M "I M M M"
_symmetry_group_IT_number 71
_symmetry_cell_setting 'orthorhombic'
loop_
_space_group_symop_operation_xyz
x,y,z
-x,-y,z
x,-y,-z
-x,y,-z
-x,-y,-z
x,y,-z
-x,y,z
x,-y,z
1/2+x,1/2+y,1/2+z
1/2-x,1/2-y,1/2+z
1/2+x,1/2-y,1/2-z
1/2-x,1/2+y,1/2-z
1/2-x,1/2-y,1/2-z
1/2+x,1/2+y,1/2-z
1/2-x,1/2+y,1/2+z
1/2+x,1/2-y,1/2+z
loop_
_atom_site_type_symbol
_atom_site_label
_atom_site_fract_x
_atom_site_fract_y
_atom_site_fract_z
Si Si1 0.136703 0.109121 0.084856
Si Si2 0.500000 0.615900 0.081548
Si Si3 0.231877 0.391357 0.653181
Si Si4 0.322164 0.887117 0.316221
Si Si5 0.572704 0.743221 0.687322
Si Si6 0.219580 0.805815 0.412663
Si Si7 0.387656 0.612417 0.178747
O O1 0.194701 0.115670 0.141338
O O2 0.083934 0.186426 0.108991
O O3 0.108494 0.000000 0.088083
O O4 0.158668 0.133750 0.000000
O O5 0.500000 0.500000 0.075731
O O6 0.439685 0.653414 0.123373
O O7 0.500000 0.664568 0.000000
O O8 0.208016 0.500000 0.629464
O O9 0.216303 0.371420 0.739809
O O10 0.200361 0.307357 0.602264
O O11 0.392349 0.847173 0.310100
O O12 0.288854 0.826775 0.382855
O O13 0.326473 0.000000 0.338211
O O14 0.500000 0.759262 0.701735
O O15 0.606900 0.675302 0.747272
O O16 0.214105 0.830875 0.500000
O O17 0.176811 0.877623 0.364388
O O18 0.397881 0.500000 0.201196
#
# Coordination Sequence:
#
# PCOD8291344 Si02
#       7
#    16   8  16  16  16  16  16
#     4  10  21  37  59  90 124 152 185 239 303 362
#     4   9  18  34  54  80 120 160 192 231 282 346
#     4  10  20  38  64  90 119 156 196 241 298 358
#     4  11  24  42  62  86 119 157 201 252 298 351
#     4  12  24  40  62  85 113 158 210 250 295 351
#     4  12  23  38  63  94 126 157 194 243 303 364
#     4  11  22  37  58  89 123 159 199 238 290 360
#
# _framework density 19.671775
#
# number of rings (size 3 to 8) (size 9 to 14) (size 15 to 20)
#    0.000    1.154    3.846    3.231    0.000    5.538 
#    0.000    0.769    0.000    0.000    0.000    2.154 
#    0.000    4.923    0.000    0.000    0.000    0.000 
#
# Total GULP energy -644782.864830 kJ/mol
# GULP energy per Si atom -12399.670478 kJ/mol
# Density = 1.962700 g / cm^3
# Si number density = 19.671775 Si / 1000 Ang^3
#
#
#
# Elastic Constant Matrix: (Units=GPa)
#
#
# Indices 1 2 3 4 5 6 
#
# 1 91.0409 29.7304 36.5791 0.0000 0.0000 0.0000
# 2 29.7304 104.4410 37.5163 0.0000 0.0000 0.0000
# 3 36.5791 37.5163 93.3837 0.0000 0.0000 0.0000
# 4 0.0000 0.0000 0.0000 23.9791 0.0000 0.0000
# 5 0.0000 0.0000 0.0000 0.0000 29.5553 0.0000
# 6 0.0000 0.0000 0.0000 0.0000 0.0000 26.2069
#
#
#
# Elastic Compliance Matrix: (Units=1/GPa)
#
#
# Indices 1 2 3 4 5 6 
#
# 1 0.013480 -0.002268 -0.004369 0.000000 0.000000 0.000000
# 2 -0.002268 0.011571 -0.003760 0.000000 0.000000 0.000000
# 3 -0.004369 -0.003760 0.013931 0.000000 0.000000 0.000000
# 4 0.000000 0.000000 0.000000 0.041703 0.000000 0.000000
# 5 0.000000 0.000000 0.000000 0.000000 0.033835 0.000000
# 6 0.000000 0.000000 0.000000 0.000000 0.000000 0.038158
#
#
# Mechanical properties :
#
#
# Convention : Reuss Voigt Hill
#
# Bulk Modulus (GPa) = 54.98356 55.16856 55.07606
# Shear Modulus (GPa) = 27.84980 28.28426 28.06703
#
# Velocity S-wave (km/s) = 3.76669 3.79596 3.78135
# Velocity P-wave (km/s) = 6.85043 6.87879 6.86463
#
# Compressibility (1/GPa) = 0.01818725
#
# Stress axis : x y z
#
# Youngs Moduli (GPa) = 74.18325 86.42241 71.78434
#
# Poissons Ratio (x) = 0.19599 0.31364
# Poissons Ratio (y) = 0.16823 0.26993
# Poissons Ratio (z) = 0.32412 0.32497
#
# Static dielectric constant tensor:
#      x y z
#    x 3.397270 0.000000 0.000000 
#    y 0.000000 3.670660 0.000000 
#    z 0.000000 0.000000 3.652760 
# 
# 
# High freq. dielectric constant tensor:
#      x y z
#    x 1.744470 0.000000 0.000000 
#    y 0.000000 1.764420 0.000000 
#    z 0.000000 0.000000 1.770430 
# 
# From -- ./inp_files/47320.got.cif
#   From: 2010.06.25/outbox.cif.g09.slc.cpg/sg71_24_cif.got.tgz:47320.got - 2010.06.28 04:59:45.
