data_PCOD8291243
_publ_section_title
;
Structure prediction by ZEFSAII (Michael W. Deem and Ramdas Pophale) SiO2 
 PCOD8291243
Probable space group: I M M M
;
_chemical_formula_sum "Si O2"
_cell_formula_units_Z 112
_cell_length_a 27.342094
_cell_length_b 14.319127
_cell_length_c 13.839939
_cell_angle_alpha 90.000000
_cell_angle_beta 90.000000
_cell_angle_gamma 90.000000
_cell_volume 5418.542561
_symmetry_space_group_name_H-M "I M M M"
_symmetry_group_IT_number 71
_symmetry_cell_setting 'orthorhombic'
loop_
_space_group_symop_operation_xyz
x,y,z
-x,-y,z
x,-y,-z
-x,y,-z
-x,-y,-z
x,y,-z
-x,y,z
x,-y,z
1/2+x,1/2+y,1/2+z
1/2-x,1/2-y,1/2+z
1/2+x,1/2-y,1/2-z
1/2-x,1/2+y,1/2-z
1/2-x,1/2-y,1/2-z
1/2+x,1/2+y,1/2-z
1/2-x,1/2+y,1/2+z
1/2+x,1/2-y,1/2+z
loop_
_atom_site_type_symbol
_atom_site_label
_atom_site_fract_x
_atom_site_fract_y
_atom_site_fract_z
Si Si1 0.151099 0.719739 0.110148
Si Si2 0.844253 0.891047 0.397534
Si Si3 0.400181 0.109667 0.110646
Si Si4 0.195005 0.392685 0.276428
Si Si5 0.946013 0.285514 0.783036
Si Si6 0.053334 0.104667 0.323402
Si Si7 0.694804 0.391088 0.303860
O O1 0.189231 0.664990 0.177633
O O2 0.095717 0.690379 0.139279
O O3 0.162544 0.830454 0.121681
O O4 0.158956 0.689492 0.000000
O O5 0.825267 0.848008 0.500000
O O6 0.902587 0.871135 0.395823
O O7 0.817400 0.849595 0.303556
O O8 0.832990 0.000000 0.397734
O O9 0.344988 0.135853 0.143280
O O10 0.437704 0.163413 0.180056
O O11 0.410085 0.000000 0.121068
O O12 0.407450 0.142234 0.000000
O O13 0.188996 0.500000 0.246236
O O14 0.247959 0.375010 0.323321
O O15 0.944325 0.174193 0.767357
O O16 0.000000 0.315113 0.821563
O O17 0.000000 0.113866 0.375421
O O18 0.060620 0.000000 0.282054
O O19 0.680047 0.500000 0.314957
#
# Coordination Sequence:
#
# PCOD8291243 Si02
#       7
#    16  16  16  16  16  16  16
#     4  11  23  38  57  83 112 147 194 238 278 322
#     4   9  17  29  47  73 105 141 179 219 268 326
#     4   9  19  37  60  86 114 141 174 223 285 350
#     4   9  20  39  61  83 112 148 184 229 283 335
#     4  10  21  37  56  81 111 147 188 229 278 332
#     4   9  17  31  51  73 103 142 181 223 270 323
#     4  10  20  37  58  83 116 149 186 230 278 332
#
# _framework density 20.669764000000001
#
# number of rings (size 3 to 8) (size 9 to 14) (size 15 to 20)
#    0.000    2.429    1.429    0.429    0.000    3.429 
#    0.000    6.429    0.000    0.000    0.000    7.000 
#    0.000    0.000    0.000    0.000    0.000    0.000 
#
# Total GULP energy -694041.191110 kJ/mol
# GULP energy per Si atom -12393.592698 kJ/mol
# Density = 2.062272 g / cm^3
# Si number density = 20.669764 Si / 1000 Ang^3
#
#
#
# Elastic Constant Matrix: (Units=GPa)
#
#
# Indices 1 2 3 4 5 6 
#
# 1 92.3028 11.9791 10.5249 0.0000 0.0000 0.0000
# 2 11.9791 41.3618 12.9474 0.0000 0.0000 0.0000
# 3 10.5249 12.9474 81.6260 0.0000 0.0000 0.0000
# 4 0.0000 0.0000 0.0000 20.8664 0.0000 0.0000
# 5 0.0000 0.0000 0.0000 0.0000 14.0930 0.0000
# 6 0.0000 0.0000 0.0000 0.0000 0.0000 22.5168
#
#
#
# Elastic Compliance Matrix: (Units=1/GPa)
#
#
# Indices 1 2 3 4 5 6 
#
# 1 0.011333 -0.002972 -0.000990 0.000000 0.000000 0.000000
# 2 -0.002972 0.026220 -0.003776 0.000000 0.000000 0.000000
# 3 -0.000990 -0.003776 0.012978 0.000000 0.000000 0.000000
# 4 0.000000 0.000000 0.000000 0.047924 0.000000 0.000000
# 5 0.000000 0.000000 0.000000 0.000000 0.070957 0.000000
# 6 0.000000 0.000000 0.000000 0.000000 0.000000 0.044411
#
#
# Mechanical properties :
#
#
# Convention : Reuss Voigt Hill
#
# Bulk Modulus (GPa) = 28.52724 31.79927 30.16325
# Shear Modulus (GPa) = 20.74840 23.48451 22.11646
#
# Velocity S-wave (km/s) = 3.17172 3.37438 3.27462
# Velocity P-wave (km/s) = 5.21963 5.53170 5.37793
#
# Compressibility (1/GPa) = 0.03505422
#
# Stress axis : x y z
#
# Youngs Moduli (GPa) = 88.24172 38.13942 77.05642
#
# Poissons Ratio (x) = 0.11336 0.07627
# Poissons Ratio (y) = 0.26228 0.29094
# Poissons Ratio (z) = 0.08734 0.14400
#
# Static dielectric constant tensor:
#      x y z
#    x 3.878330 0.000000 0.000000 
#    y 0.000000 3.782310 0.000000 
#    z 0.000000 0.000000 3.569650 
# 
# 
# High freq. dielectric constant tensor:
#      x y z
#    x 1.812820 0.000000 0.000000 
#    y 0.000000 1.810610 0.000000 
#    z 0.000000 0.000000 1.768860 
# 
# From -- ./inp_files/30047.got.cif
#   From: 2010.06.25/outbox.cif.g09.slc.cpg/sg71_16_cif.got.tgz:30047.got - 2010.06.28 04:59:45.
