data_PCOD8291394
_publ_section_title
;
Structure prediction by ZEFSAII (Michael W. Deem and Ramdas Pophale) SiO2 
 PCOD8291394
Probable space group: I M M M
;
_chemical_formula_sum "Si O2"
_cell_formula_units_Z 104
_cell_length_a 9.455572
_cell_length_b 24.056400
_cell_length_c 27.887702
_cell_angle_alpha 90.000000
_cell_angle_beta 90.000000
_cell_angle_gamma 90.000000
_cell_volume 6343.532532
_symmetry_space_group_name_H-M "I M M M"
_symmetry_group_IT_number 71
_symmetry_cell_setting 'orthorhombic'
loop_
_space_group_symop_operation_xyz
x,y,z
-x,-y,z
x,-y,-z
-x,y,-z
-x,-y,-z
x,y,-z
-x,y,z
x,-y,z
1/2+x,1/2+y,1/2+z
1/2-x,1/2-y,1/2+z
1/2+x,1/2-y,1/2-z
1/2-x,1/2+y,1/2-z
1/2-x,1/2-y,1/2-z
1/2+x,1/2+y,1/2-z
1/2-x,1/2+y,1/2+z
1/2+x,1/2-y,1/2+z
loop_
_atom_site_type_symbol
_atom_site_label
_atom_site_fract_x
_atom_site_fract_y
_atom_site_fract_z
Si Si1 0.162674 0.744728 0.944205
Si Si2 0.832667 0.626722 0.908164
Si Si3 0.834336 0.564498 0.814749
Si Si4 0.164302 0.935129 0.118840
Si Si5 0.656298 0.565995 0.274275
Si Si6 0.168967 0.562785 0.000000
Si Si7 0.663522 0.148064 0.056276
O O1 0.208672 0.691432 0.912794
O O2 0.261096 0.795128 0.927434
O O3 0.000000 0.761094 0.934427
O O4 0.184373 0.729751 0.000000
O O5 0.773406 0.600737 0.858852
O O6 0.768638 0.592845 0.952949
O O7 0.000000 0.619544 0.909143
O O8 0.796934 0.500000 0.824283
O O9 0.763253 0.587730 0.766216
O O10 0.000000 0.572989 0.808212
O O11 0.202714 0.914274 0.172652
O O12 0.263890 0.903597 0.081946
O O13 0.000000 0.922836 0.107689
O O14 0.197011 0.000000 0.112824
O O15 0.500000 0.589069 0.262343
O O16 0.652830 0.500000 0.274802
O O17 0.224130 0.500000 0.000000
O O18 0.000000 0.565534 0.000000
O O19 0.500000 0.151491 0.071034
O O20 0.683138 0.138726 0.000000
#
# Coordination Sequence:
#
# PCOD8291394 Si02
#       7
#    16  16  16  16  16   8  16
#     4   9  16  29  48  65  85 120 166 203 228 263
#     4   9  15  24  39  63  92 122 158 198 235 273
#     4   9  16  25  40  66  97 124 152 190 236 281
#     4   9  18  33  53  75  96 120 151 184 220 266
#     4   8  15  29  47  66  90 120 153 186 220 266
#     4   9  14  20  34  60  95 127 152 189 242 285
#     4  10  21  34  48  70  99 125 149 182 226 274
#
# _framework density 16.394649999999999
#
# number of rings (size 3 to 8) (size 9 to 14) (size 15 to 20)
#    0.000    3.000    0.769    1.846    0.000    4.000 
#    0.000    3.846    0.000    0.923    0.000    0.000 
#    0.000    3.692    0.000    0.000    0.000    0.000 
#
# Total GULP energy -644641.510826 kJ/mol
# GULP energy per Si atom -12396.952131 kJ/mol
# Density = 1.635733 g / cm^3
# Si number density = 16.394650 Si / 1000 Ang^3
#
#
#
# Elastic Constant Matrix: (Units=GPa)
#
#
# Indices 1 2 3 4 5 6 
#
# 1 68.1760 51.8454 49.2138 0.0000 0.0000 0.0000
# 2 51.8454 89.1886 56.3653 0.0000 0.0000 0.0000
# 3 49.2138 56.3653 89.2964 0.0000 0.0000 0.0000
# 4 0.0000 0.0000 0.0000 14.1819 0.0000 0.0000
# 5 0.0000 0.0000 0.0000 0.0000 22.1886 0.0000
# 6 0.0000 0.0000 0.0000 0.0000 0.0000 13.1094
#
#
#
# Elastic Compliance Matrix: (Units=1/GPa)
#
#
# Indices 1 2 3 4 5 6 
#
# 1 0.030305 -0.011747 -0.009287 0.000000 0.000000 0.000000
# 2 -0.011747 0.023207 -0.008174 0.000000 0.000000 0.000000
# 3 -0.009287 -0.008174 0.021477 0.000000 0.000000 0.000000
# 4 0.000000 0.000000 0.000000 0.070512 0.000000 0.000000
# 5 0.000000 0.000000 0.000000 0.000000 0.045068 0.000000
# 6 0.000000 0.000000 0.000000 0.000000 0.000000 0.076281
#
#
# Mechanical properties :
#
#
# Convention : Reuss Voigt Hill
#
# Bulk Modulus (GPa) = 60.34381 62.38999 61.36690
# Shear Modulus (GPa) = 15.11525 15.84508 15.48017
#
# Velocity S-wave (km/s) = 3.03968 3.11220 3.07615
# Velocity P-wave (km/s) = 7.01473 7.14507 7.08020
#
# Compressibility (1/GPa) = 0.01657171
#
# Stress axis : x y z
#
# Youngs Moduli (GPa) = 32.99758 43.09078 46.56194
#
# Poissons Ratio (x) = 0.50620 0.43242
# Poissons Ratio (y) = 0.38763 0.38061
# Poissons Ratio (z) = 0.30645 0.35224
#
# Static dielectric constant tensor:
#      x y z
#    x 2.928600 0.000000 0.000000 
#    y 0.000000 2.945710 0.000000 
#    z 0.000000 0.000000 3.241180 
# 
# 
# High freq. dielectric constant tensor:
#      x y z
#    x 1.605420 0.000000 0.000000 
#    y 0.000000 1.613460 0.000000 
#    z 0.000000 0.000000 1.629510 
# 
# From -- ./inp_files/15563.got.cif
#   From: 2010.06.25/outbox.cif.g09.slc.cpg/sg71_8_cif.got.tgz:15563.got - 2010.06.28 04:59:45.
