data_PCOD8291242
_publ_section_title
;
Structure prediction by ZEFSAII (Michael W. Deem and Ramdas Pophale) SiO2 
 PCOD8291242
Probable space group: I M M M
;
_chemical_formula_sum "Si O2"
_cell_formula_units_Z 88
_cell_length_a 9.041000
_cell_length_b 19.125840
_cell_length_c 27.051342
_cell_angle_alpha 90.000000
_cell_angle_beta 90.000000
_cell_angle_gamma 90.000000
_cell_volume 4677.629315
_symmetry_space_group_name_H-M "I M M M"
_symmetry_group_IT_number 71
_symmetry_cell_setting 'orthorhombic'
loop_
_space_group_symop_operation_xyz
x,y,z
-x,-y,z
x,-y,-z
-x,y,-z
-x,-y,-z
x,y,-z
-x,y,z
x,-y,z
1/2+x,1/2+y,1/2+z
1/2-x,1/2-y,1/2+z
1/2+x,1/2-y,1/2-z
1/2-x,1/2+y,1/2-z
1/2-x,1/2-y,1/2-z
1/2+x,1/2+y,1/2-z
1/2-x,1/2+y,1/2+z
1/2+x,1/2-y,1/2+z
loop_
_atom_site_type_symbol
_atom_site_label
_atom_site_fract_x
_atom_site_fract_y
_atom_site_fract_z
Si Si1 0.172557 0.183455 0.771863
Si Si2 0.675793 0.849341 0.594917
Si Si3 0.674895 0.582104 0.000000
Si Si4 0.170147 0.918889 0.685894
Si Si5 0.833351 0.422124 0.558278
Si Si6 0.174198 0.806720 0.881855
O O1 0.250000 0.250000 0.750000
O O2 0.209228 0.116399 0.738353
O O3 0.233556 0.172683 0.827399
O O4 0.000000 0.199673 0.773288
O O5 0.500000 0.854776 0.587910
O O6 0.755603 0.882706 0.548067
O O7 0.721814 0.890947 0.643785
O O8 0.731105 0.769498 0.601072
O O9 0.712656 0.500000 0.000000
O O10 0.500000 0.594835 0.000000
O O11 0.000000 0.903943 0.670639
O O12 0.200236 0.000000 0.693423
O O13 0.823842 0.415593 0.500000
O O14 0.783557 0.500000 0.574817
O O15 0.726037 0.365046 0.580488
O O16 0.000000 0.407799 0.576449
O O17 0.000000 0.805970 0.882376
#
# Coordination Sequence:
#
# PCOD8291242 Si02
#       6
#    16  16   8  16  16  16
#     4  10  20  37  58  82 114 151 189 233 282 335
#     4  11  23  39  59  87 120 152 190 239 291 340
#     4  11  25  43  61  83 114 153 198 241 285 346
#     4  10  21  37  59  86 115 152 196 236 280 341
#     4   9  20  39  60  84 115 150 190 235 282 335
#     4  10  22  37  57  87 119 150 189 235 283 341
#
# _framework density 18.812949
#
# number of rings (size 3 to 8) (size 9 to 14) (size 15 to 20)
#    0.000    1.909    1.818    1.909    1.273    6.909 
#    0.000    2.727    0.000    0.000    0.000    0.000 
#    0.000    0.000    0.000    0.000    0.000    0.000 
#
# Total GULP energy -545640.059123 kJ/mol
# GULP energy per Si atom -12400.910435 kJ/mol
# Density = 1.877013 g / cm^3
# Si number density = 18.812949 Si / 1000 Ang^3
#
#
#
# Elastic Constant Matrix: (Units=GPa)
#
#
# Indices 1 2 3 4 5 6 
#
# 1 40.4530 41.8719 43.7658 0.0000 0.0000 0.0000
# 2 41.8719 153.6364 73.9631 0.0000 0.0000 0.0000
# 3 43.7658 73.9631 111.0624 0.0000 0.0000 0.0000
# 4 0.0000 0.0000 0.0000 36.3312 0.0000 0.0000
# 5 0.0000 0.0000 0.0000 0.0000 -2.5565 0.0000
# 6 0.0000 0.0000 0.0000 0.0000 0.0000 29.8957
#
#
#
# Elastic Compliance Matrix: (Units=1/GPa)
#
#
# Indices 1 2 3 4 5 6 
#
# 1 0.046179 -0.005630 -0.014448 0.000000 0.000000 0.000000
# 2 -0.005630 0.010267 -0.004619 0.000000 0.000000 0.000000
# 3 -0.014448 -0.004619 0.017773 0.000000 0.000000 0.000000
# 4 0.000000 0.000000 0.000000 0.027525 0.000000 0.000000
# 5 0.000000 0.000000 0.000000 0.000000 -0.391157 0.000000
# 6 0.000000 0.000000 0.000000 0.000000 0.000000 0.033450
#
#
# Mechanical properties :
#
#
# Convention : Reuss Voigt Hill
#
# Bulk Modulus (GPa) = 40.28144 69.37260 54.82702
# Shear Modulus (GPa) = -25.21490 22.43747 -1.38871
#
# Velocity S-wave (km/s) = -3.66498 3.45724 -0.86010
# Velocity P-wave (km/s) = 1.88378 7.27266 5.31226
#
# Compressibility (1/GPa) = 0.02482533
#
# Stress axis : x y z
#
# Youngs Moduli (GPa) = 21.65499 97.40161 56.26414
#
# Poissons Ratio (x) = 0.54836 0.81291
# Poissons Ratio (y) = 0.12192 0.25987
# Poissons Ratio (z) = 0.31287 0.44987
#
# Static dielectric constant tensor:
#      x y z
#    x 3.922580 0.000000 0.000000 
#    y 0.000000 3.428390 0.000000 
#    z 0.000000 0.000000 3.141580 
# 
# 
# High freq. dielectric constant tensor:
#      x y z
#    x 1.726150 0.000000 0.000000 
#    y 0.000000 1.742400 0.000000 
#    z 0.000000 0.000000 1.740550 
# 
# From -- ./inp_files/12563.got.cif
#   From: 2010.06.25/outbox.cif.g09.slc.cpg/sg71_7_cif.got.tgz:12563.got - 2010.06.28 04:59:45.
