data_PCOD8291785
_publ_section_title
;
Structure prediction by ZEFSAII (Michael W. Deem and Ramdas Pophale) SiO2 
 PCOD8291785
Probable space group: I M M M
;
_chemical_formula_sum "Si O2"
_cell_formula_units_Z 96
_cell_length_a 8.703493
_cell_length_b 24.573375
_cell_length_c 21.857443
_cell_angle_alpha 90.000000
_cell_angle_beta 90.000000
_cell_angle_gamma 90.000000
_cell_volume 4674.743077
_symmetry_space_group_name_H-M "I M M M"
_symmetry_group_IT_number 71
_symmetry_cell_setting 'orthorhombic'
loop_
_space_group_symop_operation_xyz
x,y,z
-x,-y,z
x,-y,-z
-x,y,-z
-x,-y,-z
x,y,-z
-x,y,z
x,-y,z
1/2+x,1/2+y,1/2+z
1/2-x,1/2-y,1/2+z
1/2+x,1/2-y,1/2-z
1/2-x,1/2+y,1/2-z
1/2-x,1/2-y,1/2-z
1/2+x,1/2+y,1/2-z
1/2-x,1/2+y,1/2+z
1/2+x,1/2-y,1/2+z
loop_
_atom_site_type_symbol
_atom_site_label
_atom_site_fract_x
_atom_site_fract_y
_atom_site_fract_z
Si Si1 0.677723 0.061511 0.600253
Si Si2 0.321789 0.560882 0.361643
Si Si3 0.326093 0.698037 0.722520
Si Si4 0.172590 0.914136 0.274395
Si Si5 0.180596 0.241739 0.000000
Si Si6 0.678564 0.165008 0.099846
Si Si7 0.180443 0.137683 0.500000
O O1 0.500000 0.075875 0.591765
O O2 0.718979 0.065170 0.671713
O O3 0.772528 0.104538 0.560518
O O4 0.711476 0.000000 0.577490
O O5 0.500000 0.578343 0.362240
O O6 0.295989 0.500000 0.386821
O O7 0.264974 0.564006 0.291038
O O8 0.232815 0.602029 0.407260
O O9 0.500000 0.709353 0.699328
O O10 0.250000 0.750000 0.750000
O O11 0.327278 0.651434 0.774080
O O12 0.214033 0.680217 0.668872
O O13 0.000000 0.936219 0.286017
O O14 0.230747 0.207397 0.941447
O O15 0.250124 0.302047 0.000000
O O16 0.000000 0.248798 0.000000
O O17 0.500000 0.169386 0.083991
O O18 0.000000 0.144780 0.500000
#
# Coordination Sequence:
#
# PCOD8291785 Si02
#       7
#    16  16  16  16   8  16   8
#     4  11  24  41  61  88 123 160 202 250 301 359
#     4   9  18  36  62  92 127 165 205 248 299 360
#     4  10  21  37  58  86 122 162 204 253 304 361
#     4   9  19  35  57  87 122 160 203 247 297 355
#     4  12  26  47  70  89 118 159 205 255 307 366
#     4  11  23  40  62  91 125 160 201 251 306 366
#     4  12  27  45  66  88 113 152 203 254 309 367
#
# _framework density 20.535888
#
# number of rings (size 3 to 8) (size 9 to 14) (size 15 to 20)
#    0.000    1.667    0.000    5.750    2.333    6.667 
#    0.000    0.417    0.000    2.500    0.000    0.000 
#    0.000    0.000    0.000    0.000    0.000    0.000 
#
# Total GULP energy -595161.812890 kJ/mol
# GULP energy per Si atom -12399.204435 kJ/mol
# Density = 2.048915 g / cm^3
# Si number density = 20.535888 Si / 1000 Ang^3
#
#
#
# Elastic Constant Matrix: (Units=GPa)
#
#
# Indices 1 2 3 4 5 6 
#
# 1 132.1184 66.2261 36.4364 0.0000 0.0000 0.0000
# 2 66.2261 157.1763 41.1491 0.0000 0.0000 0.0000
# 3 36.4364 41.1491 65.8376 -0.0001 0.0000 0.0000
# 4 0.0000 0.0000 -0.0001 25.4855 0.0000 0.0000
# 5 0.0000 0.0000 0.0000 0.0000 26.1372 0.0000
# 6 0.0000 0.0000 0.0000 0.0000 0.0000 33.0984
#
#
#
# Elastic Compliance Matrix: (Units=1/GPa)
#
#
# Indices 1 2 3 4 5 6 
#
# 1 0.010247 -0.003387 -0.003554 0.000000 0.000000 0.000000
# 2 -0.003387 0.008727 -0.003580 0.000000 0.000000 0.000000
# 3 -0.003554 -0.003580 0.019393 0.000000 0.000000 0.000000
# 4 0.000000 0.000000 0.000000 0.039238 0.000000 0.000000
# 5 0.000000 0.000000 0.000000 0.000000 0.038260 0.000000
# 6 0.000000 0.000000 0.000000 0.000000 0.000000 0.030213
#
#
# Mechanical properties :
#
#
# Convention : Reuss Voigt Hill
#
# Bulk Modulus (GPa) = 57.71972 71.41729 64.56850
# Shear Modulus (GPa) = 28.91949 31.03227 29.97588
#
# Velocity S-wave (km/s) = 3.75673 3.89153 3.82472
# Velocity P-wave (km/s) = 6.85457 7.41919 7.14246
#
# Compressibility (1/GPa) = 0.01732510
#
# Stress axis : x y z
#
# Youngs Moduli (GPa) = 97.59016 114.59216 51.56473
#
# Poissons Ratio (x) = 0.38813 0.18326
# Poissons Ratio (y) = 0.33055 0.18459
# Poissons Ratio (z) = 0.34683 0.41020
#
# Static dielectric constant tensor:
#      x y z
#    x 3.729330 0.000000 0.000000 
#    y 0.000000 4.066740 0.000000 
#    z 0.000000 0.000000 3.577100 
# 
# 
# High freq. dielectric constant tensor:
#      x y z
#    x 1.803280 0.000000 0.000000 
#    y 0.000000 1.822550 0.000000 
#    z 0.000000 0.000000 1.786060 
# 
# From -- ./inp_files/57749.got.cif
#   From: 2010.06.25/outbox.cif.g09.slc.cpg/sg71_29_cif.got.tgz:57749.got - 2010.06.28 04:59:45.
