data_PCOD8291999
_publ_section_title
;
Structure prediction by ZEFSAII (Michael W. Deem and Ramdas Pophale) SiO2 
 PCOD8291999
Probable space group: I M M M
;
_chemical_formula_sum "Si O2"
_cell_formula_units_Z 64
_cell_length_a 8.501553
_cell_length_b 27.203510
_cell_length_c 13.575753
_cell_angle_alpha 90.000000
_cell_angle_beta 90.000000
_cell_angle_gamma 90.000000
_cell_volume 3139.692662
_symmetry_space_group_name_H-M "I M M M"
_symmetry_group_IT_number 71
_symmetry_cell_setting 'orthorhombic'
loop_
_space_group_symop_operation_xyz
x,y,z
-x,-y,z
x,-y,-z
-x,y,-z
-x,-y,-z
x,y,-z
-x,y,z
x,-y,z
1/2+x,1/2+y,1/2+z
1/2-x,1/2-y,1/2+z
1/2+x,1/2-y,1/2-z
1/2-x,1/2+y,1/2-z
1/2-x,1/2-y,1/2-z
1/2+x,1/2+y,1/2-z
1/2-x,1/2+y,1/2+z
1/2+x,1/2-y,1/2+z
loop_
_atom_site_type_symbol
_atom_site_label
_atom_site_fract_x
_atom_site_fract_y
_atom_site_fract_z
Si Si1 0.821182 0.805124 0.500000
Si Si2 0.318188 0.091383 0.500000
Si Si3 0.185570 0.555615 0.789343
Si Si4 0.814234 0.232842 0.149077
Si Si5 0.684962 0.620621 0.610835
O O1 0.703026 0.850613 0.500000
O O2 0.788449 0.770863 0.409636
O O3 0.000000 0.824777 0.500000
O O4 0.500000 0.076780 0.500000
O O5 0.243092 0.070495 0.602727
O O6 0.238080 0.500000 0.766717
O O7 0.241534 0.588691 0.698167
O O8 0.000000 0.561337 0.794757
O O9 0.750000 0.250000 0.250000
O O10 0.765525 0.177177 0.124944
O O11 0.000000 0.240448 0.133087
O O12 0.739459 0.603983 0.500000
O O13 0.500000 0.614826 0.620316
#
# Coordination Sequence:
#
# PCOD8291999 Si02
#       5
#     8   8  16  16  16
#     4  12  24  37  57  89 123 159 200 242 297 363
#     4  10  21  40  64  88 122 163 201 250 313 374
#     4  10  22  40  63  91 120 155 202 256 312 368
#     4  11  22  39  60  86 121 160 202 250 300 359
#     4  10  22  41  61  84 120 163 203 247 301 363
#
# _framework density 20.384162
#
# number of rings (size 3 to 8) (size 9 to 14) (size 15 to 20)
#    0.000    1.500    1.250    3.750    0.000   10.000 
#    0.000    2.500    0.000    2.250    0.000    0.000 
#    0.000    0.000    0.000    0.000    0.000    0.000 
#
# Total GULP energy -396451.625580 kJ/mol
# GULP energy per Si atom -12389.113299 kJ/mol
# Density = 2.033777 g / cm^3
# Si number density = 20.384162 Si / 1000 Ang^3
#
#
#
# Elastic Constant Matrix: (Units=GPa)
#
#
# Indices 1 2 3 4 5 6 
#
# 1 35.9216 20.4431 23.0908 0.0002 0.0000 0.0000
# 2 20.4431 114.5781 58.9508 0.0004 0.0001 0.0000
# 3 23.0908 58.9508 187.6348 0.0010 0.0003 0.0000
# 4 0.0002 0.0004 0.0010 33.4137 0.0003 0.0000
# 5 0.0000 0.0001 0.0003 0.0003 19.1725 0.0001
# 6 0.0000 0.0000 0.0000 0.0000 0.0001 29.6466
#
#
#
# Elastic Compliance Matrix: (Units=1/GPa)
#
#
# Indices 1 2 3 4 5 6 
#
# 1 0.031980 -0.004391 -0.002556 0.000000 0.000000 0.000000
# 2 -0.004391 0.011013 -0.002920 0.000000 0.000000 0.000000
# 3 -0.002556 -0.002920 0.006561 0.000000 0.000000 0.000000
# 4 0.000000 0.000000 0.000000 0.029928 0.000000 0.000000
# 5 0.000000 0.000000 0.000000 0.000000 0.052158 0.000000
# 6 0.000000 0.000000 0.000000 0.000000 0.000000 0.033731
#
#
# Mechanical properties :
#
#
# Convention : Reuss Voigt Hill
#
# Bulk Modulus (GPa) = 33.53270 60.34488 46.93879
# Shear Modulus (GPa) = 25.63501 32.15653 28.89577
#
# Velocity S-wave (km/s) = 3.55011 3.97612 3.76913
# Velocity P-wave (km/s) = 5.76978 7.12372 6.48220
#
# Compressibility (1/GPa) = 0.02982163
#
# Stress axis : x y z
#
# Youngs Moduli (GPa) = 31.26919 90.79894 152.40649
#
# Poissons Ratio (x) = 0.39868 0.38956
# Poissons Ratio (y) = 0.13730 0.44500
# Poissons Ratio (z) = 0.07993 0.26512
#
# Static dielectric constant tensor:
#      x y z
#    x 3.592690 0.000000 0.000000 
#    y 0.000000 3.764740 0.000000 
#    z 0.000000 0.000000 4.137610 
# 
# 
# High freq. dielectric constant tensor:
#      x y z
#    x 1.777730 0.000000 0.000000 
#    y 0.000000 1.801720 0.000000 
#    z 0.000000 0.000000 1.828590 
# 
# From -- ./inp_files/11979.got.cif
#   From: 2010.06.25/outbox.cif.g09.slc.cpg/sg71_6_cif.got.tgz:11979.got - 2010.06.28 04:59:45.
