data_PCOD8291977
_publ_section_title
;
Structure prediction by ZEFSAII (Michael W. Deem and Ramdas Pophale) SiO2 
 PCOD8291977
Probable space group: I M M M
;
_chemical_formula_sum "Si O2"
_cell_formula_units_Z 48
_cell_length_a 7.869627
_cell_length_b 16.545653
_cell_length_c 18.302780
_cell_angle_alpha 90.000000
_cell_angle_beta 90.000000
_cell_angle_gamma 90.000000
_cell_volume 2383.170530
_symmetry_space_group_name_H-M "I M M M"
_symmetry_group_IT_number 71
_symmetry_cell_setting 'orthorhombic'
loop_
_space_group_symop_operation_xyz
x,y,z
-x,-y,z
x,-y,-z
-x,y,-z
-x,-y,-z
x,y,-z
-x,y,z
x,-y,z
1/2+x,1/2+y,1/2+z
1/2-x,1/2-y,1/2+z
1/2+x,1/2-y,1/2-z
1/2-x,1/2+y,1/2-z
1/2-x,1/2-y,1/2-z
1/2+x,1/2+y,1/2-z
1/2-x,1/2+y,1/2+z
1/2+x,1/2-y,1/2+z
loop_
_atom_site_type_symbol
_atom_site_label
_atom_site_fract_x
_atom_site_fract_y
_atom_site_fract_z
Si Si1 0.697107 0.345909 0.674138
Si Si2 0.702002 0.500000 0.416537
Si Si3 0.000000 0.588787 0.085457
Si Si4 0.811342 0.169697 0.659462
O O1 0.500000 0.328563 0.656677
O O2 0.768156 0.420347 0.625850
O O3 0.804849 0.266731 0.655646
O O4 0.722556 0.365175 0.759566
O O5 0.500000 0.500000 0.415169
O O6 0.770428 0.500000 0.500000
O O7 0.170713 0.634545 0.106689
O O8 0.000000 0.500000 0.121527
O O9 0.000000 0.581869 0.000000
O O10 0.000000 0.143425 0.633506
#
# Coordination Sequence:
#
# PCOD8291977 Si02
#       4
#    16   8   8  16
#     4   9  18  35  58  93 126 160 206 248 291 362
#     4   9  18  32  55  89 127 165 198 239 301 365
#     4  11  26  44  62  89 119 157 207 259 322 372
#     4  10  21  39  64  91 119 159 208 254 303 360
#
# _framework density 20.141235999999999
#
# number of rings (size 3 to 8) (size 9 to 14) (size 15 to 20)
#    0.000    2.333    1.667    0.000    4.667    2.667 
#    0.000    2.500    0.000    1.000    0.000    0.000 
#    0.000    0.000    0.000    0.000    0.000    0.000 
#
# Total GULP energy -297581.821109 kJ/mol
# GULP energy per Si atom -12399.242546 kJ/mol
# Density = 2.009539 g / cm^3
# Si number density = 20.141236 Si / 1000 Ang^3
#
#
#
# Elastic Constant Matrix: (Units=GPa)
#
#
# Indices 1 2 3 4 5 6 
#
# 1 105.4295 35.7923 33.8557 0.0000 0.0000 0.0000
# 2 35.7923 106.6238 65.2413 0.0000 0.0000 0.0000
# 3 33.8557 65.2413 97.2751 0.0000 0.0000 0.0000
# 4 0.0000 0.0000 0.0000 28.8380 0.0000 0.0000
# 5 0.0000 0.0000 0.0000 0.0000 13.9467 0.0000
# 6 0.0000 0.0000 0.0000 0.0000 0.0000 15.8773
#
#
#
# Elastic Compliance Matrix: (Units=1/GPa)
#
#
# Indices 1 2 3 4 5 6 
#
# 1 0.010998 -0.002289 -0.002292 0.000000 0.000000 0.000000
# 2 -0.002289 0.016383 -0.010191 0.000000 0.000000 0.000000
# 3 -0.002292 -0.010191 0.017913 0.000000 0.000000 0.000000
# 4 0.000000 0.000000 0.000000 0.034676 0.000000 0.000000
# 5 0.000000 0.000000 0.000000 0.000000 0.071702 0.000000
# 6 0.000000 0.000000 0.000000 0.000000 0.000000 0.062983
#
#
# Mechanical properties :
#
#
# Convention : Reuss Voigt Hill
#
# Bulk Modulus (GPa) = 63.49747 64.34521 63.92134
# Shear Modulus (GPa) = 20.04400 23.36167 21.70283
#
# Velocity S-wave (km/s) = 3.15806 3.40941 3.28614
# Velocity P-wave (km/s) = 6.70017 6.89312 6.79733
#
# Compressibility (1/GPa) = 0.01574866
#
# Stress axis : x y z
#
# Youngs Moduli (GPa) = 90.92262 61.03860 55.82501
#
# Poissons Ratio (x) = 0.13973 0.12798
# Poissons Ratio (y) = 0.20815 0.56892
# Poissons Ratio (z) = 0.20844 0.62206
#
# Static dielectric constant tensor:
#      x y z
#    x 3.506680 0.000000 0.000000 
#    y 0.000000 3.792020 0.000000 
#    z 0.000000 0.000000 3.579730 
# 
# 
# High freq. dielectric constant tensor:
#      x y z
#    x 1.779860 0.000000 0.000000 
#    y 0.000000 1.788430 0.000000 
#    z 0.000000 0.000000 1.772350 
# 
# From -- ./inp_files/7061.got.cif
#   From: 2010.06.25/outbox.cif.g09.slc.cpg/sg71_4_cif.got.tgz:7061.got - 2010.06.28 04:59:45.
