data_PCOD8291538
_publ_section_title
;
Structure prediction by ZEFSAII (Michael W. Deem and Ramdas Pophale) SiO2 
 PCOD8291538
Probable space group: I M M M
;
_chemical_formula_sum "Si O2"
_cell_formula_units_Z 104
_cell_length_a 31.828738
_cell_length_b 9.070210
_cell_length_c 19.806322
_cell_angle_alpha 90.000000
_cell_angle_beta 90.000000
_cell_angle_gamma 90.000000
_cell_volume 5717.953206
_symmetry_space_group_name_H-M "I M M M"
_symmetry_group_IT_number 71
_symmetry_cell_setting 'orthorhombic'
loop_
_space_group_symop_operation_xyz
x,y,z
-x,-y,z
x,-y,-z
-x,y,-z
-x,-y,-z
x,y,-z
-x,y,z
x,-y,z
1/2+x,1/2+y,1/2+z
1/2-x,1/2-y,1/2+z
1/2+x,1/2-y,1/2-z
1/2-x,1/2+y,1/2-z
1/2-x,1/2-y,1/2-z
1/2+x,1/2+y,1/2-z
1/2-x,1/2+y,1/2+z
1/2+x,1/2-y,1/2+z
loop_
_atom_site_type_symbol
_atom_site_label
_atom_site_fract_x
_atom_site_fract_y
_atom_site_fract_z
Si Si1 0.046165 0.827705 0.000000
Si Si2 0.547278 0.828001 0.231792
Si Si3 0.630173 0.325734 0.807328
Si Si4 0.076851 0.337803 0.876400
Si Si5 0.324027 0.167430 0.077361
Si Si6 0.774069 0.829097 0.923626
Si Si7 0.332198 0.166027 0.318844
O O1 0.070718 0.781110 0.066202
O O2 0.000000 0.755229 0.000000
O O3 0.043049 0.000000 0.000000
O O4 0.500000 0.788986 0.206613
O O5 0.582152 0.732733 0.193207
O O6 0.549913 0.791555 0.311211
O O7 0.557651 0.000000 0.219851
O O8 0.629448 0.500000 0.798177
O O9 0.649464 0.282526 0.879077
O O10 0.659909 0.257357 0.749425
O O11 0.062689 0.500000 0.901290
O O12 0.125726 0.337944 0.861436
O O13 0.274997 0.198658 0.087142
O O14 0.334534 0.000000 0.099560
O O15 0.337102 0.192128 0.000000
O O16 0.796875 0.736683 0.865879
O O17 0.785566 0.000000 0.914219
O O18 0.786873 0.779316 0.000000
O O19 0.318268 0.000000 0.298988
#
# Coordination Sequence:
#
# PCOD8291538 Si02
#       7
#     8  16  16  16  16  16  16
#     4  11  23  33  43  65  95 129 171 219 271 319
#     4   9  18  35  58  80 103 135 175 217 263 319
#     4  11  22  35  55  83 113 142 176 220 269 316
#     4   9  19  34  50  69  95 131 175 218 260 309
#     4   9  19  38  61  82 108 142 177 214 262 324
#     4   9  19  35  55  80 108 140 180 226 275 321
#     4  10  21  36  53  75 105 142 185 225 266 318
#
# _framework density 18.188327000000001
#
# number of rings (size 3 to 8) (size 9 to 14) (size 15 to 20)
#    0.000    2.385    0.000    4.385    1.077    6.462 
#    0.000    1.538    0.000    0.462    0.000    3.231 
#    0.000    0.000    0.000    0.000    0.000    0.000 
#
# Total GULP energy -644749.612931 kJ/mol
# GULP energy per Si atom -12399.031018 kJ/mol
# Density = 1.814693 g / cm^3
# Si number density = 18.188327 Si / 1000 Ang^3
#
#
#
# Elastic Constant Matrix: (Units=GPa)
#
#
# Indices 1 2 3 4 5 6 
#
# 1 77.8342 51.7888 53.0843 0.0000 0.0000 0.0000
# 2 51.7888 111.6049 55.6084 0.0000 0.0000 0.0000
# 3 53.0843 55.6084 90.9241 0.0000 0.0000 0.0000
# 4 0.0000 0.0000 0.0000 28.0383 0.0000 0.0000
# 5 0.0000 0.0000 0.0000 0.0000 14.9826 0.0000
# 6 0.0000 0.0000 0.0000 0.0000 0.0000 28.7551
#
#
#
# Elastic Compliance Matrix: (Units=1/GPa)
#
#
# Indices 1 2 3 4 5 6 
#
# 1 0.023792 -0.005925 -0.010267 0.000000 0.000000 0.000000
# 2 -0.005925 0.014363 -0.005325 0.000000 0.000000 0.000000
# 3 -0.010267 -0.005325 0.020249 0.000000 0.000000 0.000000
# 4 0.000000 0.000000 0.000000 0.035665 0.000000 0.000000
# 5 0.000000 0.000000 0.000000 0.000000 0.066744 0.000000
# 6 0.000000 0.000000 0.000000 0.000000 0.000000 0.034776
#
#
# Mechanical properties :
#
#
# Convention : Reuss Voigt Hill
#
# Bulk Modulus (GPa) = 65.06046 66.81404 65.93725
# Shear Modulus (GPa) = 20.51296 22.34731 21.43013
#
# Velocity S-wave (km/s) = 3.36193 3.50903 3.43627
# Velocity P-wave (km/s) = 7.13570 7.29603 7.21631
#
# Compressibility (1/GPa) = 0.01537032
#
# Stress axis : x y z
#
# Youngs Moduli (GPa) = 42.03008 69.62431 49.38451
#
# Poissons Ratio (x) = 0.41251 0.50704
# Poissons Ratio (y) = 0.24902 0.26298
# Poissons Ratio (z) = 0.43153 0.37075
#
# Static dielectric constant tensor:
#      x y z
#    x 3.375930 0.000000 0.000000 
#    y 0.000000 3.373830 0.000000 
#    z 0.000000 0.000000 3.140770 
# 
# 
# High freq. dielectric constant tensor:
#      x y z
#    x 1.703160 0.000000 0.000000 
#    y 0.000000 1.703180 0.000000 
#    z 0.000000 0.000000 1.692800 
# 
# From -- ./inp_files/11459.got.cif
#   From: 2010.06.25/outbox.cif.g09.slc.cpg/sg71_6_cif.got.tgz:11459.got - 2010.06.28 04:59:45.
