data_PCOD8291484
_publ_section_title
;
Structure prediction by ZEFSAII (Michael W. Deem and Ramdas Pophale) SiO2 
 PCOD8291484
Probable space group: I M M M
;
_chemical_formula_sum "Si O2"
_cell_formula_units_Z 104
_cell_length_a 22.133351
_cell_length_b 8.773159
_cell_length_c 26.425377
_cell_angle_alpha 90.000000
_cell_angle_beta 90.000000
_cell_angle_gamma 90.000000
_cell_volume 5131.264050
_symmetry_space_group_name_H-M "I M M M"
_symmetry_group_IT_number 71
_symmetry_cell_setting 'orthorhombic'
loop_
_space_group_symop_operation_xyz
x,y,z
-x,-y,z
x,-y,-z
-x,y,-z
-x,-y,-z
x,y,-z
-x,y,z
x,-y,z
1/2+x,1/2+y,1/2+z
1/2-x,1/2-y,1/2+z
1/2+x,1/2-y,1/2-z
1/2-x,1/2+y,1/2-z
1/2-x,1/2-y,1/2-z
1/2+x,1/2+y,1/2-z
1/2-x,1/2+y,1/2+z
1/2+x,1/2-y,1/2+z
loop_
_atom_site_type_symbol
_atom_site_label
_atom_site_fract_x
_atom_site_fract_y
_atom_site_fract_z
Si Si1 0.066604 0.174119 0.152639
Si Si2 0.851351 0.680129 0.587167
Si Si3 0.601661 0.823634 0.558228
Si Si4 0.779756 0.166598 0.941550
Si Si5 0.429700 0.678711 0.000000
Si Si6 0.191293 0.822138 0.684840
Si Si7 0.824629 0.677783 0.791340
O O1 0.059242 0.220939 0.093619
O O2 0.115609 0.285533 0.177129
O O3 0.000000 0.194581 0.177553
O O4 0.088240 0.000000 0.157528
O O5 0.860006 0.500000 0.584045
O O6 0.786273 0.735406 0.567362
O O7 0.901836 0.754194 0.551595
O O8 0.852789 0.735791 0.645312
O O9 0.589301 0.779907 0.500000
O O10 0.670370 0.787806 0.576437
O O11 0.588378 0.000000 0.567749
O O12 0.787216 0.000000 0.914410
O O13 0.789441 0.139188 0.000000
O O14 0.418323 0.500000 0.000000
O O15 0.500000 0.721018 0.000000
O O16 0.170654 0.775313 0.740513
O O17 0.262797 0.778892 0.678135
O O18 0.180418 0.000000 0.677302
O O19 0.823056 0.500000 0.777313
#
# Coordination Sequence:
#
# PCOD8291484 Si02
#       7
#    16  16  16  16   8  16  16
#     4  11  24  40  58  80 110 153 197 237 286 342
#     4  11  21  36  59  88 118 153 197 241 290 350
#     4  10  21  35  53  81 114 149 191 239 286 331
#     4   9  17  31  51  79 113 148 184 226 278 332
#     4  11  25  43  61  83 117 161 204 249 304 365
#     4  10  21  37  61  93 125 154 187 236 298 356
#     4  10  21  39  63  91 120 153 193 240 295 350
#
# _framework density 20.267909
#
# number of rings (size 3 to 8) (size 9 to 14) (size 15 to 20)
#    0.000    1.769    0.769    3.462    0.000    8.615 
#    0.000    2.308    0.000    4.615    0.000    0.000 
#    0.000    0.000    0.000    0.000    0.000    0.000 
#
# Total GULP energy -644648.587664 kJ/mol
# GULP energy per Si atom -12397.088224 kJ/mol
# Density = 2.022178 g / cm^3
# Si number density = 20.267909 Si / 1000 Ang^3
#
#
#
# Elastic Constant Matrix: (Units=GPa)
#
#
# Indices 1 2 3 4 5 6 
#
# 1 93.3978 30.3738 47.4485 0.0000 0.0000 0.0000
# 2 30.3738 63.4652 29.9497 0.0000 0.0000 0.0000
# 3 47.4485 29.9497 86.5360 0.0000 0.0000 0.0000
# 4 0.0000 0.0000 0.0000 35.7789 0.0000 0.0000
# 5 0.0000 0.0000 0.0000 0.0000 23.0719 0.0000
# 6 0.0000 0.0000 0.0000 0.0000 0.0000 26.7658
#
#
#
# Elastic Compliance Matrix: (Units=1/GPa)
#
#
# Indices 1 2 3 4 5 6 
#
# 1 0.015695 -0.004124 -0.007178 0.000000 0.000000 0.000000
# 2 -0.004124 0.019916 -0.004632 0.000000 0.000000 0.000000
# 3 -0.007178 -0.004632 0.017095 0.000000 0.000000 0.000000
# 4 0.000000 0.000000 0.000000 0.027949 0.000000 0.000000
# 5 0.000000 0.000000 0.000000 0.000000 0.043343 0.000000
# 6 0.000000 0.000000 0.000000 0.000000 0.000000 0.037361
#
#
# Mechanical properties :
#
#
# Convention : Reuss Voigt Hill
#
# Bulk Modulus (GPa) = 47.98958 50.99368 49.49163
# Shear Modulus (GPa) = 24.97841 26.16510 25.57175
#
# Velocity S-wave (km/s) = 3.51438 3.59689 3.55588
# Velocity P-wave (km/s) = 6.34010 6.51649 6.42890
#
# Compressibility (1/GPa) = 0.02083786
#
# Stress axis : x y z
#
# Youngs Moduli (GPa) = 63.71540 50.21080 58.49715
#
# Poissons Ratio (x) = 0.20706 0.41991
# Poissons Ratio (y) = 0.26275 0.27094
# Poissons Ratio (z) = 0.45737 0.23256
#
# Static dielectric constant tensor:
#      x y z
#    x 3.567420 0.000000 0.000000 
#    y 0.000000 3.689680 0.000000 
#    z 0.000000 0.000000 3.646090 
# 
# 
# High freq. dielectric constant tensor:
#      x y z
#    x 1.775880 0.000000 0.000000 
#    y 0.000000 1.798800 0.000000 
#    z 0.000000 0.000000 1.788580 
# 
# From -- ./inp_files/56267.got.cif
#   From: 2010.06.25/outbox.cif.g09.slc.cpg/sg71_29_cif.got.tgz:56267.got - 2010.06.28 04:59:45.
