data_PCOD8291332
_publ_section_title
;
Structure prediction by ZEFSAII (Michael W. Deem and Ramdas Pophale) SiO2 
 PCOD8291332
Probable space group: I M M M
;
_chemical_formula_sum "Si O2"
_cell_formula_units_Z 104
_cell_length_a 22.038854
_cell_length_b 8.953769
_cell_length_c 27.036768
_cell_angle_alpha 90.000000
_cell_angle_beta 90.000000
_cell_angle_gamma 90.000000
_cell_volume 5335.187268
_symmetry_space_group_name_H-M "I M M M"
_symmetry_group_IT_number 71
_symmetry_cell_setting 'orthorhombic'
loop_
_space_group_symop_operation_xyz
x,y,z
-x,-y,z
x,-y,-z
-x,y,-z
-x,-y,-z
x,y,-z
-x,y,z
x,-y,z
1/2+x,1/2+y,1/2+z
1/2-x,1/2-y,1/2+z
1/2+x,1/2-y,1/2-z
1/2-x,1/2+y,1/2-z
1/2-x,1/2-y,1/2-z
1/2+x,1/2+y,1/2-z
1/2-x,1/2+y,1/2+z
1/2+x,1/2-y,1/2+z
loop_
_atom_site_type_symbol
_atom_site_label
_atom_site_fract_x
_atom_site_fract_y
_atom_site_fract_z
Si Si1 0.500000 0.821660 0.683895
Si Si2 0.798823 0.172074 0.055864
Si Si3 0.617982 0.322534 0.178072
Si Si4 0.569954 0.176942 0.000000
Si Si5 0.875403 0.670519 0.137633
Si Si6 0.000000 0.322211 0.702276
Si Si7 0.335826 0.177130 0.083427
Si Si8 0.687672 0.172464 0.261281
O O1 0.559799 0.761244 0.655350
O O2 0.500000 0.765095 0.740785
O O3 0.500000 0.000000 0.686172
O O4 0.848375 0.250888 0.089891
O O5 0.729169 0.226063 0.061273
O O6 0.801621 0.000000 0.069970
O O7 0.819494 0.203216 0.000000
O O8 0.615449 0.500000 0.178193
O O9 0.553641 0.246617 0.169933
O O10 0.661766 0.264929 0.134965
O O11 0.637625 0.262566 0.231443
O O12 0.608672 0.229934 0.952077
O O13 0.500000 0.240831 0.000000
O O14 0.566875 0.000000 0.000000
O O15 0.886211 0.500000 0.123229
O O16 0.826246 0.686440 0.180999
O O17 0.000000 0.500000 0.698942
O O18 0.339139 0.000000 0.092074
O O19 0.750000 0.250000 0.250000
O O20 0.688318 0.000000 0.244372
#
# Coordination Sequence:
#
# PCOD8291332 Si02
#       8
#     8  16  16   8  16   8  16  16
#     4   9  18  39  64  86 114 151 198 251 302 360
#     4  10  21  39  61  87 120 156 200 252 305 364
#     4  12  25  38  55  88 126 156 195 244 295 360
#     4   9  18  34  59  89 111 144 208 263 297 356
#     4  10  21  38  62  88 114 151 200 251 306 366
#     4  11  21  41  65  83 113 163 208 247 300 361
#     4  10  20  38  62  86 116 159 207 252 304 361
#     4  11  22  38  59  86 120 158 199 243 298 360
#
# _framework density 19.493223
#
# number of rings (size 3 to 8) (size 9 to 14) (size 15 to 20)
#    0.000    1.615    2.308    3.000    1.077    4.615 
#    0.000    1.154    0.000    2.769    0.000    0.000 
#    0.000    0.000    0.000    0.000    0.000    0.000 
#
# Total GULP energy -644701.489113 kJ/mol
# GULP energy per Si atom -12398.105560 kJ/mol
# Density = 1.944886 g / cm^3
# Si number density = 19.493223 Si / 1000 Ang^3
#
#
#
# Elastic Constant Matrix: (Units=GPa)
#
#
# Indices 1 2 3 4 5 6 
#
# 1 105.2644 34.1435 27.2443 0.0000 0.0000 0.0000
# 2 34.1435 83.0146 38.0752 0.0000 0.0000 0.0000
# 3 27.2443 38.0752 82.6499 0.0000 0.0000 0.0000
# 4 0.0000 0.0000 0.0000 28.7233 0.0000 0.0000
# 5 0.0000 0.0000 0.0000 0.0000 40.9497 0.0000
# 6 0.0000 0.0000 0.0000 0.0000 0.0000 31.1634
#
#
#
# Elastic Compliance Matrix: (Units=1/GPa)
#
#
# Indices 1 2 3 4 5 6 
#
# 1 0.011215 -0.003699 -0.001993 0.000000 0.000000 0.000000
# 2 -0.003699 0.016493 -0.006379 0.000000 0.000000 0.000000
# 3 -0.001993 -0.006379 0.015695 0.000000 0.000000 0.000000
# 4 0.000000 0.000000 0.000000 0.034815 0.000000 0.000000
# 5 0.000000 0.000000 0.000000 0.000000 0.024420 0.000000
# 6 0.000000 0.000000 0.000000 0.000000 0.000000 0.032089
#
#
# Mechanical properties :
#
#
# Convention : Reuss Voigt Hill
#
# Bulk Modulus (GPa) = 51.91542 52.20610 52.06076
# Shear Modulus (GPa) = 30.25001 31.59833 30.92417
#
# Velocity S-wave (km/s) = 3.94359 4.03052 3.98729
# Velocity P-wave (km/s) = 6.88667 6.96419 6.92554
#
# Compressibility (1/GPa) = 0.01926210
#
# Stress axis : x y z
#
# Youngs Moduli (GPa) = 89.16268 60.63174 63.71539
#
# Poissons Ratio (x) = 0.22426 0.12699
# Poissons Ratio (y) = 0.32979 0.40643
# Poissons Ratio (z) = 0.17771 0.38676
#
# Static dielectric constant tensor:
#      x y z
#    x 3.141870 0.000000 0.000000 
#    y 0.000000 3.378700 0.000000 
#    z 0.000000 0.000000 3.548180 
# 
# 
# High freq. dielectric constant tensor:
#      x y z
#    x 1.770290 0.000000 0.000000 
#    y 0.000000 1.736090 0.000000 
#    z 0.000000 0.000000 1.759440 
# 
# From -- ./inp_files/66482.got.cif
#   From: 2010.06.25/outbox.cif.g09.slc.cpg/sg71_34_cif.got.tgz:66482.got - 2010.06.28 04:59:45.
