data_PCOD8291742
_publ_section_title
;
Structure prediction by ZEFSAII (Michael W. Deem and Ramdas Pophale) SiO2 
 PCOD8291742
Probable space group: I M M M
;
_chemical_formula_sum "Si O2"
_cell_formula_units_Z 72
_cell_length_a 15.105382
_cell_length_b 28.889724
_cell_length_c 8.598824
_cell_angle_alpha 90.000000
_cell_angle_beta 90.000000
_cell_angle_gamma 90.000000
_cell_volume 3752.443530
_symmetry_space_group_name_H-M "I M M M"
_symmetry_group_IT_number 71
_symmetry_cell_setting 'orthorhombic'
loop_
_space_group_symop_operation_xyz
x,y,z
-x,-y,z
x,-y,-z
-x,y,-z
-x,-y,-z
x,y,-z
-x,y,z
x,-y,z
1/2+x,1/2+y,1/2+z
1/2-x,1/2-y,1/2+z
1/2+x,1/2-y,1/2-z
1/2-x,1/2+y,1/2-z
1/2-x,1/2-y,1/2-z
1/2+x,1/2+y,1/2-z
1/2-x,1/2+y,1/2+z
1/2+x,1/2-y,1/2+z
loop_
_atom_site_type_symbol
_atom_site_label
_atom_site_fract_x
_atom_site_fract_y
_atom_site_fract_z
Si Si1 0.399318 0.292252 0.821385
Si Si2 0.239815 0.140766 0.180322
Si Si3 0.500000 0.947196 0.682314
Si Si4 0.691679 0.053395 0.315138
Si Si5 0.601803 0.805323 0.319323
O O1 0.500000 0.308282 0.793441
O O2 0.336946 0.334481 0.776378
O O3 0.376221 0.248064 0.716043
O O4 0.382991 0.278368 0.000000
O O5 0.238345 0.086664 0.230241
O O6 0.335122 0.162488 0.218067
O O7 0.218393 0.145416 0.000000
O O8 0.500000 0.940980 0.500000
O O9 0.594126 0.927504 0.742280
O O10 0.500000 0.000000 0.730609
O O11 0.700812 0.057949 0.500000
O O12 0.707391 0.000000 0.265116
O O13 0.620078 0.814868 0.500000
O O14 0.500000 0.816912 0.275564
#
# Coordination Sequence:
#
# PCOD8291742 Si02
#       5
#    16  16   8  16  16
#     4  10  21  39  61  82 106 138 181 231 278 325
#     4  12  24  35  53  81 115 149 182 222 269 327
#     4   7  12  26  49  73  97 131 173 215 259 307
#     4   9  18  34  55  78 106 142 185 228 270 318
#     4  10  21  37  57  81 112 148 184 223 268 320
#
# _framework density 19.187497
#
# number of rings (size 3 to 8) (size 9 to 14) (size 15 to 20)
#    0.000    2.111    0.000    5.333    1.556    3.111 
#    0.000    0.000    0.000    2.667    0.000    4.667 
#    0.000    0.000    0.000    0.000    0.000    0.000 
#
# Total GULP energy -446240.860443 kJ/mol
# GULP energy per Si atom -12395.579457 kJ/mol
# Density = 1.914383 g / cm^3
# Si number density = 19.187497 Si / 1000 Ang^3
#
#
#
# Elastic Constant Matrix: (Units=GPa)
#
#
# Indices 1 2 3 4 5 6 
#
# 1 65.3368 40.6479 16.8232 0.0003 -0.0007 0.0000
# 2 40.6479 84.1119 12.6586 -0.0015 -0.0001 -0.0005
# 3 16.8232 12.6586 51.1422 0.0004 -0.0066 -0.0004
# 4 0.0003 -0.0015 0.0004 30.4314 -0.0003 -0.0009
# 5 -0.0007 -0.0001 -0.0066 -0.0003 22.5458 -0.0004
# 6 0.0000 -0.0005 -0.0004 -0.0009 -0.0004 29.2658
#
#
#
# Elastic Compliance Matrix: (Units=1/GPa)
#
#
# Indices 1 2 3 4 5 6 
#
# 1 0.023060 -0.010389 -0.005014 -0.000001 -0.000001 0.000000
# 2 -0.010389 0.017030 -0.000798 0.000001 0.000000 0.000000
# 3 -0.005014 -0.000798 0.021400 0.000000 0.000006 0.000000
# 4 -0.000001 0.000001 0.000000 0.032861 0.000000 0.000001
# 5 -0.000001 0.000000 0.000006 0.000000 0.044354 0.000001
# 6 0.000000 0.000000 0.000000 0.000001 0.000001 0.034170
#
#
# Mechanical properties :
#
#
# Convention : Reuss Voigt Hill
#
# Bulk Modulus (GPa) = 34.37862 37.87226 36.12544
# Shear Modulus (GPa) = 23.25889 25.14603 24.20246
#
# Velocity S-wave (km/s) = 3.48543 3.62407 3.55542
# Velocity P-wave (km/s) = 5.84412 6.10677 5.97689
#
# Compressibility (1/GPa) = 0.02908784
#
# Stress axis : x y z
#
# Youngs Moduli (GPa) = 43.36554 58.72107 46.72880
#
# Poissons Ratio (x) = 0.61007 0.23430
# Poissons Ratio (y) = 0.45054 0.03727
# Poissons Ratio (z) = 0.21743 0.04684
#
# Static dielectric constant tensor:
#      x y z
#    x 3.526380 0.000000 0.000000 
#    y 0.000000 3.516020 -0.000010 
#    z 0.000000 -0.000010 3.362190 
# 
# 
# High freq. dielectric constant tensor:
#      x y z
#    x 1.731900 0.000000 0.000000 
#    y 0.000000 1.744940 0.000000 
#    z 0.000000 0.000000 1.734970 
# 
# From -- ./inp_files/6057.got.cif
#   From: 2010.06.25/outbox.cif.g09.slc.cpg/sg71_4_cif.got.tgz:6057.got - 2010.06.28 04:59:45.
