data_PCOD8291067
_publ_section_title
;
Structure prediction by ZEFSAII (Michael W. Deem and Ramdas Pophale) SiO2 
 PCOD8291067
Probable space group: I M M M
;
_chemical_formula_sum "Si O2"
_cell_formula_units_Z 120
_cell_length_a 9.149670
_cell_length_b 25.278528
_cell_length_c 27.690756
_cell_angle_alpha 90.000000
_cell_angle_beta 90.000000
_cell_angle_gamma 90.000000
_cell_volume 6404.600197
_symmetry_space_group_name_H-M "I M M M"
_symmetry_group_IT_number 71
_symmetry_cell_setting 'orthorhombic'
loop_
_space_group_symop_operation_xyz
x,y,z
-x,-y,z
x,-y,-z
-x,y,-z
-x,-y,-z
x,y,-z
-x,y,z
x,-y,z
1/2+x,1/2+y,1/2+z
1/2-x,1/2-y,1/2+z
1/2+x,1/2-y,1/2-z
1/2-x,1/2+y,1/2-z
1/2-x,1/2-y,1/2-z
1/2+x,1/2+y,1/2-z
1/2-x,1/2+y,1/2+z
1/2+x,1/2-y,1/2+z
loop_
_atom_site_type_symbol
_atom_site_label
_atom_site_fract_x
_atom_site_fract_y
_atom_site_fract_z
Si Si1 0.171194 0.287262 0.945573
Si Si2 0.833469 0.937408 0.144987
Si Si3 0.169587 0.154475 0.693306
Si Si4 0.336538 0.937160 0.946915
Si Si5 0.328118 0.894531 0.607745
Si Si6 0.673373 0.142153 0.206177
Si Si7 0.673479 0.000000 0.445795
Si Si8 0.667289 0.762738 0.861914
O O1 0.210740 0.346174 0.927732
O O2 0.243695 0.242983 0.911592
O O3 0.000000 0.277744 0.943636
O O4 0.231051 0.280884 0.000000
O O5 0.775031 0.916019 0.093331
O O6 0.734961 0.913682 0.187584
O O7 0.000000 0.918748 0.150661
O O8 0.818422 0.000000 0.148772
O O9 0.240603 0.111086 0.657800
O O10 0.254269 0.154965 0.743211
O O11 0.192273 0.212324 0.671713
O O12 0.000000 0.140501 0.701256
O O13 0.500000 0.916674 0.934593
O O14 0.336495 0.000000 0.947296
O O15 0.288299 0.916337 0.000000
O O16 0.500000 0.896493 0.619425
O O17 0.272267 0.947976 0.582296
O O18 0.500000 0.139664 0.212680
O O19 0.722386 0.186534 0.167682
O O20 0.500000 0.000000 0.448994
O O21 0.739133 0.000000 0.500000
O O22 0.500000 0.769190 0.876822
#
# Coordination Sequence:
#
# PCOD8291067 Si02
#       8
#    16  16  16  16  16  16   8  16
#     4   9  17  30  51  79 110 143 178 217 264 317
#     4  10  21  36  53  76 106 136 169 209 256 311
#     4  10  20  36  56  78 105 135 171 218 272 321
#     4   8  14  27  49  74  98 127 164 204 245 291
#     4   9  17  31  51  77 108 143 184 226 265 312
#     4  11  22  37  57  79 102 133 175 219 265 318
#     4   9  16  28  51  81 111 145 187 231 266 301
#     4   9  20  36  55  80 106 133 170 217 266 318
#
# _framework density 18.736532
#
# number of rings (size 3 to 8) (size 9 to 14) (size 15 to 20)
#    0.000    2.600    0.000    2.400    0.000    4.533 
#    1.200    2.333    0.000    2.400    0.000    0.000 
#    0.000    0.000    0.000    0.000    0.000    0.000 
#
# Total GULP energy -744008.719506 kJ/mol
# GULP energy per Si atom -12400.145325 kJ/mol
# Density = 1.869389 g / cm^3
# Si number density = 18.736532 Si / 1000 Ang^3
#
#
#
# Elastic Constant Matrix: (Units=GPa)
#
#
# Indices 1 2 3 4 5 6 
#
# 1 86.1641 36.2473 68.8821 0.0000 0.0000 0.0000
# 2 36.2473 62.3639 49.9593 0.0000 0.0000 0.0000
# 3 68.8821 49.9593 148.7034 0.0000 0.0000 0.0000
# 4 0.0000 0.0000 0.0000 20.7288 0.0000 0.0000
# 5 0.0000 0.0000 0.0000 0.0000 35.1093 0.0000
# 6 0.0000 0.0000 0.0000 0.0000 0.0000 22.5039
#
#
#
# Elastic Compliance Matrix: (Units=1/GPa)
#
#
# Indices 1 2 3 4 5 6 
#
# 1 0.019806 -0.005695 -0.007261 0.000000 0.000000 0.000000
# 2 -0.005695 0.023577 -0.005283 0.000000 0.000000 0.000000
# 3 -0.007261 -0.005283 0.011863 0.000000 0.000000 0.000000
# 4 0.000000 0.000000 0.000000 0.048242 0.000000 0.000000
# 5 0.000000 0.000000 0.000000 0.000000 0.028482 0.000000
# 6 0.000000 0.000000 0.000000 0.000000 0.000000 0.044437
#
#
# Mechanical properties :
#
#
# Convention : Reuss Voigt Hill
#
# Bulk Modulus (GPa) = 53.28187 67.48986 60.38587
# Shear Modulus (GPa) = 22.81613 25.14460 23.98036
#
# Velocity S-wave (km/s) = 3.49339 3.66732 3.58141
# Velocity P-wave (km/s) = 6.69110 7.35058 7.02858
#
# Compressibility (1/GPa) = 0.01876811
#
# Stress axis : x y z
#
# Youngs Moduli (GPa) = 50.48857 42.41377 84.29300
#
# Poissons Ratio (x) = 0.24154 0.61209
# Poissons Ratio (y) = 0.28753 0.44533
# Poissons Ratio (z) = 0.36662 0.22408
#
# Static dielectric constant tensor:
#      x y z
#    x 3.409450 0.000000 0.000000 
#    y 0.000000 3.315140 0.000000 
#    z 0.000000 0.000000 3.624820 
# 
# 
# High freq. dielectric constant tensor:
#      x y z
#    x 1.719700 0.000000 0.000000 
#    y 0.000000 1.710700 0.000000 
#    z 0.000000 0.000000 1.736520 
# 
# From -- ./inp_files/63803.got.cif
#   From: 2010.06.25/outbox.cif.g09.slc.cpg/sg71_32_cif.got.tgz:63803.got - 2010.06.28 04:59:45.
