data_PCOD8291120
_publ_section_title
;
Structure prediction by ZEFSAII (Michael W. Deem and Ramdas Pophale) SiO2 
 PCOD8291120
Probable space group: I M M M
;
_chemical_formula_sum "Si O2"
_cell_formula_units_Z 88
_cell_length_a 27.121789
_cell_length_b 9.316197
_cell_length_c 19.095073
_cell_angle_alpha 90.000000
_cell_angle_beta 90.000000
_cell_angle_gamma 90.000000
_cell_volume 4824.788935
_symmetry_space_group_name_H-M "I M M M"
_symmetry_group_IT_number 71
_symmetry_cell_setting 'orthorhombic'
loop_
_space_group_symop_operation_xyz
x,y,z
-x,-y,z
x,-y,-z
-x,y,-z
-x,-y,-z
x,y,-z
-x,y,z
x,-y,z
1/2+x,1/2+y,1/2+z
1/2-x,1/2-y,1/2+z
1/2+x,1/2-y,1/2-z
1/2-x,1/2+y,1/2-z
1/2-x,1/2-y,1/2-z
1/2+x,1/2+y,1/2-z
1/2-x,1/2+y,1/2+z
1/2+x,1/2-y,1/2+z
loop_
_atom_site_type_symbol
_atom_site_label
_atom_site_fract_x
_atom_site_fract_y
_atom_site_fract_z
Si Si1 0.733710 0.166061 0.318259
Si Si2 0.056448 0.165492 0.079200
Si Si3 0.381600 0.835629 0.309830
Si Si4 0.000000 0.671316 0.579813
Si Si5 0.901694 0.670519 0.654753
Si Si6 0.198109 0.665748 0.582456
O O1 0.750000 0.250000 0.250000
O O2 0.675613 0.181812 0.325962
O O3 0.758759 0.237121 0.385805
O O4 0.749456 0.000000 0.312024
O O5 0.090136 0.254053 0.130282
O O6 0.000000 0.189710 0.100743
O O7 0.070988 0.000000 0.085691
O O8 0.065428 0.218921 0.000000
O O9 0.395810 0.770601 0.233826
O O10 0.398191 0.000000 0.312370
O O11 0.048409 0.731658 0.619572
O O12 0.000000 0.500000 0.580289
O O13 0.000000 0.728027 0.500000
O O14 0.903384 0.500000 0.654968
O O15 0.854622 0.721898 0.610118
O O16 0.199401 0.684872 0.500000
O O17 0.206469 0.500000 0.604664
#
# Coordination Sequence:
#
# PCOD8291120 Si02
#       6
#    16  16  16   8  16  16
#     4  11  22  38  57  79 111 147 187 234 282 331
#     4   9  20  39  59  80 110 146 183 224 271 329
#     4  10  21  35  55  82 112 143 179 228 279 327
#     4   9  16  26  46  76 108 143 178 216 263 313
#     4   9  17  31  49  77 113 143 176 219 266 318
#     4  10  20  36  58  82 112 149 185 223 274 334
#
# _framework density 18.239139999999999
#
# number of rings (size 3 to 8) (size 9 to 14) (size 15 to 20)
#    0.000    2.273    1.818    1.636    1.273    5.455 
#    0.000    4.545    0.000    0.000    0.000    0.000 
#    0.000    2.909    0.000    0.000    0.000    0.000 
#
# Total GULP energy -545629.015088 kJ/mol
# GULP energy per Si atom -12400.659434 kJ/mol
# Density = 1.819763 g / cm^3
# Si number density = 18.239140 Si / 1000 Ang^3
#
#
#
# Elastic Constant Matrix: (Units=GPa)
#
#
# Indices 1 2 3 4 5 6 
#
# 1 105.1355 50.9497 71.5332 0.0000 0.0000 0.0000
# 2 50.9497 69.0506 55.8298 0.0000 0.0000 0.0000
# 3 71.5332 55.8298 125.6531 0.0000 0.0000 0.0000
# 4 0.0000 0.0000 0.0000 27.8408 0.0000 0.0000
# 5 0.0000 0.0000 0.0000 0.0000 41.8790 0.0000
# 6 0.0000 0.0000 0.0000 0.0000 0.0000 27.7360
#
#
#
# Elastic Compliance Matrix: (Units=1/GPa)
#
#
# Indices 1 2 3 4 5 6 
#
# 1 0.017822 -0.007720 -0.006716 0.000000 0.000000 0.000000
# 2 -0.007720 0.025946 -0.007133 0.000000 0.000000 0.000000
# 3 -0.006716 -0.007133 0.014951 0.000000 0.000000 0.000000
# 4 0.000000 0.000000 0.000000 0.035918 0.000000 0.000000
# 5 0.000000 0.000000 0.000000 0.000000 0.023878 0.000000
# 6 0.000000 0.000000 0.000000 0.000000 0.000000 0.036054
#
#
# Mechanical properties :
#
#
# Convention : Reuss Voigt Hill
#
# Bulk Modulus (GPa) = 64.18158 72.94047 68.56103
# Shear Modulus (GPa) = 24.64237 27.59293 26.11765
#
# Velocity S-wave (km/s) = 3.67968 3.89375 3.78822
# Velocity P-wave (km/s) = 7.30197 7.76486 7.53697
#
# Compressibility (1/GPa) = 0.01558079
#
# Stress axis : x y z
#
# Youngs Moduli (GPa) = 56.10962 38.54140 66.88516
#
# Poissons Ratio (x) = 0.29756 0.44918
# Poissons Ratio (y) = 0.43319 0.47710
# Poissons Ratio (z) = 0.37682 0.27492
#
# Static dielectric constant tensor:
#      x y z
#    x 3.278520 0.000000 0.000000 
#    y 0.000000 3.218860 0.000000 
#    z 0.000000 0.000000 3.417210 
# 
# 
# High freq. dielectric constant tensor:
#      x y z
#    x 1.717010 0.000000 0.000000 
#    y 0.000000 1.673090 0.000000 
#    z 0.000000 0.000000 1.720410 
# 
# From -- ./inp_files/8851.got.cif
#   From: 2010.06.25/outbox.cif.g09.slc.cpg/sg71_5_cif.got.tgz:8851.got - 2010.06.28 04:59:45.
