data_PCOD8291936
_publ_section_title
;
Structure prediction by ZEFSAII (Michael W. Deem and Ramdas Pophale) SiO2 
 PCOD8291936
Probable space group: I M M M
;
_chemical_formula_sum "Si O2"
_cell_formula_units_Z 88
_cell_length_a 18.243732
_cell_length_b 8.566140
_cell_length_c 28.656862
_cell_angle_alpha 90.000000
_cell_angle_beta 90.000000
_cell_angle_gamma 90.000000
_cell_volume 4478.447466
_symmetry_space_group_name_H-M "I M M M"
_symmetry_group_IT_number 71
_symmetry_cell_setting 'orthorhombic'
loop_
_space_group_symop_operation_xyz
x,y,z
-x,-y,z
x,-y,-z
-x,y,-z
-x,-y,-z
x,y,-z
-x,y,z
x,-y,z
1/2+x,1/2+y,1/2+z
1/2-x,1/2-y,1/2+z
1/2+x,1/2-y,1/2-z
1/2-x,1/2+y,1/2-z
1/2-x,1/2-y,1/2-z
1/2+x,1/2+y,1/2-z
1/2-x,1/2+y,1/2+z
1/2+x,1/2-y,1/2+z
loop_
_atom_site_type_symbol
_atom_site_label
_atom_site_fract_x
_atom_site_fract_y
_atom_site_fract_z
Si Si1 0.419100 0.185531 0.447683
Si Si2 0.811973 0.182191 0.782806
Si Si3 0.500000 0.315775 0.053190
Si Si4 0.210802 0.315541 0.883503
Si Si5 0.633718 0.816292 0.111762
Si Si6 0.914833 0.320329 0.713396
O O1 0.404402 0.246524 0.500000
O O2 0.500000 0.242354 0.430837
O O3 0.355850 0.252637 0.414425
O O4 0.416983 0.000000 0.446757
O O5 0.750000 0.250000 0.750000
O O6 0.808830 0.272327 0.831039
O O7 0.888635 0.214727 0.756672
O O8 0.800027 0.000000 0.792027
O O9 0.500000 0.500000 0.053864
O O10 0.426774 0.259334 0.078717
O O11 0.500000 0.252548 0.000000
O O12 0.219242 0.500000 0.888286
O O13 0.285305 0.238277 0.902782
O O14 0.623269 0.764695 0.165542
O O15 0.625065 0.000000 0.106679
O O16 0.895488 0.500000 0.724172
O O17 0.000000 0.293849 0.706621
#
# Coordination Sequence:
#
# PCOD8291936 Si02
#       6
#    16  16   8  16  16  16
#     4   8  16  34  60  88 118 153 194 242 296 354
#     4  12  24  38  57  84 119 158 200 244 296 353
#     4  11  25  43  63  89 123 161 207 263 312 363
#     4  11  22  36  60  93 125 159 201 251 304 363
#     4  11  22  39  62  87 118 159 202 250 308 369
#     4  10  21  39  61  84 113 152 199 246 298 360
#
# _framework density 19.649667000000001
#
# number of rings (size 3 to 8) (size 9 to 14) (size 15 to 20)
#    0.000    1.545    2.727    3.545    0.000    3.273 
#    0.000    3.636    0.000    3.273    0.000    5.091 
#    0.000    0.000    0.000    0.000    0.000    0.000 
#
# Total GULP energy -545656.260646 kJ/mol
# GULP energy per Si atom -12401.278651 kJ/mol
# Density = 1.960494 g / cm^3
# Si number density = 19.649667 Si / 1000 Ang^3
#
#
#
# Elastic Constant Matrix: (Units=GPa)
#
#
# Indices 1 2 3 4 5 6 
#
# 1 153.6393 16.6941 77.5667 0.0000 0.0000 0.0000
# 2 16.6941 38.7208 18.6909 0.0000 0.0000 0.0000
# 3 77.5667 18.6909 114.7818 0.0000 0.0000 0.0000
# 4 0.0000 0.0000 0.0000 25.9964 0.0000 0.0000
# 5 0.0000 0.0000 0.0000 0.0000 39.0986 0.0000
# 6 0.0000 0.0000 0.0000 0.0000 0.0000 26.0975
#
#
#
# Elastic Compliance Matrix: (Units=1/GPa)
#
#
# Indices 1 2 3 4 5 6 
#
# 1 0.009925 -0.001130 -0.006523 0.000000 0.000000 0.000000
# 2 -0.001130 0.028158 -0.003821 0.000000 0.000000 0.000000
# 3 -0.006523 -0.003821 0.013742 0.000000 0.000000 0.000000
# 4 0.000000 0.000000 0.000000 0.038467 0.000000 0.000000
# 5 0.000000 0.000000 0.000000 0.000000 0.025576 0.000000
# 6 0.000000 0.000000 0.000000 0.000000 0.000000 0.038318
#
#
# Mechanical properties :
#
#
# Convention : Reuss Voigt Hill
#
# Bulk Modulus (GPa) = 34.63085 59.22728 46.92907
# Shear Modulus (GPa) = 26.77231 31.18453 28.97842
#
# Velocity S-wave (km/s) = 3.69519 3.98807 3.84442
# Velocity P-wave (km/s) = 5.98901 7.17031 6.60612
#
# Compressibility (1/GPa) = 0.02887599
#
# Stress axis : x y z
#
# Youngs Moduli (GPa) = 100.75886 35.51411 72.76752
#
# Poissons Ratio (x) = 0.04014 0.47465
# Poissons Ratio (y) = 0.11389 0.27807
# Poissons Ratio (z) = 0.65723 0.13571
#
# Static dielectric constant tensor:
#      x y z
#    x 3.914580 0.000000 0.000000 
#    y 0.000000 3.625720 0.000000 
#    z 0.000000 0.000000 4.092180 
# 
# 
# High freq. dielectric constant tensor:
#      x y z
#    x 1.782960 0.000000 0.000000 
#    y 0.000000 1.751740 0.000000 
#    z 0.000000 0.000000 1.764760 
# 
# From -- ./inp_files/61118.got.cif
#   From: 2010.06.25/outbox.cif.g09.slc.cpg/sg71_31_cif.got.tgz:61118.got - 2010.06.28 04:59:45.
