data_PCOD8291153
_publ_section_title
;
Structure prediction by ZEFSAII (Michael W. Deem and Ramdas Pophale) SiO2 
 PCOD8291153
Probable space group: I M M M
;
_chemical_formula_sum "Si O2"
_cell_formula_units_Z 88
_cell_length_a 8.922597
_cell_length_b 27.052078
_cell_length_c 19.006705
_cell_angle_alpha 90.000000
_cell_angle_beta 90.000000
_cell_angle_gamma 90.000000
_cell_volume 4587.739428
_symmetry_space_group_name_H-M "I M M M"
_symmetry_group_IT_number 71
_symmetry_cell_setting 'orthorhombic'
loop_
_space_group_symop_operation_xyz
x,y,z
-x,-y,z
x,-y,-z
-x,y,-z
-x,-y,-z
x,y,-z
-x,y,z
x,-y,z
1/2+x,1/2+y,1/2+z
1/2-x,1/2-y,1/2+z
1/2+x,1/2-y,1/2-z
1/2-x,1/2+y,1/2-z
1/2-x,1/2-y,1/2-z
1/2+x,1/2+y,1/2-z
1/2-x,1/2+y,1/2+z
1/2+x,1/2-y,1/2+z
loop_
_atom_site_type_symbol
_atom_site_label
_atom_site_fract_x
_atom_site_fract_y
_atom_site_fract_z
Si Si1 0.677410 0.658467 0.324559
Si Si2 0.333813 0.914701 0.636425
Si Si3 0.669076 0.195729 0.689154
Si Si4 0.323613 0.444287 0.000000
Si Si5 0.323227 0.769034 0.081319
Si Si6 0.172903 0.946063 0.230912
O O1 0.500000 0.663912 0.329685
O O2 0.736239 0.694541 0.261773
O O3 0.755060 0.677757 0.395910
O O4 0.726092 0.600721 0.316044
O O5 0.500000 0.934624 0.619791
O O6 0.338854 0.859200 0.661591
O O7 0.233391 0.915711 0.567682
O O8 0.262860 0.948756 0.696564
O O9 0.500000 0.215736 0.703209
O O10 0.749105 0.227245 0.629212
O O11 0.261504 0.500000 0.000000
O O12 0.500000 0.442902 0.000000
O O13 0.500000 0.769259 0.093156
O O14 0.282209 0.759279 0.000000
O O15 0.000000 0.937897 0.250438
O O16 0.196503 0.000000 0.193129
#
# Coordination Sequence:
#
# PCOD8291153 Si02
#       6
#    16  16  16   8  16  16
#     4  10  20  36  59  84 111 144 180 221 268 320
#     4  10  21  34  50  75 104 136 177 224 269 315
#     4  10  21  37  57  80 109 143 180 223 269 321
#     4  11  23  35  47  65  97 143 185 223 270 319
#     4  11  24  39  56  80 110 144 182 225 272 323
#     4   9  18  34  56  81 107 136 174 218 265 319
#
# _framework density 19.181560999999999
#
# number of rings (size 3 to 8) (size 9 to 14) (size 15 to 20)
#    0.000    1.909    0.000    3.545    1.273    7.636 
#    0.000    0.000    0.000    0.545    0.000    3.818 
#    0.000    0.000    0.000    0.000    0.000    0.000 
#
# Total GULP energy -545522.046381 kJ/mol
# GULP energy per Si atom -12398.228327 kJ/mol
# Density = 1.913790 g / cm^3
# Si number density = 19.181561 Si / 1000 Ang^3
#
#
#
# Elastic Constant Matrix: (Units=GPa)
#
#
# Indices 1 2 3 4 5 6 
#
# 1 101.2871 28.9206 42.4962 0.0000 0.0000 0.0000
# 2 28.9206 76.1242 31.1683 0.0000 0.0000 0.0000
# 3 42.4962 31.1683 76.5659 -0.0003 -0.0001 0.0000
# 4 0.0000 0.0000 -0.0003 4.1637 0.0000 0.0000
# 5 0.0000 0.0000 -0.0001 0.0000 32.5616 0.0000
# 6 0.0000 0.0000 0.0000 0.0000 0.0000 25.4400
#
#
#
# Elastic Compliance Matrix: (Units=1/GPa)
#
#
# Indices 1 2 3 4 5 6 
#
# 1 0.013233 -0.002424 -0.006358 0.000000 0.000000 0.000000
# 2 -0.002424 0.016208 -0.005252 0.000000 0.000000 0.000000
# 3 -0.006358 -0.005252 0.018727 0.000001 0.000000 0.000000
# 4 0.000000 0.000000 0.000001 0.240168 0.000000 0.000000
# 5 0.000000 0.000000 0.000000 0.000000 0.030711 0.000000
# 6 0.000000 0.000000 0.000000 0.000000 0.000000 0.039308
#
#
# Mechanical properties :
#
#
# Convention : Reuss Voigt Hill
#
# Bulk Modulus (GPa) = 49.75236 51.01637 50.38437
# Shear Modulus (GPa) = 12.71865 22.52587 17.62226
#
# Velocity S-wave (km/s) = 2.57780 3.43060 3.03431
# Velocity P-wave (km/s) = 5.90373 6.50740 6.21290
#
# Compressibility (1/GPa) = 0.02009955
#
# Stress axis : x y z
#
# Youngs Moduli (GPa) = 75.57149 61.69811 53.39760
#
# Poissons Ratio (x) = 0.14957 0.33948
# Poissons Ratio (y) = 0.18320 0.28047
# Poissons Ratio (z) = 0.48045 0.32406
#
# Static dielectric constant tensor:
#      x y z
#    x 3.778950 0.000000 0.000000 
#    y 0.000000 3.738340 0.000000 
#    z 0.000000 0.000000 3.395030 
# 
# 
# High freq. dielectric constant tensor:
#      x y z
#    x 1.760600 0.000000 0.000000 
#    y 0.000000 1.759310 0.000000 
#    z 0.000000 0.000000 1.718390 
# 
# From -- ./inp_files/8771.got.cif
#   From: 2010.06.25/outbox.cif.g09.slc.cpg/sg71_5_cif.got.tgz:8771.got - 2010.06.28 04:59:45.
