data_PCOD8291655
_publ_section_title
;
Structure prediction by ZEFSAII (Michael W. Deem and Ramdas Pophale) SiO2 
 PCOD8291655
Probable space group: I M M M
;
_chemical_formula_sum "Si O2"
_cell_formula_units_Z 88
_cell_length_a 8.770787
_cell_length_b 22.791663
_cell_length_c 22.226669
_cell_angle_alpha 90.000000
_cell_angle_beta 90.000000
_cell_angle_gamma 90.000000
_cell_volume 4443.129393
_symmetry_space_group_name_H-M "I M M M"
_symmetry_group_IT_number 71
_symmetry_cell_setting 'orthorhombic'
loop_
_space_group_symop_operation_xyz
x,y,z
-x,-y,z
x,-y,-z
-x,y,-z
-x,-y,-z
x,y,-z
-x,y,z
x,-y,z
1/2+x,1/2+y,1/2+z
1/2-x,1/2-y,1/2+z
1/2+x,1/2-y,1/2-z
1/2-x,1/2+y,1/2-z
1/2-x,1/2-y,1/2-z
1/2+x,1/2+y,1/2-z
1/2-x,1/2+y,1/2+z
1/2+x,1/2-y,1/2+z
loop_
_atom_site_type_symbol
_atom_site_label
_atom_site_fract_x
_atom_site_fract_y
_atom_site_fract_z
Si Si1 0.678958 0.873685 0.123823
Si Si2 0.321464 0.740120 0.684373
Si Si3 0.318943 0.067352 0.000000
Si Si4 0.824481 0.855017 0.340475
Si Si5 0.829700 0.567822 0.067954
Si Si6 0.324079 0.434301 0.271058
O O1 0.500000 0.861897 0.122440
O O2 0.760126 0.814458 0.146017
O O3 0.719127 0.924986 0.170780
O O4 0.737539 0.896157 0.058573
O O5 0.500000 0.731412 0.692491
O O6 0.250000 0.750000 0.750000
O O7 0.280883 0.798613 0.647520
O O8 0.500000 0.063514 0.000000
O O9 0.254389 0.000000 0.000000
O O10 0.798781 0.898637 0.395315
O O11 0.775515 0.887342 0.279065
O O12 0.000000 0.835868 0.338183
O O13 0.787853 0.500000 0.071111
O O14 0.000000 0.578826 0.094054
O O15 0.822486 0.590655 0.000000
O O16 0.500000 0.425289 0.289129
O O17 0.295956 0.500000 0.246285
#
# Coordination Sequence:
#
# PCOD8291655 Si02
#       6
#    16  16   8  16  16  16
#     4  11  22  39  64  91 121 162 205 251 306 365
#     4  12  24  41  63  88 119 157 198 247 302 364
#     4   9  20  40  65  95 129 163 206 257 306 365
#     4  11  22  37  59  87 119 157 199 248 302 360
#     4   9  19  37  59  84 118 158 199 244 295 353
#     4  10  21  36  56  86 123 157 193 245 302 358
#
# _framework density 19.805859999999999
#
# number of rings (size 3 to 8) (size 9 to 14) (size 15 to 20)
#    0.000    1.545    1.818    4.364    0.000    3.273 
#    1.636    2.727    0.000    3.273    0.000    0.000 
#    0.000    0.000    0.000    0.000    0.000    0.000 
#
# Total GULP energy -545596.538418 kJ/mol
# GULP energy per Si atom -12399.921328 kJ/mol
# Density = 1.976078 g / cm^3
# Si number density = 19.805860 Si / 1000 Ang^3
#
#
#
# Elastic Constant Matrix: (Units=GPa)
#
#
# Indices 1 2 3 4 5 6 
#
# 1 83.8113 49.1315 42.5278 0.0000 0.0000 0.0000
# 2 49.1315 125.9539 63.4013 0.0000 0.0000 0.0000
# 3 42.5278 63.4013 116.8171 0.0000 0.0000 0.0000
# 4 0.0000 0.0000 0.0000 29.2935 0.0000 0.0000
# 5 0.0000 0.0000 0.0000 0.0000 29.5020 0.0000
# 6 0.0000 0.0000 0.0000 0.0000 0.0000 34.6551
#
#
#
# Elastic Compliance Matrix: (Units=1/GPa)
#
#
# Indices 1 2 3 4 5 6 
#
# 1 0.016416 -0.004671 -0.003441 0.000000 0.000000 0.000000
# 2 -0.004671 0.012253 -0.004950 0.000000 0.000000 0.000000
# 3 -0.003441 -0.004950 0.012499 0.000000 0.000000 0.000000
# 4 0.000000 0.000000 0.000000 0.034137 0.000000 0.000000
# 5 0.000000 0.000000 0.000000 0.000000 0.033896 0.000000
# 6 0.000000 0.000000 0.000000 0.000000 0.000000 0.028856
#
#
# Mechanical properties :
#
#
# Convention : Reuss Voigt Hill
#
# Bulk Modulus (GPa) = 66.46897 70.74484 68.60691
# Shear Modulus (GPa) = 29.55145 30.12490 29.83818
#
# Velocity S-wave (km/s) = 3.86690 3.90424 3.88562
# Velocity P-wave (km/s) = 7.31918 7.49138 7.40578
#
# Compressibility (1/GPa) = 0.01504461
#
# Stress axis : x y z
#
# Youngs Moduli (GPa) = 60.91596 81.61202 80.00362
#
# Poissons Ratio (x) = 0.38124 0.27529
# Poissons Ratio (y) = 0.28456 0.39599
# Poissons Ratio (z) = 0.20961 0.40395
#
# Static dielectric constant tensor:
#      x y z
#    x 3.583570 0.000000 0.000000 
#    y 0.000000 3.827570 0.000000 
#    z 0.000000 0.000000 3.647200 
# 
# 
# High freq. dielectric constant tensor:
#      x y z
#    x 1.764520 0.000000 0.000000 
#    y 0.000000 1.784950 0.000000 
#    z 0.000000 0.000000 1.766320 
# 
# From -- ./inp_files/12537.got.cif
#   From: 2010.06.25/outbox.cif.g09.slc.cpg/sg71_7_cif.got.tgz:12537.got - 2010.06.28 04:59:45.
