data_PCOD8291357
_publ_section_title
;
Structure prediction by ZEFSAII (Michael W. Deem and Ramdas Pophale) SiO2 
 PCOD8291357
Probable space group: I M M M
;
_chemical_formula_sum "Si O2"
_cell_formula_units_Z 88
_cell_length_a 9.402480
_cell_length_b 22.755931
_cell_length_c 21.098053
_cell_angle_alpha 90.000000
_cell_angle_beta 90.000000
_cell_angle_gamma 90.000000
_cell_volume 4514.185543
_symmetry_space_group_name_H-M "I M M M"
_symmetry_group_IT_number 71
_symmetry_cell_setting 'orthorhombic'
loop_
_space_group_symop_operation_xyz
x,y,z
-x,-y,z
x,-y,-z
-x,y,-z
-x,-y,-z
x,y,-z
-x,y,z
x,-y,z
1/2+x,1/2+y,1/2+z
1/2-x,1/2-y,1/2+z
1/2+x,1/2-y,1/2-z
1/2-x,1/2+y,1/2-z
1/2-x,1/2-y,1/2-z
1/2+x,1/2+y,1/2-z
1/2-x,1/2+y,1/2+z
1/2+x,1/2-y,1/2+z
loop_
_atom_site_type_symbol
_atom_site_label
_atom_site_fract_x
_atom_site_fract_y
_atom_site_fract_z
Si Si1 0.655382 0.431856 0.500000
Si Si2 0.164106 0.248625 0.426001
Si Si3 0.346002 0.563352 0.926730
Si Si4 0.332620 0.148958 0.639171
Si Si5 0.663345 0.882282 0.888845
Si Si6 0.331813 0.932712 0.245948
O O1 0.630943 0.500000 0.500000
O O2 0.500000 0.400558 0.500000
O O3 0.740738 0.415798 0.562037
O O4 0.216166 0.244828 0.500000
O O5 0.254681 0.210171 0.376116
O O6 0.184102 0.313314 0.398469
O O7 0.000000 0.228927 0.423185
O O8 0.500000 0.587031 0.900624
O O9 0.312310 0.500000 0.894822
O O10 0.213671 0.606537 0.917608
O O11 0.362714 0.554035 0.000000
O O12 0.500000 0.160543 0.641042
O O13 0.275270 0.113720 0.701285
O O14 0.500000 0.900158 0.900464
O O15 0.715025 0.903801 0.820169
O O16 0.500000 0.935712 0.252246
O O17 0.271521 0.000000 0.252746
#
# Coordination Sequence:
#
# PCOD8291357 Si02
#       6
#     8  16  16  16  16  16
#     4  11  23  37  57  91 129 153 176 231 302 351
#     4  10  21  38  58  83 114 147 193 249 289 330
#     4   9  18  33  52  74 102 140 189 243 293 339
#     4  11  22  34  52  81 115 153 191 229 285 347
#     4  10  20  39  65  87 108 150 203 240 279 340
#     4   9  19  36  58  85 116 147 188 244 290 334
#
# _framework density 19.494102999999999
#
# number of rings (size 3 to 8) (size 9 to 14) (size 15 to 20)
#    0.000    2.091    0.909    3.000    0.000    6.909 
#    0.000    2.727    0.000    4.364    0.000    0.000 
#    0.000    0.000    0.000    0.000    0.000    0.000 
#
# Total GULP energy -545110.697567 kJ/mol
# GULP energy per Si atom -12388.879490 kJ/mol
# Density = 1.944973 g / cm^3
# Si number density = 19.494103 Si / 1000 Ang^3
#
#
#
# Elastic Constant Matrix: (Units=GPa)
#
#
# Indices 1 2 3 4 5 6 
#
# 1 73.7162 46.6501 45.2115 0.0000 0.0000 0.0000
# 2 46.6501 109.1830 58.6848 0.0000 0.0000 0.0000
# 3 45.2115 58.6848 114.8945 0.0000 0.0000 0.0000
# 4 0.0000 0.0000 0.0000 41.6438 0.0000 0.0000
# 5 0.0000 0.0000 0.0000 0.0000 16.1196 0.0000
# 6 0.0000 0.0000 0.0000 0.0000 0.0000 25.6000
#
#
#
# Elastic Compliance Matrix: (Units=1/GPa)
#
#
# Indices 1 2 3 4 5 6 
#
# 1 0.020442 -0.006080 -0.004939 0.000000 0.000000 0.000000
# 2 -0.006080 0.014433 -0.004980 0.000000 0.000000 0.000000
# 3 -0.004939 -0.004980 0.013190 0.000000 0.000000 0.000000
# 4 0.000000 0.000000 0.000000 0.024013 0.000000 0.000000
# 5 0.000000 0.000000 0.000000 0.000000 0.062036 0.000000
# 6 0.000000 0.000000 0.000000 0.000000 0.000000 0.039062
#
#
# Mechanical properties :
#
#
# Convention : Reuss Voigt Hill
#
# Bulk Modulus (GPa) = 62.22943 66.54295 64.38619
# Shear Modulus (GPa) = 23.74960 26.48918 25.11939
#
# Velocity S-wave (km/s) = 3.49420 3.69023 3.59355
# Velocity P-wave (km/s) = 6.94771 7.23644 7.09355
#
# Compressibility (1/GPa) = 0.01606957
#
# Stress axis : x y z
#
# Youngs Moduli (GPa) = 48.91906 69.28546 75.81221
#
# Poissons Ratio (x) = 0.42123 0.37441
# Poissons Ratio (y) = 0.29741 0.37752
# Poissons Ratio (z) = 0.24160 0.34502
#
# Static dielectric constant tensor:
#      x y z
#    x 3.506400 0.000000 0.000000 
#    y 0.000000 3.716050 0.000000 
#    z 0.000000 0.000000 3.651880 
# 
# 
# High freq. dielectric constant tensor:
#      x y z
#    x 1.739640 0.000000 0.000000 
#    y 0.000000 1.772150 0.000000 
#    z 0.000000 0.000000 1.755500 
# 
# From -- ./inp_files/50533.got.cif
#   From: 2010.06.25/outbox.cif.g09.slc.cpg/sg71_26_cif.got.tgz:50533.got - 2010.06.28 04:59:45.
