data_PCOD8291696
_publ_section_title
;
Structure prediction by ZEFSAII (Michael W. Deem and Ramdas Pophale) SiO2 
 PCOD8291696
Probable space group: I M M M
;
_chemical_formula_sum "Si O2"
_cell_formula_units_Z 80
_cell_length_a 20.217745
_cell_length_b 9.287202
_cell_length_c 24.584434
_cell_angle_alpha 90.000000
_cell_angle_beta 90.000000
_cell_angle_gamma 90.000000
_cell_volume 4616.127762
_symmetry_space_group_name_H-M "I M M M"
_symmetry_group_IT_number 71
_symmetry_cell_setting 'orthorhombic'
loop_
_space_group_symop_operation_xyz
x,y,z
-x,-y,z
x,-y,-z
-x,y,-z
-x,-y,-z
x,y,-z
-x,y,z
x,-y,z
1/2+x,1/2+y,1/2+z
1/2-x,1/2-y,1/2+z
1/2+x,1/2-y,1/2-z
1/2-x,1/2+y,1/2-z
1/2-x,1/2-y,1/2-z
1/2+x,1/2+y,1/2-z
1/2-x,1/2+y,1/2+z
1/2+x,1/2-y,1/2+z
loop_
_atom_site_type_symbol
_atom_site_label
_atom_site_fract_x
_atom_site_fract_y
_atom_site_fract_z
Si Si1 0.810717 0.168794 0.777539
Si Si2 0.618562 0.165557 0.896839
Si Si3 0.075140 0.335085 0.278803
Si Si4 0.228727 0.835413 0.897105
Si Si5 0.616573 0.662831 0.000000
Si Si6 0.274166 0.162716 0.500000
O O1 0.750000 0.250000 0.750000
O O2 0.879929 0.228556 0.755954
O O3 0.811131 0.196591 0.842105
O O4 0.804168 0.000000 0.764163
O O5 0.578909 0.204788 0.842456
O O6 0.695013 0.202622 0.885608
O O7 0.589043 0.259818 0.946045
O O8 0.609202 0.000000 0.913401
O O9 0.099264 0.500000 0.270577
O O10 0.000000 0.315130 0.259008
O O11 0.198533 0.739250 0.945633
O O12 0.221440 0.000000 0.915564
O O13 0.695413 0.673762 0.000000
O O14 0.590996 0.500000 0.000000
O O15 0.299907 0.000000 0.500000
#
# Coordination Sequence:
#
# PCOD8291696 Si02
#       6
#    16  16  16  16   8   8
#     4  11  21  34  54  79 106 136 175 216 259 308
#     4   9  16  30  48  67  94 132 172 208 252 304
#     4  10  21  37  54  74 103 138 176 217 261 309
#     4   9  17  30  48  71 100 134 167 204 251 306
#     4   9  17  27  42  68  95 125 167 214 257 294
#     4   9  17  27  43  72 103 128 160 206 254 300
#
# _framework density 17.330542999999999
#
# number of rings (size 3 to 8) (size 9 to 14) (size 15 to 20)
#    0.000    2.400    2.000    1.200    0.000    5.200 
#    0.000    0.500    0.000    3.000    0.000    0.700 
#    0.000    5.600    0.000    0.000    0.000    0.000 
#
# Total GULP energy -496042.925314 kJ/mol
# GULP energy per Si atom -12401.073133 kJ/mol
# Density = 1.729110 g / cm^3
# Si number density = 17.330543 Si / 1000 Ang^3
#
#
#
# Elastic Constant Matrix: (Units=GPa)
#
#
# Indices 1 2 3 4 5 6 
#
# 1 56.7712 39.3062 38.9461 0.0000 0.0000 0.0000
# 2 39.3062 115.7113 74.5450 0.0000 0.0000 0.0000
# 3 38.9461 74.5450 110.7239 0.0000 0.0000 0.0000
# 4 0.0000 0.0000 0.0000 35.7462 0.0000 0.0000
# 5 0.0000 0.0000 0.0000 0.0000 15.1974 0.0000
# 6 0.0000 0.0000 0.0000 0.0000 0.0000 19.2248
#
#
#
# Elastic Compliance Matrix: (Units=1/GPa)
#
#
# Indices 1 2 3 4 5 6 
#
# 1 0.024716 -0.004936 -0.005371 0.000000 0.000000 0.000000
# 2 -0.004936 0.016247 -0.009202 0.000000 0.000000 0.000000
# 3 -0.005371 -0.009202 0.017116 0.000000 0.000000 0.000000
# 4 0.000000 0.000000 0.000000 0.027975 0.000000 0.000000
# 5 0.000000 0.000000 0.000000 0.000000 0.065801 0.000000
# 6 0.000000 0.000000 0.000000 0.000000 0.000000 0.052016
#
#
# Mechanical properties :
#
#
# Convention : Reuss Voigt Hill
#
# Bulk Modulus (GPa) = 52.46081 65.42233 58.94157
# Shear Modulus (GPa) = 20.06069 22.72762 21.39415
#
# Velocity S-wave (km/s) = 3.40595 3.62528 3.51732
# Velocity P-wave (km/s) = 6.76785 7.44011 7.11193
#
# Compressibility (1/GPa) = 0.01906185
#
# Stress axis : x y z
#
# Youngs Moduli (GPa) = 40.45894 61.54828 58.42485
#
# Poissons Ratio (x) = 0.30381 0.31377
# Poissons Ratio (y) = 0.19971 0.53765
# Poissons Ratio (z) = 0.21729 0.56639
#
# Static dielectric constant tensor:
#      x y z
#    x 2.833380 0.000000 0.000000 
#    y 0.000000 3.304150 0.000000 
#    z 0.000000 0.000000 3.334290 
# 
# 
# High freq. dielectric constant tensor:
#      x y z
#    x 1.622030 0.000000 0.000000 
#    y 0.000000 1.673990 0.000000 
#    z 0.000000 0.000000 1.674910 
# 
# From -- ./inp_files/10231.got.cif
#   From: 2010.06.25/outbox.cif.g09.slc.cpg/sg71_6_cif.got.tgz:10231.got - 2010.06.28 04:59:45.
