data_PCOD8291967
_publ_section_title
;
Structure prediction by ZEFSAII (Michael W. Deem and Ramdas Pophale) SiO2 
 PCOD8291967
Probable space group: I M M M
;
_chemical_formula_sum "Si O2"
_cell_formula_units_Z 80
_cell_length_a 13.832643
_cell_length_b 11.722886
_cell_length_c 24.316009
_cell_angle_alpha 90.000000
_cell_angle_beta 90.000000
_cell_angle_gamma 90.000000
_cell_volume 3943.047472
_symmetry_space_group_name_H-M "I M M M"
_symmetry_group_IT_number 71
_symmetry_cell_setting 'orthorhombic'
loop_
_space_group_symop_operation_xyz
x,y,z
-x,-y,z
x,-y,-z
-x,y,-z
-x,-y,-z
x,y,-z
-x,y,z
x,-y,z
1/2+x,1/2+y,1/2+z
1/2-x,1/2-y,1/2+z
1/2+x,1/2-y,1/2-z
1/2-x,1/2+y,1/2-z
1/2-x,1/2-y,1/2-z
1/2+x,1/2+y,1/2-z
1/2-x,1/2+y,1/2+z
1/2+x,1/2-y,1/2+z
loop_
_atom_site_type_symbol
_atom_site_label
_atom_site_fract_x
_atom_site_fract_y
_atom_site_fract_z
Si Si1 0.387867 0.633604 0.646330
Si Si2 0.221870 0.280970 0.062745
Si Si3 0.387686 0.634409 0.134954
Si Si4 0.885059 0.500000 0.777570
Si Si5 0.385714 0.000000 0.597696
Si Si6 0.614048 0.243787 0.244152
O O1 0.500000 0.666222 0.636153
O O2 0.374475 0.500000 0.653697
O O3 0.324385 0.675207 0.595191
O O4 0.347308 0.694013 0.701259
O O5 0.328297 0.313587 0.084429
O O6 0.151427 0.388844 0.066701
O O7 0.232906 0.242350 0.000000
O O8 0.500000 0.663531 0.125068
O O9 0.370732 0.500000 0.139670
O O10 0.346162 0.692323 0.190483
O O11 0.844656 0.500000 0.839879
O O12 0.849494 0.387486 0.745071
O O13 0.000000 0.500000 0.781466
O O14 0.500000 0.000000 0.596237
O O15 0.500000 0.252267 0.243599
#
# Coordination Sequence:
#
# PCOD8291967 Si02
#       6
#    16  16  16   8   8  16
#     4  10  21  39  63  91 124 159 193 238 298 362
#     4  12  25  40  59  87 119 157 208 251 290 352
#     4  10  22  41  63  87 119 157 198 251 306 351
#     4   9  16  31  58  90 125 154 183 234 294 356
#     4  11  21  38  60  88 124 157 189 237 298 358
#     4   9  17  34  60  90 122 154 191 240 298 361
#
# _framework density 20.288876999999999
#
# number of rings (size 3 to 8) (size 9 to 14) (size 15 to 20)
#    0.000    1.800    3.000    1.500    0.000    6.000 
#    1.800    2.000    0.000    0.000    0.000    1.400 
#    0.000    0.000    0.000    0.000    0.000    0.000 
#
# Total GULP energy -496091.053762 kJ/mol
# GULP energy per Si atom -12402.276344 kJ/mol
# Density = 2.024270 g / cm^3
# Si number density = 20.288877 Si / 1000 Ang^3
#
#
#
# Elastic Constant Matrix: (Units=GPa)
#
#
# Indices 1 2 3 4 5 6 
#
# 1 80.2744 29.2054 36.9444 0.0000 0.0000 0.0000
# 2 29.2054 100.6841 27.7198 0.0000 0.0000 0.0000
# 3 36.9444 27.7198 110.0425 0.0000 0.0000 0.0000
# 4 0.0000 0.0000 0.0000 -31.4163 0.0000 0.0000
# 5 0.0000 0.0000 0.0000 0.0000 27.5334 0.0000
# 6 0.0000 0.0000 0.0000 0.0000 0.0000 23.7690
#
#
#
# Elastic Compliance Matrix: (Units=1/GPa)
#
#
# Indices 1 2 3 4 5 6 
#
# 1 0.015712 -0.003337 -0.004434 0.000000 0.000000 0.000000
# 2 -0.003337 0.011381 -0.001747 0.000000 0.000000 0.000000
# 3 -0.004434 -0.001747 0.011016 0.000000 0.000000 0.000000
# 4 0.000000 0.000000 0.000000 -0.031831 0.000000 0.000000
# 5 0.000000 0.000000 0.000000 0.000000 0.036320 0.000000
# 6 0.000000 0.000000 0.000000 0.000000 0.000000 0.042072
#
#
# Mechanical properties :
#
#
# Convention : Reuss Voigt Hill
#
# Bulk Modulus (GPa) = 52.42890 53.19334 52.81112
# Shear Modulus (GPa) = 45.42854 17.11932 31.27393
#
# Velocity S-wave (km/s) = 4.73703 2.90794 3.93037
# Velocity P-wave (km/s) = 7.47105 6.12778 6.83251
#
# Compressibility (1/GPa) = 0.01907345
#
# Stress axis : x y z
#
# Youngs Moduli (GPa) = 63.64525 87.86729 90.77585
#
# Poissons Ratio (x) = 0.29319 0.40254
# Poissons Ratio (y) = 0.21237 0.15855
# Poissons Ratio (z) = 0.28223 0.15347
#
# Static dielectric constant tensor:
#      x y z
#    x 3.616540 0.000000 0.000000 
#    y 0.000000 3.766110 0.000000 
#    z 0.000000 0.000000 3.618650 
# 
# 
# High freq. dielectric constant tensor:
#      x y z
#    x 1.797440 0.000000 0.000000 
#    y 0.000000 1.794260 0.000000 
#    z 0.000000 0.000000 1.777070 
# 
# From -- ./inp_files/32684.got.cif
#   From: 2010.06.25/outbox.cif.g09.slc.cpg/sg71_17_cif.got.tgz:32684.got - 2010.06.28 04:59:45.
