data_PCOD8291234
_publ_section_title
;
Structure prediction by ZEFSAII (Michael W. Deem and Ramdas Pophale) SiO2 
 PCOD8291234
Probable space group: I M M M
;
_chemical_formula_sum "Si O2"
_cell_formula_units_Z 88
_cell_length_a 18.329159
_cell_length_b 22.130859
_cell_length_c 11.584624
_cell_angle_alpha 90.000000
_cell_angle_beta 90.000000
_cell_angle_gamma 90.000000
_cell_volume 4699.187266
_symmetry_space_group_name_H-M "I M M M"
_symmetry_group_IT_number 71
_symmetry_cell_setting 'orthorhombic'
loop_
_space_group_symop_operation_xyz
x,y,z
-x,-y,z
x,-y,-z
-x,y,-z
-x,-y,-z
x,y,-z
-x,y,z
x,-y,z
1/2+x,1/2+y,1/2+z
1/2-x,1/2-y,1/2+z
1/2+x,1/2-y,1/2-z
1/2-x,1/2+y,1/2-z
1/2-x,1/2-y,1/2-z
1/2+x,1/2+y,1/2-z
1/2-x,1/2+y,1/2+z
1/2+x,1/2-y,1/2+z
loop_
_atom_site_type_symbol
_atom_site_label
_atom_site_fract_x
_atom_site_fract_y
_atom_site_fract_z
Si Si1 0.083215 0.677432 0.000000
Si Si2 0.190902 0.432498 0.000000
Si Si3 0.171413 0.614845 0.363753
Si Si4 0.793284 0.069631 0.717668
Si Si5 0.918238 0.500000 0.637356
Si Si6 0.415684 0.220649 0.748945
Si Si7 0.584296 0.346496 0.866218
O O1 0.100781 0.718037 0.112188
O O2 0.126519 0.615222 0.000000
O O3 0.000000 0.656746 0.000000
O O4 0.240646 0.422025 0.110045
O O5 0.157307 0.500000 0.000000
O O6 0.169782 0.618858 0.500000
O O7 0.254777 0.604517 0.323925
O O8 0.123387 0.558877 0.315936
O O9 0.137662 0.675538 0.314189
O O10 0.871079 0.098680 0.689205
O O11 0.806950 0.000000 0.749883
O O12 0.919417 0.500000 0.500000
O O13 0.000000 0.500000 0.687757
O O14 0.500000 0.204275 0.776828
O O15 0.396344 0.286721 0.794698
O O16 0.500000 0.363988 0.853260
O O17 0.605067 0.336138 0.000000
#
# Coordination Sequence:
#
# PCOD8291234 Si02
#       7
#     8   8  16  16   8  16  16
#     4  10  20  37  58  85 122 162 198 231 277 351
#     4  10  20  37  57  82 116 156 194 237 291 341
#     4  11  21  35  56  85 119 158 198 234 284 340
#     4  11  22  39  61  85 118 153 189 244 296 349
#     4   9  18  32  52  79 114 155 196 233 269 324
#     4  10  21  38  59  85 120 156 194 242 290 346
#     4  10  22  41  64  89 113 144 191 247 305 358
#
# _framework density 18.726641999999998
#
# number of rings (size 3 to 8) (size 9 to 14) (size 15 to 20)
#    0.000    1.727    3.636    1.091    0.000    3.091 
#    1.636    0.909    0.000    0.000    0.000    1.273 
#    0.000    0.000    0.000    0.000    0.000    0.000 
#
# Total GULP energy -545719.116999 kJ/mol
# GULP energy per Si atom -12402.707205 kJ/mol
# Density = 1.868402 g / cm^3
# Si number density = 18.726642 Si / 1000 Ang^3
#
#
#
# Elastic Constant Matrix: (Units=GPa)
#
#
# Indices 1 2 3 4 5 6 
#
# 1 93.8030 65.1342 46.1205 0.0000 0.0000 0.0000
# 2 65.1342 109.1038 49.6002 0.0000 0.0000 0.0000
# 3 46.1205 49.6002 97.1904 0.0000 0.0000 0.0000
# 4 0.0000 0.0000 0.0000 53.6744 0.0000 0.0000
# 5 0.0000 0.0000 0.0000 0.0000 69.8742 0.0000
# 6 0.0000 0.0000 0.0000 0.0000 0.0000 36.9710
#
#
#
# Elastic Compliance Matrix: (Units=1/GPa)
#
#
# Indices 1 2 3 4 5 6 
#
# 1 0.019506 -0.009683 -0.004314 0.000000 0.000000 0.000000
# 2 -0.009683 0.016742 -0.003949 0.000000 0.000000 0.000000
# 3 -0.004314 -0.003949 0.014352 0.000000 0.000000 0.000000
# 4 0.000000 0.000000 0.000000 0.018631 0.000000 0.000000
# 5 0.000000 0.000000 0.000000 0.000000 0.014311 0.000000
# 6 0.000000 0.000000 0.000000 0.000000 0.000000 0.027048
#
#
# Mechanical properties :
#
#
# Convention : Reuss Voigt Hill
#
# Bulk Modulus (GPa) = 67.99995 69.08968 68.54481
# Shear Modulus (GPa) = 33.02835 41.38674 37.20754
#
# Velocity S-wave (km/s) = 4.20421 4.70621 4.46228
# Velocity P-wave (km/s) = 7.74325 8.15507 7.95182
#
# Compressibility (1/GPa) = 0.01470589
#
# Stress axis : x y z
#
# Youngs Moduli (GPa) = 51.26667 59.73098 69.67836
#
# Poissons Ratio (x) = 0.57840 0.30062
# Poissons Ratio (y) = 0.49644 0.27515
# Poissons Ratio (z) = 0.22118 0.23587
#
# Static dielectric constant tensor:
#      x y z
#    x 3.403270 0.000000 0.000000 
#    y 0.000000 3.405140 0.000000 
#    z 0.000000 0.000000 3.800800 
# 
# 
# High freq. dielectric constant tensor:
#      x y z
#    x 1.720470 0.000000 0.000000 
#    y 0.000000 1.724750 0.000000 
#    z 0.000000 0.000000 1.731410 
# 
# From -- ./inp_files/24006.got.cif
#   From: 2010.06.25/outbox.cif.g09.slc.cpg/sg71_13_cif.got.tgz:24006.got - 2010.06.28 04:59:45.
