data_PCOD8291859
_publ_section_title
;
Structure prediction by ZEFSAII (Michael W. Deem and Ramdas Pophale) SiO2 
 PCOD8291859
Probable space group: I M M M
;
_chemical_formula_sum "Si O2"
_cell_formula_units_Z 64
_cell_length_a 11.087292
_cell_length_b 35.116399
_cell_length_c 8.697585
_cell_angle_alpha 90.000000
_cell_angle_beta 90.000000
_cell_angle_gamma 90.000000
_cell_volume 3386.367926
_symmetry_space_group_name_H-M "I M M M"
_symmetry_group_IT_number 71
_symmetry_cell_setting 'orthorhombic'
loop_
_space_group_symop_operation_xyz
x,y,z
-x,-y,z
x,-y,-z
-x,y,-z
-x,-y,-z
x,y,-z
-x,y,z
x,-y,z
1/2+x,1/2+y,1/2+z
1/2-x,1/2-y,1/2+z
1/2+x,1/2-y,1/2-z
1/2-x,1/2+y,1/2-z
1/2-x,1/2-y,1/2-z
1/2+x,1/2+y,1/2-z
1/2-x,1/2+y,1/2+z
1/2+x,1/2-y,1/2+z
loop_
_atom_site_type_symbol
_atom_site_label
_atom_site_fract_x
_atom_site_fract_y
_atom_site_fract_z
Si Si1 0.362227 0.853439 0.825304
Si Si2 0.000000 0.957912 0.319030
Si Si3 0.639929 0.000000 0.830133
Si Si4 0.637686 0.773208 0.319388
Si Si5 0.748523 0.926767 0.318807
O O1 0.500000 0.866488 0.813717
O O2 0.337186 0.816970 0.720345
O O3 0.284175 0.888276 0.766661
O O4 0.326541 0.843273 0.000000
O O5 0.115107 0.934227 0.266858
O O6 0.000000 0.963658 0.500000
O O7 0.000000 0.000000 0.242226
O O8 0.671059 0.037388 0.733933
O O9 0.500000 0.000000 0.856292
O O10 0.702165 0.000000 0.000000
O O11 0.642026 0.767336 0.500000
O O12 0.500000 0.761857 0.260566
O O13 0.750000 0.750000 0.250000
O O14 0.731478 0.921338 0.500000
#
# Coordination Sequence:
#
# PCOD8291859 Si02
#       5
#    16   8   8  16  16
#     4  10  21  38  59  84 117 152 186 232 287 338
#     4   9  18  36  56  76 106 144 184 232 284 332
#     4  11  23  36  51  76 110 143 178 227 284 337
#     4  10  21  39  64  93 123 157 198 241 289 350
#     4  11  21  36  58  80 106 143 189 234 280 337
#
# _framework density 18.899304000000001
#
# number of rings (size 3 to 8) (size 9 to 14) (size 15 to 20)
#    0.000    1.750    1.250    3.375    0.000    7.000 
#    2.250    3.125    0.000    0.000    0.000    0.000 
#    0.000    0.000    0.000    0.000    0.000    0.000 
#
# Total GULP energy -396687.058371 kJ/mol
# GULP energy per Si atom -12396.470574 kJ/mol
# Density = 1.885629 g / cm^3
# Si number density = 18.899304 Si / 1000 Ang^3
#
#
#
# Elastic Constant Matrix: (Units=GPa)
#
#
# Indices 1 2 3 4 5 6 
#
# 1 132.3737 73.0312 38.5736 0.0014 -0.0011 0.0021
# 2 73.0312 114.7367 23.4989 -0.0010 -0.0015 0.0089
# 3 38.5736 23.4989 60.9717 -0.0084 0.0070 -0.0787
# 4 0.0014 -0.0010 -0.0084 47.0989 -0.0024 0.0228
# 5 -0.0011 -0.0015 0.0070 -0.0024 25.7063 -0.0238
# 6 0.0021 0.0089 -0.0787 0.0228 -0.0238 127.2677
#
#
#
# Elastic Compliance Matrix: (Units=1/GPa)
#
#
# Indices 1 2 3 4 5 6 
#
# 1 0.013165 -0.007246 -0.005536 -0.000002 0.000002 -0.000003
# 2 -0.007246 0.013451 -0.000600 0.000000 0.000001 -0.000001
# 3 -0.005536 -0.000600 0.020135 0.000004 -0.000006 0.000013
# 4 -0.000002 0.000000 0.000004 0.021232 0.000002 -0.000004
# 5 0.000002 0.000001 -0.000006 0.000002 0.038901 0.000007
# 6 -0.000003 -0.000001 0.000013 -0.000004 0.000007 0.007857
#
#
# Mechanical properties :
#
#
# Convention : Reuss Voigt Hill
#
# Bulk Modulus (GPa) = 50.03398 64.25441 57.14419
# Shear Modulus (GPa) = 33.74560 51.54647 42.64604
#
# Velocity S-wave (km/s) = 4.23016 5.22814 4.75540
# Velocity P-wave (km/s) = 7.09862 8.39742 7.77519
#
# Compressibility (1/GPa) = 0.01998642
#
# Stress axis : x y z
#
# Youngs Moduli (GPa) = 75.95721 74.34615 49.66527
#
# Poissons Ratio (x) = 0.53871 0.27496
# Poissons Ratio (y) = 0.55038 0.02979
# Poissons Ratio (z) = 0.42053 0.04459
#
# Static dielectric constant tensor:
#      x y z
#    x 3.659470 0.000060 0.000010 
#    y 0.000060 2.914680 0.000000 
#    z 0.000010 0.000000 3.563420 
# 
# 
# High freq. dielectric constant tensor:
#      x y z
#    x 1.739790 0.000000 0.000000 
#    y 0.000000 1.733470 0.000000 
#    z 0.000000 0.000000 1.739800 
# 
# From -- ./inp_files/3761.got.cif
#   From: 2010.06.25/outbox.cif.g09.slc.cpg/sg71_2_cif.got.tgz:3761.got - 2010.06.28 04:59:45.
