data_PCOD8291780
_publ_section_title
;
Structure prediction by ZEFSAII (Michael W. Deem and Ramdas Pophale) SiO2 
 PCOD8291780
Probable space group: I M M M
;
_chemical_formula_sum "Si O2"
_cell_formula_units_Z 104
_cell_length_a 29.680830
_cell_length_b 8.684354
_cell_length_c 19.541504
_cell_angle_alpha 90.000000
_cell_angle_beta 90.000000
_cell_angle_gamma 90.000000
_cell_volume 5036.995300
_symmetry_space_group_name_H-M "I M M M"
_symmetry_group_IT_number 71
_symmetry_cell_setting 'orthorhombic'
loop_
_space_group_symop_operation_xyz
x,y,z
-x,-y,z
x,-y,-z
-x,y,-z
-x,-y,-z
x,y,-z
-x,y,z
x,-y,z
1/2+x,1/2+y,1/2+z
1/2-x,1/2-y,1/2+z
1/2+x,1/2-y,1/2-z
1/2-x,1/2+y,1/2-z
1/2-x,1/2-y,1/2-z
1/2+x,1/2+y,1/2-z
1/2-x,1/2+y,1/2+z
1/2+x,1/2-y,1/2+z
loop_
_atom_site_type_symbol
_atom_site_label
_atom_site_fract_x
_atom_site_fract_y
_atom_site_fract_z
Si Si1 0.666127 0.174630 0.923360
Si Si2 0.500000 0.815497 0.922593
Si Si3 0.083404 0.320227 0.340818
Si Si4 0.791713 0.820943 0.207042
Si Si5 0.551113 0.681873 0.421779
Si Si6 0.759662 0.676009 0.923260
Si Si7 0.887910 0.679057 0.195724
O O1 0.629822 0.245328 0.871362
O O2 0.706987 0.291908 0.917740
O O3 0.681374 0.000000 0.903429
O O4 0.645970 0.174155 0.000000
O O5 0.542271 0.744765 0.881738
O O6 0.500000 0.000000 0.920959
O O7 0.500000 0.753725 0.000000
O O8 0.083962 0.500000 0.357359
O O9 0.078629 0.290238 0.259670
O O10 0.750000 0.750000 0.250000
O O11 0.785513 0.791306 0.126432
O O12 0.840600 0.749504 0.221613
O O13 0.792963 0.000000 0.223680
O O14 0.562089 0.731981 0.500000
O O15 0.500000 0.737085 0.403046
O O16 0.553830 0.500000 0.414853
O O17 0.588946 0.751790 0.371822
O O18 0.768759 0.500000 0.901552
O O19 0.777279 0.707599 0.000000
O O20 0.879922 0.500000 0.181770
#
# Coordination Sequence:
#
# PCOD8291780 Si02
#       7
#    16   8  16  16  16  16  16
#     4   9  16  29  51  78 109 149 196 240 284 337
#     4   9  16  28  48  76 112 151 186 222 267 315
#     4   9  18  30  47  76 113 148 185 231 279 331
#     4  12  25  42  63  86 119 160 204 252 307 368
#     4   9  20  41  66  89 117 156 204 258 316 380
#     4  10  21  37  58  85 115 149 192 242 295 352
#     4  11  23  37  58  89 123 157 196 244 304 368
#
# _framework density 20.647231999999999
#
# number of rings (size 3 to 8) (size 9 to 14) (size 15 to 20)
#    0.000    2.077    0.000    4.154    1.077    5.231 
#    0.000    1.538    0.000    0.000    0.000    0.000 
#    0.000    5.538    0.000    0.000    0.000    0.000 
#
# Total GULP energy -644531.788019 kJ/mol
# GULP energy per Si atom -12394.842077 kJ/mol
# Density = 2.060024 g / cm^3
# Si number density = 20.647232 Si / 1000 Ang^3
#
#
#
# Elastic Constant Matrix: (Units=GPa)
#
#
# Indices 1 2 3 4 5 6 
#
# 1 99.6639 30.1304 51.8499 0.0000 0.0000 0.0000
# 2 30.1304 70.0201 35.4855 0.0000 0.0000 0.0000
# 3 51.8499 35.4855 115.3070 0.0000 0.0000 0.0000
# 4 0.0000 0.0000 0.0000 26.5127 0.0000 0.0000
# 5 0.0000 0.0000 0.0000 0.0000 40.3738 0.0000
# 6 0.0000 0.0000 0.0000 0.0000 0.0000 22.5812
#
#
#
# Elastic Compliance Matrix: (Units=1/GPa)
#
#
# Indices 1 2 3 4 5 6 
#
# 1 0.013708 -0.003288 -0.005152 0.000000 0.000000 0.000000
# 2 -0.003288 0.017709 -0.003972 0.000000 0.000000 0.000000
# 3 -0.005152 -0.003972 0.012212 0.000000 0.000000 0.000000
# 4 0.000000 0.000000 0.000000 0.037718 0.000000 0.000000
# 5 0.000000 0.000000 0.000000 0.000000 0.024769 0.000000
# 6 0.000000 0.000000 0.000000 0.000000 0.000000 0.044285
#
#
# Mechanical properties :
#
#
# Convention : Reuss Voigt Hill
#
# Bulk Modulus (GPa) = 53.17541 57.76920 55.47230
# Shear Modulus (GPa) = 27.54952 29.06190 28.30571
#
# Velocity S-wave (km/s) = 3.65676 3.75580 3.70661
# Velocity P-wave (km/s) = 6.60601 6.84455 6.72634
#
# Compressibility (1/GPa) = 0.01880569
#
# Stress axis : x y z
#
# Youngs Moduli (GPa) = 72.94942 56.46828 81.88931
#
# Poissons Ratio (x) = 0.18564 0.42192
# Poissons Ratio (y) = 0.23983 0.32523
# Poissons Ratio (z) = 0.37586 0.22427
#
# Static dielectric constant tensor:
#      x y z
#    x 3.827800 0.000000 0.000000 
#    y 0.000000 3.419780 0.000000 
#    z 0.000000 0.000000 4.041020 
# 
# 
# High freq. dielectric constant tensor:
#      x y z
#    x 1.804380 0.000000 0.000000 
#    y 0.000000 1.777860 0.000000 
#    z 0.000000 0.000000 1.824360 
# 
# From -- ./inp_files/56225.got.cif
#   From: 2010.06.25/outbox.cif.g09.slc.cpg/sg71_29_cif.got.tgz:56225.got - 2010.06.28 04:59:45.
