data_PCOD8291282
_publ_section_title
;
Structure prediction by ZEFSAII (Michael W. Deem and Ramdas Pophale) SiO2 
 PCOD8291282
Probable space group: I M M M
;
_chemical_formula_sum "Si O2"
_cell_formula_units_Z 104
_cell_length_a 26.139354
_cell_length_b 9.125439
_cell_length_c 22.118785
_cell_angle_alpha 90.000000
_cell_angle_beta 90.000000
_cell_angle_gamma 90.000000
_cell_volume 5276.061921
_symmetry_space_group_name_H-M "I M M M"
_symmetry_group_IT_number 71
_symmetry_cell_setting 'orthorhombic'
loop_
_space_group_symop_operation_xyz
x,y,z
-x,-y,z
x,-y,-z
-x,y,-z
-x,-y,-z
x,y,-z
-x,y,z
x,-y,z
1/2+x,1/2+y,1/2+z
1/2-x,1/2-y,1/2+z
1/2+x,1/2-y,1/2-z
1/2-x,1/2+y,1/2-z
1/2-x,1/2-y,1/2-z
1/2+x,1/2+y,1/2-z
1/2-x,1/2+y,1/2+z
1/2+x,1/2-y,1/2+z
loop_
_atom_site_type_symbol
_atom_site_label
_atom_site_fract_x
_atom_site_fract_y
_atom_site_fract_z
Si Si1 0.650550 0.166827 0.932994
Si Si2 0.417663 0.168881 0.649344
Si Si3 0.441063 0.341866 0.763671
Si Si4 0.184911 0.669115 0.795144
Si Si5 0.800086 0.172058 0.676457
Si Si6 0.941896 0.830464 0.396581
Si Si7 0.500000 0.327662 0.429384
O O1 0.683866 0.261129 0.887029
O O2 0.593159 0.230662 0.938919
O O3 0.648675 0.000000 0.910243
O O4 0.675261 0.176874 0.000000
O O5 0.435281 0.210447 0.716664
O O6 0.356305 0.198546 0.650598
O O7 0.448116 0.263015 0.599713
O O8 0.430866 0.000000 0.636836
O O9 0.500000 0.361562 0.779914
O O10 0.420806 0.500000 0.738025
O O11 0.416638 0.308566 0.829306
O O12 0.183039 0.500000 0.775571
O O13 0.170134 0.763084 0.735250
O O14 0.240308 0.714584 0.818718
O O15 0.809648 0.000000 0.675371
O O16 0.000000 0.773776 0.402237
O O17 0.938322 0.000000 0.415956
O O18 0.500000 0.500000 0.417154
O O19 0.500000 0.289287 0.500000
#
# Coordination Sequence:
#
# PCOD8291282 Si02
#       7
#    16  16  16  16  16  16   8
#     4  11  24  39  54  75 108 151 193 233 279 329
#     4  11  21  34  56  85 113 144 182 225 277 336
#     4   9  17  30  49  76 111 144 174 215 264 316
#     4   9  20  37  59  90 121 144 176 228 289 347
#     4  10  20  37  61  87 115 149 187 230 283 339
#     4   9  19  35  55  81 110 143 186 232 276 325
#     4  11  25  43  59  77 109 153 196 237 282 339
#
# _framework density 19.711673000000001
#
# number of rings (size 3 to 8) (size 9 to 14) (size 15 to 20)
#    0.000    2.077    0.769    3.462    0.000    7.385 
#    0.000    3.846    0.000    4.615    0.000    0.000 
#    0.000    0.000    0.000    0.000    0.000    0.000 
#
# Total GULP energy -644612.429847 kJ/mol
# GULP energy per Si atom -12396.392882 kJ/mol
# Density = 1.966681 g / cm^3
# Si number density = 19.711673 Si / 1000 Ang^3
#
#
#
# Elastic Constant Matrix: (Units=GPa)
#
#
# Indices 1 2 3 4 5 6 
#
# 1 73.6426 44.0776 45.9633 0.0000 0.0000 0.0000
# 2 44.0776 101.9779 55.3656 0.0000 0.0000 0.0000
# 3 45.9633 55.3656 103.5513 0.0000 0.0000 0.0000
# 4 0.0000 0.0000 0.0000 28.5913 0.0000 0.0000
# 5 0.0000 0.0000 0.0000 0.0000 22.9215 0.0000
# 6 0.0000 0.0000 0.0000 0.0000 0.0000 27.8831
#
#
#
# Elastic Compliance Matrix: (Units=1/GPa)
#
#
# Indices 1 2 3 4 5 6 
#
# 1 0.020840 -0.005615 -0.006248 0.000000 0.000000 0.000000
# 2 -0.005615 0.015330 -0.005704 0.000000 0.000000 0.000000
# 3 -0.006248 -0.005704 0.015480 0.000000 0.000000 0.000000
# 4 0.000000 0.000000 0.000000 0.034976 0.000000 0.000000
# 5 0.000000 0.000000 0.000000 0.000000 0.043627 0.000000
# 6 0.000000 0.000000 0.000000 0.000000 0.000000 0.035864
#
#
# Mechanical properties :
#
#
# Convention : Reuss Voigt Hill
#
# Bulk Modulus (GPa) = 60.54964 63.33164 61.94064
# Shear Modulus (GPa) = 24.18317 24.79687 24.49002
#
# Velocity S-wave (km/s) = 3.50644 3.55065 3.52861
# Velocity P-wave (km/s) = 6.86861 7.00059 6.93491
#
# Compressibility (1/GPa) = 0.01651537
#
# Stress axis : x y z
#
# Youngs Moduli (GPa) = 47.98569 65.23177 64.59999
#
# Poissons Ratio (x) = 0.36631 0.40360
# Poissons Ratio (y) = 0.26946 0.36847
# Poissons Ratio (z) = 0.29980 0.37208
#
# Static dielectric constant tensor:
#      x y z
#    x 3.842440 0.000000 0.000000 
#    y 0.000000 3.593930 0.000000 
#    z 0.000000 0.000000 3.355590 
# 
# 
# High freq. dielectric constant tensor:
#      x y z
#    x 1.776110 0.000000 0.000000 
#    y 0.000000 1.771930 0.000000 
#    z 0.000000 0.000000 1.747040 
# 
# From -- ./inp_files/56269.got.cif
#   From: 2010.06.25/outbox.cif.g09.slc.cpg/sg71_29_cif.got.tgz:56269.got - 2010.06.28 04:59:45.
