data_PCOD8291918
_publ_section_title
;
Structure prediction by ZEFSAII (Michael W. Deem and Ramdas Pophale) SiO2 
 PCOD8291918
Probable space group: I M M M
;
_chemical_formula_sum "Si O2"
_cell_formula_units_Z 88
_cell_length_a 11.888582
_cell_length_b 14.347059
_cell_length_c 26.226409
_cell_angle_alpha 90.000000
_cell_angle_beta 90.000000
_cell_angle_gamma 90.000000
_cell_volume 4473.338592
_symmetry_space_group_name_H-M "I M M M"
_symmetry_group_IT_number 71
_symmetry_cell_setting 'orthorhombic'
loop_
_space_group_symop_operation_xyz
x,y,z
-x,-y,z
x,-y,-z
-x,y,-z
-x,-y,-z
x,y,-z
-x,y,z
x,-y,z
1/2+x,1/2+y,1/2+z
1/2-x,1/2-y,1/2+z
1/2+x,1/2-y,1/2-z
1/2-x,1/2+y,1/2-z
1/2-x,1/2-y,1/2-z
1/2+x,1/2+y,1/2-z
1/2-x,1/2+y,1/2+z
1/2+x,1/2-y,1/2+z
loop_
_atom_site_type_symbol
_atom_site_label
_atom_site_fract_x
_atom_site_fract_y
_atom_site_fract_z
Si Si1 0.500000 0.114046 0.637773
Si Si2 0.868436 0.000000 0.631638
Si Si3 0.000000 0.108568 0.060059
Si Si4 0.819492 0.757932 0.895423
Si Si5 0.366100 0.500000 0.753746
Si Si6 0.735438 0.169645 0.789571
Si Si7 0.500000 0.107964 0.245620
Si Si8 0.127698 0.163399 0.442790
O O1 0.609024 0.161996 0.611701
O O2 0.500000 0.148343 0.696759
O O3 0.500000 0.000000 0.630103
O O4 0.814026 0.000000 0.688372
O O5 0.832386 0.910754 0.599346
O O6 0.000000 0.000000 0.639461
O O7 0.891233 0.156245 0.084104
O O8 0.000000 0.000000 0.074827
O O9 0.000000 0.124313 0.000000
O O10 0.759657 0.789327 0.844256
O O11 0.719046 0.744786 0.936486
O O12 0.500000 0.500000 0.754218
O O13 0.323774 0.410528 0.723703
O O14 0.750000 0.250000 0.750000
O O15 0.607249 0.136156 0.787494
O O16 0.500000 0.000000 0.254480
O O17 0.134496 0.121627 0.500000
O O18 0.000000 0.198117 0.432233
#
# Coordination Sequence:
#
# PCOD8291918 Si02
#       8
#     8   8   8  16   8  16   8  16
#     4  10  23  41  61  90 127 170 209 257 309 376
#     4   9  19  36  56  89 121 169 201 244 304 373
#     4  10  24  46  71  92 119 160 216 278 333 378
#     4  11  24  39  66  94 123 166 213 264 319 377
#     4  11  26  40  63  92 132 162 211 261 311 368
#     4  12  25  40  61  91 128 170 211 259 312 382
#     4  11  23  41  57  82 128 170 213 250 317 379
#     4  10  21  38  62  91 125 162 207 259 316 381
#
# _framework density 19.672107
#
# number of rings (size 3 to 8) (size 9 to 14) (size 15 to 20)
#    0.000    1.364    2.727    1.909    7.636    1.091 
#    0.000    0.000    0.000    1.636    0.000    2.545 
#    0.000    0.000    0.000    0.000    0.000    0.000 
#
# Total GULP energy -545495.350713 kJ/mol
# GULP energy per Si atom -12397.621607 kJ/mol
# Density = 1.962733 g / cm^3
# Si number density = 19.672107 Si / 1000 Ang^3
#
#
#
# Elastic Constant Matrix: (Units=GPa)
#
#
# Indices 1 2 3 4 5 6 
#
# 1 134.2090 41.8983 35.7048 0.0000 0.0000 0.0000
# 2 41.8983 94.9260 21.6873 0.0000 0.0000 0.0000
# 3 35.7048 21.6873 76.9927 0.0000 0.0000 0.0000
# 4 0.0000 0.0000 0.0000 48.6830 0.0000 0.0000
# 5 0.0000 0.0000 0.0000 0.0000 32.0987 0.0000
# 6 0.0000 0.0000 0.0000 0.0000 0.0000 6.4413
#
#
#
# Elastic Compliance Matrix: (Units=1/GPa)
#
#
# Indices 1 2 3 4 5 6 
#
# 1 0.009413 -0.003375 -0.003415 0.000000 0.000000 0.000000
# 2 -0.003375 0.012469 -0.001947 0.000000 0.000000 0.000000
# 3 -0.003415 -0.001947 0.015120 0.000000 0.000000 0.000000
# 4 0.000000 0.000000 0.000000 0.020541 0.000000 0.000000
# 5 0.000000 0.000000 0.000000 0.000000 0.031154 0.000000
# 6 0.000000 0.000000 0.000000 0.000000 0.000000 0.155247
#
#
# Mechanical properties :
#
#
# Convention : Reuss Voigt Hill
#
# Bulk Modulus (GPa) = 51.20562 56.07870 53.64216
# Shear Modulus (GPa) = 18.66182 31.23378 24.94780
#
# Velocity S-wave (km/s) = 3.08335 3.98894 3.56502
# Velocity P-wave (km/s) = 6.22592 7.05579 6.65381
#
# Compressibility (1/GPa) = 0.01952911
#
# Stress axis : x y z
#
# Youngs Moduli (GPa) = 106.23612 80.19968 66.13639
#
# Poissons Ratio (x) = 0.27064 0.22583
# Poissons Ratio (y) = 0.35850 0.12879
# Poissons Ratio (z) = 0.36276 0.15617
#
# Static dielectric constant tensor:
#      x y z
#    x 3.674410 0.000000 0.000000 
#    y 0.000000 3.540060 0.000000 
#    z 0.000000 0.000000 3.408650 
# 
# 
# High freq. dielectric constant tensor:
#      x y z
#    x 1.781920 0.000000 0.000000 
#    y 0.000000 1.758980 0.000000 
#    z 0.000000 0.000000 1.769520 
# 
# From -- ./inp_files/64525.got.cif
#   From: 2010.06.25/outbox.cif.g09.slc.cpg/sg71_33_cif.got.tgz:64525.got - 2010.06.28 04:59:45.
