data_PCOD8291056
_publ_section_title
;
Structure prediction by ZEFSAII (Michael W. Deem and Ramdas Pophale) SiO2 
 PCOD8291056
Probable space group: I M M M
;
_chemical_formula_sum "Si O2"
_cell_formula_units_Z 88
_cell_length_a 20.277083
_cell_length_b 24.666384
_cell_length_c 9.161165
_cell_angle_alpha 90.000000
_cell_angle_beta 90.000000
_cell_angle_gamma 90.000000
_cell_volume 4582.069501
_symmetry_space_group_name_H-M "I M M M"
_symmetry_group_IT_number 71
_symmetry_cell_setting 'orthorhombic'
loop_
_space_group_symop_operation_xyz
x,y,z
-x,-y,z
x,-y,-z
-x,y,-z
-x,-y,-z
x,y,-z
-x,y,z
x,-y,z
1/2+x,1/2+y,1/2+z
1/2-x,1/2-y,1/2+z
1/2+x,1/2-y,1/2-z
1/2-x,1/2+y,1/2-z
1/2-x,1/2-y,1/2-z
1/2+x,1/2+y,1/2-z
1/2-x,1/2+y,1/2+z
1/2+x,1/2-y,1/2+z
loop_
_atom_site_type_symbol
_atom_site_label
_atom_site_fract_x
_atom_site_fract_y
_atom_site_fract_z
Si Si1 0.137706 0.606032 0.330128
Si Si2 0.221589 0.500000 0.332670
Si Si3 0.354709 0.500000 0.828206
Si Si4 0.925312 0.798214 0.665134
Si Si5 0.922674 0.095920 0.835324
Si Si6 0.691620 0.781615 0.830939
Si Si7 0.000000 0.437629 0.674809
O O1 0.129487 0.618270 0.500000
O O2 0.179278 0.552733 0.299189
O O3 0.176873 0.658240 0.264208
O O4 0.064376 0.594864 0.265684
O O5 0.247190 0.500000 0.500000
O O6 0.279420 0.500000 0.217309
O O7 0.388694 0.446960 0.767146
O O8 0.361627 0.500000 0.000000
O O9 0.918862 0.820557 0.500000
O O10 0.904334 0.845036 0.776498
O O11 0.877523 0.748338 0.692388
O O12 0.000000 0.778556 0.695781
O O13 0.000000 0.085287 0.829907
O O14 0.895543 0.090538 0.000000
O O15 0.750000 0.750000 0.750000
O O16 0.712328 0.784386 0.000000
O O17 0.000000 0.500000 0.732257
O O18 0.000000 0.439615 0.500000
#
# Coordination Sequence:
#
# PCOD8291056 Si02
#       7
#    16   8   8  16  16  16   8
#     4   9  18  32  54  84 116 148 184 232 289 343
#     4  10  20  36  55  82 116 150 188 229 280 339
#     4  12  25  37  55  82 113 149 186 227 278 336
#     4   9  19  36  56  80 113 150 189 234 283 336
#     4  10  21  38  60  84 109 140 183 233 283 336
#     4  10  22  37  55  82 114 152 194 237 286 339
#     4   9  14  26  52  88 122 144 174 229 292 347
#
# _framework density 19.205296000000001
#
# number of rings (size 3 to 8) (size 9 to 14) (size 15 to 20)
#    0.000    2.273    0.909    1.636    3.818    2.909 
#    0.000    0.000    0.000    0.000    0.000    2.545 
#    0.000    0.000    0.000    0.000    0.000    0.000 
#
# Total GULP energy -545489.875381 kJ/mol
# GULP energy per Si atom -12397.497168 kJ/mol
# Density = 1.916158 g / cm^3
# Si number density = 19.205296 Si / 1000 Ang^3
#
#
#
# Elastic Constant Matrix: (Units=GPa)
#
#
# Indices 1 2 3 4 5 6 
#
# 1 74.5063 83.2337 37.3529 0.0000 0.0000 0.0000
# 2 83.2337 154.0459 51.6128 0.0000 0.0000 0.0000
# 3 37.3529 51.6128 87.2368 0.0000 0.0000 0.0000
# 4 0.0000 0.0000 0.0000 23.2341 0.0000 0.0000
# 5 0.0000 0.0000 0.0000 0.0000 24.7974 0.0000
# 6 0.0000 0.0000 0.0000 0.0000 0.0000 24.5856
#
#
#
# Elastic Compliance Matrix: (Units=1/GPa)
#
#
# Indices 1 2 3 4 5 6 
#
# 1 0.035395 -0.017520 -0.004790 0.000000 0.000000 0.000000
# 2 -0.017520 0.016768 -0.002419 0.000000 0.000000 0.000000
# 3 -0.004790 -0.002419 0.014945 0.000000 0.000000 0.000000
# 4 0.000000 0.000000 0.000000 0.043040 0.000000 0.000000
# 5 0.000000 0.000000 0.000000 0.000000 0.040327 0.000000
# 6 0.000000 0.000000 0.000000 0.000000 0.000000 0.040674
#
#
# Mechanical properties :
#
#
# Convention : Reuss Voigt Hill
#
# Bulk Modulus (GPa) = 56.65483 73.35421 65.00452
# Shear Modulus (GPa) = 20.28472 24.09606 22.19039
#
# Velocity S-wave (km/s) = 3.25346 3.54596 3.40285
# Velocity P-wave (km/s) = 6.60885 7.41908 7.02566
#
# Compressibility (1/GPa) = 0.01765074
#
# Stress axis : x y z
#
# Youngs Moduli (GPa) = 28.25272 59.63647 66.91021
#
# Poissons Ratio (x) = 1.04480 0.32050
# Poissons Ratio (y) = 0.49497 0.16188
# Poissons Ratio (z) = 0.13533 0.14428
#
# Static dielectric constant tensor:
#      x y z
#    x 3.635970 0.000000 0.000000 
#    y 0.000000 3.723430 0.000000 
#    z 0.000000 0.000000 3.399490 
# 
# 
# High freq. dielectric constant tensor:
#      x y z
#    x 1.757340 0.000000 0.000000 
#    y 0.000000 1.758520 0.000000 
#    z 0.000000 0.000000 1.708910 
# 
# From -- ./inp_files/10516.got.cif
#   From: 2010.06.25/outbox.cif.g09.slc.cpg/sg71_6_cif.got.tgz:10516.got - 2010.06.28 04:59:45.
