data_PCOD8291250
_publ_section_title
;
Structure prediction by ZEFSAII (Michael W. Deem and Ramdas Pophale) SiO2 
 PCOD8291250
Probable space group: I M M M
;
_chemical_formula_sum "Si O2"
_cell_formula_units_Z 104
_cell_length_a 8.971433
_cell_length_b 20.841817
_cell_length_c 29.596665
_cell_angle_alpha 90.000000
_cell_angle_beta 90.000000
_cell_angle_gamma 90.000000
_cell_volume 5534.012977
_symmetry_space_group_name_H-M "I M M M"
_symmetry_group_IT_number 71
_symmetry_cell_setting 'orthorhombic'
loop_
_space_group_symop_operation_xyz
x,y,z
-x,-y,z
x,-y,-z
-x,y,-z
-x,-y,-z
x,y,-z
-x,y,z
x,-y,z
1/2+x,1/2+y,1/2+z
1/2-x,1/2-y,1/2+z
1/2+x,1/2-y,1/2-z
1/2-x,1/2+y,1/2-z
1/2-x,1/2-y,1/2-z
1/2+x,1/2+y,1/2-z
1/2-x,1/2+y,1/2+z
1/2+x,1/2-y,1/2+z
loop_
_atom_site_type_symbol
_atom_site_label
_atom_site_fract_x
_atom_site_fract_y
_atom_site_fract_z
Si Si1 0.326991 0.645172 0.127026
Si Si2 0.173259 0.778620 0.872498
Si Si3 0.321960 0.138502 0.948585
Si Si4 0.174325 0.811137 0.772708
Si Si5 0.175355 0.929115 0.715669
Si Si6 0.662152 0.000000 0.946722
Si Si7 0.168444 0.574002 0.948440
O O1 0.500000 0.664269 0.127980
O O2 0.229666 0.707397 0.136218
O O3 0.286328 0.593010 0.164988
O O4 0.286377 0.615818 0.078804
O O5 0.258130 0.809318 0.914639
O O6 0.205082 0.816855 0.826171
O O7 0.000000 0.777381 0.884555
O O8 0.500000 0.137671 0.945455
O O9 0.256970 0.067516 0.934105
O O10 0.272843 0.155462 0.000000
O O11 0.250000 0.750000 0.750000
O O12 0.239637 0.876702 0.750907
O O13 0.000000 0.804117 0.762093
O O14 0.000000 0.934105 0.722474
O O15 0.246648 0.000000 0.723811
O O16 0.500000 0.000000 0.923133
O O17 0.638828 0.000000 0.000000
O O18 0.211967 0.500000 0.943473
O O19 0.000000 0.585762 0.930868
O O20 0.181178 0.596216 0.000000
#
# Coordination Sequence:
#
# PCOD8291250 Si02
#       7
#    16  16  16  16  16   8  16
#     4  11  21  34  56  81 105 141 186 232 273 318
#     4  11  23  36  53  81 113 147 183 222 273 330
#     4   9  18  35  59  83 108 142 184 227 272 326
#     4  10  20  37  59  81 109 147 184 222 271 328
#     4   9  18  34  57  83 108 137 177 225 275 324
#     4   7  12  28  55  81 103 135 179 223 269 319
#     4   9  19  36  55  76 108 147 179 216 274 332
#
# _framework density 18.792873
#
# number of rings (size 3 to 8) (size 9 to 14) (size 15 to 20)
#    0.000    2.385    1.538    2.769    0.000    2.769 
#    1.385    1.154    0.000    2.769    0.000    0.000 
#    0.000    0.000    0.000    0.000    0.000    0.000 
#
# Total GULP energy -644552.339734 kJ/mol
# GULP energy per Si atom -12395.237303 kJ/mol
# Density = 1.875010 g / cm^3
# Si number density = 18.792873 Si / 1000 Ang^3
#
#
#
# Elastic Constant Matrix: (Units=GPa)
#
#
# Indices 1 2 3 4 5 6 
#
# 1 35.5410 24.6268 37.0771 0.0000 0.0000 0.0000
# 2 24.6268 132.5895 56.7401 0.0000 0.0000 0.0000
# 3 37.0771 56.7401 99.8269 0.0000 0.0000 0.0000
# 4 0.0000 0.0000 0.0000 33.6455 0.0000 0.0000
# 5 0.0000 0.0000 0.0000 0.0000 21.7888 0.0000
# 6 0.0000 0.0000 0.0000 0.0000 0.0000 12.8741
#
#
#
# Elastic Compliance Matrix: (Units=1/GPa)
#
#
# Indices 1 2 3 4 5 6 
#
# 1 0.046202 -0.001636 -0.016230 0.000000 0.000000 0.000000
# 2 -0.001636 0.010024 -0.005090 0.000000 0.000000 0.000000
# 3 -0.016230 -0.005090 0.018939 0.000000 0.000000 0.000000
# 4 0.000000 0.000000 0.000000 0.029722 0.000000 0.000000
# 5 0.000000 0.000000 0.000000 0.000000 0.045895 0.000000
# 6 0.000000 0.000000 0.000000 0.000000 0.000000 0.077676
#
#
# Mechanical properties :
#
#
# Convention : Reuss Voigt Hill
#
# Bulk Modulus (GPa) = 34.18530 56.09394 45.13962
# Shear Modulus (GPa) = 17.59822 23.62923 20.61373
#
# Velocity S-wave (km/s) = 3.06344 3.54976 3.31553
# Velocity P-wave (km/s) = 5.54463 6.83479 6.22323
#
# Compressibility (1/GPa) = 0.02925234
#
# Stress axis : x y z
#
# Youngs Moduli (GPa) = 21.64419 99.75949 52.80246
#
# Poissons Ratio (x) = 0.16320 0.85699
# Poissons Ratio (y) = 0.03541 0.26876
# Poissons Ratio (z) = 0.35129 0.50777
#
# Static dielectric constant tensor:
#      x y z
#    x 3.188610 0.000000 0.000000 
#    y 0.000000 3.765340 0.000000 
#    z 0.000000 0.000000 3.471230 
# 
# 
# High freq. dielectric constant tensor:
#      x y z
#    x 1.702630 0.000000 0.000000 
#    y 0.000000 1.738530 0.000000 
#    z 0.000000 0.000000 1.727650 
# 
# From -- ./inp_files/68257.got.cif
#   From: 2010.06.25/outbox.cif.g09.slc.cpg/sg71_35_cif.got.tgz:68257.got - 2010.06.28 04:59:45.
