data_PCOD8291297
_publ_section_title
;
Structure prediction by ZEFSAII (Michael W. Deem and Ramdas Pophale) SiO2 
 PCOD8291297
Probable space group: I M M M
;
_chemical_formula_sum "Si O2"
_cell_formula_units_Z 80
_cell_length_a 17.206566
_cell_length_b 10.272216
_cell_length_c 22.901385
_cell_angle_alpha 90.000000
_cell_angle_beta 90.000000
_cell_angle_gamma 90.000000
_cell_volume 4047.809781
_symmetry_space_group_name_H-M "I M M M"
_symmetry_group_IT_number 71
_symmetry_cell_setting 'orthorhombic'
loop_
_space_group_symop_operation_xyz
x,y,z
-x,-y,z
x,-y,-z
-x,y,-z
-x,-y,-z
x,y,-z
-x,y,z
x,-y,z
1/2+x,1/2+y,1/2+z
1/2-x,1/2-y,1/2+z
1/2+x,1/2-y,1/2-z
1/2-x,1/2+y,1/2-z
1/2-x,1/2-y,1/2-z
1/2+x,1/2+y,1/2-z
1/2-x,1/2+y,1/2+z
1/2+x,1/2-y,1/2+z
loop_
_atom_site_type_symbol
_atom_site_label
_atom_site_fract_x
_atom_site_fract_y
_atom_site_fract_z
Si Si1 0.908734 0.000000 0.064722
Si Si2 0.844217 0.346806 0.628251
Si Si3 0.412350 0.851543 0.249940
Si Si4 0.000000 0.654111 0.565143
Si Si5 0.409682 0.763388 0.375341
Si Si6 0.766416 0.355112 0.932486
O O1 0.882453 0.123509 0.101654
O O2 0.000000 0.000000 0.056678
O O3 0.869850 0.000000 0.000000
O O4 0.827162 0.500000 0.615242
O O5 0.853007 0.322045 0.697513
O O6 0.922826 0.297652 0.597394
O O7 0.776185 0.254917 0.605376
O O8 0.500000 0.825922 0.227115
O O9 0.393114 0.763219 0.305920
O O10 0.404278 0.000000 0.270936
O O11 0.000000 0.500000 0.564276
O O12 0.000000 0.712666 0.500000
O O13 0.500000 0.796278 0.388280
O O14 0.355565 0.864413 0.410136
O O15 0.730174 0.500000 0.924046
O O16 0.763556 0.313790 0.000000
#
# Coordination Sequence:
#
# PCOD8291297 Si02
#       6
#     8  16  16   8  16  16
#     4   9  18  34  56  84 116 149 195 251 293 337
#     4  10  20  37  62  90 117 155 201 247 302 354
#     4   9  17  34  61  90 119 150 196 252 297 352
#     4   9  16  30  57  89 115 145 197 250 290 348
#     4  10  21  38  61  87 116 157 201 244 299 356
#     4  11  25  41  56  84 124 158 198 251 302 357
#
# _framework density 19.763774999999999
#
# number of rings (size 3 to 8) (size 9 to 14) (size 15 to 20)
#    0.000    2.200    1.000    1.800    1.400    4.400 
#    1.800    1.500    0.000    1.800    0.000    0.000 
#    0.000    0.000    0.000    0.000    0.000    0.000 
#
# Total GULP energy -495874.267751 kJ/mol
# GULP energy per Si atom -12396.856694 kJ/mol
# Density = 1.971879 g / cm^3
# Si number density = 19.763775 Si / 1000 Ang^3
#
#
#
# Elastic Constant Matrix: (Units=GPa)
#
#
# Indices 1 2 3 4 5 6 
#
# 1 84.0831 44.7423 49.1264 0.0000 0.0000 0.0000
# 2 44.7423 92.0426 67.4788 0.0000 0.0000 0.0000
# 3 49.1264 67.4788 150.6586 0.0000 0.0000 0.0000
# 4 0.0000 0.0000 0.0000 35.5115 0.0000 0.0000
# 5 0.0000 0.0000 0.0000 0.0000 31.9243 0.0000
# 6 0.0000 0.0000 0.0000 0.0000 0.0000 21.6404
#
#
#
# Elastic Compliance Matrix: (Units=1/GPa)
#
#
# Indices 1 2 3 4 5 6 
#
# 1 0.016750 -0.006161 -0.002702 0.000000 0.000000 0.000000
# 2 -0.006161 0.018442 -0.006251 0.000000 0.000000 0.000000
# 3 -0.002702 -0.006251 0.010319 0.000000 0.000000 0.000000
# 4 0.000000 0.000000 0.000000 0.028160 0.000000 0.000000
# 5 0.000000 0.000000 0.000000 0.000000 0.031324 0.000000
# 6 0.000000 0.000000 0.000000 0.000000 0.000000 0.046210
#
#
# Mechanical properties :
#
#
# Convention : Reuss Voigt Hill
#
# Bulk Modulus (GPa) = 65.43725 72.16435 68.80080
# Shear Modulus (GPa) = 26.80551 28.84435 27.82493
#
# Velocity S-wave (km/s) = 3.68679 3.82443 3.75624
# Velocity P-wave (km/s) = 7.16273 7.48962 7.32800
#
# Compressibility (1/GPa) = 0.01528181
#
# Stress axis : x y z
#
# Youngs Moduli (GPa) = 59.70002 54.22280 96.91290
#
# Poissons Ratio (x) = 0.33408 0.26189
# Poissons Ratio (y) = 0.36783 0.60582
# Poissons Ratio (z) = 0.16133 0.33896
#
# Static dielectric constant tensor:
#      x y z
#    x 3.474720 0.000000 0.000000 
#    y 0.000000 3.427690 0.000000 
#    z 0.000000 0.000000 3.709690 
# 
# 
# High freq. dielectric constant tensor:
#      x y z
#    x 1.759940 0.000000 0.000000 
#    y 0.000000 1.747830 0.000000 
#    z 0.000000 0.000000 1.783040 
# 
# From -- ./inp_files/25579.got.cif
#   From: 2010.06.25/outbox.cif.g09.slc.cpg/sg71_13_cif.got.tgz:25579.got - 2010.06.28 04:59:45.
