data_PCOD8291062
_publ_section_title
;
Structure prediction by ZEFSAII (Michael W. Deem and Ramdas Pophale) SiO2 
 PCOD8291062
Probable space group: I M M M
;
_chemical_formula_sum "Si O2"
_cell_formula_units_Z 112
_cell_length_a 19.731482
_cell_length_b 18.073376
_cell_length_c 17.164243
_cell_angle_alpha 90.000000
_cell_angle_beta 90.000000
_cell_angle_gamma 90.000000
_cell_volume 6121.017819
_symmetry_space_group_name_H-M "I M M M"
_symmetry_group_IT_number 71
_symmetry_cell_setting 'orthorhombic'
loop_
_space_group_symop_operation_xyz
x,y,z
-x,-y,z
x,-y,-z
-x,y,-z
-x,-y,-z
x,y,-z
-x,y,z
x,-y,z
1/2+x,1/2+y,1/2+z
1/2-x,1/2-y,1/2+z
1/2+x,1/2-y,1/2-z
1/2-x,1/2+y,1/2-z
1/2-x,1/2-y,1/2-z
1/2+x,1/2+y,1/2-z
1/2-x,1/2+y,1/2+z
1/2+x,1/2-y,1/2+z
loop_
_atom_site_type_symbol
_atom_site_label
_atom_site_fract_x
_atom_site_fract_y
_atom_site_fract_z
Si Si1 0.922292 0.920821 0.191276
Si Si2 0.420962 0.149751 0.410106
Si Si3 0.773124 0.304625 0.684243
Si Si4 0.691312 0.086492 0.688702
Si Si5 0.302971 0.672748 0.087451
Si Si6 0.858117 0.190031 0.089234
Si Si7 0.576765 0.413163 0.861483
O O1 0.916385 0.862974 0.121701
O O2 0.893175 0.894266 0.274953
O O3 0.000000 0.934314 0.210125
O O4 0.889400 0.000000 0.167189
O O5 0.415491 0.124335 0.500000
O O6 0.500000 0.155648 0.385772
O O7 0.382028 0.092550 0.353847
O O8 0.382466 0.226953 0.397118
O O9 0.750000 0.250000 0.750000
O O10 0.811534 0.373777 0.725550
O O11 0.817026 0.254385 0.624413
O O12 0.707936 0.333257 0.637386
O O13 0.748216 0.124836 0.635198
O O14 0.708254 0.000000 0.700416
O O15 0.374206 0.630450 0.080381
O O16 0.273822 0.683654 0.000000
O O17 0.845151 0.172138 0.000000
O O18 0.500000 0.384773 0.874218
O O19 0.581182 0.500000 0.878694
#
# Coordination Sequence:
#
# PCOD8291062 Si02
#       7
#    16  16  16  16  16  16  16
#     4   9  18  32  49  72 107 149 186 217 255 313
#     4  10  21  36  55  83 116 148 183 229 286 339
#     4  10  20  36  56  75 104 141 180 223 269 322
#     4  11  23  38  58  83 110 144 190 231 277 334
#     4  11  21  35  56  81 108 142 182 225 275 331
#     4  11  20  33  53  79 110 144 182 225 273 327
#     4   9  19  34  52  78 111 145 180 221 272 327
#
# _framework density 18.297609999999999
#
# number of rings (size 3 to 8) (size 9 to 14) (size 15 to 20)
#    0.000    1.857    2.857    4.286    0.000    5.429 
#    0.000    2.143    0.000    1.286    0.000    0.000 
#    0.000    0.000    0.000    6.429    0.000    0.000 
#
# Total GULP energy -694012.158813 kJ/mol
# GULP energy per Si atom -12393.074265 kJ/mol
# Density = 1.825596 g / cm^3
# Si number density = 18.297610 Si / 1000 Ang^3
#
#
#
# Elastic Constant Matrix: (Units=GPa)
#
#
# Indices 1 2 3 4 5 6 
#
# 1 77.5733 20.4903 30.3807 0.0000 0.0000 0.0000
# 2 20.4903 87.6191 48.1956 0.0000 0.0000 0.0000
# 3 30.3807 48.1956 93.8173 0.0000 0.0000 0.0000
# 4 0.0000 0.0000 0.0000 16.4174 0.0000 0.0000
# 5 0.0000 0.0000 0.0000 0.0000 28.0854 0.0000
# 6 0.0000 0.0000 0.0000 0.0000 0.0000 23.8188
#
#
#
# Elastic Compliance Matrix: (Units=1/GPa)
#
#
# Indices 1 2 3 4 5 6 
#
# 1 0.014847 -0.001153 -0.004215 0.000000 0.000000 0.000000
# 2 -0.001153 0.015998 -0.007845 0.000000 0.000000 0.000000
# 3 -0.004215 -0.007845 0.016054 0.000000 0.000000 0.000000
# 4 0.000000 0.000000 0.000000 0.060911 0.000000 0.000000
# 5 0.000000 0.000000 0.000000 0.000000 0.035606 0.000000
# 6 0.000000 0.000000 0.000000 0.000000 0.000000 0.041984
#
#
# Mechanical properties :
#
#
# Convention : Reuss Voigt Hill
#
# Bulk Modulus (GPa) = 48.84828 50.79365 49.82097
# Shear Modulus (GPa) = 22.86761 24.32719 23.59740
#
# Velocity S-wave (km/s) = 3.53903 3.65023 3.59506
# Velocity P-wave (km/s) = 6.59197 6.75170 6.67232
#
# Compressibility (1/GPa) = 0.02047155
#
# Stress axis : x y z
#
# Youngs Moduli (GPa) = 67.35583 62.50816 62.28933
#
# Poissons Ratio (x) = 0.07209 0.26257
# Poissons Ratio (y) = 0.07768 0.48866
# Poissons Ratio (z) = 0.28392 0.49037
#
# Static dielectric constant tensor:
#      x y z
#    x 3.284770 0.000000 0.000000 
#    y 0.000000 3.389960 0.000000 
#    z 0.000000 0.000000 3.499240 
# 
# 
# High freq. dielectric constant tensor:
#      x y z
#    x 1.697120 0.000000 0.000000 
#    y 0.000000 1.695870 0.000000 
#    z 0.000000 0.000000 1.707160 
# 
# From -- ./inp_files/46396.got.cif
#   From: 2010.06.25/outbox.cif.g09.slc.cpg/sg71_24_cif.got.tgz:46396.got - 2010.06.28 04:59:45.
