data_PCOD8291926
_publ_section_title
;
Structure prediction by ZEFSAII (Michael W. Deem and Ramdas Pophale) SiO2 
 PCOD8291926
Probable space group: I M M M
;
_chemical_formula_sum "Si O2"
_cell_formula_units_Z 56
_cell_length_a 18.236219
_cell_length_b 10.142918
_cell_length_c 14.441869
_cell_angle_alpha 90.000000
_cell_angle_beta 90.000000
_cell_angle_gamma 90.000000
_cell_volume 2671.290470
_symmetry_space_group_name_H-M "I M M M"
_symmetry_group_IT_number 71
_symmetry_cell_setting 'orthorhombic'
loop_
_space_group_symop_operation_xyz
x,y,z
-x,-y,z
x,-y,-z
-x,y,-z
-x,-y,-z
x,y,-z
-x,y,z
x,-y,z
1/2+x,1/2+y,1/2+z
1/2-x,1/2-y,1/2+z
1/2+x,1/2-y,1/2-z
1/2-x,1/2+y,1/2-z
1/2-x,1/2-y,1/2-z
1/2+x,1/2+y,1/2-z
1/2-x,1/2+y,1/2+z
1/2+x,1/2-y,1/2+z
loop_
_atom_site_type_symbol
_atom_site_label
_atom_site_fract_x
_atom_site_fract_y
_atom_site_fract_z
Si Si1 0.315877 0.151399 0.393307
Si Si2 0.583865 0.354222 0.714790
Si Si3 0.918380 0.500000 0.608204
Si Si4 0.148580 0.774266 0.606182
O O1 0.338944 0.162767 0.500000
O O2 0.368235 0.244030 0.334608
O O3 0.234031 0.202449 0.378352
O O4 0.322845 0.000000 0.359492
O O5 0.500000 0.312474 0.702125
O O6 0.597763 0.500000 0.671856
O O7 0.602921 0.365546 0.824090
O O8 0.930900 0.500000 0.500000
O O9 0.870561 0.374331 0.636893
O O10 0.000000 0.500000 0.655166
O O11 0.125937 0.806067 0.500000
#
# Coordination Sequence:
#
# PCOD8291926 Si02
#       4
#    16  16   8  16
#     4  10  23  43  67  92 119 161 215 263 312 369
#     4  11  25  41  61  92 127 166 208 254 315 375
#     4   9  18  32  54  90 128 162 200 239 294 366
#     4  10  21  38  63  93 127 164 203 254 309 371
#
# _framework density 20.963652
#
# number of rings (size 3 to 8) (size 9 to 14) (size 15 to 20)
#    0.000    1.857    0.000    2.571    4.000    5.143 
#    0.000    4.286    0.000    0.000    0.000    0.000 
#    0.000    0.000    0.000    0.000    0.000    0.000 
#
# Total GULP energy -347138.451690 kJ/mol
# GULP energy per Si atom -12397.801846 kJ/mol
# Density = 2.091594 g / cm^3
# Si number density = 20.963652 Si / 1000 Ang^3
#
#
#
# Elastic Constant Matrix: (Units=GPa)
#
#
# Indices 1 2 3 4 5 6 
#
# 1 109.9744 91.6734 43.5673 0.0000 0.0000 0.0000
# 2 91.6734 157.2143 58.0060 0.0000 0.0000 0.0000
# 3 43.5673 58.0060 69.3438 0.0000 0.0000 0.0000
# 4 0.0000 0.0000 0.0000 28.0335 0.0000 0.0000
# 5 0.0000 0.0000 0.0000 0.0000 5.2931 0.0000
# 6 0.0000 0.0000 0.0000 0.0000 0.0000 31.5391
#
#
#
# Elastic Compliance Matrix: (Units=1/GPa)
#
#
# Indices 1 2 3 4 5 6 
#
# 1 0.018336 -0.009317 -0.003726 0.000000 0.000000 0.000000
# 2 -0.009317 0.013934 -0.005803 0.000000 0.000000 0.000000
# 3 -0.003726 -0.005803 0.021616 0.000000 0.000000 0.000000
# 4 0.000000 0.000000 0.000000 0.035672 0.000000 0.000000
# 5 0.000000 0.000000 0.000000 0.000000 0.188925 0.000000
# 6 0.000000 0.000000 0.000000 0.000000 0.000000 0.031707
#
#
# Mechanical properties :
#
#
# Convention : Reuss Voigt Hill
#
# Bulk Modulus (GPa) = 61.74951 80.33622 71.04286
# Shear Modulus (GPa) = 14.15312 22.52553 18.33933
#
# Velocity S-wave (km/s) = 2.60114 3.28152 2.96094
# Velocity P-wave (km/s) = 6.20811 7.26379 6.75660
#
# Compressibility (1/GPa) = 0.01619446
#
# Stress axis : x y z
#
# Youngs Moduli (GPa) = 54.53839 71.76475 46.26216
#
# Poissons Ratio (x) = 0.66862 0.17239
# Poissons Ratio (y) = 0.50813 0.26844
# Poissons Ratio (z) = 0.20323 0.41642
#
# Static dielectric constant tensor:
#      x y z
#    x 3.746310 0.000000 0.000000 
#    y 0.000000 4.019520 0.000000 
#    z 0.000000 0.000000 3.797420 
# 
# 
# High freq. dielectric constant tensor:
#      x y z
#    x 1.822050 0.000000 0.000000 
#    y 0.000000 1.835260 0.000000 
#    z 0.000000 0.000000 1.813690 
# 
# From -- ./inp_files/5037.got.cif
#   From: 2010.06.25/outbox.cif.g09.slc.cpg/sg71_3_cif.got.tgz:5037.got - 2010.06.28 04:59:45.
