data_PCOD8291963
_publ_section_title
;
Structure prediction by ZEFSAII (Michael W. Deem and Ramdas Pophale) SiO2 
 PCOD8291963
Probable space group: I M M M
;
_chemical_formula_sum "Si O2"
_cell_formula_units_Z 72
_cell_length_a 8.765941
_cell_length_b 15.401062
_cell_length_c 26.510809
_cell_angle_alpha 90.000000
_cell_angle_beta 90.000000
_cell_angle_gamma 90.000000
_cell_volume 3579.086489
_symmetry_space_group_name_H-M "I M M M"
_symmetry_group_IT_number 71
_symmetry_cell_setting 'orthorhombic'
loop_
_space_group_symop_operation_xyz
x,y,z
-x,-y,z
x,-y,-z
-x,y,-z
-x,-y,-z
x,y,-z
-x,y,z
x,-y,z
1/2+x,1/2+y,1/2+z
1/2-x,1/2-y,1/2+z
1/2+x,1/2-y,1/2-z
1/2-x,1/2+y,1/2-z
1/2-x,1/2-y,1/2-z
1/2+x,1/2+y,1/2-z
1/2-x,1/2+y,1/2+z
1/2+x,1/2-y,1/2+z
loop_
_atom_site_type_symbol
_atom_site_label
_atom_site_fract_x
_atom_site_fract_y
_atom_site_fract_z
Si Si1 0.677361 0.659855 0.612329
Si Si2 0.180282 0.500000 0.214693
Si Si3 0.320514 0.000000 0.056287
Si Si4 0.820840 0.162748 0.229490
Si Si5 0.821919 0.000000 0.605844
Si Si6 0.324172 0.164172 0.558367
O O1 0.500000 0.643613 0.602164
O O2 0.769415 0.585783 0.584654
O O3 0.718139 0.654680 0.670877
O O4 0.727515 0.753267 0.591150
O O5 0.246275 0.415878 0.241163
O O6 0.223974 0.500000 0.156411
O O7 0.000000 0.500000 0.219873
O O8 0.500000 0.000000 0.054061
O O9 0.250668 0.000000 0.000000
O O10 0.750000 0.250000 0.250000
O O11 0.000000 0.162577 0.239543
O O12 0.782171 0.084134 0.573002
O O13 0.000000 0.000000 0.619161
O O14 0.299593 0.187279 0.500000
O O15 0.500000 0.139778 0.569487
#
# Coordination Sequence:
#
# PCOD8291963 Si02
#       6
#    16   8   8  16   8  16
#     4  10  22  40  63  89 118 156 200 243 289 350
#     4  12  25  42  63  87 120 162 206 253 306 360
#     4  11  24  39  58  88 123 157 196 245 298 349
#     4  11  23  40  63  93 125 158 201 249 300 361
#     4  12  25  40  61  89 121 157 200 251 306 363
#     4  10  21  39  63  90 121 159 202 245 293 355
#
# _framework density 20.116865000000001
#
# number of rings (size 3 to 8) (size 9 to 14) (size 15 to 20)
#    0.000    1.222    0.000    6.000    0.000   10.667 
#    0.000    0.000    0.000    0.000    0.000    0.000 
#    0.000    0.000    0.000    0.000    0.000    0.000 
#
# Total GULP energy -446646.229217 kJ/mol
# GULP energy per Si atom -12406.839700 kJ/mol
# Density = 2.007108 g / cm^3
# Si number density = 20.116865 Si / 1000 Ang^3
#
#
#
# Elastic Constant Matrix: (Units=GPa)
#
#
# Indices 1 2 3 4 5 6 
#
# 1 81.1910 44.8180 50.2787 0.0000 0.0000 0.0000
# 2 44.8180 130.4891 37.7851 0.0000 0.0000 0.0000
# 3 50.2787 37.7851 102.1096 0.0000 0.0000 0.0000
# 4 0.0000 0.0000 0.0000 2.2882 0.0000 0.0000
# 5 0.0000 0.0000 0.0000 0.0000 32.4081 0.0000
# 6 0.0000 0.0000 0.0000 0.0000 0.0000 12.2066
#
#
#
# Elastic Compliance Matrix: (Units=1/GPa)
#
#
# Indices 1 2 3 4 5 6 
#
# 1 0.019788 -0.004452 -0.008096 0.000000 0.000000 0.000000
# 2 -0.004452 0.009585 -0.001355 0.000000 0.000000 0.000000
# 3 -0.008096 -0.001355 0.014281 0.000000 0.000000 0.000000
# 4 0.000000 0.000000 0.000000 0.437026 0.000000 0.000000
# 5 0.000000 0.000000 0.000000 0.000000 0.030856 0.000000
# 6 0.000000 0.000000 0.000000 0.000000 0.000000 0.081923
#
#
# Mechanical properties :
#
#
# Convention : Reuss Voigt Hill
#
# Bulk Modulus (GPa) = 63.09799 64.39481 63.74640
# Shear Modulus (GPa) = 7.98024 21.44112 14.71068
#
# Velocity S-wave (km/s) = 1.99388 3.26824 2.70712
# Velocity P-wave (km/s) = 6.06090 6.80601 6.44423
#
# Compressibility (1/GPa) = 0.01584837
#
# Stress axis : x y z
#
# Youngs Moduli (GPa) = 50.53620 104.33158 70.02223
#
# Poissons Ratio (x) = 0.46449 0.56690
# Poissons Ratio (y) = 0.22499 0.09486
# Poissons Ratio (z) = 0.40914 0.14133
#
# Static dielectric constant tensor:
#      x y z
#    x 3.683360 0.000000 0.000000 
#    y 0.000000 3.634640 0.000000 
#    z 0.000000 0.000000 3.861360 
# 
# 
# High freq. dielectric constant tensor:
#      x y z
#    x 1.785950 0.000000 0.000000 
#    y 0.000000 1.804270 0.000000 
#    z 0.000000 0.000000 1.806230 
# 
# From -- ./inp_files/6139.got.cif
#   From: 2010.06.25/outbox.cif.g09.slc.cpg/sg71_4_cif.got.tgz:6139.got - 2010.06.28 04:59:45.
