data_PCOD8291744
_publ_section_title
;
Structure prediction by ZEFSAII (Michael W. Deem and Ramdas Pophale) SiO2 
 PCOD8291744
Probable space group: I M M M
;
_chemical_formula_sum "Si O2"
_cell_formula_units_Z 104
_cell_length_a 27.371019
_cell_length_b 17.287902
_cell_length_c 9.123566
_cell_angle_alpha 90.000000
_cell_angle_beta 90.000000
_cell_angle_gamma 90.000000
_cell_volume 4317.157333
_symmetry_space_group_name_H-M "I M M M"
_symmetry_group_IT_number 71
_symmetry_cell_setting 'orthorhombic'
loop_
_space_group_symop_operation_xyz
x,y,z
-x,-y,z
x,-y,-z
-x,y,-z
-x,-y,-z
x,y,-z
-x,y,z
x,-y,z
1/2+x,1/2+y,1/2+z
1/2-x,1/2-y,1/2+z
1/2+x,1/2-y,1/2-z
1/2-x,1/2+y,1/2-z
1/2-x,1/2-y,1/2-z
1/2+x,1/2+y,1/2-z
1/2-x,1/2+y,1/2+z
1/2+x,1/2-y,1/2+z
loop_
_atom_site_type_symbol
_atom_site_label
_atom_site_fract_x
_atom_site_fract_y
_atom_site_fract_z
Si Si1 0.799869 0.871491 0.666202
Si Si2 0.853172 0.273981 0.332126
Si Si3 0.393988 0.588953 0.661406
Si Si4 0.944734 0.261045 0.826332
Si Si5 0.000000 0.084465 0.173152
Si Si6 0.193937 0.411335 0.170920
Si Si7 0.057100 0.583252 0.662735
O O1 0.800498 0.900212 0.500000
O O2 0.804446 0.778205 0.679793
O O3 0.847014 0.910662 0.736875
O O4 0.748703 0.898618 0.735794
O O5 0.869659 0.283205 0.500000
O O6 0.895645 0.221693 0.246669
O O7 0.843211 0.358268 0.262752
O O8 0.379931 0.620906 0.500000
O O9 0.411016 0.500000 0.650144
O O10 0.447744 0.629762 0.710954
O O11 0.930246 0.348016 0.773668
O O12 0.000000 0.237586 0.771600
O O13 0.942928 0.258373 0.000000
O O14 0.000000 0.000000 0.251433
O O15 0.000000 0.075847 0.000000
O O16 0.178610 0.500000 0.194096
O O17 0.191917 0.387074 0.000000
O O18 0.078364 0.601439 0.500000
O O19 0.077858 0.500000 0.719914
O O20 0.000000 0.575759 0.649899
#
# Coordination Sequence:
#
# PCOD8291744 Si02
#       7
#    16  16  16  16   8  16  16
#     4  10  22  40  61  89 123 161 200 243 305 368
#     4  11  24  41  62  89 123 163 204 250 304 363
#     4   9  17  31  55  86 120 161 208 255 301 354
#     4  10  21  37  57  81 112 154 203 249 293 348
#     4   7  12  26  47  75 115 159 202 249 298 345
#     4  10  22  42  68  94 121 154 194 248 312 373
#     4   8  14  26  46  72 101 135 177 227 284 341
#
# _framework density 24.089925000000001
#
# number of rings (size 3 to 8) (size 9 to 14) (size 15 to 20)
#    0.000    2.538    0.000    3.231    0.000    4.923 
#    1.385    1.923    0.000    1.385    0.000    0.000 
#    0.000    0.000    0.000    0.000    0.000    0.000 
#
# Total GULP energy -644189.378619 kJ/mol
# GULP energy per Si atom -12388.257281 kJ/mol
# Density = 2.403510 g / cm^3
# Si number density = 24.089925 Si / 1000 Ang^3
#
#
#
# Elastic Constant Matrix: (Units=GPa)
#
#
# Indices 1 2 3 4 5 6 
#
# 1 160.3299 32.6118 54.9827 0.0000 0.0000 0.0000
# 2 32.6118 53.3726 19.6445 0.0000 0.0000 0.0000
# 3 54.9827 19.6445 89.9494 0.0000 0.0000 0.0000
# 4 0.0000 0.0000 0.0000 5.8366 0.0000 0.0000
# 5 0.0000 0.0000 0.0000 0.0000 31.6899 0.0000
# 6 0.0000 0.0000 0.0000 0.0000 0.0000 38.9276
#
#
#
# Elastic Compliance Matrix: (Units=1/GPa)
#
#
# Indices 1 2 3 4 5 6 
#
# 1 0.008469 -0.003555 -0.004401 0.000000 0.000000 0.000000
# 2 -0.003555 0.021866 -0.002602 0.000000 0.000000 0.000000
# 3 -0.004401 -0.002602 0.014376 0.000000 0.000000 0.000000
# 4 0.000000 0.000000 0.000000 0.171334 0.000000 0.000000
# 5 0.000000 0.000000 0.000000 0.000000 0.031556 0.000000
# 6 0.000000 0.000000 0.000000 0.000000 0.000000 0.025689
#
#
# Mechanical properties :
#
#
# Convention : Reuss Voigt Hill
#
# Bulk Modulus (GPa) = 42.38176 57.57000 49.97588
# Shear Modulus (GPa) = 16.54143 28.38499 22.46321
#
# Velocity S-wave (km/s) = 2.62325 3.43635 3.05696
# Velocity P-wave (km/s) = 5.17751 6.30036 5.76633
#
# Compressibility (1/GPa) = 0.02359506
#
# Stress axis : x y z
#
# Youngs Moduli (GPa) = 118.07195 45.73232 69.56225
#
# Poissons Ratio (x) = 0.16259 0.30611
# Poissons Ratio (y) = 0.41978 0.18102
# Poissons Ratio (z) = 0.51959 0.11901
#
# Static dielectric constant tensor:
#      x y z
#    x 4.667450 0.000000 0.000000 
#    y 0.000000 5.480440 0.000000 
#    z 0.000000 0.000000 3.943430 
# 
# 
# High freq. dielectric constant tensor:
#      x y z
#    x 1.985200 0.000000 0.000000 
#    y 0.000000 1.997960 0.000000 
#    z 0.000000 0.000000 1.910710 
# 
# From -- ./inp_files/17016.got.cif
#   From: 2010.06.25/outbox.cif.g09.slc.cpg/sg71_9_cif.got.tgz:17016.got - 2010.06.28 04:59:45.
