data_PCOD8291533
_publ_section_title
;
Structure prediction by ZEFSAII (Michael W. Deem and Ramdas Pophale) SiO2 
 PCOD8291533
Probable space group: I M M M
;
_chemical_formula_sum "Si O2"
_cell_formula_units_Z 104
_cell_length_a 8.550115
_cell_length_b 21.180333
_cell_length_c 28.392919
_cell_angle_alpha 90.000000
_cell_angle_beta 90.000000
_cell_angle_gamma 90.000000
_cell_volume 5141.795305
_symmetry_space_group_name_H-M "I M M M"
_symmetry_group_IT_number 71
_symmetry_cell_setting 'orthorhombic'
loop_
_space_group_symop_operation_xyz
x,y,z
-x,-y,z
x,-y,-z
-x,y,-z
-x,-y,-z
x,y,-z
-x,y,z
x,-y,z
1/2+x,1/2+y,1/2+z
1/2-x,1/2-y,1/2+z
1/2+x,1/2-y,1/2-z
1/2-x,1/2+y,1/2-z
1/2-x,1/2-y,1/2-z
1/2+x,1/2+y,1/2-z
1/2-x,1/2+y,1/2+z
1/2+x,1/2-y,1/2+z
loop_
_atom_site_type_symbol
_atom_site_label
_atom_site_fract_x
_atom_site_fract_y
_atom_site_fract_z
Si Si1 0.684384 0.500000 0.446046
Si Si2 0.185087 0.430128 0.272921
Si Si3 0.814797 0.571446 0.901057
Si Si4 0.182490 0.599895 0.375616
Si Si5 0.314866 0.849932 0.688298
Si Si6 0.322642 0.317554 0.946630
Si Si7 0.180692 0.234764 0.870075
O O1 0.500000 0.500000 0.447786
O O2 0.750256 0.500000 0.500000
O O3 0.738092 0.436888 0.418792
O O4 0.228444 0.500000 0.253755
O O5 0.253330 0.423141 0.325608
O O6 0.255157 0.376032 0.237961
O O7 0.000000 0.421704 0.275617
O O8 0.755725 0.500000 0.902564
O O9 0.758511 0.602011 0.851895
O O10 0.728500 0.609220 0.942802
O O11 0.000000 0.575976 0.907594
O O12 0.211064 0.674410 0.377346
O O13 0.000000 0.585311 0.379277
O O14 0.500000 0.852158 0.690842
O O15 0.264312 0.777772 0.675137
O O16 0.500000 0.308335 0.928342
O O17 0.200741 0.276993 0.916399
O O18 0.308521 0.294802 0.000000
O O19 0.000000 0.214565 0.865160
#
# Coordination Sequence:
#
# PCOD8291533 Si02
#       7
#     8  16  16  16  16  16  16
#     4  11  25  45  67  89 115 149 189 237 292 347
#     4   9  16  29  53  85 117 150 188 227 272 328
#     4   9  17  30  50  77 108 145 187 230 275 324
#     4  11  22  38  61  90 118 148 183 225 282 340
#     4   8  15  29  51  80 113 150 191 229 268 321
#     4  10  21  36  53  74 102 139 183 234 289 338
#     4  10  21  37  57  82 112 149 189 233 282 334
#
# _framework density 20.226396999999999
#
# number of rings (size 3 to 8) (size 9 to 14) (size 15 to 20)
#    0.000    2.385    0.769    3.000    0.000    5.538 
#    0.000    1.538    0.000    8.308    0.000    0.000 
#    0.000    0.000    0.000    0.000    0.000    0.000 
#
# Total GULP energy -644499.634512 kJ/mol
# GULP energy per Si atom -12394.223741 kJ/mol
# Density = 2.018036 g / cm^3
# Si number density = 20.226397 Si / 1000 Ang^3
#
#
#
# Elastic Constant Matrix: (Units=GPa)
#
#
# Indices 1 2 3 4 5 6 
#
# 1 33.5888 10.7061 20.9401 0.0000 0.0000 0.0000
# 2 10.7061 123.3629 50.7381 0.0000 0.0000 0.0000
# 3 20.9401 50.7381 125.6596 0.0000 0.0000 0.0000
# 4 0.0000 0.0000 0.0000 24.7767 0.0000 0.0000
# 5 0.0000 0.0000 0.0000 0.0000 16.7511 0.0000
# 6 0.0000 0.0000 0.0000 0.0000 0.0000 25.3033
#
#
#
# Elastic Compliance Matrix: (Units=1/GPa)
#
#
# Indices 1 2 3 4 5 6 
#
# 1 0.033278 -0.000728 -0.005251 0.000000 0.000000 0.000000
# 2 -0.000728 0.009736 -0.003810 0.000000 0.000000 0.000000
# 3 -0.005251 -0.003810 0.010371 0.000000 0.000000 0.000000
# 4 0.000000 0.000000 0.000000 0.040360 0.000000 0.000000
# 5 0.000000 0.000000 0.000000 0.000000 0.059698 0.000000
# 6 0.000000 0.000000 0.000000 0.000000 0.000000 0.039521
#
#
# Mechanical properties :
#
#
# Convention : Reuss Voigt Hill
#
# Bulk Modulus (GPa) = 29.58008 49.70888 39.64448
# Shear Modulus (GPa) = 22.34015 26.71469 24.52742
#
# Velocity S-wave (km/s) = 3.32701 3.63820 3.48608
# Velocity P-wave (km/s) = 5.42355 6.50217 5.98720
#
# Compressibility (1/GPa) = 0.03380654
#
# Stress axis : x y z
#
# Youngs Moduli (GPa) = 30.05004 102.70789 96.41835
#
# Poissons Ratio (x) = 0.07479 0.50634
# Poissons Ratio (y) = 0.02188 0.36735
# Poissons Ratio (z) = 0.15781 0.39131
#
# Static dielectric constant tensor:
#      x y z
#    x 3.329810 0.000000 0.000000 
#    y 0.000000 3.780870 0.000000 
#    z 0.000000 0.000000 3.885830 
# 
# 
# High freq. dielectric constant tensor:
#      x y z
#    x 1.757700 0.000000 0.000000 
#    y 0.000000 1.795600 0.000000 
#    z 0.000000 0.000000 1.787150 
# 
# From -- ./inp_files/68246.got.cif
#   From: 2010.06.25/outbox.cif.g09.slc.cpg/sg71_35_cif.got.tgz:68246.got - 2010.06.28 04:59:45.
