data_PCOD8291478
_publ_section_title
;
Structure prediction by ZEFSAII (Michael W. Deem and Ramdas Pophale) SiO2 
 PCOD8291478
Probable space group: I M M M
;
_chemical_formula_sum "Si O2"
_cell_formula_units_Z 88
_cell_length_a 9.135254
_cell_length_b 27.832851
_cell_length_c 18.828645
_cell_angle_alpha 90.000000
_cell_angle_beta 90.000000
_cell_angle_gamma 90.000000
_cell_volume 4787.374355
_symmetry_space_group_name_H-M "I M M M"
_symmetry_group_IT_number 71
_symmetry_cell_setting 'orthorhombic'
loop_
_space_group_symop_operation_xyz
x,y,z
-x,-y,z
x,-y,-z
-x,y,-z
-x,-y,-z
x,y,-z
-x,y,z
x,-y,z
1/2+x,1/2+y,1/2+z
1/2-x,1/2-y,1/2+z
1/2+x,1/2-y,1/2-z
1/2-x,1/2+y,1/2-z
1/2-x,1/2-y,1/2-z
1/2+x,1/2+y,1/2-z
1/2-x,1/2+y,1/2+z
1/2+x,1/2-y,1/2+z
loop_
_atom_site_type_symbol
_atom_site_label
_atom_site_fract_x
_atom_site_fract_y
_atom_site_fract_z
Si Si1 0.331063 0.946626 0.771027
Si Si2 0.667175 0.846502 0.169256
Si Si3 0.160573 0.444879 0.000000
Si Si4 0.326335 0.588314 0.136434
Si Si5 0.830095 0.317308 0.827033
Si Si6 0.671704 0.726707 0.419618
O O1 0.500000 0.939207 0.747525
O O2 0.288577 0.903080 0.824163
O O3 0.230593 0.943139 0.702081
O O4 0.308724 0.000000 0.805363
O O5 0.500000 0.841868 0.146247
O O6 0.695800 0.817145 0.242322
O O7 0.761214 0.823551 0.106410
O O8 0.258711 0.433258 0.066686
O O9 0.124484 0.500000 0.000000
O O10 0.000000 0.418293 0.000000
O O11 0.500000 0.585743 0.134005
O O12 0.274449 0.643004 0.139898
O O13 0.779876 0.268067 0.864472
O O14 0.000000 0.328813 0.844022
O O15 0.725270 0.738426 0.500000
O O16 0.500000 0.720033 0.418474
#
# Coordination Sequence:
#
# PCOD8291478 Si02
#       6
#    16  16   8  16  16  16
#     4   9  18  35  57  78 102 135 175 213 257 319
#     4   9  18  33  54  80 106 135 173 219 266 312
#     4  11  23  37  51  65  93 143 187 217 260 315
#     4  11  22  33  49  77 107 132 170 223 270 309
#     4   9  19  36  55  75 102 141 183 215 255 316
#     4  10  21  35  53  78 106 140 179 217 262 319
#
# _framework density 18.381684
#
# number of rings (size 3 to 8) (size 9 to 14) (size 15 to 20)
#    0.000    2.273    0.000    4.091    1.273    7.273 
#    0.000    0.000    0.000    0.545    0.000    3.818 
#    0.000    0.000    0.000    0.000    0.000    0.000 
#
# Total GULP energy -545425.994924 kJ/mol
# GULP energy per Si atom -12396.045339 kJ/mol
# Density = 1.833985 g / cm^3
# Si number density = 18.381684 Si / 1000 Ang^3
#
#
#
# Elastic Constant Matrix: (Units=GPa)
#
#
# Indices 1 2 3 4 5 6 
#
# 1 76.5522 30.9001 23.8304 0.0002 0.0000 0.0000
# 2 30.9001 119.9536 42.7951 0.0001 0.0000 0.0000
# 3 23.8304 42.7951 58.9783 0.0004 0.0000 0.0000
# 4 0.0002 0.0001 0.0004 29.8561 0.0000 0.0000
# 5 0.0000 0.0000 0.0000 0.0000 30.3737 0.0000
# 6 0.0000 0.0000 0.0000 0.0000 0.0000 18.6651
#
#
#
# Elastic Compliance Matrix: (Units=1/GPa)
#
#
# Indices 1 2 3 4 5 6 
#
# 1 0.015422 -0.002361 -0.004518 0.000000 0.000000 0.000000
# 2 -0.002361 0.011610 -0.007470 0.000000 0.000000 0.000000
# 3 -0.004518 -0.007470 0.024202 0.000000 0.000000 0.000000
# 4 0.000000 0.000000 0.000000 0.033494 0.000000 0.000000
# 5 0.000000 0.000000 0.000000 0.000000 0.032923 0.000000
# 6 0.000000 0.000000 0.000000 0.000000 0.000000 0.053576
#
#
# Mechanical properties :
#
#
# Convention : Reuss Voigt Hill
#
# Bulk Modulus (GPa) = 44.37590 50.05948 47.21769
# Shear Modulus (GPa) = 24.10360 26.30954 25.20657
#
# Velocity S-wave (km/s) = 3.62509 3.78735 3.70711
# Velocity P-wave (km/s) = 6.45875 6.81306 6.63827
#
# Compressibility (1/GPa) = 0.02253475
#
# Stress axis : x y z
#
# Youngs Moduli (GPa) = 64.84035 86.13381 41.31954
#
# Poissons Ratio (x) = 0.20335 0.18670
# Poissons Ratio (y) = 0.15308 0.30867
# Poissons Ratio (z) = 0.29298 0.64345
#
# Static dielectric constant tensor:
#      x y z
#    x 3.321340 0.000000 0.000000 
#    y 0.000000 3.539070 0.000000 
#    z 0.000000 0.000000 3.511110 
# 
# 
# High freq. dielectric constant tensor:
#      x y z
#    x 1.710110 0.000000 0.000000 
#    y 0.000000 1.718320 0.000000 
#    z 0.000000 0.000000 1.686690 
# 
# From -- ./inp_files/8815.got.cif
#   From: 2010.06.25/outbox.cif.g09.slc.cpg/sg71_5_cif.got.tgz:8815.got - 2010.06.28 04:59:45.
