data_PCOD8291497
_publ_section_title
;
Structure prediction by ZEFSAII (Michael W. Deem and Ramdas Pophale) SiO2 
 PCOD8291497
Probable space group: I M M M
;
_chemical_formula_sum "Si O2"
_cell_formula_units_Z 96
_cell_length_a 21.566880
_cell_length_b 24.481029
_cell_length_c 9.184254
_cell_angle_alpha 90.000000
_cell_angle_beta 90.000000
_cell_angle_gamma 90.000000
_cell_volume 4849.097052
_symmetry_space_group_name_H-M "I M M M"
_symmetry_group_IT_number 71
_symmetry_cell_setting 'orthorhombic'
loop_
_space_group_symop_operation_xyz
x,y,z
-x,-y,z
x,-y,-z
-x,y,-z
-x,-y,-z
x,y,-z
-x,y,z
x,-y,z
1/2+x,1/2+y,1/2+z
1/2-x,1/2-y,1/2+z
1/2+x,1/2-y,1/2-z
1/2-x,1/2+y,1/2-z
1/2-x,1/2-y,1/2-z
1/2+x,1/2+y,1/2-z
1/2-x,1/2+y,1/2+z
1/2+x,1/2-y,1/2+z
loop_
_atom_site_type_symbol
_atom_site_label
_atom_site_fract_x
_atom_site_fract_y
_atom_site_fract_z
Si Si1 0.635225 0.438753 0.331160
Si Si2 0.094324 0.439200 0.332426
Si Si3 0.228753 0.403707 0.333801
Si Si4 0.402554 0.336528 0.834909
Si Si5 0.000000 0.763623 0.173246
Si Si6 0.760883 0.196360 0.662367
Si Si7 0.000000 0.364349 0.172064
O O1 0.624426 0.424615 0.500000
O O2 0.612483 0.500000 0.294900
O O3 0.708570 0.436120 0.292900
O O4 0.594090 0.396782 0.236913
O O5 0.079110 0.425439 0.500000
O O6 0.069986 0.500000 0.293115
O O7 0.168320 0.440345 0.306064
O O8 0.061103 0.393715 0.234813
O O9 0.232248 0.383683 0.500000
O O10 0.220434 0.351036 0.233593
O O11 0.440043 0.292608 0.741110
O O12 0.332582 0.317526 0.833466
O O13 0.428477 0.339677 0.000000
O O14 0.000000 0.699566 0.216092
O O15 0.000000 0.771311 0.000000
O O16 0.736132 0.204794 0.500000
O O17 0.750000 0.250000 0.750000
O O18 0.000000 0.371248 0.000000
#
# Coordination Sequence:
#
# PCOD8291497 Si02
#       7
#    16  16  16  16   8  16   8
#     4   9  17  33  59  89 121 155 188 225 276 339
#     4  10  21  38  60  85 114 150 193 237 282 338
#     4   9  18  33  55  85 117 150 188 230 278 333
#     4  10  22  39  59  85 115 150 190 237 288 336
#     4  11  25  44  63  82 110 150 195 243 292 345
#     4  10  21  35  54  82 116 151 188 231 282 339
#     4  11  26  42  57  81 109 146 193 244 296 343
#
# _framework density 19.797499999999999
#
# number of rings (size 3 to 8) (size 9 to 14) (size 15 to 20)
#    0.000    2.167    0.000    2.250    2.333    7.667 
#    0.000    0.417    0.000    5.500    0.000    0.000 
#    0.000    0.000    0.000    0.000    0.000    0.000 
#
# Total GULP energy -595158.496381 kJ/mol
# GULP energy per Si atom -12399.135341 kJ/mol
# Density = 1.975244 g / cm^3
# Si number density = 19.797500 Si / 1000 Ang^3
#
#
#
# Elastic Constant Matrix: (Units=GPa)
#
#
# Indices 1 2 3 4 5 6 
#
# 1 58.1767 34.1833 28.3587 0.0000 0.0000 0.0000
# 2 34.1833 162.1791 81.3329 0.0000 0.0000 0.0000
# 3 28.3587 81.3329 118.6481 0.0000 0.0000 0.0000
# 4 0.0000 0.0000 0.0000 36.2727 0.0000 0.0000
# 5 0.0000 0.0000 0.0000 0.0000 27.0496 0.0000
# 6 0.0000 0.0000 0.0000 0.0000 0.0000 24.4507
#
#
#
# Elastic Compliance Matrix: (Units=1/GPa)
#
#
# Indices 1 2 3 4 5 6 
#
# 1 0.020261 -0.002807 -0.002919 0.000000 0.000000 0.000000
# 2 -0.002807 0.009785 -0.006037 0.000000 0.000000 0.000000
# 3 -0.002919 -0.006037 0.013264 0.000000 0.000000 0.000000
# 4 0.000000 0.000000 0.000000 0.027569 0.000000 0.000000
# 5 0.000000 0.000000 0.000000 0.000000 0.036969 0.000000
# 6 0.000000 0.000000 0.000000 0.000000 0.000000 0.040899
#
#
# Mechanical properties :
#
#
# Convention : Reuss Voigt Hill
#
# Bulk Modulus (GPa) = 50.54157 69.63931 60.09044
# Shear Modulus (GPa) = 27.95385 30.56321 29.25853
#
# Velocity S-wave (km/s) = 3.76172 3.93337 3.84850
# Velocity P-wave (km/s) = 6.66724 7.47534 7.08283
#
# Compressibility (1/GPa) = 0.01978569
#
# Stress axis : x y z
#
# Youngs Moduli (GPa) = 49.35603 102.19656 75.39176
#
# Poissons Ratio (x) = 0.28685 0.22004
# Poissons Ratio (y) = 0.13853 0.45512
# Poissons Ratio (z) = 0.14405 0.61694
#
# Static dielectric constant tensor:
#      x y z
#    x 3.353550 0.000000 0.000000 
#    y 0.000000 7.064150 0.000000 
#    z 0.000000 0.000000 3.771480 
# 
# 
# High freq. dielectric constant tensor:
#      x y z
#    x 1.764740 0.000000 0.000000 
#    y 0.000000 1.778720 0.000000 
#    z 0.000000 0.000000 1.771900 
# 
# From -- ./inp_files/12879.got.cif
#   From: 2010.06.25/outbox.cif.g09.slc.cpg/sg71_7_cif.got.tgz:12879.got - 2010.06.28 04:59:45.
