data_PCOD8291388
_publ_section_title
;
Structure prediction by ZEFSAII (Michael W. Deem and Ramdas Pophale) SiO2 
 PCOD8291388
Probable space group: I M M M
;
_chemical_formula_sum "Si O2"
_cell_formula_units_Z 120
_cell_length_a 13.823190
_cell_length_b 19.783940
_cell_length_c 23.068549
_cell_angle_alpha 90.000000
_cell_angle_beta 90.000000
_cell_angle_gamma 90.000000
_cell_volume 6308.721302
_symmetry_space_group_name_H-M "I M M M"
_symmetry_group_IT_number 71
_symmetry_cell_setting 'orthorhombic'
loop_
_space_group_symop_operation_xyz
x,y,z
-x,-y,z
x,-y,-z
-x,y,-z
-x,-y,-z
x,y,-z
-x,y,z
x,-y,z
1/2+x,1/2+y,1/2+z
1/2-x,1/2-y,1/2+z
1/2+x,1/2-y,1/2-z
1/2-x,1/2+y,1/2-z
1/2-x,1/2-y,1/2-z
1/2+x,1/2+y,1/2-z
1/2-x,1/2+y,1/2+z
1/2+x,1/2-y,1/2+z
loop_
_atom_site_type_symbol
_atom_site_label
_atom_site_fract_x
_atom_site_fract_y
_atom_site_fract_z
Si Si1 0.395116 0.645227 0.932500
Si Si2 0.789216 0.578465 0.157618
Si Si3 0.611970 0.670545 0.567478
Si Si4 0.392873 0.579962 0.775266
Si Si5 0.884989 0.000000 0.436945
Si Si6 0.305675 0.187666 0.566966
Si Si7 0.291578 0.579607 0.658943
Si Si8 0.605450 0.077870 0.223544
O O1 0.500000 0.668349 0.906892
O O2 0.358542 0.571668 0.904736
O O3 0.310796 0.700211 0.924036
O O4 0.409619 0.628968 0.000000
O O5 0.777059 0.500000 0.137101
O O6 0.688621 0.611797 0.182743
O O7 0.834295 0.623089 0.105600
O O8 0.865833 0.584053 0.209435
O O9 0.636693 0.662751 0.500000
O O10 0.500000 0.656364 0.580334
O O11 0.638034 0.746246 0.588377
O O12 0.678169 0.616977 0.600435
O O13 0.500000 0.608017 0.790629
O O14 0.387318 0.500000 0.784409
O O15 0.370410 0.596505 0.708291
O O16 0.834817 0.000000 0.500000
O O17 0.000000 0.000000 0.441725
O O18 0.330303 0.171456 0.500000
O O19 0.288044 0.500000 0.646066
O O20 0.187374 0.608184 0.680682
O O21 0.500000 0.112813 0.213677
O O22 0.597571 0.000000 0.207135
#
# Coordination Sequence:
#
# PCOD8291388 Si02
#       8
#    16  16  16  16   8  16  16  16
#     4   8  14  25  41  61  86 120 166 216 260 301
#     4   9  18  30  47  74 101 132 181 227 257 296
#     4  10  22  39  55  74 106 143 172 204 256 312
#     4   8  14  27  48  76 110 138 160 205 274 325
#     4   7  10  18  34  58  83 105 143 205 262 294
#     4  10  21  34  47  65  98 146 188 220 261 311
#     4   9  17  32  59  89 107 126 165 207 248 314
#     4   8  15  31  55  81 109 135 158 199 261 314
#
# _framework density 19.021287000000001
#
# number of rings (size 3 to 8) (size 9 to 14) (size 15 to 20)
#    0.000    3.267    0.000    2.800    0.933    2.400 
#    0.000    4.000    0.000    2.800    0.000    5.600 
#    0.000    0.000    0.000    0.000    0.000    0.000 
#
# Total GULP energy -743343.061531 kJ/mol
# GULP energy per Si atom -12389.051026 kJ/mol
# Density = 1.897799 g / cm^3
# Si number density = 19.021287 Si / 1000 Ang^3
#
#
#
# Elastic Constant Matrix: (Units=GPa)
#
#
# Indices 1 2 3 4 5 6 
#
# 1 101.5102 28.0438 35.1389 0.0000 0.0000 0.0000
# 2 28.0438 58.7251 46.2023 0.0000 0.0000 0.0000
# 3 35.1389 46.2023 80.9575 0.0000 0.0000 0.0000
# 4 0.0000 0.0000 0.0000 22.6452 0.0000 0.0000
# 5 0.0000 0.0000 0.0000 0.0000 4.1074 0.0000
# 6 0.0000 0.0000 0.0000 0.0000 0.0000 24.8549
#
#
#
# Elastic Compliance Matrix: (Units=1/GPa)
#
#
# Indices 1 2 3 4 5 6 
#
# 1 0.011864 -0.002930 -0.003478 0.000000 0.000000 0.000000
# 2 -0.002930 0.031628 -0.016779 0.000000 0.000000 0.000000
# 3 -0.003478 -0.016779 0.023437 0.000000 0.000000 0.000000
# 4 0.000000 0.000000 0.000000 0.044159 0.000000 0.000000
# 5 0.000000 0.000000 0.000000 0.000000 0.243462 0.000000
# 6 0.000000 0.000000 0.000000 0.000000 0.000000 0.040234
#
#
# Mechanical properties :
#
#
# Convention : Reuss Voigt Hill
#
# Bulk Modulus (GPa) = 48.64317 51.10698 49.87507
# Shear Modulus (GPa) = 11.16048 19.10868 15.13458
#
# Velocity S-wave (km/s) = 2.42489 3.17297 2.82381
# Velocity P-wave (km/s) = 5.78521 6.35219 6.07532
#
# Compressibility (1/GPa) = 0.02055787
#
# Stress axis : x y z
#
# Youngs Moduli (GPa) = 84.28543 31.61738 42.66741
#
# Poissons Ratio (x) = 0.09263 0.14838
# Poissons Ratio (y) = 0.24693 0.71590
# Poissons Ratio (z) = 0.29312 0.53049
#
# Static dielectric constant tensor:
#      x y z
#    x 3.881540 0.000000 0.000000 
#    y 0.000000 3.032610 0.000000 
#    z 0.000000 0.000000 3.431340 
# 
# 
# High freq. dielectric constant tensor:
#      x y z
#    x 1.744520 0.000000 0.000000 
#    y 0.000000 1.681060 0.000000 
#    z 0.000000 0.000000 1.740300 
# 
# From -- ./inp_files/53424.got.cif
#   From: 2010.06.25/outbox.cif.g09.slc.cpg/sg71_27_cif.got.tgz:53424.got - 2010.06.28 04:59:45.
