data_PCOD8291093
_publ_section_title
;
Structure prediction by ZEFSAII (Michael W. Deem and Ramdas Pophale) SiO2 
 PCOD8291093
Probable space group: I M M M
;
_chemical_formula_sum "Si O2"
_cell_formula_units_Z 88
_cell_length_a 24.219496
_cell_length_b 23.593057
_cell_length_c 8.021284
_cell_angle_alpha 90.000000
_cell_angle_beta 90.000000
_cell_angle_gamma 90.000000
_cell_volume 4583.457529
_symmetry_space_group_name_H-M "I M M M"
_symmetry_group_IT_number 71
_symmetry_cell_setting 'orthorhombic'
loop_
_space_group_symop_operation_xyz
x,y,z
-x,-y,z
x,-y,-z
-x,y,-z
-x,-y,-z
x,y,-z
-x,y,z
x,-y,z
1/2+x,1/2+y,1/2+z
1/2-x,1/2-y,1/2+z
1/2+x,1/2-y,1/2-z
1/2-x,1/2+y,1/2-z
1/2-x,1/2-y,1/2-z
1/2+x,1/2+y,1/2-z
1/2-x,1/2+y,1/2+z
1/2+x,1/2-y,1/2+z
loop_
_atom_site_type_symbol
_atom_site_label
_atom_site_fract_x
_atom_site_fract_y
_atom_site_fract_z
Si Si1 0.267868 0.937533 0.804569
Si Si2 0.878037 0.620224 0.691058
Si Si3 0.436761 0.224785 0.690621
Si Si4 0.438483 0.344817 0.190048
Si Si5 0.438650 0.066585 0.500000
Si Si6 0.853731 0.934254 0.193126
O O1 0.313654 0.890159 0.761128
O O2 0.207580 0.919857 0.734626
O O3 0.285357 0.000000 0.733913
O O4 0.259824 0.943888 0.000000
O O5 0.888793 0.599002 0.500000
O O6 0.894735 0.686225 0.702327
O O7 0.912422 0.585759 0.826073
O O8 0.431794 0.204796 0.500000
O O9 0.500000 0.217817 0.754869
O O10 0.418298 0.290174 0.705414
O O11 0.500000 0.363189 0.248887
O O12 0.397986 0.397463 0.208728
O O13 0.439447 0.325122 0.000000
O O14 0.500000 0.091868 0.500000
O O15 0.437981 0.000000 0.500000
O O16 0.867221 0.000000 0.224345
O O17 0.858673 0.918460 0.000000
#
# Coordination Sequence:
#
# PCOD8291093 Si02
#       6
#    16  16  16  16   8  16
#     4   8  16  33  56  80 107 143 187 233 279 333
#     4  11  21  36  59  83 112 151 195 237 290 338
#     4  10  20  36  57  80 108 144 190 239 283 337
#     4  10  21  36  54  80 113 146 183 228 281 342
#     4  11  24  38  52  80 118 150 190 242 288 338
#     4   9  18  35  58  82 110 144 184 230 280 337
#
# _framework density 19.199480000000001
#
# number of rings (size 3 to 8) (size 9 to 14) (size 15 to 20)
#    0.000    2.273    0.909    3.273    0.000    5.091 
#    1.636    3.636    0.000    0.000    0.000    0.000 
#    0.000    0.000    0.000    0.000    0.000    0.000 
#
# Total GULP energy -545368.111826 kJ/mol
# GULP energy per Si atom -12394.729814 kJ/mol
# Density = 1.915578 g / cm^3
# Si number density = 19.199480 Si / 1000 Ang^3
#
#
#
# Elastic Constant Matrix: (Units=GPa)
#
#
# Indices 1 2 3 4 5 6 
#
# 1 138.2635 75.8641 34.3835 0.0000 0.0000 0.0000
# 2 75.8641 94.7937 22.4820 0.0000 0.0000 0.0000
# 3 34.3835 22.4820 74.3733 0.0000 0.0000 0.0000
# 4 0.0000 0.0000 0.0000 27.1328 0.0000 0.0000
# 5 0.0000 0.0000 0.0000 0.0000 23.2130 0.0000
# 6 0.0000 0.0000 0.0000 0.0000 0.0000 34.9855
#
#
#
# Elastic Compliance Matrix: (Units=1/GPa)
#
#
# Indices 1 2 3 4 5 6 
#
# 1 0.013576 -0.010101 -0.003223 0.000000 0.000000 0.000000
# 2 -0.010101 0.018879 -0.001037 0.000000 0.000000 0.000000
# 3 -0.003223 -0.001037 0.015249 0.000000 0.000000 0.000000
# 4 0.000000 0.000000 0.000000 0.036856 0.000000 0.000000
# 5 0.000000 0.000000 0.000000 0.000000 0.043079 0.000000
# 6 0.000000 0.000000 0.000000 0.000000 0.000000 0.028583
#
#
# Mechanical properties :
#
#
# Convention : Reuss Voigt Hill
#
# Bulk Modulus (GPa) = 52.68038 63.65440 58.16739
# Shear Modulus (GPa) = 26.14070 28.71298 27.42684
#
# Velocity S-wave (km/s) = 3.69390 3.87138 3.78368
# Velocity P-wave (km/s) = 6.75952 7.29449 7.03210
#
# Compressibility (1/GPa) = 0.01898240
#
# Stress axis : x y z
#
# Youngs Moduli (GPa) = 73.65760 52.96906 65.57684
#
# Poissons Ratio (x) = 0.53503 0.21136
# Poissons Ratio (y) = 0.74400 0.06801
# Poissons Ratio (z) = 0.23741 0.05494
#
# Static dielectric constant tensor:
#      x y z
#    x 3.670700 0.000000 0.000000 
#    y 0.000000 3.379160 0.000000 
#    z 0.000000 0.000000 3.394330 
# 
# 
# High freq. dielectric constant tensor:
#      x y z
#    x 1.742270 0.000000 0.000000 
#    y 0.000000 1.738270 0.000000 
#    z 0.000000 0.000000 1.741580 
# 
# From -- ./inp_files/12533.got.cif
#   From: 2010.06.25/outbox.cif.g09.slc.cpg/sg71_7_cif.got.tgz:12533.got - 2010.06.28 04:59:45.
