data_PCOD8291832
_publ_section_title
;
Structure prediction by ZEFSAII (Michael W. Deem and Ramdas Pophale) SiO2 
 PCOD8291832
Probable space group: I M M M
;
_chemical_formula_sum "Si O2"
_cell_formula_units_Z 64
_cell_length_a 10.789283
_cell_length_b 8.118652
_cell_length_c 33.559812
_cell_angle_alpha 90.000000
_cell_angle_beta 90.000000
_cell_angle_gamma 90.000000
_cell_volume 2939.652738
_symmetry_space_group_name_H-M "I M M M"
_symmetry_group_IT_number 71
_symmetry_cell_setting 'orthorhombic'
loop_
_space_group_symop_operation_xyz
x,y,z
-x,-y,z
x,-y,-z
-x,y,-z
-x,-y,-z
x,y,-z
-x,y,z
x,-y,z
1/2+x,1/2+y,1/2+z
1/2-x,1/2-y,1/2+z
1/2+x,1/2-y,1/2-z
1/2-x,1/2+y,1/2-z
1/2-x,1/2-y,1/2-z
1/2+x,1/2+y,1/2-z
1/2-x,1/2+y,1/2+z
1/2+x,1/2-y,1/2+z
loop_
_atom_site_type_symbol
_atom_site_label
_atom_site_fract_x
_atom_site_fract_y
_atom_site_fract_z
Si Si1 0.642476 0.817731 0.000000
Si Si2 0.749803 0.190239 0.078436
Si Si3 0.500000 0.688194 0.791743
Si Si4 0.000000 0.310738 0.794752
Si Si5 0.746681 0.193639 0.166290
Si Si6 0.000000 0.305061 0.953364
O O1 0.680493 0.722009 0.959260
O O2 0.500000 0.841412 0.000000
O O3 0.707080 0.000000 0.000000
O O4 0.716006 0.263625 0.121849
O O5 0.892086 0.217853 0.070325
O O6 0.711163 0.000000 0.079183
O O7 0.500000 0.500000 0.805548
O O8 0.500000 0.697146 0.744161
O O9 0.626353 0.772357 0.806931
O O10 0.873353 0.278220 0.818957
O O11 0.000000 0.500000 0.781342
O O12 0.773235 0.000000 0.165227
O O13 0.000000 0.500000 0.947273
O O14 0.000000 0.258516 0.000000
#
# Coordination Sequence:
#
# PCOD8291832 Si02
#       6
#     8  16   8   8  16   8
#     4   9  18  33  57  86 116 155 206 255 298 347
#     4  10  21  37  62  89 120 160 208 257 302 361
#     4  12  26  45  69  97 130 170 210 259 322 392
#     4  12  25  45  70  96 129 170 212 262 322 389
#     4  11  24  42  66  99 133 168 214 269 321 379
#     4  11  22  35  54  82 120 159 201 254 311 364
#
# _framework density 21.771280000000001
#
# number of rings (size 3 to 8) (size 9 to 14) (size 15 to 20)
#    0.000    1.250    1.250    4.875    1.750    5.500 
#    0.000    0.000    0.000    0.750    0.000    0.000 
#    0.000    0.000    0.000    0.000    0.000    0.000 
#
# Total GULP energy -396562.476247 kJ/mol
# GULP energy per Si atom -12392.577383 kJ/mol
# Density = 2.172173 g / cm^3
# Si number density = 21.771280 Si / 1000 Ang^3
#
#
#
# Elastic Constant Matrix: (Units=GPa)
#
#
# Indices 1 2 3 4 5 6 
#
# 1 128.3594 5.5399 52.1925 0.0000 0.0000 0.0000
# 2 5.5399 43.0316 6.9383 0.0000 0.0000 0.0000
# 3 52.1925 6.9383 180.9153 0.0000 0.0000 0.0000
# 4 0.0000 0.0000 0.0000 99.0156 0.0000 0.0000
# 5 0.0000 0.0000 0.0000 0.0000 27.9016 0.0000
# 6 0.0000 0.0000 0.0000 0.0000 0.0000 21.8966
#
#
#
# Elastic Compliance Matrix: (Units=1/GPa)
#
#
# Indices 1 2 3 4 5 6 
#
# 1 0.008849 -0.000732 -0.002525 0.000000 0.000000 0.000000
# 2 -0.000732 0.023444 -0.000688 0.000000 0.000000 0.000000
# 3 -0.002525 -0.000688 0.006282 0.000000 0.000000 0.000000
# 4 0.000000 0.000000 0.000000 0.010099 0.000000 0.000000
# 5 0.000000 0.000000 0.000000 0.000000 0.035840 0.000000
# 6 0.000000 0.000000 0.000000 0.000000 0.000000 0.045669
#
#
# Mechanical properties :
#
#
# Convention : Reuss Voigt Hill
#
# Bulk Modulus (GPa) = 32.58875 53.51639 43.05257
# Shear Modulus (GPa) = 33.71507 48.93847 41.32677
#
# Velocity S-wave (km/s) = 3.93950 4.74629 4.36159
# Velocity P-wave (km/s) = 5.97445 7.39398 6.72179
#
# Compressibility (1/GPa) = 0.03068544
#
# Stress axis : x y z
#
# Youngs Moduli (GPa) = 113.00962 42.65504 159.18010
#
# Poissons Ratio (x) = 0.03123 0.40189
# Poissons Ratio (y) = 0.08274 0.10950
# Poissons Ratio (z) = 0.28532 0.02934
#
# Static dielectric constant tensor:
#      x y z
#    x 3.854060 0.000000 0.000000 
#    y 0.000000 3.717110 0.000000 
#    z 0.000000 0.000000 4.503250 
# 
# 
# High freq. dielectric constant tensor:
#      x y z
#    x 1.861040 0.000000 0.000000 
#    y 0.000000 1.830250 0.000000 
#    z 0.000000 0.000000 1.881190 
# 
# From -- ./inp_files/68845.got.cif
#   From: 2010.06.25/outbox.cif.g09.slc.cpg/sg71_35_cif.got.tgz:68845.got - 2010.06.28 04:59:45.
