data_PCOD8291508
_publ_section_title
;
Structure prediction by ZEFSAII (Michael W. Deem and Ramdas Pophale) SiO2 
 PCOD8291508
Probable space group: I M M M
;
_chemical_formula_sum "Si O2"
_cell_formula_units_Z 96
_cell_length_a 23.385841
_cell_length_b 12.305904
_cell_length_c 15.693652
_cell_angle_alpha 90.000000
_cell_angle_beta 90.000000
_cell_angle_gamma 90.000000
_cell_volume 4516.380602
_symmetry_space_group_name_H-M "I M M M"
_symmetry_group_IT_number 71
_symmetry_cell_setting 'orthorhombic'
loop_
_space_group_symop_operation_xyz
x,y,z
-x,-y,z
x,-y,-z
-x,y,-z
-x,-y,-z
x,y,-z
-x,y,z
x,-y,z
1/2+x,1/2+y,1/2+z
1/2-x,1/2-y,1/2+z
1/2+x,1/2-y,1/2-z
1/2-x,1/2+y,1/2-z
1/2-x,1/2-y,1/2-z
1/2+x,1/2+y,1/2-z
1/2-x,1/2+y,1/2+z
1/2+x,1/2-y,1/2+z
loop_
_atom_site_type_symbol
_atom_site_label
_atom_site_fract_x
_atom_site_fract_y
_atom_site_fract_z
Si Si1 0.932182 0.000000 0.229291
Si Si2 0.146090 0.000000 0.397315
Si Si3 0.433604 0.686640 0.403402
Si Si4 0.652325 0.120629 0.377521
Si Si5 0.938411 0.629162 0.404346
Si Si6 0.173475 0.620813 0.682289
Si Si7 0.773342 0.802801 0.591452
O O1 0.913573 0.897008 0.170462
O O2 0.904264 0.000000 0.324935
O O3 0.000000 0.000000 0.244025
O O4 0.185700 0.897789 0.375013
O O5 0.126924 0.000000 0.500000
O O6 0.423294 0.640343 0.500000
O O7 0.500000 0.713867 0.390843
O O8 0.399961 0.799318 0.393558
O O9 0.672709 0.115065 0.281661
O O10 0.708856 0.159019 0.425634
O O11 0.633720 0.000000 0.408440
O O12 0.930862 0.672550 0.500000
O O13 0.937992 0.500000 0.402135
O O14 0.886583 0.674675 0.348407
O O15 0.000000 0.670773 0.368321
O O16 0.182722 0.500000 0.643251
O O17 0.224848 0.699150 0.654011
O O18 0.796873 0.763400 0.500000
#
# Coordination Sequence:
#
# PCOD8291508 Si02
#       7
#     8   8  16  16  16  16  16
#     4  10  21  41  68  95 129 165 200 257 321 370
#     4  10  22  40  65  92 119 167 219 253 299 370
#     4  10  22  41  66  95 125 161 208 259 314 373
#     4  11  23  40  61  85 121 163 204 251 308 371
#     4   8  14  27  48  74 108 148 185 226 287 361
#     4  10  21  35  55  86 119 154 197 254 313 367
#     4  11  22  39  60  81 115 160 204 252 305 367
#
# _framework density 21.255959000000001
#
# number of rings (size 3 to 8) (size 9 to 14) (size 15 to 20)
#    0.000    2.000    0.833    3.250    0.000    4.167 
#    1.500    3.333    0.000    1.000    0.000    0.000 
#    0.000    0.000    0.000    0.000    0.000    0.167 
#
# Total GULP energy -594725.893476 kJ/mol
# GULP energy per Si atom -12390.122781 kJ/mol
# Density = 2.120758 g / cm^3
# Si number density = 21.255959 Si / 1000 Ang^3
#
#
#
# Elastic Constant Matrix: (Units=GPa)
#
#
# Indices 1 2 3 4 5 6 
#
# 1 81.0872 53.3607 34.5515 0.0000 0.0000 0.0000
# 2 53.3607 120.5631 49.6745 0.0000 0.0000 0.0000
# 3 34.5515 49.6745 101.8241 0.0000 0.0000 0.0000
# 4 0.0000 0.0000 0.0000 44.8115 0.0000 0.0000
# 5 0.0000 0.0000 0.0000 0.0000 26.5588 0.0000
# 6 0.0000 0.0000 0.0000 0.0000 0.0000 36.8380
#
#
#
# Elastic Compliance Matrix: (Units=1/GPa)
#
#
# Indices 1 2 3 4 5 6 
#
# 1 0.018009 -0.006824 -0.002781 0.000000 0.000000 0.000000
# 2 -0.006824 0.012967 -0.004010 0.000000 0.000000 0.000000
# 3 -0.002781 -0.004010 0.012721 0.000000 0.000000 0.000000
# 4 0.000000 0.000000 0.000000 0.022316 0.000000 0.000000
# 5 0.000000 0.000000 0.000000 0.000000 0.037652 0.000000
# 6 0.000000 0.000000 0.000000 0.000000 0.000000 0.027146
#
#
# Mechanical properties :
#
#
# Convention : Reuss Voigt Hill
#
# Bulk Modulus (GPa) = 60.73715 64.29420 62.51568
# Shear Modulus (GPa) = 30.57518 32.70084 31.63801
#
# Velocity S-wave (km/s) = 3.79678 3.92654 3.86220
# Velocity P-wave (km/s) = 6.91787 7.13234 7.02592
#
# Compressibility (1/GPa) = 0.01646439
#
# Stress axis : x y z
#
# Youngs Moduli (GPa) = 55.52914 77.11751 78.60964
#
# Poissons Ratio (x) = 0.52629 0.21865
# Poissons Ratio (y) = 0.37896 0.31525
# Poissons Ratio (z) = 0.15445 0.30926
#
# Static dielectric constant tensor:
#      x y z
#    x 3.909850 0.000000 0.000000 
#    y 0.000000 3.848690 0.000000 
#    z 0.000000 0.000000 4.033010 
# 
# 
# High freq. dielectric constant tensor:
#      x y z
#    x 1.825510 0.000000 0.000000 
#    y 0.000000 1.822220 0.000000 
#    z 0.000000 0.000000 1.846230 
# 
# From -- ./inp_files/48108.got.cif
#   From: 2010.06.25/outbox.cif.g09.slc.cpg/sg71_25_cif.got.tgz:48108.got - 2010.06.28 04:59:45.
