data_PCOD8291427
_publ_section_title
;
Structure prediction by ZEFSAII (Michael W. Deem and Ramdas Pophale) SiO2 
 PCOD8291427
Probable space group: I M M M
;
_chemical_formula_sum "Si O2"
_cell_formula_units_Z 104
_cell_length_a 22.629723
_cell_length_b 29.356780
_cell_length_c 9.456926
_cell_angle_alpha 90.000000
_cell_angle_beta 90.000000
_cell_angle_gamma 90.000000
_cell_volume 6282.574496
_symmetry_space_group_name_H-M "I M M M"
_symmetry_group_IT_number 71
_symmetry_cell_setting 'orthorhombic'
loop_
_space_group_symop_operation_xyz
x,y,z
-x,-y,z
x,-y,-z
-x,y,-z
-x,-y,-z
x,y,-z
-x,y,z
x,-y,z
1/2+x,1/2+y,1/2+z
1/2-x,1/2-y,1/2+z
1/2+x,1/2-y,1/2-z
1/2-x,1/2+y,1/2-z
1/2-x,1/2-y,1/2-z
1/2+x,1/2+y,1/2-z
1/2-x,1/2+y,1/2+z
1/2+x,1/2-y,1/2+z
loop_
_atom_site_type_symbol
_atom_site_label
_atom_site_fract_x
_atom_site_fract_y
_atom_site_fract_z
Si Si1 0.431235 0.298783 0.664534
Si Si2 0.343247 0.053296 0.336517
Si Si3 0.930809 0.613291 0.335988
Si Si4 0.000000 0.948749 0.168996
Si Si5 0.929780 0.714902 0.656567
Si Si6 0.272266 0.552827 0.664300
Si Si7 0.112348 0.105045 0.167813
O O1 0.422372 0.290332 0.500000
O O2 0.500000 0.307340 0.700567
O O3 0.405141 0.253990 0.740492
O O4 0.394049 0.342536 0.717415
O O5 0.337684 0.067424 0.500000
O O6 0.398090 0.078484 0.265883
O O7 0.283665 0.067669 0.256376
O O8 0.355164 0.000000 0.319140
O O9 0.916271 0.602975 0.500000
O O10 0.909380 0.664480 0.295955
O O11 0.000000 0.607425 0.307430
O O12 0.057936 0.923880 0.230399
O O13 0.000000 0.000000 0.226291
O O14 0.000000 0.947469 0.000000
O O15 0.905552 0.725385 0.500000
O O16 0.000000 0.715516 0.656154
O O17 0.258215 0.562440 0.500000
O O18 0.288845 0.500000 0.687403
O O19 0.326365 0.583494 0.720922
O O20 0.109192 0.102359 0.000000
#
# Coordination Sequence:
#
# PCOD8291427 Si02
#       7
#    16  16  16   8  16  16  16
#     4   9  15  24  40  64  95 126 154 189 236 283
#     4  10  21  35  50  70  97 126 154 187 227 272
#     4   9  18  33  53  76  99 122 149 184 227 272
#     4   9  14  20  34  60  95 127 153 193 248 289
#     4   8  15  28  45  66  93 122 151 184 222 270
#     4   9  17  30  48  67  88 122 167 203 231 271
#     4   9  15  24  39  64  95 123 156 200 242 279
#
# _framework density 16.553723000000002
#
# number of rings (size 3 to 8) (size 9 to 14) (size 15 to 20)
#    0.000    3.000    0.769    1.846    0.000    4.000 
#    0.000    3.846    0.000    0.923    0.000    0.000 
#    0.000    3.692    0.000    0.000    0.000    0.000 
#
# Total GULP energy -644630.054528 kJ/mol
# GULP energy per Si atom -12396.731818 kJ/mol
# Density = 1.651605 g / cm^3
# Si number density = 16.553723 Si / 1000 Ang^3
#
#
#
# Elastic Constant Matrix: (Units=GPa)
#
#
# Indices 1 2 3 4 5 6 
#
# 1 83.4274 57.7306 48.3242 0.0000 0.0000 0.0000
# 2 57.7306 99.3226 51.9967 0.0000 0.0000 0.0000
# 3 48.3242 51.9967 67.8665 0.0000 0.0000 0.0000
# 4 0.0000 0.0000 0.0000 22.8486 0.0000 0.0000
# 5 0.0000 0.0000 0.0000 0.0000 12.6287 0.0000
# 6 0.0000 0.0000 0.0000 0.0000 0.0000 19.1285
#
#
#
# Elastic Compliance Matrix: (Units=1/GPa)
#
#
# Indices 1 2 3 4 5 6 
#
# 1 0.023917 -0.008326 -0.010652 0.000000 0.000000 0.000000
# 2 -0.008326 0.019709 -0.009172 0.000000 0.000000 0.000000
# 3 -0.010652 -0.009172 0.029347 0.000000 0.000000 0.000000
# 4 0.000000 0.000000 0.000000 0.043766 0.000000 0.000000
# 5 0.000000 0.000000 0.000000 0.000000 0.079184 0.000000
# 6 0.000000 0.000000 0.000000 0.000000 0.000000 0.052278
#
#
# Mechanical properties :
#
#
# Convention : Reuss Voigt Hill
#
# Bulk Modulus (GPa) = 59.97191 62.96884 61.47038
# Shear Modulus (GPa) = 16.12597 17.09218 16.60907
#
# Velocity S-wave (km/s) = 3.12454 3.21678 3.17100
# Velocity P-wave (km/s) = 7.02313 7.20546 7.11487
#
# Compressibility (1/GPa) = 0.01667447
#
# Stress axis : x y z
#
# Youngs Moduli (GPa) = 41.81045 50.73784 34.07542
#
# Poissons Ratio (x) = 0.42242 0.36296
# Poissons Ratio (y) = 0.34810 0.31255
# Poissons Ratio (z) = 0.44535 0.46538
#
# Static dielectric constant tensor:
#      x y z
#    x 2.929970 0.000000 0.000000 
#    y 0.000000 3.298970 0.000000 
#    z 0.000000 0.000000 2.961420 
# 
# 
# High freq. dielectric constant tensor:
#      x y z
#    x 1.612030 0.000000 0.000000 
#    y 0.000000 1.644550 0.000000 
#    z 0.000000 0.000000 1.611500 
# 
# From -- ./inp_files/11522.got.cif
#   From: 2010.06.25/outbox.cif.g09.slc.cpg/sg71_6_cif.got.tgz:11522.got - 2010.06.28 04:59:45.
