data_PCOD8291218
_publ_section_title
;
Structure prediction by ZEFSAII (Michael W. Deem and Ramdas Pophale) SiO2 
 PCOD8291218
Probable space group: I M M M
;
_chemical_formula_sum "Si O2"
_cell_formula_units_Z 88
_cell_length_a 21.413211
_cell_length_b 11.428279
_cell_length_c 18.534710
_cell_angle_alpha 90.000000
_cell_angle_beta 90.000000
_cell_angle_gamma 90.000000
_cell_volume 4535.742865
_symmetry_space_group_name_H-M "I M M M"
_symmetry_group_IT_number 71
_symmetry_cell_setting 'orthorhombic'
loop_
_space_group_symop_operation_xyz
x,y,z
-x,-y,z
x,-y,-z
-x,y,-z
-x,-y,-z
x,y,-z
-x,y,z
x,-y,z
1/2+x,1/2+y,1/2+z
1/2-x,1/2-y,1/2+z
1/2+x,1/2-y,1/2-z
1/2-x,1/2+y,1/2-z
1/2-x,1/2-y,1/2-z
1/2+x,1/2+y,1/2-z
1/2-x,1/2+y,1/2+z
1/2+x,1/2-y,1/2+z
loop_
_atom_site_type_symbol
_atom_site_label
_atom_site_fract_x
_atom_site_fract_y
_atom_site_fract_z
Si Si1 0.500000 0.361537 0.583568
Si Si2 0.703731 0.500000 0.914292
Si Si3 0.573285 0.135691 0.798894
Si Si4 0.352165 0.743883 0.916963
Si Si5 0.615433 0.230857 0.651237
Si Si6 0.155464 0.500000 0.915658
Si Si7 0.722885 0.364173 0.581865
O O1 0.500000 0.500000 0.592321
O O2 0.500000 0.324582 0.500000
O O3 0.560651 0.312384 0.622612
O O4 0.666391 0.385230 0.888221
O O5 0.774271 0.500000 0.881750
O O6 0.709336 0.500000 0.000000
O O7 0.500000 0.145866 0.785609
O O8 0.590437 0.202652 0.872505
O O9 0.609139 0.203158 0.735485
O O10 0.593970 0.000000 0.802272
O O11 0.294260 0.830513 0.906092
O O12 0.373498 0.738371 0.000000
O O13 0.680985 0.295380 0.638914
O O14 0.614724 0.110086 0.608082
O O15 0.162705 0.500000 0.000000
O O16 0.702325 0.330967 0.500000
O O17 0.714384 0.500000 0.596493
#
# Coordination Sequence:
#
# PCOD8291218 Si02
#       7
#     8   8  16  16  16   8  16
#     4  11  24  41  61  87 124 172 220 260 296 352
#     4   9  18  38  64  96 128 149 186 256 313 361
#     4  11  25  45  62  85 125 162 203 261 308 355
#     4  10  21  41  68  94 119 156 202 252 314 374
#     4  12  22  39  59  89 127 167 205 251 305 365
#     4  11  20  35  64  94 123 163 205 246 302 368
#     4  10  20  36  61  94 127 159 204 258 304 361
#
# _framework density 19.401453
#
# number of rings (size 3 to 8) (size 9 to 14) (size 15 to 20)
#    0.000    1.364    3.636    2.727    0.000    4.000 
#    3.273    2.273    0.000    1.636    0.000    0.000 
#    0.000    0.000    0.000    0.000    0.000    0.000 
#
# Total GULP energy -545758.402750 kJ/mol
# GULP energy per Si atom -12403.600063 kJ/mol
# Density = 1.935729 g / cm^3
# Si number density = 19.401453 Si / 1000 Ang^3
#
#
#
# Elastic Constant Matrix: (Units=GPa)
#
#
# Indices 1 2 3 4 5 6 
#
# 1 41.4278 29.7176 29.0288 0.0000 0.0000 0.0000
# 2 29.7176 104.3790 45.7727 0.0000 0.0000 0.0000
# 3 29.0288 45.7727 92.2362 0.0000 0.0000 0.0000
# 4 0.0000 0.0000 0.0000 29.6830 0.0000 0.0000
# 5 0.0000 0.0000 0.0000 0.0000 29.8199 0.0000
# 6 0.0000 0.0000 0.0000 0.0000 0.0000 40.0005
#
#
#
# Elastic Compliance Matrix: (Units=1/GPa)
#
#
# Indices 1 2 3 4 5 6 
#
# 1 0.033990 -0.006373 -0.007535 0.000000 0.000000 0.000000
# 2 -0.006373 0.013440 -0.004664 0.000000 0.000000 0.000000
# 3 -0.007535 -0.004664 0.015528 0.000000 0.000000 0.000000
# 4 0.000000 0.000000 0.000000 0.033689 0.000000 0.000000
# 5 0.000000 0.000000 0.000000 0.000000 0.033535 0.000000
# 6 0.000000 0.000000 0.000000 0.000000 0.000000 0.025000
#
#
# Mechanical properties :
#
#
# Convention : Reuss Voigt Hill
#
# Bulk Modulus (GPa) = 38.73869 49.67570 44.20719
# Shear Modulus (GPa) = 24.88440 28.80227 26.84334
#
# Velocity S-wave (km/s) = 3.58523 3.85716 3.72368
# Velocity P-wave (km/s) = 6.09498 6.74511 6.42827
#
# Compressibility (1/GPa) = 0.02581399
#
# Stress axis : x y z
#
# Youngs Moduli (GPa) = 29.42083 74.40356 64.40141
#
# Poissons Ratio (x) = 0.47417 0.48524
# Poissons Ratio (y) = 0.18750 0.30037
# Poissons Ratio (z) = 0.22168 0.34702
#
# Static dielectric constant tensor:
#      x y z
#    x 3.435070 0.000000 0.000000 
#    y 0.000000 3.767000 0.000000 
#    z 0.000000 0.000000 3.409340 
# 
# 
# High freq. dielectric constant tensor:
#      x y z
#    x 1.747830 0.000000 0.000000 
#    y 0.000000 1.775120 0.000000 
#    z 0.000000 0.000000 1.739860 
# 
# From -- ./inp_files/43388.got.cif
#   From: 2010.06.25/outbox.cif.g09.slc.cpg/sg71_22_cif.got.tgz:43388.got - 2010.06.28 04:59:45.
