data_PCOD8291716
_publ_section_title
;
Structure prediction by ZEFSAII (Michael W. Deem and Ramdas Pophale) SiO2 
 PCOD8291716
Probable space group: I M M M
;
_chemical_formula_sum "Si O2"
_cell_formula_units_Z 88
_cell_length_a 18.028974
_cell_length_b 8.995441
_cell_length_c 30.080710
_cell_angle_alpha 90.000000
_cell_angle_beta 90.000000
_cell_angle_gamma 90.000000
_cell_volume 4878.446590
_symmetry_space_group_name_H-M "I M M M"
_symmetry_group_IT_number 71
_symmetry_cell_setting 'orthorhombic'
loop_
_space_group_symop_operation_xyz
x,y,z
-x,-y,z
x,-y,-z
-x,y,-z
-x,-y,-z
x,y,-z
-x,y,z
x,-y,z
1/2+x,1/2+y,1/2+z
1/2-x,1/2-y,1/2+z
1/2+x,1/2-y,1/2-z
1/2-x,1/2+y,1/2-z
1/2-x,1/2-y,1/2-z
1/2+x,1/2+y,1/2-z
1/2-x,1/2+y,1/2+z
1/2+x,1/2-y,1/2+z
loop_
_atom_site_type_symbol
_atom_site_label
_atom_site_fract_x
_atom_site_fract_y
_atom_site_fract_z
Si Si1 0.294475 0.176995 0.889239
Si Si2 0.733575 0.668410 0.704958
Si Si3 0.585776 0.336257 0.500000
Si Si4 0.417439 0.667534 0.661869
Si Si5 0.149379 0.325502 0.917821
Si Si6 0.586464 0.673357 0.949359
O O1 0.280260 0.229711 0.837850
O O2 0.228211 0.243688 0.918102
O O3 0.370344 0.235991 0.911098
O O4 0.292686 0.000000 0.891849
O O5 0.757553 0.500000 0.711825
O O6 0.750000 0.750000 0.750000
O O7 0.644868 0.685541 0.699424
O O8 0.625189 0.500000 0.500000
O O9 0.500000 0.367103 0.500000
O O10 0.604978 0.235249 0.541207
O O11 0.500000 0.695003 0.681733
O O12 0.411669 0.500000 0.641596
O O13 0.401021 0.788658 0.624563
O O14 0.162901 0.500000 0.921208
O O15 0.500000 0.706971 0.941985
O O16 0.603542 0.500000 0.942825
O O17 0.609007 0.720733 0.000000
#
# Coordination Sequence:
#
# PCOD8291716 Si02
#       6
#    16  16   8  16  16  16
#     4  10  21  37  56  79 108 143 182 222 268 326
#     4   9  19  35  55  79 106 138 177 223 276 329
#     4  11  23  37  51  69 100 141 178 213 257 305
#     4   9  18  35  56  76 102 136 174 216 265 323
#     4  11  22  34  51  76 105 137 175 219 262 307
#     4   9  19  36  57  82 113 146 182 229 281 328
#
# _framework density 18.038527999999999
#
# number of rings (size 3 to 8) (size 9 to 14) (size 15 to 20)
#    0.000    2.273    0.000    4.636    1.273    7.636 
#    0.000    1.818    0.000    3.273    0.000    0.000 
#    0.000    0.000    0.000    0.000    0.000    0.000 
#
# Total GULP energy -545332.086058 kJ/mol
# GULP energy per Si atom -12393.911047 kJ/mol
# Density = 1.799747 g / cm^3
# Si number density = 18.038528 Si / 1000 Ang^3
#
#
#
# Elastic Constant Matrix: (Units=GPa)
#
#
# Indices 1 2 3 4 5 6 
#
# 1 108.0030 46.5255 57.2468 0.0000 0.0000 0.0000
# 2 46.5255 90.9607 53.5846 0.0000 0.0000 0.0000
# 3 57.2468 53.5846 103.6315 0.0000 0.0000 0.0000
# 4 0.0000 0.0000 0.0000 36.2377 0.0000 0.0000
# 5 0.0000 0.0000 0.0000 0.0000 30.2232 0.0000
# 6 0.0000 0.0000 0.0000 0.0000 0.0000 29.7280
#
#
#
# Elastic Compliance Matrix: (Units=1/GPa)
#
#
# Indices 1 2 3 4 5 6 
#
# 1 0.013918 -0.003724 -0.005763 0.000000 0.000000 0.000000
# 2 -0.003724 0.016806 -0.006633 0.000000 0.000000 0.000000
# 3 -0.005763 -0.006633 0.016262 0.000000 0.000000 0.000000
# 4 0.000000 0.000000 0.000000 0.027596 0.000000 0.000000
# 5 0.000000 0.000000 0.000000 0.000000 0.033087 0.000000
# 6 0.000000 0.000000 0.000000 0.000000 0.000000 0.033638
#
#
# Mechanical properties :
#
#
# Convention : Reuss Voigt Hill
#
# Bulk Modulus (GPa) = 67.80858 68.58988 68.19923
# Shear Modulus (GPa) = 28.01727 28.92032 28.46880
#
# Velocity S-wave (km/s) = 3.94533 4.00841 3.97699
# Velocity P-wave (km/s) = 7.64374 7.71555 7.67973
#
# Compressibility (1/GPa) = 0.01474740
#
# Stress axis : x y z
#
# Youngs Moduli (GPa) = 71.85081 59.50342 61.49150
#
# Poissons Ratio (x) = 0.22159 0.35436
# Poissons Ratio (y) = 0.26757 0.40785
# Poissons Ratio (z) = 0.41405 0.39466
#
# Static dielectric constant tensor:
#      x y z
#    x 3.474360 0.000000 0.000000 
#    y 0.000000 3.364600 0.000000 
#    z 0.000000 0.000000 3.476720 
# 
# 
# High freq. dielectric constant tensor:
#      x y z
#    x 1.699880 0.000000 0.000000 
#    y 0.000000 1.702000 0.000000 
#    z 0.000000 0.000000 1.684390 
# 
# From -- ./inp_files/8784.got.cif
#   From: 2010.06.25/outbox.cif.g09.slc.cpg/sg71_5_cif.got.tgz:8784.got - 2010.06.28 04:59:45.
