data_PCOD8291190
_publ_section_title
;
Structure prediction by ZEFSAII (Michael W. Deem and Ramdas Pophale) SiO2 
 PCOD8291190
Probable space group: I M M M
;
_chemical_formula_sum "Si O2"
_cell_formula_units_Z 104
_cell_length_a 9.101968
_cell_length_b 27.730926
_cell_length_c 21.848988
_cell_angle_alpha 90.000000
_cell_angle_beta 90.000000
_cell_angle_gamma 90.000000
_cell_volume 5514.815688
_symmetry_space_group_name_H-M "I M M M"
_symmetry_group_IT_number 71
_symmetry_cell_setting 'orthorhombic'
loop_
_space_group_symop_operation_xyz
x,y,z
-x,-y,z
x,-y,-z
-x,y,-z
-x,-y,-z
x,y,-z
-x,y,z
x,-y,z
1/2+x,1/2+y,1/2+z
1/2-x,1/2-y,1/2+z
1/2+x,1/2-y,1/2-z
1/2-x,1/2+y,1/2-z
1/2-x,1/2-y,1/2-z
1/2+x,1/2+y,1/2-z
1/2-x,1/2+y,1/2+z
1/2+x,1/2-y,1/2+z
loop_
_atom_site_type_symbol
_atom_site_label
_atom_site_fract_x
_atom_site_fract_y
_atom_site_fract_z
Si Si1 0.671527 0.774943 0.867640
Si Si2 0.673149 0.638171 0.699267
Si Si3 0.325537 0.906791 0.000000
Si Si4 0.839689 0.500000 0.927570
Si Si5 0.327912 0.055289 0.870510
Si Si6 0.829532 0.168670 0.665600
Si Si7 0.672236 0.799192 0.000000
Si Si8 0.675216 0.896435 0.569197
O O1 0.500000 0.788020 0.861414
O O2 0.763934 0.817711 0.839010
O O3 0.709773 0.725352 0.833392
O O4 0.719013 0.770157 0.939105
O O5 0.500000 0.636652 0.689482
O O6 0.742448 0.587871 0.678209
O O7 0.714977 0.645647 0.769999
O O8 0.269760 0.934084 0.939185
O O9 0.500000 0.906803 0.000000
O O10 0.258223 0.852886 0.000000
O O11 0.760347 0.449390 0.909692
O O12 0.000000 0.500000 0.896141
O O13 0.860557 0.500000 0.000000
O O14 0.500000 0.067184 0.865442
O O15 0.294581 0.000000 0.854163
O O16 0.736712 0.144389 0.612574
O O17 0.000000 0.161265 0.650429
O O18 0.500000 0.806755 0.000000
O O19 0.725766 0.884724 0.500000
O O20 0.500000 0.897666 0.573229
#
# Coordination Sequence:
#
# PCOD8291190 Si02
#       8
#    16  16   8   8  16  16   8  16
#     4  10  20  37  60  82 106 142 189 231 270 329
#     4  11  23  39  55  78 114 152 187 228 281 330
#     4   9  15  30  57  88 114 136 179 237 283 323
#     4   7  12  28  53  77 103 137 171 208 261 320
#     4  10  20  36  60  86 111 146 192 237 280 333
#     4  10  23  38  55  81 112 149 187 225 277 333
#     4   9  16  29  56  86 107 134 178 232 282 323
#     4   9  18  34  57  83 110 139 177 228 280 328
#
# _framework density 18.858291000000001
#
# number of rings (size 3 to 8) (size 9 to 14) (size 15 to 20)
#    0.000    2.385    1.538    2.077    1.077    3.385 
#    1.385    1.923    0.000    2.308    0.000    0.000 
#    0.000    0.000    0.000    0.000    0.000    0.000 
#
# Total GULP energy -644600.926921 kJ/mol
# GULP energy per Si atom -12396.171672 kJ/mol
# Density = 1.881537 g / cm^3
# Si number density = 18.858291 Si / 1000 Ang^3
#
#
#
# Elastic Constant Matrix: (Units=GPa)
#
#
# Indices 1 2 3 4 5 6 
#
# 1 44.0896 41.9091 46.4348 0.0000 0.0000 0.0000
# 2 41.9091 124.1204 69.0420 0.0000 0.0000 0.0000
# 3 46.4348 69.0420 124.3502 -0.0001 0.0000 0.0000
# 4 0.0000 0.0000 -0.0001 27.1416 0.0000 0.0000
# 5 0.0000 0.0000 0.0000 0.0000 23.5591 0.0000
# 6 0.0000 0.0000 0.0000 0.0000 0.0000 27.9783
#
#
#
# Elastic Compliance Matrix: (Units=1/GPa)
#
#
# Indices 1 2 3 4 5 6 
#
# 1 0.042162 -0.007926 -0.011343 0.000000 0.000000 0.000000
# 2 -0.007926 0.013147 -0.004340 0.000000 0.000000 0.000000
# 3 -0.011343 -0.004340 0.014687 0.000000 0.000000 0.000000
# 4 0.000000 0.000000 0.000000 0.036844 0.000000 0.000000
# 5 0.000000 0.000000 0.000000 0.000000 0.042446 0.000000
# 6 0.000000 0.000000 0.000000 0.000000 0.000000 0.035742
#
#
# Mechanical properties :
#
#
# Convention : Reuss Voigt Hill
#
# Bulk Modulus (GPa) = 43.90273 67.48133 55.69203
# Shear Modulus (GPa) = 20.84732 24.74743 22.79737
#
# Velocity S-wave (km/s) = 3.32847 3.62648 3.48066
# Velocity P-wave (km/s) = 6.17272 7.30727 6.76383
#
# Compressibility (1/GPa) = 0.02277763
#
# Stress axis : x y z
#
# Youngs Moduli (GPa) = 23.71805 76.06352 68.08704
#
# Poissons Ratio (x) = 0.60290 0.77233
# Poissons Ratio (y) = 0.18799 0.29547
# Poissons Ratio (z) = 0.26904 0.33009
#
# Static dielectric constant tensor:
#      x y z
#    x 3.143660 0.000000 0.000000 
#    y 0.000000 3.659580 0.000000 
#    z 0.000000 0.000000 3.562010 
# 
# 
# High freq. dielectric constant tensor:
#      x y z
#    x 1.697330 0.000000 0.000000 
#    y 0.000000 1.745430 0.000000 
#    z 0.000000 0.000000 1.731590 
# 
# From -- ./inp_files/11202.got.cif
#   From: 2010.06.25/outbox.cif.g09.slc.cpg/sg71_6_cif.got.tgz:11202.got - 2010.06.28 04:59:45.
