data_PCOD8291498
_publ_section_title
;
Structure prediction by ZEFSAII (Michael W. Deem and Ramdas Pophale) SiO2 
 PCOD8291498
Probable space group: I M M M
;
_chemical_formula_sum "Si O2"
_cell_formula_units_Z 88
_cell_length_a 9.181372
_cell_length_b 22.237156
_cell_length_c 24.167613
_cell_angle_alpha 90.000000
_cell_angle_beta 90.000000
_cell_angle_gamma 90.000000
_cell_volume 4934.243579
_symmetry_space_group_name_H-M "I M M M"
_symmetry_group_IT_number 71
_symmetry_cell_setting 'orthorhombic'
loop_
_space_group_symop_operation_xyz
x,y,z
-x,-y,z
x,-y,-z
-x,y,-z
-x,-y,-z
x,y,-z
-x,y,z
x,-y,z
1/2+x,1/2+y,1/2+z
1/2-x,1/2-y,1/2+z
1/2+x,1/2-y,1/2-z
1/2-x,1/2+y,1/2-z
1/2-x,1/2-y,1/2-z
1/2+x,1/2+y,1/2-z
1/2-x,1/2+y,1/2+z
1/2+x,1/2-y,1/2+z
loop_
_atom_site_type_symbol
_atom_site_label
_atom_site_fract_x
_atom_site_fract_y
_atom_site_fract_z
Si Si1 0.166852 0.352163 0.063842
Si Si2 0.667183 0.069151 0.240889
Si Si3 0.667910 0.500000 0.565449
Si Si4 0.829226 0.930759 0.349019
Si Si5 0.170868 0.389839 0.621108
Si Si6 0.166783 0.786404 0.935899
O O1 0.271554 0.393484 0.099449
O O2 0.196273 0.282861 0.078498
O O3 0.000000 0.368840 0.076636
O O4 0.203215 0.364517 0.000000
O O5 0.500000 0.076822 0.258089
O O6 0.762161 0.093908 0.291750
O O7 0.705215 0.106965 0.186324
O O8 0.704649 0.000000 0.227453
O O9 0.500000 0.500000 0.584143
O O10 0.682865 0.500000 0.500000
O O11 0.744070 0.559204 0.588254
O O12 0.000000 0.922337 0.345373
O O13 0.783699 0.000000 0.357668
O O14 0.223625 0.324928 0.601029
O O15 0.000000 0.398292 0.609688
O O16 0.000000 0.803683 0.922315
O O17 0.199252 0.799275 0.000000
#
# Coordination Sequence:
#
# PCOD8291498 Si02
#       6
#    16  16   8  16  16  16
#     4   9  19  37  59  80 105 141 180 214 255 316
#     4   9  18  35  54  73 103 141 178 217 263 314
#     4  11  23  35  49  73 107 145 182 223 270 317
#     4  10  21  35  54  83 112 136 169 216 268 317
#     4  11  21  34  53  79 106 137 181 227 271 314
#     4   9  19  36  55  76 105 141 180 219 263 318
#
# _framework density 17.834547000000001
#
# number of rings (size 3 to 8) (size 9 to 14) (size 15 to 20)
#    0.000    2.273    0.909    3.000    0.000    7.273 
#    0.000    4.545    0.000    0.000    0.000    0.000 
#    0.000    0.000    0.000    0.000    0.000    0.000 
#
# Total GULP energy -545730.142734 kJ/mol
# GULP energy per Si atom -12402.957789 kJ/mol
# Density = 1.779396 g / cm^3
# Si number density = 17.834547 Si / 1000 Ang^3
#
#
#
# Elastic Constant Matrix: (Units=GPa)
#
#
# Indices 1 2 3 4 5 6 
#
# 1 98.6690 53.2301 68.7724 0.0000 0.0000 0.0000
# 2 53.2301 77.0275 61.2404 0.0000 0.0000 0.0000
# 3 68.7724 61.2404 111.7568 0.0000 0.0000 0.0000
# 4 0.0000 0.0000 0.0000 15.4089 0.0000 0.0000
# 5 0.0000 0.0000 0.0000 0.0000 33.3552 0.0000
# 6 0.0000 0.0000 0.0000 0.0000 0.0000 32.6645
#
#
#
# Elastic Compliance Matrix: (Units=1/GPa)
#
#
# Indices 1 2 3 4 5 6 
#
# 1 0.019689 -0.007041 -0.008258 0.000000 0.000000 0.000000
# 2 -0.007041 0.025523 -0.009653 0.000000 0.000000 0.000000
# 3 -0.008258 -0.009653 0.019320 0.000000 0.000000 0.000000
# 4 0.000000 0.000000 0.000000 0.064898 0.000000 0.000000
# 5 0.000000 0.000000 0.000000 0.000000 0.029980 0.000000
# 6 0.000000 0.000000 0.000000 0.000000 0.000000 0.030614
#
#
# Mechanical properties :
#
#
# Convention : Reuss Voigt Hill
#
# Bulk Modulus (GPa) = 68.36481 72.65989 70.51235
# Shear Modulus (GPa) = 20.42459 23.23308 21.82883
#
# Velocity S-wave (km/s) = 3.38779 3.61321 3.50231
# Velocity P-wave (km/s) = 7.32931 7.63129 7.48183
#
# Compressibility (1/GPa) = 0.01462741
#
# Stress axis : x y z
#
# Youngs Moduli (GPa) = 50.78966 39.18093 51.76115
#
# Poissons Ratio (x) = 0.27586 0.42744
# Poissons Ratio (y) = 0.35760 0.49966
# Poissons Ratio (z) = 0.41942 0.37822
#
# Static dielectric constant tensor:
#      x y z
#    x 3.316000 0.000000 0.000000 
#    y 0.000000 3.252570 0.000000 
#    z 0.000000 0.000000 3.315450 
# 
# 
# High freq. dielectric constant tensor:
#      x y z
#    x 1.695420 0.000000 0.000000 
#    y 0.000000 1.679440 0.000000 
#    z 0.000000 0.000000 1.693640 
# 
# From -- ./inp_files/10417.got.cif
#   From: 2010.06.25/outbox.cif.g09.slc.cpg/sg71_6_cif.got.tgz:10417.got - 2010.06.28 04:59:45.
