data_PCOD8291522
_publ_section_title
;
Structure prediction by ZEFSAII (Michael W. Deem and Ramdas Pophale) SiO2 
 PCOD8291522
Probable space group: I M M M
;
_chemical_formula_sum "Si O2"
_cell_formula_units_Z 80
_cell_length_a 9.216371
_cell_length_b 18.522499
_cell_length_c 25.472056
_cell_angle_alpha 90.000000
_cell_angle_beta 90.000000
_cell_angle_gamma 90.000000
_cell_volume 4348.340351
_symmetry_space_group_name_H-M "I M M M"
_symmetry_group_IT_number 71
_symmetry_cell_setting 'orthorhombic'
loop_
_space_group_symop_operation_xyz
x,y,z
-x,-y,z
x,-y,-z
-x,y,-z
-x,-y,-z
x,y,-z
-x,y,z
x,-y,z
1/2+x,1/2+y,1/2+z
1/2-x,1/2-y,1/2+z
1/2+x,1/2-y,1/2-z
1/2-x,1/2+y,1/2-z
1/2-x,1/2-y,1/2-z
1/2+x,1/2+y,1/2-z
1/2-x,1/2+y,1/2+z
1/2+x,1/2-y,1/2+z
loop_
_atom_site_type_symbol
_atom_site_label
_atom_site_fract_x
_atom_site_fract_y
_atom_site_fract_z
Si Si1 0.167722 0.320489 0.809757
Si Si2 0.327438 0.827639 0.000000
Si Si3 0.331720 0.083605 0.407060
Si Si4 0.672832 0.662911 0.000000
Si Si5 0.327507 0.919487 0.097483
Si Si6 0.669971 0.823334 0.808473
O O1 0.201755 0.385846 0.849115
O O2 0.256211 0.250457 0.827262
O O3 0.213610 0.344692 0.750963
O O4 0.000000 0.298797 0.811012
O O5 0.266134 0.868940 0.948908
O O6 0.500000 0.828338 0.000000
O O7 0.271555 0.745462 0.000000
O O8 0.500000 0.094501 0.422207
O O9 0.232651 0.124365 0.448509
O O10 0.288950 0.000000 0.406959
O O11 0.500000 0.657720 0.000000
O O12 0.500000 0.922818 0.093947
O O13 0.277266 0.887308 0.153411
O O14 0.262498 0.000000 0.091935
O O15 0.500000 0.810468 0.814506
#
# Coordination Sequence:
#
# PCOD8291522 Si02
#       6
#    16   8  16   8  16  16
#     4   9  18  32  50  71  96 129 165 199 240 289
#     4   9  17  28  43  67  98 127 154 190 238 287
#     4  10  21  36  52  71  98 130 163 202 248 297
#     4  11  22  35  53  75  98 125 160 202 246 295
#     4   9  16  26  43  68  97 126 155 191 236 282
#     4   9  17  30  49  73  99 127 163 205 242 279
#
# _framework density 18.397822999999999
#
# number of rings (size 3 to 8) (size 9 to 14) (size 15 to 20)
#    0.000    2.600    0.000    2.100    0.000    6.000 
#    0.000    4.000    0.000    0.600    0.000    5.600 
#    0.000    8.000    0.000    0.000    0.000    0.000 
#
# Total GULP energy -495991.880103 kJ/mol
# GULP energy per Si atom -12399.797003 kJ/mol
# Density = 1.835595 g / cm^3
# Si number density = 18.397823 Si / 1000 Ang^3
#
#
#
# Elastic Constant Matrix: (Units=GPa)
#
#
# Indices 1 2 3 4 5 6 
#
# 1 31.6130 39.3245 33.4450 0.0000 0.0000 0.0000
# 2 39.3245 178.3121 94.7692 0.0000 0.0000 0.0000
# 3 33.4450 94.7692 133.9421 0.0000 0.0000 0.0000
# 4 0.0000 0.0000 0.0000 33.2390 0.0000 0.0000
# 5 0.0000 0.0000 0.0000 0.0000 16.5204 0.0000
# 6 0.0000 0.0000 0.0000 0.0000 0.0000 23.1398
#
#
#
# Elastic Compliance Matrix: (Units=1/GPa)
#
#
# Indices 1 2 3 4 5 6 
#
# 1 0.047489 -0.006685 -0.007128 0.000000 0.000000 0.000000
# 2 -0.006685 0.009929 -0.005356 0.000000 0.000000 0.000000
# 3 -0.007128 -0.005356 0.013035 0.000000 0.000000 0.000000
# 4 0.000000 0.000000 0.000000 0.030085 0.000000 0.000000
# 5 0.000000 0.000000 0.000000 0.000000 0.060531 0.000000
# 6 0.000000 0.000000 0.000000 0.000000 0.000000 0.043216
#
#
# Mechanical properties :
#
#
# Convention : Reuss Voigt Hill
#
# Bulk Modulus (GPa) = 31.13735 75.43829 53.28782
# Shear Modulus (GPa) = 19.73721 26.33507 23.03614
#
# Velocity S-wave (km/s) = 3.27892 3.78752 3.54236
# Velocity P-wave (km/s) = 5.59431 7.76016 6.76448
#
# Compressibility (1/GPa) = 0.03211577
#
# Stress axis : x y z
#
# Youngs Moduli (GPa) = 21.05740 100.71561 76.71410
#
# Poissons Ratio (x) = 0.67324 0.54684
# Poissons Ratio (y) = 0.14076 0.41088
# Poissons Ratio (z) = 0.15010 0.53943
#
# Static dielectric constant tensor:
#      x y z
#    x 3.064900 0.000000 0.000000 
#    y 0.000000 3.544290 0.000000 
#    z 0.000000 0.000000 3.654440 
# 
# 
# High freq. dielectric constant tensor:
#      x y z
#    x 1.673720 0.000000 0.000000 
#    y 0.000000 1.717060 0.000000 
#    z 0.000000 0.000000 1.730300 
# 
# From -- ./inp_files/42263.got.cif
#   From: 2010.06.25/outbox.cif.g09.slc.cpg/sg71_22_cif.got.tgz:42263.got - 2010.06.28 04:59:45.
