data_PCOD8291412
_publ_section_title
;
Structure prediction by ZEFSAII (Michael W. Deem and Ramdas Pophale) SiO2 
 PCOD8291412
Probable space group: I M M M
;
_chemical_formula_sum "Si O2"
_cell_formula_units_Z 104
_cell_length_a 29.954044
_cell_length_b 19.514173
_cell_length_c 9.278050
_cell_angle_alpha 90.000000
_cell_angle_beta 90.000000
_cell_angle_gamma 90.000000
_cell_volume 5423.283691
_symmetry_space_group_name_H-M "I M M M"
_symmetry_group_IT_number 71
_symmetry_cell_setting 'orthorhombic'
loop_
_space_group_symop_operation_xyz
x,y,z
-x,-y,z
x,-y,-z
-x,y,-z
-x,-y,-z
x,y,-z
-x,y,z
x,-y,z
1/2+x,1/2+y,1/2+z
1/2-x,1/2-y,1/2+z
1/2+x,1/2-y,1/2-z
1/2-x,1/2+y,1/2-z
1/2-x,1/2-y,1/2-z
1/2+x,1/2+y,1/2-z
1/2-x,1/2+y,1/2+z
1/2+x,1/2-y,1/2+z
loop_
_atom_site_type_symbol
_atom_site_label
_atom_site_fract_x
_atom_site_fract_y
_atom_site_fract_z
Si Si1 0.162002 0.077017 0.669603
Si Si2 0.290393 0.787397 0.164263
Si Si3 0.609302 0.191947 0.169994
Si Si4 0.948712 0.579450 0.169388
Si Si5 0.752907 0.075424 0.839224
Si Si6 0.418406 0.337280 0.830121
Si Si7 0.000000 0.077458 0.327402
O O1 0.165774 0.082337 0.500000
O O2 0.208968 0.100435 0.731924
O O3 0.126471 0.129833 0.734472
O O4 0.149538 0.000000 0.718309
O O5 0.250000 0.750000 0.250000
O O6 0.341341 0.781688 0.223304
O O7 0.286055 0.869603 0.171985
O O8 0.287479 0.760010 0.000000
O O9 0.587846 0.126596 0.249661
O O10 0.577308 0.256717 0.205184
O O11 0.611387 0.175175 0.000000
O O12 0.938842 0.500000 0.208007
O O13 0.000000 0.597337 0.215058
O O14 0.942853 0.591720 0.000000
O O15 0.734359 0.000000 0.796171
O O16 0.773097 0.073594 0.000000
O O17 0.458503 0.380754 0.762909
O O18 0.417992 0.348781 0.000000
O O19 0.000000 0.076653 0.500000
O O20 0.000000 0.000000 0.267819
#
# Coordination Sequence:
#
# PCOD8291412 Si02
#       7
#    16  16  16  16  16  16   8
#     4   9  16  28  48  72  98 130 171 215 253 292
#     4  10  21  36  53  76 108 145 181 222 271 323
#     4  10  21  34  53  82 111 140 178 225 276 326
#     4   9  20  40  62  82 108 142 180 226 282 347
#     4   9  18  32  49  69  95 130 169 207 252 306
#     4   9  17  28  43  69 103 133 163 206 253 299
#     4   9  16  26  42  66  98 135 166 194 241 299
#
# _framework density 19.176573000000001
#
# number of rings (size 3 to 8) (size 9 to 14) (size 15 to 20)
#    0.000    2.692    0.000    1.846    1.077    5.538 
#    0.000    3.077    0.000    1.846    0.000    0.000 
#    0.000    3.692    0.000    0.000    0.000    0.000 
#
# Total GULP energy -644226.178922 kJ/mol
# GULP energy per Si atom -12388.964979 kJ/mol
# Density = 1.913293 g / cm^3
# Si number density = 19.176573 Si / 1000 Ang^3
#
#
#
# Elastic Constant Matrix: (Units=GPa)
#
#
# Indices 1 2 3 4 5 6 
#
# 1 106.0858 63.9194 31.4646 0.0000 0.0000 0.0000
# 2 63.9194 112.6248 29.5495 0.0000 0.0000 0.0000
# 3 31.4646 29.5495 31.0684 0.0000 0.0000 0.0000
# 4 0.0000 0.0000 0.0000 24.0840 0.0000 0.0000
# 5 0.0000 0.0000 0.0000 0.0000 2.9162 0.0000
# 6 0.0000 0.0000 0.0000 0.0000 0.0000 37.8367
#
#
#
# Elastic Compliance Matrix: (Units=1/GPa)
#
#
# Indices 1 2 3 4 5 6 
#
# 1 0.016516 -0.006642 -0.010409 0.000000 0.000000 0.000000
# 2 -0.006642 0.014503 -0.007067 0.000000 0.000000 0.000000
# 3 -0.010409 -0.007067 0.049450 0.000000 0.000000 0.000000
# 4 0.000000 0.000000 0.000000 0.041521 0.000000 0.000000
# 5 0.000000 0.000000 0.000000 0.000000 0.342909 0.000000
# 6 0.000000 0.000000 0.000000 0.000000 0.000000 0.026429
#
#
# Mechanical properties :
#
#
# Convention : Reuss Voigt Hill
#
# Bulk Modulus (GPa) = 31.02443 55.51624 43.27034
# Shear Modulus (GPa) = 9.08582 21.29043 15.18812
#
# Velocity S-wave (km/s) = 2.17905 3.33563 2.81733
# Velocity P-wave (km/s) = 4.74810 6.62179 5.76162
#
# Compressibility (1/GPa) = 0.03223266
#
# Stress axis : x y z
#
# Youngs Moduli (GPa) = 60.54826 68.95095 20.22255
#
# Poissons Ratio (x) = 0.45800 0.21049
# Poissons Ratio (y) = 0.40219 0.14291
# Poissons Ratio (z) = 0.63023 0.48726
#
# Static dielectric constant tensor:
#      x y z
#    x 3.602940 0.000000 0.000000 
#    y 0.000000 3.726620 0.000000 
#    z 0.000000 0.000000 3.178890 
# 
# 
# High freq. dielectric constant tensor:
#      x y z
#    x 1.742350 0.000000 0.000000 
#    y 0.000000 1.765530 0.000000 
#    z 0.000000 0.000000 1.701860 
# 
# From -- ./inp_files/17032.got.cif
#   From: 2010.06.25/outbox.cif.g09.slc.cpg/sg71_9_cif.got.tgz:17032.got - 2010.06.28 04:59:45.
