data_PCOD8291169
_publ_section_title
;
Structure prediction by ZEFSAII (Michael W. Deem and Ramdas Pophale) SiO2 
 PCOD8291169
Probable space group: I M M M
;
_chemical_formula_sum "Si O2"
_cell_formula_units_Z 56
_cell_length_a 8.804697
_cell_length_b 11.787120
_cell_length_c 26.397298
_cell_angle_alpha 90.000000
_cell_angle_beta 90.000000
_cell_angle_gamma 90.000000
_cell_volume 2739.564912
_symmetry_space_group_name_H-M "I M M M"
_symmetry_group_IT_number 71
_symmetry_cell_setting 'orthorhombic'
loop_
_space_group_symop_operation_xyz
x,y,z
-x,-y,z
x,-y,-z
-x,y,-z
-x,-y,-z
x,y,-z
-x,y,z
x,-y,z
1/2+x,1/2+y,1/2+z
1/2-x,1/2-y,1/2+z
1/2+x,1/2-y,1/2-z
1/2-x,1/2+y,1/2-z
1/2-x,1/2-y,1/2-z
1/2+x,1/2+y,1/2-z
1/2-x,1/2+y,1/2+z
1/2+x,1/2-y,1/2+z
loop_
_atom_site_type_symbol
_atom_site_label
_atom_site_fract_x
_atom_site_fract_y
_atom_site_fract_z
Si Si1 0.676705 0.500000 0.771568
Si Si2 0.180543 0.627202 0.500000
Si Si3 0.819067 0.769021 0.404142
Si Si4 0.679340 0.000000 0.619312
Si Si5 0.330329 0.874785 0.189652
O O1 0.500000 0.500000 0.784159
O O2 0.768476 0.500000 0.822945
O O3 0.722790 0.386183 0.739647
O O4 0.247762 0.500000 0.500000
O O5 0.239846 0.692343 0.549676
O O6 0.000000 0.623250 0.500000
O O7 0.763761 0.713197 0.351132
O O8 0.000000 0.780543 0.404611
O O9 0.743892 0.891337 0.409984
O O10 0.500000 0.000000 0.616616
O O11 0.500000 0.837744 0.206548
O O12 0.337888 0.000000 0.163554
#
# Coordination Sequence:
#
# PCOD8291169 Si02
#       5
#     8   8  16   8  16
#     4  10  20  36  59  86 115 152 200 244 291 348
#     4   9  18  35  67 102 120 141 184 241 296 343
#     4  10  20  37  62  89 120 154 195 241 286 345
#     4  12  26  41  55  78 118 163 204 240 288 348
#     4   8  16  33  57  86 117 149 186 237 294 342
#
# _framework density 20.441202000000001
#
# number of rings (size 3 to 8) (size 9 to 14) (size 15 to 20)
#    0.857    1.571    0.000    3.000    0.000    6.286 
#    0.000    3.571    0.000    0.857    0.000    0.000 
#    0.000    0.000    0.000    0.000    0.000    0.000 
#
# Total GULP energy -347059.652788 kJ/mol
# GULP energy per Si atom -12394.987600 kJ/mol
# Density = 2.039468 g / cm^3
# Si number density = 20.441202 Si / 1000 Ang^3
#
#
#
# Elastic Constant Matrix: (Units=GPa)
#
#
# Indices 1 2 3 4 5 6 
#
# 1 48.1291 30.0349 24.6619 0.0000 0.0000 0.0000
# 2 30.0349 136.1591 57.8409 0.0000 0.0000 0.0000
# 3 24.6619 57.8409 107.7725 0.0000 0.0000 0.0000
# 4 0.0000 0.0000 0.0000 11.1187 0.0000 0.0000
# 5 0.0000 0.0000 0.0000 0.0000 21.3573 0.0000
# 6 0.0000 0.0000 0.0000 0.0000 0.0000 22.3340
#
#
#
# Elastic Compliance Matrix: (Units=1/GPa)
#
#
# Indices 1 2 3 4 5 6 
#
# 1 0.025125 -0.004015 -0.003594 0.000000 0.000000 0.000000
# 2 -0.004015 0.010155 -0.004531 0.000000 0.000000 0.000000
# 3 -0.003594 -0.004531 0.012533 0.000000 0.000000 0.000000
# 4 0.000000 0.000000 0.000000 0.089938 0.000000 0.000000
# 5 0.000000 0.000000 0.000000 0.000000 0.046822 0.000000
# 6 0.000000 0.000000 0.000000 0.000000 0.000000 0.044775
#
#
# Mechanical properties :
#
#
# Convention : Reuss Voigt Hill
#
# Bulk Modulus (GPa) = 42.49679 57.45958 49.97819
# Shear Modulus (GPa) = 19.12230 22.93019 21.02625
#
# Velocity S-wave (km/s) = 3.06188 3.35291 3.21069
# Velocity P-wave (km/s) = 5.77365 6.56963 6.18446
#
# Compressibility (1/GPa) = 0.02353119
#
# Stress axis : x y z
#
# Youngs Moduli (GPa) = 39.80089 98.47373 79.78774
#
# Poissons Ratio (x) = 0.39540 0.28679
# Poissons Ratio (y) = 0.15981 0.36154
# Poissons Ratio (z) = 0.14306 0.44621
#
# Static dielectric constant tensor:
#      x y z
#    x 3.296490 0.000000 0.000000 
#    y 0.000000 3.800290 0.000000 
#    z 0.000000 0.000000 3.618980 
# 
# 
# High freq. dielectric constant tensor:
#      x y z
#    x 1.765490 0.000000 0.000000 
#    y 0.000000 1.804810 0.000000 
#    z 0.000000 0.000000 1.791630 
# 
# From -- ./inp_files/67672.got.cif
#   From: 2010.06.25/outbox.cif.g09.slc.cpg/sg71_34_cif.got.tgz:67672.got - 2010.06.28 04:59:45.
