data_PCOD8291359
_publ_section_title
;
Structure prediction by ZEFSAII (Michael W. Deem and Ramdas Pophale) SiO2 
 PCOD8291359
Probable space group: I M M M
;
_chemical_formula_sum "Si O2"
_cell_formula_units_Z 104
_cell_length_a 8.555780
_cell_length_b 27.220389
_cell_length_c 22.086845
_cell_angle_alpha 90.000000
_cell_angle_beta 90.000000
_cell_angle_gamma 90.000000
_cell_volume 5143.841992
_symmetry_space_group_name_H-M "I M M M"
_symmetry_group_IT_number 71
_symmetry_cell_setting 'orthorhombic'
loop_
_space_group_symop_operation_xyz
x,y,z
-x,-y,z
x,-y,-z
-x,y,-z
-x,-y,-z
x,y,-z
-x,y,z
x,-y,z
1/2+x,1/2+y,1/2+z
1/2-x,1/2-y,1/2+z
1/2+x,1/2-y,1/2-z
1/2-x,1/2+y,1/2-z
1/2-x,1/2-y,1/2-z
1/2+x,1/2+y,1/2-z
1/2-x,1/2+y,1/2+z
1/2+x,1/2-y,1/2+z
loop_
_atom_site_type_symbol
_atom_site_label
_atom_site_fract_x
_atom_site_fract_y
_atom_site_fract_z
Si Si1 0.682598 0.814552 0.379202
Si Si2 0.818007 0.138863 0.123537
Si Si3 0.813247 0.209215 0.500000
Si Si4 0.683912 0.079577 0.335253
Si Si5 0.683777 0.822333 0.000000
Si Si6 0.313728 0.000000 0.569643
Si Si7 0.818986 0.271559 0.689628
Si Si8 0.179808 0.556347 0.298035
O O1 0.500000 0.801629 0.370857
O O2 0.731748 0.822106 0.447642
O O3 0.727808 0.863444 0.342864
O O4 0.792148 0.769167 0.360965
O O5 0.768919 0.178694 0.173333
O O6 0.773287 0.086241 0.151048
O O7 0.000000 0.141566 0.111450
O O8 0.736468 0.148424 0.059404
O O9 0.754735 0.266083 0.500000
O O10 0.000000 0.204828 0.500000
O O11 0.500000 0.071012 0.334578
O O12 0.748584 0.047235 0.391760
O O13 0.751155 0.063409 0.269759
O O14 0.500000 0.820579 0.000000
O O15 0.500000 0.000000 0.565560
O O16 0.247102 0.000000 0.500000
O O17 0.750000 0.250000 0.750000
O O18 0.000000 0.284077 0.697087
O O19 0.196251 0.500000 0.317022
O O20 0.000000 0.573847 0.298734
#
# Coordination Sequence:
#
# PCOD8291359 Si02
#       8
#    16  16   8  16   8   8  16  16
#     4  11  22  35  57  89 122 156 199 252 304 365
#     4  12  25  41  65  95 127 164 208 264 325 388
#     4  11  23  39  59  83 118 166 209 253 304 372
#     4   9  18  33  55  88 123 160 206 258 312 367
#     4  11  23  43  68  92 123 167 212 256 316 391
#     4   9  16  28  50  82 122 159 202 257 310 358
#     4  12  24  40  60  87 123 162 204 251 306 372
#     4  10  20  39  66  93 125 166 213 263 319 385
#
# _framework density 20.218350999999998
#
# number of rings (size 3 to 8) (size 9 to 14) (size 15 to 20)
#    0.000    1.308    2.308    4.615    1.077    2.154 
#    0.000    1.154    0.000    2.308    0.000    0.538 
#    0.000    0.000    0.000    0.000    0.000    0.000 
#
# Total GULP energy -644775.051279 kJ/mol
# GULP energy per Si atom -12399.520217 kJ/mol
# Density = 2.017233 g / cm^3
# Si number density = 20.218351 Si / 1000 Ang^3
#
#
#
# Elastic Constant Matrix: (Units=GPa)
#
#
# Indices 1 2 3 4 5 6 
#
# 1 57.6058 25.5873 19.3213 0.0000 0.0000 0.0000
# 2 25.5873 92.0160 27.2210 0.0000 0.0000 0.0000
# 3 19.3213 27.2210 107.5809 0.0000 0.0000 0.0000
# 4 0.0000 0.0000 0.0000 20.0730 0.0000 0.0000
# 5 0.0000 0.0000 0.0000 0.0000 29.2715 0.0000
# 6 0.0000 0.0000 0.0000 0.0000 0.0000 21.4833
#
#
#
# Elastic Compliance Matrix: (Units=1/GPa)
#
#
# Indices 1 2 3 4 5 6 
#
# 1 0.020365 -0.004952 -0.002405 0.000000 0.000000 0.000000
# 2 -0.004952 0.012951 -0.002388 0.000000 0.000000 0.000000
# 3 -0.002405 -0.002388 0.010331 0.000000 0.000000 0.000000
# 4 0.000000 0.000000 0.000000 0.049818 0.000000 0.000000
# 5 0.000000 0.000000 0.000000 0.000000 0.034163 0.000000
# 6 0.000000 0.000000 0.000000 0.000000 0.000000 0.046548
#
#
# Mechanical properties :
#
#
# Convention : Reuss Voigt Hill
#
# Bulk Modulus (GPa) = 41.39138 44.60689 42.99914
# Shear Modulus (GPa) = 24.78712 26.50377 25.64545
#
# Velocity S-wave (km/s) = 3.50519 3.62453 3.56536
# Velocity P-wave (km/s) = 6.07441 6.29498 6.18568
#
# Compressibility (1/GPa) = 0.02415962
#
# Stress axis : x y z
#
# Youngs Moduli (GPa) = 49.10304 77.21440 96.79290
#
# Poissons Ratio (x) = 0.38234 0.23275
# Poissons Ratio (y) = 0.24314 0.23111
# Poissons Ratio (z) = 0.11808 0.18436
#
# Static dielectric constant tensor:
#      x y z
#    x 3.591440 0.000000 0.000000 
#    y 0.000000 3.746300 0.000000 
#    z 0.000000 0.000000 4.032710 
# 
# 
# High freq. dielectric constant tensor:
#      x y z
#    x 1.765280 0.000000 0.000000 
#    y 0.000000 1.790950 0.000000 
#    z 0.000000 0.000000 1.803350 
# 
# From -- ./inp_files/50954.got.cif
#   From: 2010.06.25/outbox.cif.g09.slc.cpg/sg71_26_cif.got.tgz:50954.got - 2010.06.28 04:59:45.
