data_PCOD8291991
_publ_section_title
;
Structure prediction by ZEFSAII (Michael W. Deem and Ramdas Pophale) SiO2 
 PCOD8291991
Probable space group: I M M M
;
_chemical_formula_sum "Si O2"
_cell_formula_units_Z 72
_cell_length_a 20.266504
_cell_length_b 8.905819
_cell_length_c 21.244309
_cell_angle_alpha 90.000000
_cell_angle_beta 90.000000
_cell_angle_gamma 90.000000
_cell_volume 3834.381431
_symmetry_space_group_name_H-M "I M M M"
_symmetry_group_IT_number 71
_symmetry_cell_setting 'orthorhombic'
loop_
_space_group_symop_operation_xyz
x,y,z
-x,-y,z
x,-y,-z
-x,y,-z
-x,-y,-z
x,y,-z
-x,y,z
x,-y,z
1/2+x,1/2+y,1/2+z
1/2-x,1/2-y,1/2+z
1/2+x,1/2-y,1/2-z
1/2-x,1/2+y,1/2-z
1/2-x,1/2-y,1/2-z
1/2+x,1/2+y,1/2-z
1/2-x,1/2+y,1/2+z
1/2+x,1/2-y,1/2+z
loop_
_atom_site_type_symbol
_atom_site_label
_atom_site_fract_x
_atom_site_fract_y
_atom_site_fract_z
Si Si1 0.377493 0.177082 0.570765
Si Si2 0.500000 0.178259 0.345393
Si Si3 0.000000 0.177978 0.289650
Si Si4 0.426349 0.662329 0.000000
Si Si5 0.756506 0.674467 0.428269
Si Si6 0.892560 0.675487 0.625206
O O1 0.391277 0.236531 0.500000
O O2 0.436088 0.230782 0.615728
O O3 0.308270 0.240497 0.596031
O O4 0.372891 0.000000 0.570917
O O5 0.500000 0.269963 0.281631
O O6 0.500000 0.000000 0.332487
O O7 0.932173 0.237881 0.320604
O O8 0.000000 0.000000 0.295076
O O9 0.416466 0.768752 0.941318
O O10 0.386417 0.500000 0.000000
O O11 0.500000 0.607482 0.000000
O O12 0.776832 0.726880 0.500000
O O13 0.740070 0.500000 0.430045
O O14 0.813676 0.708192 0.376658
O O15 0.907570 0.500000 0.633296
#
# Coordination Sequence:
#
# PCOD8291991 Si02
#       6
#    16   8   8   8  16  16
#     4   9  18  34  60  91 115 139 174 223 279 333
#     4  10  21  40  61  81 110 147 186 223 273 341
#     4  12  26  40  54  79 110 145 195 241 278 318
#     4  11  21  31  49  81 114 143 184 237 280 316
#     4   9  18  33  53  83 117 145 178 222 274 333
#     4  11  21  36  56  78 110 153 192 226 275 330
#
# _framework density 18.777473000000001
#
# number of rings (size 3 to 8) (size 9 to 14) (size 15 to 20)
#    0.000    1.889    2.222    2.333    0.000    4.444 
#    0.000    1.111    0.000    3.333    0.000    0.000 
#    0.000    0.000    0.000    0.000    0.000    0.000 
#
# Total GULP energy -446161.565379 kJ/mol
# GULP energy per Si atom -12393.376816 kJ/mol
# Density = 1.873474 g / cm^3
# Si number density = 18.777473 Si / 1000 Ang^3
#
#
#
# Elastic Constant Matrix: (Units=GPa)
#
#
# Indices 1 2 3 4 5 6 
#
# 1 145.4438 55.0519 75.9803 0.0000 0.0000 0.0000
# 2 55.0519 78.7346 51.9189 0.0000 0.0000 0.0000
# 3 75.9803 51.9189 109.0148 0.0000 0.0000 0.0000
# 4 0.0000 0.0000 0.0000 22.9332 0.0000 0.0000
# 5 0.0000 0.0000 0.0000 0.0000 2.6524 0.0000
# 6 0.0000 0.0000 0.0000 0.0000 0.0000 32.1260
#
#
#
# Elastic Compliance Matrix: (Units=1/GPa)
#
#
# Indices 1 2 3 4 5 6 
#
# 1 0.011642 -0.004067 -0.006177 0.000000 0.000000 0.000000
# 2 -0.004067 0.019936 -0.006660 0.000000 0.000000 0.000000
# 3 -0.006177 -0.006660 0.016650 0.000000 0.000000 0.000000
# 4 0.000000 0.000000 0.000000 0.043605 0.000000 0.000000
# 5 0.000000 0.000000 0.000000 0.000000 0.377018 0.000000
# 6 0.000000 0.000000 0.000000 0.000000 0.000000 0.031127
#
#
# Mechanical properties :
#
#
# Convention : Reuss Voigt Hill
#
# Bulk Modulus (GPa) = 69.34834 77.67727 73.51280
# Shear Modulus (GPa) = 9.28343 21.55845 15.42094
#
# Velocity S-wave (km/s) = 2.22590 3.39204 2.86885
# Velocity P-wave (km/s) = 6.60440 7.53647 7.08577
#
# Compressibility (1/GPa) = 0.01441996
#
# Stress axis : x y z
#
# Youngs Moduli (GPa) = 85.89746 50.15961 60.05829
#
# Poissons Ratio (x) = 0.20398 0.37099
# Poissons Ratio (y) = 0.34932 0.40001
# Poissons Ratio (z) = 0.53061 0.33408
#
# Static dielectric constant tensor:
#      x y z
#    x 3.783630 0.000000 0.000000 
#    y 0.000000 3.410210 0.000000 
#    z 0.000000 0.000000 3.254620 
# 
# 
# High freq. dielectric constant tensor:
#      x y z
#    x 1.739140 0.000000 0.000000 
#    y 0.000000 1.734220 0.000000 
#    z 0.000000 0.000000 1.700490 
# 
# From -- ./inp_files/54697.got.cif
#   From: 2010.06.25/outbox.cif.g09.slc.cpg/sg71_28_cif.got.tgz:54697.got - 2010.06.28 04:59:45.
