data_PCOD8291178
_publ_section_title
;
Structure prediction by ZEFSAII (Michael W. Deem and Ramdas Pophale) SiO2 
 PCOD8291178
Probable space group: I M M M
;
_chemical_formula_sum "Si O2"
_cell_formula_units_Z 72
_cell_length_a 8.298481
_cell_length_b 15.604385
_cell_length_c 26.907013
_cell_angle_alpha 90.000000
_cell_angle_beta 90.000000
_cell_angle_gamma 90.000000
_cell_volume 3484.261559
_symmetry_space_group_name_H-M "I M M M"
_symmetry_group_IT_number 71
_symmetry_cell_setting 'orthorhombic'
loop_
_space_group_symop_operation_xyz
x,y,z
-x,-y,z
x,-y,-z
-x,y,-z
-x,-y,-z
x,y,-z
-x,y,z
x,-y,z
1/2+x,1/2+y,1/2+z
1/2-x,1/2-y,1/2+z
1/2+x,1/2-y,1/2-z
1/2-x,1/2+y,1/2-z
1/2-x,1/2-y,1/2-z
1/2+x,1/2+y,1/2-z
1/2-x,1/2+y,1/2+z
1/2+x,1/2-y,1/2+z
loop_
_atom_site_type_symbol
_atom_site_label
_atom_site_fract_x
_atom_site_fract_y
_atom_site_fract_z
Si Si1 0.686338 0.500000 0.281873
Si Si2 0.186007 0.500000 0.390200
Si Si3 0.807743 0.500000 0.943929
Si Si4 0.191128 0.663821 0.224733
Si Si5 0.191628 0.332385 0.888643
Si Si6 0.190204 0.165972 0.055672
O O1 0.500000 0.500000 0.297461
O O2 0.793295 0.500000 0.331196
O O3 0.724312 0.416320 0.250165
O O4 0.267965 0.582844 0.413157
O O5 0.000000 0.500000 0.404189
O O6 0.740106 0.583641 0.916057
O O7 0.000000 0.500000 0.943390
O O8 0.741921 0.500000 0.000000
O O9 0.250000 0.750000 0.250000
O O10 0.250480 0.666782 0.167988
O O11 0.000000 0.653845 0.229118
O O12 0.262786 0.248864 0.916329
O O13 0.000000 0.331147 0.890724
O O14 0.000000 0.174681 0.052396
O O15 0.263145 0.160336 0.000000
#
# Coordination Sequence:
#
# PCOD8291178 Si02
#       6
#     8   8   8  16  16  16
#     4  12  25  42  62  85 116 154 200 254 310 363
#     4  12  25  40  59  83 112 149 196 247 302 361
#     4   9  15  26  48  79 112 143 178 221 268 320
#     4  11  22  38  60  87 120 157 198 243 294 354
#     4   9  18  32  53  82 115 150 186 228 278 334
#     4  10  20  36  59  87 119 155 194 235 284 346
#
# _framework density 20.664349000000001
#
# number of rings (size 3 to 8) (size 9 to 14) (size 15 to 20)
#    0.000    1.667    0.000    5.667    0.000    8.000 
#    0.000    1.111    0.000    0.000    0.000    0.000 
#    0.000    8.000    0.000    0.000    0.000    0.000 
#
# Total GULP energy -446522.434025 kJ/mol
# GULP energy per Si atom -12403.400945 kJ/mol
# Density = 2.061732 g / cm^3
# Si number density = 20.664349 Si / 1000 Ang^3
#
#
#
# Elastic Constant Matrix: (Units=GPa)
#
#
# Indices 1 2 3 4 5 6 
#
# 1 29.8743 2.8810 4.0195 0.0000 0.0000 0.0000
# 2 2.8810 209.7159 94.8398 0.0000 0.0000 0.0000
# 3 4.0195 94.8398 186.8129 0.0000 0.0000 0.0000
# 4 0.0000 0.0000 0.0000 58.9447 0.0000 0.0000
# 5 0.0000 0.0000 0.0000 0.0000 23.7947 0.0000
# 6 0.0000 0.0000 0.0000 0.0000 0.0000 10.7577
#
#
#
# Elastic Compliance Matrix: (Units=1/GPa)
#
#
# Indices 1 2 3 4 5 6 
#
# 1 0.033576 -0.000175 -0.000634 0.000000 0.000000 0.000000
# 2 -0.000175 0.006190 -0.003139 0.000000 0.000000 0.000000
# 3 -0.000634 -0.003139 0.006960 0.000000 0.000000 0.000000
# 4 0.000000 0.000000 0.000000 0.016965 0.000000 0.000000
# 5 0.000000 0.000000 0.000000 0.000000 0.042026 0.000000
# 6 0.000000 0.000000 0.000000 0.000000 0.000000 0.092957
#
#
# Mechanical properties :
#
#
# Convention : Reuss Voigt Hill
#
# Bulk Modulus (GPa) = 25.75230 69.98709 47.86969
# Shear Modulus (GPa) = 22.77779 40.34361 31.56070
#
# Velocity S-wave (km/s) = 3.32365 4.42331 3.91231
# Velocity P-wave (km/s) = 5.21710 7.74788 6.60484
#
# Compressibility (1/GPa) = 0.03883149
#
# Stress axis : x y z
#
# Youngs Moduli (GPa) = 29.78346 161.54463 143.67612
#
# Poissons Ratio (x) = 0.02821 0.09106
# Poissons Ratio (y) = 0.00520 0.45098
# Poissons Ratio (z) = 0.01888 0.50707
#
# Static dielectric constant tensor:
#      x y z
#    x 3.385450 0.000000 0.000000 
#    y 0.000000 3.965500 0.000000 
#    z 0.000000 0.000000 4.087310 
# 
# 
# High freq. dielectric constant tensor:
#      x y z
#    x 1.771920 0.000000 0.000000 
#    y 0.000000 1.830470 0.000000 
#    z 0.000000 0.000000 1.829680 
# 
# From -- ./inp_files/6166.got.cif
#   From: 2010.06.25/outbox.cif.g09.slc.cpg/sg71_4_cif.got.tgz:6166.got - 2010.06.28 04:59:45.
