data_PCOD8291227
_publ_section_title
;
Structure prediction by ZEFSAII (Michael W. Deem and Ramdas Pophale) SiO2 
 PCOD8291227
Probable space group: I M M M
;
_chemical_formula_sum "Si O2"
_cell_formula_units_Z 104
_cell_length_a 32.534379
_cell_length_b 9.438033
_cell_length_c 18.905682
_cell_angle_alpha 90.000000
_cell_angle_beta 90.000000
_cell_angle_gamma 90.000000
_cell_volume 5805.188974
_symmetry_space_group_name_H-M "I M M M"
_symmetry_group_IT_number 71
_symmetry_cell_setting 'orthorhombic'
loop_
_space_group_symop_operation_xyz
x,y,z
-x,-y,z
x,-y,-z
-x,y,-z
-x,-y,-z
x,y,-z
-x,y,z
x,-y,z
1/2+x,1/2+y,1/2+z
1/2-x,1/2-y,1/2+z
1/2+x,1/2-y,1/2-z
1/2-x,1/2+y,1/2-z
1/2-x,1/2-y,1/2-z
1/2+x,1/2+y,1/2-z
1/2-x,1/2+y,1/2+z
1/2+x,1/2-y,1/2+z
loop_
_atom_site_type_symbol
_atom_site_label
_atom_site_fract_x
_atom_site_fract_y
_atom_site_fract_z
Si Si1 0.047500 0.337483 0.690197
Si Si2 0.265363 0.340592 0.584283
Si Si3 0.809531 0.842438 0.584112
Si Si4 0.598972 0.667133 0.919472
Si Si5 0.000000 0.836507 0.083501
Si Si6 0.072038 0.336030 0.153665
Si Si7 0.656950 0.163252 0.581607
O O1 0.053135 0.500000 0.667821
O O2 0.065481 0.242129 0.628473
O O3 0.070852 0.304662 0.763075
O O4 0.000000 0.298762 0.701221
O O5 0.263900 0.339579 0.500000
O O6 0.266686 0.500000 0.614088
O O7 0.224598 0.264440 0.615026
O O8 0.305637 0.257731 0.610654
O O9 0.806997 0.849248 0.500000
O O10 0.855066 0.789516 0.605825
O O11 0.801138 0.000000 0.614509
O O12 0.593285 0.500000 0.912797
O O13 0.591595 0.716314 0.000000
O O14 0.040426 0.762357 0.112934
O O15 0.000000 0.000000 0.107263
O O16 0.000000 0.820861 0.000000
O O17 0.060959 0.500000 0.137761
O O18 0.117357 0.297189 0.127357
O O19 0.647042 0.197481 0.500000
O O20 0.669679 0.000000 0.590909
#
# Coordination Sequence:
#
# PCOD8291227 Si02
#       7
#    16  16  16  16   8  16  16
#     4  10  21  37  55  76 103 134 170 214 262 311
#     4   9  16  25  41  69 104 136 163 200 253 304
#     4   8  14  27  47  70  98 130 165 205 246 296
#     4   9  19  35  55  80 106 133 168 210 256 308
#     4  11  23  35  51  79 108 133 168 219 271 308
#     4  10  20  37  56  73  99 138 181 217 253 309
#     4   9  17  29  48  73  98 131 175 215 251 294
#
# _framework density 17.915006999999999
#
# number of rings (size 3 to 8) (size 9 to 14) (size 15 to 20)
#    0.000    2.692    0.769    2.077    0.000    5.846 
#    0.000    4.615    0.000    0.923    0.000    0.000 
#    0.000    0.000    0.000    0.000    0.000    0.000 
#
# Total GULP energy -644793.490225 kJ/mol
# GULP energy per Si atom -12399.874812 kJ/mol
# Density = 1.787423 g / cm^3
# Si number density = 17.915007 Si / 1000 Ang^3
#
#
#
# Elastic Constant Matrix: (Units=GPa)
#
#
# Indices 1 2 3 4 5 6 
#
# 1 98.5604 48.4736 42.8324 0.0000 0.0000 0.0000
# 2 48.4736 82.2842 34.5981 0.0000 0.0000 0.0000
# 3 42.8324 34.5981 60.7532 0.0000 0.0000 0.0000
# 4 0.0000 0.0000 0.0000 20.2844 0.0000 0.0000
# 5 0.0000 0.0000 0.0000 0.0000 -15.3463 0.0000
# 6 0.0000 0.0000 0.0000 0.0000 0.0000 24.7069
#
#
#
# Elastic Compliance Matrix: (Units=1/GPa)
#
#
# Indices 1 2 3 4 5 6 
#
# 1 0.016922 -0.006511 -0.008222 0.000000 0.000000 0.000000
# 2 -0.006511 0.018485 -0.005936 0.000000 0.000000 0.000000
# 3 -0.008222 -0.005936 0.025637 0.000000 0.000000 0.000000
# 4 0.000000 0.000000 0.000000 0.049299 0.000000 0.000000
# 5 0.000000 0.000000 0.000000 0.000000 -0.065162 0.000000
# 6 0.000000 0.000000 0.000000 0.000000 0.000000 0.040475
#
#
# Mechanical properties :
#
#
# Convention : Reuss Voigt Hill
#
# Bulk Modulus (GPa) = 50.74946 54.82288 52.78617
# Shear Modulus (GPa) = 37.43580 13.64192 25.53886
#
# Velocity S-wave (km/s) = 4.57621 2.76249 3.77975
# Velocity P-wave (km/s) = 7.50411 6.39087 6.96975
#
# Compressibility (1/GPa) = 0.01970464
#
# Stress axis : x y z
#
# Youngs Moduli (GPa) = 59.09623 54.09837 39.00572
#
# Poissons Ratio (x) = 0.35226 0.32070
# Poissons Ratio (y) = 0.38480 0.23155
# Poissons Ratio (z) = 0.48588 0.32114
#
# Static dielectric constant tensor:
#      x y z
#    x 3.517280 0.000000 0.000000 
#    y 0.000000 3.393790 0.000000 
#    z 0.000000 0.000000 2.962390 
# 
# 
# High freq. dielectric constant tensor:
#      x y z
#    x 1.704550 0.000000 0.000000 
#    y 0.000000 1.693390 0.000000 
#    z 0.000000 0.000000 1.655740 
# 
# From -- ./inp_files/56718.got.cif
#   From: 2010.06.25/outbox.cif.g09.slc.cpg/sg71_29_cif.got.tgz:56718.got - 2010.06.28 04:59:45.
