data_PCOD8291476
_publ_section_title
;
Structure prediction by ZEFSAII (Michael W. Deem and Ramdas Pophale) SiO2 
 PCOD8291476
Probable space group: I M M M
;
_chemical_formula_sum "Si O2"
_cell_formula_units_Z 88
_cell_length_a 18.674537
_cell_length_b 23.951513
_cell_length_c 10.284463
_cell_angle_alpha 90.000000
_cell_angle_beta 90.000000
_cell_angle_gamma 90.000000
_cell_volume 4600.069740
_symmetry_space_group_name_H-M "I M M M"
_symmetry_group_IT_number 71
_symmetry_cell_setting 'orthorhombic'
loop_
_space_group_symop_operation_xyz
x,y,z
-x,-y,z
x,-y,-z
-x,y,-z
-x,-y,-z
x,y,-z
-x,y,z
x,-y,z
1/2+x,1/2+y,1/2+z
1/2-x,1/2-y,1/2+z
1/2+x,1/2-y,1/2-z
1/2-x,1/2+y,1/2-z
1/2-x,1/2-y,1/2-z
1/2+x,1/2+y,1/2-z
1/2-x,1/2+y,1/2+z
1/2+x,1/2-y,1/2+z
loop_
_atom_site_type_symbol
_atom_site_label
_atom_site_fract_x
_atom_site_fract_y
_atom_site_fract_z
Si Si1 0.583221 0.241500 0.649332
Si Si2 0.353462 0.937161 0.228437
Si Si3 0.169114 0.848048 0.852004
Si Si4 0.000000 0.434594 0.140450
Si Si5 0.705568 0.436957 0.853974
Si Si6 0.174397 0.322459 0.640537
O O1 0.601114 0.225635 0.500000
O O2 0.500000 0.233693 0.680488
O O3 0.603878 0.305900 0.675370
O O4 0.626964 0.201278 0.744021
O O5 0.428892 0.916667 0.285440
O O6 0.291642 0.935539 0.337712
O O7 0.334640 0.889845 0.123658
O O8 0.358642 0.000000 0.167724
O O9 0.164056 0.898899 0.750491
O O10 0.241774 0.812094 0.829950
O O11 0.165876 0.871464 0.000000
O O12 0.000000 0.500000 0.119472
O O13 0.000000 0.404353 0.000000
O O14 0.677579 0.500000 0.833596
O O15 0.688242 0.416032 0.000000
O O16 0.153512 0.295962 0.500000
#
# Coordination Sequence:
#
# PCOD8291476 Si02
#       6
#    16  16  16   8  16  16
#     4  10  22  39  57  77 101 133 174 220 266 310
#     4   9  18  31  46  69 102 139 174 211 253 298
#     4   9  19  36  56  78 105 137 173 212 257 309
#     4   9  16  26  41  61  89 129 173 209 242 283
#     4   9  17  30  51  80 109 135 169 211 253 302
#     4  10  21  35  53  78 105 135 172 215 261 311
#
# _framework density 19.130146
#
# number of rings (size 3 to 8) (size 9 to 14) (size 15 to 20)
#    0.000    2.636    0.000    1.091    1.273    7.636 
#    0.000    3.636    0.000    2.182    0.000    3.818 
#    0.000    0.000    0.000    0.000    0.000    0.000 
#
# Total GULP energy -545275.791351 kJ/mol
# GULP energy per Si atom -12392.631622 kJ/mol
# Density = 1.908660 g / cm^3
# Si number density = 19.130146 Si / 1000 Ang^3
#
#
#
# Elastic Constant Matrix: (Units=GPa)
#
#
# Indices 1 2 3 4 5 6 
#
# 1 31.2970 11.7662 24.5544 0.0000 0.0000 0.0000
# 2 11.7662 71.0849 51.8432 0.0000 0.0000 0.0000
# 3 24.5544 51.8432 119.2433 0.0000 0.0000 0.0000
# 4 0.0000 0.0000 0.0000 27.8820 0.0000 0.0000
# 5 0.0000 0.0000 0.0000 0.0000 17.3596 0.0000
# 6 0.0000 0.0000 0.0000 0.0000 0.0000 22.4930
#
#
#
# Elastic Compliance Matrix: (Units=1/GPa)
#
#
# Indices 1 2 3 4 5 6 
#
# 1 0.038144 -0.000857 -0.007482 0.000000 0.000000 0.000000
# 2 -0.000857 0.020619 -0.008788 0.000000 0.000000 0.000000
# 3 -0.007482 -0.008788 0.013748 0.000000 0.000000 0.000000
# 4 0.000000 0.000000 0.000000 0.035865 0.000000 0.000000
# 5 0.000000 0.000000 0.000000 0.000000 0.057605 0.000000
# 6 0.000000 0.000000 0.000000 0.000000 0.000000 0.044458
#
#
# Mechanical properties :
#
#
# Convention : Reuss Voigt Hill
#
# Bulk Modulus (GPa) = 26.13923 44.21698 35.17811
# Shear Modulus (GPa) = 19.42161 22.44435 20.93298
#
# Velocity S-wave (km/s) = 3.18973 3.42898 3.31152
# Velocity P-wave (km/s) = 5.22106 6.23227 5.74894
#
# Compressibility (1/GPa) = 0.03825667
#
# Stress axis : x y z
#
# Youngs Moduli (GPa) = 26.21632 48.49977 72.74007
#
# Poissons Ratio (x) = 0.04156 0.54424
# Poissons Ratio (y) = 0.02247 0.63923
# Poissons Ratio (z) = 0.19615 0.42621
#
# Static dielectric constant tensor:
#      x y z
#    x 3.487440 0.000000 0.000000 
#    y 0.000000 3.423200 0.000000 
#    z 0.000000 0.000000 3.457710 
# 
# 
# High freq. dielectric constant tensor:
#      x y z
#    x 1.720700 0.000000 0.000000 
#    y 0.000000 1.737940 0.000000 
#    z 0.000000 0.000000 1.739770 
# 
# From -- ./inp_files/10412.got.cif
#   From: 2010.06.25/outbox.cif.g09.slc.cpg/sg71_6_cif.got.tgz:10412.got - 2010.06.28 04:59:45.
