data_PCOD8291223
_publ_section_title
;
Structure prediction by ZEFSAII (Michael W. Deem and Ramdas Pophale) SiO2 
 PCOD8291223
Probable space group: I M M M
;
_chemical_formula_sum "Si O2"
_cell_formula_units_Z 72
_cell_length_a 22.532331
_cell_length_b 18.822927
_cell_length_c 8.717483
_cell_angle_alpha 90.000000
_cell_angle_beta 90.000000
_cell_angle_gamma 90.000000
_cell_volume 3697.297435
_symmetry_space_group_name_H-M "I M M M"
_symmetry_group_IT_number 71
_symmetry_cell_setting 'orthorhombic'
loop_
_space_group_symop_operation_xyz
x,y,z
-x,-y,z
x,-y,-z
-x,y,-z
-x,-y,-z
x,y,-z
-x,y,z
x,-y,z
1/2+x,1/2+y,1/2+z
1/2-x,1/2-y,1/2+z
1/2+x,1/2-y,1/2-z
1/2-x,1/2+y,1/2-z
1/2-x,1/2-y,1/2-z
1/2+x,1/2+y,1/2-z
1/2-x,1/2+y,1/2+z
1/2+x,1/2-y,1/2+z
loop_
_atom_site_type_symbol
_atom_site_label
_atom_site_fract_x
_atom_site_fract_y
_atom_site_fract_z
Si Si1 0.432453 0.312655 0.824304
Si Si2 0.605716 0.831468 0.680067
Si Si3 0.268851 0.824677 0.820058
Si Si4 0.170322 0.081650 0.322584
Si Si5 0.500000 0.083882 0.824057
O O1 0.500000 0.334920 0.790686
O O2 0.413595 0.248702 0.715099
O O3 0.392215 0.380655 0.787600
O O4 0.424203 0.287486 0.000000
O O5 0.611548 0.841228 0.500000
O O6 0.668288 0.850102 0.755973
O O7 0.558248 0.886765 0.742920
O O8 0.250000 0.750000 0.750000
O O9 0.221302 0.884805 0.781256
O O10 0.273733 0.814279 0.000000
O O11 0.188332 0.090752 0.500000
O O12 0.162764 0.000000 0.276272
O O13 0.500000 0.000000 0.808555
O O14 0.500000 0.109206 0.000000
#
# Coordination Sequence:
#
# PCOD8291223 Si02
#       5
#    16  16  16  16   8
#     4  10  20  36  62  92 126 166 209 254 303 368
#     4  12  24  39  64  95 126 163 208 258 313 375
#     4  12  24  40  64  92 124 164 213 262 316 376
#     4  10  22  40  62  92 130 168 208 258 314 371
#     4  11  25  45  67  93 128 167 208 259 317 374
#
# _framework density 19.473682
#
# number of rings (size 3 to 8) (size 9 to 14) (size 15 to 20)
#    0.000    1.000    3.333    4.333    0.000    2.667 
#    0.000    2.222    0.000    0.000    0.000    3.111 
#    0.000    0.000    0.000    0.000    0.000    0.000 
#
# Total GULP energy -446636.623099 kJ/mol
# GULP energy per Si atom -12406.572864 kJ/mol
# Density = 1.942936 g / cm^3
# Si number density = 19.473682 Si / 1000 Ang^3
#
#
#
# Elastic Constant Matrix: (Units=GPa)
#
#
# Indices 1 2 3 4 5 6 
#
# 1 170.1299 56.0451 66.7398 0.0000 0.0000 0.0000
# 2 56.0451 114.9561 50.6075 0.0000 0.0000 0.0000
# 3 66.7398 50.6075 148.8806 0.0000 0.0000 0.0000
# 4 0.0000 0.0000 0.0000 25.0689 0.0000 0.0000
# 5 0.0000 0.0000 0.0000 0.0000 34.2268 0.0000
# 6 0.0000 0.0000 0.0000 0.0000 0.0000 44.9928
#
#
#
# Elastic Compliance Matrix: (Units=1/GPa)
#
#
# Indices 1 2 3 4 5 6 
#
# 1 0.007762 -0.002649 -0.002579 0.000000 0.000000 0.000000
# 2 -0.002649 0.011134 -0.002597 0.000000 0.000000 0.000000
# 3 -0.002579 -0.002597 0.008756 0.000000 0.000000 0.000000
# 4 0.000000 0.000000 0.000000 0.039890 0.000000 0.000000
# 5 0.000000 0.000000 0.000000 0.000000 0.029217 0.000000
# 6 0.000000 0.000000 0.000000 0.000000 0.000000 0.022226
#
#
# Mechanical properties :
#
#
# Convention : Reuss Voigt Hill
#
# Bulk Modulus (GPa) = 83.32444 86.75017 85.03730
# Shear Modulus (GPa) = 36.06577 38.22931 37.14754
#
# Velocity S-wave (km/s) = 4.30819 4.43553 4.37232
# Velocity P-wave (km/s) = 8.22365 8.41879 8.32179
#
# Compressibility (1/GPa) = 0.01200128
#
# Stress axis : x y z
#
# Youngs Moduli (GPa) = 128.82804 89.81693 114.20972
#
# Poissons Ratio (x) = 0.23792 0.29457
# Poissons Ratio (y) = 0.34126 0.29662
# Poissons Ratio (z) = 0.33228 0.23327
#
# Static dielectric constant tensor:
#      x y z
#    x 3.555300 0.000000 0.000000 
#    y 0.000000 3.517590 0.000000 
#    z 0.000000 0.000000 3.633380 
# 
# 
# High freq. dielectric constant tensor:
#      x y z
#    x 1.778260 0.000000 0.000000 
#    y 0.000000 1.753660 0.000000 
#    z 0.000000 0.000000 1.762290 
# 
# From -- ./inp_files/7880.got.cif
#   From: 2010.06.25/outbox.cif.g09.slc.cpg/sg71_4_cif.got.tgz:7880.got - 2010.06.28 04:59:45.
