data_PCOD8291854
_publ_section_title
;
Structure prediction by ZEFSAII (Michael W. Deem and Ramdas Pophale) SiO2 
 PCOD8291854
Probable space group: I M M M
;
_chemical_formula_sum "Si O2"
_cell_formula_units_Z 72
_cell_length_a 22.935236
_cell_length_b 7.867908
_cell_length_c 19.365363
_cell_angle_alpha 90.000000
_cell_angle_beta 90.000000
_cell_angle_gamma 90.000000
_cell_volume 3494.524813
_symmetry_space_group_name_H-M "I M M M"
_symmetry_group_IT_number 71
_symmetry_cell_setting 'orthorhombic'
loop_
_space_group_symop_operation_xyz
x,y,z
-x,-y,z
x,-y,-z
-x,y,-z
-x,-y,-z
x,y,-z
-x,y,z
x,-y,z
1/2+x,1/2+y,1/2+z
1/2-x,1/2-y,1/2+z
1/2+x,1/2-y,1/2-z
1/2-x,1/2+y,1/2-z
1/2-x,1/2-y,1/2-z
1/2+x,1/2+y,1/2-z
1/2-x,1/2+y,1/2+z
1/2+x,1/2-y,1/2+z
loop_
_atom_site_type_symbol
_atom_site_label
_atom_site_fract_x
_atom_site_fract_y
_atom_site_fract_z
Si Si1 0.932419 0.500000 0.425404
Si Si2 0.135851 0.804869 0.924132
Si Si3 0.377878 0.301634 0.154514
Si Si4 0.565334 0.700264 0.702859
Si Si5 0.761938 0.803494 0.422139
O O1 0.900978 0.500000 0.500000
O O2 0.918009 0.324071 0.388141
O O3 0.000000 0.500000 0.435773
O O4 0.094207 0.718898 0.866340
O O5 0.203357 0.794886 0.901259
O O6 0.118296 0.000000 0.929716
O O7 0.126952 0.718143 0.000000
O O8 0.392334 0.500000 0.137269
O O9 0.391073 0.258005 0.234170
O O10 0.311219 0.258268 0.134296
O O11 0.500000 0.776488 0.714159
O O12 0.560232 0.500000 0.694739
O O13 0.782540 0.752714 0.500000
O O14 0.746313 0.000000 0.419444
#
# Coordination Sequence:
#
# PCOD8291854 Si02
#       5
#     8  16  16  16  16
#     4  11  24  38  56  86 117 149 194 238 277 332
#     4   9  18  32  53  82 111 142 184 235 287 340
#     4  10  21  38  59  83 113 153 190 234 283 338
#     4   9  18  34  55  78 109 149 190 232 283 341
#     4   9  18  33  53  78 109 144 182 226 282 342
#
# _framework density 20.603660999999999
#
# number of rings (size 3 to 8) (size 9 to 14) (size 15 to 20)
#    0.000    2.556    0.000    1.333    1.556    4.000 
#    2.000    3.333    0.000    0.000    0.000    3.111 
#    0.000    0.000    0.000    0.000    0.000    0.000 
#
# Total GULP energy -446095.745661 kJ/mol
# GULP energy per Si atom -12391.548491 kJ/mol
# Density = 2.055677 g / cm^3
# Si number density = 20.603661 Si / 1000 Ang^3
#
#
#
# Elastic Constant Matrix: (Units=GPa)
#
#
# Indices 1 2 3 4 5 6 
#
# 1 113.7380 9.1735 92.2217 0.0000 0.0000 0.0000
# 2 9.1735 45.2039 26.8724 0.0000 0.0000 0.0000
# 3 92.2217 26.8724 172.0077 0.0000 0.0000 0.0000
# 4 0.0000 0.0000 0.0000 0.0239 0.0000 0.0000
# 5 0.0000 0.0000 0.0000 0.0000 47.4300 0.0000
# 6 0.0000 0.0000 0.0000 0.0000 0.0000 21.0478
#
#
#
# Elastic Compliance Matrix: (Units=1/GPa)
#
#
# Indices 1 2 3 4 5 6 
#
# 1 0.015717 0.002006 -0.008740 0.000000 0.000000 0.000000
# 2 0.002006 0.024643 -0.004926 0.000000 0.000000 0.000000
# 3 -0.008740 -0.004926 0.011269 0.000000 0.000000 0.000000
# 4 0.000000 0.000000 0.000000 41.780134 0.000000 0.000000
# 5 0.000000 0.000000 0.000000 0.000000 0.021084 0.000000
# 6 0.000000 0.000000 0.000000 0.000000 0.000000 0.047511
#
#
# Mechanical properties :
#
#
# Convention : Reuss Voigt Hill
#
# Bulk Modulus (GPa) = 35.32288 65.27609 50.29948
# Shear Modulus (GPa) = 0.11924 27.21249 13.66586
#
# Velocity S-wave (km/s) = 0.24083 3.63817 2.57820
# Velocity P-wave (km/s) = 4.15434 7.02844 5.77310
#
# Compressibility (1/GPa) = 0.02831027
#
# Stress axis : x y z
#
# Youngs Moduli (GPa) = 63.62528 40.57961 88.73761
#
# Poissons Ratio (x) = -0.08141 0.77557
# Poissons Ratio (y) = -0.12764 0.43708
# Poissons Ratio (z) = 0.55609 0.19988
#
# Static dielectric constant tensor:
#      x y z
#    x 3.762060 0.000000 0.000000 
#    y 0.000000 3.513830 0.000000 
#    z 0.000000 0.000000 4.087570 
# 
# 
# High freq. dielectric constant tensor:
#      x y z
#    x 1.801140 0.000000 0.000000 
#    y 0.000000 1.783300 0.000000 
#    z 0.000000 0.000000 1.809020 
# 
# From -- ./inp_files/12169.got.cif
#   From: 2010.06.25/outbox.cif.g09.slc.cpg/sg71_7_cif.got.tgz:12169.got - 2010.06.28 04:59:45.
