data_PCOD8291625
_publ_section_title
;
Structure prediction by ZEFSAII (Michael W. Deem and Ramdas Pophale) SiO2 
 PCOD8291625
Probable space group: I M M M
;
_chemical_formula_sum "Si O2"
_cell_formula_units_Z 72
_cell_length_a 8.887927
_cell_length_b 31.405692
_cell_length_c 13.138382
_cell_angle_alpha 90.000000
_cell_angle_beta 90.000000
_cell_angle_gamma 90.000000
_cell_volume 3667.336247
_symmetry_space_group_name_H-M "I M M M"
_symmetry_group_IT_number 71
_symmetry_cell_setting 'orthorhombic'
loop_
_space_group_symop_operation_xyz
x,y,z
-x,-y,z
x,-y,-z
-x,y,-z
-x,-y,-z
x,y,-z
-x,y,z
x,-y,z
1/2+x,1/2+y,1/2+z
1/2-x,1/2-y,1/2+z
1/2+x,1/2-y,1/2-z
1/2-x,1/2+y,1/2-z
1/2-x,1/2-y,1/2-z
1/2+x,1/2+y,1/2-z
1/2-x,1/2+y,1/2+z
1/2+x,1/2-y,1/2+z
loop_
_atom_site_type_symbol
_atom_site_label
_atom_site_fract_x
_atom_site_fract_y
_atom_site_fract_z
Si Si1 0.173909 0.683355 0.291666
Si Si2 0.171512 0.550326 0.500000
Si Si3 0.178674 0.047964 0.387440
Si Si4 0.671417 0.727931 0.116293
Si Si5 0.321631 0.595385 0.688102
O O1 0.218995 0.697041 0.177883
O O2 0.211066 0.722497 0.366812
O O3 0.271009 0.643704 0.329195
O O4 0.000000 0.670470 0.294172
O O5 0.180064 0.500000 0.500000
O O6 0.253589 0.566434 0.600525
O O7 0.000000 0.566768 0.500000
O O8 0.234000 0.063472 0.500000
O O9 0.239061 0.078819 0.298118
O O10 0.000000 0.047951 0.385626
O O11 0.237804 0.000000 0.367283
O O12 0.500000 0.719504 0.151562
O O13 0.695320 0.716016 0.000000
O O14 0.500000 0.592471 0.681462
#
# Coordination Sequence:
#
# PCOD8291625 Si02
#       5
#    16   8  16  16  16
#     4  10  21  36  55  83 115 148 187 235 290 349
#     4  11  25  43  61  83 117 161 203 249 305 353
#     4   8  15  30  53  80 109 142 181 228 282 336
#     4   9  19  37  59  79 106 149 193 238 288 343
#     4  11  22  36  58  88 118 151 193 242 289 351
#
# _framework density 19.632777999999998
#
# number of rings (size 3 to 8) (size 9 to 14) (size 15 to 20)
#    0.000    2.333    0.000    3.000    1.556    4.000 
#    0.000    2.222    0.000    2.000    0.000    7.778 
#    0.000    0.000    0.000    0.000    0.000    0.000 
#
# Total GULP energy -446400.259846 kJ/mol
# GULP energy per Si atom -12400.007218 kJ/mol
# Density = 1.958809 g / cm^3
# Si number density = 19.632778 Si / 1000 Ang^3
#
#
#
# Elastic Constant Matrix: (Units=GPa)
#
#
# Indices 1 2 3 4 5 6 
#
# 1 72.8979 34.0600 37.6244 0.0001 0.0001 0.0000
# 2 34.0600 73.0732 24.6769 0.0003 0.0000 0.0000
# 3 37.6244 24.6769 102.9471 0.0014 0.0000 0.0000
# 4 0.0001 0.0003 0.0014 12.5288 -0.0001 0.0000
# 5 0.0001 0.0000 0.0000 -0.0001 24.7768 0.0000
# 6 0.0000 0.0000 0.0000 0.0000 0.0000 27.3397
#
#
#
# Elastic Compliance Matrix: (Units=1/GPa)
#
#
# Indices 1 2 3 4 5 6 
#
# 1 0.020076 -0.007486 -0.005543 0.000001 0.000000 0.000000
# 2 -0.007486 0.017681 -0.001502 0.000000 0.000000 0.000000
# 3 -0.005543 -0.001502 0.012100 -0.000001 0.000000 0.000000
# 4 0.000001 0.000000 -0.000001 0.079816 0.000000 0.000000
# 5 0.000000 0.000000 0.000000 0.000000 0.040360 0.000000
# 6 0.000000 0.000000 0.000000 0.000000 0.000000 0.036577
#
#
# Mechanical properties :
#
#
# Convention : Reuss Voigt Hill
#
# Bulk Modulus (GPa) = 48.08862 49.07118 48.57990
# Shear Modulus (GPa) = 20.60964 23.09953 21.85458
#
# Velocity S-wave (km/s) = 3.24351 3.43385 3.34004
# Velocity P-wave (km/s) = 6.21083 6.38518 6.29861
#
# Compressibility (1/GPa) = 0.02079494
#
# Stress axis : x y z
#
# Youngs Moduli (GPa) = 49.81007 56.55635 82.64689
#
# Poissons Ratio (x) = 0.42337 0.45811
# Poissons Ratio (y) = 0.37287 0.12417
# Poissons Ratio (z) = 0.27609 0.08497
#
# Static dielectric constant tensor:
#      x y z
#    x 3.449140 0.000000 0.000000 
#    y 0.000000 3.562340 0.000000 
#    z 0.000000 0.000000 3.806360 
# 
# 
# High freq. dielectric constant tensor:
#      x y z
#    x 1.745640 0.000000 0.000000 
#    y 0.000000 1.765260 0.000000 
#    z 0.000000 0.000000 1.773720 
# 
# From -- ./inp_files/14318.got.cif
#   From: 2010.06.25/outbox.cif.g09.slc.cpg/sg71_8_cif.got.tgz:14318.got - 2010.06.28 04:59:45.
