data_PCOD8291434
_publ_section_title
;
Structure prediction by ZEFSAII (Michael W. Deem and Ramdas Pophale) SiO2 
 PCOD8291434
Probable space group: I M M M
;
_chemical_formula_sum "Si O2"
_cell_formula_units_Z 104
_cell_length_a 19.958894
_cell_length_b 8.865697
_cell_length_c 32.498054
_cell_angle_alpha 90.000000
_cell_angle_beta 90.000000
_cell_angle_gamma 90.000000
_cell_volume 5750.514623
_symmetry_space_group_name_H-M "I M M M"
_symmetry_group_IT_number 71
_symmetry_cell_setting 'orthorhombic'
loop_
_space_group_symop_operation_xyz
x,y,z
-x,-y,z
x,-y,-z
-x,y,-z
-x,-y,-z
x,y,-z
-x,y,z
x,-y,z
1/2+x,1/2+y,1/2+z
1/2-x,1/2-y,1/2+z
1/2+x,1/2-y,1/2-z
1/2-x,1/2+y,1/2-z
1/2-x,1/2-y,1/2-z
1/2+x,1/2+y,1/2-z
1/2-x,1/2+y,1/2+z
1/2+x,1/2-y,1/2+z
loop_
_atom_site_type_symbol
_atom_site_label
_atom_site_fract_x
_atom_site_fract_y
_atom_site_fract_z
Si Si1 0.000000 0.321234 0.044399
Si Si2 0.422942 0.673522 0.816832
Si Si3 0.132766 0.327568 0.913337
Si Si4 0.175061 0.174954 0.166119
Si Si5 0.814813 0.677910 0.629166
Si Si6 0.729485 0.327396 0.046540
Si Si7 0.923980 0.678237 0.230258
O O1 0.065302 0.265732 0.067397
O O2 0.000000 0.500000 0.040532
O O3 0.000000 0.244457 0.000000
O O4 0.500000 0.692661 0.829515
O O5 0.403750 0.500000 0.809884
O O6 0.380626 0.741633 0.854068
O O7 0.406586 0.762044 0.775264
O O8 0.127288 0.500000 0.896695
O O9 0.141021 0.210386 0.876854
O O10 0.190729 0.316294 0.947337
O O11 0.252957 0.223799 0.159539
O O12 0.135421 0.265046 0.201022
O O13 0.169190 0.000000 0.176919
O O14 0.824606 0.500000 0.629130
O O15 0.805979 0.728855 0.581771
O O16 0.705571 0.500000 0.051563
O O17 0.712662 0.269905 0.000000
O O18 0.920949 0.500000 0.230981
O O19 0.000000 0.730791 0.217112
#
# Coordination Sequence:
#
# PCOD8291434 Si02
#       7
#     8  16  16  16  16  16  16
#     4   9  16  26  43  67  93 125 171 223 269 313
#     4  10  21  38  60  84 108 135 168 208 260 318
#     4   9  17  29  46  69  98 133 175 222 267 312
#     4  10  21  35  50  73 105 141 180 220 263 308
#     4  10  21  36  55  80 109 141 177 215 259 312
#     4   9  17  31  52  76 103 137 176 218 264 312
#     4  10  21  36  55  78 105 140 182 222 262 310
#
# _framework density 18.085336999999999
#
# number of rings (size 3 to 8) (size 9 to 14) (size 15 to 20)
#    0.000    2.385    0.000    2.308    1.077    6.462 
#    0.000    0.000    0.000    2.308    0.000    3.231 
#    0.000    0.000    0.000    0.000    0.000    0.000 
#
# Total GULP energy -644571.112448 kJ/mol
# GULP energy per Si atom -12395.598316 kJ/mol
# Density = 1.804417 g / cm^3
# Si number density = 18.085337 Si / 1000 Ang^3
#
#
#
# Elastic Constant Matrix: (Units=GPa)
#
#
# Indices 1 2 3 4 5 6 
#
# 1 87.4010 37.8934 57.9735 0.0000 0.0000 0.0000
# 2 37.8934 61.1969 38.0866 0.0000 0.0000 0.0000
# 3 57.9735 38.0866 98.4396 0.0000 0.0000 0.0000
# 4 0.0000 0.0000 0.0000 29.0500 0.0000 0.0000
# 5 0.0000 0.0000 0.0000 0.0000 14.9344 0.0000
# 6 0.0000 0.0000 0.0000 0.0000 0.0000 25.0045
#
#
#
# Elastic Compliance Matrix: (Units=1/GPa)
#
#
# Indices 1 2 3 4 5 6 
#
# 1 0.020785 -0.006918 -0.009564 0.000000 0.000000 0.000000
# 2 -0.006918 0.023826 -0.005144 0.000000 0.000000 0.000000
# 3 -0.009564 -0.005144 0.017781 0.000000 0.000000 0.000000
# 4 0.000000 0.000000 0.000000 0.034423 0.000000 0.000000
# 5 0.000000 0.000000 0.000000 0.000000 0.066959 0.000000
# 6 0.000000 0.000000 0.000000 0.000000 0.000000 0.039993
#
#
# Mechanical properties :
#
#
# Convention : Reuss Voigt Hill
#
# Bulk Modulus (GPa) = 52.24742 57.21605 54.73174
# Shear Modulus (GPa) = 19.73169 21.33671 20.53420
#
# Velocity S-wave (km/s) = 3.30666 3.43852 3.37323
# Velocity P-wave (km/s) = 6.59779 6.88984 6.74540
#
# Compressibility (1/GPa) = 0.01913970
#
# Stress axis : x y z
#
# Youngs Moduli (GPa) = 48.11245 41.97143 56.23841
#
# Poissons Ratio (x) = 0.29034 0.53787
# Poissons Ratio (y) = 0.33282 0.28931
# Poissons Ratio (z) = 0.46016 0.21591
#
# Static dielectric constant tensor:
#      x y z
#    x 3.391750 0.000000 0.000000 
#    y 0.000000 3.284400 0.000000 
#    z 0.000000 0.000000 3.313530 
# 
# 
# High freq. dielectric constant tensor:
#      x y z
#    x 1.692940 0.000000 0.000000 
#    y 0.000000 1.697670 0.000000 
#    z 0.000000 0.000000 1.697460 
# 
# From -- ./inp_files/51131.got.cif
#   From: 2010.06.25/outbox.cif.g09.slc.cpg/sg71_26_cif.got.tgz:51131.got - 2010.06.28 04:59:45.
