data_PCOD8291027
_publ_section_title
;
Structure prediction by ZEFSAII (Michael W. Deem and Ramdas Pophale) SiO2 
 PCOD8291027
Probable space group: I M M M
;
_chemical_formula_sum "Si O2"
_cell_formula_units_Z 104
_cell_length_a 20.191817
_cell_length_b 19.120154
_cell_length_c 14.430184
_cell_angle_alpha 90.000000
_cell_angle_beta 90.000000
_cell_angle_gamma 90.000000
_cell_volume 5571.070525
_symmetry_space_group_name_H-M "I M M M"
_symmetry_group_IT_number 71
_symmetry_cell_setting 'orthorhombic'
loop_
_space_group_symop_operation_xyz
x,y,z
-x,-y,z
x,-y,-z
-x,y,-z
-x,-y,-z
x,y,-z
-x,y,z
x,-y,z
1/2+x,1/2+y,1/2+z
1/2-x,1/2-y,1/2+z
1/2+x,1/2-y,1/2-z
1/2-x,1/2+y,1/2-z
1/2-x,1/2-y,1/2-z
1/2+x,1/2+y,1/2-z
1/2-x,1/2+y,1/2+z
1/2+x,1/2-y,1/2+z
loop_
_atom_site_type_symbol
_atom_site_label
_atom_site_fract_x
_atom_site_fract_y
_atom_site_fract_z
Si Si1 0.922914 0.788993 0.605858
Si Si2 0.751864 0.920338 0.193087
Si Si3 0.115762 0.657781 0.712668
Si Si4 0.381282 0.577709 0.210099
Si Si5 0.424353 0.783182 0.602584
Si Si6 0.500000 0.082616 0.893683
Si Si7 0.128626 0.133149 0.101654
O O1 0.900554 0.779773 0.500000
O O2 0.881940 0.735912 0.670236
O O3 0.908907 0.868550 0.635114
O O4 0.000000 0.771243 0.618413
O O5 0.688083 0.874189 0.210519
O O6 0.800748 0.917887 0.283284
O O7 0.793314 0.887523 0.107119
O O8 0.731068 0.000000 0.170552
O O9 0.093729 0.659618 0.820067
O O10 0.065853 0.610368 0.654722
O O11 0.404237 0.500000 0.180512
O O12 0.410140 0.594441 0.314058
O O13 0.414139 0.816414 0.500000
O O14 0.500000 0.758411 0.615707
O O15 0.377677 0.716143 0.615101
O O16 0.500000 0.000000 0.886918
O O17 0.500000 0.108546 0.000000
O O18 0.101070 0.110908 0.000000
#
# Coordination Sequence:
#
# PCOD8291027 Si02
#       7
#    16  16  16  16  16   8  16
#     4  11  23  38  58  86 118 154 196 239 288 345
#     4   9  21  37  56  83 116 152 190 234 290 344
#     4  12  20  38  62  83 117 157 188 239 295 343
#     4   9  20  38  57  80 115 154 190 235 284 336
#     4  10  20  35  59  89 116 147 190 239 289 340
#     4  11  24  38  57  89 118 150 200 247 293 345
#     4   9  18  34  58  86 116 150 188 230 283 345
#
# _framework density 18.667864999999999
#
# number of rings (size 3 to 8) (size 9 to 14) (size 15 to 20)
#    0.923    1.000    3.077    0.923    0.000    5.538 
#    0.000    3.077    0.000    3.692    0.000    9.692 
#    0.000    0.000    0.000    0.000    0.000    0.000 
#
# Total GULP energy -644436.918735 kJ/mol
# GULP energy per Si atom -12393.017668 kJ/mol
# Density = 1.862538 g / cm^3
# Si number density = 18.667865 Si / 1000 Ang^3
#
#
#
# Elastic Constant Matrix: (Units=GPa)
#
#
# Indices 1 2 3 4 5 6 
#
# 1 51.0119 27.0756 29.5135 0.0000 0.0000 0.0000
# 2 27.0756 88.9495 46.0625 0.0000 0.0000 0.0000
# 3 29.5135 46.0625 117.9715 0.0000 0.0000 0.0000
# 4 0.0000 0.0000 0.0000 23.2152 0.0000 0.0000
# 5 0.0000 0.0000 0.0000 0.0000 19.5912 0.0000
# 6 0.0000 0.0000 0.0000 0.0000 0.0000 27.0497
#
#
#
# Elastic Compliance Matrix: (Units=1/GPa)
#
#
# Indices 1 2 3 4 5 6 
#
# 1 0.024863 -0.005449 -0.004093 0.000000 0.000000 0.000000
# 2 -0.005449 0.015286 -0.004605 0.000000 0.000000 0.000000
# 3 -0.004093 -0.004605 0.011299 0.000000 0.000000 0.000000
# 4 0.000000 0.000000 0.000000 0.043075 0.000000 0.000000
# 5 0.000000 0.000000 0.000000 0.000000 0.051043 0.000000
# 6 0.000000 0.000000 0.000000 0.000000 0.000000 0.036969
#
#
# Mechanical properties :
#
#
# Convention : Reuss Voigt Hill
#
# Bulk Modulus (GPa) = 43.18870 51.47067 47.32969
# Shear Modulus (GPa) = 22.87842 24.32330 23.60086
#
# Velocity S-wave (km/s) = 3.50459 3.61356 3.55949
# Velocity P-wave (km/s) = 6.28981 6.71134 6.50399
#
# Compressibility (1/GPa) = 0.02315421
#
# Stress axis : x y z
#
# Youngs Moduli (GPa) = 40.22011 65.42051 88.50635
#
# Poissons Ratio (x) = 0.35646 0.36222
# Poissons Ratio (y) = 0.21915 0.40759
# Poissons Ratio (z) = 0.16461 0.30128
#
# Static dielectric constant tensor:
#      x y z
#    x 3.225090 0.000000 0.000000 
#    y 0.000000 3.321170 0.000000 
#    z 0.000000 0.000000 3.489710 
# 
# 
# High freq. dielectric constant tensor:
#      x y z
#    x 1.706890 0.000000 0.000000 
#    y 0.000000 1.720090 0.000000 
#    z 0.000000 0.000000 1.721870 
# 
# From -- ./inp_files/38066.got.cif
#   From: 2010.06.25/outbox.cif.g09.slc.cpg/sg71_20_cif.got.tgz:38066.got - 2010.06.28 04:59:45.
