data_PCOD8291911
_publ_section_title
;
Structure prediction by ZEFSAII (Michael W. Deem and Ramdas Pophale) SiO2 
 PCOD8291911
Probable space group: I M M M
;
_chemical_formula_sum "Si O2"
_cell_formula_units_Z 72
_cell_length_a 32.400422
_cell_length_b 14.430752
_cell_length_c 7.545525
_cell_angle_alpha 90.000000
_cell_angle_beta 90.000000
_cell_angle_gamma 90.000000
_cell_volume 3528.004190
_symmetry_space_group_name_H-M "I M M M"
_symmetry_group_IT_number 71
_symmetry_cell_setting 'orthorhombic'
loop_
_space_group_symop_operation_xyz
x,y,z
-x,-y,z
x,-y,-z
-x,y,-z
-x,-y,-z
x,y,-z
-x,y,z
x,-y,z
1/2+x,1/2+y,1/2+z
1/2-x,1/2-y,1/2+z
1/2+x,1/2-y,1/2-z
1/2-x,1/2+y,1/2-z
1/2-x,1/2-y,1/2-z
1/2+x,1/2+y,1/2-z
1/2-x,1/2+y,1/2+z
1/2+x,1/2-y,1/2+z
loop_
_atom_site_type_symbol
_atom_site_label
_atom_site_fract_x
_atom_site_fract_y
_atom_site_fract_z
Si Si1 0.954053 0.898474 0.209781
Si Si2 0.243189 0.102578 0.705356
Si Si3 0.452640 0.109204 0.000000
Si Si4 0.405964 0.779897 0.288750
Si Si5 0.187417 0.262645 0.791391
O O1 0.922414 0.820447 0.274112
O O2 0.000000 0.875798 0.281985
O O3 0.939875 0.000000 0.280117
O O4 0.955216 0.899940 0.000000
O O5 0.251976 0.089843 0.500000
O O6 0.200781 0.159157 0.733686
O O7 0.281148 0.161103 0.791655
O O8 0.240073 0.000000 0.793617
O O9 0.430945 0.143391 0.819534
O O10 0.500000 0.142572 0.000000
O O11 0.449255 0.000000 0.000000
O O12 0.411606 0.796845 0.500000
O O13 0.358560 0.784517 0.226263
O O14 0.189134 0.267605 0.000000
#
# Coordination Sequence:
#
# PCOD8291911 Si02
#       5
#    16  16   8  16  16
#     4   8  14  27  50  80 111 143 181 224 278 346
#     4   9  18  33  53  77 111 152 188 232 289 346
#     4  11  26  44  61  87 119 153 202 256 299 351
#     4  10  21  38  62  87 116 156 195 246 301 350
#     4   9  19  34  54  81 111 145 191 240 285 345
#
# _framework density 20.408138000000001
#
# number of rings (size 3 to 8) (size 9 to 14) (size 15 to 20)
#    0.000    2.778    0.000    1.333    1.556    4.000 
#    0.000    6.111    0.000    2.000    0.000    0.000 
#    0.000    0.000    0.000    0.000    0.000    0.000 
#
# Total GULP energy -446187.547806 kJ/mol
# GULP energy per Si atom -12394.098550 kJ/mol
# Density = 2.036169 g / cm^3
# Si number density = 20.408138 Si / 1000 Ang^3
#
#
#
# Elastic Constant Matrix: (Units=GPa)
#
#
# Indices 1 2 3 4 5 6 
#
# 1 149.1290 75.0527 37.7847 0.0000 0.0000 0.0000
# 2 75.0527 140.9446 24.1792 0.0000 0.0000 0.0000
# 3 37.7847 24.1792 47.6351 0.0000 -0.0001 0.0000
# 4 0.0000 0.0000 0.0000 24.9455 0.0000 0.0000
# 5 0.0000 0.0000 -0.0001 0.0000 -9.6411 0.0000
# 6 0.0000 0.0000 0.0000 0.0000 0.0000 17.4574
#
#
#
# Elastic Compliance Matrix: (Units=1/GPa)
#
#
# Indices 1 2 3 4 5 6 
#
# 1 0.010538 -0.004576 -0.006036 0.000000 0.000000 0.000000
# 2 -0.004576 0.009759 -0.001324 0.000000 0.000000 0.000000
# 3 -0.006036 -0.001324 0.026453 0.000000 0.000000 0.000000
# 4 0.000000 0.000000 0.000000 0.040087 0.000000 0.000000
# 5 0.000000 0.000000 0.000000 0.000000 -0.103723 0.000000
# 6 0.000000 0.000000 0.000000 0.000000 0.000000 0.057282
#
#
# Mechanical properties :
#
#
# Convention : Reuss Voigt Hill
#
# Bulk Modulus (GPa) = 43.71046 67.97134 55.84090
# Shear Modulus (GPa) = 69.54690 19.93182 44.73936
#
# Velocity S-wave (km/s) = 5.84397 3.12855 4.68721
# Velocity P-wave (km/s) = 8.18539 6.81386 7.53092
#
# Compressibility (1/GPa) = 0.02287782
#
# Stress axis : x y z
#
# Youngs Moduli (GPa) = 94.89551 102.47217 37.80324
#
# Poissons Ratio (x) = 0.46890 0.22818
# Poissons Ratio (y) = 0.43423 0.05004
# Poissons Ratio (z) = 0.57280 0.13565
#
# Static dielectric constant tensor:
#      x y z
#    x 3.963440 0.000000 0.000000 
#    y 0.000000 4.090880 0.000000 
#    z 0.000000 0.000000 3.405910 
# 
# 
# High freq. dielectric constant tensor:
#      x y z
#    x 1.794000 0.000000 0.000000 
#    y 0.000000 1.798610 0.000000 
#    z 0.000000 0.000000 1.782210 
# 
# From -- ./inp_files/16354.got.cif
#   From: 2010.06.25/outbox.cif.g09.slc.cpg/sg71_9_cif.got.tgz:16354.got - 2010.06.28 04:59:45.
