data_PCOD8291902
_publ_section_title
;
Structure prediction by ZEFSAII (Michael W. Deem and Ramdas Pophale) SiO2 
 PCOD8291902
Probable space group: I M M M
;
_chemical_formula_sum "Si O2"
_cell_formula_units_Z 72
_cell_length_a 23.653463
_cell_length_b 8.770865
_cell_length_c 17.665918
_cell_angle_alpha 90.000000
_cell_angle_beta 90.000000
_cell_angle_gamma 90.000000
_cell_volume 3664.994857
_symmetry_space_group_name_H-M "I M M M"
_symmetry_group_IT_number 71
_symmetry_cell_setting 'orthorhombic'
loop_
_space_group_symop_operation_xyz
x,y,z
-x,-y,z
x,-y,-z
-x,y,-z
-x,-y,-z
x,y,-z
-x,y,z
x,-y,z
1/2+x,1/2+y,1/2+z
1/2-x,1/2-y,1/2+z
1/2+x,1/2-y,1/2-z
1/2-x,1/2+y,1/2-z
1/2-x,1/2-y,1/2-z
1/2+x,1/2+y,1/2-z
1/2-x,1/2+y,1/2+z
1/2+x,1/2-y,1/2+z
loop_
_atom_site_type_symbol
_atom_site_label
_atom_site_fract_x
_atom_site_fract_y
_atom_site_fract_z
Si Si1 0.629725 0.819692 0.644685
Si Si2 0.753708 0.820598 0.832319
Si Si3 0.435008 0.677107 0.783180
Si Si4 0.350598 0.324327 0.086592
Si Si5 0.562222 0.181050 0.500000
O O1 0.689524 0.740893 0.629799
O O2 0.600163 0.772861 0.722599
O O3 0.592223 0.760107 0.575435
O O4 0.638283 0.000000 0.644900
O O5 0.750000 0.750000 0.750000
O O6 0.700693 0.777674 0.883916
O O7 0.756659 0.000000 0.823630
O O8 0.500000 0.732759 0.785746
O O9 0.431224 0.500000 0.761067
O O10 0.407238 0.707525 0.865148
O O11 0.332070 0.500000 0.094292
O O12 0.364252 0.280857 0.000000
O O13 0.500000 0.252479 0.500000
O O14 0.560080 0.000000 0.500000
#
# Coordination Sequence:
#
# PCOD8291902 Si02
#       5
#    16  16  16  16   8
#     4  11  22  38  62  90 119 160 205 250 304 362
#     4  12  24  40  62  89 120 156 200 251 307 362
#     4  10  21  38  61  89 121 159 203 251 301 359
#     4  10  22  40  62  89 124 165 205 247 299 360
#     4   9  20  38  59  87 123 161 202 245 292 355
#
# _framework density 19.645322
#
# number of rings (size 3 to 8) (size 9 to 14) (size 15 to 20)
#    0.000    1.444    2.222    3.333    1.556    2.222 
#    0.000    3.889    0.000    4.000    0.000    3.111 
#    0.000    0.000    0.000    0.000    0.000    0.000 
#
# Total GULP energy -446532.476565 kJ/mol
# GULP energy per Si atom -12403.679905 kJ/mol
# Density = 1.960061 g / cm^3
# Si number density = 19.645322 Si / 1000 Ang^3
#
#
#
# Elastic Constant Matrix: (Units=GPa)
#
#
# Indices 1 2 3 4 5 6 
#
# 1 121.3487 34.5484 27.5144 0.0000 0.0000 0.0000
# 2 34.5484 90.0678 29.5184 0.0000 0.0000 0.0000
# 3 27.5144 29.5184 119.1242 0.0000 0.0000 0.0000
# 4 0.0000 0.0000 0.0000 22.9999 0.0000 0.0000
# 5 0.0000 0.0000 0.0000 0.0000 36.3290 0.0000
# 6 0.0000 0.0000 0.0000 0.0000 0.0000 30.4612
#
#
#
# Elastic Compliance Matrix: (Units=1/GPa)
#
#
# Indices 1 2 3 4 5 6 
#
# 1 0.009461 -0.003170 -0.001400 0.000000 0.000000 0.000000
# 2 -0.003170 0.013146 -0.002525 0.000000 0.000000 0.000000
# 3 -0.001400 -0.002525 0.009344 0.000000 0.000000 0.000000
# 4 0.000000 0.000000 0.000000 0.043478 0.000000 0.000000
# 5 0.000000 0.000000 0.000000 0.000000 0.027526 0.000000
# 6 0.000000 0.000000 0.000000 0.000000 0.000000 0.032829
#
#
# Mechanical properties :
#
#
# Convention : Reuss Voigt Hill
#
# Bulk Modulus (GPa) = 56.30529 57.07811 56.69170
# Shear Modulus (GPa) = 32.07296 33.88864 32.98080
#
# Velocity S-wave (km/s) = 4.04493 4.15785 4.10178
# Velocity P-wave (km/s) = 7.10904 7.22272 7.16610
#
# Compressibility (1/GPa) = 0.01776032
#
# Stress axis : x y z
#
# Youngs Moduli (GPa) = 105.70116 76.06616 107.02460
#
# Poissons Ratio (x) = 0.24115 0.14979
# Poissons Ratio (y) = 0.33510 0.27028
# Poissons Ratio (z) = 0.14794 0.19210
#
# Static dielectric constant tensor:
#      x y z
#    x 4.090250 0.000000 0.000000 
#    y 0.000000 3.476040 0.000000 
#    z 0.000000 0.000000 3.699580 
# 
# 
# High freq. dielectric constant tensor:
#      x y z
#    x 1.779520 0.000000 0.000000 
#    y 0.000000 1.755300 0.000000 
#    z 0.000000 0.000000 1.773360 
# 
# From -- ./inp_files/7935.got.cif
#   From: 2010.06.25/outbox.cif.g09.slc.cpg/sg71_4_cif.got.tgz:7935.got - 2010.06.28 04:59:45.
