data_PCOD8291806
_publ_section_title
;
Structure prediction by ZEFSAII (Michael W. Deem and Ramdas Pophale) SiO2 
 PCOD8291806
Probable space group: I M M M
;
_chemical_formula_sum "Si O2"
_cell_formula_units_Z 104
_cell_length_a 26.729831
_cell_length_b 21.760817
_cell_length_c 9.086775
_cell_angle_alpha 90.000000
_cell_angle_beta 90.000000
_cell_angle_gamma 90.000000
_cell_volume 5285.440451
_symmetry_space_group_name_H-M "I M M M"
_symmetry_group_IT_number 71
_symmetry_cell_setting 'orthorhombic'
loop_
_space_group_symop_operation_xyz
x,y,z
-x,-y,z
x,-y,-z
-x,y,-z
-x,-y,-z
x,y,-z
-x,y,z
x,-y,z
1/2+x,1/2+y,1/2+z
1/2-x,1/2-y,1/2+z
1/2+x,1/2-y,1/2-z
1/2-x,1/2+y,1/2-z
1/2-x,1/2-y,1/2-z
1/2+x,1/2+y,1/2-z
1/2-x,1/2+y,1/2+z
1/2+x,1/2-y,1/2+z
loop_
_atom_site_type_symbol
_atom_site_label
_atom_site_fract_x
_atom_site_fract_y
_atom_site_fract_z
Si Si1 0.442765 0.836909 0.826438
Si Si2 0.941044 0.129384 0.336936
Si Si3 0.380244 0.928600 0.665490
Si Si4 0.277279 0.070200 0.173024
Si Si5 0.277893 0.305878 0.328146
Si Si6 0.889341 0.229442 0.170359
Si Si7 0.445786 0.500000 0.826509
O O1 0.500000 0.819982 0.783398
O O2 0.427358 0.901097 0.753418
O O3 0.402383 0.788871 0.765315
O O4 0.437036 0.841292 0.000000
O O5 0.921302 0.149758 0.500000
O O6 0.929378 0.178008 0.211884
O O7 0.916876 0.063455 0.286593
O O8 0.000000 0.120390 0.347065
O O9 0.377478 0.901600 0.500000
O O10 0.328421 0.913180 0.745453
O O11 0.390724 0.000000 0.661764
O O12 0.238795 0.124751 0.220692
O O13 0.258988 0.000000 0.215662
O O14 0.287505 0.072780 0.000000
O O15 0.268108 0.297767 0.500000
O O16 0.250000 0.250000 0.250000
O O17 0.335750 0.298079 0.286845
O O18 0.893752 0.246489 0.000000
O O19 0.500000 0.500000 0.746897
O O20 0.453988 0.500000 0.000000
#
# Coordination Sequence:
#
# PCOD8291806 Si02
#       7
#    16  16  16  16  16  16   8
#     4  11  24  40  58  81 110 148 194 236 272 323
#     4   9  17  32  54  77 103 139 183 225 265 316
#     4  10  21  37  59  88 119 147 177 221 280 339
#     4   9  18  36  61  84 110 149 194 234 275 332
#     4  10  22  38  56  81 109 142 184 229 280 334
#     4  11  23  37  53  80 113 143 178 226 286 337
#     4   7  12  26  49  73  97 131 175 219 257 297
#
# _framework density 19.676696
#
# number of rings (size 3 to 8) (size 9 to 14) (size 15 to 20)
#    0.000    2.231    0.000    3.692    0.000    8.923 
#    1.385    1.923    0.000    1.385    0.000    0.000 
#    0.000    0.000    0.000    0.000    0.000    0.000 
#
# Total GULP energy -644387.527475 kJ/mol
# GULP energy per Si atom -12392.067836 kJ/mol
# Density = 1.963191 g / cm^3
# Si number density = 19.676696 Si / 1000 Ang^3
#
#
#
# Elastic Constant Matrix: (Units=GPa)
#
#
# Indices 1 2 3 4 5 6 
#
# 1 79.7029 51.5716 49.1228 0.0000 0.0000 0.0000
# 2 51.5716 114.4202 43.2399 0.0000 0.0000 0.0000
# 3 49.1228 43.2399 71.6720 0.0000 0.0000 0.0000
# 4 0.0000 0.0000 0.0000 27.7820 0.0000 0.0000
# 5 0.0000 0.0000 0.0000 0.0000 26.5717 0.0000
# 6 0.0000 0.0000 0.0000 0.0000 0.0000 33.5178
#
#
#
# Elastic Compliance Matrix: (Units=1/GPa)
#
#
# Indices 1 2 3 4 5 6 
#
# 1 0.024638 -0.006118 -0.013195 0.000000 0.000000 0.000000
# 2 -0.006118 0.012840 -0.003553 0.000000 0.000000 0.000000
# 3 -0.013195 -0.003553 0.025140 0.000000 0.000000 0.000000
# 4 0.000000 0.000000 0.000000 0.035995 0.000000 0.000000
# 5 0.000000 0.000000 0.000000 0.000000 0.037634 0.000000
# 6 0.000000 0.000000 0.000000 0.000000 0.000000 0.029835
#
#
# Mechanical properties :
#
#
# Convention : Reuss Voigt Hill
#
# Bulk Modulus (GPa) = 59.22552 61.51819 60.37185
# Shear Modulus (GPa) = 22.99455 25.69837 24.34646
#
# Velocity S-wave (km/s) = 3.42222 3.61782 3.52138
# Velocity P-wave (km/s) = 6.76610 6.98455 6.87619
#
# Compressibility (1/GPa) = 0.01688461
#
# Stress axis : x y z
#
# Youngs Moduli (GPa) = 40.58773 77.88109 39.77753
#
# Poissons Ratio (x) = 0.47650 0.52488
# Poissons Ratio (y) = 0.24833 0.14133
# Poissons Ratio (z) = 0.53557 0.27672
#
# Static dielectric constant tensor:
#      x y z
#    x 3.575660 0.000000 0.000000 
#    y 0.000000 4.135250 0.000000 
#    z 0.000000 0.000000 3.608800 
# 
# 
# High freq. dielectric constant tensor:
#      x y z
#    x 1.744530 0.000000 0.000000 
#    y 0.000000 1.788800 0.000000 
#    z 0.000000 0.000000 1.759160 
# 
# From -- ./inp_files/15058.got.cif
#   From: 2010.06.25/outbox.cif.g09.slc.cpg/sg71_8_cif.got.tgz:15058.got - 2010.06.28 04:59:45.
