data_PCOD8291071
_publ_section_title
;
Structure prediction by ZEFSAII (Michael W. Deem and Ramdas Pophale) SiO2 
 PCOD8291071
Probable space group: I M M M
;
_chemical_formula_sum "Si O2"
_cell_formula_units_Z 120
_cell_length_a 9.620590
_cell_length_b 25.470895
_cell_length_c 26.508275
_cell_angle_alpha 90.000000
_cell_angle_beta 90.000000
_cell_angle_gamma 90.000000
_cell_volume 6495.721247
_symmetry_space_group_name_H-M "I M M M"
_symmetry_group_IT_number 71
_symmetry_cell_setting 'orthorhombic'
loop_
_space_group_symop_operation_xyz
x,y,z
-x,-y,z
x,-y,-z
-x,y,-z
-x,-y,-z
x,y,-z
-x,y,z
x,-y,z
1/2+x,1/2+y,1/2+z
1/2-x,1/2-y,1/2+z
1/2+x,1/2-y,1/2-z
1/2-x,1/2+y,1/2-z
1/2-x,1/2-y,1/2-z
1/2+x,1/2+y,1/2-z
1/2-x,1/2+y,1/2+z
1/2+x,1/2-y,1/2+z
loop_
_atom_site_type_symbol
_atom_site_label
_atom_site_fract_x
_atom_site_fract_y
_atom_site_fract_z
Si Si1 0.342572 0.640036 0.185196
Si Si2 0.843067 0.442574 0.356219
Si Si3 0.158761 0.562143 0.000000
Si Si4 0.658084 0.412795 0.556658
Si Si5 0.161544 0.938779 0.403946
Si Si6 0.840227 0.208789 0.056621
Si Si7 0.157335 0.256805 0.354353
Si Si8 0.335972 0.149024 0.216078
O O1 0.500000 0.629004 0.203410
O O2 0.297508 0.596113 0.144521
O O3 0.331046 0.697453 0.162308
O O4 0.239282 0.638696 0.231690
O O5 0.834815 0.500000 0.330086
O O6 0.755736 0.445814 0.407216
O O7 0.784330 0.398572 0.319011
O O8 0.000000 0.428110 0.371187
O O9 0.242363 0.580841 0.049714
O O10 0.154068 0.500000 0.000000
O O11 0.000000 0.584640 0.000000
O O12 0.680174 0.433394 0.500000
O O13 0.500000 0.421634 0.573651
O O14 0.698366 0.352010 0.560343
O O15 0.000000 0.929943 0.418688
O O16 0.189122 0.000000 0.391166
O O17 0.746675 0.240480 0.095243
O O18 0.000000 0.218219 0.070955
O O19 0.810598 0.229348 0.000000
O O20 0.210920 0.296226 0.310213
O O21 0.000000 0.272937 0.367691
O O22 0.500000 0.147927 0.226437
#
# Coordination Sequence:
#
# PCOD8291071 Si02
#       8
#    16  16   8  16  16  16  16  16
#     4  10  22  37  55  82 108 134 178 225 261 307
#     4  10  21  36  53  76 106 139 178 222 266 316
#     4   9  17  31  55  85 111 139 177 213 250 307
#     4   9  18  33  53  77 105 138 177 221 267 316
#     4   9  18  35  57  79 108 144 175 209 259 314
#     4   9  18  33  54  80 109 141 177 216 263 317
#     4  10  20  36  56  79 106 138 178 220 263 315
#     4  10  21  37  55  75 103 140 178 218 269 320
#
# _framework density 18.473697999999999
#
# number of rings (size 3 to 8) (size 9 to 14) (size 15 to 20)
#    0.000    2.467    1.333    1.400    0.000    4.533 
#    1.200    2.667    0.000    0.000    0.000    0.000 
#    0.000    0.000    0.000    0.000    0.000    0.000 
#
# Total GULP energy -743929.772437 kJ/mol
# GULP energy per Si atom -12398.829541 kJ/mol
# Density = 1.843165 g / cm^3
# Si number density = 18.473698 Si / 1000 Ang^3
#
#
#
# Elastic Constant Matrix: (Units=GPa)
#
#
# Indices 1 2 3 4 5 6 
#
# 1 77.3344 33.1265 66.9922 0.0000 0.0000 0.0000
# 2 33.1265 83.8070 46.9510 0.0000 0.0000 0.0000
# 3 66.9922 46.9510 122.7054 0.0000 0.0000 0.0000
# 4 0.0000 0.0000 0.0000 5.2412 0.0000 0.0000
# 5 0.0000 0.0000 0.0000 0.0000 41.0679 0.0000
# 6 0.0000 0.0000 0.0000 0.0000 0.0000 17.8892
#
#
#
# Elastic Compliance Matrix: (Units=1/GPa)
#
#
# Indices 1 2 3 4 5 6 
#
# 1 0.025058 -0.002852 -0.012590 0.000000 0.000000 0.000000
# 2 -0.002852 0.015512 -0.004379 0.000000 0.000000 0.000000
# 3 -0.012590 -0.004379 0.016698 0.000000 0.000000 0.000000
# 4 0.000000 0.000000 0.000000 0.190794 0.000000 0.000000
# 5 0.000000 0.000000 0.000000 0.000000 0.024350 0.000000
# 6 0.000000 0.000000 0.000000 0.000000 0.000000 0.055900
#
#
# Mechanical properties :
#
#
# Convention : Reuss Voigt Hill
#
# Bulk Modulus (GPa) = 56.72419 64.22069 60.47244
# Shear Modulus (GPa) = 13.37507 21.95814 17.66661
#
# Velocity S-wave (km/s) = 2.69366 3.45137 3.09578
# Velocity P-wave (km/s) = 6.35975 7.12190 6.75159
#
# Compressibility (1/GPa) = 0.01762916
#
# Stress axis : x y z
#
# Youngs Moduli (GPa) = 39.90665 64.46453 59.88570
#
# Poissons Ratio (x) = 0.18384 0.75394
# Poissons Ratio (y) = 0.11380 0.26222
# Poissons Ratio (z) = 0.50241 0.28226
#
# Static dielectric constant tensor:
#      x y z
#    x 3.427580 0.000000 0.000000 
#    y 0.000000 3.400840 0.000000 
#    z 0.000000 0.000000 3.382530 
# 
# 
# High freq. dielectric constant tensor:
#      x y z
#    x 1.714080 0.000000 0.000000 
#    y 0.000000 1.714470 0.000000 
#    z 0.000000 0.000000 1.711390 
# 
# From -- ./inp_files/63760.got.cif
#   From: 2010.06.25/outbox.cif.g09.slc.cpg/sg71_32_cif.got.tgz:63760.got - 2010.06.28 04:59:45.
