data_PCOD8291494
_publ_section_title
;
Structure prediction by ZEFSAII (Michael W. Deem and Ramdas Pophale) SiO2 
 PCOD8291494
Probable space group: I M M M
;
_chemical_formula_sum "Si O2"
_cell_formula_units_Z 88
_cell_length_a 28.649531
_cell_length_b 8.409160
_cell_length_c 17.316314
_cell_angle_alpha 90.000000
_cell_angle_beta 90.000000
_cell_angle_gamma 90.000000
_cell_volume 4171.820223
_symmetry_space_group_name_H-M "I M M M"
_symmetry_group_IT_number 71
_symmetry_cell_setting 'orthorhombic'
loop_
_space_group_symop_operation_xyz
x,y,z
-x,-y,z
x,-y,-z
-x,y,-z
-x,-y,-z
x,y,-z
-x,y,z
x,-y,z
1/2+x,1/2+y,1/2+z
1/2-x,1/2-y,1/2+z
1/2+x,1/2-y,1/2-z
1/2-x,1/2+y,1/2-z
1/2-x,1/2-y,1/2-z
1/2+x,1/2+y,1/2-z
1/2-x,1/2+y,1/2+z
1/2+x,1/2-y,1/2+z
loop_
_atom_site_type_symbol
_atom_site_label
_atom_site_fract_x
_atom_site_fract_y
_atom_site_fract_z
Si Si1 0.859054 0.188129 0.671091
Si Si2 0.552339 0.812079 0.913199
Si Si3 0.445474 0.000000 0.587604
Si Si4 0.269275 0.313180 0.084682
Si Si5 0.406649 0.325728 0.589153
Si Si6 0.815680 0.178828 0.829335
O O1 0.910012 0.250532 0.648258
O O2 0.819930 0.250454 0.611161
O O3 0.843047 0.251518 0.755461
O O4 0.862142 0.000000 0.672753
O O5 0.500000 0.754079 0.889674
O O6 0.553688 0.000000 0.912650
O O7 0.563986 0.749791 0.000000
O O8 0.428974 0.166250 0.628170
O O9 0.500000 0.000000 0.590072
O O10 0.425755 0.000000 0.500000
O O11 0.271500 0.500000 0.077830
O O12 0.230674 0.273604 0.148785
O O13 0.258108 0.238707 0.000000
O O14 0.420549 0.327411 0.500000
O O15 0.422976 0.500000 0.624740
O O16 0.350965 0.313195 0.598463
O O17 0.799628 0.000000 0.810589
#
# Coordination Sequence:
#
# PCOD8291494 Si02
#       6
#    16  16   8  16  16  16
#     4  10  21  37  56  82 117 150 185 231 284 340
#     4   9  19  37  60  85 113 147 189 234 279 331
#     4   9  18  32  52  78 104 136 183 235 292 352
#     4  10  21  35  54  82 113 147 189 236 282 334
#     4   9  18  33  53  77 106 142 189 243 290 341
#     4  10  21  36  54  78 110 149 189 227 279 342
#
# _framework density 21.093910000000001
#
# number of rings (size 3 to 8) (size 9 to 14) (size 15 to 20)
#    0.000    2.455    0.000    2.182    1.273    4.364 
#    0.000    3.636    0.000    3.273    0.000    0.000 
#    0.000    0.000    0.000    0.000    0.000    0.000 
#
# Total GULP energy -545138.899766 kJ/mol
# GULP energy per Si atom -12389.520449 kJ/mol
# Density = 2.104590 g / cm^3
# Si number density = 21.093910 Si / 1000 Ang^3
#
#
#
# Elastic Constant Matrix: (Units=GPa)
#
#
# Indices 1 2 3 4 5 6 
#
# 1 138.2157 41.7850 56.0774 0.0000 0.0000 0.0000
# 2 41.7850 95.2957 14.7787 0.0000 0.0000 0.0000
# 3 56.0774 14.7787 91.1792 0.0000 0.0000 0.0000
# 4 0.0000 0.0000 0.0000 17.6962 0.0000 0.0000
# 5 0.0000 0.0000 0.0000 0.0000 29.6389 0.0000
# 6 0.0000 0.0000 0.0000 0.0000 0.0000 30.2576
#
#
#
# Elastic Compliance Matrix: (Units=1/GPa)
#
#
# Indices 1 2 3 4 5 6 
#
# 1 0.010844 -0.003816 -0.006051 0.000000 0.000000 0.000000
# 2 -0.003816 0.012107 0.000385 0.000000 0.000000 0.000000
# 3 -0.006051 0.000385 0.014626 0.000000 0.000000 0.000000
# 4 0.000000 0.000000 0.000000 0.056509 0.000000 0.000000
# 5 0.000000 0.000000 0.000000 0.000000 0.033739 0.000000
# 6 0.000000 0.000000 0.000000 0.000000 0.000000 0.033050
#
#
# Mechanical properties :
#
#
# Convention : Reuss Voigt Hill
#
# Bulk Modulus (GPa) = 53.72589 61.10807 57.41698
# Shear Modulus (GPa) = 26.87533 29.65518 28.26525
#
# Velocity S-wave (km/s) = 3.57330 3.75355 3.66453
# Velocity P-wave (km/s) = 6.52302 6.91505 6.72189
#
# Compressibility (1/GPa) = 0.01861300
#
# Stress axis : x y z
#
# Youngs Moduli (GPa) = 92.21965 82.59429 68.37007
#
# Poissons Ratio (x) = 0.31521 0.41368
# Poissons Ratio (y) = 0.35194 -0.02631
# Poissons Ratio (z) = 0.55798 -0.03178
#
# Static dielectric constant tensor:
#      x y z
#    x 3.864170 0.000000 0.000000 
#    y 0.000000 3.910020 0.000000 
#    z 0.000000 0.000000 3.991750 
# 
# 
# High freq. dielectric constant tensor:
#      x y z
#    x 1.824700 0.000000 0.000000 
#    y 0.000000 1.818540 0.000000 
#    z 0.000000 0.000000 1.808170 
# 
# From -- ./inp_files/49254.got.cif
#   From: 2010.06.25/outbox.cif.g09.slc.cpg/sg71_25_cif.got.tgz:49254.got - 2010.06.28 04:59:45.
