data_PCOD8291314
_publ_section_title
;
Structure prediction by ZEFSAII (Michael W. Deem and Ramdas Pophale) SiO2 
 PCOD8291314
Probable space group: I M M M
;
_chemical_formula_sum "Si O2"
_cell_formula_units_Z 72
_cell_length_a 18.629958
_cell_length_b 19.598584
_cell_length_c 9.372455
_cell_angle_alpha 90.000000
_cell_angle_beta 90.000000
_cell_angle_gamma 90.000000
_cell_volume 3422.078237
_symmetry_space_group_name_H-M "I M M M"
_symmetry_group_IT_number 71
_symmetry_cell_setting 'orthorhombic'
loop_
_space_group_symop_operation_xyz
x,y,z
-x,-y,z
x,-y,-z
-x,y,-z
-x,-y,-z
x,y,-z
-x,y,z
x,-y,z
1/2+x,1/2+y,1/2+z
1/2-x,1/2-y,1/2+z
1/2+x,1/2-y,1/2-z
1/2-x,1/2+y,1/2-z
1/2-x,1/2-y,1/2-z
1/2+x,1/2+y,1/2-z
1/2-x,1/2+y,1/2+z
1/2+x,1/2-y,1/2+z
loop_
_atom_site_type_symbol
_atom_site_label
_atom_site_fract_x
_atom_site_fract_y
_atom_site_fract_z
Si Si1 0.651183 0.923773 0.658822
Si Si2 0.915628 0.694761 0.334933
Si Si3 0.578982 0.420387 0.000000
Si Si4 0.811594 0.076654 0.258481
Si Si5 0.315079 0.719411 0.659637
O O1 0.624994 0.902629 0.500000
O O2 0.619255 0.875046 0.778901
O O3 0.737317 0.922106 0.656374
O O4 0.624363 0.000000 0.695482
O O5 0.893253 0.704837 0.500000
O O6 0.887428 0.757819 0.240571
O O7 0.000000 0.690183 0.316416
O O8 0.623756 0.400466 0.861082
O O9 0.566634 0.500000 0.000000
O O10 0.500000 0.383845 0.000000
O O11 0.810588 0.137138 0.142219
O O12 0.824035 0.000000 0.193342
O O13 0.313372 0.750339 0.500000
O O14 0.250000 0.750000 0.750000
#
# Coordination Sequence:
#
# PCOD8291314 Si02
#       5
#    16  16   8  16  16
#     4  10  20  37  65  97 130 172 219 270 323 388
#     4  11  26  45  65  93 130 174 222 272 329 393
#     4   9  18  34  60  96 133 169 210 260 318 375
#     4  10  21  38  64  96 129 167 214 265 318 382
#     4  12  26  42  66  95 128 171 215 267 329 392
#
# _framework density 21.039847999999999
#
# number of rings (size 3 to 8) (size 9 to 14) (size 15 to 20)
#    0.000    1.444    3.333    1.333    3.111    4.000 
#    0.000    4.444    0.000    0.000    0.000    4.667 
#    0.000    0.000    0.000    0.000    0.000    0.000 
#
# Total GULP energy -446201.538939 kJ/mol
# GULP energy per Si atom -12394.487193 kJ/mol
# Density = 2.099196 g / cm^3
# Si number density = 21.039848 Si / 1000 Ang^3
#
#
#
# Elastic Constant Matrix: (Units=GPa)
#
#
# Indices 1 2 3 4 5 6 
#
# 1 107.4941 29.1266 54.9859 0.0000 0.0000 0.0000
# 2 29.1266 144.3601 46.1568 0.0000 0.0000 0.0000
# 3 54.9859 46.1568 135.3839 0.0000 0.0000 0.0000
# 4 0.0000 0.0000 0.0000 31.6749 0.0000 0.0000
# 5 0.0000 0.0000 0.0000 0.0000 27.0490 0.0000
# 6 0.0000 0.0000 0.0000 0.0000 0.0000 25.4201
#
#
#
# Elastic Compliance Matrix: (Units=1/GPa)
#
#
# Indices 1 2 3 4 5 6 
#
# 1 0.011859 -0.000957 -0.004490 0.000000 0.000000 0.000000
# 2 -0.000957 0.007852 -0.002288 0.000000 0.000000 0.000000
# 3 -0.004490 -0.002288 0.009990 0.000000 0.000000 0.000000
# 4 0.000000 0.000000 0.000000 0.031571 0.000000 0.000000
# 5 0.000000 0.000000 0.000000 0.000000 0.036970 0.000000
# 6 0.000000 0.000000 0.000000 0.000000 0.000000 0.039339
#
#
# Mechanical properties :
#
#
# Convention : Reuss Voigt Hill
#
# Bulk Modulus (GPa) = 70.27375 71.97520 71.12448
# Shear Modulus (GPa) = 31.68667 33.96007 32.82337
#
# Velocity S-wave (km/s) = 3.88497 4.02192 3.95404
# Velocity P-wave (km/s) = 7.32099 7.47336 7.39756
#
# Compressibility (1/GPa) = 0.01423006
#
# Stress axis : x y z
#
# Youngs Moduli (GPa) = 84.32401 127.35855 100.09774
#
# Poissons Ratio (x) = 0.12189 0.44946
# Poissons Ratio (y) = 0.08070 0.22905
# Poissons Ratio (z) = 0.37863 0.29143
#
# Static dielectric constant tensor:
#      x y z
#    x 3.969590 0.000000 0.000000 
#    y 0.000000 4.308940 0.000000 
#    z 0.000000 0.000000 3.607160 
# 
# 
# High freq. dielectric constant tensor:
#      x y z
#    x 1.817380 0.000000 0.000000 
#    y 0.000000 1.838890 0.000000 
#    z 0.000000 0.000000 1.809500 
# 
# From -- ./inp_files/9932.got.cif
#   From: 2010.06.25/outbox.cif.g09.slc.cpg/sg71_5_cif.got.tgz:9932.got - 2010.06.28 04:59:45.
