data_PCOD8291204
_publ_section_title
;
Structure prediction by ZEFSAII (Michael W. Deem and Ramdas Pophale) SiO2 
 PCOD8291204
Probable space group: I M M M
;
_chemical_formula_sum "Si O2"
_cell_formula_units_Z 96
_cell_length_a 8.914474
_cell_length_b 24.423025
_cell_length_c 22.277016
_cell_angle_alpha 90.000000
_cell_angle_beta 90.000000
_cell_angle_gamma 90.000000
_cell_volume 4850.116756
_symmetry_space_group_name_H-M "I M M M"
_symmetry_group_IT_number 71
_symmetry_cell_setting 'orthorhombic'
loop_
_space_group_symop_operation_xyz
x,y,z
-x,-y,z
x,-y,-z
-x,y,-z
-x,-y,-z
x,y,-z
-x,y,z
x,-y,z
1/2+x,1/2+y,1/2+z
1/2-x,1/2-y,1/2+z
1/2+x,1/2-y,1/2-z
1/2-x,1/2+y,1/2-z
1/2-x,1/2-y,1/2-z
1/2+x,1/2+y,1/2-z
1/2-x,1/2+y,1/2+z
1/2+x,1/2-y,1/2+z
loop_
_atom_site_type_symbol
_atom_site_label
_atom_site_fract_x
_atom_site_fract_y
_atom_site_fract_z
Si Si1 0.671711 0.061093 0.605614
Si Si2 0.172133 0.561692 0.353489
Si Si3 0.332472 0.698239 0.727737
Si Si4 0.171674 0.916114 0.271477
Si Si5 0.320645 0.237506 0.000000
Si Si6 0.821551 0.161350 0.099051
Si Si7 0.678600 0.858410 0.500000
O O1 0.500000 0.073987 0.621861
O O2 0.764621 0.060903 0.666860
O O3 0.729906 0.106508 0.558268
O O4 0.686773 0.000000 0.577321
O O5 0.184174 0.500000 0.378030
O O6 0.239958 0.562555 0.286380
O O7 0.260247 0.598941 0.402976
O O8 0.000000 0.581149 0.349739
O O9 0.500000 0.717203 0.716857
O O10 0.250000 0.750000 0.750000
O O11 0.318057 0.649718 0.775880
O O12 0.267559 0.679063 0.664655
O O13 0.000000 0.935255 0.264095
O O14 0.260789 0.203882 0.943572
O O15 0.258521 0.299495 0.000000
O O16 0.500000 0.239703 0.000000
O O17 0.000000 0.161957 0.087356
O O18 0.500000 0.849796 0.500000
#
# Coordination Sequence:
#
# PCOD8291204 Si02
#       7
#    16  16  16  16   8  16   8
#     4  10  21  38  60  85 114 152 199 248 297 351
#     4  10  20  36  60  91 124 157 195 238 289 350
#     4   9  20  35  54  81 114 150 190 236 287 344
#     4  10  21  35  53  84 121 157 196 239 292 352
#     4  12  26  43  64  88 118 156 199 247 295 350
#     4  10  22  41  62  87 118 156 198 242 295 349
#     4  10  23  42  62  83 111 152 199 250 301 353
#
# _framework density 19.793337000000001
#
# number of rings (size 3 to 8) (size 9 to 14) (size 15 to 20)
#    0.000    2.000    0.000    4.000    2.333    9.333 
#    0.000    0.417    0.000    4.000    0.000    0.000 
#    0.000    0.000    0.000    0.000    0.000    0.000 
#
# Total GULP energy -594974.441124 kJ/mol
# GULP energy per Si atom -12395.300857 kJ/mol
# Density = 1.974829 g / cm^3
# Si number density = 19.793337 Si / 1000 Ang^3
#
#
#
# Elastic Constant Matrix: (Units=GPa)
#
#
# Indices 1 2 3 4 5 6 
#
# 1 105.1471 59.7946 36.5924 0.0000 0.0000 0.0000
# 2 59.7946 148.7634 52.1829 0.0000 0.0000 0.0000
# 3 36.5924 52.1829 76.1677 0.0000 0.0000 0.0000
# 4 0.0000 0.0000 0.0000 23.0076 0.0000 0.0000
# 5 0.0000 0.0000 0.0000 0.0000 28.4576 0.0000
# 6 0.0000 0.0000 0.0000 0.0000 0.0000 36.3419
#
#
#
# Elastic Compliance Matrix: (Units=1/GPa)
#
#
# Indices 1 2 3 4 5 6 
#
# 1 0.013004 -0.003996 -0.003510 0.000000 0.000000 0.000000
# 2 -0.003996 0.010076 -0.004984 0.000000 0.000000 0.000000
# 3 -0.003510 -0.004984 0.018230 0.000000 0.000000 0.000000
# 4 0.000000 0.000000 0.000000 0.043464 0.000000 0.000000
# 5 0.000000 0.000000 0.000000 0.000000 0.035140 0.000000
# 6 0.000000 0.000000 0.000000 0.000000 0.000000 0.027516
#
#
# Mechanical properties :
#
#
# Convention : Reuss Voigt Hill
#
# Bulk Modulus (GPa) = 61.23225 69.69086 65.46156
# Shear Modulus (GPa) = 28.11307 29.66197 28.88752
#
# Velocity S-wave (km/s) = 3.77281 3.87535 3.82443
# Velocity P-wave (km/s) = 7.06978 7.43708 7.25576
#
# Compressibility (1/GPa) = 0.01633126
#
# Stress axis : x y z
#
# Youngs Moduli (GPa) = 76.89763 99.24237 54.85598
#
# Poissons Ratio (x) = 0.39655 0.19254
# Poissons Ratio (y) = 0.30727 0.27339
# Poissons Ratio (z) = 0.26991 0.49459
#
# Static dielectric constant tensor:
#      x y z
#    x 2.685360 0.000000 0.000000 
#    y 0.000000 3.845120 0.000000 
#    z 0.000000 0.000000 2.847600 
# 
# 
# High freq. dielectric constant tensor:
#      x y z
#    x 1.775200 0.000000 0.000000 
#    y 0.000000 1.789690 0.000000 
#    z 0.000000 0.000000 1.756430 
# 
# From -- ./inp_files/57750.got.cif
#   From: 2010.06.25/outbox.cif.g09.slc.cpg/sg71_29_cif.got.tgz:57750.got - 2010.06.28 04:59:45.
