data_PCOD8291294
_publ_section_title
;
Structure prediction by ZEFSAII (Michael W. Deem and Ramdas Pophale) SiO2 
 PCOD8291294
Probable space group: I M M M
;
_chemical_formula_sum "Si O2"
_cell_formula_units_Z 88
_cell_length_a 18.487222
_cell_length_b 29.753816
_cell_length_c 7.712679
_cell_angle_alpha 90.000000
_cell_angle_beta 90.000000
_cell_angle_gamma 90.000000
_cell_volume 4242.477873
_symmetry_space_group_name_H-M "I M M M"
_symmetry_group_IT_number 71
_symmetry_cell_setting 'orthorhombic'
loop_
_space_group_symop_operation_xyz
x,y,z
-x,-y,z
x,-y,-z
-x,y,-z
-x,-y,-z
x,y,-z
-x,y,z
x,-y,z
1/2+x,1/2+y,1/2+z
1/2-x,1/2-y,1/2+z
1/2+x,1/2-y,1/2-z
1/2-x,1/2+y,1/2-z
1/2-x,1/2-y,1/2-z
1/2+x,1/2+y,1/2-z
1/2-x,1/2+y,1/2+z
1/2+x,1/2-y,1/2+z
loop_
_atom_site_type_symbol
_atom_site_label
_atom_site_fract_x
_atom_site_fract_y
_atom_site_fract_z
Si Si1 0.085782 0.446598 0.500000
Si Si2 0.918821 0.210716 0.799995
Si Si3 0.418007 0.193089 0.196435
Si Si4 0.822262 0.872360 0.294917
Si Si5 0.160994 0.609148 0.197206
Si Si6 0.419573 0.549229 0.793763
O O1 0.100681 0.500000 0.500000
O O2 0.120485 0.425412 0.674410
O O3 0.000000 0.436297 0.500000
O O4 0.888378 0.255999 0.710279
O O5 0.858544 0.173206 0.769874
O O6 0.000000 0.197466 0.728530
O O7 0.925361 0.221390 0.000000
O O8 0.500000 0.194041 0.261539
O O9 0.376911 0.157558 0.315192
O O10 0.410904 0.175836 0.000000
O O11 0.824687 0.872344 0.500000
O O12 0.740901 0.880001 0.229428
O O13 0.867272 0.913566 0.213446
O O14 0.162460 0.589110 0.000000
O O15 0.500000 0.558354 0.722607
O O16 0.392766 0.500000 0.733247
O O17 0.419767 0.551763 0.000000
#
# Coordination Sequence:
#
# PCOD8291294 Si02
#       6
#     8  16  16  16  16  16
#     4  11  26  48  72  98 127 163 209 261 321 385
#     4  10  21  35  55  86 123 167 215 261 310 365
#     4  10  20  37  62  88 118 160 209 260 315 378
#     4  10  21  35  55  84 121 164 206 254 317 375
#     4  11  24  41  65  97 129 166 208 257 317 382
#     4   8  14  27  50  78 107 145 196 250 299 356
#
# _framework density 20.742595000000001
#
# number of rings (size 3 to 8) (size 9 to 14) (size 15 to 20)
#    0.000    2.091    0.909    2.727    1.273    5.818 
#    0.000    2.727    0.000    0.000    0.000    2.545 
#    0.000    0.000    0.000    0.000    0.000    0.000 
#
# Total GULP energy -545418.828723 kJ/mol
# GULP energy per Si atom -12395.882471 kJ/mol
# Density = 2.069538 g / cm^3
# Si number density = 20.742595 Si / 1000 Ang^3
#
#
#
# Elastic Constant Matrix: (Units=GPa)
#
#
# Indices 1 2 3 4 5 6 
#
# 1 121.9792 81.0328 34.2853 -0.0001 -0.0001 0.0000
# 2 81.0328 150.8423 27.2826 0.0003 -0.0001 0.0001
# 3 34.2853 27.2826 65.6779 0.0014 -0.0008 -0.0004
# 4 -0.0001 0.0003 0.0014 18.8086 0.0001 0.0004
# 5 -0.0001 -0.0001 -0.0008 0.0001 21.6907 -0.0002
# 6 0.0000 0.0001 -0.0004 0.0004 -0.0002 7.3777
#
#
#
# Elastic Compliance Matrix: (Units=1/GPa)
#
#
# Indices 1 2 3 4 5 6 
#
# 1 0.013869 -0.006640 -0.004482 0.000000 0.000000 0.000000
# 2 -0.006640 0.010347 -0.000832 0.000000 0.000000 0.000000
# 3 -0.004482 -0.000832 0.017911 -0.000001 0.000001 0.000001
# 4 0.000000 0.000000 -0.000001 0.053167 0.000000 -0.000003
# 5 0.000000 0.000000 0.000001 0.000000 0.046103 0.000001
# 6 0.000000 0.000000 0.000001 -0.000003 0.000001 0.135544
#
#
# Mechanical properties :
#
#
# Convention : Reuss Voigt Hill
#
# Bulk Modulus (GPa) = 54.88541 69.30009 62.09275
# Shear Modulus (GPa) = 16.29090 22.63531 19.46311
#
# Velocity S-wave (km/s) = 2.80551 3.30699 3.06652
# Velocity P-wave (km/s) = 6.08377 6.93279 6.52211
#
# Compressibility (1/GPa) = 0.01821978
#
# Stress axis : x y z
#
# Youngs Moduli (GPa) = 72.10523 96.64858 55.83183
#
# Poissons Ratio (x) = 0.64171 0.25022
# Poissons Ratio (y) = 0.47875 0.04645
# Poissons Ratio (z) = 0.32315 0.08041
#
# Static dielectric constant tensor:
#      x y z
#    x 4.097970 0.000000 0.000000 
#    y 0.000000 3.876370 0.000000 
#    z 0.000000 0.000000 3.530060 
# 
# 
# High freq. dielectric constant tensor:
#      x y z
#    x 1.807450 0.000000 0.000000 
#    y 0.000000 1.816330 0.000000 
#    z 0.000000 0.000000 1.802270 
# 
# From -- ./inp_files/8852.got.cif
#   From: 2010.06.25/outbox.cif.g09.slc.cpg/sg71_5_cif.got.tgz:8852.got - 2010.06.28 04:59:45.
