data_PCOD8291689
_publ_section_title
;
Structure prediction by ZEFSAII (Michael W. Deem and Ramdas Pophale) SiO2 
 PCOD8291689
Probable space group: I M M M
;
_chemical_formula_sum "Si O2"
_cell_formula_units_Z 120
_cell_length_a 17.638389
_cell_length_b 18.011032
_cell_length_c 18.359024
_cell_angle_alpha 90.000000
_cell_angle_beta 90.000000
_cell_angle_gamma 90.000000
_cell_volume 5832.397348
_symmetry_space_group_name_H-M "I M M M"
_symmetry_group_IT_number 71
_symmetry_cell_setting 'orthorhombic'
loop_
_space_group_symop_operation_xyz
x,y,z
-x,-y,z
x,-y,-z
-x,y,-z
-x,-y,-z
x,y,-z
-x,y,z
x,-y,z
1/2+x,1/2+y,1/2+z
1/2-x,1/2-y,1/2+z
1/2+x,1/2-y,1/2-z
1/2-x,1/2+y,1/2-z
1/2-x,1/2-y,1/2-z
1/2+x,1/2+y,1/2-z
1/2-x,1/2+y,1/2+z
1/2+x,1/2-y,1/2+z
loop_
_atom_site_type_symbol
_atom_site_label
_atom_site_fract_x
_atom_site_fract_y
_atom_site_fract_z
Si Si1 0.359372 0.915311 0.670782
Si Si2 0.788789 0.912992 0.580193
Si Si3 0.415763 0.212283 0.583488
Si Si4 0.155619 0.412862 0.658185
Si Si5 0.295865 0.337743 0.583692
Si Si6 0.918490 0.085293 0.157961
Si Si7 0.000000 0.412271 0.581864
Si Si8 0.585326 0.587644 0.182712
O O1 0.282581 0.895133 0.629501
O O2 0.419940 0.859694 0.635684
O O3 0.348985 0.901337 0.755926
O O4 0.385396 0.000000 0.656578
O O5 0.780710 0.875806 0.500000
O O6 0.860239 0.876154 0.621847
O O7 0.799960 0.000000 0.570113
O O8 0.400879 0.188274 0.500000
O O9 0.500000 0.249278 0.590003
O O10 0.346681 0.266562 0.609120
O O11 0.173612 0.500000 0.639443
O O12 0.220151 0.356334 0.628968
O O13 0.075852 0.386534 0.623795
O O14 0.272145 0.332674 0.500000
O O15 0.354869 0.404547 0.596724
O O16 0.895536 0.120476 0.236827
O O17 0.000000 0.117838 0.132045
O O18 0.929195 0.000000 0.174038
O O19 0.000000 0.500000 0.578711
O O20 0.000000 0.379126 0.500000
O O21 0.500000 0.607796 0.160443
O O22 0.599807 0.500000 0.182377
#
# Coordination Sequence:
#
# PCOD8291689 Si02
#       8
#    16  16  16  16  16  16   8  16
#     4  10  21  37  60  85 111 146 193 250 305 360
#     4   9  16  26  43  70 101 131 170 224 284 342
#     4  10  23  41  59  83 117 156 197 246 301 354
#     4  10  21  36  59  90 121 155 196 244 295 353
#     4  11  22  36  55  81 116 157 195 233 286 356
#     4   9  17  29  47  72 105 147 191 235 281 333
#     4   9  18  34  56  86 123 153 184 236 297 346
#     4   8  14  25  41  64  98 137 176 221 273 328
#
# _framework density 20.574731
#
# number of rings (size 3 to 8) (size 9 to 14) (size 15 to 20)
#    0.000    2.467    0.000    3.200    0.933    6.400 
#    0.000    2.667    0.000    0.000    1.733    0.000 
#    0.000    0.000    0.000    0.000    0.000    0.000 
#
# Total GULP energy -743293.376448 kJ/mol
# GULP energy per Si atom -12388.222941 kJ/mol
# Density = 2.052790 g / cm^3
# Si number density = 20.574731 Si / 1000 Ang^3
#
#
#
# Elastic Constant Matrix: (Units=GPa)
#
#
# Indices 1 2 3 4 5 6 
#
# 1 119.6781 47.6107 42.7769 0.0000 0.0000 0.0000
# 2 47.6107 56.2286 49.9534 0.0000 0.0000 0.0000
# 3 42.7769 49.9534 90.7965 0.0000 0.0000 0.0000
# 4 0.0000 0.0000 0.0000 16.0298 0.0000 0.0000
# 5 0.0000 0.0000 0.0000 0.0000 28.7838 0.0000
# 6 0.0000 0.0000 0.0000 0.0000 0.0000 16.4821
#
#
#
# Elastic Compliance Matrix: (Units=1/GPa)
#
#
# Indices 1 2 3 4 5 6 
#
# 1 0.012601 -0.010554 -0.000130 0.000000 0.000000 0.000000
# 2 -0.010554 0.043627 -0.019030 0.000000 0.000000 0.000000
# 3 -0.000130 -0.019030 0.021545 0.000000 0.000000 0.000000
# 4 0.000000 0.000000 0.000000 0.062384 0.000000 0.000000
# 5 0.000000 0.000000 0.000000 0.000000 0.034742 0.000000
# 6 0.000000 0.000000 0.000000 0.000000 0.000000 0.060672
#
#
# Mechanical properties :
#
#
# Convention : Reuss Voigt Hill
#
# Bulk Modulus (GPa) = 54.51249 60.82058 57.66653
# Shear Modulus (GPa) = 16.60504 20.68328 18.64416
#
# Velocity S-wave (km/s) = 2.84396 3.17405 3.01353
# Velocity P-wave (km/s) = 6.11036 6.56184 6.34012
#
# Compressibility (1/GPa) = 0.01834442
#
# Stress axis : x y z
#
# Youngs Moduli (GPa) = 79.35945 22.92152 46.41516
#
# Poissons Ratio (x) = 0.24191 0.00604
# Poissons Ratio (y) = 0.83756 0.88328
# Poissons Ratio (z) = 0.01033 0.43620
#
# Static dielectric constant tensor:
#      x y z
#    x 3.854320 0.000000 0.000000 
#    y 0.000000 3.332390 0.000000 
#    z 0.000000 0.000000 3.995020 
# 
# 
# High freq. dielectric constant tensor:
#      x y z
#    x 1.813450 0.000000 0.000000 
#    y 0.000000 1.756390 0.000000 
#    z 0.000000 0.000000 1.811170 
# 
# From -- ./inp_files/46492.got.cif
#   From: 2010.06.25/outbox.cif.g09.slc.cpg/sg71_24_cif.got.tgz:46492.got - 2010.06.28 04:59:45.
