data_PCOD8291739
_publ_section_title
;
Structure prediction by ZEFSAII (Michael W. Deem and Ramdas Pophale) SiO2 
 PCOD8291739
Probable space group: I M M M
;
_chemical_formula_sum "Si O2"
_cell_formula_units_Z 72
_cell_length_a 26.749552
_cell_length_b 8.792084
_cell_length_c 15.573553
_cell_angle_alpha 90.000000
_cell_angle_beta 90.000000
_cell_angle_gamma 90.000000
_cell_volume 3662.655288
_symmetry_space_group_name_H-M "I M M M"
_symmetry_group_IT_number 71
_symmetry_cell_setting 'orthorhombic'
loop_
_space_group_symop_operation_xyz
x,y,z
-x,-y,z
x,-y,-z
-x,y,-z
-x,-y,-z
x,y,-z
-x,y,z
x,-y,z
1/2+x,1/2+y,1/2+z
1/2-x,1/2-y,1/2+z
1/2+x,1/2-y,1/2-z
1/2-x,1/2+y,1/2-z
1/2-x,1/2-y,1/2-z
1/2+x,1/2+y,1/2-z
1/2-x,1/2+y,1/2+z
1/2+x,1/2-y,1/2+z
loop_
_atom_site_type_symbol
_atom_site_label
_atom_site_fract_x
_atom_site_fract_y
_atom_site_fract_z
Si Si1 0.056528 0.679408 0.500000
Si Si2 0.443704 0.681119 0.662970
Si Si3 0.730003 0.680685 0.500000
Si Si4 0.106810 0.176720 0.663418
Si Si5 0.276254 0.322547 0.168385
Si Si6 0.383571 0.681219 0.500000
O O1 0.055090 0.500000 0.500000
O O2 0.086254 0.732882 0.417045
O O3 0.000000 0.745636 0.500000
O O4 0.500000 0.742985 0.654187
O O5 0.442671 0.500000 0.660909
O O6 0.420633 0.740042 0.751970
O O7 0.411246 0.746373 0.584173
O O8 0.732453 0.500000 0.500000
O O9 0.757402 0.742363 0.583167
O O10 0.673115 0.739844 0.500000
O O11 0.165086 0.206647 0.676062
O O12 0.095261 0.000000 0.648304
O O13 0.263460 0.500000 0.164422
O O14 0.250000 0.250000 0.250000
O O15 0.385240 0.500000 0.500000
#
# Coordination Sequence:
#
# PCOD8291739 Si02
#       6
#     8  16   8  16  16   8
#     4  11  24  39  56  82 114 147 186 234 290 347
#     4   9  16  28  50  79 107 136 173 217 266 320
#     4  11  22  37  57  81 114 153 190 233 283 335
#     4  10  21  37  57  81 110 146 188 232 278 334
#     4  11  23  39  59  85 116 150 192 240 290 346
#     4   9  17  30  49  77 112 143 172 214 267 320
#
# _framework density 19.657869999999999
#
# number of rings (size 3 to 8) (size 9 to 14) (size 15 to 20)
#    0.000    1.889    0.000    4.333    0.000   11.111 
#    0.000    0.000    0.000    0.000    0.000    0.000 
#    0.000    8.889    0.000    0.000    0.000    0.000 
#
# Total GULP energy -446513.114760 kJ/mol
# GULP energy per Si atom -12403.142077 kJ/mol
# Density = 1.961313 g / cm^3
# Si number density = 19.657870 Si / 1000 Ang^3
#
#
#
# Elastic Constant Matrix: (Units=GPa)
#
#
# Indices 1 2 3 4 5 6 
#
# 1 65.9835 32.9414 12.1808 0.0000 0.0000 0.0000
# 2 32.9414 56.7728 31.3610 0.0000 0.0000 0.0000
# 3 12.1808 31.3610 134.7431 0.0000 0.0000 0.0000
# 4 0.0000 0.0000 0.0000 11.5216 0.0000 0.0000
# 5 0.0000 0.0000 0.0000 0.0000 47.2690 0.0000
# 6 0.0000 0.0000 0.0000 0.0000 0.0000 26.0759
#
#
#
# Elastic Compliance Matrix: (Units=1/GPa)
#
#
# Indices 1 2 3 4 5 6 
#
# 1 0.021477 -0.013069 0.001100 0.000000 0.000000 0.000000
# 2 -0.013069 0.028166 -0.005374 0.000000 0.000000 0.000000
# 3 0.001100 -0.005374 0.008573 0.000000 0.000000 0.000000
# 4 0.000000 0.000000 0.000000 0.086793 0.000000 0.000000
# 5 0.000000 0.000000 0.000000 0.000000 0.021155 0.000000
# 6 0.000000 0.000000 0.000000 0.000000 0.000000 0.038350
#
#
# Mechanical properties :
#
#
# Convention : Reuss Voigt Hill
#
# Bulk Modulus (GPa) = 42.49991 45.60733 44.05362
# Shear Modulus (GPa) = 20.23935 29.04107 24.64021
#
# Velocity S-wave (km/s) = 3.21219 3.84777 3.54425
# Velocity P-wave (km/s) = 5.95183 6.55678 6.26161
#
# Compressibility (1/GPa) = 0.02352946
#
# Stress axis : x y z
#
# Youngs Moduli (GPa) = 46.56164 35.50384 116.64726
#
# Poissons Ratio (x) = 0.46401 -0.12835
# Poissons Ratio (y) = 0.60853 0.62687
# Poissons Ratio (z) = -0.05123 0.19080
#
# Static dielectric constant tensor:
#      x y z
#    x 3.875760 0.000000 0.000000 
#    y 0.000000 3.287920 0.000000 
#    z 0.000000 0.000000 3.416250 
# 
# 
# High freq. dielectric constant tensor:
#      x y z
#    x 1.787330 0.000000 0.000000 
#    y 0.000000 1.730910 0.000000 
#    z 0.000000 0.000000 1.788570 
# 
# From -- ./inp_files/6195.got.cif
#   From: 2010.06.25/outbox.cif.g09.slc.cpg/sg71_4_cif.got.tgz:6195.got - 2010.06.28 04:59:45.
