data_PCOD8291890
_publ_section_title
;
Structure prediction by ZEFSAII (Michael W. Deem and Ramdas Pophale) SiO2 
 PCOD8291890
Probable space group: I M M M
;
_chemical_formula_sum "Si O2"
_cell_formula_units_Z 88
_cell_length_a 22.654317
_cell_length_b 8.644614
_cell_length_c 22.853162
_cell_angle_alpha 90.000000
_cell_angle_beta 90.000000
_cell_angle_gamma 90.000000
_cell_volume 4475.513561
_symmetry_space_group_name_H-M "I M M M"
_symmetry_group_IT_number 71
_symmetry_cell_setting 'orthorhombic'
loop_
_space_group_symop_operation_xyz
x,y,z
-x,-y,z
x,-y,-z
-x,y,-z
-x,-y,-z
x,y,-z
-x,y,z
x,-y,z
1/2+x,1/2+y,1/2+z
1/2-x,1/2-y,1/2+z
1/2+x,1/2-y,1/2-z
1/2-x,1/2+y,1/2-z
1/2-x,1/2-y,1/2-z
1/2+x,1/2+y,1/2-z
1/2-x,1/2+y,1/2+z
1/2+x,1/2-y,1/2+z
loop_
_atom_site_type_symbol
_atom_site_label
_atom_site_fract_x
_atom_site_fract_y
_atom_site_fract_z
Si Si1 0.314646 0.181513 0.738643
Si Si2 0.936138 0.816878 0.435437
Si Si3 0.000000 0.683362 0.932715
Si Si4 0.333729 0.683066 0.143840
Si Si5 0.124894 0.683793 0.118469
Si Si6 0.265466 0.319506 0.566076
O O1 0.250000 0.250000 0.750000
O O2 0.350064 0.233677 0.795712
O O3 0.351697 0.241527 0.682327
O O4 0.307145 0.000000 0.733825
O O5 0.930518 0.745517 0.500000
O O6 0.884265 0.746595 0.397228
O O7 0.000000 0.772828 0.408552
O O8 0.929134 0.000000 0.438741
O O9 0.058094 0.739807 0.896543
O O10 0.000000 0.500000 0.935634
O O11 0.000000 0.747572 0.000000
O O12 0.335744 0.500000 0.152778
O O13 0.271169 0.726484 0.115060
O O14 0.129124 0.500000 0.113200
O O15 0.167197 0.762218 0.070472
O O16 0.243093 0.284020 0.500000
O O17 0.260925 0.500000 0.580310
#
# Coordination Sequence:
#
# PCOD8291890 Si02
#       6
#    16  16   8  16  16  16
#     4  11  22  37  57  82 113 149 188 231 281 338
#     4   8  15  30  52  78 108 141 181 230 278 327
#     4   9  18  36  63  91 115 143 190 249 298 347
#     4  11  21  34  56  83 111 147 190 234 281 338
#     4  10  21  38  61  85 111 149 194 238 288 347
#     4  11  23  36  54  83 117 148 182 232 289 342
#
# _framework density 19.662548000000001
#
# number of rings (size 3 to 8) (size 9 to 14) (size 15 to 20)
#    0.000    1.909    1.818    3.273    0.000    3.636 
#    1.636    0.455    0.000    3.273    0.000    6.364 
#    0.000    0.000    0.000    0.000    0.000    0.000 
#
# Total GULP energy -545340.098386 kJ/mol
# GULP energy per Si atom -12394.093145 kJ/mol
# Density = 1.961779 g / cm^3
# Si number density = 19.662548 Si / 1000 Ang^3
#
#
#
# Elastic Constant Matrix: (Units=GPa)
#
#
# Indices 1 2 3 4 5 6 
#
# 1 136.9138 13.5064 60.8082 0.0000 0.0000 0.0000
# 2 13.5064 34.2517 21.5958 0.0000 0.0000 0.0000
# 3 60.8082 21.5958 126.5252 0.0000 0.0000 0.0000
# 4 0.0000 0.0000 0.0000 28.1249 0.0000 0.0000
# 5 0.0000 0.0000 0.0000 0.0000 33.1517 0.0000
# 6 0.0000 0.0000 0.0000 0.0000 0.0000 11.7260
#
#
#
# Elastic Compliance Matrix: (Units=1/GPa)
#
#
# Indices 1 2 3 4 5 6 
#
# 1 0.009314 -0.000953 -0.004314 0.000000 0.000000 0.000000
# 2 -0.000953 0.032814 -0.005143 0.000000 0.000000 0.000000
# 3 -0.004314 -0.005143 0.010854 0.000000 0.000000 0.000000
# 4 0.000000 0.000000 0.000000 0.035556 0.000000 0.000000
# 5 0.000000 0.000000 0.000000 0.000000 0.030164 0.000000
# 6 0.000000 0.000000 0.000000 0.000000 0.000000 0.085281
#
#
# Mechanical properties :
#
#
# Convention : Reuss Voigt Hill
#
# Bulk Modulus (GPa) = 31.09113 54.39019 42.74066
# Shear Modulus (GPa) = 21.22940 28.05254 24.64097
#
# Velocity S-wave (km/s) = 3.28942 3.78126 3.54389
# Velocity P-wave (km/s) = 5.50216 6.84002 6.20724
#
# Compressibility (1/GPa) = 0.03216351
#
# Stress axis : x y z
#
# Youngs Moduli (GPa) = 107.36930 30.47479 92.12821
#
# Poissons Ratio (x) = 0.02904 0.39740
# Poissons Ratio (y) = 0.10232 0.47380
# Poissons Ratio (z) = 0.46314 0.15673
#
# Static dielectric constant tensor:
#      x y z
#    x 3.831300 0.000000 0.000000 
#    y 0.000000 3.310670 0.000000 
#    z 0.000000 0.000000 4.730920 
# 
# 
# High freq. dielectric constant tensor:
#      x y z
#    x 1.768030 0.000000 0.000000 
#    y 0.000000 1.738230 0.000000 
#    z 0.000000 0.000000 1.776070 
# 
# From -- ./inp_files/55529.got.cif
#   From: 2010.06.25/outbox.cif.g09.slc.cpg/sg71_28_cif.got.tgz:55529.got - 2010.06.28 04:59:45.
