data_PCOD8291240
_publ_section_title
;
Structure prediction by ZEFSAII (Michael W. Deem and Ramdas Pophale) SiO2 
 PCOD8291240
Probable space group: I M M M
;
_chemical_formula_sum "Si O2"
_cell_formula_units_Z 88
_cell_length_a 17.354795
_cell_length_b 28.614922
_cell_length_c 9.232475
_cell_angle_alpha 90.000000
_cell_angle_beta 90.000000
_cell_angle_gamma 90.000000
_cell_volume 4584.903452
_symmetry_space_group_name_H-M "I M M M"
_symmetry_group_IT_number 71
_symmetry_cell_setting 'orthorhombic'
loop_
_space_group_symop_operation_xyz
x,y,z
-x,-y,z
x,-y,-z
-x,y,-z
-x,-y,-z
x,y,-z
-x,y,z
x,-y,z
1/2+x,1/2+y,1/2+z
1/2-x,1/2-y,1/2+z
1/2+x,1/2-y,1/2-z
1/2-x,1/2+y,1/2-z
1/2-x,1/2-y,1/2-z
1/2+x,1/2+y,1/2-z
1/2-x,1/2+y,1/2+z
1/2+x,1/2-y,1/2+z
loop_
_atom_site_type_symbol
_atom_site_label
_atom_site_fract_x
_atom_site_fract_y
_atom_site_fract_z
Si Si1 0.409708 0.883996 0.831832
Si Si2 0.588905 0.703723 0.834067
Si Si3 0.408309 0.792983 0.663316
Si Si4 0.000000 0.945624 0.169374
Si Si5 0.138294 0.102077 0.332373
Si Si6 0.202891 0.445953 0.167257
O O1 0.500000 0.891211 0.805491
O O2 0.378333 0.837664 0.751794
O O3 0.367693 0.928931 0.765444
O O4 0.389893 0.879133 0.000000
O O5 0.500000 0.692634 0.796789
O O6 0.622739 0.745447 0.736080
O O7 0.638055 0.657454 0.801154
O O8 0.596923 0.719689 0.000000
O O9 0.376356 0.796160 0.500000
O O10 0.500000 0.792102 0.666935
O O11 0.923987 0.923443 0.235563
O O12 0.000000 0.000000 0.205800
O O13 0.000000 0.935324 0.000000
O O14 0.118589 0.091920 0.500000
O O15 0.221473 0.082819 0.289002
O O16 0.218532 0.500000 0.200509
O O17 0.181135 0.437835 0.000000
#
# Coordination Sequence:
#
# PCOD8291240 Si02
#       6
#    16  16  16   8  16  16
#     4  10  21  38  60  84 110 143 183 227 278 340
#     4   9  16  29  51  80 112 146 185 226 269 319
#     4   9  17  30  52  82 113 144 179 223 275 327
#     4  11  23  35  51  79 113 149 193 243 286 325
#     4  10  20  37  58  81 110 150 194 232 277 332
#     4  10  22  39  59  83 111 144 184 234 287 336
#
# _framework density 19.193425000000001
#
# number of rings (size 3 to 8) (size 9 to 14) (size 15 to 20)
#    0.000    2.273    0.909    1.909    0.000    6.909 
#    0.000    2.727    0.000    0.000    0.000    0.000 
#    0.000    0.000    0.000    0.000    0.000    0.000 
#
# Total GULP energy -545758.814085 kJ/mol
# GULP energy per Si atom -12403.609411 kJ/mol
# Density = 1.914974 g / cm^3
# Si number density = 19.193425 Si / 1000 Ang^3
#
#
#
# Elastic Constant Matrix: (Units=GPa)
#
#
# Indices 1 2 3 4 5 6 
#
# 1 62.9360 51.6127 46.9508 0.0004 -0.0005 0.0011
# 2 51.6127 118.8045 62.3703 0.0006 0.0008 -0.0003
# 3 46.9508 62.3703 106.3036 0.0074 0.0054 0.0027
# 4 0.0004 0.0006 0.0074 38.7923 0.0011 0.0002
# 5 -0.0005 0.0008 0.0054 0.0011 17.0782 0.0013
# 6 0.0011 -0.0003 0.0027 0.0002 0.0013 37.4812
#
#
#
# Elastic Compliance Matrix: (Units=1/GPa)
#
#
# Indices 1 2 3 4 5 6 
#
# 1 0.028446 -0.008327 -0.007678 0.000001 0.000004 0.000000
# 2 -0.008327 0.014601 -0.004889 0.000001 0.000001 0.000001
# 3 -0.007678 -0.004889 0.015667 -0.000003 -0.000005 -0.000001
# 4 0.000001 0.000001 -0.000003 0.025778 -0.000002 0.000000
# 5 0.000004 0.000001 -0.000005 -0.000002 0.058554 -0.000002
# 6 0.000000 0.000001 -0.000001 0.000000 -0.000002 0.026680
#
#
# Mechanical properties :
#
#
# Convention : Reuss Voigt Hill
#
# Bulk Modulus (GPa) = 59.08193 67.76795 63.42494
# Shear Modulus (GPa) = 23.02486 27.14437 25.08461
#
# Velocity S-wave (km/s) = 3.46731 3.76474 3.61908
# Velocity P-wave (km/s) = 6.84682 7.36765 7.11200
#
# Compressibility (1/GPa) = 0.01692565
#
# Stress axis : x y z
#
# Youngs Moduli (GPa) = 35.15457 68.48626 63.82972
#
# Poissons Ratio (x) = 0.57029 0.49008
# Poissons Ratio (y) = 0.29273 0.31208
# Poissons Ratio (z) = 0.26991 0.33484
#
# Static dielectric constant tensor:
#      x y z
#    x 3.224790 0.000000 0.000000 
#    y 0.000000 3.617020 0.000000 
#    z 0.000000 0.000000 3.556760 
# 
# 
# High freq. dielectric constant tensor:
#      x y z
#    x 1.720970 0.000000 0.000000 
#    y 0.000000 1.758650 0.000000 
#    z 0.000000 0.000000 1.748060 
# 
# From -- ./inp_files/8849.got.cif
#   From: 2010.06.25/outbox.cif.g09.slc.cpg/sg71_5_cif.got.tgz:8849.got - 2010.06.28 04:59:45.
