data_PCOD8291764
_publ_section_title
;
Structure prediction by ZEFSAII (Michael W. Deem and Ramdas Pophale) SiO2 
 PCOD8291764
Probable space group: I M M M
;
_chemical_formula_sum "Si O2"
_cell_formula_units_Z 72
_cell_length_a 23.585637
_cell_length_b 9.116409
_cell_length_c 17.736071
_cell_angle_alpha 90.000000
_cell_angle_beta 90.000000
_cell_angle_gamma 90.000000
_cell_volume 3813.544601
_symmetry_space_group_name_H-M "I M M M"
_symmetry_group_IT_number 71
_symmetry_cell_setting 'orthorhombic'
loop_
_space_group_symop_operation_xyz
x,y,z
-x,-y,z
x,-y,-z
-x,y,-z
-x,-y,-z
x,y,-z
-x,y,z
x,-y,z
1/2+x,1/2+y,1/2+z
1/2-x,1/2-y,1/2+z
1/2+x,1/2-y,1/2-z
1/2-x,1/2+y,1/2-z
1/2-x,1/2-y,1/2-z
1/2+x,1/2+y,1/2-z
1/2-x,1/2+y,1/2+z
1/2+x,1/2-y,1/2+z
loop_
_atom_site_type_symbol
_atom_site_label
_atom_site_fract_x
_atom_site_fract_y
_atom_site_fract_z
Si Si1 0.563417 0.826044 0.794982
Si Si2 0.382254 0.832333 0.639420
Si Si3 0.064593 0.827119 0.000000
Si Si4 0.344677 0.171136 0.087014
Si Si5 0.752466 0.331748 0.828787
O O1 0.500000 0.759427 0.801932
O O2 0.592782 0.771541 0.718087
O O3 0.601338 0.771890 0.865211
O O4 0.560329 0.000000 0.795363
O O5 0.405683 0.732302 0.573965
O O6 0.314921 0.819310 0.637673
O O7 0.401517 0.000000 0.626367
O O8 0.000000 0.774152 0.000000
O O9 0.070227 0.000000 0.000000
O O10 0.289065 0.259318 0.110665
O O11 0.333177 0.000000 0.102983
O O12 0.358321 0.201564 0.000000
O O13 0.735040 0.500000 0.815725
O O14 0.750000 0.250000 0.750000
#
# Coordination Sequence:
#
# PCOD8291764 Si02
#       5
#    16  16   8  16  16
#     4   9  17  33  58  85 112 146 191 238 283 337
#     4  10  21  38  60  84 113 153 199 240 284 346
#     4  11  25  41  57  85 123 155 190 241 298 351
#     4  10  21  37  57  86 122 155 191 238 290 339
#     4  11  22  38  61  86 115 148 191 240 290 347
#
# _framework density 18.880072999999999
#
# number of rings (size 3 to 8) (size 9 to 14) (size 15 to 20)
#    0.000    1.889    2.222    1.667    1.556    4.444 
#    0.000    2.222    0.000    0.667    0.000    1.556 
#    0.000    0.000    0.000    0.000    0.000    0.000 
#
# Total GULP energy -446505.250849 kJ/mol
# GULP energy per Si atom -12402.923635 kJ/mol
# Density = 1.883710 g / cm^3
# Si number density = 18.880073 Si / 1000 Ang^3
#
#
#
# Elastic Constant Matrix: (Units=GPa)
#
#
# Indices 1 2 3 4 5 6 
#
# 1 137.2975 42.6388 70.0078 0.0000 0.0000 0.0000
# 2 42.6388 64.7642 47.8103 0.0000 0.0000 0.0000
# 3 70.0078 47.8103 153.6337 0.0000 0.0000 0.0000
# 4 0.0000 0.0000 0.0000 22.3179 0.0000 0.0000
# 5 0.0000 0.0000 0.0000 0.0000 21.3092 0.0000
# 6 0.0000 0.0000 0.0000 0.0000 0.0000 26.7327
#
#
#
# Elastic Compliance Matrix: (Units=1/GPa)
#
#
# Indices 1 2 3 4 5 6 
#
# 1 0.010343 -0.004324 -0.003368 0.000000 0.000000 0.000000
# 2 -0.004324 0.021853 -0.004830 0.000000 0.000000 0.000000
# 3 -0.003368 -0.004830 0.009547 0.000000 0.000000 0.000000
# 4 0.000000 0.000000 0.000000 0.044807 0.000000 0.000000
# 5 0.000000 0.000000 0.000000 0.000000 0.046928 0.000000
# 6 0.000000 0.000000 0.000000 0.000000 0.000000 0.037407
#
#
# Mechanical properties :
#
#
# Convention : Reuss Voigt Hill
#
# Bulk Modulus (GPa) = 59.88142 75.17882 67.53012
# Shear Modulus (GPa) = 24.81437 27.08786 25.95111
#
# Velocity S-wave (km/s) = 3.62928 3.79190 3.71148
# Velocity P-wave (km/s) = 7.02480 7.68615 7.36290
#
# Compressibility (1/GPa) = 0.01669967
#
# Stress axis : x y z
#
# Youngs Moduli (GPa) = 96.67980 45.76011 104.74670
#
# Poissons Ratio (x) = 0.19785 0.35277
# Poissons Ratio (y) = 0.41801 0.50597
# Poissons Ratio (z) = 0.32560 0.22104
#
# Static dielectric constant tensor:
#      x y z
#    x 4.069050 0.000000 0.000000 
#    y 0.000000 3.348550 0.000000 
#    z 0.000000 0.000000 3.460080 
# 
# 
# High freq. dielectric constant tensor:
#      x y z
#    x 1.747220 0.000000 0.000000 
#    y 0.000000 1.709120 0.000000 
#    z 0.000000 0.000000 1.743240 
# 
# From -- ./inp_files/12179.got.cif
#   From: 2010.06.25/outbox.cif.g09.slc.cpg/sg71_7_cif.got.tgz:12179.got - 2010.06.28 04:59:45.
