data_PCOD8291042
_publ_section_title
;
Structure prediction by ZEFSAII (Michael W. Deem and Ramdas Pophale) SiO2 
 PCOD8291042
Probable space group: I M M M
;
_chemical_formula_sum "Si O2"
_cell_formula_units_Z 64
_cell_length_a 24.187436
_cell_length_b 7.659370
_cell_length_c 17.948650
_cell_angle_alpha 90.000000
_cell_angle_beta 90.000000
_cell_angle_gamma 90.000000
_cell_volume 3325.176262
_symmetry_space_group_name_H-M "I M M M"
_symmetry_group_IT_number 71
_symmetry_cell_setting 'orthorhombic'
loop_
_space_group_symop_operation_xyz
x,y,z
-x,-y,z
x,-y,-z
-x,y,-z
-x,-y,-z
x,y,-z
-x,y,z
x,-y,z
1/2+x,1/2+y,1/2+z
1/2-x,1/2-y,1/2+z
1/2+x,1/2-y,1/2-z
1/2-x,1/2+y,1/2-z
1/2-x,1/2-y,1/2-z
1/2+x,1/2+y,1/2-z
1/2-x,1/2+y,1/2+z
1/2+x,1/2-y,1/2+z
loop_
_atom_site_type_symbol
_atom_site_label
_atom_site_fract_x
_atom_site_fract_y
_atom_site_fract_z
Si Si1 0.867251 0.300083 0.588636
Si Si2 0.935435 0.000000 0.164246
Si Si3 0.064539 0.000000 0.337760
Si Si4 0.629598 0.804316 0.412865
Si Si5 0.753925 0.795343 0.916532
O O1 0.868718 0.276146 0.500000
O O2 0.881838 0.500000 0.609447
O O3 0.805664 0.251764 0.620444
O O4 0.911215 0.174704 0.626324
O O5 0.921876 0.000000 0.251066
O O6 0.910712 0.174643 0.129343
O O7 0.000000 0.000000 0.147379
O O8 0.000000 0.000000 0.354543
O O9 0.630589 0.752647 0.500000
O O10 0.692210 0.792796 0.378741
O O11 0.607129 0.000000 0.400780
O O12 0.764361 0.000000 0.915622
O O13 0.750455 0.722739 0.000000
#
# Coordination Sequence:
#
# PCOD8291042 Si02
#       5
#    16   8   8  16  16
#     4   9  19  36  61  90 116 146 187 238 288 337
#     4  11  25  43  57  75 115 163 198 235 282 335
#     4  11  25  41  57  79 113 161 204 233 278 341
#     4  10  20  35  61  91 113 143 188 238 290 342
#     4   8  14  29  56  87 117 144 174 222 287 345
#
# _framework density 19.2471
#
# number of rings (size 3 to 8) (size 9 to 14) (size 15 to 20)
#    0.000    2.500    1.250    2.250    1.750    4.000 
#    0.000    6.250    0.000    0.000    0.000    0.000 
#    0.000    0.000    0.000    0.000    0.000    0.000 
#
# Total GULP energy -396586.529062 kJ/mol
# GULP energy per Si atom -12393.329033 kJ/mol
# Density = 1.920329 g / cm^3
# Si number density = 19.247100 Si / 1000 Ang^3
#
#
#
# Elastic Constant Matrix: (Units=GPa)
#
#
# Indices 1 2 3 4 5 6 
#
# 1 125.8398 83.4603 62.6520 0.0000 0.0000 0.0000
# 2 83.4603 130.9803 53.8310 0.0000 0.0000 0.0000
# 3 62.6520 53.8310 60.0736 0.0000 0.0000 0.0000
# 4 0.0000 0.0000 0.0000 1.2482 0.0000 0.0000
# 5 0.0000 0.0000 0.0000 0.0000 -40.9674 0.0000
# 6 0.0000 0.0000 0.0000 0.0000 0.0000 28.9003
#
#
#
# Elastic Compliance Matrix: (Units=1/GPa)
#
#
# Indices 1 2 3 4 5 6 
#
# 1 0.019425 -0.006414 -0.014512 0.000000 0.000000 0.000000
# 2 -0.006414 0.014203 -0.006038 0.000000 0.000000 0.000000
# 3 -0.014512 -0.006038 0.037192 0.000000 0.000000 0.000000
# 4 0.000000 0.000000 0.000000 0.801183 0.000000 0.000000
# 5 0.000000 0.000000 0.000000 0.000000 -0.024410 0.000000
# 6 0.000000 0.000000 0.000000 0.000000 0.000000 0.034602
#
#
# Mechanical properties :
#
#
# Convention : Reuss Voigt Hill
#
# Bulk Modulus (GPa) = 59.19745 79.64225 69.41985
# Shear Modulus (GPa) = 5.30924 5.63290 5.47107
#
# Velocity S-wave (km/s) = 1.66266 1.71259 1.68781
# Velocity P-wave (km/s) = 5.87446 6.73642 6.32015
#
# Compressibility (1/GPa) = 0.01689262
#
# Stress axis : x y z
#
# Youngs Moduli (GPa) = 51.47904 70.40714 26.88748
#
# Poissons Ratio (x) = 0.45156 0.39019
# Poissons Ratio (y) = 0.33016 0.16236
# Poissons Ratio (z) = 0.74707 0.42514
#
# Static dielectric constant tensor:
#      x y z
#    x 3.707620 0.000000 0.000000 
#    y 0.000000 3.495280 0.000000 
#    z 0.000000 0.000000 3.163820 
# 
# 
# High freq. dielectric constant tensor:
#      x y z
#    x 1.758160 0.000000 0.000000 
#    y 0.000000 1.758900 0.000000 
#    z 0.000000 0.000000 1.703480 
# 
# From -- ./inp_files/54628.got.cif
#   From: 2010.06.25/outbox.cif.g09.slc.cpg/sg71_28_cif.got.tgz:54628.got - 2010.06.28 04:59:45.
