data_PCOD8291747
_publ_section_title
;
Structure prediction by ZEFSAII (Michael W. Deem and Ramdas Pophale) SiO2 
 PCOD8291747
Probable space group: I M M M
;
_chemical_formula_sum "Si O2"
_cell_formula_units_Z 88
_cell_length_a 14.863170
_cell_length_b 14.180638
_cell_length_c 20.413756
_cell_angle_alpha 90.000000
_cell_angle_beta 90.000000
_cell_angle_gamma 90.000000
_cell_volume 4302.591701
_symmetry_space_group_name_H-M "I M M M"
_symmetry_group_IT_number 71
_symmetry_cell_setting 'orthorhombic'
loop_
_space_group_symop_operation_xyz
x,y,z
-x,-y,z
x,-y,-z
-x,y,-z
-x,-y,-z
x,y,-z
-x,y,z
x,-y,z
1/2+x,1/2+y,1/2+z
1/2-x,1/2-y,1/2+z
1/2+x,1/2-y,1/2-z
1/2-x,1/2+y,1/2-z
1/2-x,1/2-y,1/2-z
1/2+x,1/2+y,1/2-z
1/2-x,1/2+y,1/2+z
1/2+x,1/2-y,1/2+z
loop_
_atom_site_type_symbol
_atom_site_label
_atom_site_fract_x
_atom_site_fract_y
_atom_site_fract_z
Si Si1 0.209639 0.890489 0.319818
Si Si2 0.500000 0.106812 0.922452
Si Si3 0.899834 0.605694 0.868972
Si Si4 0.099371 0.105600 0.801186
Si Si5 0.359180 0.290013 0.570582
Si Si6 0.157740 0.256811 0.574441
O O1 0.318407 0.876677 0.317030
O O2 0.170183 0.851710 0.250931
O O3 0.161714 0.834717 0.379046
O O4 0.183182 0.000000 0.328852
O O5 0.587006 0.165935 0.898884
O O6 0.500000 0.000000 0.892247
O O7 0.500000 0.097442 0.000000
O O8 0.891593 0.500000 0.897825
O O9 0.883723 0.678648 0.927974
O O10 0.000000 0.619853 0.837025
O O11 0.092982 0.162090 0.868597
O O12 0.000000 0.108712 0.769331
O O13 0.128637 0.000000 0.819290
O O14 0.393908 0.328408 0.500000
O O15 0.253296 0.308877 0.575722
O O16 0.133634 0.224360 0.500000
#
# Coordination Sequence:
#
# PCOD8291747 Si02
#       6
#    16   8  16  16  16  16
#     4   9  19  36  58  82 115 154 190 236 287 342
#     4   9  18  34  55  81 115 151 189 234 282 334
#     4   9  18  33  55  85 118 150 185 230 287 346
#     4  10  22  38  56  80 109 147 193 237 288 344
#     4  10  21  37  57  82 111 146 189 238 289 342
#     4   9  19  34  56  86 114 146 189 233 283 343
#
# _framework density 20.45279
#
# number of rings (size 3 to 8) (size 9 to 14) (size 15 to 20)
#    0.000    2.636    0.000    0.545    1.273    6.182 
#    0.000    7.273    2.000    2.727    0.000    0.000 
#    0.000    0.000    0.000    0.000    0.000    0.000 
#
# Total GULP energy -545188.155573 kJ/mol
# GULP energy per Si atom -12390.639899 kJ/mol
# Density = 2.040624 g / cm^3
# Si number density = 20.452790 Si / 1000 Ang^3
#
#
#
# Elastic Constant Matrix: (Units=GPa)
#
#
# Indices 1 2 3 4 5 6 
#
# 1 141.7711 51.7030 46.2946 0.0000 0.0000 0.0000
# 2 51.7030 91.5817 45.3559 0.0000 0.0000 0.0000
# 3 46.2946 45.3559 117.7043 0.0000 0.0000 0.0000
# 4 0.0000 0.0000 0.0000 16.7937 0.0000 0.0000
# 5 0.0000 0.0000 0.0000 0.0000 20.4420 0.0000
# 6 0.0000 0.0000 0.0000 0.0000 0.0000 27.1648
#
#
#
# Elastic Compliance Matrix: (Units=1/GPa)
#
#
# Indices 1 2 3 4 5 6 
#
# 1 0.009252 -0.004228 -0.002010 0.000000 0.000000 0.000000
# 2 -0.004228 0.015427 -0.004282 0.000000 0.000000 0.000000
# 3 -0.002010 -0.004282 0.010936 0.000000 0.000000 0.000000
# 4 0.000000 0.000000 0.000000 0.059546 0.000000 0.000000
# 5 0.000000 0.000000 0.000000 0.000000 0.048919 0.000000
# 6 0.000000 0.000000 0.000000 0.000000 0.000000 0.036812
#
#
# Mechanical properties :
#
#
# Convention : Reuss Voigt Hill
#
# Bulk Modulus (GPa) = 68.60478 70.86271 69.73374
# Shear Modulus (GPa) = 24.17929 26.72701 25.45315
#
# Velocity S-wave (km/s) = 3.44204 3.61884 3.53155
# Velocity P-wave (km/s) = 7.02942 7.22382 7.12728
#
# Compressibility (1/GPa) = 0.01457624
#
# Stress axis : x y z
#
# Youngs Moduli (GPa) = 108.08783 64.82352 91.43990
#
# Poissons Ratio (x) = 0.27406 0.18377
# Poissons Ratio (y) = 0.45698 0.39151
# Poissons Ratio (z) = 0.21722 0.27755
#
# Static dielectric constant tensor:
#      x y z
#    x 3.940370 0.000000 0.000000 
#    y 0.000000 3.742340 0.000000 
#    z 0.000000 0.000000 3.430750 
# 
# 
# High freq. dielectric constant tensor:
#      x y z
#    x 1.813670 0.000000 0.000000 
#    y 0.000000 1.794660 0.000000 
#    z 0.000000 0.000000 1.767100 
# 
# From -- ./inp_files/37731.got.cif
#   From: 2010.06.25/outbox.cif.g09.slc.cpg/sg71_19_cif.got.tgz:37731.got - 2010.06.28 04:59:45.
