data_PCOD8291339
_publ_section_title
;
Structure prediction by ZEFSAII (Michael W. Deem and Ramdas Pophale) SiO2 
 PCOD8291339
Probable space group: I M M M
;
_chemical_formula_sum "Si O2"
_cell_formula_units_Z 48
_cell_length_a 13.706875
_cell_length_b 7.584315
_cell_length_c 22.840287
_cell_angle_alpha 90.000000
_cell_angle_beta 90.000000
_cell_angle_gamma 90.000000
_cell_volume 2374.413601
_symmetry_space_group_name_H-M "I M M M"
_symmetry_group_IT_number 71
_symmetry_cell_setting 'orthorhombic'
loop_
_space_group_symop_operation_xyz
x,y,z
-x,-y,z
x,-y,-z
-x,y,-z
-x,-y,-z
x,y,-z
-x,y,z
x,-y,z
1/2+x,1/2+y,1/2+z
1/2-x,1/2-y,1/2+z
1/2+x,1/2-y,1/2-z
1/2-x,1/2+y,1/2-z
1/2-x,1/2-y,1/2-z
1/2+x,1/2+y,1/2-z
1/2-x,1/2+y,1/2+z
1/2+x,1/2-y,1/2+z
loop_
_atom_site_type_symbol
_atom_site_label
_atom_site_fract_x
_atom_site_fract_y
_atom_site_fract_z
Si Si1 0.291374 0.500000 0.568557
Si Si2 0.615096 0.200594 0.643508
Si Si3 0.885841 0.500000 0.642148
Si Si4 0.384627 0.303159 0.770509
O O1 0.308313 0.500000 0.500000
O O2 0.339711 0.674776 0.594620
O O3 0.175563 0.500000 0.582334
O O4 0.500000 0.233286 0.644592
O O5 0.660274 0.245223 0.707770
O O6 0.640539 0.000000 0.627125
O O7 0.852315 0.328530 0.678488
O O8 0.000000 0.500000 0.626521
O O9 0.500000 0.292394 0.764087
O O10 0.349719 0.500000 0.786880
#
# Coordination Sequence:
#
# PCOD8291339 Si02
#       4
#     8  16   8  16
#     4  12  27  41  56  83 119 163 211 242 271 339
#     4  10  20  38  63  90 123 154 183 235 300 358
#     4  10  22  40  61  86 117 153 196 249 301 341
#     4   9  16  32  60  91 119 144 180 236 302 361
#
# _framework density 20.215519
#
# number of rings (size 3 to 8) (size 9 to 14) (size 15 to 20)
#    0.000    2.000    3.333    0.500    0.000    5.000 
#    0.000    1.667    0.000    0.000    0.000    7.000 
#    0.000    0.000    0.000    0.000    0.000    0.000 
#
# Total GULP energy -297640.178615 kJ/mol
# GULP energy per Si atom -12401.674109 kJ/mol
# Density = 2.016951 g / cm^3
# Si number density = 20.215519 Si / 1000 Ang^3
#
#
#
# Elastic Constant Matrix: (Units=GPa)
#
#
# Indices 1 2 3 4 5 6 
#
# 1 32.6232 25.0122 6.0089 0.0000 0.0000 0.0000
# 2 25.0122 147.5569 33.0204 0.0000 0.0000 0.0000
# 3 6.0089 33.0204 87.8120 0.0000 0.0000 0.0000
# 4 0.0000 0.0000 0.0000 19.2095 0.0000 0.0000
# 5 0.0000 0.0000 0.0000 0.0000 26.6331 0.0000
# 6 0.0000 0.0000 0.0000 0.0000 0.0000 14.1188
#
#
#
# Elastic Compliance Matrix: (Units=1/GPa)
#
#
# Indices 1 2 3 4 5 6 
#
# 1 0.035234 -0.005932 -0.000180 0.000000 0.000000 0.000000
# 2 -0.005932 0.008398 -0.002752 0.000000 0.000000 0.000000
# 3 -0.000180 -0.002752 0.012435 0.000000 0.000000 0.000000
# 4 0.000000 0.000000 0.000000 0.052058 0.000000 0.000000
# 5 0.000000 0.000000 0.000000 0.000000 0.037547 0.000000
# 6 0.000000 0.000000 0.000000 0.000000 0.000000 0.070828
#
#
# Mechanical properties :
#
#
# Convention : Reuss Voigt Hill
#
# Bulk Modulus (GPa) = 26.08331 44.00834 35.04583
# Shear Modulus (GPa) = 20.24211 25.58897 22.91554
#
# Velocity S-wave (km/s) = 3.16779 3.56168 3.37049
# Velocity P-wave (km/s) = 5.12937 6.22342 5.70269
#
# Compressibility (1/GPa) = 0.03833869
#
# Stress axis : x y z
#
# Youngs Moduli (GPa) = 28.38134 119.06895 80.41664
#
# Poissons Ratio (x) = 0.70634 0.01450
# Poissons Ratio (y) = 0.16836 0.22132
# Poissons Ratio (z) = 0.00512 0.32770
#
# Static dielectric constant tensor:
#      x y z
#    x 3.609950 0.000000 0.000000 
#    y 0.000000 3.957200 0.000000 
#    z 0.000000 0.000000 3.262000 
# 
# 
# High freq. dielectric constant tensor:
#      x y z
#    x 1.802440 0.000000 0.000000 
#    y 0.000000 1.807650 0.000000 
#    z 0.000000 0.000000 1.744710 
# 
# From -- ./inp_files/4624.got.cif
#   From: 2010.06.25/outbox.cif.g09.slc.cpg/sg71_3_cif.got.tgz:4624.got - 2010.06.28 04:59:45.
