data_PCOD8291195
_publ_section_title
;
Structure prediction by ZEFSAII (Michael W. Deem and Ramdas Pophale) SiO2 
 PCOD8291195
Probable space group: I M M M
;
_chemical_formula_sum "Si O2"
_cell_formula_units_Z 104
_cell_length_a 8.843601
_cell_length_b 21.502324
_cell_length_c 26.001073
_cell_angle_alpha 90.000000
_cell_angle_beta 90.000000
_cell_angle_gamma 90.000000
_cell_volume 4944.311364
_symmetry_space_group_name_H-M "I M M M"
_symmetry_group_IT_number 71
_symmetry_cell_setting 'orthorhombic'
loop_
_space_group_symop_operation_xyz
x,y,z
-x,-y,z
x,-y,-z
-x,y,-z
-x,-y,-z
x,y,-z
-x,y,z
x,-y,z
1/2+x,1/2+y,1/2+z
1/2-x,1/2-y,1/2+z
1/2+x,1/2-y,1/2-z
1/2-x,1/2+y,1/2-z
1/2-x,1/2-y,1/2-z
1/2+x,1/2+y,1/2-z
1/2-x,1/2+y,1/2+z
1/2+x,1/2-y,1/2+z
loop_
_atom_site_type_symbol
_atom_site_label
_atom_site_fract_x
_atom_site_fract_y
_atom_site_fract_z
Si Si1 0.678451 0.837279 0.943803
Si Si2 0.820789 0.572704 0.000000
Si Si3 0.823294 0.569197 0.202917
Si Si4 0.174832 0.069278 0.121042
Si Si5 0.678984 0.613926 0.106192
Si Si6 0.822109 0.249721 0.354672
Si Si7 0.176462 0.842792 0.215582
O O1 0.500000 0.835299 0.944643
O O2 0.732779 0.905846 0.927845
O O3 0.743402 0.788290 0.902973
O O4 0.743285 0.820565 0.000000
O O5 0.751880 0.606091 0.050097
O O6 0.775955 0.500000 0.000000
O O7 0.000000 0.581717 0.000000
O O8 0.795405 0.500000 0.227378
O O9 0.750065 0.564984 0.145985
O O10 0.748807 0.626418 0.233951
O O11 0.000000 0.583178 0.198281
O O12 0.213646 0.108676 0.171068
O O13 0.000000 0.072701 0.106879
O O14 0.229401 0.000000 0.132749
O O15 0.500000 0.604905 0.100619
O O16 0.721861 0.679727 0.132140
O O17 0.746200 0.275785 0.301775
O O18 0.000000 0.258532 0.347858
O O19 0.000000 0.833312 0.226790
#
# Coordination Sequence:
#
# PCOD8291195 Si02
#       7
#    16   8  16  16  16  16  16
#     4   9  18  32  51  73 102 141 184 235 287 342
#     4  11  25  45  67  93 129 167 202 249 310 369
#     4  11  24  41  62  89 123 161 200 246 304 366
#     4   9  18  32  49  72 105 143 184 234 290 343
#     4  11  24  41  66  95 122 158 204 253 303 360
#     4   9  20  38  59  85 118 154 196 244 300 359
#     4  10  20  36  60  87 117 154 199 248 296 353
#
# _framework density 21.034274
#
# number of rings (size 3 to 8) (size 9 to 14) (size 15 to 20)
#    0.000    2.077    0.000    2.538    1.077    7.692 
#    0.000    1.538    0.000    0.000    0.000    0.000 
#    0.000    0.000    0.000    0.000    0.000    0.000 
#
# Total GULP energy -644650.679622 kJ/mol
# GULP energy per Si atom -12397.128454 kJ/mol
# Density = 2.098640 g / cm^3
# Si number density = 21.034274 Si / 1000 Ang^3
#
#
#
# Elastic Constant Matrix: (Units=GPa)
#
#
# Indices 1 2 3 4 5 6 
#
# 1 84.6939 42.2439 49.5273 0.0000 0.0000 0.0000
# 2 42.2439 92.3132 37.3496 0.0000 0.0000 0.0000
# 3 49.5273 37.3496 136.1927 0.0000 0.0000 0.0000
# 4 0.0000 0.0000 0.0000 20.4036 0.0000 0.0000
# 5 0.0000 0.0000 0.0000 0.0000 37.7816 0.0000
# 6 0.0000 0.0000 0.0000 0.0000 0.0000 30.2604
#
#
#
# Elastic Compliance Matrix: (Units=1/GPa)
#
#
# Indices 1 2 3 4 5 6 
#
# 1 0.017645 -0.006162 -0.004727 0.000000 0.000000 0.000000
# 2 -0.006162 0.014337 -0.001691 0.000000 0.000000 0.000000
# 3 -0.004727 -0.001691 0.009525 0.000000 0.000000 0.000000
# 4 0.000000 0.000000 0.000000 0.049011 0.000000 0.000000
# 5 0.000000 0.000000 0.000000 0.000000 0.026468 0.000000
# 6 0.000000 0.000000 0.000000 0.000000 0.000000 0.033047
#
#
# Mechanical properties :
#
#
# Convention : Reuss Voigt Hill
#
# Bulk Modulus (GPa) = 61.17219 63.49351 62.33285
# Shear Modulus (GPa) = 27.67926 29.96104 28.82015
#
# Velocity S-wave (km/s) = 3.63149 3.77821 3.70557
# Velocity P-wave (km/s) = 6.83585 7.02028 6.92868
#
# Compressibility (1/GPa) = 0.01634730
#
# Stress axis : x y z
#
# Youngs Moduli (GPa) = 56.67351 69.75124 104.98524
#
# Poissons Ratio (x) = 0.42982 0.49624
# Poissons Ratio (y) = 0.34923 0.17751
# Poissons Ratio (z) = 0.26788 0.11794
#
# Static dielectric constant tensor:
#      x y z
#    x 3.655720 0.000000 0.000000 
#    y 0.000000 4.091340 0.000000 
#    z 0.000000 0.000000 4.079360 
# 
# 
# High freq. dielectric constant tensor:
#      x y z
#    x 1.817550 0.000000 0.000000 
#    y 0.000000 1.830980 0.000000 
#    z 0.000000 0.000000 1.832380 
# 
# From -- ./inp_files/63295.got.cif
#   From: 2010.06.25/outbox.cif.g09.slc.cpg/sg71_32_cif.got.tgz:63295.got - 2010.06.28 04:59:45.
