data_PCOD8291714
_publ_section_title
;
Structure prediction by ZEFSAII (Michael W. Deem and Ramdas Pophale) SiO2 
 PCOD8291714
Probable space group: I M M M
;
_chemical_formula_sum "Si O2"
_cell_formula_units_Z 72
_cell_length_a 15.036922
_cell_length_b 28.947446
_cell_length_c 8.647322
_cell_angle_alpha 90.000000
_cell_angle_beta 90.000000
_cell_angle_gamma 90.000000
_cell_volume 3764.010537
_symmetry_space_group_name_H-M "I M M M"
_symmetry_group_IT_number 71
_symmetry_cell_setting 'orthorhombic'
loop_
_space_group_symop_operation_xyz
x,y,z
-x,-y,z
x,-y,-z
-x,y,-z
-x,-y,-z
x,y,-z
-x,y,z
x,-y,z
1/2+x,1/2+y,1/2+z
1/2-x,1/2-y,1/2+z
1/2+x,1/2-y,1/2-z
1/2-x,1/2+y,1/2-z
1/2-x,1/2-y,1/2-z
1/2+x,1/2+y,1/2-z
1/2-x,1/2+y,1/2+z
1/2+x,1/2-y,1/2+z
loop_
_atom_site_type_symbol
_atom_site_label
_atom_site_fract_x
_atom_site_fract_y
_atom_site_fract_z
Si Si1 0.251513 0.139747 0.319526
Si Si2 0.816228 0.447293 0.682231
Si Si3 0.602807 0.699585 0.320732
Si Si4 0.500000 0.945530 0.672336
Si Si5 0.898749 0.703057 0.680141
O O1 0.269915 0.143457 0.500000
O O2 0.245571 0.086142 0.266482
O O3 0.158475 0.163383 0.278860
O O4 0.333271 0.162385 0.227904
O O5 0.807216 0.442384 0.500000
O O6 0.798015 0.500000 0.735236
O O7 0.913733 0.429795 0.732953
O O8 0.625457 0.692734 0.500000
O O9 0.500000 0.690050 0.283681
O O10 0.629186 0.751395 0.274109
O O11 0.500000 0.923309 0.500000
O O12 0.500000 0.000000 0.657349
O O13 0.887834 0.714142 0.500000
O O14 0.000000 0.688404 0.719947
#
# Coordination Sequence:
#
# PCOD8291714 Si02
#       5
#    16  16  16   8  16
#     4  12  24  36  56  83 114 149 187 231 277 333
#     4  10  21  37  56  78 108 146 187 230 276 327
#     4  10  21  39  61  83 110 144 185 232 281 334
#     4   9  17  31  51  75 105 141 179 219 267 323
#     4  10  21  37  57  82 115 151 187 228 274 328
#
# _framework density 19.128533999999998
#
# number of rings (size 3 to 8) (size 9 to 14) (size 15 to 20)
#    0.000    1.667    0.000    5.000    1.556    5.333 
#    0.000    0.000    0.000    0.667    0.000    4.667 
#    0.000    0.000    0.000    0.000    0.000    0.000 
#
# Total GULP energy -446544.856679 kJ/mol
# GULP energy per Si atom -12404.023797 kJ/mol
# Density = 1.908500 g / cm^3
# Si number density = 19.128534 Si / 1000 Ang^3
#
#
#
# Elastic Constant Matrix: (Units=GPa)
#
#
# Indices 1 2 3 4 5 6 
#
# 1 69.4879 46.4799 25.5860 -0.0002 0.0009 0.0007
# 2 46.4799 96.2092 22.3023 0.0070 -0.0014 0.0005
# 3 25.5860 22.3023 68.2287 0.0071 -0.0010 0.0000
# 4 -0.0002 0.0070 0.0071 32.8384 -0.0010 -0.0003
# 5 0.0009 -0.0014 -0.0010 -0.0010 29.0970 0.0015
# 6 0.0007 0.0005 0.0000 -0.0003 0.0015 27.1714
#
#
#
# Elastic Compliance Matrix: (Units=1/GPa)
#
#
# Indices 1 2 3 4 5 6 
#
# 1 0.022960 -0.009842 -0.005393 0.000003 -0.000001 0.000000
# 2 -0.009842 0.015465 -0.001364 -0.000003 0.000001 0.000000
# 3 -0.005393 -0.001364 0.017125 -0.000003 0.000001 0.000000
# 4 0.000003 -0.000003 -0.000003 0.030452 0.000001 0.000000
# 5 -0.000001 0.000001 0.000001 0.000001 0.034368 -0.000002
# 6 0.000000 0.000000 0.000000 0.000000 -0.000002 0.036803
#
#
# Mechanical properties :
#
#
# Convention : Reuss Voigt Hill
#
# Bulk Modulus (GPa) = 44.74019 46.96248 45.85133
# Shear Modulus (GPa) = 25.27513 27.12518 26.20016
#
# Velocity S-wave (km/s) = 3.63896 3.76978 3.70495
# Velocity P-wave (km/s) = 6.41062 6.59944 6.50572
#
# Compressibility (1/GPa) = 0.02235127
#
# Stress axis : x y z
#
# Youngs Moduli (GPa) = 43.55386 64.66143 58.39444
#
# Poissons Ratio (x) = 0.63641 0.31492
# Poissons Ratio (y) = 0.42866 0.07967
# Poissons Ratio (z) = 0.23488 0.08822
#
# Static dielectric constant tensor:
#      x y z
#    x 3.400670 0.000000 0.000000 
#    y 0.000000 3.495440 -0.000010 
#    z 0.000000 -0.000010 3.576540 
# 
# 
# High freq. dielectric constant tensor:
#      x y z
#    x 1.723800 0.000000 0.000000 
#    y 0.000000 1.740370 0.000000 
#    z 0.000000 0.000000 1.760150 
# 
# From -- ./inp_files/6022.got.cif
#   From: 2010.06.25/outbox.cif.g09.slc.cpg/sg71_4_cif.got.tgz:6022.got - 2010.06.28 04:59:45.
