data_PCOD8291731
_publ_section_title
;
Structure prediction by ZEFSAII (Michael W. Deem and Ramdas Pophale) SiO2 
 PCOD8291731
Probable space group: I M M M
;
_chemical_formula_sum "Si O2"
_cell_formula_units_Z 96
_cell_length_a 23.582580
_cell_length_b 9.239486
_cell_length_c 25.317544
_cell_angle_alpha 90.000000
_cell_angle_beta 90.000000
_cell_angle_gamma 90.000000
_cell_volume 5516.462897
_symmetry_space_group_name_H-M "I M M M"
_symmetry_group_IT_number 71
_symmetry_cell_setting 'orthorhombic'
loop_
_space_group_symop_operation_xyz
x,y,z
-x,-y,z
x,-y,-z
-x,y,-z
-x,-y,-z
x,y,-z
-x,y,z
x,-y,z
1/2+x,1/2+y,1/2+z
1/2-x,1/2-y,1/2+z
1/2+x,1/2-y,1/2-z
1/2-x,1/2+y,1/2-z
1/2-x,1/2-y,1/2-z
1/2+x,1/2+y,1/2-z
1/2-x,1/2+y,1/2+z
1/2+x,1/2-y,1/2+z
loop_
_atom_site_type_symbol
_atom_site_label
_atom_site_fract_x
_atom_site_fract_y
_atom_site_fract_z
Si Si1 0.129350 0.663136 0.152179
Si Si2 0.749450 0.162505 0.623757
Si Si3 0.434413 0.164776 0.938872
Si Si4 0.668402 0.669336 0.560216
Si Si5 0.434096 0.170248 0.244882
Si Si6 0.873395 0.170375 0.350112
O O1 0.108484 0.500000 0.140184
O O2 0.197124 0.665137 0.165997
O O3 0.120677 0.758840 0.098797
O O4 0.094139 0.728041 0.200962
O O5 0.730744 0.265001 0.574567
O O6 0.807021 0.214934 0.651744
O O7 0.758463 0.000000 0.601570
O O8 0.500000 0.188806 0.924885
O O9 0.397671 0.277723 0.905985
O O10 0.417233 0.000000 0.924753
O O11 0.422783 0.196750 0.000000
O O12 0.652866 0.706290 0.500000
O O13 0.670126 0.500000 0.570671
O O14 0.500000 0.209416 0.246277
O O15 0.405513 0.250418 0.196562
O O16 0.423613 0.000000 0.238094
O O17 0.882678 0.000000 0.343973
#
# Coordination Sequence:
#
# PCOD8291731 Si02
#       6
#    16  16  16  16  16  16
#     4   8  17  35  54  74 103 139 172 208 258 306
#     4   8  18  34  49  71 102 136 168 200 247 305
#     4   9  19  36  54  70  94 133 178 219 258 301
#     4   9  17  30  51  79 106 132 167 209 253 305
#     4  10  21  37  57  78 101 134 177 220 258 303
#     4  11  22  34  50  77 108 136 171 212 259 312
#
# _framework density 17.402456000000001
#
# number of rings (size 3 to 8) (size 9 to 14) (size 15 to 20)
#    1.000    1.833    0.000    1.500    0.000    7.667 
#    0.000    4.167    0.000    0.500    0.000    3.500 
#    0.000    0.000    0.000    0.000    0.000    0.000 
#
# Total GULP energy -594773.824577 kJ/mol
# GULP energy per Si atom -12391.121345 kJ/mol
# Density = 1.736285 g / cm^3
# Si number density = 17.402456 Si / 1000 Ang^3
#
#
#
# Elastic Constant Matrix: (Units=GPa)
#
#
# Indices 1 2 3 4 5 6 
#
# 1 18.1748 21.8000 46.3891 0.0000 0.0000 0.0000
# 2 21.8000 60.2830 52.4903 0.0000 0.0000 0.0000
# 3 46.3891 52.4903 115.7246 0.0000 0.0000 0.0000
# 4 0.0000 0.0000 0.0000 24.1924 0.0000 0.0000
# 5 0.0000 0.0000 0.0000 0.0000 30.1967 0.0000
# 6 0.0000 0.0000 0.0000 0.0000 0.0000 20.4304
#
#
#
# Elastic Compliance Matrix: (Units=1/GPa)
#
#
# Indices 1 2 3 4 5 6 
#
# 1 -2.291512 0.047672 0.896948 0.000000 0.000000 0.000000
# 2 0.047672 0.026425 -0.031095 0.000000 0.000000 0.000000
# 3 0.896948 -0.031095 -0.336803 0.000000 0.000000 0.000000
# 4 0.000000 0.000000 0.000000 0.041335 0.000000 0.000000
# 5 0.000000 0.000000 0.000000 0.000000 0.033116 0.000000
# 6 0.000000 0.000000 0.000000 0.000000 0.000000 0.048947
#
#
# Mechanical properties :
#
#
# Convention : Reuss Voigt Hill
#
# Bulk Modulus (GPa) = -1.29058 48.39346 23.55144
# Shear Modulus (GPa) = -1.09557 19.86412 9.38427
#
# Velocity S-wave (km/s) = -0.79430 3.38221 2.32469
# Velocity P-wave (km/s) = 1.25875 6.56667 4.55723
#
# Compressibility (1/GPa) = -0.77484250
#
# Stress axis : x y z
#
# Youngs Moduli (GPa) = -0.43639 37.84333 -2.96909
#
# Poissons Ratio (x) = -1.80405 2.66312
# Poissons Ratio (y) = 0.02080 -0.09232
# Poissons Ratio (z) = 0.39142 1.17675
#
# Static dielectric constant tensor:
#      x y z
#    x 3.186110 0.000000 0.000000 
#    y 0.000000 3.206320 0.000000 
#    z 0.000000 0.000000 3.130000 
# 
# 
# High freq. dielectric constant tensor:
#      x y z
#    x 1.657390 0.000000 0.000000 
#    y 0.000000 1.673060 0.000000 
#    z 0.000000 0.000000 1.662400 
# 
# From -- ./inp_files/66737.got.cif
#   From: 2010.06.25/outbox.cif.g09.slc.cpg/sg71_34_cif.got.tgz:66737.got - 2010.06.28 04:59:45.
