data_PCOD8291254
_publ_section_title
;
Structure prediction by ZEFSAII (Michael W. Deem and Ramdas Pophale) SiO2 
 PCOD8291254
Probable space group: I M M M
;
_chemical_formula_sum "Si O2"
_cell_formula_units_Z 80
_cell_length_a 23.126094
_cell_length_b 7.745974
_cell_length_c 23.331615
_cell_angle_alpha 90.000000
_cell_angle_beta 90.000000
_cell_angle_gamma 90.000000
_cell_volume 4179.488388
_symmetry_space_group_name_H-M "I M M M"
_symmetry_group_IT_number 71
_symmetry_cell_setting 'orthorhombic'
loop_
_space_group_symop_operation_xyz
x,y,z
-x,-y,z
x,-y,-z
-x,y,-z
-x,-y,-z
x,y,-z
-x,y,z
x,-y,z
1/2+x,1/2+y,1/2+z
1/2-x,1/2-y,1/2+z
1/2+x,1/2-y,1/2-z
1/2-x,1/2+y,1/2-z
1/2-x,1/2-y,1/2-z
1/2+x,1/2+y,1/2-z
1/2-x,1/2+y,1/2+z
1/2+x,1/2-y,1/2+z
loop_
_atom_site_type_symbol
_atom_site_label
_atom_site_fract_x
_atom_site_fract_y
_atom_site_fract_z
Si Si1 0.433869 0.000000 0.159809
Si Si2 0.839147 0.500000 0.565517
Si Si3 0.434256 0.797439 0.434749
Si Si4 0.872695 0.199667 0.279565
Si Si5 0.217776 0.809242 0.624613
Si Si6 0.840121 0.805355 0.153285
O O1 0.421623 0.826041 0.195741
O O2 0.500000 0.000000 0.141444
O O3 0.397572 0.000000 0.101629
O O4 0.857875 0.500000 0.500000
O O5 0.801002 0.330349 0.577737
O O6 0.418724 0.746631 0.500000
O O7 0.500000 0.741576 0.420995
O O8 0.391877 0.698736 0.392246
O O9 0.426675 0.000000 0.425501
O O10 0.813422 0.228998 0.314795
O O11 0.862344 0.260177 0.214627
O O12 0.893655 0.000000 0.283179
O O13 0.286584 0.809451 0.633076
O O14 0.200396 0.000000 0.602214
O O15 0.817310 0.000000 0.159480
#
# Coordination Sequence:
#
# PCOD8291254 Si02
#       6
#     8   8  16  16  16  16
#     4  10  22  39  62  88 115 157 197 235 296 346
#     4  10  22  41  60  86 121 151 195 247 288 344
#     4   9  20  38  54  70 100 144 193 240 278 320
#     4   9  21  37  56  86 121 150 183 234 288 345
#     4  10  20  37  59  84 118 154 184 231 291 344
#     4  11  21  34  55  85 114 147 192 233 284 341
#
# _framework density 19.141098
#
# number of rings (size 3 to 8) (size 9 to 14) (size 15 to 20)
#    0.000    2.200    1.000    1.800    2.800    3.400 
#    0.000    3.000    0.000    0.000    0.000    5.600 
#    0.000    0.000    0.000    0.000    0.000    0.000 
#
# Total GULP energy -496086.582952 kJ/mol
# GULP energy per Si atom -12402.164574 kJ/mol
# Density = 1.909753 g / cm^3
# Si number density = 19.141098 Si / 1000 Ang^3
#
#
#
# Elastic Constant Matrix: (Units=GPa)
#
#
# Indices 1 2 3 4 5 6 
#
# 1 108.4203 39.1187 54.4797 0.0000 0.0000 0.0000
# 2 39.1187 99.5054 40.9107 0.0000 0.0000 0.0000
# 3 54.4797 40.9107 118.7088 0.0000 0.0000 0.0000
# 4 0.0000 0.0000 0.0000 11.3654 0.0000 0.0000
# 5 0.0000 0.0000 0.0000 0.0000 20.8523 0.0000
# 6 0.0000 0.0000 0.0000 0.0000 0.0000 23.1743
#
#
#
# Elastic Compliance Matrix: (Units=1/GPa)
#
#
# Indices 1 2 3 4 5 6 
#
# 1 0.012727 -0.003032 -0.004796 0.000000 0.000000 0.000000
# 2 -0.003032 0.012431 -0.002893 0.000000 0.000000 0.000000
# 3 -0.004796 -0.002893 0.011622 0.000000 0.000000 0.000000
# 4 0.000000 0.000000 0.000000 0.087986 0.000000 0.000000
# 5 0.000000 0.000000 0.000000 0.000000 0.047956 0.000000
# 6 0.000000 0.000000 0.000000 0.000000 0.000000 0.043151
#
#
# Mechanical properties :
#
#
# Convention : Reuss Voigt Hill
#
# Bulk Modulus (GPa) = 65.19300 66.18362 65.68831
# Shear Modulus (GPa) = 20.62471 23.88676 22.25574
#
# Velocity S-wave (km/s) = 3.28610 3.53644 3.41357
# Velocity P-wave (km/s) = 6.96643 7.16428 7.06605
#
# Compressibility (1/GPa) = 0.01533907
#
# Stress axis : x y z
#
# Youngs Moduli (GPa) = 78.57191 80.44509 86.04325
#
# Poissons Ratio (x) = 0.24387 0.41268
# Poissons Ratio (y) = 0.23819 0.24890
# Poissons Ratio (z) = 0.37685 0.23271
#
# Static dielectric constant tensor:
#      x y z
#    x 3.280520 0.000000 0.000000 
#    y 0.000000 3.613200 0.000000 
#    z 0.000000 0.000000 3.380240 
# 
# 
# High freq. dielectric constant tensor:
#      x y z
#    x 1.730780 0.000000 0.000000 
#    y 0.000000 1.757560 0.000000 
#    z 0.000000 0.000000 1.735400 
# 
# From -- ./inp_files/10306.got.cif
#   From: 2010.06.25/outbox.cif.g09.slc.cpg/sg71_6_cif.got.tgz:10306.got - 2010.06.28 04:59:45.
