data_PCOD8291600
_publ_section_title
;
Structure prediction by ZEFSAII (Michael W. Deem and Ramdas Pophale) SiO2 
 PCOD8291600
Probable space group: I M M M
;
_chemical_formula_sum "Si O2"
_cell_formula_units_Z 88
_cell_length_a 9.106859
_cell_length_b 22.724832
_cell_length_c 24.148087
_cell_angle_alpha 90.000000
_cell_angle_beta 90.000000
_cell_angle_gamma 90.000000
_cell_volume 4997.491057
_symmetry_space_group_name_H-M "I M M M"
_symmetry_group_IT_number 71
_symmetry_cell_setting 'orthorhombic'
loop_
_space_group_symop_operation_xyz
x,y,z
-x,-y,z
x,-y,-z
-x,y,-z
-x,-y,-z
x,y,-z
-x,y,z
x,-y,z
1/2+x,1/2+y,1/2+z
1/2-x,1/2-y,1/2+z
1/2+x,1/2-y,1/2-z
1/2-x,1/2+y,1/2-z
1/2-x,1/2-y,1/2-z
1/2+x,1/2+y,1/2-z
1/2-x,1/2+y,1/2+z
1/2+x,1/2-y,1/2+z
loop_
_atom_site_type_symbol
_atom_site_label
_atom_site_fract_x
_atom_site_fract_y
_atom_site_fract_z
Si Si1 0.673996 0.612361 0.372987
Si Si2 0.675480 0.500000 0.562513
Si Si3 0.671400 0.273164 0.564094
Si Si4 0.330613 0.431585 0.744205
Si Si5 0.829460 0.154291 0.435466
Si Si6 0.670029 0.068888 0.645241
O O1 0.500000 0.610289 0.378670
O O2 0.739899 0.557733 0.407367
O O3 0.732702 0.673251 0.398712
O O4 0.720067 0.606672 0.308730
O O5 0.500000 0.500000 0.564777
O O6 0.733445 0.500000 0.500000
O O7 0.701738 0.288467 0.500000
O O8 0.500000 0.261580 0.574514
O O9 0.758742 0.215703 0.583424
O O10 0.500000 0.419864 0.759130
O O11 0.305639 0.500000 0.729786
O O12 0.232864 0.410619 0.795610
O O13 0.801217 0.143244 0.500000
O O14 0.754044 0.100878 0.403898
O O15 0.000000 0.155981 0.420591
O O16 0.500000 0.085698 0.642968
O O17 0.697364 0.000000 0.636758
#
# Coordination Sequence:
#
# PCOD8291600 Si02
#       6
#    16   8  16  16  16  16
#     4   9  15  25  43  71 103 137 175 212 253 296
#     4   9  14  20  36  68 107 137 168 215 260 295
#     4   9  17  30  49  73 103 138 173 210 253 298
#     4   9  16  29  49  72 102 138 173 209 250 296
#     4  10  21  37  56  77 101 130 164 201 245 301
#     4  10  21  36  55  79 104 128 159 201 250 303
#
# _framework density 17.608837000000001
#
# number of rings (size 3 to 8) (size 9 to 14) (size 15 to 20)
#    0.000    2.636    0.909    1.636    0.000    4.727 
#    0.000    3.636    0.000    0.000    0.000    0.000 
#    0.000    4.364    0.000    0.000    0.000    0.000 
#
# Total GULP energy -545639.583615 kJ/mol
# GULP energy per Si atom -12400.899628 kJ/mol
# Density = 1.756876 g / cm^3
# Si number density = 17.608837 Si / 1000 Ang^3
#
#
#
# Elastic Constant Matrix: (Units=GPa)
#
#
# Indices 1 2 3 4 5 6 
#
# 1 70.7743 49.4253 51.4228 0.0000 0.0000 0.0000
# 2 49.4253 96.8985 70.5237 0.0000 0.0000 0.0000
# 3 51.4228 70.5237 104.0689 0.0000 0.0000 0.0000
# 4 0.0000 0.0000 0.0000 30.0284 0.0000 0.0000
# 5 0.0000 0.0000 0.0000 0.0000 18.2993 0.0000
# 6 0.0000 0.0000 0.0000 0.0000 0.0000 17.1375
#
#
#
# Elastic Compliance Matrix: (Units=1/GPa)
#
#
# Indices 1 2 3 4 5 6 
#
# 1 0.024368 -0.007234 -0.007139 0.000000 0.000000 0.000000
# 2 -0.007234 0.022511 -0.011681 0.000000 0.000000 0.000000
# 3 -0.007139 -0.011681 0.021052 0.000000 0.000000 0.000000
# 4 0.000000 0.000000 0.000000 0.033302 0.000000 0.000000
# 5 0.000000 0.000000 0.000000 0.000000 0.054647 0.000000
# 6 0.000000 0.000000 0.000000 0.000000 0.000000 0.058352
#
#
# Mechanical properties :
#
#
# Convention : Reuss Voigt Hill
#
# Bulk Modulus (GPa) = 63.19181 68.27615 65.73398
# Shear Modulus (GPa) = 18.40862 19.78438 19.09650
#
# Velocity S-wave (km/s) = 3.23680 3.35557 3.29672
# Velocity P-wave (km/s) = 7.06636 7.33970 7.20433
#
# Compressibility (1/GPa) = 0.01582483
#
# Stress axis : x y z
#
# Youngs Moduli (GPa) = 41.03754 44.42259 47.50178
#
# Poissons Ratio (x) = 0.32135 0.33910
# Poissons Ratio (y) = 0.29686 0.55485
# Poissons Ratio (z) = 0.29295 0.51888
#
# Static dielectric constant tensor:
#      x y z
#    x 3.032380 0.000000 0.000000 
#    y 0.000000 3.276150 0.000000 
#    z 0.000000 0.000000 3.316710 
# 
# 
# High freq. dielectric constant tensor:
#      x y z
#    x 1.653030 0.000000 0.000000 
#    y 0.000000 1.675630 0.000000 
#    z 0.000000 0.000000 1.684630 
# 
# From -- ./inp_files/10415.got.cif
#   From: 2010.06.25/outbox.cif.g09.slc.cpg/sg71_6_cif.got.tgz:10415.got - 2010.06.28 04:59:45.
