data_PCOD8291862
_publ_section_title
;
Structure prediction by ZEFSAII (Michael W. Deem and Ramdas Pophale) SiO2 
 PCOD8291862
Probable space group: I M M M
;
_chemical_formula_sum "Si O2"
_cell_formula_units_Z 72
_cell_length_a 8.766150
_cell_length_b 29.904894
_cell_length_c 14.429185
_cell_angle_alpha 90.000000
_cell_angle_beta 90.000000
_cell_angle_gamma 90.000000
_cell_volume 3782.622197
_symmetry_space_group_name_H-M "I M M M"
_symmetry_group_IT_number 71
_symmetry_cell_setting 'orthorhombic'
loop_
_space_group_symop_operation_xyz
x,y,z
-x,-y,z
x,-y,-z
-x,y,-z
-x,-y,-z
x,y,-z
-x,y,z
x,-y,z
1/2+x,1/2+y,1/2+z
1/2-x,1/2-y,1/2+z
1/2+x,1/2-y,1/2-z
1/2-x,1/2+y,1/2-z
1/2-x,1/2-y,1/2-z
1/2+x,1/2+y,1/2-z
1/2-x,1/2+y,1/2+z
1/2+x,1/2-y,1/2+z
loop_
_atom_site_type_symbol
_atom_site_label
_atom_site_fract_x
_atom_site_fract_y
_atom_site_fract_z
Si Si1 0.821740 0.552096 0.810589
Si Si2 0.180753 0.873746 0.196355
Si Si3 0.179671 0.260875 0.000000
Si Si4 0.318969 0.660814 0.500000
Si Si5 0.680798 0.208141 0.302521
Si Si6 0.171970 0.053110 0.500000
O O1 0.785043 0.500000 0.797363
O O2 0.738437 0.577509 0.726826
O O3 0.758768 0.570362 0.908679
O O4 0.000000 0.562168 0.807638
O O5 0.238136 0.865183 0.091474
O O6 0.252504 0.837639 0.264779
O O7 0.000000 0.870846 0.203388
O O8 0.251382 0.210858 0.000000
O O9 0.231674 0.288221 0.909746
O O10 0.000000 0.254435 0.000000
O O11 0.500000 0.663195 0.500000
O O12 0.500000 0.208745 0.290629
O O13 0.750000 0.250000 0.250000
O O14 0.000000 0.071963 0.500000
O O15 0.172747 0.000000 0.500000
#
# Coordination Sequence:
#
# PCOD8291862 Si02
#       6
#    16  16   8   8  16   8
#     4  10  21  38  59  85 119 155 190 234 291 348
#     4  11  22  38  60  84 113 149 195 244 289 346
#     4   9  18  35  57  79 112 152 188 226 281 342
#     4   9  18  36  58  80 108 150 194 235 289 344
#     4  11  21  36  57  82 112 148 188 233 286 344
#     4   9  17  32  57  86 113 146 188 230 276 335
#
# _framework density 19.034414999999999
#
# number of rings (size 3 to 8) (size 9 to 14) (size 15 to 20)
#    0.000    1.889    2.222    2.333    0.000    3.556 
#    0.000    9.444    0.000    3.333    0.000    0.000 
#    0.000    0.000    0.000    0.000    0.000    0.000 
#
# Total GULP energy -446454.268902 kJ/mol
# GULP energy per Si atom -12401.507470 kJ/mol
# Density = 1.899109 g / cm^3
# Si number density = 19.034415 Si / 1000 Ang^3
#
#
#
# Elastic Constant Matrix: (Units=GPa)
#
#
# Indices 1 2 3 4 5 6 
#
# 1 85.0633 38.0062 54.6301 -0.0001 0.0000 0.0000
# 2 38.0062 84.2466 70.9945 -0.0003 0.0000 0.0000
# 3 54.6301 70.9945 184.6955 -0.0002 -0.0001 0.0000
# 4 -0.0001 -0.0003 -0.0002 28.7292 -0.0001 0.0000
# 5 0.0000 0.0000 -0.0001 -0.0001 28.0383 -0.0001
# 6 0.0000 0.0000 0.0000 0.0000 -0.0001 33.8030
#
#
#
# Elastic Compliance Matrix: (Units=1/GPa)
#
#
# Indices 1 2 3 4 5 6 
#
# 1 0.015668 -0.004678 -0.002836 0.000000 0.000000 0.000000
# 2 -0.004678 0.018954 -0.005902 0.000000 0.000000 0.000000
# 3 -0.002836 -0.005902 0.008522 0.000000 0.000000 0.000000
# 4 0.000000 0.000000 0.000000 0.034808 0.000000 0.000000
# 5 0.000000 0.000000 0.000000 0.000000 0.035666 0.000000
# 6 0.000000 0.000000 0.000000 0.000000 0.000000 0.029583
#
#
# Mechanical properties :
#
#
# Convention : Reuss Voigt Hill
#
# Bulk Modulus (GPa) = 61.30816 75.69633 68.50225
# Shear Modulus (GPa) = 28.49508 30.80574 29.65041
#
# Velocity S-wave (km/s) = 3.87334 4.02733 3.95109
# Velocity P-wave (km/s) = 7.23068 7.84094 7.54198
#
# Compressibility (1/GPa) = 0.01631104
#
# Stress axis : x y z
#
# Youngs Moduli (GPa) = 63.82629 52.75948 117.34663
#
# Poissons Ratio (x) = 0.24682 0.33279
# Poissons Ratio (y) = 0.29859 0.69257
# Poissons Ratio (z) = 0.18101 0.31138
#
# Static dielectric constant tensor:
#      x y z
#    x 3.418320 0.000000 0.000000 
#    y 0.000000 3.452870 0.000000 
#    z 0.000000 0.000000 3.961670 
# 
# 
# High freq. dielectric constant tensor:
#      x y z
#    x 1.734020 0.000000 0.000000 
#    y 0.000000 1.730190 0.000000 
#    z 0.000000 0.000000 1.749290 
# 
# From -- ./inp_files/6197.got.cif
#   From: 2010.06.25/outbox.cif.g09.slc.cpg/sg71_4_cif.got.tgz:6197.got - 2010.06.28 04:59:45.
