data_PCOD8291903
_publ_section_title
;
Structure prediction by ZEFSAII (Michael W. Deem and Ramdas Pophale) SiO2 
 PCOD8291903
Probable space group: I M M M
;
_chemical_formula_sum "Si O2"
_cell_formula_units_Z 104
_cell_length_a 19.470439
_cell_length_b 27.692047
_cell_length_c 9.379873
_cell_angle_alpha 90.000000
_cell_angle_beta 90.000000
_cell_angle_gamma 90.000000
_cell_volume 5057.405330
_symmetry_space_group_name_H-M "I M M M"
_symmetry_group_IT_number 71
_symmetry_cell_setting 'orthorhombic'
loop_
_space_group_symop_operation_xyz
x,y,z
-x,-y,z
x,-y,-z
-x,y,-z
-x,-y,-z
x,y,-z
-x,y,z
x,-y,z
1/2+x,1/2+y,1/2+z
1/2-x,1/2-y,1/2+z
1/2+x,1/2-y,1/2-z
1/2-x,1/2+y,1/2-z
1/2-x,1/2-y,1/2-z
1/2+x,1/2+y,1/2-z
1/2-x,1/2+y,1/2+z
1/2+x,1/2-y,1/2+z
loop_
_atom_site_type_symbol
_atom_site_label
_atom_site_fract_x
_atom_site_fract_y
_atom_site_fract_z
Si Si1 0.419109 0.885854 0.775853
Si Si2 0.801106 0.554787 0.346189
Si Si3 0.924944 0.056371 0.843967
Si Si4 0.814278 0.897405 0.669177
Si Si5 0.844685 0.711478 0.336688
Si Si6 0.316374 0.696712 0.336602
Si Si7 0.420197 0.053982 0.500000
O O1 0.500000 0.888186 0.813615
O O2 0.372866 0.917582 0.882277
O O3 0.394391 0.830345 0.776548
O O4 0.398937 0.912617 0.630449
O O5 0.762140 0.554077 0.500000
O O6 0.814288 0.500000 0.293249
O O7 0.758372 0.584046 0.228820
O O8 0.872850 0.065371 0.714558
O O9 0.000000 0.078674 0.807607
O O10 0.932282 0.000000 0.857420
O O11 0.900128 0.076524 0.000000
O O12 0.808448 0.891675 0.500000
O O13 0.839557 0.848041 0.741416
O O14 0.865276 0.723842 0.500000
O O15 0.765696 0.696469 0.329728
O O16 0.853570 0.757135 0.233241
O O17 0.341446 0.692654 0.500000
O O18 0.500000 0.044516 0.500000
O O19 0.385101 0.000000 0.500000
#
# Coordination Sequence:
#
# PCOD8291903 Si02
#       7
#    16  16  16  16  16  16   8
#     4  11  23  39  63  90 125 169 213 265 326 384
#     4  11  24  40  59  87 126 170 219 270 315 372
#     4   9  19  38  64  91 122 162 204 247 304 376
#     4  12  24  38  61  93 128 165 208 258 314 374
#     4  10  21  38  61  90 119 151 201 259 314 373
#     4  10  21  39  64  87 117 156 200 253 310 375
#     4   9  20  38  58  86 126 170 215 263 312 370
#
# _framework density 20.563904999999998
#
# number of rings (size 3 to 8) (size 9 to 14) (size 15 to 20)
#    0.000    1.615    1.538    3.692    2.154    5.538 
#    0.000    2.308    0.000    2.769    0.000    0.000 
#    0.000    0.000    0.000    0.000    0.000    0.000 
#
# Total GULP energy -644313.322831 kJ/mol
# GULP energy per Si atom -12390.640824 kJ/mol
# Density = 2.051710 g / cm^3
# Si number density = 20.563905 Si / 1000 Ang^3
#
#
#
# Elastic Constant Matrix: (Units=GPa)
#
#
# Indices 1 2 3 4 5 6 
#
# 1 92.6396 44.9775 38.4157 0.0000 0.0000 0.0000
# 2 44.9775 128.5459 63.8547 0.0000 0.0000 0.0000
# 3 38.4157 63.8547 163.0092 0.0000 0.0000 0.0000
# 4 0.0000 0.0000 0.0000 39.0063 0.0000 0.0000
# 5 0.0000 0.0000 0.0000 0.0000 18.9792 0.0000
# 6 0.0000 0.0000 0.0000 0.0000 0.0000 33.9704
#
#
#
# Elastic Compliance Matrix: (Units=1/GPa)
#
#
# Indices 1 2 3 4 5 6 
#
# 1 0.013345 -0.003858 -0.001634 0.000000 0.000000 0.000000
# 2 -0.003858 0.010774 -0.003311 0.000000 0.000000 0.000000
# 3 -0.001634 -0.003311 0.007817 0.000000 0.000000 0.000000
# 4 0.000000 0.000000 0.000000 0.025637 0.000000 0.000000
# 5 0.000000 0.000000 0.000000 0.000000 0.052689 0.000000
# 6 0.000000 0.000000 0.000000 0.000000 0.000000 0.029437
#
#
# Mechanical properties :
#
#
# Convention : Reuss Voigt Hill
#
# Bulk Modulus (GPa) = 69.78326 75.41006 72.59666
# Shear Modulus (GPa) = 30.84863 34.18764 32.51813
#
# Velocity S-wave (km/s) = 3.87736 4.08181 3.98090
# Velocity P-wave (km/s) = 7.35212 7.67890 7.51729
#
# Compressibility (1/GPa) = 0.01433008
#
# Stress axis : x y z
#
# Youngs Moduli (GPa) = 74.93440 92.81592 127.93011
#
# Poissons Ratio (x) = 0.35806 0.20901
# Poissons Ratio (y) = 0.28908 0.42362
# Poissons Ratio (z) = 0.12243 0.30734
#
# Static dielectric constant tensor:
#      x y z
#    x 3.596310 0.000000 0.000000 
#    y 0.000000 3.752650 0.000000 
#    z 0.000000 0.000000 5.001180 
# 
# 
# High freq. dielectric constant tensor:
#      x y z
#    x 1.785240 0.000000 0.000000 
#    y 0.000000 1.806300 0.000000 
#    z 0.000000 0.000000 1.812000 
# 
# From -- ./inp_files/11092.got.cif
#   From: 2010.06.25/outbox.cif.g09.slc.cpg/sg71_6_cif.got.tgz:11092.got - 2010.06.28 04:59:45.
