data_PCOD8291939
_publ_section_title
;
Structure prediction by ZEFSAII (Michael W. Deem and Ramdas Pophale) SiO2 
 PCOD8291939
Probable space group: I M M M
;
_chemical_formula_sum "Si O2"
_cell_formula_units_Z 72
_cell_length_a 7.814548
_cell_length_b 19.135785
_cell_length_c 23.294801
_cell_angle_alpha 90.000000
_cell_angle_beta 90.000000
_cell_angle_gamma 90.000000
_cell_volume 3483.446547
_symmetry_space_group_name_H-M "I M M M"
_symmetry_group_IT_number 71
_symmetry_cell_setting 'orthorhombic'
loop_
_space_group_symop_operation_xyz
x,y,z
-x,-y,z
x,-y,-z
-x,y,-z
-x,-y,-z
x,y,-z
-x,y,z
x,-y,z
1/2+x,1/2+y,1/2+z
1/2-x,1/2-y,1/2+z
1/2+x,1/2-y,1/2-z
1/2-x,1/2+y,1/2-z
1/2-x,1/2-y,1/2-z
1/2+x,1/2+y,1/2-z
1/2-x,1/2+y,1/2+z
1/2+x,1/2-y,1/2+z
loop_
_atom_site_type_symbol
_atom_site_label
_atom_site_fract_x
_atom_site_fract_y
_atom_site_fract_z
Si Si1 0.798418 0.577424 0.237561
Si Si2 0.297247 0.842646 0.373390
Si Si3 0.500000 0.579703 0.933874
Si Si4 0.304443 0.706461 0.563305
Si Si5 0.700288 0.920338 0.135413
O O1 0.729342 0.500000 0.218768
O O2 0.748082 0.638404 0.192630
O O3 0.725976 0.596612 0.300772
O O4 0.000000 0.571548 0.243329
O O5 0.500000 0.857004 0.384336
O O6 0.239321 0.763735 0.390122
O O7 0.179934 0.891509 0.411569
O O8 0.500000 0.500000 0.917133
O O9 0.500000 0.595827 0.000000
O O10 0.213621 0.712067 0.500000
O O11 0.500000 0.722889 0.552680
O O12 0.285590 0.629330 0.588651
O O13 0.500000 0.906411 0.133240
O O14 0.744596 0.000000 0.118826
#
# Coordination Sequence:
#
# PCOD8291939 Si02
#       5
#    16  16   8  16  16
#     4   8  15  32  58  84 113 148 186 233 290 349
#     4  10  21  39  61  85 117 159 194 238 293 350
#     4  11  24  38  56  88 121 153 202 248 281 336
#     4  10  22  38  55  79 113 154 198 239 287 347
#     4   9  19  36  58  85 113 144 189 243 296 353
#
# _framework density 20.669184000000001
#
# number of rings (size 3 to 8) (size 9 to 14) (size 15 to 20)
#    0.000    2.556    0.000    2.667    1.556    4.889 
#    2.000    3.333    0.000    0.000    0.000    0.000 
#    0.000    0.000    0.000    0.000    0.000    0.000 
#
# Total GULP energy -445990.111629 kJ/mol
# GULP energy per Si atom -12388.614212 kJ/mol
# Density = 2.062214 g / cm^3
# Si number density = 20.669184 Si / 1000 Ang^3
#
#
#
# Elastic Constant Matrix: (Units=GPa)
#
#
# Indices 1 2 3 4 5 6 
#
# 1 42.6787 17.7229 8.8374 0.0000 0.0000 0.0000
# 2 17.7229 145.4999 76.2977 0.0000 0.0000 0.0000
# 3 8.8374 76.2977 138.5287 0.0000 0.0000 0.0000
# 4 0.0000 0.0000 0.0000 60.5095 0.0000 0.0000
# 5 0.0000 0.0000 0.0000 0.0000 22.4327 0.0000
# 6 0.0000 0.0000 0.0000 0.0000 0.0000 25.4941
#
#
#
# Elastic Compliance Matrix: (Units=1/GPa)
#
#
# Indices 1 2 3 4 5 6 
#
# 1 0.024681 -0.003066 0.000114 0.000000 0.000000 0.000000
# 2 -0.003066 0.010045 -0.005337 0.000000 0.000000 0.000000
# 3 0.000114 -0.005337 0.010151 0.000000 0.000000 0.000000
# 4 0.000000 0.000000 0.000000 0.016526 0.000000 0.000000
# 5 0.000000 0.000000 0.000000 0.000000 0.044578 0.000000
# 6 0.000000 0.000000 0.000000 0.000000 0.000000 0.039225
#
#
# Mechanical properties :
#
#
# Convention : Reuss Voigt Hill
#
# Bulk Modulus (GPa) = 35.33726 59.15813 47.24769
# Shear Modulus (GPa) = 29.20295 36.61053 32.90674
#
# Velocity S-wave (km/s) = 3.76290 4.21320 3.99440
# Velocity P-wave (km/s) = 6.00108 7.23544 6.64698
#
# Compressibility (1/GPa) = 0.02829874
#
# Stress axis : x y z
#
# Youngs Moduli (GPa) = 40.51780 99.55313 98.51430
#
# Poissons Ratio (x) = 0.30525 -0.01126
# Poissons Ratio (y) = 0.12423 0.52575
# Poissons Ratio (z) = -0.00463 0.53130
#
# Static dielectric constant tensor:
#      x y z
#    x 3.517280 0.000000 0.000000 
#    y 0.000000 3.786320 0.000000 
#    z 0.000000 0.000000 4.135310 
# 
# 
# High freq. dielectric constant tensor:
#      x y z
#    x 1.788560 0.000000 0.000000 
#    y 0.000000 1.805110 0.000000 
#    z 0.000000 0.000000 1.813650 
# 
# From -- ./inp_files/57293.got.cif
#   From: 2010.06.25/outbox.cif.g09.slc.cpg/sg71_29_cif.got.tgz:57293.got - 2010.06.28 04:59:45.
