data_PCOD8291849
_publ_section_title
;
Structure prediction by ZEFSAII (Michael W. Deem and Ramdas Pophale) SiO2 
 PCOD8291849
Probable space group: I M M M
;
_chemical_formula_sum "Si O2"
_cell_formula_units_Z 88
_cell_length_a 31.086980
_cell_length_b 8.977881
_cell_length_c 15.352689
_cell_angle_alpha 90.000000
_cell_angle_beta 90.000000
_cell_angle_gamma 90.000000
_cell_volume 4284.861916
_symmetry_space_group_name_H-M "I M M M"
_symmetry_group_IT_number 71
_symmetry_cell_setting 'orthorhombic'
loop_
_space_group_symop_operation_xyz
x,y,z
-x,-y,z
x,-y,-z
-x,y,-z
-x,-y,-z
x,y,-z
-x,y,z
x,-y,z
1/2+x,1/2+y,1/2+z
1/2-x,1/2-y,1/2+z
1/2+x,1/2-y,1/2-z
1/2-x,1/2+y,1/2-z
1/2-x,1/2-y,1/2-z
1/2+x,1/2+y,1/2-z
1/2-x,1/2+y,1/2+z
1/2+x,1/2-y,1/2+z
loop_
_atom_site_type_symbol
_atom_site_label
_atom_site_fract_x
_atom_site_fract_y
_atom_site_fract_z
Si Si1 0.666693 0.673980 0.500000
Si Si2 0.451515 0.829404 0.310255
Si Si3 0.193801 0.668467 0.668370
Si Si4 0.397440 0.323502 0.166606
Si Si5 0.223656 0.332533 0.865819
Si Si6 0.048452 0.176617 0.500000
Si Si7 0.420702 0.169678 0.500000
O O1 0.674196 0.500000 0.500000
O O2 0.686942 0.742029 0.413845
O O3 0.616806 0.710665 0.500000
O O4 0.500000 0.791412 0.281104
O O5 0.418888 0.725411 0.257422
O O6 0.448774 0.801337 0.413791
O O7 0.439785 0.000000 0.288353
O O8 0.189575 0.500000 0.633122
O O9 0.148966 0.750939 0.655873
O O10 0.209420 0.668487 0.766813
O O11 0.230397 0.755834 0.614843
O O12 0.391832 0.500000 0.167227
O O13 0.426826 0.267795 0.086288
O O14 0.226470 0.500000 0.901986
O O15 0.000000 0.243047 0.500000
O O16 0.046365 0.000000 0.500000
O O17 0.402619 0.000000 0.500000
#
# Coordination Sequence:
#
# PCOD8291849 Si02
#       7
#     8  16  16  16  16   8   8
#     4  12  24  36  54  83 116 149 189 237 283 331
#     4  10  21  38  60  86 116 151 192 239 292 349
#     4  10  21  38  59  84 114 147 185 233 286 340
#     4  11  22  37  60  86 114 151 194 239 288 346
#     4  10  21  38  59  81 111 151 190 229 279 340
#     4   9  20  39  59  80 109 147 190 234 283 339
#     4  10  21  38  59  83 116 157 195 232 284 353
#
# _framework density 20.537419
#
# number of rings (size 3 to 8) (size 9 to 14) (size 15 to 20)
#    0.000    1.727    0.000    4.364    0.000   10.182 
#    0.000    4.545    0.000    4.909    0.000    0.000 
#    0.000    0.000    0.000    0.000    0.000    0.000 
#
# Total GULP energy -545704.904940 kJ/mol
# GULP energy per Si atom -12402.384203 kJ/mol
# Density = 2.049068 g / cm^3
# Si number density = 20.537419 Si / 1000 Ang^3
#
#
#
# Elastic Constant Matrix: (Units=GPa)
#
#
# Indices 1 2 3 4 5 6 
#
# 1 134.7689 51.1225 17.9086 0.0000 0.0000 0.0000
# 2 51.1225 131.2429 22.7913 0.0000 0.0000 0.0000
# 3 17.9086 22.7913 65.2992 0.0000 0.0000 0.0000
# 4 0.0000 0.0000 0.0000 25.6521 0.0000 0.0000
# 5 0.0000 0.0000 0.0000 0.0000 22.0971 0.0000
# 6 0.0000 0.0000 0.0000 0.0000 0.0000 34.1685
#
#
#
# Elastic Compliance Matrix: (Units=1/GPa)
#
#
# Indices 1 2 3 4 5 6 
#
# 1 0.008809 -0.003206 -0.001297 0.000000 0.000000 0.000000
# 2 -0.003206 0.009278 -0.002359 0.000000 0.000000 0.000000
# 3 -0.001297 -0.002359 0.016493 0.000000 0.000000 0.000000
# 4 0.000000 0.000000 0.000000 0.038983 0.000000 0.000000
# 5 0.000000 0.000000 0.000000 0.000000 0.045255 0.000000
# 6 0.000000 0.000000 0.000000 0.000000 0.000000 0.029267
#
#
# Mechanical properties :
#
#
# Convention : Reuss Voigt Hill
#
# Bulk Modulus (GPa) = 47.94770 57.21730 52.58250
# Shear Modulus (GPa) = 29.62786 32.34944 30.98865
#
# Velocity S-wave (km/s) = 3.80232 3.97312 3.88865
# Velocity P-wave (km/s) = 6.53253 6.99772 6.76912
#
# Compressibility (1/GPa) = 0.02085606
#
# Stress axis : x y z
#
# Youngs Moduli (GPa) = 113.52581 107.78274 60.63129
#
# Poissons Ratio (x) = 0.34555 0.07863
# Poissons Ratio (y) = 0.36396 0.14303
# Poissons Ratio (z) = 0.14722 0.25426
#
# Static dielectric constant tensor:
#      x y z
#    x 3.826810 0.000000 0.000000 
#    y 0.000000 3.812980 0.000000 
#    z 0.000000 0.000000 3.951560 
# 
# 
# High freq. dielectric constant tensor:
#      x y z
#    x 1.815330 0.000000 0.000000 
#    y 0.000000 1.799690 0.000000 
#    z 0.000000 0.000000 1.802990 
# 
# From -- ./inp_files/49293.got.cif
#   From: 2010.06.25/outbox.cif.g09.slc.cpg/sg71_25_cif.got.tgz:49293.got - 2010.06.28 04:59:45.
