data_PCOD8291950
_publ_section_title
;
Structure prediction by ZEFSAII (Michael W. Deem and Ramdas Pophale) SiO2 
 PCOD8291950
Probable space group: I M M M
;
_chemical_formula_sum "Si O2"
_cell_formula_units_Z 72
_cell_length_a 25.394603
_cell_length_b 16.450304
_cell_length_c 8.531472
_cell_angle_alpha 90.000000
_cell_angle_beta 90.000000
_cell_angle_gamma 90.000000
_cell_volume 3564.013379
_symmetry_space_group_name_H-M "I M M M"
_symmetry_group_IT_number 71
_symmetry_cell_setting 'orthorhombic'
loop_
_space_group_symop_operation_xyz
x,y,z
-x,-y,z
x,-y,-z
-x,y,-z
-x,-y,-z
x,y,-z
-x,y,z
x,-y,z
1/2+x,1/2+y,1/2+z
1/2-x,1/2-y,1/2+z
1/2+x,1/2-y,1/2-z
1/2-x,1/2+y,1/2-z
1/2-x,1/2-y,1/2-z
1/2+x,1/2+y,1/2-z
1/2-x,1/2+y,1/2+z
1/2+x,1/2-y,1/2+z
loop_
_atom_site_type_symbol
_atom_site_label
_atom_site_fract_x
_atom_site_fract_y
_atom_site_fract_z
Si Si1 0.441963 0.858284 0.686671
Si Si2 0.871572 0.500000 0.813417
Si Si3 0.500000 0.404758 0.173456
Si Si4 0.746833 0.000000 0.686538
Si Si5 0.715092 0.673592 0.686515
Si Si6 0.905060 0.812980 0.814572
O O1 0.439058 0.856892 0.500000
O O2 0.500000 0.883823 0.742947
O O3 0.427958 0.770537 0.753938
O O4 0.400253 0.921246 0.756738
O O5 0.812683 0.500000 0.754660
O O6 0.874931 0.500000 0.000000
O O7 0.500000 0.500000 0.166034
O O8 0.445385 0.381696 0.258364
O O9 0.500000 0.366490 0.000000
O O10 0.769365 0.915957 0.753813
O O11 0.753366 0.000000 0.500000
O O12 0.719194 0.676800 0.500000
O O13 0.750000 0.750000 0.750000
O O14 0.654847 0.680230 0.746462
O O15 0.904644 0.815147 0.000000
#
# Coordination Sequence:
#
# PCOD8291950 Si02
#       6
#    16   8   8   8  16  16
#     4   9  15  27  51  83 114 144 185 236 284 336
#     4   9  17  29  50  83 118 152 191 237 286 336
#     4  11  25  41  59  88 119 150 194 251 315 375
#     4  11  23  40  61  87 125 166 208 258 311 372
#     4  11  24  42  65  94 126 164 213 264 318 378
#     4  10  21  39  62  87 118 157 202 249 299 366
#
# _framework density 20.201944999999998
#
# number of rings (size 3 to 8) (size 9 to 14) (size 15 to 20)
#    0.000    1.889    1.111    3.000    1.556    7.556 
#    0.000    0.000    0.000    0.000    0.000    0.778 
#    0.000    0.000    0.000    0.000    0.000    0.000 
#
# Total GULP energy -446112.928182 kJ/mol
# GULP energy per Si atom -12392.025783 kJ/mol
# Density = 2.015596 g / cm^3
# Si number density = 20.201945 Si / 1000 Ang^3
#
#
#
# Elastic Constant Matrix: (Units=GPa)
#
#
# Indices 1 2 3 4 5 6 
#
# 1 179.9905 56.9456 34.5015 0.0000 0.0000 0.0000
# 2 56.9456 124.9255 26.1613 0.0000 0.0000 0.0000
# 3 34.5015 26.1613 43.3131 0.0000 0.0000 0.0000
# 4 0.0000 0.0000 0.0000 25.2054 0.0000 0.0000
# 5 0.0000 0.0000 0.0000 0.0000 26.3934 0.0000
# 6 0.0000 0.0000 0.0000 0.0000 0.0000 38.8239
#
#
#
# Elastic Compliance Matrix: (Units=1/GPa)
#
#
# Indices 1 2 3 4 5 6 
#
# 1 0.007114 -0.002354 -0.004245 0.000000 0.000000 0.000000
# 2 -0.002354 0.009943 -0.004130 0.000000 0.000000 0.000000
# 3 -0.004245 -0.004130 0.028964 0.000000 0.000000 0.000000
# 4 0.000000 0.000000 0.000000 0.039674 0.000000 0.000000
# 5 0.000000 0.000000 0.000000 0.000000 0.037888 0.000000
# 6 0.000000 0.000000 0.000000 0.000000 0.000000 0.025757
#
#
# Mechanical properties :
#
#
# Convention : Reuss Voigt Hill
#
# Bulk Modulus (GPa) = 40.71326 64.82732 52.77029
# Shear Modulus (GPa) = 27.93494 33.45923 30.69709
#
# Velocity S-wave (km/s) = 3.72262 4.07411 3.90232
# Velocity P-wave (km/s) = 6.21885 7.36820 6.81779
#
# Compressibility (1/GPa) = 0.02456202
#
# Stress axis : x y z
#
# Youngs Moduli (GPa) = 140.56110 100.57569 34.52560
#
# Poissons Ratio (x) = 0.23675 0.14657
# Poissons Ratio (y) = 0.33088 0.14260
# Poissons Ratio (z) = 0.59671 0.41542
#
# Static dielectric constant tensor:
#      x y z
#    x 4.066820 0.000000 0.000000 
#    y 0.000000 3.896560 0.000000 
#    z 0.000000 0.000000 3.378160 
# 
# 
# High freq. dielectric constant tensor:
#      x y z
#    x 1.810090 0.000000 0.000000 
#    y 0.000000 1.805990 0.000000 
#    z 0.000000 0.000000 1.754470 
# 
# From -- ./inp_files/14368.got.cif
#   From: 2010.06.25/outbox.cif.g09.slc.cpg/sg71_8_cif.got.tgz:14368.got - 2010.06.28 04:59:45.
