data_PCOD8291385
_publ_section_title
;
Structure prediction by ZEFSAII (Michael W. Deem and Ramdas Pophale) SiO2 
 PCOD8291385
Probable space group: I M M M
;
_chemical_formula_sum "Si O2"
_cell_formula_units_Z 84
_cell_length_a 16.803761
_cell_length_b 19.237786
_cell_length_c 14.102439
_cell_angle_alpha 90.000000
_cell_angle_beta 90.000000
_cell_angle_gamma 90.000000
_cell_volume 4558.855378
_symmetry_space_group_name_H-M "I M M M"
_symmetry_group_IT_number 71
_symmetry_cell_setting 'orthorhombic'
loop_
_space_group_symop_operation_xyz
x,y,z
-x,-y,z
x,-y,-z
-x,y,-z
-x,-y,-z
x,y,-z
-x,y,z
x,-y,z
1/2+x,1/2+y,1/2+z
1/2-x,1/2-y,1/2+z
1/2+x,1/2-y,1/2-z
1/2-x,1/2+y,1/2-z
1/2-x,1/2-y,1/2-z
1/2+x,1/2+y,1/2-z
1/2-x,1/2+y,1/2+z
1/2+x,1/2-y,1/2+z
loop_
_atom_site_type_symbol
_atom_site_label
_atom_site_fract_x
_atom_site_fract_y
_atom_site_fract_z
Si Si1 0.688612 0.500000 0.500000
Si Si2 0.190290 0.871936 0.676036
Si Si3 0.588110 0.581575 0.000000
Si Si4 0.910007 0.500000 0.807622
Si Si5 0.909787 0.782799 0.810722
Si Si6 0.864348 0.355581 0.108407
Si Si7 0.249969 0.500000 0.294799
Si Si8 0.406657 0.640377 0.500000
O O1 0.744151 0.500000 0.407762
O O2 0.632630 0.434069 0.500000
O O3 0.131698 0.896283 0.594828
O O4 0.149485 0.806625 0.727880
O O5 0.270737 0.848160 0.626008
O O6 0.206605 0.933038 0.751109
O O7 0.582700 0.500000 0.000000
O O8 0.500000 0.614828 0.000000
O O9 0.896620 0.567424 0.872385
O O10 0.844872 0.500000 0.724079
O O11 0.000000 0.500000 0.766223
O O12 0.907632 0.699405 0.822769
O O13 0.000000 0.805503 0.785921
O O14 0.879284 0.817304 0.907862
O O15 0.884171 0.337286 0.000000
O O16 0.500000 0.628692 0.500000
#
# Coordination Sequence:
#
# PCOD8291385 Si02
#       8
#     4  16   8   8  16  16   8   8
#     4  12  19  40  57  84 116 156 206 228 275 342
#     4  11  21  39  56  86 118 157 198 238 286 342
#     4  11  22  35  58  87 121 161 198 236 282 340
#     4  10  23  40  60  88 115 145 193 251 302 349
#     4  11  22  37  56  84 119 152 191 238 293 349
#     4  11  22  37  62  85 114 152 195 245 301 354
#     4  10  22  35  62  84 114 153 197 240 282 346
#     4  10  21  33  55  84 119 152 187 238 282 336
#
# _framework density 18.425678000000001
#
# number of rings (size 3 to 8) (size 9 to 14) (size 15 to 20)
#    0.000    1.238    4.762    2.143    0.000    1.524 
#    0.000    0.238    0.000    0.000    0.000    0.000 
#    0.000    0.000    0.000    0.000    0.000    0.000 
#
# Total GULP energy -520893.742056 kJ/mol
# GULP energy per Si atom -12402.231954 kJ/mol
# Density = 1.838374 g / cm^3
# Si number density = 18.425678 Si / 1000 Ang^3
#
#
#
# Elastic Constant Matrix: (Units=GPa)
#
#
# Indices 1 2 3 4 5 6 
#
# 1 100.8897 28.3738 44.8702 0.0000 0.0000 0.0000
# 2 28.3738 106.1303 31.0510 0.0000 0.0000 0.0000
# 3 44.8702 31.0510 109.5224 0.0000 0.0000 0.0000
# 4 0.0000 0.0000 0.0000 32.1428 0.0000 0.0000
# 5 0.0000 0.0000 0.0000 0.0000 -1.9370 0.0000
# 6 0.0000 0.0000 0.0000 0.0000 0.0000 22.5933
#
#
#
# Elastic Compliance Matrix: (Units=1/GPa)
#
#
# Indices 1 2 3 4 5 6 
#
# 1 0.012502 -0.002011 -0.004552 0.000000 0.000000 0.000000
# 2 -0.002011 0.010598 -0.002181 0.000000 0.000000 0.000000
# 3 -0.004552 -0.002181 0.011614 0.000000 0.000000 0.000000
# 4 0.000000 0.000000 0.000000 0.031111 0.000000 0.000000
# 5 0.000000 0.000000 0.000000 0.000000 -0.516259 0.000000
# 6 0.000000 0.000000 0.000000 0.000000 0.000000 0.044261
#
#
# Mechanical properties :
#
#
# Convention : Reuss Voigt Hill
#
# Bulk Modulus (GPa) = 58.04931 58.34805 58.19868
# Shear Modulus (GPa) = -13.05672 24.70965 5.82646
#
# Velocity S-wave (km/s) = -2.66487 3.66600 1.78017
# Velocity P-wave (km/s) = 4.70152 7.04662 5.98995
#
# Compressibility (1/GPa) = 0.01722673
#
# Stress axis : x y z
#
# Youngs Moduli (GPa) = 79.98949 94.35751 86.10519
#
# Poissons Ratio (x) = 0.18971 0.39193
# Poissons Ratio (y) = 0.16082 0.18779
# Poissons Ratio (z) = 0.36409 0.20579
#
# Static dielectric constant tensor:
#      x y z
#    x 3.505400 0.000000 0.000000 
#    y 0.000000 3.453220 0.000000 
#    z 0.000000 0.000000 3.356940 
# 
# 
# High freq. dielectric constant tensor:
#      x y z
#    x 1.721630 0.000000 0.000000 
#    y 0.000000 1.720190 0.000000 
#    z 0.000000 0.000000 1.706760 
# 
# From -- ./inp_files/34477.got.cif
#   From: 2010.06.25/outbox.cif.g09.slc.cpg/sg71_18_cif.got.tgz:34477.got - 2010.06.28 04:59:45.
