data_PCOD8291362
_publ_section_title
;
Structure prediction by ZEFSAII (Michael W. Deem and Ramdas Pophale) SiO2 
 PCOD8291362
Probable space group: I M M M
;
_chemical_formula_sum "Si O2"
_cell_formula_units_Z 104
_cell_length_a 27.069923
_cell_length_b 22.038914
_cell_length_c 8.912254
_cell_angle_alpha 90.000000
_cell_angle_beta 90.000000
_cell_angle_gamma 90.000000
_cell_volume 5316.976809
_symmetry_space_group_name_H-M "I M M M"
_symmetry_group_IT_number 71
_symmetry_cell_setting 'orthorhombic'
loop_
_space_group_symop_operation_xyz
x,y,z
-x,-y,z
x,-y,-z
-x,y,-z
-x,-y,-z
x,y,-z
-x,y,z
x,-y,z
1/2+x,1/2+y,1/2+z
1/2-x,1/2-y,1/2+z
1/2+x,1/2-y,1/2-z
1/2-x,1/2+y,1/2-z
1/2-x,1/2-y,1/2-z
1/2+x,1/2+y,1/2-z
1/2-x,1/2+y,1/2+z
1/2+x,1/2-y,1/2+z
loop_
_atom_site_type_symbol
_atom_site_label
_atom_site_fract_x
_atom_site_fract_y
_atom_site_fract_z
Si Si1 0.000000 0.928670 0.821571
Si Si2 0.716356 0.500000 0.665763
Si Si3 0.578545 0.340902 0.177759
Si Si4 0.680085 0.000000 0.678406
Si Si5 0.056140 0.294324 0.671857
Si Si6 0.176871 0.125137 0.828635
Si Si7 0.238008 0.312375 0.826457
Si Si8 0.636235 0.125868 0.672241
O O1 0.048133 0.894383 0.758142
O O2 0.000000 0.000000 0.773163
O O3 0.000000 0.923289 0.000000
O O4 0.740610 0.500000 0.500000
O O5 0.762208 0.500000 0.778966
O O6 0.676474 0.446789 0.683704
O O7 0.561642 0.274329 0.235018
O O8 0.635510 0.346176 0.222965
O O9 0.571110 0.347694 0.000000
O O10 0.651920 0.060098 0.740072
O O11 0.680211 0.000000 0.500000
O O12 0.072553 0.292981 0.500000
O O13 0.088725 0.345563 0.750160
O O14 0.000000 0.315393 0.693685
O O15 0.230863 0.138967 0.764423
O O16 0.170462 0.148681 0.000000
O O17 0.250000 0.250000 0.750000
O O18 0.180564 0.326733 0.806820
O O19 0.253588 0.311943 0.000000
O O20 0.622423 0.116885 0.500000
#
# Coordination Sequence:
#
# PCOD8291362 Si02
#       8
#     8   8  16   8  16  16  16  16
#     4  11  25  43  63  89 123 162 205 258 317 371
#     4  10  22  38  58  84 120 162 202 245 296 360
#     4  11  23  42  65  90 121 162 210 257 310 367
#     4  10  20  40  63  87 123 160 204 256 303 370
#     4  10  22  42  64  88 120 156 201 257 311 366
#     4  11  23  38  57  87 123 157 199 246 295 358
#     4  11  22  37  57  85 120 158 199 246 303 363
#     4  10  22  38  61  90 119 157 203 252 310 372
#
# _framework density 19.559987
#
# number of rings (size 3 to 8) (size 9 to 14) (size 15 to 20)
#    0.000    1.462    2.308    2.538    1.077    7.077 
#    0.000    0.385    0.000    2.308    0.000    0.000 
#    0.000    0.000    0.000    0.000    0.000    0.000 
#
# Total GULP energy -644725.793145 kJ/mol
# GULP energy per Si atom -12398.572945 kJ/mol
# Density = 1.951547 g / cm^3
# Si number density = 19.559987 Si / 1000 Ang^3
#
#
#
# Elastic Constant Matrix: (Units=GPa)
#
#
# Indices 1 2 3 4 5 6 
#
# 1 88.0772 32.5699 32.3178 0.0000 0.0000 0.0000
# 2 32.5699 111.5847 38.9572 0.0000 0.0000 0.0000
# 3 32.3178 38.9572 66.5027 0.0000 0.0000 0.0000
# 4 0.0000 0.0000 0.0000 30.1935 0.0000 0.0000
# 5 0.0000 0.0000 0.0000 0.0000 38.7362 0.0000
# 6 0.0000 0.0000 0.0000 0.0000 0.0000 33.9580
#
#
#
# Elastic Compliance Matrix: (Units=1/GPa)
#
#
# Indices 1 2 3 4 5 6 
#
# 1 0.014230 -0.002186 -0.005634 0.000000 0.000000 0.000000
# 2 -0.002186 0.011602 -0.005734 0.000000 0.000000 0.000000
# 3 -0.005634 -0.005734 0.021134 0.000000 0.000000 0.000000
# 4 0.000000 0.000000 0.000000 0.033120 0.000000 0.000000
# 5 0.000000 0.000000 0.000000 0.000000 0.025816 0.000000
# 6 0.000000 0.000000 0.000000 0.000000 0.000000 0.029448
#
#
# Mechanical properties :
#
#
# Convention : Reuss Voigt Hill
#
# Bulk Modulus (GPa) = 50.36172 52.65049 51.50611
# Shear Modulus (GPa) = 29.57244 31.39884 30.48564
#
# Velocity S-wave (km/s) = 3.89251 4.01091 3.95216
# Velocity P-wave (km/s) = 6.78273 6.95886 6.87136
#
# Compressibility (1/GPa) = 0.01985635
#
# Stress axis : x y z
#
# Youngs Moduli (GPa) = 70.27645 86.19364 47.31736
#
# Poissons Ratio (x) = 0.18845 0.26660
# Poissons Ratio (y) = 0.15365 0.27131
# Poissons Ratio (z) = 0.39596 0.49422
#
# Static dielectric constant tensor:
#      x y z
#    x 3.509430 0.000000 0.000000 
#    y 0.000000 3.520920 0.000000 
#    z 0.000000 0.000000 3.412080 
# 
# 
# High freq. dielectric constant tensor:
#      x y z
#    x 1.759780 0.000000 0.000000 
#    y 0.000000 1.773400 0.000000 
#    z 0.000000 0.000000 1.761170 
# 
# From -- ./inp_files/15082.got.cif
#   From: 2010.06.25/outbox.cif.g09.slc.cpg/sg71_8_cif.got.tgz:15082.got - 2010.06.28 04:59:45.
