data_PCOD8291813
_publ_section_title
;
Structure prediction by ZEFSAII (Michael W. Deem and Ramdas Pophale) SiO2 
 PCOD8291813
Probable space group: I M M M
;
_chemical_formula_sum "Si O2"
_cell_formula_units_Z 80
_cell_length_a 23.279712
_cell_length_b 18.501878
_cell_length_c 9.914069
_cell_angle_alpha 90.000000
_cell_angle_beta 90.000000
_cell_angle_gamma 90.000000
_cell_volume 4270.171851
_symmetry_space_group_name_H-M "I M M M"
_symmetry_group_IT_number 71
_symmetry_cell_setting 'orthorhombic'
loop_
_space_group_symop_operation_xyz
x,y,z
-x,-y,z
x,-y,-z
-x,y,-z
-x,-y,-z
x,y,-z
-x,y,z
x,-y,z
1/2+x,1/2+y,1/2+z
1/2-x,1/2-y,1/2+z
1/2+x,1/2-y,1/2-z
1/2-x,1/2+y,1/2-z
1/2-x,1/2-y,1/2-z
1/2+x,1/2+y,1/2-z
1/2-x,1/2+y,1/2+z
1/2+x,1/2-y,1/2+z
loop_
_atom_site_type_symbol
_atom_site_label
_atom_site_fract_x
_atom_site_fract_y
_atom_site_fract_z
Si Si1 0.373031 0.348243 0.248581
Si Si2 0.067784 0.419389 0.351399
Si Si3 0.628656 0.814822 0.345512
Si Si4 0.067687 0.917815 0.500000
Si Si5 0.244419 0.182316 0.654225
Si Si6 0.065462 0.085007 0.000000
O O1 0.374895 0.262592 0.272703
O O2 0.306424 0.369135 0.212449
O O3 0.396512 0.391342 0.374769
O O4 0.413473 0.371614 0.127578
O O5 0.090026 0.394047 0.500000
O O6 0.091017 0.500000 0.321938
O O7 0.086883 0.367279 0.232890
O O8 0.000000 0.419752 0.352110
O O9 0.607945 0.805678 0.500000
O O10 0.691965 0.852250 0.342097
O O11 0.000000 0.923228 0.500000
O O12 0.093234 0.000000 0.500000
O O13 0.229069 0.205029 0.500000
O O14 0.250000 0.250000 0.750000
O O15 0.000000 0.117828 0.000000
O O16 0.059556 0.000000 0.000000
#
# Coordination Sequence:
#
# PCOD8291813 Si02
#       6
#    16  16  16   8  16   8
#     4  11  21  40  61  87 117 153 200 247 291 353
#     4   9  20  39  59  81 115 154 187 227 284 343
#     4  10  21  37  59  90 117 149 191 238 286 346
#     4  11  24  40  59  84 117 159 203 250 305 354
#     4   9  19  35  59  86 117 150 187 235 295 347
#     4  11  24  42  61  82 119 167 205 248 307 358
#
# _framework density 18.734608999999999
#
# number of rings (size 3 to 8) (size 9 to 14) (size 15 to 20)
#    0.000    2.000    2.000    1.800    2.800    4.800 
#    0.000    3.000    0.000    0.000    0.000    0.000 
#    0.000    0.000    0.000    0.000    0.000    0.000 
#
# Total GULP energy -495635.902599 kJ/mol
# GULP energy per Si atom -12390.897565 kJ/mol
# Density = 1.869197 g / cm^3
# Si number density = 18.734609 Si / 1000 Ang^3
#
#
#
# Elastic Constant Matrix: (Units=GPa)
#
#
# Indices 1 2 3 4 5 6 
#
# 1 80.6241 40.2464 51.4618 0.0000 0.0000 0.0000
# 2 40.2464 80.4926 51.3025 0.0000 0.0000 0.0000
# 3 51.4618 51.3025 151.5448 0.0000 0.0000 0.0000
# 4 0.0000 0.0000 0.0000 26.7376 0.0000 0.0000
# 5 0.0000 0.0000 0.0000 0.0000 35.6861 0.0000
# 6 0.0000 0.0000 0.0000 0.0000 0.0000 3.8822
#
#
#
# Elastic Compliance Matrix: (Units=1/GPa)
#
#
# Indices 1 2 3 4 5 6 
#
# 1 0.018216 -0.006587 -0.003956 0.000000 0.000000 0.000000
# 2 -0.006587 0.018223 -0.003932 0.000000 0.000000 0.000000
# 3 -0.003956 -0.003932 0.009273 0.000000 0.000000 0.000000
# 4 0.000000 0.000000 0.000000 0.037401 0.000000 0.000000
# 5 0.000000 0.000000 0.000000 0.000000 0.028022 0.000000
# 6 0.000000 0.000000 0.000000 0.000000 0.000000 0.257585
#
#
# Mechanical properties :
#
#
# Convention : Reuss Voigt Hill
#
# Bulk Modulus (GPa) = 59.65707 66.52029 63.08868
# Shear Modulus (GPa) = 12.39900 24.57125 18.48512
#
# Velocity S-wave (km/s) = 2.57538 3.62545 3.14456
# Velocity P-wave (km/s) = 6.38403 7.28759 6.85072
#
# Compressibility (1/GPa) = 0.01676247
#
# Stress axis : x y z
#
# Youngs Moduli (GPa) = 54.89546 54.87505 107.83572
#
# Poissons Ratio (x) = 0.36145 0.42661
# Poissons Ratio (y) = 0.36158 0.42405
# Poissons Ratio (z) = 0.21717 0.21579
#
# Static dielectric constant tensor:
#      x y z
#    x 3.941620 0.000000 0.000000 
#    y 0.000000 3.295340 0.000000 
#    z 0.000000 0.000000 3.899860 
# 
# 
# High freq. dielectric constant tensor:
#      x y z
#    x 1.735330 0.000000 0.000000 
#    y 0.000000 1.700630 0.000000 
#    z 0.000000 0.000000 1.749280 
# 
# From -- ./inp_files/12421.got.cif
#   From: 2010.06.25/outbox.cif.g09.slc.cpg/sg71_7_cif.got.tgz:12421.got - 2010.06.28 04:59:45.
