data_PCOD8291472
_publ_section_title
;
Structure prediction by ZEFSAII (Michael W. Deem and Ramdas Pophale) SiO2 
 PCOD8291472
Probable space group: I M M M
;
_chemical_formula_sum "Si O2"
_cell_formula_units_Z 104
_cell_length_a 31.194328
_cell_length_b 9.024890
_cell_length_c 19.325047
_cell_angle_alpha 90.000000
_cell_angle_beta 90.000000
_cell_angle_gamma 90.000000
_cell_volume 5440.491177
_symmetry_space_group_name_H-M "I M M M"
_symmetry_group_IT_number 71
_symmetry_cell_setting 'orthorhombic'
loop_
_space_group_symop_operation_xyz
x,y,z
-x,-y,z
x,-y,-z
-x,y,-z
-x,-y,-z
x,y,-z
-x,y,z
x,-y,z
1/2+x,1/2+y,1/2+z
1/2-x,1/2-y,1/2+z
1/2+x,1/2-y,1/2-z
1/2-x,1/2+y,1/2-z
1/2-x,1/2-y,1/2-z
1/2+x,1/2+y,1/2-z
1/2-x,1/2+y,1/2+z
1/2+x,1/2-y,1/2+z
loop_
_atom_site_type_symbol
_atom_site_label
_atom_site_fract_x
_atom_site_fract_y
_atom_site_fract_z
Si Si1 0.674208 0.325117 0.075923
Si Si2 0.548068 0.828729 0.782111
Si Si3 0.413778 0.168643 0.923841
Si Si4 0.290958 0.674413 0.217991
Si Si5 0.586451 0.174866 0.420442
Si Si6 0.123552 0.174935 0.797970
Si Si7 0.500000 0.667273 0.417946
O O1 0.671005 0.500000 0.076909
O O2 0.626994 0.268805 0.092385
O O3 0.705679 0.273339 0.137627
O O4 0.690447 0.269032 0.000000
O O5 0.500000 0.784317 0.759074
O O6 0.550854 0.803055 0.865018
O O7 0.581964 0.725355 0.744287
O O8 0.557684 0.000000 0.763503
O O9 0.397529 0.000000 0.921735
O O10 0.433171 0.206108 0.000000
O O11 0.284998 0.500000 0.223874
O O12 0.250000 0.750000 0.250000
O O13 0.333576 0.725308 0.258527
O O14 0.595883 0.216870 0.500000
O O15 0.623800 0.245073 0.373120
O O16 0.541871 0.244303 0.392909
O O17 0.583961 0.000000 0.410241
O O18 0.121812 0.000000 0.808749
O O19 0.500000 0.500000 0.387686
O O20 0.500000 0.662526 0.500000
#
# Coordination Sequence:
#
# PCOD8291472 Si02
#       7
#    16  16  16  16  16  16   8
#     4   9  17  33  57  82 110 143 181 226 273 326
#     4  10  21  35  52  78 114 155 194 233 279 330
#     4   9  17  30  51  79 110 147 190 233 276 322
#     4  10  22  39  60  87 113 144 184 229 286 345
#     4  10  21  37  57  81 110 147 190 234 282 338
#     4  11  23  39  58  82 113 148 187 233 287 342
#     4   9  17  31  53  81 111 145 186 231 278 329
#
# _framework density 19.115921
#
# number of rings (size 3 to 8) (size 9 to 14) (size 15 to 20)
#    0.000    2.231    1.538    1.154    1.077    4.308 
#    0.000    2.308    0.000    2.769    0.000    3.231 
#    0.000    0.000    0.000    0.000    0.000    0.000 
#
# Total GULP energy -644649.945926 kJ/mol
# GULP energy per Si atom -12397.114345 kJ/mol
# Density = 1.907241 g / cm^3
# Si number density = 19.115921 Si / 1000 Ang^3
#
#
#
# Elastic Constant Matrix: (Units=GPa)
#
#
# Indices 1 2 3 4 5 6 
#
# 1 107.8577 37.3708 66.3129 0.0000 0.0000 0.0000
# 2 37.3708 53.2931 43.1826 0.0000 0.0000 0.0000
# 3 66.3129 43.1826 124.6380 0.0000 0.0000 0.0000
# 4 0.0000 0.0000 0.0000 28.3578 0.0000 0.0000
# 5 0.0000 0.0000 0.0000 0.0000 29.2705 0.0000
# 6 0.0000 0.0000 0.0000 0.0000 0.0000 30.5748
#
#
#
# Elastic Compliance Matrix: (Units=1/GPa)
#
#
# Indices 1 2 3 4 5 6 
#
# 1 0.014888 -0.005591 -0.005984 0.000000 0.000000 0.000000
# 2 -0.005591 0.028188 -0.006791 0.000000 0.000000 0.000000
# 3 -0.005984 -0.006791 0.013560 0.000000 0.000000 0.000000
# 4 0.000000 0.000000 0.000000 0.035264 0.000000 0.000000
# 5 0.000000 0.000000 0.000000 0.000000 0.034164 0.000000
# 6 0.000000 0.000000 0.000000 0.000000 0.000000 0.032707
#
#
# Mechanical properties :
#
#
# Convention : Reuss Voigt Hill
#
# Bulk Modulus (GPa) = 50.24427 64.39126 57.31776
# Shear Modulus (GPa) = 24.73581 26.90213 25.81897
#
# Velocity S-wave (km/s) = 3.60111 3.75549 3.67911
# Velocity P-wave (km/s) = 6.60543 7.25001 6.93521
#
# Compressibility (1/GPa) = 0.01990277
#
# Stress axis : x y z
#
# Youngs Moduli (GPa) = 67.16990 35.47648 73.74751
#
# Poissons Ratio (x) = 0.19835 0.44129
# Poissons Ratio (y) = 0.37556 0.50084
# Poissons Ratio (z) = 0.40193 0.24093
#
# Static dielectric constant tensor:
#      x y z
#    x 3.266130 0.000000 0.000000 
#    y 0.000000 3.490780 0.000000 
#    z 0.000000 0.000000 4.013200 
# 
# 
# High freq. dielectric constant tensor:
#      x y z
#    x 1.709940 0.000000 0.000000 
#    y 0.000000 1.740590 0.000000 
#    z 0.000000 0.000000 1.765750 
# 
# From -- ./inp_files/50930.got.cif
#   From: 2010.06.25/outbox.cif.g09.slc.cpg/sg71_26_cif.got.tgz:50930.got - 2010.06.28 04:59:45.
