data_PCOD8291677
_publ_section_title
;
Structure prediction by ZEFSAII (Michael W. Deem and Ramdas Pophale) SiO2 
 PCOD8291677
Probable space group: I M M M
;
_chemical_formula_sum "Si O2"
_cell_formula_units_Z 96
_cell_length_a 29.496629
_cell_length_b 8.828469
_cell_length_c 19.098739
_cell_angle_alpha 90.000000
_cell_angle_beta 90.000000
_cell_angle_gamma 90.000000
_cell_volume 4973.504050
_symmetry_space_group_name_H-M "I M M M"
_symmetry_group_IT_number 71
_symmetry_cell_setting 'orthorhombic'
loop_
_space_group_symop_operation_xyz
x,y,z
-x,-y,z
x,-y,-z
-x,y,-z
-x,-y,-z
x,y,-z
-x,y,z
x,-y,z
1/2+x,1/2+y,1/2+z
1/2-x,1/2-y,1/2+z
1/2+x,1/2-y,1/2-z
1/2-x,1/2+y,1/2-z
1/2-x,1/2-y,1/2-z
1/2+x,1/2+y,1/2-z
1/2-x,1/2+y,1/2+z
1/2+x,1/2-y,1/2+z
loop_
_atom_site_type_symbol
_atom_site_label
_atom_site_fract_x
_atom_site_fract_y
_atom_site_fract_z
Si Si1 0.123363 0.325535 0.663663
Si Si2 0.550752 0.320365 0.421623
Si Si3 0.770614 0.175892 0.819730
Si Si4 0.124334 0.823187 0.809827
Si Si5 0.796321 0.178438 0.420009
Si Si6 0.052531 0.830921 0.420965
O O1 0.137873 0.500000 0.660189
O O2 0.114107 0.275711 0.742258
O O3 0.161588 0.223861 0.627964
O O4 0.076696 0.298604 0.623195
O O5 0.560493 0.257709 0.500000
O O6 0.500000 0.268266 0.397379
O O7 0.552525 0.500000 0.423316
O O8 0.590040 0.261096 0.369569
O O9 0.750000 0.250000 0.750000
O O10 0.823728 0.205902 0.830676
O O11 0.748419 0.243769 0.889426
O O12 0.759261 0.000000 0.813955
O O13 0.115636 0.000000 0.794132
O O14 0.803578 0.232306 0.500000
O O15 0.790140 0.000000 0.415556
O O16 0.070789 0.823760 0.500000
O O17 0.000000 0.793597 0.418244
O O18 0.062316 0.000000 0.391005
#
# Coordination Sequence:
#
# PCOD8291677 Si02
#       6
#    16  16  16  16  16  16
#     4  12  24  36  55  83 116 152 189 237 291 347
#     4   8  15  31  57  88 118 147 186 238 290 341
#     4  11  22  37  59  84 116 155 196 245 297 352
#     4  10  21  36  58  86 116 152 192 234 286 351
#     4  11  24  41  61  84 113 151 196 244 294 353
#     4   9  19  37  59  80 106 145 190 235 285 341
#
# _framework density 19.302285999999999
#
# number of rings (size 3 to 8) (size 9 to 14) (size 15 to 20)
#    0.000    1.833    1.667    4.000    0.000    6.000 
#    0.000    4.167    0.000    0.500    0.000    1.167 
#    0.000    0.000    0.000    0.000    0.000    0.000 
#
# Total GULP energy -595186.723683 kJ/mol
# GULP energy per Si atom -12399.723410 kJ/mol
# Density = 1.925835 g / cm^3
# Si number density = 19.302286 Si / 1000 Ang^3
#
#
#
# Elastic Constant Matrix: (Units=GPa)
#
#
# Indices 1 2 3 4 5 6 
#
# 1 118.9449 41.1146 75.7024 0.0000 0.0000 0.0000
# 2 41.1146 67.4114 40.6004 0.0000 0.0000 0.0000
# 3 75.7024 40.6004 130.1325 0.0000 0.0000 0.0000
# 4 0.0000 0.0000 0.0000 25.1079 0.0000 0.0000
# 5 0.0000 0.0000 0.0000 0.0000 43.5331 0.0000
# 6 0.0000 0.0000 0.0000 0.0000 0.0000 27.3738
#
#
#
# Elastic Compliance Matrix: (Units=1/GPa)
#
#
# Indices 1 2 3 4 5 6 
#
# 1 0.014427 -0.004611 -0.006954 0.000000 0.000000 0.000000
# 2 -0.004611 0.019740 -0.003477 0.000000 0.000000 0.000000
# 3 -0.006954 -0.003477 0.012815 0.000000 0.000000 0.000000
# 4 0.000000 0.000000 0.000000 0.039828 0.000000 0.000000
# 5 0.000000 0.000000 0.000000 0.000000 0.022971 0.000000
# 6 0.000000 0.000000 0.000000 0.000000 0.000000 0.036531
#
#
# Mechanical properties :
#
#
# Convention : Reuss Voigt Hill
#
# Bulk Modulus (GPa) = 59.17548 70.14706 64.66127
# Shear Modulus (GPa) = 27.46828 29.80773 28.63800
#
# Velocity S-wave (km/s) = 3.77644 3.93397 3.85601
# Velocity P-wave (km/s) = 7.05259 7.55348 7.30733
#
# Compressibility (1/GPa) = 0.01689889
#
# Stress axis : x y z
#
# Youngs Moduli (GPa) = 69.31474 50.65781 78.03617
#
# Poissons Ratio (x) = 0.23357 0.54267
# Poissons Ratio (y) = 0.31959 0.27130
# Poissons Ratio (z) = 0.48202 0.17612
#
# Static dielectric constant tensor:
#      x y z
#    x 3.759420 0.000000 0.000000 
#    y 0.000000 3.348850 0.000000 
#    z 0.000000 0.000000 3.774520 
# 
# 
# High freq. dielectric constant tensor:
#      x y z
#    x 1.761420 0.000000 0.000000 
#    y 0.000000 1.731330 0.000000 
#    z 0.000000 0.000000 1.753130 
# 
# From -- ./inp_files/56139.got.cif
#   From: 2010.06.25/outbox.cif.g09.slc.cpg/sg71_29_cif.got.tgz:56139.got - 2010.06.28 04:59:45.
