data_PCOD8291091
_publ_section_title
;
Structure prediction by ZEFSAII (Michael W. Deem and Ramdas Pophale) SiO2 
 PCOD8291091
Probable space group: I M M M
;
_chemical_formula_sum "Si O2"
_cell_formula_units_Z 112
_cell_length_a 37.646824
_cell_length_b 13.119554
_cell_length_c 13.278518
_cell_angle_alpha 90.000000
_cell_angle_beta 90.000000
_cell_angle_gamma 90.000000
_cell_volume 6558.386723
_symmetry_space_group_name_H-M "I M M M"
_symmetry_group_IT_number 71
_symmetry_cell_setting 'orthorhombic'
loop_
_space_group_symop_operation_xyz
x,y,z
-x,-y,z
x,-y,-z
-x,y,-z
-x,-y,-z
x,y,-z
-x,y,z
x,-y,z
1/2+x,1/2+y,1/2+z
1/2-x,1/2-y,1/2+z
1/2+x,1/2-y,1/2-z
1/2-x,1/2+y,1/2-z
1/2-x,1/2-y,1/2-z
1/2+x,1/2+y,1/2-z
1/2-x,1/2+y,1/2+z
1/2+x,1/2-y,1/2+z
loop_
_atom_site_type_symbol
_atom_site_label
_atom_site_fract_x
_atom_site_fract_y
_atom_site_fract_z
Si Si1 0.540219 0.119790 0.613863
Si Si2 0.408674 0.249418 0.251070
Si Si3 0.715825 0.617935 0.722617
Si Si4 0.856588 0.382645 0.383402
Si Si5 0.357424 0.618895 0.383742
Si Si6 0.218925 0.711404 0.383554
Si Si7 0.459730 0.381683 0.115535
O O1 0.549175 0.153705 0.500000
O O2 0.500000 0.151981 0.640648
O O3 0.566765 0.171620 0.690159
O O4 0.544918 0.000000 0.625489
O O5 0.381742 0.187038 0.182838
O O6 0.388414 0.319413 0.330207
O O7 0.432493 0.319472 0.181386
O O8 0.716084 0.500000 0.753600
O O9 0.680100 0.648242 0.664717
O O10 0.748303 0.640957 0.648396
O O11 0.718822 0.682026 0.824694
O O12 0.865938 0.364214 0.500000
O O13 0.862219 0.500000 0.353293
O O14 0.816150 0.353176 0.360419
O O15 0.356334 0.651020 0.500000
O O16 0.365702 0.500000 0.370775
O O17 0.222294 0.739951 0.500000
O O18 0.500000 0.359092 0.150663
O O19 0.450838 0.500000 0.128949
O O20 0.454956 0.348748 0.000000
#
# Coordination Sequence:
#
# PCOD8291091 Si02
#       7
#    16  16  16  16  16  16  16
#     4   9  19  35  53  74 100 132 173 216 256 304
#     4  12  19  32  53  80 102 136 170 214 261 312
#     4  10  20  36  57  80 105 141 181 218 256 302
#     4  10  21  35  51  76 108 138 171 213 261 311
#     4  10  21  35  51  76 108 138 171 213 261 311
#     4  10  20  36  57  80 105 141 181 218 256 302
#     4   9  19  35  53  74 102 136 173 212 256 312
#
# _framework density 17.077370999999999
#
# number of rings (size 3 to 8) (size 9 to 14) (size 15 to 20)
#    0.000    2.000    1.429    3.857    0.000    1.714 
#    0.000    0.000    0.000    0.000    0.000   12.000 
#    0.000    0.000    0.000    0.000    0.000    0.000 
#
# Total GULP energy -694534.791812 kJ/mol
# GULP energy per Si atom -12402.406997 kJ/mol
# Density = 1.703850 g / cm^3
# Si number density = 17.077371 Si / 1000 Ang^3
#
#
#
# Elastic Constant Matrix: (Units=GPa)
#
#
# Indices 1 2 3 4 5 6 
#
# 1 79.1865 23.1287 47.2672 0.0000 0.0000 0.0000
# 2 23.1287 49.8029 34.5719 0.0000 0.0000 0.0000
# 3 47.2672 34.5719 86.3917 0.0000 0.0000 0.0000
# 4 0.0000 0.0000 0.0000 29.4960 0.0000 0.0000
# 5 0.0000 0.0000 0.0000 0.0000 35.5522 0.0000
# 6 0.0000 0.0000 0.0000 0.0000 0.0000 33.9783
#
#
#
# Elastic Compliance Matrix: (Units=1/GPa)
#
#
# Indices 1 2 3 4 5 6 
#
# 1 0.018928 -0.002217 -0.009469 0.000000 0.000000 0.000000
# 2 -0.002217 0.028062 -0.010017 0.000000 0.000000 0.000000
# 3 -0.009469 -0.010017 0.020764 0.000000 0.000000 0.000000
# 4 0.000000 0.000000 0.000000 0.033903 0.000000 0.000000
# 5 0.000000 0.000000 0.000000 0.000000 0.028128 0.000000
# 6 0.000000 0.000000 0.000000 0.000000 0.000000 0.029431
#
#
# Mechanical properties :
#
#
# Convention : Reuss Voigt Hill
#
# Bulk Modulus (GPa) = 41.06941 47.25741 44.16341
# Shear Modulus (GPa) = 23.72623 27.16620 25.44622
#
# Velocity S-wave (km/s) = 3.73143 3.99277 3.86431
# Velocity P-wave (km/s) = 6.53192 6.99921 6.76960
#
# Compressibility (1/GPa) = 0.02434902
#
# Stress axis : x y z
#
# Youngs Moduli (GPa) = 52.83176 35.63514 48.15976
#
# Poissons Ratio (x) = 0.07901 0.45601
# Poissons Ratio (y) = 0.11714 0.48240
# Poissons Ratio (z) = 0.50025 0.35695
#
# Static dielectric constant tensor:
#      x y z
#    x 3.297430 0.000000 0.000000 
#    y 0.000000 3.140890 0.000000 
#    z 0.000000 0.000000 3.296280 
# 
# 
# High freq. dielectric constant tensor:
#      x y z
#    x 1.671900 0.000000 0.000000 
#    y 0.000000 1.660940 0.000000 
#    z 0.000000 0.000000 1.664180 
# 
# From -- ./inp_files/40946.got.cif
#   From: 2010.06.25/outbox.cif.g09.slc.cpg/sg71_21_cif.got.tgz:40946.got - 2010.06.28 04:59:45.
