data_PCOD8291271
_publ_section_title
;
Structure prediction by ZEFSAII (Michael W. Deem and Ramdas Pophale) SiO2 
 PCOD8291271
Probable space group: I M M M
;
_chemical_formula_sum "Si O2"
_cell_formula_units_Z 104
_cell_length_a 16.659699
_cell_length_b 20.041550
_cell_length_c 15.291136
_cell_angle_alpha 90.000000
_cell_angle_beta 90.000000
_cell_angle_gamma 90.000000
_cell_volume 5105.499147
_symmetry_space_group_name_H-M "I M M M"
_symmetry_group_IT_number 71
_symmetry_cell_setting 'orthorhombic'
loop_
_space_group_symop_operation_xyz
x,y,z
-x,-y,z
x,-y,-z
-x,y,-z
-x,-y,-z
x,y,-z
-x,y,z
x,-y,z
1/2+x,1/2+y,1/2+z
1/2-x,1/2-y,1/2+z
1/2+x,1/2-y,1/2-z
1/2-x,1/2+y,1/2-z
1/2-x,1/2-y,1/2-z
1/2+x,1/2+y,1/2-z
1/2-x,1/2+y,1/2+z
1/2+x,1/2-y,1/2+z
loop_
_atom_site_type_symbol
_atom_site_label
_atom_site_fract_x
_atom_site_fract_y
_atom_site_fract_z
Si Si1 0.409389 0.875704 0.360679
Si Si2 0.593479 0.270043 0.597558
Si Si3 0.841370 0.631301 0.682751
Si Si4 0.175135 0.000000 0.252768
Si Si5 0.594376 0.737291 0.898390
Si Si6 0.304524 0.000000 0.405230
Si Si7 0.792067 0.500000 0.399811
Si Si8 0.336608 0.644423 0.751238
O O1 0.500000 0.883363 0.394833
O O2 0.372231 0.804673 0.391289
O O3 0.409958 0.877786 0.255238
O O4 0.358727 0.934556 0.402127
O O5 0.612435 0.296085 0.500000
O O6 0.500000 0.268018 0.618207
O O7 0.632082 0.320961 0.664438
O O8 0.861731 0.693083 0.620512
O O9 0.842711 0.566159 0.621948
O O10 0.759257 0.640349 0.738809
O O11 0.125826 0.069269 0.261223
O O12 0.243455 0.000000 0.326183
O O13 0.211086 0.000000 0.155616
O O14 0.500000 0.741066 0.874855
O O15 0.638300 0.682353 0.839034
O O16 0.606789 0.718683 0.000000
O O17 0.260446 0.000000 0.500000
O O18 0.766761 0.500000 0.500000
#
# Coordination Sequence:
#
# PCOD8291271 Si02
#       8
#    16  16  16   8  16   8   8  16
#     4  11  21  38  62  88 126 166 197 239 291 355
#     4  10  22  39  62  94 125 156 196 245 304 363
#     4  11  21  39  61  92 123 160 207 244 295 351
#     4  10  24  43  60  90 121 147 205 251 307 362
#     4  11  24  41  62  90 123 161 205 250 299 356
#     4  12  23  39  59  87 128 166 198 241 288 350
#     4  10  20  37  60  85 124 161 193 238 292 350
#     4  11  22  42  65  87 118 158 200 253 308 358
#
# _framework density 20.370193
#
# number of rings (size 3 to 8) (size 9 to 14) (size 15 to 20)
#    0.000    1.231    4.615    2.538    0.000    4.923 
#    0.000    2.692    0.000    4.615    0.000    0.000 
#    0.000    0.000    0.000    0.000    0.000    0.000 
#
# Total GULP energy -644689.202212 kJ/mol
# GULP energy per Si atom -12397.869273 kJ/mol
# Density = 2.032383 g / cm^3
# Si number density = 20.370193 Si / 1000 Ang^3
#
#
#
# Elastic Constant Matrix: (Units=GPa)
#
#
# Indices 1 2 3 4 5 6 
#
# 1 49.1122 42.2505 30.9708 0.0000 0.0000 0.0000
# 2 42.2505 190.8169 55.4748 0.0000 0.0000 0.0000
# 3 30.9708 55.4748 138.2644 0.0000 0.0000 0.0000
# 4 0.0000 0.0000 0.0000 18.1757 0.0000 0.0000
# 5 0.0000 0.0000 0.0000 0.0000 13.6333 0.0000
# 6 0.0000 0.0000 0.0000 0.0000 0.0000 33.8155
#
#
#
# Elastic Compliance Matrix: (Units=1/GPa)
#
#
# Indices 1 2 3 4 5 6 
#
# 1 0.027102 -0.004795 -0.004147 0.000000 0.000000 0.000000
# 2 -0.004795 0.006781 -0.001647 0.000000 0.000000 0.000000
# 3 -0.004147 -0.001647 0.008822 0.000000 0.000000 0.000000
# 4 0.000000 0.000000 0.000000 0.055018 0.000000 0.000000
# 5 0.000000 0.000000 0.000000 0.000000 0.073350 0.000000
# 6 0.000000 0.000000 0.000000 0.000000 0.000000 0.029572
#
#
# Mechanical properties :
#
#
# Convention : Reuss Voigt Hill
#
# Bulk Modulus (GPa) = 46.45183 70.62064 58.53624
# Shear Modulus (GPa) = 21.83416 29.75805 25.79610
#
# Velocity S-wave (km/s) = 3.27749 3.82627 3.56246
# Velocity P-wave (km/s) = 6.09721 7.36643 6.76167
#
# Compressibility (1/GPa) = 0.02152768
#
# Stress axis : x y z
#
# Youngs Moduli (GPa) = 36.89784 147.46866 113.35255
#
# Poissons Ratio (x) = 0.70716 0.47005
# Poissons Ratio (y) = 0.17694 0.18665
# Poissons Ratio (z) = 0.15301 0.24282
#
# Static dielectric constant tensor:
#      x y z
#    x 3.499190 0.000000 0.000000 
#    y 0.000000 4.144230 0.000000 
#    z 0.000000 0.000000 3.740930 
# 
# 
# High freq. dielectric constant tensor:
#      x y z
#    x 1.766000 0.000000 0.000000 
#    y 0.000000 1.811970 0.000000 
#    z 0.000000 0.000000 1.809840 
# 
# From -- ./inp_files/36733.got.cif
#   From: 2010.06.25/outbox.cif.g09.slc.cpg/sg71_19_cif.got.tgz:36733.got - 2010.06.28 04:59:45.
