data_PCOD8291601
_publ_section_title
;
Structure prediction by ZEFSAII (Michael W. Deem and Ramdas Pophale) SiO2 
 PCOD8291601
Probable space group: I M M M
;
_chemical_formula_sum "Si O2"
_cell_formula_units_Z 96
_cell_length_a 19.690735
_cell_length_b 18.258297
_cell_length_c 14.469817
_cell_angle_alpha 90.000000
_cell_angle_beta 90.000000
_cell_angle_gamma 90.000000
_cell_volume 5202.178302
_symmetry_space_group_name_H-M "I M M M"
_symmetry_group_IT_number 71
_symmetry_cell_setting 'orthorhombic'
loop_
_space_group_symop_operation_xyz
x,y,z
-x,-y,z
x,-y,-z
-x,y,-z
-x,-y,-z
x,y,-z
-x,y,z
x,-y,z
1/2+x,1/2+y,1/2+z
1/2-x,1/2-y,1/2+z
1/2+x,1/2-y,1/2-z
1/2-x,1/2+y,1/2-z
1/2-x,1/2-y,1/2-z
1/2+x,1/2+y,1/2-z
1/2-x,1/2+y,1/2+z
1/2+x,1/2-y,1/2+z
loop_
_atom_site_type_symbol
_atom_site_label
_atom_site_fract_x
_atom_site_fract_y
_atom_site_fract_z
Si Si1 0.074974 0.849348 0.103534
Si Si2 0.074926 0.776991 0.287933
Si Si3 0.785577 0.919532 0.892845
Si Si4 0.716666 0.916601 0.605364
Si Si5 0.376194 0.582634 0.893312
Si Si6 0.199098 0.684576 0.730967
O O1 0.079710 0.783318 0.176585
O O2 0.134741 0.906141 0.127136
O O3 0.000000 0.887103 0.111474
O O4 0.085330 0.817240 0.000000
O O5 0.086182 0.857333 0.331539
O O6 0.130649 0.716704 0.316249
O O7 0.000000 0.749493 0.317801
O O8 0.734549 0.865623 0.843711
O O9 0.769618 0.000000 0.854477
O O10 0.769645 0.912846 0.000000
O O11 0.700218 0.892838 0.500000
O O12 0.796435 0.910883 0.625134
O O13 0.680344 0.860993 0.676308
O O14 0.691768 0.000000 0.621745
O O15 0.400581 0.500000 0.867686
O O16 0.392986 0.598855 0.000000
O O17 0.250000 0.750000 0.750000
#
# Coordination Sequence:
#
# PCOD8291601 Si02
#       6
#    16  16  16  16  16  16
#     4   9  18  33  52  77 111 144 171 202 250 315
#     4  11  23  36  50  77 112 144 178 216 266 315
#     4  10  21  36  55  79 107 141 181 221 260 309
#     4   9  18  33  56  84 109 135 172 220 268 313
#     4   9  18  34  55  79 108 141 176 212 255 313
#     4  12  21  34  55  82 105 142 179 220 264 313
#
# _framework density 18.453807999999999
#
# number of rings (size 3 to 8) (size 9 to 14) (size 15 to 20)
#    0.000    2.000    3.333    1.500    0.000    5.000 
#    0.000    4.167    0.000    2.000    0.000    2.333 
#    0.000    0.000    0.000    0.000    0.000    0.000 
#
# Total GULP energy -594956.399553 kJ/mol
# GULP energy per Si atom -12394.924991 kJ/mol
# Density = 1.841181 g / cm^3
# Si number density = 18.453808 Si / 1000 Ang^3
#
#
#
# Elastic Constant Matrix: (Units=GPa)
#
#
# Indices 1 2 3 4 5 6 
#
# 1 115.7543 65.7874 35.5351 0.0000 0.0000 0.0000
# 2 65.7874 105.0863 36.2562 0.0000 0.0000 0.0000
# 3 35.5351 36.2562 53.0103 0.0000 0.0000 0.0000
# 4 0.0000 0.0000 0.0000 27.8301 0.0000 0.0000
# 5 0.0000 0.0000 0.0000 0.0000 20.1100 0.0000
# 6 0.0000 0.0000 0.0000 0.0000 0.0000 20.6847
#
#
#
# Elastic Compliance Matrix: (Units=1/GPa)
#
#
# Indices 1 2 3 4 5 6 
#
# 1 0.014184 -0.007329 -0.004496 0.000000 0.000000 0.000000
# 2 -0.007329 0.016242 -0.006196 0.000000 0.000000 0.000000
# 3 -0.004496 -0.006196 0.026116 0.000000 0.000000 0.000000
# 4 0.000000 0.000000 0.000000 0.035932 0.000000 0.000000
# 5 0.000000 0.000000 0.000000 0.000000 0.049727 0.000000
# 6 0.000000 0.000000 0.000000 0.000000 0.000000 0.048345
#
#
# Mechanical properties :
#
#
# Convention : Reuss Voigt Hill
#
# Bulk Modulus (GPa) = 48.77825 61.00092 54.88958
# Shear Modulus (GPa) = 21.42069 22.80979 22.11524
#
# Velocity S-wave (km/s) = 3.41071 3.51956 3.46556
# Velocity P-wave (km/s) = 6.48079 7.04586 6.76922
#
# Compressibility (1/GPa) = 0.02050094
#
# Stress axis : x y z
#
# Youngs Moduli (GPa) = 70.50019 61.57046 38.29138
#
# Poissons Ratio (x) = 0.45123 0.17216
# Poissons Ratio (y) = 0.51667 0.23724
# Poissons Ratio (z) = 0.31697 0.38147
#
# Static dielectric constant tensor:
#      x y z
#    x 3.329810 0.000000 0.000000 
#    y 0.000000 3.309780 0.000000 
#    z 0.000000 0.000000 3.586830 
# 
# 
# High freq. dielectric constant tensor:
#      x y z
#    x 1.691520 0.000000 0.000000 
#    y 0.000000 1.694970 0.000000 
#    z 0.000000 0.000000 1.728390 
# 
# From -- ./inp_files/34502.got.cif
#   From: 2010.06.25/outbox.cif.g09.slc.cpg/sg71_18_cif.got.tgz:34502.got - 2010.06.28 04:59:45.
