data_PCOD8291620
_publ_section_title
;
Structure prediction by ZEFSAII (Michael W. Deem and Ramdas Pophale) SiO2 
 PCOD8291620
Probable space group: I M M M
;
_chemical_formula_sum "Si O2"
_cell_formula_units_Z 104
_cell_length_a 27.103237
_cell_length_b 21.525333
_cell_length_c 9.063109
_cell_angle_alpha 90.000000
_cell_angle_beta 90.000000
_cell_angle_gamma 90.000000
_cell_volume 5287.473998
_symmetry_space_group_name_H-M "I M M M"
_symmetry_group_IT_number 71
_symmetry_cell_setting 'orthorhombic'
loop_
_space_group_symop_operation_xyz
x,y,z
-x,-y,z
x,-y,-z
-x,y,-z
-x,-y,-z
x,y,-z
-x,y,z
x,-y,z
1/2+x,1/2+y,1/2+z
1/2-x,1/2-y,1/2+z
1/2+x,1/2-y,1/2-z
1/2-x,1/2+y,1/2-z
1/2-x,1/2-y,1/2-z
1/2+x,1/2+y,1/2-z
1/2-x,1/2+y,1/2+z
1/2+x,1/2-y,1/2+z
loop_
_atom_site_type_symbol
_atom_site_label
_atom_site_fract_x
_atom_site_fract_y
_atom_site_fract_z
Si Si1 0.768756 0.071975 0.174925
Si Si2 0.618848 0.572230 0.663533
Si Si3 0.444430 0.664040 0.174506
Si Si4 0.375353 0.226634 0.166683
Si Si5 0.940863 0.500000 0.163763
Si Si6 0.945554 0.612800 0.337159
Si Si7 0.778207 0.307737 0.176396
O O1 0.825455 0.084954 0.219627
O O2 0.737259 0.124313 0.261034
O O3 0.754383 0.000000 0.218001
O O4 0.760800 0.080597 0.000000
O O5 0.612559 0.601020 0.500000
O O6 0.608883 0.500000 0.657570
O O7 0.577274 0.598841 0.771546
O O8 0.500000 0.674945 0.237662
O O9 0.404101 0.713804 0.230633
O O10 0.447129 0.665328 0.000000
O O11 0.416697 0.175532 0.160582
O O12 0.334701 0.204595 0.282228
O O13 0.353883 0.237868 0.000000
O O14 0.918452 0.561467 0.237558
O O15 0.000000 0.500000 0.180653
O O16 0.921398 0.500000 0.000000
O O17 0.948971 0.584011 0.500000
O O18 0.000000 0.627893 0.274987
O O19 0.750000 0.250000 0.250000
O O20 0.770976 0.307238 0.000000
#
# Coordination Sequence:
#
# PCOD8291620 Si02
#       7
#    16  16  16  16   8  16  16
#     4   9  19  39  65  90 118 153 194 242 295 352
#     4   9  19  36  58  84 113 147 187 228 274 334
#     4  10  21  36  55  82 115 149 188 236 284 331
#     4  10  21  38  58  81 109 144 186 232 285 337
#     4   9  17  29  47  73 105 139 175 219 267 311
#     4   9  17  32  55  79 104 139 183 224 266 325
#     4  12  25  40  60  86 117 151 192 241 292 350
#
# _framework density 19.669128000000001
#
# number of rings (size 3 to 8) (size 9 to 14) (size 15 to 20)
#    0.000    2.231    0.000    3.923    0.000    8.308 
#    1.385    3.077    0.000    2.769    0.000    0.000 
#    0.000    0.000    0.000    0.000    0.000    0.000 
#
# Total GULP energy -644428.550885 kJ/mol
# GULP energy per Si atom -12392.856748 kJ/mol
# Density = 1.962436 g / cm^3
# Si number density = 19.669128 Si / 1000 Ang^3
#
#
#
# Elastic Constant Matrix: (Units=GPa)
#
#
# Indices 1 2 3 4 5 6 
#
# 1 103.1420 54.5023 39.8889 0.0000 0.0000 0.0000
# 2 54.5023 100.8051 47.1577 0.0000 0.0000 0.0000
# 3 39.8889 47.1577 80.2777 0.0000 0.0000 0.0000
# 4 0.0000 0.0000 0.0000 25.1240 0.0000 0.0000
# 5 0.0000 0.0000 0.0000 0.0000 28.1479 0.0000
# 6 0.0000 0.0000 0.0000 0.0000 0.0000 41.6564
#
#
#
# Elastic Compliance Matrix: (Units=1/GPa)
#
#
# Indices 1 2 3 4 5 6 
#
# 1 0.014262 -0.006062 -0.003526 0.000000 0.000000 0.000000
# 2 -0.006062 0.016256 -0.006537 0.000000 0.000000 0.000000
# 3 -0.003526 -0.006537 0.018049 0.000000 0.000000 0.000000
# 4 0.000000 0.000000 0.000000 0.039803 0.000000 0.000000
# 5 0.000000 0.000000 0.000000 0.000000 0.035527 0.000000
# 6 0.000000 0.000000 0.000000 0.000000 0.000000 0.024006
#
#
# Mechanical properties :
#
#
# Convention : Reuss Voigt Hill
#
# Bulk Modulus (GPa) = 61.28463 63.03584 62.16023
# Shear Modulus (GPa) = 26.94114 28.49740 27.71927
#
# Velocity S-wave (km/s) = 3.70498 3.81049 3.75811
# Velocity P-wave (km/s) = 7.03761 7.17478 7.10653
#
# Compressibility (1/GPa) = 0.01631731
#
# Stress axis : x y z
#
# Youngs Moduli (GPa) = 70.11632 61.51720 55.40537
#
# Poissons Ratio (x) = 0.37289 0.19535
# Poissons Ratio (y) = 0.42502 0.36219
# Poissons Ratio (z) = 0.24722 0.40215
#
# Static dielectric constant tensor:
#      x y z
#    x 3.433040 0.000000 0.000000 
#    y 0.000000 3.719770 0.000000 
#    z 0.000000 0.000000 3.824720 
# 
# 
# High freq. dielectric constant tensor:
#      x y z
#    x 1.757480 0.000000 0.000000 
#    y 0.000000 1.778090 0.000000 
#    z 0.000000 0.000000 1.754170 
# 
# From -- ./inp_files/14989.got.cif
#   From: 2010.06.25/outbox.cif.g09.slc.cpg/sg71_8_cif.got.tgz:14989.got - 2010.06.28 04:59:45.
