data_PCOD8291743
_publ_section_title
;
Structure prediction by ZEFSAII (Michael W. Deem and Ramdas Pophale) SiO2 
 PCOD8291743
Probable space group: I M M M
;
_chemical_formula_sum "Si O2"
_cell_formula_units_Z 88
_cell_length_a 18.878207
_cell_length_b 9.144272
_cell_length_c 24.698041
_cell_angle_alpha 90.000000
_cell_angle_beta 90.000000
_cell_angle_gamma 90.000000
_cell_volume 4263.560077
_symmetry_space_group_name_H-M "I M M M"
_symmetry_group_IT_number 71
_symmetry_cell_setting 'orthorhombic'
loop_
_space_group_symop_operation_xyz
x,y,z
-x,-y,z
x,-y,-z
-x,y,-z
-x,-y,-z
x,y,-z
-x,y,z
x,-y,z
1/2+x,1/2+y,1/2+z
1/2-x,1/2-y,1/2+z
1/2+x,1/2-y,1/2-z
1/2-x,1/2+y,1/2-z
1/2-x,1/2-y,1/2-z
1/2+x,1/2+y,1/2-z
1/2-x,1/2+y,1/2+z
1/2+x,1/2-y,1/2+z
loop_
_atom_site_type_symbol
_atom_site_label
_atom_site_fract_x
_atom_site_fract_y
_atom_site_fract_z
Si Si1 0.000000 0.164008 0.435885
Si Si2 0.918998 0.671476 0.729855
Si Si3 0.354193 0.166685 0.658755
Si Si4 0.639663 0.828401 0.937620
Si Si5 0.695218 0.331053 0.843741
Si Si6 0.919562 0.172525 0.939314
O O1 0.067444 0.254897 0.416212
O O2 0.000000 0.155125 0.500000
O O3 0.000000 0.000000 0.411120
O O4 0.904488 0.500000 0.720577
O O5 0.905911 0.713784 0.792532
O O6 0.864509 0.761656 0.693902
O O7 0.000000 0.712911 0.715064
O O8 0.273795 0.188066 0.680611
O O9 0.368046 0.259830 0.605190
O O10 0.367769 0.000000 0.642127
O O11 0.699720 0.753512 0.901372
O O12 0.634530 0.000000 0.926940
O O13 0.655765 0.793567 0.000000
O O14 0.676064 0.500000 0.853170
O O15 0.000000 0.224500 0.928654
O O16 0.913945 0.000000 0.934219
O O17 0.896029 0.220802 0.000000
#
# Coordination Sequence:
#
# PCOD8291743 Si02
#       6
#     8  16  16  16  16  16
#     4   9  17  31  53  79 107 141 183 235 288 333
#     4  10  22  41  64  87 113 148 193 246 300 355
#     4  10  22  40  61  87 119 157 197 240 296 354
#     4  10  21  37  57  81 112 153 197 237 285 346
#     4  11  24  39  58  86 120 155 195 245 296 351
#     4   9  19  36  59  90 126 161 198 241 289 344
#
# _framework density 20.640027
#
# number of rings (size 3 to 8) (size 9 to 14) (size 15 to 20)
#    0.000    2.091    0.000    3.000    1.273    6.909 
#    0.000    4.545    0.000    0.000    0.000    0.000 
#    0.000    0.000    0.000    0.000    0.000    0.000 
#
# Total GULP energy -545582.189545 kJ/mol
# GULP energy per Si atom -12399.595217 kJ/mol
# Density = 2.059305 g / cm^3
# Si number density = 20.640027 Si / 1000 Ang^3
#
#
#
# Elastic Constant Matrix: (Units=GPa)
#
#
# Indices 1 2 3 4 5 6 
#
# 1 90.2730 41.8330 45.0556 0.0000 0.0000 0.0000
# 2 41.8330 97.9945 51.6645 0.0000 0.0000 0.0000
# 3 45.0556 51.6645 104.7401 0.0000 0.0000 0.0000
# 4 0.0000 0.0000 0.0000 35.2092 0.0000 0.0000
# 5 0.0000 0.0000 0.0000 0.0000 34.2854 0.0000
# 6 0.0000 0.0000 0.0000 0.0000 0.0000 31.8686
#
#
#
# Elastic Compliance Matrix: (Units=1/GPa)
#
#
# Indices 1 2 3 4 5 6 
#
# 1 0.015246 -0.004123 -0.004525 0.000000 0.000000 0.000000
# 2 -0.004123 0.014906 -0.005579 0.000000 0.000000 0.000000
# 3 -0.004525 -0.005579 0.014246 0.000000 0.000000 0.000000
# 4 0.000000 0.000000 0.000000 0.028402 0.000000 0.000000
# 5 0.000000 0.000000 0.000000 0.000000 0.029167 0.000000
# 6 0.000000 0.000000 0.000000 0.000000 0.000000 0.031379
#
#
# Mechanical properties :
#
#
# Convention : Reuss Voigt Hill
#
# Bulk Modulus (GPa) = 62.71695 63.34597 63.03146
# Shear Modulus (GPa) = 29.91959 30.56959 30.24459
#
# Velocity S-wave (km/s) = 3.81148 3.85266 3.83212
# Velocity P-wave (km/s) = 7.05846 7.10972 7.08414
#
# Compressibility (1/GPa) = 0.01594465
#
# Stress axis : x y z
#
# Youngs Moduli (GPa) = 65.58883 67.08643 70.19616
#
# Poissons Ratio (x) = 0.27660 0.31762
# Poissons Ratio (y) = 0.27043 0.39163
# Poissons Ratio (z) = 0.29677 0.37428
#
# Static dielectric constant tensor:
#      x y z
#    x 3.773920 0.000000 0.000000 
#    y 0.000000 3.683900 0.000000 
#    z 0.000000 0.000000 3.782960 
# 
# 
# High freq. dielectric constant tensor:
#      x y z
#    x 1.807230 0.000000 0.000000 
#    y 0.000000 1.804970 0.000000 
#    z 0.000000 0.000000 1.810810 
# 
# From -- ./inp_files/12493.got.cif
#   From: 2010.06.25/outbox.cif.g09.slc.cpg/sg71_7_cif.got.tgz:12493.got - 2010.06.28 04:59:45.
