data_PCOD8291168
_publ_section_title
;
Structure prediction by ZEFSAII (Michael W. Deem and Ramdas Pophale) SiO2 
 PCOD8291168
Probable space group: I M M M
;
_chemical_formula_sum "Si O2"
_cell_formula_units_Z 88
_cell_length_a 28.891199
_cell_length_b 8.554444
_cell_length_c 17.284752
_cell_angle_alpha 90.000000
_cell_angle_beta 90.000000
_cell_angle_gamma 90.000000
_cell_volume 4271.894375
_symmetry_space_group_name_H-M "I M M M"
_symmetry_group_IT_number 71
_symmetry_cell_setting 'orthorhombic'
loop_
_space_group_symop_operation_xyz
x,y,z
-x,-y,z
x,-y,-z
-x,y,-z
-x,-y,-z
x,y,-z
-x,y,z
x,-y,z
1/2+x,1/2+y,1/2+z
1/2-x,1/2-y,1/2+z
1/2+x,1/2-y,1/2-z
1/2-x,1/2+y,1/2-z
1/2-x,1/2-y,1/2-z
1/2+x,1/2+y,1/2-z
1/2-x,1/2+y,1/2+z
1/2+x,1/2-y,1/2+z
loop_
_atom_site_type_symbol
_atom_site_label
_atom_site_fract_x
_atom_site_fract_y
_atom_site_fract_z
Si Si1 0.580877 0.320118 0.500000
Si Si2 0.500000 0.684192 0.090447
Si Si3 0.053198 0.177295 0.164561
Si Si4 0.777174 0.176690 0.860219
Si Si5 0.412950 0.817122 0.816992
Si Si6 0.684803 0.320579 0.194950
Si Si7 0.676845 0.824060 0.500000
O O1 0.566393 0.500000 0.500000
O O2 0.559943 0.247377 0.421013
O O3 0.635569 0.299712 0.500000
O O4 0.500000 0.500000 0.103132
O O5 0.546150 0.751233 0.129699
O O6 0.500000 0.729743 0.000000
O O7 0.078552 0.285403 0.226436
O O8 0.000000 0.174484 0.187323
O O9 0.073625 0.000000 0.168097
O O10 0.724077 0.211886 0.841137
O O11 0.811578 0.198080 0.787572
O O12 0.780155 0.000000 0.891584
O O13 0.792393 0.298709 0.924670
O O14 0.364486 0.735479 0.838331
O O15 0.408876 0.000000 0.831704
O O16 0.692782 0.500000 0.170565
O O17 0.657388 0.000000 0.500000
#
# Coordination Sequence:
#
# PCOD8291168 Si02
#       7
#     8   8  16  16  16  16   8
#     4  10  21  36  56  86 120 164 214 256 296 343
#     4  11  25  47  71  92 117 152 199 255 310 365
#     4  10  20  36  59  85 120 163 209 254 298 350
#     4  10  21  39  62  88 120 157 201 251 299 352
#     4  12  24  39  63  94 126 160 199 245 303 369
#     4  10  21  39  64  91 120 157 200 246 298 358
#     4  12  24  37  55  83 120 161 199 244 299 358
#
# _framework density 20.59976
#
# number of rings (size 3 to 8) (size 9 to 14) (size 15 to 20)
#    0.000    1.364    0.909    5.182    0.000    9.091 
#    1.636    0.000    0.000    1.636    0.000    0.000 
#    0.000    0.000    0.000    0.000    0.000    0.000 
#
# Total GULP energy -545703.278990 kJ/mol
# GULP energy per Si atom -12402.347250 kJ/mol
# Density = 2.055287 g / cm^3
# Si number density = 20.599760 Si / 1000 Ang^3
#
#
#
# Elastic Constant Matrix: (Units=GPa)
#
#
# Indices 1 2 3 4 5 6 
#
# 1 115.1694 25.9281 23.2328 0.0000 0.0000 0.0000
# 2 25.9281 86.6243 23.1195 0.0000 0.0000 0.0000
# 3 23.2328 23.1195 70.4555 0.0000 0.0000 0.0000
# 4 0.0000 0.0000 0.0000 20.7980 0.0000 0.0000
# 5 0.0000 0.0000 0.0000 0.0000 19.8373 0.0000
# 6 0.0000 0.0000 0.0000 0.0000 0.0000 25.9290
#
#
#
# Elastic Compliance Matrix: (Units=1/GPa)
#
#
# Indices 1 2 3 4 5 6 
#
# 1 0.009683 -0.002243 -0.002457 0.000000 0.000000 0.000000
# 2 -0.002243 0.013172 -0.003583 0.000000 0.000000 0.000000
# 3 -0.002457 -0.003583 0.016179 0.000000 0.000000 0.000000
# 4 0.000000 0.000000 0.000000 0.048082 0.000000 0.000000
# 5 0.000000 0.000000 0.000000 0.000000 0.050410 0.000000
# 6 0.000000 0.000000 0.000000 0.000000 0.000000 0.038567
#
#
# Mechanical properties :
#
#
# Convention : Reuss Voigt Hill
#
# Bulk Modulus (GPa) = 44.50521 46.31220 45.40871
# Shear Modulus (GPa) = 24.98161 26.64414 25.81287
#
# Velocity S-wave (km/s) = 3.48618 3.60032 3.54371
# Velocity P-wave (km/s) = 6.15274 6.30981 6.23177
#
# Compressibility (1/GPa) = 0.02246928
#
# Stress axis : x y z
#
# Youngs Moduli (GPa) = 103.26929 75.92131 61.80758
#
# Poissons Ratio (x) = 0.17026 0.15188
# Poissons Ratio (y) = 0.23159 0.22143
# Poissons Ratio (z) = 0.25376 0.27200
#
# Static dielectric constant tensor:
#      x y z
#    x 3.723090 0.000000 0.000000 
#    y 0.000000 3.643950 0.000000 
#    z 0.000000 0.000000 3.772440 
# 
# 
# High freq. dielectric constant tensor:
#      x y z
#    x 1.814350 0.000000 0.000000 
#    y 0.000000 1.801890 0.000000 
#    z 0.000000 0.000000 1.799630 
# 
# From -- ./inp_files/49279.got.cif
#   From: 2010.06.25/outbox.cif.g09.slc.cpg/sg71_25_cif.got.tgz:49279.got - 2010.06.28 04:59:45.
