data_PCOD8291356
_publ_section_title
;
Structure prediction by ZEFSAII (Michael W. Deem and Ramdas Pophale) SiO2 
 PCOD8291356
Probable space group: I M M M
;
_chemical_formula_sum "Si O2"
_cell_formula_units_Z 120
_cell_length_a 17.591534
_cell_length_b 18.002106
_cell_length_c 18.869664
_cell_angle_alpha 90.000000
_cell_angle_beta 90.000000
_cell_angle_gamma 90.000000
_cell_volume 5975.733124
_symmetry_space_group_name_H-M "I M M M"
_symmetry_group_IT_number 71
_symmetry_cell_setting 'orthorhombic'
loop_
_space_group_symop_operation_xyz
x,y,z
-x,-y,z
x,-y,-z
-x,y,-z
-x,-y,-z
x,y,-z
-x,y,z
x,-y,z
1/2+x,1/2+y,1/2+z
1/2-x,1/2-y,1/2+z
1/2+x,1/2-y,1/2-z
1/2-x,1/2+y,1/2-z
1/2-x,1/2-y,1/2-z
1/2+x,1/2+y,1/2-z
1/2-x,1/2+y,1/2+z
1/2+x,1/2-y,1/2+z
loop_
_atom_site_type_symbol
_atom_site_label
_atom_site_fract_x
_atom_site_fract_y
_atom_site_fract_z
Si Si1 0.650145 0.084055 0.651292
Si Si2 0.000000 0.411571 0.921343
Si Si3 0.911306 0.087058 0.212560
Si Si4 0.665721 0.913652 0.920898
Si Si5 0.912878 0.639540 0.713603
Si Si6 0.169620 0.859336 0.919717
Si Si7 0.744539 0.793581 0.418407
Si Si8 0.171736 0.219557 0.714613
O O1 0.573715 0.118555 0.618176
O O2 0.641507 0.089222 0.736337
O O3 0.717934 0.130739 0.618508
O O4 0.664996 0.000000 0.628047
O O5 0.000000 0.500000 0.921481
O O6 0.000000 0.378403 0.000000
O O7 0.896551 0.110196 0.130930
O O8 0.854393 0.137324 0.260622
O O9 0.000000 0.101739 0.230213
O O10 0.891707 0.000000 0.224974
O O11 0.606987 0.875465 0.867863
O O12 0.751905 0.898664 0.896959
O O13 0.648438 0.000000 0.921337
O O14 0.653764 0.879795 0.000000
O O15 0.896971 0.725142 0.733970
O O16 0.000000 0.619232 0.727811
O O17 0.180594 0.770446 0.911922
O O18 0.147000 0.880338 0.000000
O O19 0.768300 0.806207 0.500000
O O20 0.818298 0.774567 0.370901
O O21 0.250000 0.250000 0.750000
#
# Coordination Sequence:
#
# PCOD8291356 Si02
#       8
#    16   8  16  16  16  16  16  16
#     4  11  22  36  56  86 120 157 200 244 295 357
#     4   9  18  34  52  72 111 157 190 228 285 350
#     4  11  24  41  63  94 130 166 205 254 317 380
#     4  10  21  37  59  88 123 164 209 256 305 358
#     4  12  23  37  61  90 123 162 204 249 303 369
#     4  10  20  39  64  90 121 160 208 254 302 368
#     4  11  23  40  62  87 118 154 201 258 307 357
#     4  12  22  42  65  90 118 161 209 258 306 362
#
# _framework density 20.081218
#
# number of rings (size 3 to 8) (size 9 to 14) (size 15 to 20)
#    0.000    1.133    4.667    1.600    0.000    3.467 
#    1.200    1.333    0.000    1.200    0.000    0.933 
#    0.000    0.000    0.000    0.000    0.000    0.000 
#
# Total GULP energy -743850.886560 kJ/mol
# GULP energy per Si atom -12397.514776 kJ/mol
# Density = 2.003551 g / cm^3
# Si number density = 20.081218 Si / 1000 Ang^3
#
#
#
# Elastic Constant Matrix: (Units=GPa)
#
#
# Indices 1 2 3 4 5 6 
#
# 1 60.9686 30.2353 31.9945 0.0000 0.0000 0.0000
# 2 30.2353 97.2120 28.0314 0.0000 0.0000 0.0000
# 3 31.9945 28.0314 121.5957 0.0000 0.0000 0.0000
# 4 0.0000 0.0000 0.0000 27.7065 0.0000 0.0000
# 5 0.0000 0.0000 0.0000 0.0000 29.7638 0.0000
# 6 0.0000 0.0000 0.0000 0.0000 0.0000 28.6853
#
#
#
# Elastic Compliance Matrix: (Units=1/GPa)
#
#
# Indices 1 2 3 4 5 6 
#
# 1 0.021371 -0.005383 -0.004382 0.000000 0.000000 0.000000
# 2 -0.005383 0.012375 -0.001436 0.000000 0.000000 0.000000
# 3 -0.004382 -0.001436 0.009708 0.000000 0.000000 0.000000
# 4 0.000000 0.000000 0.000000 0.036093 0.000000 0.000000
# 5 0.000000 0.000000 0.000000 0.000000 0.033598 0.000000
# 6 0.000000 0.000000 0.000000 0.000000 0.000000 0.034861
#
#
# Mechanical properties :
#
#
# Convention : Reuss Voigt Hill
#
# Bulk Modulus (GPa) = 47.50417 51.14432 49.32425
# Shear Modulus (GPa) = 28.18057 29.86545 29.02301
#
# Velocity S-wave (km/s) = 3.75017 3.86065 3.80581
# Velocity P-wave (km/s) = 6.51606 6.73772 6.62782
#
# Compressibility (1/GPa) = 0.02105078
#
# Stress axis : x y z
#
# Youngs Moduli (GPa) = 46.79188 80.80588 103.00599
#
# Poissons Ratio (x) = 0.43501 0.45140
# Poissons Ratio (y) = 0.25190 0.14796
# Poissons Ratio (z) = 0.20505 0.11607
#
# Static dielectric constant tensor:
#      x y z
#    x 3.442320 0.000000 0.000000 
#    y 0.000000 3.650020 0.000000 
#    z 0.000000 0.000000 3.879380 
# 
# 
# High freq. dielectric constant tensor:
#      x y z
#    x 1.754420 0.000000 0.000000 
#    y 0.000000 1.786860 0.000000 
#    z 0.000000 0.000000 1.792580 
# 
# From -- ./inp_files/54325.got.cif
#   From: 2010.06.25/outbox.cif.g09.slc.cpg/sg71_28_cif.got.tgz:54325.got - 2010.06.28 04:59:45.
