data_PCOD8291833
_publ_section_title
;
Structure prediction by ZEFSAII (Michael W. Deem and Ramdas Pophale) SiO2 
 PCOD8291833
Probable space group: I M M M
;
_chemical_formula_sum "Si O2"
_cell_formula_units_Z 72
_cell_length_a 20.163441
_cell_length_b 23.550240
_cell_length_c 7.627648
_cell_angle_alpha 90.000000
_cell_angle_beta 90.000000
_cell_angle_gamma 90.000000
_cell_volume 3622.018208
_symmetry_space_group_name_H-M "I M M M"
_symmetry_group_IT_number 71
_symmetry_cell_setting 'orthorhombic'
loop_
_space_group_symop_operation_xyz
x,y,z
-x,-y,z
x,-y,-z
-x,y,-z
-x,-y,-z
x,y,-z
-x,y,z
x,-y,z
1/2+x,1/2+y,1/2+z
1/2-x,1/2-y,1/2+z
1/2+x,1/2-y,1/2-z
1/2-x,1/2+y,1/2-z
1/2-x,1/2-y,1/2-z
1/2+x,1/2+y,1/2-z
1/2-x,1/2+y,1/2+z
1/2+x,1/2-y,1/2+z
loop_
_atom_site_type_symbol
_atom_site_label
_atom_site_fract_x
_atom_site_fract_y
_atom_site_fract_z
Si Si1 0.924727 0.848646 0.296874
Si Si2 0.075998 0.560888 0.000000
Si Si3 0.606983 0.434215 0.500000
Si Si4 0.864250 0.371288 0.305905
Si Si5 0.262919 0.065190 0.000000
Si Si6 0.672916 0.249995 0.205122
O O1 0.909296 0.864753 0.500000
O O2 0.871306 0.802452 0.222404
O O3 0.000000 0.824311 0.281983
O O4 0.920162 0.904572 0.176245
O O5 0.090672 0.594351 0.824164
O O6 0.113791 0.500000 0.000000
O O7 0.000000 0.548140 0.000000
O O8 0.584012 0.500000 0.500000
O O9 0.685276 0.428945 0.500000
O O10 0.898193 0.368680 0.500000
O O11 0.792625 0.402908 0.327607
O O12 0.855543 0.309061 0.221083
O O13 0.286284 0.000000 0.000000
O O14 0.750000 0.250000 0.250000
O O15 0.664077 0.249675 0.000000
#
# Coordination Sequence:
#
# PCOD8291833 Si02
#       6
#    16   8   8  16   8  16
#     4  10  23  41  61  89 126 164 201 251 311 368
#     4  11  24  39  58  86 118 160 214 257 300 364
#     4  11  23  41  64  92 121 159 211 253 299 369
#     4   9  21  38  59  86 119 159 196 249 311 366
#     4   9  18  37  60  84 120 156 195 250 306 357
#     4  10  21  37  62  93 122 157 202 253 307 366
#
# _framework density 19.878420999999999
#
# number of rings (size 3 to 8) (size 9 to 14) (size 15 to 20)
#    0.667    1.444    0.000    2.333    3.111    2.667 
#    2.000    4.444    0.000    0.000    0.000    0.000 
#    0.000    0.000    0.000    0.000    0.000    0.000 
#
# Total GULP energy -446060.992777 kJ/mol
# GULP energy per Si atom -12390.583133 kJ/mol
# Density = 1.983318 g / cm^3
# Si number density = 19.878421 Si / 1000 Ang^3
#
#
#
# Elastic Constant Matrix: (Units=GPa)
#
#
# Indices 1 2 3 4 5 6 
#
# 1 98.3601 52.9900 30.3282 0.0000 0.0000 0.0000
# 2 52.9900 168.9205 59.0267 0.0000 0.0000 0.0000
# 3 30.3282 59.0267 90.3752 0.0000 0.0000 0.0000
# 4 0.0000 0.0000 0.0000 114.7185 0.0000 0.0000
# 5 0.0000 0.0000 0.0000 0.0000 28.2647 0.0000
# 6 0.0000 0.0000 0.0000 0.0000 0.0000 28.7688
#
#
#
# Elastic Compliance Matrix: (Units=1/GPa)
#
#
# Indices 1 2 3 4 5 6 
#
# 1 0.012541 -0.003192 -0.002124 0.000000 0.000000 0.000000
# 2 -0.003192 0.008483 -0.004469 0.000000 0.000000 0.000000
# 3 -0.002124 -0.004469 0.014697 0.000000 0.000000 0.000000
# 4 0.000000 0.000000 0.000000 0.008717 0.000000 0.000000
# 5 0.000000 0.000000 0.000000 0.000000 0.035380 0.000000
# 6 0.000000 0.000000 0.000000 0.000000 0.000000 0.034760
#
#
# Mechanical properties :
#
#
# Convention : Reuss Voigt Hill
#
# Bulk Modulus (GPa) = 61.91687 71.37175 66.64431
# Shear Modulus (GPa) = 35.83420 48.70446 42.26933
#
# Velocity S-wave (km/s) = 4.25039 4.95524 4.61629
# Velocity P-wave (km/s) = 7.43661 8.28983 7.87478
#
# Compressibility (1/GPa) = 0.01615069
#
# Stress axis : x y z
#
# Youngs Moduli (GPa) = 79.73702 117.88262 68.04238
#
# Poissons Ratio (x) = 0.37629 0.14451
# Poissons Ratio (y) = 0.25452 0.30410
# Poissons Ratio (z) = 0.16934 0.52686
#
# Static dielectric constant tensor:
#      x y z
#    x 3.493920 0.000000 0.000000 
#    y 0.000000 3.987120 0.000000 
#    z 0.000000 0.000000 3.698120 
# 
# 
# High freq. dielectric constant tensor:
#      x y z
#    x 1.768150 0.000000 0.000000 
#    y 0.000000 1.785990 0.000000 
#    z 0.000000 0.000000 1.766910 
# 
# From -- ./inp_files/9976.got.cif
#   From: 2010.06.25/outbox.cif.g09.slc.cpg/sg71_5_cif.got.tgz:9976.got - 2010.06.28 04:59:45.
