data_PCOD8291026
_publ_section_title
;
Structure prediction by ZEFSAII (Michael W. Deem and Ramdas Pophale) SiO2 
 PCOD8291026
Probable space group: I M M M
;
_chemical_formula_sum "Si O2"
_cell_formula_units_Z 72
_cell_length_a 18.175260
_cell_length_b 25.451362
_cell_length_c 7.750254
_cell_angle_alpha 90.000000
_cell_angle_beta 90.000000
_cell_angle_gamma 90.000000
_cell_volume 3585.152190
_symmetry_space_group_name_H-M "I M M M"
_symmetry_group_IT_number 71
_symmetry_cell_setting 'orthorhombic'
loop_
_space_group_symop_operation_xyz
x,y,z
-x,-y,z
x,-y,-z
-x,y,-z
-x,-y,-z
x,y,-z
-x,y,z
x,-y,z
1/2+x,1/2+y,1/2+z
1/2-x,1/2-y,1/2+z
1/2+x,1/2-y,1/2-z
1/2-x,1/2+y,1/2-z
1/2-x,1/2-y,1/2-z
1/2+x,1/2+y,1/2-z
1/2-x,1/2+y,1/2+z
1/2+x,1/2-y,1/2+z
loop_
_atom_site_type_symbol
_atom_site_label
_atom_site_fract_x
_atom_site_fract_y
_atom_site_fract_z
Si Si1 0.412752 0.392677 0.500000
Si Si2 0.084436 0.702594 0.691090
Si Si3 0.664926 0.896655 0.695510
Si Si4 0.087215 0.225670 0.000000
Si Si5 0.586802 0.000000 0.197113
Si Si6 0.677934 0.438617 0.197875
O O1 0.500000 0.394603 0.500000
O O2 0.381481 0.333255 0.500000
O O3 0.386514 0.421528 0.673599
O O4 0.090301 0.727776 0.500000
O O5 0.131563 0.649370 0.688370
O O6 0.115743 0.744456 0.828653
O O7 0.000000 0.688058 0.735853
O O8 0.662136 0.876744 0.500000
O O9 0.748418 0.907885 0.752664
O O10 0.616991 0.948870 0.708991
O O11 0.000000 0.223181 0.000000
O O12 0.500000 0.000000 0.213165
O O13 0.613485 0.000000 0.000000
O O14 0.694117 0.500000 0.219488
O O15 0.655051 0.425888 0.000000
#
# Coordination Sequence:
#
# PCOD8291026 Si02
#       6
#     8  16  16   8   8  16
#     4  11  25  44  71  96 115 152 205 257 322 387
#     4  10  20  35  59  88 123 168 211 252 298 344
#     4  11  21  36  58  84 123 172 210 248 298 356
#     4   9  20  41  62  88 122 157 206 262 308 359
#     4  11  23  33  49  87 127 166 219 259 290 346
#     4  10  23  42  64  93 127 163 198 245 314 379
#
# _framework density 20.082830000000001
#
# number of rings (size 3 to 8) (size 9 to 14) (size 15 to 20)
#    0.000    1.667    2.222    2.000    3.111    5.778 
#    0.000    4.444    0.000    0.000    0.000    0.000 
#    0.000    0.000    0.000    0.000    0.000    0.000 
#
# Total GULP energy -446498.567590 kJ/mol
# GULP energy per Si atom -12402.737989 kJ/mol
# Density = 2.003712 g / cm^3
# Si number density = 20.082830 Si / 1000 Ang^3
#
#
#
# Elastic Constant Matrix: (Units=GPa)
#
#
# Indices 1 2 3 4 5 6 
#
# 1 79.3995 25.3349 46.7822 0.0000 0.0000 0.0000
# 2 25.3349 80.9610 48.1719 0.0000 0.0000 0.0000
# 3 46.7822 48.1719 129.0186 0.0000 0.0000 0.0000
# 4 0.0000 0.0000 0.0000 25.0129 0.0000 0.0000
# 5 0.0000 0.0000 0.0000 0.0000 27.3488 0.0000
# 6 0.0000 0.0000 0.0000 0.0000 0.0000 -1.7420
#
#
#
# Elastic Compliance Matrix: (Units=1/GPa)
#
#
# Indices 1 2 3 4 5 6 
#
# 1 0.016272 -0.002033 -0.005141 0.000000 0.000000 0.000000
# 2 -0.002033 0.016133 -0.005287 0.000000 0.000000 0.000000
# 3 -0.005141 -0.005287 0.011589 0.000000 0.000000 0.000000
# 4 0.000000 0.000000 0.000000 0.039979 0.000000 0.000000
# 5 0.000000 0.000000 0.000000 0.000000 0.036565 0.000000
# 6 0.000000 0.000000 0.000000 0.000000 0.000000 -0.574037
#
#
# Mechanical properties :
#
#
# Convention : Reuss Voigt Hill
#
# Bulk Modulus (GPa) = 52.43030 58.88411 55.65721
# Shear Modulus (GPa) = -11.84219 21.39661 4.77721
#
# Velocity S-wave (km/s) = -2.43094 3.26762 1.54399
# Velocity P-wave (km/s) = 4.27603 6.60460 5.56350
#
# Compressibility (1/GPa) = 0.01907294
#
# Stress axis : x y z
#
# Youngs Moduli (GPa) = 61.45339 61.98355 86.28929
#
# Poissons Ratio (x) = 0.12601 0.44364
# Poissons Ratio (y) = 0.12493 0.45617
# Poissons Ratio (z) = 0.31595 0.32768
#
# Static dielectric constant tensor:
#      x y z
#    x 3.409480 0.000000 0.000000 
#    y 0.000000 3.636220 0.000000 
#    z 0.000000 0.000000 3.806450 
# 
# 
# High freq. dielectric constant tensor:
#      x y z
#    x 1.765460 0.000000 0.000000 
#    y 0.000000 1.777830 0.000000 
#    z 0.000000 0.000000 1.799680 
# 
# From -- ./inp_files/8026.got.cif
#   From: 2010.06.25/outbox.cif.g09.slc.cpg/sg71_5_cif.got.tgz:8026.got - 2010.06.28 04:59:45.
