data_PCOD8291036
_publ_section_title
;
Structure prediction by ZEFSAII (Michael W. Deem and Ramdas Pophale) SiO2 
 PCOD8291036
Probable space group: I M M M
;
_chemical_formula_sum "Si O2"
_cell_formula_units_Z 72
_cell_length_a 22.417124
_cell_length_b 18.889371
_cell_length_c 8.892888
_cell_angle_alpha 90.000000
_cell_angle_beta 90.000000
_cell_angle_gamma 90.000000
_cell_volume 3765.652267
_symmetry_space_group_name_H-M "I M M M"
_symmetry_group_IT_number 71
_symmetry_cell_setting 'orthorhombic'
loop_
_space_group_symop_operation_xyz
x,y,z
-x,-y,z
x,-y,-z
-x,y,-z
-x,-y,-z
x,y,-z
-x,y,z
x,-y,z
1/2+x,1/2+y,1/2+z
1/2-x,1/2-y,1/2+z
1/2+x,1/2-y,1/2-z
1/2-x,1/2+y,1/2-z
1/2-x,1/2-y,1/2-z
1/2+x,1/2+y,1/2-z
1/2-x,1/2+y,1/2+z
1/2+x,1/2-y,1/2+z
loop_
_atom_site_type_symbol
_atom_site_label
_atom_site_fract_x
_atom_site_fract_y
_atom_site_fract_z
Si Si1 0.162716 0.916895 0.826123
Si Si2 0.739609 0.824795 0.673110
Si Si3 0.000000 0.578846 0.821844
Si Si4 0.431898 0.677132 0.177456
Si Si5 0.104187 0.680332 0.172865
O O1 0.221189 0.884737 0.750224
O O2 0.102399 0.888067 0.751949
O O3 0.164349 0.000000 0.800729
O O4 0.162902 0.895421 0.000000
O O5 0.758649 0.817957 0.500000
O O6 0.750000 0.750000 0.750000
O O7 0.671026 0.849063 0.689353
O O8 0.941142 0.620522 0.766631
O O9 0.000000 0.500000 0.750554
O O10 0.000000 0.572621 0.000000
O O11 0.500000 0.674734 0.232828
O O12 0.401694 0.749983 0.227369
O O13 0.426919 0.670288 0.000000
O O14 0.089625 0.699994 0.000000
#
# Coordination Sequence:
#
# PCOD8291036 Si02
#       5
#    16  16   8  16  16
#     4  11  25  43  62  87 121 161 204 252 306 360
#     4  11  22  36  60  92 122 158 203 248 297 358
#     4   9  18  34  57  87 120 153 194 243 291 344
#     4  11  23  38  61  91 120 155 198 248 306 368
#     4  10  20  35  60  89 118 157 200 245 294 353
#
# _framework density 19.120193
#
# number of rings (size 3 to 8) (size 9 to 14) (size 15 to 20)
#    0.000    1.444    3.333    2.000    0.000    5.333 
#    0.000    4.444    0.000    1.333    0.000    0.000 
#    0.000    0.000    0.000    0.000    0.000    0.000 
#
# Total GULP energy -446569.461947 kJ/mol
# GULP energy per Si atom -12404.707276 kJ/mol
# Density = 1.907667 g / cm^3
# Si number density = 19.120193 Si / 1000 Ang^3
#
#
#
# Elastic Constant Matrix: (Units=GPa)
#
#
# Indices 1 2 3 4 5 6 
#
# 1 124.2706 40.4390 44.0562 0.0000 0.0000 0.0000
# 2 40.4390 89.8999 45.1922 0.0000 0.0000 0.0000
# 3 44.0562 45.1922 96.3099 0.0000 0.0000 0.0000
# 4 0.0000 0.0000 0.0000 25.0537 0.0000 0.0000
# 5 0.0000 0.0000 0.0000 0.0000 28.6988 0.0000
# 6 0.0000 0.0000 0.0000 0.0000 0.0000 37.4057
#
#
#
# Elastic Compliance Matrix: (Units=1/GPa)
#
#
# Indices 1 2 3 4 5 6 
#
# 1 0.010160 -0.002923 -0.003276 0.000000 0.000000 0.000000
# 2 -0.002923 0.015398 -0.005888 0.000000 0.000000 0.000000
# 3 -0.003276 -0.005888 0.014645 0.000000 0.000000 0.000000
# 4 0.000000 0.000000 0.000000 0.039914 0.000000 0.000000
# 5 0.000000 0.000000 0.000000 0.000000 0.034845 0.000000
# 6 0.000000 0.000000 0.000000 0.000000 0.000000 0.026734
#
#
# Mechanical properties :
#
#
# Convention : Reuss Voigt Hill
#
# Bulk Modulus (GPa) = 62.39071 63.31724 62.85398
# Shear Modulus (GPa) = 29.20346 30.28451 29.74399
#
# Velocity S-wave (km/s) = 3.91239 3.98414 3.94843
# Velocity P-wave (km/s) = 7.28771 7.37237 7.33016
#
# Compressibility (1/GPa) = 0.01602803
#
# Stress axis : x y z
#
# Youngs Moduli (GPa) = 98.42990 64.94160 68.28467
#
# Poissons Ratio (x) = 0.18984 0.22368
# Poissons Ratio (y) = 0.28774 0.40208
# Poissons Ratio (z) = 0.32242 0.38239
#
# Static dielectric constant tensor:
#      x y z
#    x 3.858870 0.000000 0.000000 
#    y 0.000000 3.451540 0.000000 
#    z 0.000000 0.000000 3.532670 
# 
# 
# High freq. dielectric constant tensor:
#      x y z
#    x 1.763420 0.000000 0.000000 
#    y 0.000000 1.737240 0.000000 
#    z 0.000000 0.000000 1.741620 
# 
# From -- ./inp_files/12178.got.cif
#   From: 2010.06.25/outbox.cif.g09.slc.cpg/sg71_7_cif.got.tgz:12178.got - 2010.06.28 04:59:45.
