data_PCOD8291324
_publ_section_title
;
Structure prediction by ZEFSAII (Michael W. Deem and Ramdas Pophale) SiO2 
 PCOD8291324
Probable space group: I M M M
;
_chemical_formula_sum "Si O2"
_cell_formula_units_Z 72
_cell_length_a 8.021468
_cell_length_b 14.912970
_cell_length_c 30.376233
_cell_angle_alpha 90.000000
_cell_angle_beta 90.000000
_cell_angle_gamma 90.000000
_cell_volume 3633.723812
_symmetry_space_group_name_H-M "I M M M"
_symmetry_group_IT_number 71
_symmetry_cell_setting 'orthorhombic'
loop_
_space_group_symop_operation_xyz
x,y,z
-x,-y,z
x,-y,-z
-x,y,-z
-x,-y,-z
x,y,-z
-x,y,z
x,-y,z
1/2+x,1/2+y,1/2+z
1/2-x,1/2-y,1/2+z
1/2+x,1/2-y,1/2-z
1/2-x,1/2+y,1/2-z
1/2-x,1/2-y,1/2-z
1/2+x,1/2+y,1/2-z
1/2-x,1/2+y,1/2+z
1/2+x,1/2-y,1/2+z
loop_
_atom_site_type_symbol
_atom_site_label
_atom_site_fract_x
_atom_site_fract_y
_atom_site_fract_z
Si Si1 0.697943 0.500000 0.670208
Si Si2 0.311864 0.715204 0.050441
Si Si3 0.500000 0.901959 0.551952
Si Si4 0.695093 0.500000 0.768065
Si Si5 0.804852 0.693505 0.792228
Si Si6 0.698303 0.683834 0.371309
O O1 0.500000 0.500000 0.673671
O O2 0.775704 0.500000 0.719299
O O3 0.761405 0.412660 0.644803
O O4 0.500000 0.675298 0.054733
O O5 0.171070 0.645459 0.067263
O O6 0.289781 0.800787 0.081994
O O7 0.277627 0.744226 0.000000
O O8 0.500000 0.909885 0.500000
O O9 0.500000 0.000000 0.573935
O O10 0.500000 0.500000 0.763482
O O11 0.747065 0.590365 0.793263
O O12 0.750000 0.750000 0.750000
O O13 0.738010 0.741978 0.836244
O O14 0.000000 0.696370 0.793137
O O15 0.500000 0.686522 0.377653
#
# Coordination Sequence:
#
# PCOD8291324 Si02
#       6
#     8  16   8   8  16  16
#     4   9  18  35  60  86 113 154 203 243 294 362
#     4  10  21  38  61  88 120 158 201 248 301 360
#     4   9  18  36  62  87 115 153 195 244 300 353
#     4  11  21  39  59  82 119 158 196 245 296 348
#     4  11  22  37  59  86 117 154 196 241 295 356
#     4  10  20  38  61  85 118 159 200 246 301 359
#
# _framework density 19.814384
#
# number of rings (size 3 to 8) (size 9 to 14) (size 15 to 20)
#    0.000    1.889    3.333    1.000    0.000    2.222 
#    2.000    3.333    0.000    3.333    0.000    0.000 
#    0.000    0.000    0.000    0.000    0.000    0.000 
#
# Total GULP energy -446265.609859 kJ/mol
# GULP energy per Si atom -12396.266941 kJ/mol
# Density = 1.976929 g / cm^3
# Si number density = 19.814384 Si / 1000 Ang^3
#
#
#
# Elastic Constant Matrix: (Units=GPa)
#
#
# Indices 1 2 3 4 5 6 
#
# 1 82.9050 38.2356 35.5085 0.0000 0.0000 0.0000
# 2 38.2356 171.2787 69.8309 0.0000 0.0000 0.0000
# 3 35.5085 69.8309 111.3735 0.0000 0.0000 0.0000
# 4 0.0000 0.0000 0.0000 25.0738 0.0000 0.0000
# 5 0.0000 0.0000 0.0000 0.0000 26.9857 0.0000
# 6 0.0000 0.0000 0.0000 0.0000 0.0000 24.4984
#
#
#
# Elastic Compliance Matrix: (Units=1/GPa)
#
#
# Indices 1 2 3 4 5 6 
#
# 1 0.014371 -0.001800 -0.003453 0.000000 0.000000 0.000000
# 2 -0.001800 0.008069 -0.004485 0.000000 0.000000 0.000000
# 3 -0.003453 -0.004485 0.012892 0.000000 0.000000 0.000000
# 4 0.000000 0.000000 0.000000 0.039882 0.000000 0.000000
# 5 0.000000 0.000000 0.000000 0.000000 0.037057 0.000000
# 6 0.000000 0.000000 0.000000 0.000000 0.000000 0.040819
#
#
# Mechanical properties :
#
#
# Convention : Reuss Voigt Hill
#
# Bulk Modulus (GPa) = 63.07212 72.52303 67.79757
# Shear Modulus (GPa) = 28.11320 30.11041 29.11181
#
# Velocity S-wave (km/s) = 3.77082 3.90246 3.83721
# Velocity P-wave (km/s) = 7.13157 7.54893 7.34322
#
# Compressibility (1/GPa) = 0.01585487
#
# Stress axis : x y z
#
# Youngs Moduli (GPa) = 69.58319 123.93129 77.56776
#
# Poissons Ratio (x) = 0.22312 0.26785
# Poissons Ratio (y) = 0.12527 0.34791
# Poissons Ratio (z) = 0.24028 0.55586
#
# Static dielectric constant tensor:
#      x y z
#    x 3.580950 0.000000 0.000000 
#    y 0.000000 6.451680 0.000000 
#    z 0.000000 0.000000 3.736120 
# 
# 
# High freq. dielectric constant tensor:
#      x y z
#    x 1.771230 0.000000 0.000000 
#    y 0.000000 1.765180 0.000000 
#    z 0.000000 0.000000 1.769010 
# 
# From -- ./inp_files/67882.got.cif
#   From: 2010.06.25/outbox.cif.g09.slc.cpg/sg71_34_cif.got.tgz:67882.got - 2010.06.28 04:59:45.
