data_PCOD8291820
_publ_section_title
;
Structure prediction by ZEFSAII (Michael W. Deem and Ramdas Pophale) SiO2 
 PCOD8291820
Probable space group: I M M M
;
_chemical_formula_sum "Si O2"
_cell_formula_units_Z 88
_cell_length_a 8.686757
_cell_length_b 22.586146
_cell_length_c 22.162249
_cell_angle_alpha 90.000000
_cell_angle_beta 90.000000
_cell_angle_gamma 90.000000
_cell_volume 4348.241274
_symmetry_space_group_name_H-M "I M M M"
_symmetry_group_IT_number 71
_symmetry_cell_setting 'orthorhombic'
loop_
_space_group_symop_operation_xyz
x,y,z
-x,-y,z
x,-y,-z
-x,y,-z
-x,-y,-z
x,y,-z
-x,y,z
x,-y,z
1/2+x,1/2+y,1/2+z
1/2-x,1/2-y,1/2+z
1/2+x,1/2-y,1/2-z
1/2-x,1/2+y,1/2-z
1/2-x,1/2-y,1/2-z
1/2+x,1/2+y,1/2-z
1/2-x,1/2+y,1/2+z
1/2+x,1/2-y,1/2+z
loop_
_atom_site_type_symbol
_atom_site_label
_atom_site_fract_x
_atom_site_fract_y
_atom_site_fract_z
Si Si1 0.676159 0.855958 0.663130
Si Si2 0.172692 0.930988 0.432745
Si Si3 0.175965 0.933403 0.760794
Si Si4 0.817834 0.431899 0.500000
Si Si5 0.323164 0.373357 0.617686
Si Si6 0.680165 0.239175 0.183782
O O1 0.500000 0.835765 0.666213
O O2 0.700684 0.902028 0.609611
O O3 0.717882 0.886173 0.726889
O O4 0.782810 0.799596 0.648222
O O5 0.191072 0.905271 0.500000
O O6 0.000000 0.918410 0.408541
O O7 0.206154 0.000000 0.432943
O O8 0.192571 0.924634 0.832331
O O9 0.000000 0.923057 0.740257
O O10 0.228675 0.000000 0.744760
O O11 0.754455 0.500000 0.500000
O O12 0.763256 0.395831 0.441547
O O13 0.000000 0.432878 0.500000
O O14 0.500000 0.361232 0.600817
O O15 0.253571 0.313643 0.645560
O O16 0.500000 0.227708 0.189563
O O17 0.750000 0.250000 0.250000
#
# Coordination Sequence:
#
# PCOD8291820 Si02
#       6
#    16  16  16   8  16  16
#     4  12  24  37  58  89 124 163 205 253 310 372
#     4   9  19  38  62  86 117 159 204 250 304 365
#     4  10  21  37  60  90 124 162 204 254 313 374
#     4  11  25  45  69  99 137 179 222 271 326 389
#     4  11  23  42  68  96 127 168 216 268 324 382
#     4  12  24  42  66  92 124 163 206 255 314 380
#
# _framework density 20.238067999999998
#
# number of rings (size 3 to 8) (size 9 to 14) (size 15 to 20)
#    0.000    1.182    1.818    5.727    0.000    5.455 
#    1.636    0.909    0.000    0.000    0.000    0.000 
#    0.000    0.000    0.000    0.000    0.000    0.000 
#
# Total GULP energy -545656.959433 kJ/mol
# GULP energy per Si atom -12401.294533 kJ/mol
# Density = 2.019200 g / cm^3
# Si number density = 20.238068 Si / 1000 Ang^3
#
#
#
# Elastic Constant Matrix: (Units=GPa)
#
#
# Indices 1 2 3 4 5 6 
#
# 1 103.5639 39.7968 36.6849 0.0000 0.0000 0.0000
# 2 39.7968 109.5458 46.1136 0.0000 0.0000 0.0000
# 3 36.6849 46.1136 119.3770 0.0000 0.0000 0.0000
# 4 0.0000 0.0000 0.0000 30.3766 0.0000 0.0000
# 5 0.0000 0.0000 0.0000 0.0000 30.1586 0.0000
# 6 0.0000 0.0000 0.0000 0.0000 0.0000 30.5553
#
#
#
# Elastic Compliance Matrix: (Units=1/GPa)
#
#
# Indices 1 2 3 4 5 6 
#
# 1 0.011746 -0.003281 -0.002342 0.000000 0.000000 0.000000
# 2 -0.003281 0.011818 -0.003557 0.000000 0.000000 0.000000
# 3 -0.002342 -0.003557 0.010470 0.000000 0.000000 0.000000
# 4 0.000000 0.000000 0.000000 0.032920 0.000000 0.000000
# 5 0.000000 0.000000 0.000000 0.000000 0.033158 0.000000
# 6 0.000000 0.000000 0.000000 0.000000 0.000000 0.032728
#
#
# Mechanical properties :
#
#
# Convention : Reuss Voigt Hill
#
# Bulk Modulus (GPa) = 63.79870 64.18637 63.99253
# Shear Modulus (GPa) = 31.96400 32.21084 32.08742
#
# Velocity S-wave (km/s) = 3.97848 3.99381 3.98615
# Velocity P-wave (km/s) = 7.25926 7.28367 7.27148
#
# Compressibility (1/GPa) = 0.01567430
#
# Stress axis : x y z
#
# Youngs Moduli (GPa) = 85.13179 84.61730 95.50660
#
# Poissons Ratio (x) = 0.27767 0.22369
# Poissons Ratio (y) = 0.27935 0.33969
# Poissons Ratio (z) = 0.19939 0.30096
#
# Static dielectric constant tensor:
#      x y z
#    x 3.648220 0.000000 0.000000 
#    y 0.000000 3.911150 0.000000 
#    z 0.000000 0.000000 3.694410 
# 
# 
# High freq. dielectric constant tensor:
#      x y z
#    x 1.790220 0.000000 0.000000 
#    y 0.000000 1.799210 0.000000 
#    z 0.000000 0.000000 1.790630 
# 
# From -- ./inp_files/10399.got.cif
#   From: 2010.06.25/outbox.cif.g09.slc.cpg/sg71_6_cif.got.tgz:10399.got - 2010.06.28 04:59:45.
