data_PCOD8291766
_publ_section_title
;
Structure prediction by ZEFSAII (Michael W. Deem and Ramdas Pophale) SiO2 
 PCOD8291766
Probable space group: I M M M
;
_chemical_formula_sum "Si O2"
_cell_formula_units_Z 72
_cell_length_a 21.584510
_cell_length_b 23.076859
_cell_length_c 7.758515
_cell_angle_alpha 90.000000
_cell_angle_beta 90.000000
_cell_angle_gamma 90.000000
_cell_volume 3864.537222
_symmetry_space_group_name_H-M "I M M M"
_symmetry_group_IT_number 71
_symmetry_cell_setting 'orthorhombic'
loop_
_space_group_symop_operation_xyz
x,y,z
-x,-y,z
x,-y,-z
-x,y,-z
-x,-y,-z
x,y,-z
-x,y,z
x,-y,z
1/2+x,1/2+y,1/2+z
1/2-x,1/2-y,1/2+z
1/2+x,1/2-y,1/2-z
1/2-x,1/2+y,1/2-z
1/2-x,1/2-y,1/2-z
1/2+x,1/2+y,1/2-z
1/2-x,1/2+y,1/2+z
1/2+x,1/2-y,1/2+z
loop_
_atom_site_type_symbol
_atom_site_label
_atom_site_fract_x
_atom_site_fract_y
_atom_site_fract_z
Si Si1 0.428095 0.753693 0.802898
Si Si2 0.761576 0.065988 0.190972
Si Si3 0.572272 0.839408 0.500000
Si Si4 0.500000 0.568233 0.301587
Si Si5 0.174032 0.432015 0.000000
Si Si6 0.377677 0.630463 0.804681
O O1 0.500000 0.737592 0.780437
O O2 0.408968 0.804244 0.671890
O O3 0.389382 0.696894 0.751365
O O4 0.414317 0.773238 0.000000
O O5 0.711795 0.087358 0.330357
O O6 0.823127 0.104876 0.188603
O O7 0.781252 0.000000 0.233810
O O8 0.731798 0.070439 0.000000
O O9 0.500000 0.854808 0.500000
O O10 0.608816 0.899442 0.500000
O O11 0.500000 0.500000 0.276231
O O12 0.500000 0.586754 0.500000
O O13 0.560346 0.593461 0.211619
O O14 0.159333 0.500000 0.000000
O O15 0.354645 0.626796 0.000000
#
# Coordination Sequence:
#
# PCOD8291766 Si02
#       6
#    16  16   8   8   8  16
#     4   9  19  35  55  83 116 153 191 231 280 337
#     4  10  21  37  58  81 113 158 197 234 285 338
#     4  10  22  39  66  92 111 145 180 228 300 354
#     4  11  23  31  43  77 117 155 207 259 287 320
#     4  10  22  43  64  87 116 142 183 235 289 357
#     4  11  20  33  54  78 112 159 204 245 284 325
#
# _framework density 18.630951
#
# number of rings (size 3 to 8) (size 9 to 14) (size 15 to 20)
#    0.000    1.889    2.222    1.667    3.111    4.667 
#    0.000    1.111    0.000    0.000    0.000    6.222 
#    0.000    0.000    0.000    0.000    0.000    0.000 
#
# Total GULP energy -446476.909439 kJ/mol
# GULP energy per Si atom -12402.136373 kJ/mol
# Density = 1.858855 g / cm^3
# Si number density = 18.630951 Si / 1000 Ang^3
#
#
#
# Elastic Constant Matrix: (Units=GPa)
#
#
# Indices 1 2 3 4 5 6 
#
# 1 84.7049 55.4220 42.2579 0.0000 0.0000 0.0000
# 2 55.4220 82.3552 46.0490 0.0000 0.0000 0.0000
# 3 42.2579 46.0490 111.2583 0.0000 0.0000 0.0000
# 4 0.0000 0.0000 0.0000 22.8896 0.0000 0.0000
# 5 0.0000 0.0000 0.0000 0.0000 88.3222 0.0000
# 6 0.0000 0.0000 0.0000 0.0000 0.0000 26.6008
#
#
#
# Elastic Compliance Matrix: (Units=1/GPa)
#
#
# Indices 1 2 3 4 5 6 
#
# 1 0.021776 -0.013050 -0.002870 0.000000 0.000000 0.000000
# 2 -0.013050 0.023619 -0.004819 0.000000 0.000000 0.000000
# 3 -0.002870 -0.004819 0.012073 0.000000 0.000000 0.000000
# 4 0.000000 0.000000 0.000000 0.043688 0.000000 0.000000
# 5 0.000000 0.000000 0.000000 0.000000 0.011322 0.000000
# 6 0.000000 0.000000 0.000000 0.000000 0.000000 0.037593
#
#
# Mechanical properties :
#
#
# Convention : Reuss Voigt Hill
#
# Bulk Modulus (GPa) = 62.53772 62.86402 62.70087
# Shear Modulus (GPa) = 25.39643 36.53514 30.96579
#
# Velocity S-wave (km/s) = 3.69607 4.43311 4.08126
# Velocity P-wave (km/s) = 7.20097 7.74715 7.47905
#
# Compressibility (1/GPa) = 0.01599035
#
# Stress axis : x y z
#
# Youngs Moduli (GPa) = 45.92287 42.33840 82.83147
#
# Poissons Ratio (x) = 0.55250 0.23769
# Poissons Ratio (y) = 0.59928 0.39919
# Poissons Ratio (z) = 0.13178 0.20404
#
# Static dielectric constant tensor:
#      x y z
#    x 3.130270 0.000000 0.000000 
#    y 0.000000 3.225290 0.000000 
#    z 0.000000 0.000000 3.676030 
# 
# 
# High freq. dielectric constant tensor:
#      x y z
#    x 1.696300 0.000000 0.000000 
#    y 0.000000 1.709420 0.000000 
#    z 0.000000 0.000000 1.742590 
# 
# From -- ./inp_files/10149.got.cif
#   From: 2010.06.25/outbox.cif.g09.slc.cpg/sg71_6_cif.got.tgz:10149.got - 2010.06.28 04:59:45.
