data_PCOD8291701
_publ_section_title
;
Structure prediction by ZEFSAII (Michael W. Deem and Ramdas Pophale) SiO2 
 PCOD8291701
Probable space group: I M M M
;
_chemical_formula_sum "Si O2"
_cell_formula_units_Z 88
_cell_length_a 24.186077
_cell_length_b 22.873394
_cell_length_c 8.781088
_cell_angle_alpha 90.000000
_cell_angle_beta 90.000000
_cell_angle_gamma 90.000000
_cell_volume 4857.853031
_symmetry_space_group_name_H-M "I M M M"
_symmetry_group_IT_number 71
_symmetry_cell_setting 'orthorhombic'
loop_
_space_group_symop_operation_xyz
x,y,z
-x,-y,z
x,-y,-z
-x,y,-z
-x,-y,-z
x,y,-z
-x,y,z
x,-y,z
1/2+x,1/2+y,1/2+z
1/2-x,1/2-y,1/2+z
1/2+x,1/2-y,1/2-z
1/2-x,1/2+y,1/2-z
1/2-x,1/2-y,1/2-z
1/2+x,1/2+y,1/2-z
1/2-x,1/2+y,1/2+z
1/2+x,1/2-y,1/2+z
loop_
_atom_site_type_symbol
_atom_site_label
_atom_site_fract_x
_atom_site_fract_y
_atom_site_fract_z
Si Si1 0.644726 0.564575 0.681004
Si Si2 0.125086 0.608048 0.177819
Si Si3 0.768628 0.431628 0.674927
Si Si4 0.063999 0.286687 0.676937
Si Si5 0.563428 0.335718 0.322950
Si Si6 0.062557 0.500000 0.680067
O O1 0.643148 0.561784 0.500000
O O2 0.629698 0.500000 0.745565
O O3 0.706602 0.582291 0.732606
O O4 0.600866 0.611618 0.742264
O O5 0.189612 0.605635 0.222046
O O6 0.101449 0.670658 0.224016
O O7 0.092150 0.557982 0.264244
O O8 0.117924 0.598305 0.000000
O O9 0.776260 0.412653 0.500000
O O10 0.781903 0.500000 0.693824
O O11 0.077741 0.294888 0.500000
O O12 0.078673 0.221120 0.726183
O O13 0.000000 0.300570 0.711371
O O14 0.575735 0.322940 0.500000
O O15 0.500000 0.354189 0.298478
O O16 0.064411 0.500000 0.500000
O O17 0.000000 0.500000 0.741436
#
# Coordination Sequence:
#
# PCOD8291701 Si02
#       6
#    16  16  16  16  16   8
#     4   8  15  29  52  82 110 139 175 211 255 311
#     4  12  23  34  52  78 105 133 173 223 269 307
#     4   9  17  32  53  73 101 142 181 214 254 310
#     4  10  21  37  55  73  99 139 181 215 257 319
#     4   9  17  31  53  81 111 138 169 215 264 309
#     4  11  23  37  53  75 105 139 174 211 256 313
#
# _framework density 18.114999999999998
#
# number of rings (size 3 to 8) (size 9 to 14) (size 15 to 20)
#    0.000    2.273    0.909    4.091    0.000    4.364 
#    0.000    3.636    0.000    1.636    0.000    2.545 
#    0.000    0.000    0.000    0.000    0.000    0.000 
#
# Total GULP energy -545657.585545 kJ/mol
# GULP energy per Si atom -12401.308762 kJ/mol
# Density = 1.807377 g / cm^3
# Si number density = 18.115000 Si / 1000 Ang^3
#
#
#
# Elastic Constant Matrix: (Units=GPa)
#
#
# Indices 1 2 3 4 5 6 
#
# 1 110.2216 67.8286 26.2621 0.0000 0.0000 0.0000
# 2 67.8286 95.8114 20.1422 0.0000 0.0000 0.0000
# 3 26.2621 20.1422 47.5712 0.0000 0.0000 0.0000
# 4 0.0000 0.0000 0.0000 21.5229 0.0000 0.0000
# 5 0.0000 0.0000 0.0000 0.0000 15.1986 0.0000
# 6 0.0000 0.0000 0.0000 0.0000 0.0000 23.7241
#
#
#
# Elastic Compliance Matrix: (Units=1/GPa)
#
#
# Indices 1 2 3 4 5 6 
#
# 1 0.016984 -0.011035 -0.004704 0.000000 0.000000 0.000000
# 2 -0.011035 0.018626 -0.001795 0.000000 0.000000 0.000000
# 3 -0.004704 -0.001795 0.024378 0.000000 0.000000 0.000000
# 4 0.000000 0.000000 0.000000 0.046462 0.000000 0.000000
# 5 0.000000 0.000000 0.000000 0.000000 0.065796 0.000000
# 6 0.000000 0.000000 0.000000 0.000000 0.000000 0.042151
#
#
# Mechanical properties :
#
#
# Convention : Reuss Voigt Hill
#
# Bulk Modulus (GPa) = 40.12622 53.56335 46.84479
# Shear Modulus (GPa) = 19.39701 21.38053 20.38877
#
# Velocity S-wave (km/s) = 3.27581 3.43923 3.35851
# Velocity P-wave (km/s) = 6.04209 6.73823 6.39963
#
# Compressibility (1/GPa) = 0.02492136
#
# Stress axis : x y z
#
# Youngs Moduli (GPa) = 58.87876 53.68712 41.02071
#
# Poissons Ratio (x) = 0.59243 0.19296
# Poissons Ratio (y) = 0.64971 0.07362
# Poissons Ratio (z) = 0.27696 0.09636
#
# Static dielectric constant tensor:
#      x y z
#    x 3.543250 0.000000 0.000000 
#    y 0.000000 3.452300 0.000000 
#    z 0.000000 0.000000 3.153520 
# 
# 
# High freq. dielectric constant tensor:
#      x y z
#    x 1.705810 0.000000 0.000000 
#    y 0.000000 1.694780 0.000000 
#    z 0.000000 0.000000 1.684320 
# 
# From -- ./inp_files/10403.got.cif
#   From: 2010.06.25/outbox.cif.g09.slc.cpg/sg71_6_cif.got.tgz:10403.got - 2010.06.28 04:59:45.
