data_PCOD8291288
_publ_section_title
;
Structure prediction by ZEFSAII (Michael W. Deem and Ramdas Pophale) SiO2 
 PCOD8291288
Probable space group: I M M M
;
_chemical_formula_sum "Si O2"
_cell_formula_units_Z 64
_cell_length_a 8.614444
_cell_length_b 23.919519
_cell_length_c 15.629990
_cell_angle_alpha 90.000000
_cell_angle_beta 90.000000
_cell_angle_gamma 90.000000
_cell_volume 3220.611908
_symmetry_space_group_name_H-M "I M M M"
_symmetry_group_IT_number 71
_symmetry_cell_setting 'orthorhombic'
loop_
_space_group_symop_operation_xyz
x,y,z
-x,-y,z
x,-y,-z
-x,y,-z
-x,-y,-z
x,y,-z
-x,y,z
x,-y,z
1/2+x,1/2+y,1/2+z
1/2-x,1/2-y,1/2+z
1/2+x,1/2-y,1/2-z
1/2-x,1/2+y,1/2-z
1/2-x,1/2-y,1/2-z
1/2+x,1/2+y,1/2-z
1/2-x,1/2+y,1/2+z
1/2+x,1/2-y,1/2+z
loop_
_atom_site_type_symbol
_atom_site_label
_atom_site_fract_x
_atom_site_fract_y
_atom_site_fract_z
Si Si1 0.815271 0.500000 0.676041
Si Si2 0.816597 0.500000 0.866627
Si Si3 0.317315 0.726076 0.663076
Si Si4 0.182551 0.615776 0.401263
Si Si5 0.683709 0.908828 0.500000
Si Si6 0.681854 0.287862 0.000000
O O1 0.744275 0.500000 0.771793
O O2 0.756226 0.554763 0.626283
O O3 0.000000 0.500000 0.678701
O O4 0.765586 0.444118 0.916530
O O5 0.000000 0.500000 0.861751
O O6 0.500000 0.732461 0.664636
O O7 0.250000 0.750000 0.750000
O O8 0.270896 0.661252 0.655539
O O9 0.252181 0.760637 0.584037
O O10 0.223848 0.625590 0.500000
O O11 0.000000 0.621701 0.384498
O O12 0.500000 0.895566 0.500000
O O13 0.783193 0.853189 0.500000
O O14 0.500000 0.276419 0.000000
#
# Coordination Sequence:
#
# PCOD8291288 Si02
#       6
#     8   8  16  16   8   8
#     4   9  18  32  57  90 120 161 207 251 303 367
#     4   8  16  32  54  86 122 159 205 251 300 368
#     4  12  26  44  66  93 127 168 212 262 319 377
#     4  10  20  37  61  90 126 163 206 256 308 371
#     4   9  18  34  58  86 121 163 205 250 305 367
#     4  12  25  43  65  95 129 166 211 260 316 380
#
# _framework density 19.872
#
# number of rings (size 3 to 8) (size 9 to 14) (size 15 to 20)
#    0.000    1.750    1.250    4.500    3.500    1.500 
#    0.000    1.875    0.000    3.000    0.000    0.000 
#    0.000    0.000    0.000    0.000    0.000    0.000 
#
# Total GULP energy -396874.078541 kJ/mol
# GULP energy per Si atom -12402.314954 kJ/mol
# Density = 1.982677 g / cm^3
# Si number density = 19.872000 Si / 1000 Ang^3
#
#
#
# Elastic Constant Matrix: (Units=GPa)
#
#
# Indices 1 2 3 4 5 6 
#
# 1 103.7132 56.7089 61.3648 0.0001 0.0000 0.0000
# 2 56.7089 170.8070 73.9469 -0.0001 0.0000 0.0000
# 3 61.3648 73.9469 153.2679 -0.0003 0.0001 0.0000
# 4 0.0001 -0.0001 -0.0003 27.8859 0.0000 0.0000
# 5 0.0000 0.0000 0.0001 0.0000 23.3525 0.0000
# 6 0.0000 0.0000 0.0000 0.0000 0.0000 32.3161
#
#
#
# Elastic Compliance Matrix: (Units=1/GPa)
#
#
# Indices 1 2 3 4 5 6 
#
# 1 0.013567 -0.002721 -0.004119 0.000000 0.000000 0.000000
# 2 -0.002721 0.007946 -0.002744 0.000000 0.000000 0.000000
# 3 -0.004119 -0.002744 0.009498 0.000000 0.000000 0.000000
# 4 0.000000 0.000000 0.000000 0.035860 0.000000 0.000000
# 5 0.000000 0.000000 0.000000 0.000000 0.042822 0.000000
# 6 0.000000 0.000000 0.000000 0.000000 0.000000 0.030944
#
#
# Mechanical properties :
#
#
# Convention : Reuss Voigt Hill
#
# Bulk Modulus (GPa) = 84.44556 90.20326 87.32441
# Shear Modulus (GPa) = 30.53372 32.42875 31.48123
#
# Velocity S-wave (km/s) = 3.92410 4.04404 3.98452
# Velocity P-wave (km/s) = 7.94471 8.20343 8.07511
#
# Compressibility (1/GPa) = 0.01184195
#
# Stress axis : x y z
#
# Youngs Moduli (GPa) = 73.70837 125.84901 105.28843
#
# Poissons Ratio (x) = 0.34244 0.43369
# Poissons Ratio (y) = 0.20056 0.28894
# Poissons Ratio (z) = 0.30361 0.34536
#
# Static dielectric constant tensor:
#      x y z
#    x 3.358330 0.000000 0.000000 
#    y 0.000000 3.840600 0.000000 
#    z 0.000000 0.000000 3.949070 
# 
# 
# High freq. dielectric constant tensor:
#      x y z
#    x 1.745970 0.000000 0.000000 
#    y 0.000000 1.793030 0.000000 
#    z 0.000000 0.000000 1.787990 
# 
# From -- ./inp_files/12044.got.cif
#   From: 2010.06.25/outbox.cif.g09.slc.cpg/sg71_7_cif.got.tgz:12044.got - 2010.06.28 04:59:45.
