data_PCOD8291397
_publ_section_title
;
Structure prediction by ZEFSAII (Michael W. Deem and Ramdas Pophale) SiO2 
 PCOD8291397
Probable space group: I M M M
;
_chemical_formula_sum "Si O2"
_cell_formula_units_Z 104
_cell_length_a 31.141271
_cell_length_b 9.540379
_cell_length_c 19.248100
_cell_angle_alpha 90.000000
_cell_angle_beta 90.000000
_cell_angle_gamma 90.000000
_cell_volume 5718.601423
_symmetry_space_group_name_H-M "I M M M"
_symmetry_group_IT_number 71
_symmetry_cell_setting 'orthorhombic'
loop_
_space_group_symop_operation_xyz
x,y,z
-x,-y,z
x,-y,-z
-x,y,-z
-x,-y,-z
x,y,-z
-x,y,z
x,-y,z
1/2+x,1/2+y,1/2+z
1/2-x,1/2-y,1/2+z
1/2+x,1/2-y,1/2-z
1/2-x,1/2+y,1/2-z
1/2-x,1/2-y,1/2-z
1/2+x,1/2+y,1/2-z
1/2-x,1/2+y,1/2+z
1/2+x,1/2-y,1/2+z
loop_
_atom_site_type_symbol
_atom_site_label
_atom_site_fract_x
_atom_site_fract_y
_atom_site_fract_z
Si Si1 0.672944 0.338463 0.077388
Si Si2 0.548289 0.838541 0.784245
Si Si3 0.409783 0.159642 0.923186
Si Si4 0.288842 0.336916 0.219767
Si Si5 0.579849 0.340367 0.421763
Si Si6 0.122272 0.160505 0.785036
Si Si7 0.500000 0.842559 0.417776
O O1 0.659303 0.500000 0.079972
O O2 0.630818 0.252994 0.097151
O O3 0.708472 0.308472 0.136654
O O4 0.690447 0.298385 0.000000
O O5 0.500000 0.794345 0.762343
O O6 0.552689 0.815772 0.867380
O O7 0.582757 0.745417 0.745530
O O8 0.556789 0.000000 0.764815
O O9 0.393518 0.000000 0.921471
O O10 0.427344 0.199048 0.000000
O O11 0.280994 0.500000 0.235886
O O12 0.250000 0.250000 0.250000
O O13 0.332223 0.282862 0.257620
O O14 0.594520 0.298749 0.500000
O O15 0.562436 0.500000 0.421020
O O16 0.620109 0.324768 0.369232
O O17 0.542285 0.239490 0.393093
O O18 0.116781 0.000000 0.761267
O O19 0.500000 0.848349 0.500000
O O20 0.500000 0.000000 0.385969
#
# Coordination Sequence:
#
# PCOD8291397 Si02
#       7
#    16  16  16  16  16  16   8
#     4   9  17  32  55  79 105 138 174 213 256 306
#     4  10  21  34  49  75 110 145 179 215 261 311
#     4   9  17  30  50  75 104 140 180 218 255 300
#     4  10  21  37  57  82 108 135 172 216 266 320
#     4   9  18  33  52  72  98 135 176 216 260 309
#     4  10  21  37  55  76 103 136 177 220 263 314
#     4   9  17  29  47  73 103 133 170 215 256 303
#
# _framework density 18.186264999999999
#
# number of rings (size 3 to 8) (size 9 to 14) (size 15 to 20)
#    0.000    2.538    1.538    0.231    1.077    3.385 
#    0.000    2.308    0.000    0.923    0.000    3.231 
#    0.000    0.000    0.000    0.000    0.000    0.000 
#
# Total GULP energy -644559.504152 kJ/mol
# GULP energy per Si atom -12395.375080 kJ/mol
# Density = 1.814487 g / cm^3
# Si number density = 18.186265 Si / 1000 Ang^3
#
#
#
# Elastic Constant Matrix: (Units=GPa)
#
#
# Indices 1 2 3 4 5 6 
#
# 1 117.8714 50.8607 61.9840 0.0000 0.0000 0.0000
# 2 50.8607 64.2614 35.0705 0.0000 0.0000 0.0000
# 3 61.9840 35.0705 99.0839 0.0000 0.0000 0.0000
# 4 0.0000 0.0000 0.0000 22.4641 0.0000 0.0000
# 5 0.0000 0.0000 0.0000 0.0000 27.2968 0.0000
# 6 0.0000 0.0000 0.0000 0.0000 0.0000 28.8798
#
#
#
# Elastic Compliance Matrix: (Units=1/GPa)
#
#
# Indices 1 2 3 4 5 6 
#
# 1 0.015882 -0.008859 -0.006800 0.000000 0.000000 0.000000
# 2 -0.008859 0.024229 -0.003034 0.000000 0.000000 0.000000
# 3 -0.006800 -0.003034 0.015420 0.000000 0.000000 0.000000
# 4 0.000000 0.000000 0.000000 0.044515 0.000000 0.000000
# 5 0.000000 0.000000 0.000000 0.000000 0.036634 0.000000
# 6 0.000000 0.000000 0.000000 0.000000 0.000000 0.034626
#
#
# Mechanical properties :
#
#
# Convention : Reuss Voigt Hill
#
# Bulk Modulus (GPa) = 55.10951 64.11634 59.61293
# Shear Modulus (GPa) = 23.28384 24.61490 23.94937
#
# Velocity S-wave (km/s) = 3.58201 3.68297 3.63284
# Velocity P-wave (km/s) = 6.89030 7.30873 7.10260
#
# Compressibility (1/GPa) = 0.01814569
#
# Stress axis : x y z
#
# Youngs Moduli (GPa) = 62.96311 41.27306 64.85116
#
# Poissons Ratio (x) = 0.36565 0.44097
# Poissons Ratio (y) = 0.55781 0.19673
# Poissons Ratio (z) = 0.42813 0.12521
#
# Static dielectric constant tensor:
#      x y z
#    x 3.049730 0.000000 0.000000 
#    y 0.000000 3.484850 0.000000 
#    z 0.000000 0.000000 3.793660 
# 
# 
# High freq. dielectric constant tensor:
#      x y z
#    x 1.665540 0.000000 0.000000 
#    y 0.000000 1.702890 0.000000 
#    z 0.000000 0.000000 1.726480 
# 
# From -- ./inp_files/56693.got.cif
#   From: 2010.06.25/outbox.cif.g09.slc.cpg/sg71_29_cif.got.tgz:56693.got - 2010.06.28 04:59:45.
