data_PCOD8291283
_publ_section_title
;
Structure prediction by ZEFSAII (Michael W. Deem and Ramdas Pophale) SiO2 
 PCOD8291283
Probable space group: I M M M
;
_chemical_formula_sum "Si O2"
_cell_formula_units_Z 96
_cell_length_a 12.453661
_cell_length_b 28.631047
_cell_length_c 13.863839
_cell_angle_alpha 90.000000
_cell_angle_beta 90.000000
_cell_angle_gamma 90.000000
_cell_volume 4943.309197
_symmetry_space_group_name_H-M "I M M M"
_symmetry_group_IT_number 71
_symmetry_cell_setting 'orthorhombic'
loop_
_space_group_symop_operation_xyz
x,y,z
-x,-y,z
x,-y,-z
-x,y,-z
-x,-y,-z
x,y,-z
-x,y,z
x,-y,z
1/2+x,1/2+y,1/2+z
1/2-x,1/2-y,1/2+z
1/2+x,1/2-y,1/2-z
1/2-x,1/2+y,1/2-z
1/2-x,1/2-y,1/2-z
1/2+x,1/2+y,1/2-z
1/2-x,1/2+y,1/2+z
1/2+x,1/2-y,1/2+z
loop_
_atom_site_type_symbol
_atom_site_label
_atom_site_fract_x
_atom_site_fract_y
_atom_site_fract_z
Si Si1 0.373615 0.050920 0.500000
Si Si2 0.624307 0.890018 0.680340
Si Si3 0.000000 0.055239 0.391095
Si Si4 0.189694 0.945143 0.250196
Si Si5 0.623235 0.620749 0.394980
Si Si6 0.377427 0.294734 0.270697
Si Si7 0.202007 0.709473 0.883861
O O1 0.500000 0.045565 0.500000
O O2 0.335214 0.078597 0.591899
O O3 0.317400 0.000000 0.500000
O O4 0.500000 0.897857 0.709199
O O5 0.703089 0.912637 0.759081
O O6 0.640731 0.836573 0.652120
O O7 0.891341 0.071204 0.336009
O O8 0.000000 0.076086 0.500000
O O9 0.000000 0.000000 0.393522
O O10 0.132604 0.931384 0.149674
O O11 0.216940 0.000000 0.253905
O O12 0.680278 0.622355 0.500000
O O13 0.500000 0.634173 0.408755
O O14 0.673227 0.659648 0.322782
O O15 0.500000 0.302306 0.240539
O O16 0.316635 0.286150 0.169451
O O17 0.369406 0.252463 0.347086
O O18 0.215115 0.710301 0.000000
#
# Coordination Sequence:
#
# PCOD8291283 Si02
#       7
#     8  16   8  16  16  16  16
#     4   9  18  32  50  77 115 157 197 234 276 332
#     4  11  22  36  56  84 118 156 198 243 290 348
#     4   9  20  36  53  77 115 159 194 236 303 369
#     4  11  22  37  56  83 118 154 202 252 298 357
#     4  10  20  37  61  87 116 152 197 249 304 356
#     4  10  22  40  61  89 124 157 193 242 301 361
#     4  11  22  38  63  92 121 156 198 244 296 354
#
# _framework density 19.420190000000002
#
# number of rings (size 3 to 8) (size 9 to 14) (size 15 to 20)
#    0.000    1.667    3.333    1.500    1.167    3.333 
#    0.000    0.833    0.000    0.500    0.000    1.167 
#    0.000    0.000    0.000    0.000    0.000    0.000 
#
# Total GULP energy -594818.993431 kJ/mol
# GULP energy per Si atom -12392.062363 kJ/mol
# Density = 1.937599 g / cm^3
# Si number density = 19.420190 Si / 1000 Ang^3
#
#
#
# Elastic Constant Matrix: (Units=GPa)
#
#
# Indices 1 2 3 4 5 6 
#
# 1 92.1958 29.1729 29.7523 0.0000 0.0000 0.0000
# 2 29.1729 106.6769 28.7483 -0.0002 0.0002 0.0000
# 3 29.7523 28.7483 93.7717 -0.0004 0.0000 0.0000
# 4 0.0000 -0.0002 -0.0004 33.7030 -0.0001 0.0000
# 5 0.0000 0.0002 0.0000 -0.0001 15.3976 0.0001
# 6 0.0000 0.0000 0.0000 0.0000 0.0001 26.5510
#
#
#
# Elastic Compliance Matrix: (Units=1/GPa)
#
#
# Indices 1 2 3 4 5 6 
#
# 1 0.012715 -0.002605 -0.003236 0.000000 0.000000 0.000000
# 2 -0.002605 0.010752 -0.002470 0.000000 0.000000 0.000000
# 3 -0.003236 -0.002470 0.012448 0.000000 0.000000 0.000000
# 4 0.000000 0.000000 0.000000 0.029671 0.000000 0.000000
# 5 0.000000 0.000000 0.000000 0.000000 0.064945 0.000000
# 6 0.000000 0.000000 0.000000 0.000000 0.000000 0.037663
#
#
# Mechanical properties :
#
#
# Convention : Reuss Voigt Hill
#
# Bulk Modulus (GPa) = 51.82963 51.99904 51.91434
# Shear Modulus (GPa) = 26.14421 28.79505 27.46963
#
# Velocity S-wave (km/s) = 3.67309 3.85481 3.76505
# Velocity P-wave (km/s) = 6.68844 6.82984 6.75951
#
# Compressibility (1/GPa) = 0.01929398
#
# Stress axis : x y z
#
# Youngs Moduli (GPa) = 78.64741 93.00490 80.33441
#
# Poissons Ratio (x) = 0.24230 0.25993
# Poissons Ratio (y) = 0.20489 0.19841
# Poissons Ratio (z) = 0.25447 0.22970
#
# Static dielectric constant tensor:
#      x y z
#    x 3.369290 0.000000 0.000000 
#    y 0.000000 3.647780 0.000000 
#    z 0.000000 0.000000 3.660190 
# 
# 
# High freq. dielectric constant tensor:
#      x y z
#    x 1.745310 0.000000 0.000000 
#    y 0.000000 1.765730 0.000000 
#    z 0.000000 0.000000 1.742090 
# 
# From -- ./inp_files/33199.got.cif
#   From: 2010.06.25/outbox.cif.g09.slc.cpg/sg71_17_cif.got.tgz:33199.got - 2010.06.28 04:59:45.
