data_PCOD8291609
_publ_section_title
;
Structure prediction by ZEFSAII (Michael W. Deem and Ramdas Pophale) SiO2 
 PCOD8291609
Probable space group: I M M M
;
_chemical_formula_sum "Si O2"
_cell_formula_units_Z 72
_cell_length_a 18.177734
_cell_length_b 13.178084
_cell_length_c 15.829399
_cell_angle_alpha 90.000000
_cell_angle_beta 90.000000
_cell_angle_gamma 90.000000
_cell_volume 3791.896211
_symmetry_space_group_name_H-M "I M M M"
_symmetry_group_IT_number 71
_symmetry_cell_setting 'orthorhombic'
loop_
_space_group_symop_operation_xyz
x,y,z
-x,-y,z
x,-y,-z
-x,y,-z
-x,-y,-z
x,y,-z
-x,y,z
x,-y,z
1/2+x,1/2+y,1/2+z
1/2-x,1/2-y,1/2+z
1/2+x,1/2-y,1/2-z
1/2-x,1/2+y,1/2-z
1/2-x,1/2-y,1/2-z
1/2+x,1/2+y,1/2-z
1/2-x,1/2+y,1/2+z
1/2+x,1/2-y,1/2+z
loop_
_atom_site_type_symbol
_atom_site_label
_atom_site_fract_x
_atom_site_fract_y
_atom_site_fract_z
Si Si1 0.412837 0.379499 0.500000
Si Si2 0.086041 0.890145 0.667820
Si Si3 0.159312 0.810344 0.828161
Si Si4 0.913352 0.314964 0.594154
Si Si5 0.812910 0.612479 0.732141
O O1 0.398447 0.500000 0.500000
O O2 0.500000 0.355909 0.500000
O O3 0.373586 0.326790 0.579461
O O4 0.102587 0.862936 0.764460
O O5 0.116722 0.800719 0.607754
O O6 0.000000 0.899160 0.656159
O O7 0.121741 0.000000 0.644283
O O8 0.168321 0.690355 0.807676
O O9 0.238384 0.861690 0.817440
O O10 0.892536 0.349957 0.500000
O O11 0.876354 0.388847 0.661285
O O12 0.000000 0.319143 0.609664
O O13 0.808165 0.500000 0.771894
#
# Coordination Sequence:
#
# PCOD8291609 Si02
#       5
#     8  16  16  16  16
#     4  11  22  36  59  89 118 146 179 228 285 333
#     4   9  16  29  51  75 103 139 173 210 261 317
#     4  10  21  36  55  81 110 138 179 225 269 325
#     4   9  19  33  48  73 106 136 175 222 261 307
#     4  10  21  37  57  77 104 144 183 222 270 322
#
# _framework density 18.987862
#
# number of rings (size 3 to 8) (size 9 to 14) (size 15 to 20)
#    0.000    2.333    0.000    2.667    1.556    4.000 
#    0.000    3.889    0.000    0.667    0.000    0.000 
#    0.000    0.000    0.000    0.000    0.000    0.000 
#
# Total GULP energy -446218.788326 kJ/mol
# GULP energy per Si atom -12394.966342 kJ/mol
# Density = 1.894464 g / cm^3
# Si number density = 18.987862 Si / 1000 Ang^3
#
#
#
# Elastic Constant Matrix: (Units=GPa)
#
#
# Indices 1 2 3 4 5 6 
#
# 1 47.2851 40.4740 38.9256 0.0000 0.0000 0.0000
# 2 40.4740 135.7721 37.9352 0.0000 0.0000 0.0000
# 3 38.9256 37.9352 99.6505 0.0000 0.0000 0.0000
# 4 0.0000 0.0000 0.0000 15.1826 0.0000 0.0000
# 5 0.0000 0.0000 0.0000 0.0000 28.4536 0.0000
# 6 0.0000 0.0000 0.0000 0.0000 0.0000 18.5250
#
#
#
# Elastic Compliance Matrix: (Units=1/GPa)
#
#
# Indices 1 2 3 4 5 6 
#
# 1 0.037517 -0.007933 -0.011635 0.000000 0.000000 0.000000
# 2 -0.007933 0.009919 -0.000677 0.000000 0.000000 0.000000
# 3 -0.011635 -0.000677 0.014838 0.000000 0.000000 0.000000
# 4 0.000000 0.000000 0.000000 0.065865 0.000000 0.000000
# 5 0.000000 0.000000 0.000000 0.000000 0.035145 0.000000
# 6 0.000000 0.000000 0.000000 0.000000 0.000000 0.053981
#
#
# Mechanical properties :
#
#
# Convention : Reuss Voigt Hill
#
# Bulk Modulus (GPa) = 45.90660 57.48637 51.69648
# Shear Modulus (GPa) = 18.86678 23.45708 21.16193
#
# Velocity S-wave (km/s) = 3.15560 3.51860 3.34203
# Velocity P-wave (km/s) = 6.12424 6.84459 6.49441
#
# Compressibility (1/GPa) = 0.02178336
#
# Stress axis : x y z
#
# Youngs Moduli (GPa) = 26.65493 100.81276 67.39574
#
# Poissons Ratio (x) = 0.79974 0.78414
# Poissons Ratio (y) = 0.21145 0.04565
# Poissons Ratio (z) = 0.31013 0.06828
#
# Static dielectric constant tensor:
#      x y z
#    x 3.519210 0.000000 0.000000 
#    y 0.000000 3.915420 0.000000 
#    z 0.000000 0.000000 3.294670 
# 
# 
# High freq. dielectric constant tensor:
#      x y z
#    x 1.737950 0.000000 0.000000 
#    y 0.000000 1.744890 0.000000 
#    z 0.000000 0.000000 1.716910 
# 
# From -- ./inp_files/36086.got.cif
#   From: 2010.06.25/outbox.cif.g09.slc.cpg/sg71_19_cif.got.tgz:36086.got - 2010.06.28 04:59:45.
