data_PCOD8291917
_publ_section_title
;
Structure prediction by ZEFSAII (Michael W. Deem and Ramdas Pophale) SiO2 
 PCOD8291917
Probable space group: I M M M
;
_chemical_formula_sum "Si O2"
_cell_formula_units_Z 64
_cell_length_a 20.635602
_cell_length_b 9.032918
_cell_length_c 17.382638
_cell_angle_alpha 90.000000
_cell_angle_beta 90.000000
_cell_angle_gamma 90.000000
_cell_volume 3240.118521
_symmetry_space_group_name_H-M "I M M M"
_symmetry_group_IT_number 71
_symmetry_cell_setting 'orthorhombic'
loop_
_space_group_symop_operation_xyz
x,y,z
-x,-y,z
x,-y,-z
-x,y,-z
-x,-y,-z
x,y,-z
-x,y,z
x,-y,z
1/2+x,1/2+y,1/2+z
1/2-x,1/2-y,1/2+z
1/2+x,1/2-y,1/2-z
1/2-x,1/2+y,1/2-z
1/2-x,1/2-y,1/2-z
1/2+x,1/2+y,1/2-z
1/2-x,1/2+y,1/2+z
1/2+x,1/2-y,1/2+z
loop_
_atom_site_type_symbol
_atom_site_label
_atom_site_fract_x
_atom_site_fract_y
_atom_site_fract_z
Si Si1 0.000000 0.161698 0.408477
Si Si2 0.075962 0.824449 0.842664
Si Si3 0.877899 0.334021 0.584489
Si Si4 0.576381 0.833147 0.500000
Si Si5 0.682803 0.170056 0.761112
O O1 0.936193 0.241234 0.378963
O O2 0.000000 0.158727 0.500000
O O3 0.000000 0.000000 0.371123
O O4 0.098476 0.756286 0.924324
O O5 0.122201 0.752543 0.778321
O O6 0.000000 0.788163 0.824873
O O7 0.087192 0.000000 0.845366
O O8 0.855000 0.275161 0.500000
O O9 0.903843 0.500000 0.575701
O O10 0.821123 0.323658 0.646107
O O11 0.500000 0.844969 0.500000
O O12 0.606215 0.000000 0.500000
O O13 0.750000 0.250000 0.750000
O O14 0.684431 0.000000 0.732034
#
# Coordination Sequence:
#
# PCOD8291917 Si02
#       5
#     8  16  16   8  16
#     4   9  17  29  51  85 117 144 179 230 285 335
#     4  10  21  38  62  91 122 158 198 244 299 359
#     4   9  19  37  59  82 111 151 195 237 288 350
#     4   9  17  33  59  91 123 153 194 247 298 353
#     4  11  24  41  60  84 119 158 200 250 302 358
#
# _framework density 19.752362999999999
#
# number of rings (size 3 to 8) (size 9 to 14) (size 15 to 20)
#    0.000    2.250    0.000    2.250    1.750    6.500 
#    2.250    0.000    0.000    0.000    0.000    0.000 
#    0.000    0.000    0.000    0.000    0.000    0.000 
#
# Total GULP energy -396578.865045 kJ/mol
# GULP energy per Si atom -12393.089533 kJ/mol
# Density = 1.970741 g / cm^3
# Si number density = 19.752363 Si / 1000 Ang^3
#
#
#
# Elastic Constant Matrix: (Units=GPa)
#
#
# Indices 1 2 3 4 5 6 
#
# 1 103.9265 62.9944 53.7053 0.0000 0.0000 0.0000
# 2 62.9944 142.3302 55.5929 0.0000 0.0000 0.0000
# 3 53.7053 55.5929 111.8205 0.0000 0.0000 0.0000
# 4 0.0000 0.0000 0.0000 29.6888 0.0000 0.0000
# 5 0.0000 0.0000 0.0000 0.0000 21.5262 0.0000
# 6 0.0000 0.0000 0.0000 0.0000 0.0000 34.4946
#
#
#
# Elastic Compliance Matrix: (Units=1/GPa)
#
#
# Indices 1 2 3 4 5 6 
#
# 1 0.015004 -0.004748 -0.004846 0.000000 0.000000 0.000000
# 2 -0.004748 0.010222 -0.002801 0.000000 0.000000 0.000000
# 3 -0.004846 -0.002801 0.012663 0.000000 0.000000 0.000000
# 4 0.000000 0.000000 0.000000 0.033683 0.000000 0.000000
# 5 0.000000 0.000000 0.000000 0.000000 0.046455 0.000000
# 6 0.000000 0.000000 0.000000 0.000000 0.000000 0.028990
#
#
# Mechanical properties :
#
#
# Convention : Reuss Voigt Hill
#
# Bulk Modulus (GPa) = 76.34477 78.07359 77.20918
# Shear Modulus (GPa) = 28.38116 29.52756 28.95436
#
# Velocity S-wave (km/s) = 3.79469 3.87057 3.83282
# Velocity P-wave (km/s) = 7.61147 7.71927 7.66556
#
# Compressibility (1/GPa) = 0.01309848
#
# Stress axis : x y z
#
# Youngs Moduli (GPa) = 66.64759 97.83223 78.97061
#
# Poissons Ratio (x) = 0.46452 0.38267
# Poissons Ratio (y) = 0.31645 0.22122
# Poissons Ratio (z) = 0.32295 0.27406
#
# Static dielectric constant tensor:
#      x y z
#    x 3.439800 0.000000 0.000000 
#    y 0.000000 3.875970 0.000000 
#    z 0.000000 0.000000 3.813300 
# 
# 
# High freq. dielectric constant tensor:
#      x y z
#    x 1.740170 0.000000 0.000000 
#    y 0.000000 1.783160 0.000000 
#    z 0.000000 0.000000 1.779290 
# 
# From -- ./inp_files/46807.got.cif
#   From: 2010.06.25/outbox.cif.g09.slc.cpg/sg71_24_cif.got.tgz:46807.got - 2010.06.28 04:59:45.
