data_PCOD8291550
_publ_section_title
;
Structure prediction by ZEFSAII (Michael W. Deem and Ramdas Pophale) SiO2 
 PCOD8291550
Probable space group: I M M M
;
_chemical_formula_sum "Si O2"
_cell_formula_units_Z 104
_cell_length_a 9.145390
_cell_length_b 31.075984
_cell_length_c 19.000162
_cell_angle_alpha 90.000000
_cell_angle_beta 90.000000
_cell_angle_gamma 90.000000
_cell_volume 5399.883914
_symmetry_space_group_name_H-M "I M M M"
_symmetry_group_IT_number 71
_symmetry_cell_setting 'orthorhombic'
loop_
_space_group_symop_operation_xyz
x,y,z
-x,-y,z
x,-y,-z
-x,y,-z
-x,-y,-z
x,y,-z
-x,y,z
x,-y,z
1/2+x,1/2+y,1/2+z
1/2-x,1/2-y,1/2+z
1/2+x,1/2-y,1/2-z
1/2-x,1/2+y,1/2-z
1/2-x,1/2-y,1/2-z
1/2+x,1/2+y,1/2-z
1/2-x,1/2+y,1/2+z
1/2+x,1/2-y,1/2+z
loop_
_atom_site_type_symbol
_atom_site_label
_atom_site_fract_x
_atom_site_fract_y
_atom_site_fract_z
Si Si1 0.671578 0.126177 0.800390
Si Si2 0.168613 0.547682 0.792965
Si Si3 0.671028 0.414154 0.581649
Si Si4 0.329847 0.419642 0.078781
Si Si5 0.672430 0.210736 0.712526
Si Si6 0.170404 0.820740 0.580081
Si Si7 0.835848 0.500000 0.583296
O O1 0.500000 0.124010 0.817005
O O2 0.729926 0.084394 0.758266
O O3 0.760465 0.125492 0.874036
O O4 0.713056 0.168231 0.756504
O O5 0.194411 0.500000 0.760157
O O6 0.245861 0.549564 0.868253
O O7 0.000000 0.556918 0.807108
O O8 0.702280 0.404716 0.500000
O O9 0.500000 0.418964 0.596475
O O10 0.750180 0.457661 0.608077
O O11 0.500000 0.424714 0.093302
O O12 0.282904 0.370189 0.089516
O O13 0.290489 0.434539 0.000000
O O14 0.500000 0.218540 0.709540
O O15 0.750000 0.250000 0.750000
O O16 0.732956 0.207454 0.633180
O O17 0.202311 0.805696 0.500000
O O18 0.000000 0.814266 0.597830
O O19 0.846015 0.500000 0.500000
O O20 0.000000 0.500000 0.616374
#
# Coordination Sequence:
#
# PCOD8291550 Si02
#       7
#    16  16  16  16  16  16   8
#     4  10  22  39  58  82 112 149 190 232 285 348
#     4  10  21  36  53  78 114 152 191 236 280 329
#     4  10  21  36  55  82 114 147 189 240 288 338
#     4   9  18  33  54  80 112 151 193 236 279 328
#     4  11  23  40  63  90 118 150 191 238 291 349
#     4   9  18  35  60  88 117 151 192 237 286 340
#     4   9  17  31  53  79 109 149 192 231 276 335
#
# _framework density 19.259672999999999
#
# number of rings (size 3 to 8) (size 9 to 14) (size 15 to 20)
#    0.000    2.231    1.538    2.077    1.077    4.923 
#    0.000    3.846    0.000    0.923    0.000    0.000 
#    0.000    0.000    0.000    0.000    0.000    0.000 
#
# Total GULP energy -644856.793238 kJ/mol
# GULP energy per Si atom -12401.092178 kJ/mol
# Density = 1.921584 g / cm^3
# Si number density = 19.259673 Si / 1000 Ang^3
#
#
#
# Elastic Constant Matrix: (Units=GPa)
#
#
# Indices 1 2 3 4 5 6 
#
# 1 82.1594 47.9340 55.5199 0.0000 0.0000 0.0000
# 2 47.9340 100.0167 56.7572 0.0001 0.0000 0.0000
# 3 55.5199 56.7572 102.8190 0.0005 0.0002 0.0001
# 4 0.0000 0.0001 0.0005 31.7243 0.0001 0.0000
# 5 0.0000 0.0000 0.0002 0.0001 37.7934 0.0001
# 6 0.0000 0.0000 0.0001 0.0000 0.0001 30.0502
#
#
#
# Elastic Compliance Matrix: (Units=1/GPa)
#
#
# Indices 1 2 3 4 5 6 
#
# 1 0.020908 -0.005262 -0.008385 0.000000 0.000000 0.000000
# 2 -0.005262 0.015883 -0.005926 0.000000 0.000000 0.000000
# 3 -0.008385 -0.005926 0.017525 0.000000 0.000000 0.000000
# 4 0.000000 0.000000 0.000000 0.031522 0.000000 0.000000
# 5 0.000000 0.000000 0.000000 0.000000 0.026460 0.000000
# 6 0.000000 0.000000 0.000000 0.000000 0.000000 0.033278
#
#
# Mechanical properties :
#
#
# Convention : Reuss Voigt Hill
#
# Bulk Modulus (GPa) = 65.92301 67.26860 66.59580
# Shear Modulus (GPa) = 26.34661 28.23252 27.28957
#
# Velocity S-wave (km/s) = 3.70262 3.83285 3.76829
# Velocity P-wave (km/s) = 7.25134 7.38855 7.32027
#
# Compressibility (1/GPa) = 0.01516921
#
# Stress axis : x y z
#
# Youngs Moduli (GPa) = 47.82947 62.95939 57.06139
#
# Poissons Ratio (x) = 0.33129 0.47846
# Poissons Ratio (y) = 0.25167 0.33817
# Poissons Ratio (z) = 0.40105 0.37312
#
# Static dielectric constant tensor:
#      x y z
#    x 3.436180 0.000000 0.000000 
#    y 0.000000 3.377120 0.000000 
#    z 0.000000 0.000000 3.570620 
# 
# 
# High freq. dielectric constant tensor:
#      x y z
#    x 1.747210 0.000000 0.000000 
#    y 0.000000 1.728140 0.000000 
#    z 0.000000 0.000000 1.758550 
# 
# From -- ./inp_files/50929.got.cif
#   From: 2010.06.25/outbox.cif.g09.slc.cpg/sg71_26_cif.got.tgz:50929.got - 2010.06.28 04:59:45.
