data_PCOD8291474
_publ_section_title
;
Structure prediction by ZEFSAII (Michael W. Deem and Ramdas Pophale) SiO2 
 PCOD8291474
Probable space group: I M M M
;
_chemical_formula_sum "Si O2"
_cell_formula_units_Z 104
_cell_length_a 8.963929
_cell_length_b 23.218766
_cell_length_c 26.379981
_cell_angle_alpha 90.000000
_cell_angle_beta 90.000000
_cell_angle_gamma 90.000000
_cell_volume 5490.501583
_symmetry_space_group_name_H-M "I M M M"
_symmetry_group_IT_number 71
_symmetry_cell_setting 'orthorhombic'
loop_
_space_group_symop_operation_xyz
x,y,z
-x,-y,z
x,-y,-z
-x,y,-z
-x,-y,-z
x,y,-z
-x,y,z
x,-y,z
1/2+x,1/2+y,1/2+z
1/2-x,1/2-y,1/2+z
1/2+x,1/2-y,1/2-z
1/2-x,1/2+y,1/2-z
1/2-x,1/2-y,1/2-z
1/2+x,1/2+y,1/2-z
1/2-x,1/2+y,1/2+z
1/2+x,1/2-y,1/2+z
loop_
_atom_site_type_symbol
_atom_site_label
_atom_site_fract_x
_atom_site_fract_y
_atom_site_fract_z
Si Si1 0.161384 0.714343 0.290627
Si Si2 0.677468 0.000000 0.556039
Si Si3 0.325958 0.907169 0.634059
Si Si4 0.677533 0.500000 0.325246
Si Si5 0.679126 0.116072 0.859077
Si Si6 0.327124 0.305285 0.558938
Si Si7 0.835684 0.208733 0.611618
Si Si8 0.827410 0.500000 0.217892
O O1 0.250000 0.750000 0.250000
O O2 0.228237 0.652684 0.308566
O O3 0.145982 0.749216 0.341747
O O4 0.000000 0.703785 0.265714
O O5 0.730940 0.943280 0.585563
O O6 0.500000 0.000000 0.554416
O O7 0.747967 0.000000 0.500000
O O8 0.500000 0.893522 0.629810
O O9 0.237307 0.848349 0.634021
O O10 0.292567 0.942975 0.685093
O O11 0.500000 0.500000 0.329781
O O12 0.744685 0.445538 0.354484
O O13 0.722607 0.500000 0.266480
O O14 0.500000 0.111049 0.861911
O O15 0.737525 0.146303 0.910148
O O16 0.305897 0.319317 0.500000
O O17 0.500000 0.306734 0.574974
O O18 0.264939 0.240729 0.569575
O O19 0.000000 0.195217 0.588906
O O20 0.000000 0.500000 0.235175
#
# Coordination Sequence:
#
# PCOD8291474 Si02
#       8
#    16   8  16   8  16  16  16   8
#     4   9  20  35  53  78 109 146 184 224 273 329
#     4   8  15  30  51  73  99 134 181 236 286 329
#     4   9  18  33  53  77 107 146 192 239 285 336
#     4  12  25  39  60  87 116 153 196 242 288 338
#     4  10  22  41  61  86 118 152 190 235 289 345
#     4  10  21  39  63  89 116 148 188 234 285 342
#     4  10  21  35  52  80 115 148 186 229 279 338
#     4   9  20  37  54  76 110 155 200 243 294 345
#
# _framework density 18.941803
#
# number of rings (size 3 to 8) (size 9 to 14) (size 15 to 20)
#    0.000    2.385    0.000    3.923    2.154    6.154 
#    0.000    3.077    0.000    2.769    0.000    0.000 
#    0.000    0.000    0.000    0.000    0.000    0.000 
#
# Total GULP energy -644572.135844 kJ/mol
# GULP energy per Si atom -12395.617997 kJ/mol
# Density = 1.889869 g / cm^3
# Si number density = 18.941803 Si / 1000 Ang^3
#
#
#
# Elastic Constant Matrix: (Units=GPa)
#
#
# Indices 1 2 3 4 5 6 
#
# 1 116.1663 60.4977 44.8339 0.0000 0.0000 0.0000
# 2 60.4977 131.5798 28.2021 0.0000 0.0000 0.0000
# 3 44.8339 28.2021 75.9180 0.0000 0.0000 0.0000
# 4 0.0000 0.0000 0.0000 17.5403 0.0000 0.0000
# 5 0.0000 0.0000 0.0000 0.0000 28.8892 0.0000
# 6 0.0000 0.0000 0.0000 0.0000 0.0000 21.5413
#
#
#
# Elastic Compliance Matrix: (Units=1/GPa)
#
#
# Indices 1 2 3 4 5 6 
#
# 1 0.013547 -0.004904 -0.006178 0.000000 0.000000 0.000000
# 2 -0.004904 0.010033 -0.000831 0.000000 0.000000 0.000000
# 3 -0.006178 -0.000831 0.017129 0.000000 0.000000 0.000000
# 4 0.000000 0.000000 0.000000 0.057012 0.000000 0.000000
# 5 0.000000 0.000000 0.000000 0.000000 0.034615 0.000000
# 6 0.000000 0.000000 0.000000 0.000000 0.000000 0.046423
#
#
# Mechanical properties :
#
#
# Convention : Reuss Voigt Hill
#
# Bulk Modulus (GPa) = 59.23354 65.63684 62.43519
# Shear Modulus (GPa) = 24.01387 26.26950 25.14168
#
# Velocity S-wave (km/s) = 3.56444 3.72809 3.64718
# Velocity P-wave (km/s) = 6.94835 7.29785 7.12524
#
# Compressibility (1/GPa) = 0.01688233
#
# Stress axis : x y z
#
# Youngs Moduli (GPa) = 73.81700 99.67161 58.37918
#
# Poissons Ratio (x) = 0.48883 0.36069
# Poissons Ratio (y) = 0.36203 0.04850
# Poissons Ratio (z) = 0.45607 0.08280
#
# Static dielectric constant tensor:
#      x y z
#    x 3.672370 0.000000 0.000000 
#    y 0.000000 3.291590 0.000000 
#    z 0.000000 0.000000 3.504380 
# 
# 
# High freq. dielectric constant tensor:
#      x y z
#    x 1.732840 0.000000 0.000000 
#    y 0.000000 1.742620 0.000000 
#    z 0.000000 0.000000 1.727940 
# 
# From -- ./inp_files/63385.got.cif
#   From: 2010.06.25/outbox.cif.g09.slc.cpg/sg71_32_cif.got.tgz:63385.got - 2010.06.28 04:59:45.
