data_PCOD8291694
_publ_section_title
;
Structure prediction by ZEFSAII (Michael W. Deem and Ramdas Pophale) SiO2 
 PCOD8291694
Probable space group: I M M M
;
_chemical_formula_sum "Si O2"
_cell_formula_units_Z 96
_cell_length_a 9.565476
_cell_length_b 29.832986
_cell_length_c 20.004052
_cell_angle_alpha 90.000000
_cell_angle_beta 90.000000
_cell_angle_gamma 90.000000
_cell_volume 5708.490538
_symmetry_space_group_name_H-M "I M M M"
_symmetry_group_IT_number 71
_symmetry_cell_setting 'orthorhombic'
loop_
_space_group_symop_operation_xyz
x,y,z
-x,-y,z
x,-y,-z
-x,y,-z
-x,-y,-z
x,y,-z
-x,y,z
x,-y,z
1/2+x,1/2+y,1/2+z
1/2-x,1/2-y,1/2+z
1/2+x,1/2-y,1/2-z
1/2-x,1/2+y,1/2-z
1/2-x,1/2-y,1/2-z
1/2+x,1/2+y,1/2-z
1/2-x,1/2+y,1/2+z
1/2+x,1/2-y,1/2+z
loop_
_atom_site_type_symbol
_atom_site_label
_atom_site_fract_x
_atom_site_fract_y
_atom_site_fract_z
Si Si1 0.160277 0.129699 0.618026
Si Si2 0.159721 0.227429 0.424133
Si Si3 0.342408 0.049222 0.383827
Si Si4 0.842261 0.549263 0.275143
Si Si5 0.664881 0.728675 0.310889
Si Si6 0.340778 0.629657 0.728322
O O1 0.195000 0.174697 0.577855
O O2 0.246714 0.088543 0.586061
O O3 0.201924 0.138602 0.694957
O O4 0.000000 0.115919 0.610905
O O5 0.175326 0.244331 0.500000
O O6 0.270982 0.254166 0.380096
O O7 0.000000 0.235048 0.398139
O O8 0.500000 0.058157 0.407712
O O9 0.332561 0.050068 0.304309
O O10 0.293087 0.000000 0.409389
O O11 0.791775 0.500000 0.300541
O O12 0.748055 0.589306 0.304741
O O13 0.000000 0.557809 0.299197
O O14 0.500000 0.741029 0.305048
O O15 0.750000 0.750000 0.250000
O O16 0.686060 0.675269 0.311773
O O17 0.500000 0.614148 0.723441
#
# Coordination Sequence:
#
# PCOD8291694 Si02
#       6
#    16  16  16  16  16  16
#     4   9  16  28  44  64  89 118 156 197 240 287
#     4  10  21  37  53  70  97 130 164 205 252 297
#     4   8  14  24  38  59  86 115 150 193 239 283
#     4   8  14  24  38  60  91 123 153 187 230 280
#     4  11  21  34  52  74 101 129 165 207 247 294
#     4   9  17  28  43  66  94 122 156 197 237 282
#
# _framework density 16.817055
#
# number of rings (size 3 to 8) (size 9 to 14) (size 15 to 20)
#    0.000    2.833    1.667    1.500    0.000    3.000 
#    0.000    3.333    0.000    0.500    0.000    3.500 
#    0.000    0.667    0.000    7.333    0.000    5.667 
#
# Total GULP energy -594963.005220 kJ/mol
# GULP energy per Si atom -12395.062609 kJ/mol
# Density = 1.677878 g / cm^3
# Si number density = 16.817055 Si / 1000 Ang^3
#
#
#
# Elastic Constant Matrix: (Units=GPa)
#
#
# Indices 1 2 3 4 5 6 
#
# 1 97.5048 71.9097 33.7204 0.0000 0.0000 0.0000
# 2 71.9097 112.8376 30.7787 0.0000 0.0000 0.0000
# 3 33.7204 30.7787 44.3655 0.0000 0.0000 0.0000
# 4 0.0000 0.0000 0.0000 9.9293 0.0000 0.0000
# 5 0.0000 0.0000 0.0000 0.0000 15.0521 0.0000
# 6 0.0000 0.0000 0.0000 0.0000 0.0000 38.9091
#
#
#
# Elastic Compliance Matrix: (Units=1/GPa)
#
#
# Indices 1 2 3 4 5 6 
#
# 1 0.021670 -0.011492 -0.008498 0.000000 0.000000 0.000000
# 2 -0.011492 0.017025 -0.003077 0.000000 0.000000 0.000000
# 3 -0.008498 -0.003077 0.031133 0.000000 0.000000 0.000000
# 4 0.000000 0.000000 0.000000 0.100712 0.000000 0.000000
# 5 0.000000 0.000000 0.000000 0.000000 0.066436 0.000000
# 6 0.000000 0.000000 0.000000 0.000000 0.000000 0.025701
#
#
# Mechanical properties :
#
#
# Convention : Reuss Voigt Hill
#
# Bulk Modulus (GPa) = 42.20212 58.61395 50.40804
# Shear Modulus (GPa) = 15.78731 20.66470 18.22600
#
# Velocity S-wave (km/s) = 3.06726 3.50922 3.29565
# Velocity P-wave (km/s) = 6.13949 7.16582 6.67242
#
# Compressibility (1/GPa) = 0.02369549
#
# Stress axis : x y z
#
# Youngs Moduli (GPa) = 46.14633 58.73630 32.11981
#
# Poissons Ratio (x) = 0.67500 0.27295
# Poissons Ratio (y) = 0.53032 0.09882
# Poissons Ratio (z) = 0.39215 0.18071
#
# Static dielectric constant tensor:
#      x y z
#    x 3.281610 0.000000 0.000000 
#    y 0.000000 3.458140 0.000000 
#    z 0.000000 0.000000 2.666810 
# 
# 
# High freq. dielectric constant tensor:
#      x y z
#    x 1.650650 0.000000 0.000000 
#    y 0.000000 1.656260 0.000000 
#    z 0.000000 0.000000 1.588810 
# 
# From -- ./inp_files/29034.got.cif
#   From: 2010.06.25/outbox.cif.g09.slc.cpg/sg71_15_cif.got.tgz:29034.got - 2010.06.28 04:59:45.
