data_PCOD8291982
_publ_section_title
;
Structure prediction by ZEFSAII (Michael W. Deem and Ramdas Pophale) SiO2 
 PCOD8291982
Probable space group: I M M M
;
_chemical_formula_sum "Si O2"
_cell_formula_units_Z 72
_cell_length_a 23.376780
_cell_length_b 8.747723
_cell_length_c 17.545020
_cell_angle_alpha 90.000000
_cell_angle_beta 90.000000
_cell_angle_gamma 90.000000
_cell_volume 3587.844233
_symmetry_space_group_name_H-M "I M M M"
_symmetry_group_IT_number 71
_symmetry_cell_setting 'orthorhombic'
loop_
_space_group_symop_operation_xyz
x,y,z
-x,-y,z
x,-y,-z
-x,y,-z
-x,-y,-z
x,y,-z
-x,y,z
x,-y,z
1/2+x,1/2+y,1/2+z
1/2-x,1/2-y,1/2+z
1/2+x,1/2-y,1/2-z
1/2-x,1/2+y,1/2-z
1/2-x,1/2-y,1/2-z
1/2+x,1/2+y,1/2-z
1/2-x,1/2+y,1/2+z
1/2+x,1/2-y,1/2+z
loop_
_atom_site_type_symbol
_atom_site_label
_atom_site_fract_x
_atom_site_fract_y
_atom_site_fract_z
Si Si1 0.126189 0.179933 0.640227
Si Si2 0.932773 0.329185 0.500000
Si Si3 0.243974 0.320590 0.332906
Si Si4 0.848955 0.675137 0.913011
Si Si5 0.565592 0.823126 0.281948
O O1 0.084690 0.237666 0.574710
O O2 0.187807 0.255045 0.626652
O O3 0.100116 0.223020 0.721681
O O4 0.133168 0.000000 0.635334
O O5 0.905979 0.500000 0.500000
O O6 0.000000 0.341543 0.500000
O O7 0.237667 0.500000 0.323512
O O8 0.250000 0.250000 0.250000
O O9 0.298181 0.283135 0.384907
O O10 0.828602 0.500000 0.904185
O O11 0.906280 0.704377 0.864436
O O12 0.863984 0.715546 0.000000
O O13 0.500000 0.768726 0.286097
O O14 0.569735 0.000000 0.257162
#
# Coordination Sequence:
#
# PCOD8291982 Si02
#       5
#    16   8  16  16  16
#     4  12  25  41  64  94 127 167 212 261 319 381
#     4  11  25  45  67  93 129 171 214 263 318 377
#     4  12  24  41  65  92 124 162 208 260 317 378
#     4  10  22  40  63  93 130 169 212 260 312 374
#     4  10  21  39  64  92 125 168 214 259 312 375
#
# _framework density 20.067758999999999
#
# number of rings (size 3 to 8) (size 9 to 14) (size 15 to 20)
#    0.000    1.000    2.222    5.000    1.556    4.889 
#    0.000    2.222    0.000    0.000    0.000    3.111 
#    0.000    0.000    0.000    0.000    0.000    0.000 
#
# Total GULP energy -446641.278767 kJ/mol
# GULP energy per Si atom -12406.702188 kJ/mol
# Density = 2.002208 g / cm^3
# Si number density = 20.067759 Si / 1000 Ang^3
#
#
#
# Elastic Constant Matrix: (Units=GPa)
#
#
# Indices 1 2 3 4 5 6 
#
# 1 105.5567 38.6837 18.6529 0.0000 0.0000 0.0000
# 2 38.6837 142.7107 38.3365 0.0000 0.0000 0.0000
# 3 18.6529 38.3365 114.1296 0.0000 0.0000 0.0000
# 4 0.0000 0.0000 0.0000 11.3233 0.0000 0.0000
# 5 0.0000 0.0000 0.0000 0.0000 -34.8903 0.0000
# 6 0.0000 0.0000 0.0000 0.0000 0.0000 30.9723
#
#
#
# Elastic Compliance Matrix: (Units=1/GPa)
#
#
# Indices 1 2 3 4 5 6 
#
# 1 0.010592 -0.002645 -0.000843 0.000000 0.000000 0.000000
# 2 -0.002645 0.008363 -0.002377 0.000000 0.000000 0.000000
# 3 -0.000843 -0.002377 0.009698 0.000000 0.000000 0.000000
# 4 0.000000 0.000000 0.000000 0.088313 0.000000 0.000000
# 5 0.000000 0.000000 0.000000 0.000000 -0.028661 0.000000
# 6 0.000000 0.000000 0.000000 0.000000 0.000000 0.032287
#
#
# Mechanical properties :
#
#
# Convention : Reuss Voigt Hill
#
# Bulk Modulus (GPa) = 59.08766 61.52703 60.30734
# Shear Modulus (GPa) = 36.24214 19.26265 27.75240
#
# Velocity S-wave (km/s) = 4.25430 3.10156 3.72282
# Velocity P-wave (km/s) = 7.32394 6.59942 6.97110
#
# Compressibility (1/GPa) = 0.01692401
#
# Stress axis : x y z
#
# Youngs Moduli (GPa) = 94.41359 119.58110 103.11339
#
# Poissons Ratio (x) = 0.31625 0.08690
# Poissons Ratio (y) = 0.24969 0.24508
# Poissons Ratio (z) = 0.07956 0.28422
#
# Static dielectric constant tensor:
#      x y z
#    x 3.857790 0.000000 0.000000 
#    y 0.000000 3.733970 0.000000 
#    z 0.000000 0.000000 3.692270 
# 
# 
# High freq. dielectric constant tensor:
#      x y z
#    x 1.793170 0.000000 0.000000 
#    y 0.000000 1.785750 0.000000 
#    z 0.000000 0.000000 1.790060 
# 
# From -- ./inp_files/47908.got.cif
#   From: 2010.06.25/outbox.cif.g09.slc.cpg/sg71_24_cif.got.tgz:47908.got - 2010.06.28 04:59:45.
