data_PCOD8291985
_publ_section_title
;
Structure prediction by ZEFSAII (Michael W. Deem and Ramdas Pophale) SiO2 
 PCOD8291985
Probable space group: I M M M
;
_chemical_formula_sum "Si O2"
_cell_formula_units_Z 72
_cell_length_a 14.703540
_cell_length_b 8.720797
_cell_length_c 28.360726
_cell_angle_alpha 90.000000
_cell_angle_beta 90.000000
_cell_angle_gamma 90.000000
_cell_volume 3636.599115
_symmetry_space_group_name_H-M "I M M M"
_symmetry_group_IT_number 71
_symmetry_cell_setting 'orthorhombic'
loop_
_space_group_symop_operation_xyz
x,y,z
-x,-y,z
x,-y,-z
-x,y,-z
-x,-y,-z
x,y,-z
-x,y,z
x,-y,z
1/2+x,1/2+y,1/2+z
1/2-x,1/2-y,1/2+z
1/2+x,1/2-y,1/2-z
1/2-x,1/2+y,1/2-z
1/2-x,1/2-y,1/2-z
1/2+x,1/2+y,1/2-z
1/2-x,1/2+y,1/2+z
1/2+x,1/2-y,1/2+z
loop_
_atom_site_type_symbol
_atom_site_label
_atom_site_fract_x
_atom_site_fract_y
_atom_site_fract_z
Si Si1 0.500000 0.326846 0.707880
Si Si2 0.360661 0.322463 0.627199
Si Si3 0.000000 0.318190 0.055365
Si Si4 0.667159 0.676443 0.138950
Si Si5 0.000000 0.678831 0.693959
Si Si6 0.106908 0.668555 0.448564
O O1 0.500000 0.500000 0.728228
O O2 0.413418 0.296483 0.675586
O O3 0.500000 0.207058 0.750370
O O4 0.354647 0.500000 0.613391
O O5 0.409439 0.241422 0.582460
O O6 0.263684 0.257229 0.641764
O O7 0.000000 0.500000 0.058167
O O8 0.000000 0.265214 0.000000
O O9 0.676445 0.500000 0.152784
O O10 0.591959 0.751255 0.172615
O O11 0.636431 0.694214 0.085012
O O12 0.000000 0.500000 0.682589
O O13 0.149511 0.700761 0.500000
O O14 0.140317 0.500000 0.430373
O O15 0.000000 0.665926 0.452271
#
# Coordination Sequence:
#
# PCOD8291985 Si02
#       6
#     8  16   8  16   8  16
#     4   9  21  43  66  89 114 146 196 250 302 356
#     4  10  22  41  65  90 121 160 200 246 299 359
#     4  10  21  39  64  95 129 162 201 250 298 347
#     4  12  24  38  59  89 123 158 200 250 299 351
#     4  12  25  41  63  87 118 158 198 243 300 365
#     4   9  18  34  56  80 111 153 196 237 285 345
#
# _framework density 19.798718999999998
#
# number of rings (size 3 to 8) (size 9 to 14) (size 15 to 20)
#    0.000    1.667    1.111    5.333    0.000    5.778 
#    0.000    1.111    0.000    0.000    0.000    0.000 
#    0.000    0.000    0.000    0.000    0.000    0.000 
#
# Total GULP energy -446217.915130 kJ/mol
# GULP energy per Si atom -12394.942087 kJ/mol
# Density = 1.975366 g / cm^3
# Si number density = 19.798719 Si / 1000 Ang^3
#
#
#
# Elastic Constant Matrix: (Units=GPa)
#
#
# Indices 1 2 3 4 5 6 
#
# 1 137.1829 50.8228 61.9431 0.0000 0.0000 0.0000
# 2 50.8228 114.3494 58.2309 0.0000 0.0000 0.0000
# 3 61.9431 58.2309 118.5151 0.0000 0.0000 0.0000
# 4 0.0000 0.0000 0.0000 38.2791 0.0000 0.0000
# 5 0.0000 0.0000 0.0000 0.0000 -40.8141 0.0000
# 6 0.0000 0.0000 0.0000 0.0000 0.0000 32.8852
#
#
#
# Elastic Compliance Matrix: (Units=1/GPa)
#
#
# Indices 1 2 3 4 5 6 
#
# 1 0.010004 -0.002379 -0.004060 0.000000 0.000000 0.000000
# 2 -0.002379 0.012229 -0.004765 0.000000 0.000000 0.000000
# 3 -0.004060 -0.004765 0.012901 0.000000 0.000000 0.000000
# 4 0.000000 0.000000 0.000000 0.026124 0.000000 0.000000
# 5 0.000000 0.000000 0.000000 0.000000 -0.024501 0.000000
# 6 0.000000 0.000000 0.000000 0.000000 0.000000 0.030409
#
#
# Mechanical properties :
#
#
# Convention : Reuss Voigt Hill
#
# Bulk Modulus (GPa) = 78.57860 79.11567 78.84714
# Shear Modulus (GPa) = 53.29600 19.34006 36.31803
#
# Velocity S-wave (km/s) = 5.19397 3.12882 4.28759
# Velocity P-wave (km/s) = 8.70314 7.28694 8.02634
#
# Compressibility (1/GPa) = 0.01272611
#
# Stress axis : x y z
#
# Youngs Moduli (GPa) = 99.95963 81.77231 77.51314
#
# Poissons Ratio (x) = 0.19453 0.31469
# Poissons Ratio (y) = 0.23779 0.36937
# Poissons Ratio (z) = 0.40582 0.38967
#
# Static dielectric constant tensor:
#      x y z
#    x 4.572330 0.000000 0.000000 
#    y 0.000000 3.727180 0.000000 
#    z 0.000000 0.000000 4.017880 
# 
# 
# High freq. dielectric constant tensor:
#      x y z
#    x 1.775040 0.000000 0.000000 
#    y 0.000000 1.775310 0.000000 
#    z 0.000000 0.000000 1.776320 
# 
# From -- ./inp_files/65182.got.cif
#   From: 2010.06.25/outbox.cif.g09.slc.cpg/sg71_33_cif.got.tgz:65182.got - 2010.06.28 04:59:45.
