data_PCOD8291536
_publ_section_title
;
Structure prediction by ZEFSAII (Michael W. Deem and Ramdas Pophale) SiO2 
 PCOD8291536
Probable space group: I M M M
;
_chemical_formula_sum "Si O2"
_cell_formula_units_Z 88
_cell_length_a 24.211675
_cell_length_b 9.024893
_cell_length_c 22.661102
_cell_angle_alpha 90.000000
_cell_angle_beta 90.000000
_cell_angle_gamma 90.000000
_cell_volume 4951.627005
_symmetry_space_group_name_H-M "I M M M"
_symmetry_group_IT_number 71
_symmetry_cell_setting 'orthorhombic'
loop_
_space_group_symop_operation_xyz
x,y,z
-x,-y,z
x,-y,-z
-x,y,-z
-x,-y,-z
x,y,-z
-x,y,z
x,-y,z
1/2+x,1/2+y,1/2+z
1/2-x,1/2-y,1/2+z
1/2+x,1/2-y,1/2-z
1/2-x,1/2+y,1/2-z
1/2-x,1/2-y,1/2-z
1/2+x,1/2+y,1/2-z
1/2-x,1/2+y,1/2+z
1/2+x,1/2-y,1/2+z
loop_
_atom_site_type_symbol
_atom_site_label
_atom_site_fract_x
_atom_site_fract_y
_atom_site_fract_z
Si Si1 0.260935 0.828963 0.432398
Si Si2 0.436819 0.171647 0.161483
Si Si3 0.435893 0.327843 0.717493
Si Si4 0.434651 0.330396 0.500000
Si Si5 0.620448 0.174528 0.610061
Si Si6 0.348781 0.174724 0.933605
O O1 0.274204 0.786662 0.500000
O O2 0.314665 0.787837 0.394394
O O3 0.208683 0.737862 0.408203
O O4 0.245678 0.000000 0.426284
O O5 0.500000 0.196774 0.142158
O O6 0.421346 0.270585 0.217533
O O7 0.399148 0.226938 0.107419
O O8 0.425891 0.000000 0.177195
O O9 0.500000 0.300491 0.702883
O O10 0.420499 0.500000 0.712812
O O11 0.399530 0.234740 0.672423
O O12 0.414464 0.500000 0.500000
O O13 0.500000 0.320175 0.500000
O O14 0.412938 0.251617 0.441829
O O15 0.609799 0.000000 0.605338
O O16 0.344019 0.000000 0.933916
O O17 0.359385 0.235187 0.000000
#
# Coordination Sequence:
#
# PCOD8291536 Si02
#       6
#    16  16  16   8  16  16
#     4   9  18  34  52  73 103 137 173 213 259 307
#     4   9  18  34  55  78 106 139 172 208 255 313
#     4  10  21  36  53  75 104 137 175 218 264 313
#     4  11  23  35  49  75 109 139 172 219 268 309
#     4  11  21  35  54  76 102 137 181 220 261 311
#     4   9  18  32  53  82 109 134 169 211 258 311
#
# _framework density 17.771936
#
# number of rings (size 3 to 8) (size 9 to 14) (size 15 to 20)
#    0.000    2.273    0.909    1.909    0.000    6.545 
#    0.000    2.727    0.000    0.000    0.000    5.091 
#    0.000    0.000    0.000    0.000    0.000    0.000 
#
# Total GULP energy -545704.873489 kJ/mol
# GULP energy per Si atom -12402.383488 kJ/mol
# Density = 1.773149 g / cm^3
# Si number density = 17.771936 Si / 1000 Ang^3
#
#
#
# Elastic Constant Matrix: (Units=GPa)
#
#
# Indices 1 2 3 4 5 6 
#
# 1 120.5112 56.8866 79.2682 0.0000 0.0000 0.0000
# 2 56.8866 73.7369 49.8618 0.0000 0.0000 0.0000
# 3 79.2682 49.8618 102.4733 0.0000 0.0000 0.0000
# 4 0.0000 0.0000 0.0000 25.1769 0.0000 0.0000
# 5 0.0000 0.0000 0.0000 0.0000 1.8045 0.0000
# 6 0.0000 0.0000 0.0000 0.0000 0.0000 30.1192
#
#
#
# Elastic Compliance Matrix: (Units=1/GPa)
#
#
# Indices 1 2 3 4 5 6 
#
# 1 0.019079 -0.007063 -0.011322 0.000000 0.000000 0.000000
# 2 -0.007063 0.022827 -0.005643 0.000000 0.000000 0.000000
# 3 -0.011322 -0.005643 0.021263 0.000000 0.000000 0.000000
# 4 0.000000 0.000000 0.000000 0.039719 0.000000 0.000000
# 5 0.000000 0.000000 0.000000 0.000000 0.554178 0.000000
# 6 0.000000 0.000000 0.000000 0.000000 0.000000 0.033201
#
#
# Mechanical properties :
#
#
# Convention : Reuss Voigt Hill
#
# Bulk Modulus (GPa) = 66.17359 74.30608 70.23983
# Shear Modulus (GPa) = 6.72619 18.80041 12.76330
#
# Velocity S-wave (km/s) = 1.94755 3.25602 2.68278
# Velocity P-wave (km/s) = 6.50945 7.48580 7.01464
#
# Compressibility (1/GPa) = 0.01511177
#
# Stress axis : x y z
#
# Youngs Moduli (GPa) = 52.41247 43.80742 47.03057
#
# Poissons Ratio (x) = 0.30943 0.53248
# Poissons Ratio (y) = 0.37021 0.26542
# Poissons Ratio (z) = 0.59341 0.24723
#
# Static dielectric constant tensor:
#      x y z
#    x 3.384300 0.000000 0.000000 
#    y 0.000000 3.345060 0.000000 
#    z 0.000000 0.000000 3.223870 
# 
# 
# High freq. dielectric constant tensor:
#      x y z
#    x 1.689260 0.000000 0.000000 
#    y 0.000000 1.691810 0.000000 
#    z 0.000000 0.000000 1.678660 
# 
# From -- ./inp_files/10416.got.cif
#   From: 2010.06.25/outbox.cif.g09.slc.cpg/sg71_6_cif.got.tgz:10416.got - 2010.06.28 04:59:45.
