data_PCOD8291835
_publ_section_title
;
Structure prediction by ZEFSAII (Michael W. Deem and Ramdas Pophale) SiO2 
 PCOD8291835
Probable space group: I M M M
;
_chemical_formula_sum "Si O2"
_cell_formula_units_Z 72
_cell_length_a 27.984442
_cell_length_b 13.668665
_cell_length_c 9.983939
_cell_angle_alpha 90.000000
_cell_angle_beta 90.000000
_cell_angle_gamma 90.000000
_cell_volume 3818.956137
_symmetry_space_group_name_H-M "I M M M"
_symmetry_group_IT_number 71
_symmetry_cell_setting 'orthorhombic'
loop_
_space_group_symop_operation_xyz
x,y,z
-x,-y,z
x,-y,-z
-x,y,-z
-x,-y,-z
x,y,-z
-x,y,z
x,-y,z
1/2+x,1/2+y,1/2+z
1/2-x,1/2-y,1/2+z
1/2+x,1/2-y,1/2-z
1/2-x,1/2+y,1/2-z
1/2-x,1/2-y,1/2-z
1/2+x,1/2+y,1/2-z
1/2-x,1/2+y,1/2+z
1/2+x,1/2-y,1/2+z
loop_
_atom_site_type_symbol
_atom_site_label
_atom_site_fract_x
_atom_site_fract_y
_atom_site_fract_z
Si Si1 0.759130 0.000000 0.500000
Si Si2 0.849327 0.711771 0.236881
Si Si3 0.554691 0.000000 0.853009
Si Si4 0.808831 0.500000 0.746898
Si Si5 0.261408 0.500000 0.500000
Si Si6 0.688465 0.704069 0.000000
Si Si7 0.289054 0.707978 0.500000
Si Si8 0.553278 0.827717 0.651849
O O1 0.723540 0.000000 0.623052
O O2 0.793779 0.093006 0.500000
O O3 0.843385 0.594766 0.260284
O O4 0.843959 0.774422 0.371063
O O5 0.808908 0.742559 0.132785
O O6 0.901321 0.743381 0.174416
O O7 0.565994 0.092940 0.763018
O O8 0.500000 0.000000 0.889253
O O9 0.581697 0.000000 0.000000
O O10 0.771945 0.500000 0.627583
O O11 0.297568 0.591875 0.500000
O O12 0.732208 0.779082 0.000000
O O13 0.554751 0.870075 0.500000
O O14 0.500000 0.781401 0.676490
#
# Coordination Sequence:
#
# PCOD8291835 Si02
#       8
#     4  16   8   8   4   8   8  16
#     4  12  24  38  60  84 116 162 192 240 294 356
#     4  12  23  38  60  89 120 159 199 242 292 351
#     4   9  18  32  54  82 117 155 195 241 286 343
#     4  12  21  35  58  85 120 157 202 226 284 353
#     4  12  24  38  60  82 114 160 190 246 298 334
#     4  12  24  40  59  86 121 154 198 249 295 351
#     4  12  22  42  59  84 117 154 200 243 289 353
#     4  10  21  38  57  81 116 158 200 242 292 353
#
# _framework density 18.853318999999999
#
# number of rings (size 3 to 8) (size 9 to 14) (size 15 to 20)
#    0.000    0.778    5.556    3.000    1.556    1.333 
#    2.000    0.000    0.000    0.000    0.000    4.667 
#    0.000    0.000    0.000    0.000    0.000    0.000 
#
# Total GULP energy -446108.818731 kJ/mol
# GULP energy per Si atom -12391.911631 kJ/mol
# Density = 1.881041 g / cm^3
# Si number density = 18.853319 Si / 1000 Ang^3
#
#
#
# Elastic Constant Matrix: (Units=GPa)
#
#
# Indices 1 2 3 4 5 6 
#
# 1 107.5235 13.9530 37.2637 0.0000 0.0000 0.0000
# 2 13.9530 75.1130 8.1950 0.0000 0.0000 0.0000
# 3 37.2637 8.1950 147.8754 0.0000 0.0000 0.0000
# 4 0.0000 0.0000 0.0000 44.8146 0.0000 0.0000
# 5 0.0000 0.0000 0.0000 0.0000 21.6368 0.0000
# 6 0.0000 0.0000 0.0000 0.0000 0.0000 12.0519
#
#
#
# Elastic Compliance Matrix: (Units=1/GPa)
#
#
# Indices 1 2 3 4 5 6 
#
# 1 0.010391 -0.001654 -0.002527 0.000000 0.000000 0.000000
# 2 -0.001654 0.013658 -0.000340 0.000000 0.000000 0.000000
# 3 -0.002527 -0.000340 0.007418 0.000000 0.000000 0.000000
# 4 0.000000 0.000000 0.000000 0.022314 0.000000 0.000000
# 5 0.000000 0.000000 0.000000 0.000000 0.046218 0.000000
# 6 0.000000 0.000000 0.000000 0.000000 0.000000 0.082974
#
#
# Mechanical properties :
#
#
# Convention : Reuss Voigt Hill
#
# Bulk Modulus (GPa) = 44.59498 49.92614 47.26056
# Shear Modulus (GPa) = 25.06398 33.77402 29.41900
#
# Velocity S-wave (km/s) = 3.65008 4.23710 3.95449
# Velocity P-wave (km/s) = 6.43965 7.10466 6.78031
#
# Compressibility (1/GPa) = 0.02242405
#
# Stress axis : x y z
#
# Youngs Moduli (GPa) = 96.24031 73.21878 134.80721
#
# Poissons Ratio (x) = 0.12114 0.34062
# Poissons Ratio (y) = 0.15923 0.04583
# Poissons Ratio (z) = 0.24317 0.02489
#
# Static dielectric constant tensor:
#      x y z
#    x 3.582370 0.000000 0.000000 
#    y 0.000000 3.290800 0.000000 
#    z 0.000000 0.000000 2.356840 
# 
# 
# High freq. dielectric constant tensor:
#      x y z
#    x 1.739430 0.000000 0.000000 
#    y 0.000000 1.685800 0.000000 
#    z 0.000000 0.000000 1.760440 
# 
# From -- ./inp_files/14423.got.cif
#   From: 2010.06.25/outbox.cif.g09.slc.cpg/sg71_8_cif.got.tgz:14423.got - 2010.06.28 04:59:45.
