data_PCOD8291386
_publ_section_title
;
Structure prediction by ZEFSAII (Michael W. Deem and Ramdas Pophale) SiO2 
 PCOD8291386
Probable space group: I M M M
;
_chemical_formula_sum "Si O2"
_cell_formula_units_Z 48
_cell_length_a 13.427977
_cell_length_b 27.119514
_cell_length_c 7.892010
_cell_angle_alpha 90.000000
_cell_angle_beta 90.000000
_cell_angle_gamma 90.000000
_cell_volume 2873.956021
_symmetry_space_group_name_H-M "I M M M"
_symmetry_group_IT_number 71
_symmetry_cell_setting 'orthorhombic'
loop_
_space_group_symop_operation_xyz
x,y,z
-x,-y,z
x,-y,-z
-x,y,-z
-x,-y,-z
x,y,-z
-x,y,z
x,-y,z
1/2+x,1/2+y,1/2+z
1/2-x,1/2-y,1/2+z
1/2+x,1/2-y,1/2-z
1/2-x,1/2+y,1/2-z
1/2-x,1/2-y,1/2-z
1/2+x,1/2+y,1/2-z
1/2-x,1/2+y,1/2+z
1/2+x,1/2-y,1/2+z
loop_
_atom_site_type_symbol
_atom_site_label
_atom_site_fract_x
_atom_site_fract_y
_atom_site_fract_z
Si Si1 0.887546 0.821050 0.000000
Si Si2 0.291472 0.848758 0.184595
Si Si3 0.612254 0.204097 0.500000
Si Si4 0.887094 0.555279 0.800147
O O1 0.828596 0.840590 0.831985
O O2 0.886296 0.762317 0.000000
O O3 0.000000 0.841511 0.000000
O O4 0.334158 0.814852 0.331723
O O5 0.312138 0.906399 0.214943
O O6 0.338365 0.833665 0.000000
O O7 0.500000 0.183143 0.500000
O O8 0.855793 0.500000 0.745853
O O9 0.000000 0.566044 0.740249
O O10 0.880054 0.561601 0.000000
#
# Coordination Sequence:
#
# PCOD8291386 Si02
#       4
#     8  16   8  16
#     4   9  22  40  54  73 107 145 188 229 257 297
#     4  10  21  33  57  78 109 141 181 213 264 315
#     4  11  20  36  56  80 113 140 170 220 271 324
#     4   9  17  31  52  80 113 141 165 206 270 333
#
# _framework density 16.701716999999999
#
# number of rings (size 3 to 8) (size 9 to 14) (size 15 to 20)
#    1.000    1.333    1.667    3.000    0.000    3.333 
#    0.000    2.500    0.000    2.000    0.000    2.333 
#    0.000    0.000    0.000    0.000    0.000    0.000 
#
# Total GULP energy -297345.357225 kJ/mol
# GULP energy per Si atom -12389.389884 kJ/mol
# Density = 1.666370 g / cm^3
# Si number density = 16.701717 Si / 1000 Ang^3
#
#
#
# Elastic Constant Matrix: (Units=GPa)
#
#
# Indices 1 2 3 4 5 6 
#
# 1 139.4394 61.7084 53.2737 0.0031 -0.0003 0.0000
# 2 61.7084 92.2988 35.9040 -0.0017 0.0003 0.0002
# 3 53.2737 35.9040 94.6611 -0.0099 -0.0043 0.0000
# 4 0.0031 -0.0017 -0.0099 -68.6031 -0.0160 -0.0005
# 5 -0.0003 0.0003 -0.0043 -0.0160 25.8208 -0.0002
# 6 0.0000 0.0002 0.0000 -0.0005 -0.0002 28.3648
#
#
#
# Elastic Compliance Matrix: (Units=1/GPa)
#
#
# Indices 1 2 3 4 5 6 
#
# 1 0.011420 -0.006024 -0.004142 0.000001 0.000000 0.000000
# 2 -0.006024 0.015887 -0.002636 0.000000 -0.000001 0.000000
# 3 -0.004142 -0.002636 0.013895 -0.000002 0.000002 0.000000
# 4 0.000001 0.000000 -0.000002 -0.014577 -0.000009 0.000000
# 5 0.000000 -0.000001 0.000002 -0.000009 0.038728 0.000000
# 6 0.000000 0.000000 0.000000 0.000000 0.000000 0.035255
#
#
# Mechanical properties :
#
#
# Convention : Reuss Voigt Hill
#
# Bulk Modulus (GPa) = 64.10891 69.79686 66.95289
# Shear Modulus (GPa) = 38.04847 8.81738 23.43292
#
# Velocity S-wave (km/s) = 4.77814 2.30017 3.74976
# Velocity P-wave (km/s) = 8.30113 6.99538 7.67607
#
# Compressibility (1/GPa) = 0.01559846
#
# Stress axis : x y z
#
# Youngs Moduli (GPa) = 87.56636 62.94468 71.96905
#
# Poissons Ratio (x) = 0.37916 0.29811
# Poissons Ratio (y) = 0.52748 0.18969
# Poissons Ratio (z) = 0.36272 0.16590
#
# Static dielectric constant tensor:
#      x y z
#    x 3.122660 0.000000 0.000000 
#    y 0.000000 3.261790 0.000000 
#    z 0.000000 0.000000 3.100270 
# 
# 
# High freq. dielectric constant tensor:
#      x y z
#    x 1.614030 0.000000 0.000000 
#    y 0.000000 1.651300 0.000000 
#    z 0.000000 0.000000 1.643430 
# 
# From -- ./inp_files/2200.got.cif
#   From: 2010.06.25/outbox.cif.g09.slc.cpg/sg71_2_cif.got.tgz:2200.got - 2010.06.28 04:59:45.
