data_PCOD8291374
_publ_section_title
;
Structure prediction by ZEFSAII (Michael W. Deem and Ramdas Pophale) SiO2 
 PCOD8291374
Probable space group: I M M M
;
_chemical_formula_sum "Si O2"
_cell_formula_units_Z 112
_cell_length_a 23.472226
_cell_length_b 24.964810
_cell_length_c 10.456492
_cell_angle_alpha 90.000000
_cell_angle_beta 90.000000
_cell_angle_gamma 90.000000
_cell_volume 6127.291652
_symmetry_space_group_name_H-M "I M M M"
_symmetry_group_IT_number 71
_symmetry_cell_setting 'orthorhombic'
loop_
_space_group_symop_operation_xyz
x,y,z
-x,-y,z
x,-y,-z
-x,y,-z
-x,-y,-z
x,y,-z
-x,y,z
x,-y,z
1/2+x,1/2+y,1/2+z
1/2-x,1/2-y,1/2+z
1/2+x,1/2-y,1/2-z
1/2-x,1/2+y,1/2-z
1/2-x,1/2-y,1/2-z
1/2+x,1/2+y,1/2-z
1/2-x,1/2+y,1/2+z
1/2+x,1/2-y,1/2+z
loop_
_atom_site_type_symbol
_atom_site_label
_atom_site_fract_x
_atom_site_fract_y
_atom_site_fract_z
Si Si1 0.756086 0.938987 0.356271
Si Si2 0.437857 0.277926 0.851540
Si Si3 0.436872 0.840551 0.848416
Si Si4 0.848768 0.861402 0.744529
Si Si5 0.438012 0.441463 0.649641
Si Si6 0.324146 0.891257 0.853587
Si Si7 0.254722 0.293365 0.640179
O O1 0.730670 0.931772 0.500000
O O2 0.808537 0.897454 0.345790
O O3 0.708376 0.928767 0.247655
O O4 0.777818 0.000000 0.337528
O O5 0.500000 0.297608 0.797152
O O6 0.423839 0.219158 0.791925
O O7 0.387090 0.319683 0.832654
O O8 0.444979 0.269318 0.000000
O O9 0.500000 0.859367 0.803108
O O10 0.389471 0.884135 0.805000
O O11 0.433854 0.837924 0.000000
O O12 0.889641 0.899696 0.821419
O O13 0.811245 0.828899 0.845656
O O14 0.443243 0.446397 0.500000
O O15 0.500000 0.423727 0.705440
O O16 0.421982 0.500000 0.706733
O O17 0.299699 0.831335 0.851401
O O18 0.319541 0.914485 0.000000
O O19 0.256635 0.265457 0.500000
O O20 0.250000 0.250000 0.750000
#
# Coordination Sequence:
#
# PCOD8291374 Si02
#       7
#    16  16  16  16  16  16  16
#     4  10  22  37  51  71 100 133 168 209 258 303
#     4   9  17  28  44  70 102 133 163 195 235 285
#     4   8  14  27  49  76 103 127 153 191 238 287
#     4  11  19  31  50  70  94 129 172 210 242 287
#     4   9  18  32  49  69  93 122 160 209 259 298
#     4   9  18  33  53  76  98 125 164 205 245 293
#     4  10  21  33  47  70 100 132 167 206 247 293
#
# _framework density 18.278873999999998
#
# number of rings (size 3 to 8) (size 9 to 14) (size 15 to 20)
#    0.000    2.571    0.000    3.857    0.000    4.857 
#    0.000    0.000    0.000    0.857    0.000   13.000 
#    0.000    0.000    0.000    0.000    0.000    0.000 
#
# Total GULP energy -693743.733647 kJ/mol
# GULP energy per Si atom -12388.280958 kJ/mol
# Density = 1.823727 g / cm^3
# Si number density = 18.278874 Si / 1000 Ang^3
#
#
#
# Elastic Constant Matrix: (Units=GPa)
#
#
# Indices 1 2 3 4 5 6 
#
# 1 121.2173 38.4683 30.0544 0.0000 0.0000 0.0000
# 2 38.4683 59.6484 34.6656 0.0000 0.0000 0.0000
# 3 30.0544 34.6656 83.5896 0.0000 0.0000 0.0000
# 4 0.0000 0.0000 0.0000 26.1298 0.0000 0.0000
# 5 0.0000 0.0000 0.0000 0.0000 19.6082 0.0000
# 6 0.0000 0.0000 0.0000 0.0000 0.0000 -27.0714
#
#
#
# Elastic Compliance Matrix: (Units=1/GPa)
#
#
# Indices 1 2 3 4 5 6 
#
# 1 0.010474 -0.006016 -0.001271 0.000000 0.000000 0.000000
# 2 -0.006016 0.025544 -0.008430 0.000000 0.000000 0.000000
# 3 -0.001271 -0.008430 0.015916 0.000000 0.000000 0.000000
# 4 0.000000 0.000000 0.000000 0.038270 0.000000 0.000000
# 5 0.000000 0.000000 0.000000 0.000000 0.050999 0.000000
# 6 0.000000 0.000000 0.000000 0.000000 0.000000 -0.036939
#
#
# Mechanical properties :
#
#
# Convention : Reuss Voigt Hill
#
# Bulk Modulus (GPa) = 48.78148 52.31464 50.54806
# Shear Modulus (GPa) = 35.07951 14.48446 24.78199
#
# Velocity S-wave (km/s) = 4.38554 2.81804 3.68608
# Velocity P-wave (km/s) = 7.23804 6.26665 6.76979
#
# Compressibility (1/GPa) = 0.02049958
#
# Stress axis : x y z
#
# Youngs Moduli (GPa) = 95.47438 39.14748 62.82845
#
# Poissons Ratio (x) = 0.23552 0.07985
# Poissons Ratio (y) = 0.57440 0.52967
# Poissons Ratio (z) = 0.12134 0.33003
#
# Static dielectric constant tensor:
#      x y z
#    x 3.439440 0.000000 0.000000 
#    y 0.000000 3.363860 0.000000 
#    z 0.000000 0.000000 3.109200 
# 
# 
# High freq. dielectric constant tensor:
#      x y z
#    x 1.719870 0.000000 0.000000 
#    y 0.000000 1.696410 0.000000 
#    z 0.000000 0.000000 1.675650 
# 
# From -- ./inp_files/27812.got.cif
#   From: 2010.06.25/outbox.cif.g09.slc.cpg/sg71_14_cif.got.tgz:27812.got - 2010.06.28 04:59:45.
