data_PCOD8291855
_publ_section_title
;
Structure prediction by ZEFSAII (Michael W. Deem and Ramdas Pophale) SiO2 
 PCOD8291855
Probable space group: I M M M
;
_chemical_formula_sum "Si O2"
_cell_formula_units_Z 72
_cell_length_a 28.656491
_cell_length_b 13.793386
_cell_length_c 8.900860
_cell_angle_alpha 90.000000
_cell_angle_beta 90.000000
_cell_angle_gamma 90.000000
_cell_volume 3518.243304
_symmetry_space_group_name_H-M "I M M M"
_symmetry_group_IT_number 71
_symmetry_cell_setting 'orthorhombic'
loop_
_space_group_symop_operation_xyz
x,y,z
-x,-y,z
x,-y,-z
-x,y,-z
-x,-y,-z
x,y,-z
-x,y,z
x,-y,z
1/2+x,1/2+y,1/2+z
1/2-x,1/2-y,1/2+z
1/2+x,1/2-y,1/2-z
1/2-x,1/2+y,1/2-z
1/2-x,1/2-y,1/2-z
1/2+x,1/2+y,1/2-z
1/2-x,1/2+y,1/2+z
1/2+x,1/2-y,1/2+z
loop_
_atom_site_type_symbol
_atom_site_label
_atom_site_fract_x
_atom_site_fract_y
_atom_site_fract_z
Si Si1 0.000000 0.887271 0.322653
Si Si2 0.632269 0.112150 0.823584
Si Si3 0.680597 0.610527 0.675506
Si Si4 0.772750 0.384661 0.830163
Si Si5 0.086773 0.219146 0.822659
O O1 0.954964 0.837447 0.253578
O O2 0.000000 0.872427 0.500000
O O3 0.000000 0.000000 0.277768
O O4 0.681794 0.149853 0.760193
O O5 0.590734 0.172095 0.743586
O O6 0.623920 0.000000 0.783510
O O7 0.631238 0.130678 0.000000
O O8 0.690130 0.618208 0.500000
O O9 0.673904 0.500000 0.726947
O O10 0.725535 0.658579 0.756719
O O11 0.634100 0.665246 0.724056
O O12 0.769459 0.500000 0.823354
O O13 0.777665 0.346227 0.000000
O O14 0.078469 0.222653 0.000000
#
# Coordination Sequence:
#
# PCOD8291855 Si02
#       5
#     8  16  16  16  16
#     4  11  25  45  68  93 122 153 185 228 284 345
#     4  10  21  38  59  83 116 157 197 240 290 344
#     4   9  18  33  53  80 115 153 192 235 286 344
#     4   9  17  30  51  80 114 153 196 240 285 336
#     4  11  23  39  62  89 116 150 194 243 293 346
#
# _framework density 20.464756999999999
#
# number of rings (size 3 to 8) (size 9 to 14) (size 15 to 20)
#    0.000    2.111    0.000    3.000    0.000    8.444 
#    0.000    2.778    0.000    3.333    0.000    0.000 
#    0.000    0.000    0.000    0.000    0.000    0.000 
#
# Total GULP energy -446516.574718 kJ/mol
# GULP energy per Si atom -12403.238187 kJ/mol
# Density = 2.041818 g / cm^3
# Si number density = 20.464757 Si / 1000 Ang^3
#
#
#
# Elastic Constant Matrix: (Units=GPa)
#
#
# Indices 1 2 3 4 5 6 
#
# 1 139.6550 84.5323 75.8156 0.0000 0.0000 0.0000
# 2 84.5323 95.2135 58.8587 0.0000 0.0000 0.0000
# 3 75.8156 58.8587 110.2454 0.0000 0.0000 0.0000
# 4 0.0000 0.0000 0.0000 26.3907 0.0000 0.0000
# 5 0.0000 0.0000 0.0000 0.0000 40.5990 0.0000
# 6 0.0000 0.0000 0.0000 0.0000 0.0000 20.2740
#
#
#
# Elastic Compliance Matrix: (Units=1/GPa)
#
#
# Indices 1 2 3 4 5 6 
#
# 1 0.017516 -0.012097 -0.005587 0.000000 0.000000 0.000000
# 2 -0.012097 0.024031 -0.004511 0.000000 0.000000 0.000000
# 3 -0.005587 -0.004511 0.015321 0.000000 0.000000 0.000000
# 4 0.000000 0.000000 0.000000 0.037892 0.000000 0.000000
# 5 0.000000 0.000000 0.000000 0.000000 0.024631 0.000000
# 6 0.000000 0.000000 0.000000 0.000000 0.000000 0.049324
#
#
# Mechanical properties :
#
#
# Convention : Reuss Voigt Hill
#
# Bulk Modulus (GPa) = 80.13986 87.05856 83.59921
# Shear Modulus (GPa) = 23.01327 25.84655 24.42991
#
# Velocity S-wave (km/s) = 3.35704 3.55770 3.45882
# Velocity P-wave (km/s) = 7.36690 7.71423 7.54257
#
# Compressibility (1/GPa) = 0.01247818
#
# Stress axis : x y z
#
# Youngs Moduli (GPa) = 57.09071 41.61241 65.26879
#
# Poissons Ratio (x) = 0.50339 0.36467
# Poissons Ratio (y) = 0.69064 0.29442
# Poissons Ratio (z) = 0.31898 0.18771
#
# Static dielectric constant tensor:
#      x y z
#    x 3.775440 0.000000 0.000000 
#    y 0.000000 3.870920 0.000000 
#    z 0.000000 0.000000 3.722030 
# 
# 
# High freq. dielectric constant tensor:
#      x y z
#    x 1.788860 0.000000 0.000000 
#    y 0.000000 1.812050 0.000000 
#    z 0.000000 0.000000 1.805430 
# 
# From -- ./inp_files/6005.got.cif
#   From: 2010.06.25/outbox.cif.g09.slc.cpg/sg71_4_cif.got.tgz:6005.got - 2010.06.28 04:59:45.
