data_PCOD8291009
_publ_section_title
;
Structure prediction by ZEFSAII (Michael W. Deem and Ramdas Pophale) SiO2 
 PCOD8291009
Probable space group: I M M M
;
_chemical_formula_sum "Si O2"
_cell_formula_units_Z 64
_cell_length_a 11.929814
_cell_length_b 13.972045
_cell_length_c 18.770870
_cell_angle_alpha 90.000000
_cell_angle_beta 90.000000
_cell_angle_gamma 90.000000
_cell_volume 3128.801781
_symmetry_space_group_name_H-M "I M M M"
_symmetry_group_IT_number 71
_symmetry_cell_setting 'orthorhombic'
loop_
_space_group_symop_operation_xyz
x,y,z
-x,-y,z
x,-y,-z
-x,y,-z
-x,-y,-z
x,y,-z
-x,y,z
x,-y,z
1/2+x,1/2+y,1/2+z
1/2-x,1/2-y,1/2+z
1/2+x,1/2-y,1/2-z
1/2-x,1/2+y,1/2-z
1/2-x,1/2-y,1/2-z
1/2+x,1/2+y,1/2-z
1/2-x,1/2+y,1/2+z
1/2+x,1/2-y,1/2+z
loop_
_atom_site_type_symbol
_atom_site_label
_atom_site_fract_x
_atom_site_fract_y
_atom_site_fract_z
Si Si1 0.500000 0.135437 0.080246
Si Si2 0.739861 0.605865 0.081944
Si Si3 0.000000 0.140979 0.578611
Si Si4 0.814811 0.609227 0.694068
Si Si5 0.874054 0.256635 0.821127
O O1 0.500000 0.247045 0.073633
O O2 0.388193 0.102917 0.122113
O O3 0.500000 0.090881 0.000000
O O4 0.790900 0.500000 0.090778
O O5 0.614847 0.608447 0.118073
O O6 0.822665 0.680660 0.116177
O O7 0.727185 0.636262 0.000000
O O8 0.000000 0.093609 0.500000
O O9 0.799629 0.500000 0.722981
O O10 0.876499 0.678626 0.750081
O O11 0.692894 0.656697 0.683244
O O12 0.000000 0.228201 0.840976
#
# Coordination Sequence:
#
# PCOD8291009 Si02
#       5
#     8  16   8  16  16
#     4  11  21  39  69  96 120 155 206 267 317 352
#     4  10  20  35  58  88 122 163 206 249 300 358
#     4   9  17  33  57  88 123 156 198 255 306 346
#     4  11  24  42  63  89 121 157 202 253 306 362
#     4  11  24  41  61  86 124 164 199 242 301 367
#
# _framework density 20.455116
#
# number of rings (size 3 to 8) (size 9 to 14) (size 15 to 20)
#    0.000    1.500    3.750    1.500    0.000    5.000 
#    0.000    1.250    0.000    0.000    0.000    3.500 
#    0.000    0.000    0.000    0.000    0.000    0.000 
#
# Total GULP energy -396597.816795 kJ/mol
# GULP energy per Si atom -12393.681775 kJ/mol
# Density = 2.040856 g / cm^3
# Si number density = 20.455116 Si / 1000 Ang^3
#
#
#
# Elastic Constant Matrix: (Units=GPa)
#
#
# Indices 1 2 3 4 5 6 
#
# 1 164.4380 39.4043 37.1603 0.0000 0.0000 0.0000
# 2 39.4043 113.2097 19.2730 0.0000 0.0000 0.0000
# 3 37.1603 19.2730 81.4939 0.0000 0.0000 0.0000
# 4 0.0000 0.0000 0.0000 11.9078 0.0000 0.0000
# 5 0.0000 0.0000 0.0000 0.0000 29.4449 0.0000
# 6 0.0000 0.0000 0.0000 0.0000 0.0000 11.9997
#
#
#
# Elastic Compliance Matrix: (Units=1/GPa)
#
#
# Indices 1 2 3 4 5 6 
#
# 1 0.007201 -0.002029 -0.002804 0.000000 0.000000 0.000000
# 2 -0.002029 0.009776 -0.001387 0.000000 0.000000 0.000000
# 3 -0.002804 -0.001387 0.013877 0.000000 0.000000 0.000000
# 4 0.000000 0.000000 0.000000 0.083978 0.000000 0.000000
# 5 0.000000 0.000000 0.000000 0.000000 0.033962 0.000000
# 6 0.000000 0.000000 0.000000 0.000000 0.000000 0.083336
#
#
# Mechanical properties :
#
#
# Convention : Reuss Voigt Hill
#
# Bulk Modulus (GPa) = 54.30384 61.20187 57.75285
# Shear Modulus (GPa) = 19.94361 28.22409 24.08385
#
# Velocity S-wave (km/s) = 3.12588 3.71860 3.43505
# Velocity P-wave (km/s) = 6.29552 6.95862 6.63536
#
# Compressibility (1/GPa) = 0.01841490
#
# Stress axis : x y z
#
# Youngs Moduli (GPa) = 138.86623 102.29654 72.06030
#
# Poissons Ratio (x) = 0.20758 0.20204
# Poissons Ratio (y) = 0.28178 0.09992
# Poissons Ratio (z) = 0.38935 0.14184
#
# Static dielectric constant tensor:
#      x y z
#    x 3.750530 0.000000 0.000000 
#    y 0.000000 3.763640 0.000000 
#    z 0.000000 0.000000 3.755350 
# 
# 
# High freq. dielectric constant tensor:
#      x y z
#    x 1.796140 0.000000 0.000000 
#    y 0.000000 1.807960 0.000000 
#    z 0.000000 0.000000 1.780760 
# 
# From -- ./inp_files/23232.got.cif
#   From: 2010.06.25/outbox.cif.g09.slc.cpg/sg71_12_cif.got.tgz:23232.got - 2010.06.28 04:59:45.
