data_PCOD8291665
_publ_section_title
;
Structure prediction by ZEFSAII (Michael W. Deem and Ramdas Pophale) SiO2 
 PCOD8291665
Probable space group: I M M M
;
_chemical_formula_sum "Si O2"
_cell_formula_units_Z 88
_cell_length_a 20.705228
_cell_length_b 8.789643
_cell_length_c 25.116669
_cell_angle_alpha 90.000000
_cell_angle_beta 90.000000
_cell_angle_gamma 90.000000
_cell_volume 4571.021832
_symmetry_space_group_name_H-M "I M M M"
_symmetry_group_IT_number 71
_symmetry_cell_setting 'orthorhombic'
loop_
_space_group_symop_operation_xyz
x,y,z
-x,-y,z
x,-y,-z
-x,y,-z
-x,-y,-z
x,y,-z
-x,y,z
x,-y,z
1/2+x,1/2+y,1/2+z
1/2-x,1/2-y,1/2+z
1/2+x,1/2-y,1/2-z
1/2-x,1/2+y,1/2-z
1/2-x,1/2-y,1/2-z
1/2+x,1/2+y,1/2-z
1/2-x,1/2+y,1/2+z
1/2+x,1/2-y,1/2+z
loop_
_atom_site_type_symbol
_atom_site_label
_atom_site_fract_x
_atom_site_fract_y
_atom_site_fract_z
Si Si1 0.637153 0.179796 0.500000
Si Si2 0.671676 0.678237 0.690856
Si Si3 0.500000 0.667794 0.061377
Si Si4 0.370887 0.821873 0.905009
Si Si5 0.194594 0.177379 0.311029
Si Si6 0.275823 0.823333 0.000000
Si Si7 0.426098 0.819509 0.390981
O O1 0.711492 0.225338 0.500000
O O2 0.602270 0.244137 0.446903
O O3 0.631772 0.000000 0.500000
O O4 0.665673 0.500000 0.681334
O O5 0.741342 0.733151 0.670594
O O6 0.667880 0.723979 0.753000
O O7 0.614130 0.757196 0.658882
O O8 0.500000 0.500000 0.089893
O O9 0.560310 0.771637 0.074735
O O10 0.500000 0.633664 0.000000
O O11 0.360381 0.725114 0.851813
O O12 0.316754 0.779528 0.948169
O O13 0.370852 0.000000 0.892267
O O14 0.210522 0.000000 0.313278
O O15 0.257211 0.000000 0.000000
O O16 0.500000 0.763940 0.385485
O O17 0.421793 0.000000 0.389831
#
# Coordination Sequence:
#
# PCOD8291665 Si02
#       7
#     8  16   8  16  16   8  16
#     4  10  21  36  57  85 114 147 187 233 280 331
#     4  10  21  38  60  86 116 150 188 237 291 340
#     4  11  23  39  59  83 115 155 197 236 285 348
#     4  11  22  38  59  84 116 153 193 238 289 343
#     4  10  21  38  60  86 115 149 191 240 288 341
#     4  10  22  36  54  83 117 147 182 233 286 336
#     4  10  21  38  59  83 114 152 192 233 281 341
#
# _framework density 19.251714
#
# number of rings (size 3 to 8) (size 9 to 14) (size 15 to 20)
#    0.000    1.727    0.909    3.273    0.000    9.091 
#    1.636    0.000    0.000    1.636    0.000    0.000 
#    0.000    0.000    0.000    0.000    0.000    0.000 
#
# Total GULP energy -545690.351625 kJ/mol
# GULP energy per Si atom -12402.053446 kJ/mol
# Density = 1.920790 g / cm^3
# Si number density = 19.251714 Si / 1000 Ang^3
#
#
#
# Elastic Constant Matrix: (Units=GPa)
#
#
# Indices 1 2 3 4 5 6 
#
# 1 137.5873 27.4919 65.3807 0.0000 0.0000 0.0000
# 2 27.4919 31.3841 32.8850 0.0000 0.0000 0.0000
# 3 65.3807 32.8850 110.1902 0.0000 0.0000 0.0000
# 4 0.0000 0.0000 0.0000 29.7611 0.0000 0.0000
# 5 0.0000 0.0000 0.0000 0.0000 23.6773 0.0000
# 6 0.0000 0.0000 0.0000 0.0000 0.0000 39.6292
#
#
#
# Elastic Compliance Matrix: (Units=1/GPa)
#
#
# Indices 1 2 3 4 5 6 
#
# 1 0.010434 -0.003860 -0.005039 0.000000 0.000000 0.000000
# 2 -0.003860 0.047789 -0.011972 0.000000 0.000000 0.000000
# 3 -0.005039 -0.011972 0.015638 0.000000 0.000000 0.000000
# 4 0.000000 0.000000 0.000000 0.033601 0.000000 0.000000
# 5 0.000000 0.000000 0.000000 0.000000 0.042234 0.000000
# 6 0.000000 0.000000 0.000000 0.000000 0.000000 0.025234
#
#
# Mechanical properties :
#
#
# Convention : Reuss Voigt Hill
#
# Bulk Modulus (GPa) = 31.13390 58.96409 45.04900
# Shear Modulus (GPa) = 21.98985 28.84046 25.41516
#
# Velocity S-wave (km/s) = 3.38335 3.87469 3.63733
# Velocity P-wave (km/s) = 5.60980 7.12124 6.41023
#
# Compressibility (1/GPa) = 0.03211933
#
# Stress axis : x y z
#
# Youngs Moduli (GPa) = 95.84200 20.92534 63.94747
#
# Poissons Ratio (x) = 0.08077 0.32222
# Poissons Ratio (y) = 0.36995 0.76556
# Poissons Ratio (z) = 0.48294 0.25051
#
# Static dielectric constant tensor:
#      x y z
#    x 3.482110 0.000000 0.000000 
#    y 0.000000 3.476990 0.000000 
#    z 0.000000 0.000000 3.666270 
# 
# 
# High freq. dielectric constant tensor:
#      x y z
#    x 1.750220 0.000000 0.000000 
#    y 0.000000 1.751540 0.000000 
#    z 0.000000 0.000000 1.757520 
# 
# From -- ./inp_files/61166.got.cif
#   From: 2010.06.25/outbox.cif.g09.slc.cpg/sg71_31_cif.got.tgz:61166.got - 2010.06.28 04:59:45.
