data_PCOD8291173
_publ_section_title
;
Structure prediction by ZEFSAII (Michael W. Deem and Ramdas Pophale) SiO2 
 PCOD8291173
Probable space group: I M M M
;
_chemical_formula_sum "Si O2"
_cell_formula_units_Z 56
_cell_length_a 8.147602
_cell_length_b 18.936676
_cell_length_c 16.608849
_cell_angle_alpha 90.000000
_cell_angle_beta 90.000000
_cell_angle_gamma 90.000000
_cell_volume 2562.554386
_symmetry_space_group_name_H-M "I M M M"
_symmetry_group_IT_number 71
_symmetry_cell_setting 'orthorhombic'
loop_
_space_group_symop_operation_xyz
x,y,z
-x,-y,z
x,-y,-z
-x,y,-z
-x,-y,-z
x,y,-z
-x,y,z
x,-y,z
1/2+x,1/2+y,1/2+z
1/2-x,1/2-y,1/2+z
1/2+x,1/2-y,1/2-z
1/2-x,1/2+y,1/2-z
1/2-x,1/2-y,1/2-z
1/2+x,1/2+y,1/2-z
1/2-x,1/2+y,1/2+z
1/2+x,1/2-y,1/2+z
loop_
_atom_site_type_symbol
_atom_site_label
_atom_site_fract_x
_atom_site_fract_y
_atom_site_fract_z
Si Si1 0.000000 0.080278 0.904163
Si Si2 0.678659 0.845971 0.092004
Si Si3 0.190735 0.717928 0.165975
Si Si4 0.193810 0.920622 0.591599
O O1 0.832957 0.113709 0.866550
O O2 0.000000 0.000000 0.877761
O O3 0.000000 0.091593 0.000000
O O4 0.500000 0.864245 0.132470
O O5 0.712044 0.762165 0.097933
O O6 0.667479 0.869038 0.000000
O O7 0.250000 0.750000 0.250000
O O8 0.227157 0.635037 0.153907
O O9 0.000000 0.732028 0.155899
O O10 0.251196 0.904494 0.500000
O O11 0.000000 0.914827 0.597950
O O12 0.250454 0.000000 0.615710
#
# Coordination Sequence:
#
# PCOD8291173 Si02
#       4
#     8  16  16  16
#     4   9  18  34  56  84 115 147 190 240 291 348
#     4  10  20  36  59  86 117 154 199 249 303 362
#     4  12  24  38  58  85 121 160 207 256 307 370
#     4   9  19  38  64  93 125 161 202 252 312 376
#
# _framework density 21.853194999999999
#
# number of rings (size 3 to 8) (size 9 to 14) (size 15 to 20)
#    0.000    1.857    1.429    4.286    0.000    5.143 
#    0.000    5.714    0.000    3.429    0.000    0.000 
#    0.000    0.000    0.000    0.000    0.000    0.000 
#
# Total GULP energy -346986.968247 kJ/mol
# GULP energy per Si atom -12392.391723 kJ/mol
# Density = 2.180346 g / cm^3
# Si number density = 21.853195 Si / 1000 Ang^3
#
#
#
# Elastic Constant Matrix: (Units=GPa)
#
#
# Indices 1 2 3 4 5 6 
#
# 1 194.7966 76.5460 23.4465 0.0000 0.0000 0.0000
# 2 76.5460 160.3867 39.1388 0.0000 0.0000 0.0000
# 3 23.4465 39.1388 52.6826 0.0001 0.0000 0.0000
# 4 0.0000 0.0000 0.0001 31.8546 0.0000 0.0000
# 5 0.0000 0.0000 0.0000 0.0000 22.1637 0.0000
# 6 0.0000 0.0000 0.0000 0.0000 0.0000 33.6897
#
#
#
# Elastic Compliance Matrix: (Units=1/GPa)
#
#
# Indices 1 2 3 4 5 6 
#
# 1 0.006340 -0.002855 -0.000701 0.000000 0.000000 0.000000
# 2 -0.002855 0.008901 -0.005342 0.000000 0.000000 0.000000
# 3 -0.000701 -0.005342 0.023262 0.000000 0.000000 0.000000
# 4 0.000000 0.000000 0.000000 0.031393 0.000000 0.000000
# 5 0.000000 0.000000 0.000000 0.000000 0.045119 0.000000
# 6 0.000000 0.000000 0.000000 0.000000 0.000000 0.029683
#
#
# Mechanical properties :
#
#
# Convention : Reuss Voigt Hill
#
# Bulk Modulus (GPa) = 48.29107 76.23648 62.26377
# Shear Modulus (GPa) = 29.51685 35.45725 32.48705
#
# Velocity S-wave (km/s) = 3.67916 4.03242 3.85983
# Velocity P-wave (km/s) = 6.33989 7.52609 6.95831
#
# Compressibility (1/GPa) = 0.02070776
#
# Stress axis : x y z
#
# Youngs Moduli (GPa) = 157.73751 112.34699 42.98803
#
# Poissons Ratio (x) = 0.32071 0.03012
# Poissons Ratio (y) = 0.45029 0.22965
# Poissons Ratio (z) = 0.11053 0.60018
#
# Static dielectric constant tensor:
#      x y z
#    x 4.369910 0.000000 0.000000 
#    y 0.000000 2.193780 0.000000 
#    z 0.000000 0.000000 3.609280 
# 
# 
# High freq. dielectric constant tensor:
#      x y z
#    x 1.875360 0.000000 0.000000 
#    y 0.000000 1.858540 0.000000 
#    z 0.000000 0.000000 1.818620 
# 
# From -- ./inp_files/7216.got.cif
#   From: 2010.06.25/outbox.cif.g09.slc.cpg/sg71_4_cif.got.tgz:7216.got - 2010.06.28 04:59:45.
