data_PCOD8291104
_publ_section_title
;
Structure prediction by ZEFSAII (Michael W. Deem and Ramdas Pophale) SiO2 
 PCOD8291104
Probable space group: I M M M
;
_chemical_formula_sum "Si O2"
_cell_formula_units_Z 88
_cell_length_a 8.774967
_cell_length_b 19.129470
_cell_length_c 27.142341
_cell_angle_alpha 90.000000
_cell_angle_beta 90.000000
_cell_angle_gamma 90.000000
_cell_volume 4556.126062
_symmetry_space_group_name_H-M "I M M M"
_symmetry_group_IT_number 71
_symmetry_cell_setting 'orthorhombic'
loop_
_space_group_symop_operation_xyz
x,y,z
-x,-y,z
x,-y,-z
-x,y,-z
-x,-y,-z
x,y,-z
-x,y,z
x,-y,z
1/2+x,1/2+y,1/2+z
1/2-x,1/2-y,1/2+z
1/2+x,1/2-y,1/2-z
1/2-x,1/2+y,1/2-z
1/2-x,1/2-y,1/2-z
1/2+x,1/2+y,1/2-z
1/2-x,1/2+y,1/2+z
1/2+x,1/2-y,1/2+z
loop_
_atom_site_type_symbol
_atom_site_label
_atom_site_fract_x
_atom_site_fract_y
_atom_site_fract_z
Si Si1 0.820353 0.681958 0.772907
Si Si2 0.318966 0.922106 0.808778
Si Si3 0.819796 0.080950 0.000000
Si Si4 0.322567 0.197274 0.383879
Si Si5 0.327575 0.578904 0.942084
Si Si6 0.180480 0.657029 0.593777
O O1 0.750000 0.750000 0.750000
O O2 0.762314 0.615385 0.741346
O O3 0.766793 0.676160 0.829229
O O4 0.000000 0.688114 0.768674
O O5 0.500000 0.925552 0.810246
O O6 0.259824 0.879684 0.856292
O O7 0.249024 0.000000 0.809725
O O8 0.754745 0.118035 0.048063
O O9 0.000000 0.088844 0.000000
O O10 0.769156 0.000000 0.000000
O O11 0.500000 0.216628 0.384864
O O12 0.292688 0.130167 0.417269
O O13 0.228932 0.262310 0.405173
O O14 0.500000 0.598667 0.926580
O O15 0.290001 0.500000 0.925203
O O16 0.308191 0.585937 0.000000
O O17 0.000000 0.652335 0.588353
#
# Coordination Sequence:
#
# PCOD8291104 Si02
#       6
#    16  16   8  16  16  16
#     4  10  20  36  57  82 115 153 191 235 288 344
#     4   9  18  34  58  86 113 147 194 242 285 336
#     4  11  25  43  61  85 122 157 188 243 307 355
#     4  11  23  36  57  89 123 157 193 242 297 350
#     4   9  20  40  63  85 113 152 197 243 291 346
#     4  11  22  38  62  87 115 157 203 244 284 343
#
# _framework density 19.314654000000001
#
# number of rings (size 3 to 8) (size 9 to 14) (size 15 to 20)
#    0.000    1.909    1.818    2.455    1.273    3.636 
#    0.000    2.727    0.000    1.636    0.000    0.000 
#    0.000    0.000    0.000    0.000    0.000    0.000 
#
# Total GULP energy -545674.341255 kJ/mol
# GULP energy per Si atom -12401.689574 kJ/mol
# Density = 1.927069 g / cm^3
# Si number density = 19.314654 Si / 1000 Ang^3
#
#
#
# Elastic Constant Matrix: (Units=GPa)
#
#
# Indices 1 2 3 4 5 6 
#
# 1 43.5708 31.5390 36.6867 0.0000 0.0000 0.0000
# 2 31.5390 148.1097 72.2491 0.0000 0.0000 0.0000
# 3 36.6867 72.2491 118.0946 0.0000 0.0000 0.0000
# 4 0.0000 0.0000 0.0000 38.6601 0.0000 0.0000
# 5 0.0000 0.0000 0.0000 0.0000 9.5126 0.0000
# 6 0.0000 0.0000 0.0000 0.0000 0.0000 29.0296
#
#
#
# Elastic Compliance Matrix: (Units=1/GPa)
#
#
# Indices 1 2 3 4 5 6 
#
# 1 0.031870 -0.002789 -0.008194 0.000000 0.000000 0.000000
# 2 -0.002789 0.009868 -0.005171 0.000000 0.000000 0.000000
# 3 -0.008194 -0.005171 0.014177 0.000000 0.000000 0.000000
# 4 0.000000 0.000000 0.000000 0.025866 0.000000 0.000000
# 5 0.000000 0.000000 0.000000 0.000000 0.105123 0.000000
# 6 0.000000 0.000000 0.000000 0.000000 0.000000 0.034448
#
#
# Mechanical properties :
#
#
# Convention : Reuss Voigt Hill
#
# Bulk Modulus (GPa) = 42.36152 65.63610 53.99881
# Shear Modulus (GPa) = 19.11840 26.72715 22.92277
#
# Velocity S-wave (km/s) = 3.14958 3.72395 3.44874
# Velocity P-wave (km/s) = 5.93350 7.24891 6.62394
#
# Compressibility (1/GPa) = 0.02360633
#
# Stress axis : x y z
#
# Youngs Moduli (GPa) = 31.37792 101.33769 70.53869
#
# Poissons Ratio (x) = 0.28267 0.57799
# Poissons Ratio (y) = 0.08752 0.36473
# Poissons Ratio (z) = 0.25711 0.52398
#
# Static dielectric constant tensor:
#      x y z
#    x 2.837380 0.000000 0.000000 
#    y 0.000000 3.748500 0.000000 
#    z 0.000000 0.000000 3.571440 
# 
# 
# High freq. dielectric constant tensor:
#      x y z
#    x 1.734430 0.000000 0.000000 
#    y 0.000000 1.763290 0.000000 
#    z 0.000000 0.000000 1.762320 
# 
# From -- ./inp_files/50527.got.cif
#   From: 2010.06.25/outbox.cif.g09.slc.cpg/sg71_26_cif.got.tgz:50527.got - 2010.06.28 04:59:45.
