data_PCOD8291106
_publ_section_title
;
Structure prediction by ZEFSAII (Michael W. Deem and Ramdas Pophale) SiO2 
 PCOD8291106
Probable space group: I M M M
;
_chemical_formula_sum "Si O2"
_cell_formula_units_Z 96
_cell_length_a 15.082390
_cell_length_b 12.885522
_cell_length_c 25.813014
_cell_angle_alpha 90.000000
_cell_angle_beta 90.000000
_cell_angle_gamma 90.000000
_cell_volume 5016.616477
_symmetry_space_group_name_H-M "I M M M"
_symmetry_group_IT_number 71
_symmetry_cell_setting 'orthorhombic'
loop_
_space_group_symop_operation_xyz
x,y,z
-x,-y,z
x,-y,-z
-x,y,-z
-x,-y,-z
x,y,-z
-x,y,z
x,-y,z
1/2+x,1/2+y,1/2+z
1/2-x,1/2-y,1/2+z
1/2+x,1/2-y,1/2-z
1/2-x,1/2+y,1/2-z
1/2-x,1/2-y,1/2-z
1/2+x,1/2+y,1/2-z
1/2-x,1/2+y,1/2+z
1/2+x,1/2-y,1/2+z
loop_
_atom_site_type_symbol
_atom_site_label
_atom_site_fract_x
_atom_site_fract_y
_atom_site_fract_z
Si Si1 0.500000 0.619517 0.292022
Si Si2 0.097135 0.752369 0.652654
Si Si3 0.500000 0.382606 0.414540
Si Si4 0.825717 0.766673 0.057404
Si Si5 0.275286 0.120503 0.646739
Si Si6 0.149233 0.620266 0.441141
Si Si7 0.350822 0.777175 0.740957
O O1 0.500000 0.500000 0.271874
O O2 0.500000 0.621765 0.353288
O O3 0.589661 0.676817 0.273468
O O4 0.175147 0.837388 0.654526
O O5 0.093511 0.684951 0.600478
O O6 0.110852 0.679407 0.704204
O O7 0.000000 0.806736 0.656545
O O8 0.500000 0.500000 0.434808
O O9 0.582882 0.324600 0.437965
O O10 0.818573 0.671291 0.096405
O O11 0.751813 0.853874 0.068500
O O12 0.814682 0.719706 0.000000
O O13 0.345151 0.140487 0.693956
O O14 0.267105 0.000000 0.636887
O O15 0.119959 0.649511 0.500000
O O16 0.132562 0.500000 0.430671
O O17 0.250000 0.750000 0.750000
#
# Coordination Sequence:
#
# PCOD8291106 Si02
#       7
#     8  16   8  16  16  16  16
#     4  11  22  39  66  92 120 158 195 238 301 361
#     4  10  21  37  60  87 116 142 190 245 287 345
#     4  11  21  34  59  90 118 147 183 235 293 342
#     4  10  20  36  57  83 116 151 194 241 278 332
#     4  10  22  40  59  80 113 157 194 235 291 341
#     4   9  19  36  57  82 116 155 187 225 290 356
#     4  10  21  40  58  86 122 150 195 243 293 347
#
# _framework density 19.136405
#
# number of rings (size 3 to 8) (size 9 to 14) (size 15 to 20)
#    0.000    2.000    2.500    0.750    0.000    6.000 
#    0.000    2.500    0.000    1.000    0.000    4.667 
#    0.000    0.000    0.000    0.000    0.000    0.000 
#
# Total GULP energy -594764.535433 kJ/mol
# GULP energy per Si atom -12390.927822 kJ/mol
# Density = 1.909285 g / cm^3
# Si number density = 19.136405 Si / 1000 Ang^3
#
#
#
# Elastic Constant Matrix: (Units=GPa)
#
#
# Indices 1 2 3 4 5 6 
#
# 1 117.8247 41.6476 30.7772 0.0000 0.0000 0.0000
# 2 41.6476 111.5644 52.6332 0.0000 0.0000 0.0000
# 3 30.7772 52.6332 128.6716 0.0000 0.0000 0.0000
# 4 0.0000 0.0000 0.0000 12.1213 0.0000 0.0000
# 5 0.0000 0.0000 0.0000 0.0000 26.6125 0.0000
# 6 0.0000 0.0000 0.0000 0.0000 0.0000 -74.1795
#
#
#
# Elastic Compliance Matrix: (Units=1/GPa)
#
#
# Indices 1 2 3 4 5 6 
#
# 1 0.009893 -0.003193 -0.001060 0.000000 0.000000 0.000000
# 2 -0.003193 0.012137 -0.004201 0.000000 0.000000 0.000000
# 3 -0.001060 -0.004201 0.009744 0.000000 0.000000 0.000000
# 4 0.000000 0.000000 0.000000 0.082499 0.000000 0.000000
# 5 0.000000 0.000000 0.000000 0.000000 0.037576 0.000000
# 6 0.000000 0.000000 0.000000 0.000000 0.000000 -0.013481
#
#
# Mechanical properties :
#
#
# Convention : Reuss Voigt Hill
#
# Bulk Modulus (GPa) = 67.26971 67.57519 67.42245
# Shear Modulus (GPa) = 31.20474 8.44437 19.82455
#
# Velocity S-wave (km/s) = 4.04251 2.10293 3.22213
# Velocity P-wave (km/s) = 7.55104 6.42537 7.01084
#
# Compressibility (1/GPa) = 0.01486553
#
# Stress axis : x y z
#
# Youngs Moduli (GPa) = 101.08477 82.39083 102.62969
#
# Poissons Ratio (x) = 0.26306 0.10881
# Poissons Ratio (y) = 0.32274 0.43115
# Poissons Ratio (z) = 0.10717 0.34613
#
# Static dielectric constant tensor:
#      x y z
#    x 3.653880 0.000000 0.000000 
#    y 0.000000 3.170090 0.000000 
#    z 0.000000 0.000000 4.130970 
# 
# 
# High freq. dielectric constant tensor:
#      x y z
#    x 1.756340 0.000000 0.000000 
#    y 0.000000 1.702280 0.000000 
#    z 0.000000 0.000000 1.772160 
# 
# From -- ./inp_files/59835.got.cif
#   From: 2010.06.25/outbox.cif.g09.slc.cpg/sg71_30_cif.got.tgz:59835.got - 2010.06.28 04:59:45.
