data_PCOD8291940
_publ_section_title
;
Structure prediction by ZEFSAII (Michael W. Deem and Ramdas Pophale) SiO2 
 PCOD8291940
Probable space group: I M M M
;
_chemical_formula_sum "Si O2"
_cell_formula_units_Z 64
_cell_length_a 7.553759
_cell_length_b 14.059662
_cell_length_c 29.366552
_cell_angle_alpha 90.000000
_cell_angle_beta 90.000000
_cell_angle_gamma 90.000000
_cell_volume 3118.824684
_symmetry_space_group_name_H-M "I M M M"
_symmetry_group_IT_number 71
_symmetry_cell_setting 'orthorhombic'
loop_
_space_group_symop_operation_xyz
x,y,z
-x,-y,z
x,-y,-z
-x,y,-z
-x,-y,-z
x,y,-z
-x,y,z
x,-y,z
1/2+x,1/2+y,1/2+z
1/2-x,1/2-y,1/2+z
1/2+x,1/2-y,1/2-z
1/2-x,1/2+y,1/2-z
1/2-x,1/2-y,1/2-z
1/2+x,1/2+y,1/2-z
1/2-x,1/2+y,1/2+z
1/2+x,1/2-y,1/2+z
loop_
_atom_site_type_symbol
_atom_site_label
_atom_site_fract_x
_atom_site_fract_y
_atom_site_fract_z
Si Si1 0.708709 0.606470 0.500000
Si Si2 0.792275 0.779645 0.817585
Si Si3 0.208716 0.753721 0.079585
Si Si4 0.202478 0.602747 0.763942
Si Si5 0.500000 0.608156 0.053839
O O1 0.792728 0.500000 0.500000
O O2 0.500000 0.596915 0.500000
O O3 0.770337 0.664209 0.455352
O O4 0.744191 0.792348 0.870341
O O5 0.708782 0.681589 0.797067
O O6 0.715108 0.867508 0.789169
O O7 0.000000 0.777466 0.809748
O O8 0.320908 0.658662 0.071148
O O9 0.000000 0.729134 0.074282
O O10 0.296955 0.500000 0.770415
O O11 0.000000 0.591550 0.777781
O O12 0.500000 0.500000 0.072292
O O13 0.500000 0.609837 0.000000
#
# Coordination Sequence:
#
# PCOD8291940 Si02
#       5
#     8  16  16  16   8
#     4   9  18  35  59  86 115 149 190 234 286 346
#     4   9  19  34  55  79 107 147 187 230 280 338
#     4  10  21  39  61  85 118 156 191 238 295 341
#     4   9  18  33  52  77 110 145 184 232 281 333
#     4  11  24  40  60  88 118 150 194 244 286 347
#
# _framework density 20.520551000000001
#
# number of rings (size 3 to 8) (size 9 to 14) (size 15 to 20)
#    0.000    2.500    1.250    0.000    1.750    3.000 
#    0.000    7.500    0.000    0.000    0.000    0.000 
#    0.000    0.000    0.000    0.000    0.000    0.000 
#
# Total GULP energy -396640.328150 kJ/mol
# GULP energy per Si atom -12395.010255 kJ/mol
# Density = 2.047385 g / cm^3
# Si number density = 20.520551 Si / 1000 Ang^3
#
#
#
# Elastic Constant Matrix: (Units=GPa)
#
#
# Indices 1 2 3 4 5 6 
#
# 1 52.2854 21.5261 10.8433 0.0000 0.0000 0.0000
# 2 21.5261 150.9995 51.7034 0.0000 0.0000 0.0000
# 3 10.8433 51.7034 139.2944 0.0000 0.0000 0.0000
# 4 0.0000 0.0000 0.0000 15.4833 0.0000 0.0000
# 5 0.0000 0.0000 0.0000 0.0000 15.9127 0.0000
# 6 0.0000 0.0000 0.0000 0.0000 0.0000 24.0348
#
#
#
# Elastic Compliance Matrix: (Units=1/GPa)
#
#
# Indices 1 2 3 4 5 6 
#
# 1 0.020359 -0.002703 -0.000581 0.000000 0.000000 0.000000
# 2 -0.002703 0.007946 -0.002739 0.000000 0.000000 0.000000
# 3 -0.000581 -0.002739 0.008241 0.000000 0.000000 0.000000
# 4 0.000000 0.000000 0.000000 0.064586 0.000000 0.000000
# 5 0.000000 0.000000 0.000000 0.000000 0.062843 0.000000
# 6 0.000000 0.000000 0.000000 0.000000 0.000000 0.041606
#
#
# Mechanical properties :
#
#
# Convention : Reuss Voigt Hill
#
# Bulk Modulus (GPa) = 40.81837 56.74722 48.78279
# Shear Modulus (GPa) = 22.14405 28.31994 25.23199
#
# Velocity S-wave (km/s) = 3.28855 3.71897 3.51036
# Velocity P-wave (km/s) = 5.86124 6.79374 6.34464
#
# Compressibility (1/GPa) = 0.02449877
#
# Stress axis : x y z
#
# Youngs Moduli (GPa) = 49.11750 125.85399 121.34581
#
# Poissons Ratio (x) = 0.34022 0.07056
# Poissons Ratio (y) = 0.13278 0.33235
# Poissons Ratio (z) = 0.02856 0.34470
#
# Static dielectric constant tensor:
#      x y z
#    x 3.538340 0.000000 0.000000 
#    y 0.000000 4.064330 0.000000 
#    z 0.000000 0.000000 3.820590 
# 
# 
# High freq. dielectric constant tensor:
#      x y z
#    x 1.790190 0.000000 0.000000 
#    y 0.000000 1.799010 0.000000 
#    z 0.000000 0.000000 1.803270 
# 
# From -- ./inp_files/67800.got.cif
#   From: 2010.06.25/outbox.cif.g09.slc.cpg/sg71_34_cif.got.tgz:67800.got - 2010.06.28 04:59:45.
