data_PCOD8291586
_publ_section_title
;
Structure prediction by ZEFSAII (Michael W. Deem and Ramdas Pophale) SiO2 
 PCOD8291586
Probable space group: I M M M
;
_chemical_formula_sum "Si O2"
_cell_formula_units_Z 96
_cell_length_a 13.897947
_cell_length_b 12.950819
_cell_length_c 28.770269
_cell_angle_alpha 90.000000
_cell_angle_beta 90.000000
_cell_angle_gamma 90.000000
_cell_volume 5178.354850
_symmetry_space_group_name_H-M "I M M M"
_symmetry_group_IT_number 71
_symmetry_cell_setting 'orthorhombic'
loop_
_space_group_symop_operation_xyz
x,y,z
-x,-y,z
x,-y,-z
-x,y,-z
-x,-y,-z
x,y,-z
-x,y,z
x,-y,z
1/2+x,1/2+y,1/2+z
1/2-x,1/2-y,1/2+z
1/2+x,1/2-y,1/2-z
1/2-x,1/2+y,1/2-z
1/2-x,1/2-y,1/2-z
1/2+x,1/2+y,1/2-z
1/2-x,1/2+y,1/2+z
1/2+x,1/2-y,1/2+z
loop_
_atom_site_type_symbol
_atom_site_label
_atom_site_fract_x
_atom_site_fract_y
_atom_site_fract_z
Si Si1 0.386457 0.500000 0.447919
Si Si2 0.886548 0.384434 0.447333
Si Si3 0.613145 0.387249 0.294320
Si Si4 0.609743 0.377371 0.192611
Si Si5 0.297185 0.693979 0.898099
Si Si6 0.391378 0.500000 0.054764
Si Si7 0.887951 0.797072 0.891407
O O1 0.500000 0.500000 0.451107
O O2 0.341521 0.500000 0.500000
O O3 0.355125 0.397358 0.420577
O O4 0.860752 0.351909 0.500000
O O5 0.845404 0.500000 0.437095
O O6 0.842234 0.303139 0.412038
O O7 0.000000 0.385216 0.440351
O O8 0.500000 0.403936 0.291475
O O9 0.660586 0.500000 0.302923
O O10 0.645911 0.342411 0.244113
O O11 0.637325 0.313376 0.337152
O O12 0.500000 0.342069 0.183457
O O13 0.618323 0.500000 0.187269
O O14 0.678979 0.323088 0.155794
O O15 0.336605 0.601655 0.929139
O O16 0.181258 0.702028 0.905879
O O17 0.500000 0.500000 0.075459
O O18 0.395423 0.500000 0.000000
O O19 0.000000 0.768872 0.899779
#
# Coordination Sequence:
#
# PCOD8291586 Si02
#       7
#     8  16  16  16  16   8  16
#     4   9  18  34  55  77 104 139 179 229 273 306
#     4   9  19  35  53  77 111 147 179 218 280 354
#     4   8  14  29  54  79 108 146 183 226 279 329
#     4   9  17  31  54  83 110 137 181 240 285 323
#     4  12  22  33  57  83 112 145 190 232 281 324
#     4  11  24  42  62  84 110 143 188 238 282 333
#     4  10  21  36  54  80 113 148 189 227 270 329
#
# _framework density 18.538706000000001
#
# number of rings (size 3 to 8) (size 9 to 14) (size 15 to 20)
#    0.000    2.333    1.667    3.500    1.167    3.333 
#    0.000    0.417    0.000    0.500    0.000    0.000 
#    0.000    0.000    0.000    0.000    0.000    0.000 
#
# Total GULP energy -594918.624814 kJ/mol
# GULP energy per Si atom -12394.138017 kJ/mol
# Density = 1.849651 g / cm^3
# Si number density = 18.538706 Si / 1000 Ang^3
#
#
#
# Elastic Constant Matrix: (Units=GPa)
#
#
# Indices 1 2 3 4 5 6 
#
# 1 84.1825 53.3544 35.9633 0.0000 0.0000 0.0000
# 2 53.3544 87.3111 42.8045 0.0000 0.0000 0.0000
# 3 35.9633 42.8045 112.0831 0.0000 0.0000 0.0000
# 4 0.0000 0.0000 0.0000 3.3159 0.0000 0.0000
# 5 0.0000 0.0000 0.0000 0.0000 7.0799 0.0000
# 6 0.0000 0.0000 0.0000 0.0000 0.0000 22.2035
#
#
#
# Elastic Compliance Matrix: (Units=1/GPa)
#
#
# Indices 1 2 3 4 5 6 
#
# 1 0.019793 -0.011051 -0.002131 0.000000 0.000000 0.000000
# 2 -0.011051 0.020261 -0.004192 0.000000 0.000000 0.000000
# 3 -0.002131 -0.004192 0.011207 0.000000 0.000000 0.000000
# 4 0.000000 0.000000 0.000000 0.301581 0.000000 0.000000
# 5 0.000000 0.000000 0.000000 0.000000 0.141245 0.000000
# 6 0.000000 0.000000 0.000000 0.000000 0.000000 0.045038
#
#
# Mechanical properties :
#
#
# Convention : Reuss Voigt Hill
#
# Bulk Modulus (GPa) = 60.55374 60.86901 60.71137
# Shear Modulus (GPa) = 8.62998 16.61682 12.62340
#
# Velocity S-wave (km/s) = 2.15991 2.99713 2.61228
# Velocity P-wave (km/s) = 6.24136 6.69939 6.47443
#
# Compressibility (1/GPa) = 0.01651426
#
# Stress axis : x y z
#
# Youngs Moduli (GPa) = 50.52296 49.35505 89.23370
#
# Poissons Ratio (x) = 0.54541 0.19012
# Poissons Ratio (y) = 0.55831 0.37407
# Poissons Ratio (z) = 0.10764 0.20690
#
# Static dielectric constant tensor:
#      x y z
#    x 3.291190 0.000000 0.000000 
#    y 0.000000 3.163750 0.000000 
#    z 0.000000 0.000000 3.891550 
# 
# 
# High freq. dielectric constant tensor:
#      x y z
#    x 1.705230 0.000000 0.000000 
#    y 0.000000 1.693290 0.000000 
#    z 0.000000 0.000000 1.732490 
# 
# From -- ./inp_files/22605.got.cif
#   From: 2010.06.25/outbox.cif.g09.slc.cpg/sg71_12_cif.got.tgz:22605.got - 2010.06.28 04:59:45.
