data_PCOD8291539
_publ_section_title
;
Structure prediction by ZEFSAII (Michael W. Deem and Ramdas Pophale) SiO2 
 PCOD8291539
Probable space group: I M M M
;
_chemical_formula_sum "Si O2"
_cell_formula_units_Z 96
_cell_length_a 14.316954
_cell_length_b 25.726999
_cell_length_c 13.735394
_cell_angle_alpha 90.000000
_cell_angle_beta 90.000000
_cell_angle_gamma 90.000000
_cell_volume 5059.188731
_symmetry_space_group_name_H-M "I M M M"
_symmetry_group_IT_number 71
_symmetry_cell_setting 'orthorhombic'
loop_
_space_group_symop_operation_xyz
x,y,z
-x,-y,z
x,-y,-z
-x,y,-z
-x,-y,-z
x,y,-z
-x,y,z
x,-y,z
1/2+x,1/2+y,1/2+z
1/2-x,1/2-y,1/2+z
1/2+x,1/2-y,1/2-z
1/2-x,1/2+y,1/2-z
1/2-x,1/2-y,1/2-z
1/2+x,1/2+y,1/2-z
1/2-x,1/2+y,1/2+z
1/2+x,1/2-y,1/2+z
loop_
_atom_site_type_symbol
_atom_site_label
_atom_site_fract_x
_atom_site_fract_y
_atom_site_fract_z
Si Si1 0.891437 0.500000 0.741221
Si Si2 0.393251 0.407722 0.799639
Si Si3 0.604540 0.356229 0.390688
Si Si4 0.892832 0.202897 0.386617
Si Si5 0.213891 0.698677 0.612993
Si Si6 0.227498 0.000000 0.384189
Si Si7 0.391485 0.901524 0.888625
O O1 0.831239 0.500000 0.839903
O O2 0.864830 0.549600 0.676965
O O3 0.000000 0.500000 0.771360
O O4 0.500000 0.421404 0.828121
O O5 0.379981 0.405086 0.682220
O O6 0.365176 0.350505 0.835368
O O7 0.327011 0.449387 0.848487
O O8 0.619979 0.377938 0.500000
O O9 0.500000 0.333561 0.376209
O O10 0.674907 0.308104 0.370300
O O11 0.874498 0.194488 0.500000
O O12 0.825803 0.247871 0.341139
O O13 0.000000 0.218349 0.365816
O O14 0.186574 0.701054 0.500000
O O15 0.163386 0.647633 0.656222
O O16 0.235539 0.000000 0.500000
O O17 0.500000 0.888421 0.882849
O O18 0.361662 0.913553 0.000000
#
# Coordination Sequence:
#
# PCOD8291539 Si02
#       7
#     8  16  16  16  16   8  16
#     4  10  21  36  53  75 106 143 179 212 249 300
#     4  10  21  37  57  80 103 129 166 214 269 319
#     4   9  18  33  51  73 106 144 174 201 241 301
#     4   9  17  30  49  75 105 133 165 212 266 309
#     4   9  16  27  47  75 107 141 174 209 250 297
#     4  12  25  40  59  78  98 129 171 218 265 313
#     4   9  16  28  50  81 113 141 171 211 258 304
#
# _framework density 18.975373999999999
#
# number of rings (size 3 to 8) (size 9 to 14) (size 15 to 20)
#    0.000    2.500    0.000    2.500    0.000    5.167 
#    0.000    1.250    0.000    3.000    0.000    2.333 
#    0.000    0.000    0.000    0.000    0.000    0.000 
#
# Total GULP energy -595035.996701 kJ/mol
# GULP energy per Si atom -12396.583265 kJ/mol
# Density = 1.893219 g / cm^3
# Si number density = 18.975374 Si / 1000 Ang^3
#
#
#
# Elastic Constant Matrix: (Units=GPa)
#
#
# Indices 1 2 3 4 5 6 
#
# 1 109.1647 68.5790 52.8580 0.0000 0.0000 0.0000
# 2 68.5790 127.5336 52.7090 0.0001 -0.0001 0.0000
# 3 52.8580 52.7090 99.9188 0.0001 0.0000 0.0000
# 4 0.0000 0.0001 0.0001 15.1603 -0.0001 0.0000
# 5 0.0000 -0.0001 0.0000 -0.0001 23.9586 0.0000
# 6 0.0000 0.0000 0.0000 0.0000 0.0000 23.7982
#
#
#
# Elastic Compliance Matrix: (Units=1/GPa)
#
#
# Indices 1 2 3 4 5 6 
#
# 1 0.015481 -0.006317 -0.004857 0.000000 0.000000 0.000000
# 2 -0.006317 0.012605 -0.003308 0.000000 0.000000 0.000000
# 3 -0.004857 -0.003308 0.014322 0.000000 0.000000 0.000000
# 4 0.000000 0.000000 0.000000 0.065962 0.000000 0.000000
# 5 0.000000 0.000000 0.000000 0.000000 0.041739 0.000000
# 6 0.000000 0.000000 0.000000 0.000000 0.000000 0.042020
#
#
# Mechanical properties :
#
#
# Convention : Reuss Voigt Hill
#
# Bulk Modulus (GPa) = 74.37911 76.10100 75.24005
# Shear Modulus (GPa) = 22.16569 23.41482 22.79026
#
# Velocity S-wave (km/s) = 3.42150 3.51659 3.46937
# Velocity P-wave (km/s) = 7.40889 7.52866 7.46901
#
# Compressibility (1/GPa) = 0.01344464
#
# Stress axis : x y z
#
# Youngs Moduli (GPa) = 64.59606 79.33364 69.82088
#
# Poissons Ratio (x) = 0.50116 0.33913
# Poissons Ratio (y) = 0.40806 0.23094
# Poissons Ratio (z) = 0.31375 0.26240
#
# Static dielectric constant tensor:
#      x y z
#    x 3.559760 0.000000 0.000000 
#    y 0.000000 3.453730 0.000000 
#    z 0.000000 0.000000 3.472380 
# 
# 
# High freq. dielectric constant tensor:
#      x y z
#    x 1.742790 0.000000 0.000000 
#    y 0.000000 1.723530 0.000000 
#    z 0.000000 0.000000 1.726860 
# 
# From -- ./inp_files/34776.got.cif
#   From: 2010.06.25/outbox.cif.g09.slc.cpg/sg71_18_cif.got.tgz:34776.got - 2010.06.28 04:59:45.
