data_PCOD8291349
_publ_section_title
;
Structure prediction by ZEFSAII (Michael W. Deem and Ramdas Pophale) SiO2 
 PCOD8291349
Probable space group: I M M M
;
_chemical_formula_sum "Si O2"
_cell_formula_units_Z 96
_cell_length_a 11.476076
_cell_length_b 22.623766
_cell_length_c 19.343987
_cell_angle_alpha 90.000000
_cell_angle_beta 90.000000
_cell_angle_gamma 90.000000
_cell_volume 5022.319155
_symmetry_space_group_name_H-M "I M M M"
_symmetry_group_IT_number 71
_symmetry_cell_setting 'orthorhombic'
loop_
_space_group_symop_operation_xyz
x,y,z
-x,-y,z
x,-y,-z
-x,y,-z
-x,-y,-z
x,y,-z
-x,y,z
x,-y,z
1/2+x,1/2+y,1/2+z
1/2-x,1/2-y,1/2+z
1/2+x,1/2-y,1/2-z
1/2-x,1/2+y,1/2-z
1/2-x,1/2-y,1/2-z
1/2+x,1/2+y,1/2-z
1/2-x,1/2+y,1/2+z
1/2+x,1/2-y,1/2+z
loop_
_atom_site_type_symbol
_atom_site_label
_atom_site_fract_x
_atom_site_fract_y
_atom_site_fract_z
Si Si1 0.000000 0.564436 0.866854
Si Si2 0.500000 0.192574 0.578426
Si Si3 0.861022 0.065819 0.500000
Si Si4 0.137428 0.435712 0.500000
Si Si5 0.363866 0.371619 0.864819
Si Si6 0.862969 0.358913 0.627749
Si Si7 0.292692 0.932288 0.739243
Si Si8 0.746905 0.759621 0.416121
O O1 0.000000 0.621255 0.916571
O O2 0.888428 0.568013 0.819236
O O3 0.000000 0.500000 0.905878
O O4 0.500000 0.210927 0.500000
O O5 0.616733 0.222425 0.609448
O O6 0.808329 0.095520 0.568485
O O7 0.000000 0.069819 0.500000
O O8 0.813751 0.000000 0.500000
O O9 0.197030 0.500000 0.500000
O O10 0.178872 0.402234 0.432252
O O11 0.000000 0.442164 0.500000
O O12 0.500000 0.380724 0.862469
O O13 0.319136 0.400124 0.793563
O O14 0.334304 0.303445 0.876672
O O15 0.838274 0.392606 0.698355
O O16 0.780725 0.302490 0.617563
O O17 0.000000 0.341960 0.622205
O O18 0.264869 0.000000 0.762641
O O19 0.763002 0.760522 0.500000
#
# Coordination Sequence:
#
# PCOD8291349 Si02
#       8
#     8   8   8   8  16  16  16  16
#     4  10  20  39  62  85 118 160 205 252 305 357
#     4  10  22  41  62  88 123 165 208 249 294 370
#     4   9  18  33  55  81 114 155 198 244 288 340
#     4   9  18  33  59  93 120 147 197 260 315 368
#     4  11  22  37  60  90 124 163 206 249 304 361
#     4  11  22  38  63  92 121 158 203 257 318 369
#     4  11  23  40  61  87 125 164 201 252 310 368
#     4  11  22  40  63  90 124 160 201 256 309 369
#
# _framework density 19.114674999999998
#
# number of rings (size 3 to 8) (size 9 to 14) (size 15 to 20)
#    0.000    1.500    4.167    1.500    0.000    3.167 
#    1.500    0.000    0.000    0.000    0.000    0.583 
#    0.000    0.000    0.000    0.000    0.000    0.000 
#
# Total GULP energy -594975.738650 kJ/mol
# GULP energy per Si atom -12395.327889 kJ/mol
# Density = 1.907117 g / cm^3
# Si number density = 19.114675 Si / 1000 Ang^3
#
#
#
# Elastic Constant Matrix: (Units=GPa)
#
#
# Indices 1 2 3 4 5 6 
#
# 1 71.4374 37.0681 22.0854 0.0000 0.0000 0.0000
# 2 37.0681 150.9460 23.9477 0.0000 0.0000 0.0000
# 3 22.0854 23.9477 47.8539 0.0000 0.0000 0.0000
# 4 0.0000 0.0000 0.0000 31.8282 0.0000 0.0000
# 5 0.0000 0.0000 0.0000 0.0000 41.9973 0.0000
# 6 0.0000 0.0000 0.0000 0.0000 0.0000 25.6215
#
#
#
# Elastic Compliance Matrix: (Units=1/GPa)
#
#
# Indices 1 2 3 4 5 6 
#
# 1 0.017739 -0.003321 -0.006525 0.000000 0.000000 0.000000
# 2 -0.003321 0.007818 -0.002380 0.000000 0.000000 0.000000
# 3 -0.006525 -0.002380 0.025099 0.000000 0.000000 0.000000
# 4 0.000000 0.000000 0.000000 0.031419 0.000000 0.000000
# 5 0.000000 0.000000 0.000000 0.000000 0.023811 0.000000
# 6 0.000000 0.000000 0.000000 0.000000 0.000000 0.039030
#
#
# Mechanical properties :
#
#
# Convention : Reuss Voigt Hill
#
# Bulk Modulus (GPa) = 38.16084 48.49330 43.32707
# Shear Modulus (GPa) = 28.07395 32.36514 30.21954
#
# Velocity S-wave (km/s) = 3.83653 4.11933 3.98044
# Velocity P-wave (km/s) = 6.29546 6.93180 6.62128
#
# Compressibility (1/GPa) = 0.02620487
#
# Stress axis : x y z
#
# Youngs Moduli (GPa) = 56.37394 127.91060 39.84203
#
# Poissons Ratio (x) = 0.42479 0.25996
# Poissons Ratio (y) = 0.18722 0.09481
# Poissons Ratio (z) = 0.36783 0.30439
#
# Static dielectric constant tensor:
#      x y z
#    x 3.614960 0.000000 0.000000 
#    y 0.000000 3.740390 0.000000 
#    z 0.000000 0.000000 3.402150 
# 
# 
# High freq. dielectric constant tensor:
#      x y z
#    x 1.731250 0.000000 0.000000 
#    y 0.000000 1.757260 0.000000 
#    z 0.000000 0.000000 1.732190 
# 
# From -- ./inp_files/43610.got.cif
#   From: 2010.06.25/outbox.cif.g09.slc.cpg/sg71_22_cif.got.tgz:43610.got - 2010.06.28 04:59:45.
