data_PCOD8291268
_publ_section_title
;
Structure prediction by ZEFSAII (Michael W. Deem and Ramdas Pophale) SiO2 
 PCOD8291268
Probable space group: I M M M
;
_chemical_formula_sum "Si O2"
_cell_formula_units_Z 112
_cell_length_a 27.895716
_cell_length_b 14.059631
_cell_length_c 13.630384
_cell_angle_alpha 90.000000
_cell_angle_beta 90.000000
_cell_angle_gamma 90.000000
_cell_volume 5345.883949
_symmetry_space_group_name_H-M "I M M M"
_symmetry_group_IT_number 71
_symmetry_cell_setting 'orthorhombic'
loop_
_space_group_symop_operation_xyz
x,y,z
-x,-y,z
x,-y,-z
-x,y,-z
-x,-y,-z
x,y,-z
-x,y,z
x,-y,z
1/2+x,1/2+y,1/2+z
1/2-x,1/2-y,1/2+z
1/2+x,1/2-y,1/2-z
1/2-x,1/2+y,1/2-z
1/2-x,1/2-y,1/2-z
1/2+x,1/2+y,1/2-z
1/2-x,1/2+y,1/2+z
1/2+x,1/2-y,1/2+z
loop_
_atom_site_type_symbol
_atom_site_label
_atom_site_fract_x
_atom_site_fract_y
_atom_site_fract_z
Si Si1 0.116860 0.109334 0.606118
Si Si2 0.052616 0.609325 0.711015
Si Si3 0.690604 0.206187 0.298906
Si Si4 0.284302 0.609040 0.205840
Si Si5 0.851248 0.388788 0.611765
Si Si6 0.443623 0.390312 0.713554
Si Si7 0.589996 0.219107 0.610417
O O1 0.106785 0.157703 0.500000
O O2 0.173174 0.120173 0.627546
O O3 0.083412 0.154463 0.690812
O O4 0.101938 0.000000 0.600373
O O5 0.058588 0.500000 0.739288
O O6 0.093040 0.637643 0.631985
O O7 0.056577 0.664074 0.813810
O O8 0.000000 0.630549 0.665722
O O9 0.705562 0.317800 0.295715
O O10 0.733657 0.141288 0.342456
O O11 0.680675 0.171657 0.186976
O O12 0.645459 0.194612 0.369448
O O13 0.281603 0.500000 0.244349
O O14 0.838970 0.359803 0.500000
O O15 0.841320 0.500000 0.629362
O O16 0.500000 0.376876 0.727947
O O17 0.429811 0.500000 0.695651
O O18 0.422692 0.331287 0.622004
O O19 0.577913 0.187927 0.500000
#
# Coordination Sequence:
#
# PCOD8291268 Si02
#       7
#    16  16  16  16  16  16  16
#     4   9  18  34  58  86 116 152 190 230 282 344
#     4   9  19  36  56  80 111 148 192 242 295 346
#     4  10  21  37  59  85 114 154 193 239 293 343
#     4  10  20  37  60  84 117 155 193 237 287 344
#     4   9  18  34  57  85 116 149 187 234 289 352
#     4  10  21  38  59  85 120 156 192 238 289 344
#     4  11  23  39  58  82 113 150 197 246 291 340
#
# _framework density 20.950697999999999
#
# number of rings (size 3 to 8) (size 9 to 14) (size 15 to 20)
#    0.000    2.286    1.429    0.857    0.000    4.000 
#    0.000    6.429    0.000    2.571    0.000    0.000 
#    0.000    0.000    0.000    0.000    0.000    0.000 
#
# Total GULP energy -694099.304467 kJ/mol
# GULP energy per Si atom -12394.630437 kJ/mol
# Density = 2.090301 g / cm^3
# Si number density = 20.950698 Si / 1000 Ang^3
#
#
#
# Elastic Constant Matrix: (Units=GPa)
#
#
# Indices 1 2 3 4 5 6 
#
# 1 102.7619 2.3500 16.3398 0.0000 0.0000 0.0000
# 2 2.3500 65.1662 10.3525 0.0000 0.0000 0.0000
# 3 16.3398 10.3525 85.9471 0.0000 0.0000 0.0000
# 4 0.0000 0.0000 0.0000 21.3464 0.0000 0.0000
# 5 0.0000 0.0000 0.0000 0.0000 13.4611 0.0000
# 6 0.0000 0.0000 0.0000 0.0000 0.0000 27.7062
#
#
#
# Elastic Compliance Matrix: (Units=1/GPa)
#
#
# Indices 1 2 3 4 5 6 
#
# 1 0.010035 -0.000060 -0.001901 0.000000 0.000000 0.000000
# 2 -0.000060 0.015645 -0.001873 0.000000 0.000000 0.000000
# 3 -0.001901 -0.001873 0.012222 0.000000 0.000000 0.000000
# 4 0.000000 0.000000 0.000000 0.046846 0.000000 0.000000
# 5 0.000000 0.000000 0.000000 0.000000 0.074288 0.000000
# 6 0.000000 0.000000 0.000000 0.000000 0.000000 0.036093
#
#
# Mechanical properties :
#
#
# Convention : Reuss Voigt Hill
#
# Bulk Modulus (GPa) = 33.07453 34.66222 33.86837
# Shear Modulus (GPa) = 23.48799 27.49160 25.48979
#
# Velocity S-wave (km/s) = 3.35193 3.62637 3.49184
# Velocity P-wave (km/s) = 5.54992 5.84077 5.69720
#
# Compressibility (1/GPa) = 0.03023475
#
# Stress axis : x y z
#
# Youngs Moduli (GPa) = 99.65318 63.91776 81.81967
#
# Poissons Ratio (x) = 0.00383 0.15550
# Poissons Ratio (y) = 0.00597 0.15326
# Poissons Ratio (z) = 0.18940 0.11972
#
# Static dielectric constant tensor:
#      x y z
#    x 3.967620 0.000000 0.000000 
#    y 0.000000 4.026580 0.000000 
#    z 0.000000 0.000000 3.550730 
# 
# 
# High freq. dielectric constant tensor:
#      x y z
#    x 1.829880 0.000000 0.000000 
#    y 0.000000 1.833630 0.000000 
#    z 0.000000 0.000000 1.779650 
# 
# From -- ./inp_files/30025.got.cif
#   From: 2010.06.25/outbox.cif.g09.slc.cpg/sg71_16_cif.got.tgz:30025.got - 2010.06.28 04:59:45.
