data_PCOD8291383
_publ_section_title
;
Structure prediction by ZEFSAII (Michael W. Deem and Ramdas Pophale) SiO2 
 PCOD8291383
Probable space group: I M M M
;
_chemical_formula_sum "Si O2"
_cell_formula_units_Z 84
_cell_length_a 13.197179
_cell_length_b 23.986427
_cell_length_c 14.255762
_cell_angle_alpha 90.000000
_cell_angle_beta 90.000000
_cell_angle_gamma 90.000000
_cell_volume 4512.706662
_symmetry_space_group_name_H-M "I M M M"
_symmetry_group_IT_number 71
_symmetry_cell_setting 'orthorhombic'
loop_
_space_group_symop_operation_xyz
x,y,z
-x,-y,z
x,-y,-z
-x,y,-z
-x,-y,-z
x,y,-z
-x,y,z
x,-y,z
1/2+x,1/2+y,1/2+z
1/2-x,1/2-y,1/2+z
1/2+x,1/2-y,1/2-z
1/2-x,1/2+y,1/2-z
1/2-x,1/2-y,1/2-z
1/2+x,1/2+y,1/2-z
1/2-x,1/2+y,1/2+z
1/2+x,1/2-y,1/2+z
loop_
_atom_site_type_symbol
_atom_site_label
_atom_site_fract_x
_atom_site_fract_y
_atom_site_fract_z
Si Si1 0.381453 0.887457 0.500000
Si Si2 0.500000 0.061390 0.827634
Si Si3 0.617107 0.740316 0.185943
Si Si4 0.267687 0.659821 0.700873
Si Si5 0.726210 0.712907 0.000000
Si Si6 0.686426 0.937166 0.308189
Si Si7 0.729451 0.834423 0.000000
Si Si8 0.000000 0.357571 0.500000
O O1 0.500000 0.871577 0.500000
O O2 0.315907 0.831530 0.500000
O O3 0.354120 0.925137 0.588615
O O4 0.596893 0.070191 0.764515
O O5 0.500000 0.105154 0.909083
O O6 0.500000 0.000000 0.872861
O O7 0.500000 0.753778 0.173289
O O8 0.635494 0.698156 0.273367
O O9 0.669395 0.799743 0.207842
O O10 0.659133 0.708296 0.094067
O O11 0.268258 0.608375 0.773986
O O12 0.269633 0.634946 0.594097
O O13 0.779547 0.773319 0.000000
O O14 0.731666 0.000000 0.305900
O O15 0.605884 0.823122 0.000000
#
# Coordination Sequence:
#
# PCOD8291383 Si02
#       8
#     8   8  16  16   8  16   8   4
#     4  12  23  37  55  80 119 157 188 228 280 337
#     4  10  21  33  50  81 111 148 193 222 264 337
#     4  10  21  36  60  81 111 148 186 237 288 334
#     4  10  21  38  54  84 113 144 192 230 282 340
#     4  10  21  35  53  86 110 145 194 228 272 345
#     4  11  22  36  54  79 116 155 190 228 274 337
#     4  10  22  33  51  80 112 146 182 226 274 337
#     4  12  19  32  58  78 112 154 177 224 282 324
#
# _framework density 18.614104999999999
#
# number of rings (size 3 to 8) (size 9 to 14) (size 15 to 20)
#    0.000    1.524    4.762    0.714    6.667    0.381 
#    0.000    0.952    0.000    0.571    0.000    1.333 
#    0.000    1.524    0.000    0.000    0.000    0.000 
#
# Total GULP energy -520525.933656 kJ/mol
# GULP energy per Si atom -12393.474611 kJ/mol
# Density = 1.857174 g / cm^3
# Si number density = 18.614105 Si / 1000 Ang^3
#
#
#
# Elastic Constant Matrix: (Units=GPa)
#
#
# Indices 1 2 3 4 5 6 
#
# 1 39.3399 25.4883 16.9020 0.0002 0.0000 0.0001
# 2 25.4883 111.7171 40.0302 -0.0007 -0.0005 -0.0003
# 3 16.9020 40.0302 114.1588 -0.0001 -0.0005 -0.0003
# 4 0.0002 -0.0007 -0.0001 36.5624 -0.0005 -0.0003
# 5 0.0000 -0.0005 -0.0005 -0.0005 24.8566 0.0000
# 6 0.0001 -0.0003 -0.0003 -0.0003 0.0000 9.5441
#
#
#
# Elastic Compliance Matrix: (Units=1/GPa)
#
#
# Indices 1 2 3 4 5 6 
#
# 1 0.030377 -0.006083 -0.002364 0.000000 0.000000 0.000000
# 2 -0.006083 0.011456 -0.003116 0.000000 0.000000 0.000000
# 3 -0.002364 -0.003116 0.010203 0.000000 0.000000 0.000000
# 4 0.000000 0.000000 0.000000 0.027350 0.000001 0.000001
# 5 0.000000 0.000000 0.000000 0.000001 0.040231 0.000000
# 6 0.000000 0.000000 0.000000 0.000001 0.000000 0.104777
#
#
# Mechanical properties :
#
#
# Convention : Reuss Voigt Hill
#
# Bulk Modulus (GPa) = 34.59369 47.78410 41.18889
# Shear Modulus (GPa) = 19.44339 26.37897 22.91118
#
# Velocity S-wave (km/s) = 3.23546 3.76859 3.51215
# Velocity P-wave (km/s) = 5.70812 6.68304 6.21472
#
# Compressibility (1/GPa) = 0.02890701
#
# Stress axis : x y z
#
# Youngs Moduli (GPa) = 32.92006 87.29276 98.01484
#
# Poissons Ratio (x) = 0.53102 0.23174
# Poissons Ratio (y) = 0.20026 0.30545
# Poissons Ratio (z) = 0.07784 0.27203
#
# Static dielectric constant tensor:
#      x y z
#    x 3.091320 0.000000 0.000000 
#    y 0.000000 3.454980 0.000000 
#    z 0.000000 0.000000 4.020800 
# 
# 
# High freq. dielectric constant tensor:
#      x y z
#    x 1.673290 0.000000 0.000000 
#    y 0.000000 1.715810 0.000000 
#    z 0.000000 0.000000 1.749360 
# 
# From -- ./inp_files/32818.got.cif
#   From: 2010.06.25/outbox.cif.g09.slc.cpg/sg71_17_cif.got.tgz:32818.got - 2010.06.28 04:59:45.
