data_PCOD8291060
_publ_section_title
;
Structure prediction by ZEFSAII (Michael W. Deem and Ramdas Pophale) SiO2 
 PCOD8291060
Probable space group: I M M M
;
_chemical_formula_sum "Si O2"
_cell_formula_units_Z 72
_cell_length_a 27.165434
_cell_length_b 16.157347
_cell_length_c 9.213068
_cell_angle_alpha 90.000000
_cell_angle_beta 90.000000
_cell_angle_gamma 90.000000
_cell_volume 4043.812185
_symmetry_space_group_name_H-M "I M M M"
_symmetry_group_IT_number 71
_symmetry_cell_setting 'orthorhombic'
loop_
_space_group_symop_operation_xyz
x,y,z
-x,-y,z
x,-y,-z
-x,y,-z
-x,-y,-z
x,y,-z
-x,y,z
x,-y,z
1/2+x,1/2+y,1/2+z
1/2-x,1/2-y,1/2+z
1/2+x,1/2-y,1/2-z
1/2-x,1/2+y,1/2-z
1/2-x,1/2-y,1/2-z
1/2+x,1/2+y,1/2-z
1/2-x,1/2+y,1/2+z
1/2+x,1/2-y,1/2+z
loop_
_atom_site_type_symbol
_atom_site_label
_atom_site_fract_x
_atom_site_fract_y
_atom_site_fract_z
Si Si1 0.445155 0.173183 0.668459
Si Si2 0.386227 0.662634 0.669561
Si Si3 0.198202 0.250339 0.671857
Si Si4 0.443931 0.500000 0.672265
Si Si5 0.863239 0.591736 0.333805
O O1 0.444933 0.152906 0.500000
O O2 0.500000 0.169987 0.732522
O O3 0.424176 0.263939 0.699955
O O4 0.413162 0.102762 0.744417
O O5 0.371820 0.656369 0.500000
O O6 0.336596 0.678398 0.761984
O O7 0.413388 0.579939 0.725496
O O8 0.203870 0.236117 0.500000
O O9 0.250000 0.250000 0.750000
O O10 0.176894 0.340598 0.711641
O O11 0.500000 0.500000 0.735685
O O12 0.447759 0.500000 0.500000
O O13 0.877825 0.603849 0.500000
O O14 0.841649 0.500000 0.303630
#
# Coordination Sequence:
#
# PCOD8291060 Si02
#       5
#    16  16  16   8  16
#     4   9  17  29  47  72 102 134 165 199 241 287
#     4   9  17  31  51  75 103 135 172 210 249 296
#     4  10  20  36  56  74  97 128 165 209 257 307
#     4   9  16  28  51  81 109 139 177 217 252 297
#     4   9  19  35  52  71  95 125 162 202 241 288
#
# _framework density 17.80498
#
# number of rings (size 3 to 8) (size 9 to 14) (size 15 to 20)
#    0.000    2.778    0.000    1.333    0.000    4.889 
#    2.000    2.778    0.000    2.667    0.000    0.000 
#    0.000    0.000    0.000    0.000    0.000    0.000 
#
# Total GULP energy -446347.435311 kJ/mol
# GULP energy per Si atom -12398.539870 kJ/mol
# Density = 1.776446 g / cm^3
# Si number density = 17.804980 Si / 1000 Ang^3
#
#
#
# Elastic Constant Matrix: (Units=GPa)
#
#
# Indices 1 2 3 4 5 6 
#
# 1 160.9557 60.6842 58.9810 0.0000 0.0000 0.0000
# 2 60.6842 111.9401 34.1726 0.0000 0.0000 0.0000
# 3 58.9810 34.1726 54.6892 0.0000 0.0000 0.0000
# 4 0.0000 0.0000 0.0000 23.8899 0.0000 0.0000
# 5 0.0000 0.0000 0.0000 0.0000 29.4821 0.0000
# 6 0.0000 0.0000 0.0000 0.0000 0.0000 20.3740
#
#
#
# Elastic Compliance Matrix: (Units=1/GPa)
#
#
# Indices 1 2 3 4 5 6 
#
# 1 0.010980 -0.002888 -0.010037 0.000000 0.000000 0.000000
# 2 -0.002888 0.011799 -0.004258 0.000000 0.000000 0.000000
# 3 -0.010037 -0.004258 0.031770 0.000000 0.000000 0.000000
# 4 0.000000 0.000000 0.000000 0.041859 0.000000 0.000000
# 5 0.000000 0.000000 0.000000 0.000000 0.033919 0.000000
# 6 0.000000 0.000000 0.000000 0.000000 0.000000 0.049082
#
#
# Mechanical properties :
#
#
# Convention : Reuss Voigt Hill
#
# Bulk Modulus (GPa) = 49.54575 70.58452 60.06513
# Shear Modulus (GPa) = 22.67568 26.33235 24.50401
#
# Velocity S-wave (km/s) = 3.57257 3.84986 3.71380
# Velocity P-wave (km/s) = 6.70112 7.71305 7.22482
#
# Compressibility (1/GPa) = 0.02018337
#
# Stress axis : x y z
#
# Youngs Moduli (GPa) = 91.07737 84.75388 31.47658
#
# Poissons Ratio (x) = 0.24480 0.31592
# Poissons Ratio (y) = 0.26306 0.13401
# Poissons Ratio (z) = 0.91410 0.36084
#
# Static dielectric constant tensor:
#      x y z
#    x 3.395240 0.000000 0.000000 
#    y 0.000000 3.460190 0.000000 
#    z 0.000000 0.000000 3.205220 
# 
# 
# High freq. dielectric constant tensor:
#      x y z
#    x 1.688620 0.000000 0.000000 
#    y 0.000000 1.689000 0.000000 
#    z 0.000000 0.000000 1.674350 
# 
# From -- ./inp_files/6037.got.cif
#   From: 2010.06.25/outbox.cif.g09.slc.cpg/sg71_4_cif.got.tgz:6037.got - 2010.06.28 04:59:45.
