data_PCOD8291712
_publ_section_title
;
Structure prediction by ZEFSAII (Michael W. Deem and Ramdas Pophale) SiO2 
 PCOD8291712
Probable space group: I M M M
;
_chemical_formula_sum "Si O2"
_cell_formula_units_Z 88
_cell_length_a 9.145425
_cell_length_b 18.888078
_cell_length_c 27.563765
_cell_angle_alpha 90.000000
_cell_angle_beta 90.000000
_cell_angle_gamma 90.000000
_cell_volume 4761.351005
_symmetry_space_group_name_H-M "I M M M"
_symmetry_group_IT_number 71
_symmetry_cell_setting 'orthorhombic'
loop_
_space_group_symop_operation_xyz
x,y,z
-x,-y,z
x,-y,-z
-x,y,-z
-x,-y,-z
x,y,-z
-x,y,z
x,-y,z
1/2+x,1/2+y,1/2+z
1/2-x,1/2-y,1/2+z
1/2+x,1/2-y,1/2-z
1/2-x,1/2+y,1/2-z
1/2-x,1/2-y,1/2-z
1/2+x,1/2+y,1/2-z
1/2-x,1/2+y,1/2+z
1/2+x,1/2-y,1/2+z
loop_
_atom_site_type_symbol
_atom_site_label
_atom_site_fract_x
_atom_site_fract_y
_atom_site_fract_z
Si Si1 0.827640 0.659862 0.586012
Si Si2 0.830097 0.581103 0.315953
Si Si3 0.833112 0.916451 0.000000
Si Si4 0.164631 0.915802 0.721591
Si Si5 0.330751 0.080192 0.627418
Si Si6 0.669497 0.797008 0.556159
O O1 0.788085 0.629318 0.638542
O O2 0.747774 0.611195 0.547215
O O3 0.769080 0.739491 0.582923
O O4 0.000000 0.658046 0.575908
O O5 0.784940 0.500000 0.327368
O O6 0.743930 0.612477 0.269846
O O7 0.000000 0.585783 0.303421
O O8 0.000000 0.888488 0.000000
O O9 0.826823 0.000000 0.000000
O O10 0.243837 0.887774 0.673244
O O11 0.000000 0.886810 0.721533
O O12 0.171550 0.000000 0.721655
O O13 0.500000 0.082383 0.641736
O O14 0.297242 0.127179 0.580217
O O15 0.281218 0.000000 0.615128
O O16 0.714102 0.801755 0.500000
O O17 0.500000 0.776002 0.562177
#
# Coordination Sequence:
#
# PCOD8291712 Si02
#       6
#    16  16   8  16  16  16
#     4  11  22  36  55  79 108 145 185 223 268 322
#     4   9  18  33  53  77 106 140 179 222 264 311
#     4  11  23  37  55  79 108 143 184 229 271 312
#     4   9  17  30  51  80 110 138 171 217 272 323
#     4   9  18  34  57  82 107 139 179 221 268 326
#     4  10  21  37  56  78 108 144 180 223 275 326
#
# _framework density 18.482150000000001
#
# number of rings (size 3 to 8) (size 9 to 14) (size 15 to 20)
#    0.000    2.273    0.909    1.909    0.000    6.182 
#    0.000    4.545    0.000    0.000    0.000    3.818 
#    0.000    0.000    0.000    0.000    0.000    0.000 
#
# Total GULP energy -545690.105586 kJ/mol
# GULP energy per Si atom -12402.047854 kJ/mol
# Density = 1.844008 g / cm^3
# Si number density = 18.482150 Si / 1000 Ang^3
#
#
#
# Elastic Constant Matrix: (Units=GPa)
#
#
# Indices 1 2 3 4 5 6 
#
# 1 86.5604 42.8820 59.8045 0.0000 0.0000 0.0000
# 2 42.8820 85.4633 61.2419 -0.0001 0.0000 0.0000
# 3 59.8045 61.2419 129.5715 -0.0001 0.0000 0.0000
# 4 0.0000 -0.0001 -0.0001 202.0348 0.0000 0.0000
# 5 0.0000 0.0000 0.0000 0.0000 24.0191 0.0000
# 6 0.0000 0.0000 0.0000 0.0000 0.0000 23.8950
#
#
#
# Elastic Compliance Matrix: (Units=1/GPa)
#
#
# Indices 1 2 3 4 5 6 
#
# 1 0.018123 -0.004687 -0.006150 0.000000 0.000000 0.000000
# 2 -0.004687 0.018906 -0.006773 0.000000 0.000000 0.000000
# 3 -0.006150 -0.006773 0.013757 0.000000 0.000000 0.000000
# 4 0.000000 0.000000 0.000000 0.004950 0.000000 0.000000
# 5 0.000000 0.000000 0.000000 0.000000 0.041634 0.000000
# 6 0.000000 0.000000 0.000000 0.000000 0.000000 0.041850
#
#
# Mechanical properties :
#
#
# Convention : Reuss Voigt Hill
#
# Bulk Modulus (GPa) = 64.23370 69.93910 67.08640
# Shear Modulus (GPa) = 27.83554 59.16757 43.50156
#
# Velocity S-wave (km/s) = 3.88503 5.66417 4.85676
# Velocity P-wave (km/s) = 7.41313 8.98336 8.23575
#
# Compressibility (1/GPa) = 0.01556815
#
# Stress axis : x y z
#
# Youngs Moduli (GPa) = 55.17776 52.89418 72.68905
#
# Poissons Ratio (x) = 0.24790 0.44702
# Poissons Ratio (y) = 0.25860 0.49229
# Poissons Ratio (z) = 0.33933 0.35823
#
# Static dielectric constant tensor:
#      x y z
#    x 3.492690 0.000000 0.000000 
#    y 0.000000 3.262300 0.000000 
#    z 0.000000 0.000000 3.521400 
# 
# 
# High freq. dielectric constant tensor:
#      x y z
#    x 1.719870 0.000000 0.000000 
#    y 0.000000 1.697250 0.000000 
#    z 0.000000 0.000000 1.725490 
# 
# From -- ./inp_files/56591.got.cif
#   From: 2010.06.25/outbox.cif.g09.slc.cpg/sg71_29_cif.got.tgz:56591.got - 2010.06.28 04:59:45.
