data_PCOD8291889
_publ_section_title
;
Structure prediction by ZEFSAII (Michael W. Deem and Ramdas Pophale) SiO2 
 PCOD8291889
Probable space group: I M M M
;
_chemical_formula_sum "Si O2"
_cell_formula_units_Z 104
_cell_length_a 12.102615
_cell_length_b 24.925010
_cell_length_c 18.119919
_cell_angle_alpha 90.000000
_cell_angle_beta 90.000000
_cell_angle_gamma 90.000000
_cell_volume 5466.014900
_symmetry_space_group_name_H-M "I M M M"
_symmetry_group_IT_number 71
_symmetry_cell_setting 'orthorhombic'
loop_
_space_group_symop_operation_xyz
x,y,z
-x,-y,z
x,-y,-z
-x,y,-z
-x,-y,-z
x,y,-z
-x,y,z
x,-y,z
1/2+x,1/2+y,1/2+z
1/2-x,1/2-y,1/2+z
1/2+x,1/2-y,1/2-z
1/2-x,1/2+y,1/2-z
1/2-x,1/2-y,1/2-z
1/2+x,1/2+y,1/2-z
1/2-x,1/2+y,1/2+z
1/2+x,1/2-y,1/2+z
loop_
_atom_site_type_symbol
_atom_site_label
_atom_site_fract_x
_atom_site_fract_y
_atom_site_fract_z
Si Si1 0.372510 0.000000 0.086693
Si Si2 0.281859 0.085335 0.810389
Si Si3 0.375987 0.327973 0.142856
Si Si4 0.500000 0.130902 0.584000
Si Si5 0.828709 0.277928 0.916973
Si Si6 0.873307 0.942488 0.315841
Si Si7 0.376343 0.320512 0.313814
Si Si8 0.500000 0.064990 0.725723
O O1 0.310523 0.947607 0.116377
O O2 0.500000 0.000000 0.113851
O O3 0.364270 0.000000 0.000000
O O4 0.195336 0.054035 0.759371
O O5 0.223580 0.140163 0.837815
O O6 0.393981 0.092699 0.763455
O O7 0.500000 0.320008 0.113935
O O8 0.300456 0.291234 0.091554
O O9 0.339194 0.391005 0.135220
O O10 0.362516 0.308607 0.227106
O O11 0.500000 0.108854 0.500000
O O12 0.393314 0.167395 0.599351
O O13 0.500000 0.080260 0.639129
O O14 0.866826 0.233817 0.859206
O O15 0.851943 0.257170 0.000000
O O16 0.000000 0.934212 0.292061
O O17 0.856747 0.000000 0.357865
O O18 0.500000 0.344574 0.327689
O O19 0.500000 0.000000 0.733679
#
# Coordination Sequence:
#
# PCOD8291889 Si02
#       8
#     8  16  16   8  16  16  16   8
#     4  11  22  38  55  77 119 161 190 226 284 352
#     4  11  19  36  57  86 110 146 195 234 281 336
#     4   9  19  34  54  85 113 144 190 237 284 332
#     4  10  22  37  58  86 116 155 198 234 290 352
#     4  11  22  39  58  78 114 157 190 235 295 348
#     4   9  16  29  55  84 115 144 177 233 285 331
#     4  10  21  38  61  84 110 145 194 245 287 339
#     4  12  22  37  62  90 120 154 189 237 291 347
#
# _framework density 19.026658000000001
#
# number of rings (size 3 to 8) (size 9 to 14) (size 15 to 20)
#    0.000    1.769    3.077    3.692    0.000    1.077 
#    1.385    0.000    0.000    4.615    0.000    2.154 
#    0.000    0.000    0.000    1.385    0.000    0.000 
#
# Total GULP energy -644479.937852 kJ/mol
# GULP energy per Si atom -12393.844959 kJ/mol
# Density = 1.898335 g / cm^3
# Si number density = 19.026658 Si / 1000 Ang^3
#
#
#
# Elastic Constant Matrix: (Units=GPa)
#
#
# Indices 1 2 3 4 5 6 
#
# 1 114.4899 33.7187 28.6168 0.0000 0.0000 0.0000
# 2 33.7187 67.1698 34.6303 0.0000 0.0000 0.0000
# 3 28.6168 34.6303 59.6015 0.0000 0.0000 0.0000
# 4 0.0000 0.0000 0.0000 21.2625 0.0000 0.0000
# 5 0.0000 0.0000 0.0000 0.0000 17.3018 0.0000
# 6 0.0000 0.0000 0.0000 0.0000 0.0000 29.6895
#
#
#
# Elastic Compliance Matrix: (Units=1/GPa)
#
#
# Indices 1 2 3 4 5 6 
#
# 1 0.010577 -0.003842 -0.002846 0.000000 0.000000 0.000000
# 2 -0.003842 0.022651 -0.011316 0.000000 0.000000 0.000000
# 3 -0.002846 -0.011316 0.024719 0.000000 0.000000 0.000000
# 4 0.000000 0.000000 0.000000 0.047031 0.000000 0.000000
# 5 0.000000 0.000000 0.000000 0.000000 0.057798 0.000000
# 6 0.000000 0.000000 0.000000 0.000000 0.000000 0.033682
#
#
# Mechanical properties :
#
#
# Convention : Reuss Voigt Hill
#
# Bulk Modulus (GPa) = 45.58122 48.35476 46.96799
# Shear Modulus (GPa) = 20.85251 23.27044 22.06148
#
# Velocity S-wave (km/s) = 3.31412 3.50100 3.40884
# Velocity P-wave (km/s) = 6.21716 6.46622 6.34291
#
# Compressibility (1/GPa) = 0.02193886
#
# Stress axis : x y z
#
# Youngs Moduli (GPa) = 94.54114 44.14913 40.45416
#
# Poissons Ratio (x) = 0.16964 0.11513
# Poissons Ratio (y) = 0.36327 0.45777
# Poissons Ratio (z) = 0.26906 0.49958
#
# Static dielectric constant tensor:
#      x y z
#    x 3.826340 0.000000 0.000000 
#    y 0.000000 3.527980 0.000000 
#    z 0.000000 0.000000 3.164160 
# 
# 
# High freq. dielectric constant tensor:
#      x y z
#    x 1.761140 0.000000 0.000000 
#    y 0.000000 1.730930 0.000000 
#    z 0.000000 0.000000 1.709940 
# 
# From -- ./inp_files/43839.got.cif
#   From: 2010.06.25/outbox.cif.g09.slc.cpg/sg71_22_cif.got.tgz:43839.got - 2010.06.28 04:59:45.
