data_PCOD8291084
_publ_section_title
;
Structure prediction by ZEFSAII (Michael W. Deem and Ramdas Pophale) SiO2 
 PCOD8291084
Probable space group: I M M M
;
_chemical_formula_sum "Si O2"
_cell_formula_units_Z 104
_cell_length_a 23.734691
_cell_length_b 8.747279
_cell_length_c 26.796364
_cell_angle_alpha 90.000000
_cell_angle_beta 90.000000
_cell_angle_gamma 90.000000
_cell_volume 5563.299355
_symmetry_space_group_name_H-M "I M M M"
_symmetry_group_IT_number 71
_symmetry_cell_setting 'orthorhombic'
loop_
_space_group_symop_operation_xyz
x,y,z
-x,-y,z
x,-y,-z
-x,y,-z
-x,-y,-z
x,y,-z
-x,y,z
x,-y,z
1/2+x,1/2+y,1/2+z
1/2-x,1/2-y,1/2+z
1/2+x,1/2-y,1/2-z
1/2-x,1/2+y,1/2-z
1/2-x,1/2-y,1/2-z
1/2+x,1/2+y,1/2-z
1/2-x,1/2+y,1/2+z
1/2+x,1/2-y,1/2+z
loop_
_atom_site_type_symbol
_atom_site_label
_atom_site_fract_x
_atom_site_fract_y
_atom_site_fract_z
Si Si1 0.131584 0.179542 0.290512
Si Si2 0.159221 0.818231 0.556679
Si Si3 0.433429 0.332690 0.500000
Si Si4 0.435111 0.179500 0.122863
Si Si5 0.565897 0.321298 0.607438
Si Si6 0.853639 0.679387 0.183860
Si Si7 0.736179 0.679311 0.143923
O O1 0.082626 0.257187 0.323004
O O2 0.130169 0.237441 0.234524
O O3 0.192090 0.223854 0.313185
O O4 0.120865 0.000000 0.291890
O O5 0.168335 0.761145 0.500000
O O6 0.101062 0.752749 0.578251
O O7 0.212076 0.759954 0.590596
O O8 0.154652 0.000000 0.559554
O O9 0.405711 0.500000 0.500000
O O10 0.500000 0.352573 0.500000
O O11 0.416013 0.254359 0.447581
O O12 0.500000 0.222111 0.113240
O O13 0.424996 0.000000 0.122545
O O14 0.500000 0.301793 0.616559
O O15 0.582800 0.500000 0.612996
O O16 0.596149 0.212792 0.646325
O O17 0.847835 0.500000 0.194199
O O18 0.796323 0.750168 0.159707
O O19 0.744122 0.500000 0.139491
#
# Coordination Sequence:
#
# PCOD8291084 Si02
#       7
#    16  16   8  16  16  16  16
#     4  10  20  36  57  76  99 136 180 219 256 306
#     4   9  18  35  58  80 106 143 184 222 258 305
#     4   7  12  28  53  71  87 121 165 205 242 281
#     4  10  21  36  54  79 111 143 175 217 271 322
#     4   9  18  34  54  74  98 132 173 213 253 300
#     4  11  21  33  51  79 110 136 167 211 266 319
#     4   8  17  34  53  76 103 135 173 213 259 308
#
# _framework density 18.693942
#
# number of rings (size 3 to 8) (size 9 to 14) (size 15 to 20)
#    0.000    2.692    0.000    3.692    0.000    2.769 
#    1.385    8.846    0.000    1.385    0.000    0.000 
#    0.000    0.000    0.000    0.000    0.000    0.000 
#
# Total GULP energy -644484.053177 kJ/mol
# GULP energy per Si atom -12393.924100 kJ/mol
# Density = 1.865139 g / cm^3
# Si number density = 18.693942 Si / 1000 Ang^3
#
#
#
# Elastic Constant Matrix: (Units=GPa)
#
#
# Indices 1 2 3 4 5 6 
#
# 1 46.0986 15.9416 32.7117 0.0000 0.0000 0.0000
# 2 15.9416 22.7740 13.5575 0.0000 0.0000 0.0000
# 3 32.7117 13.5575 146.6611 0.0000 0.0000 0.0000
# 4 0.0000 0.0000 0.0000 19.3251 0.0000 0.0000
# 5 0.0000 0.0000 0.0000 0.0000 8.6963 0.0000
# 6 0.0000 0.0000 0.0000 0.0000 0.0000 21.1820
#
#
#
# Elastic Compliance Matrix: (Units=1/GPa)
#
#
# Indices 1 2 3 4 5 6 
#
# 1 0.032208 -0.019332 -0.005397 0.000000 0.000000 0.000000
# 2 -0.019332 0.058071 -0.001056 0.000000 0.000000 0.000000
# 3 -0.005397 -0.001056 0.008120 0.000000 0.000000 0.000000
# 4 0.000000 0.000000 0.000000 0.051746 0.000000 0.000000
# 5 0.000000 0.000000 0.000000 0.000000 0.114991 0.000000
# 6 0.000000 0.000000 0.000000 0.000000 0.000000 0.047210
#
#
# Mechanical properties :
#
#
# Convention : Reuss Voigt Hill
#
# Bulk Modulus (GPa) = 21.35478 37.77281 29.56379
# Shear Modulus (GPa) = 13.17437 20.06221 16.61829
#
# Velocity S-wave (km/s) = 2.65757 3.27952 2.98479
# Velocity P-wave (km/s) = 4.56783 5.88133 5.26570
#
# Compressibility (1/GPa) = 0.04682793
#
# Stress axis : x y z
#
# Youngs Moduli (GPa) = 31.04865 17.22034 123.15661
#
# Poissons Ratio (x) = 0.33291 0.66462
# Poissons Ratio (y) = 0.60024 0.13007
# Poissons Ratio (z) = 0.16756 0.01819
#
# Static dielectric constant tensor:
#      x y z
#    x 3.462900 0.000000 0.000000 
#    y 0.000000 3.200330 0.000000 
#    z 0.000000 0.000000 3.761940 
# 
# 
# High freq. dielectric constant tensor:
#      x y z
#    x 1.716640 0.000000 0.000000 
#    y 0.000000 1.704670 0.000000 
#    z 0.000000 0.000000 1.739170 
# 
# From -- ./inp_files/66833.got.cif
#   From: 2010.06.25/outbox.cif.g09.slc.cpg/sg71_34_cif.got.tgz:66833.got - 2010.06.28 04:59:45.
