data_PCOD8291644
_publ_section_title
;
Structure prediction by ZEFSAII (Michael W. Deem and Ramdas Pophale) SiO2 
 PCOD8291644
Probable space group: I M M M
;
_chemical_formula_sum "Si O2"
_cell_formula_units_Z 112
_cell_length_a 14.657040
_cell_length_b 22.423205
_cell_length_c 15.742661
_cell_angle_alpha 90.000000
_cell_angle_beta 90.000000
_cell_angle_gamma 90.000000
_cell_volume 5173.948529
_symmetry_space_group_name_H-M "I M M M"
_symmetry_group_IT_number 71
_symmetry_cell_setting 'orthorhombic'
loop_
_space_group_symop_operation_xyz
x,y,z
-x,-y,z
x,-y,-z
-x,y,-z
-x,-y,-z
x,y,-z
-x,y,z
x,-y,z
1/2+x,1/2+y,1/2+z
1/2-x,1/2-y,1/2+z
1/2+x,1/2-y,1/2-z
1/2-x,1/2+y,1/2-z
1/2-x,1/2-y,1/2-z
1/2+x,1/2+y,1/2-z
1/2-x,1/2+y,1/2+z
1/2+x,1/2-y,1/2+z
loop_
_atom_site_type_symbol
_atom_site_label
_atom_site_fract_x
_atom_site_fract_y
_atom_site_fract_z
Si Si1 0.844882 0.897860 0.595453
Si Si2 0.271857 0.726199 0.907578
Si Si3 0.598265 0.187635 0.677948
Si Si4 0.603465 0.833266 0.872793
Si Si5 0.098161 0.931108 0.222662
Si Si6 0.745560 0.930510 0.097443
Si Si7 0.358261 0.934411 0.594767
O O1 0.890877 0.904098 0.500000
O O2 0.834786 0.828476 0.622488
O O3 0.898970 0.924863 0.674775
O O4 0.750220 0.932205 0.592426
O O5 0.180161 0.730850 0.851275
O O6 0.330563 0.785729 0.917946
O O7 0.233577 0.708109 0.000000
O O8 0.500000 0.212708 0.646149
O O9 0.600651 0.188790 0.777837
O O10 0.604093 0.118343 0.652250
O O11 0.500000 0.834383 0.910525
O O12 0.649287 0.897680 0.886147
O O13 0.180207 0.903413 0.165199
O O14 0.000000 0.903841 0.194016
O O15 0.099429 0.000000 0.199382
O O16 0.726962 0.000000 0.114638
O O17 0.778873 0.920081 0.000000
O O18 0.397812 0.926788 0.500000
O O19 0.386783 0.000000 0.630786
#
# Coordination Sequence:
#
# PCOD8291644 Si02
#       7
#    16  16  16  16  16  16  16
#     4   9  18  33  54  81 115 156 198 239 286 341
#     4  10  21  38  59  81 111 151 190 233 284 338
#     4  10  21  36  56  84 118 156 195 236 284 341
#     4  11  24  41  62  87 114 145 185 237 296 356
#     4  10  21  36  56  84 118 156 195 236 283 338
#     4  10  22  41  64  87 113 148 190 241 298 350
#     4   9  17  30  51  80 116 159 201 240 285 339
#
# _framework density 21.646909999999998
#
# number of rings (size 3 to 8) (size 9 to 14) (size 15 to 20)
#    0.000    2.143    0.000    4.286    0.000    6.571 
#    0.000    8.571    0.000    1.714    0.000    0.000 
#    0.000    0.000    0.000    0.000    0.000    0.000 
#
# Total GULP energy -693739.295681 kJ/mol
# GULP energy per Si atom -12388.201709 kJ/mol
# Density = 2.159764 g / cm^3
# Si number density = 21.646910 Si / 1000 Ang^3
#
#
#
# Elastic Constant Matrix: (Units=GPa)
#
#
# Indices 1 2 3 4 5 6 
#
# 1 145.7726 42.5019 43.7095 -0.0004 -0.0001 0.0000
# 2 42.5019 69.4695 7.6045 0.0001 -0.0001 0.0000
# 3 43.7095 7.6045 85.3554 0.0003 -0.0002 -0.0001
# 4 -0.0004 0.0001 0.0003 24.7471 -0.0001 -0.0001
# 5 -0.0001 -0.0001 -0.0002 -0.0001 22.2402 0.0000
# 6 0.0000 0.0000 -0.0001 -0.0001 0.0000 20.5053
#
#
#
# Elastic Compliance Matrix: (Units=1/GPa)
#
#
# Indices 1 2 3 4 5 6 
#
# 1 0.009831 -0.005517 -0.004543 0.000000 0.000000 0.000000
# 2 -0.005517 0.017633 0.001254 0.000000 0.000000 0.000000
# 3 -0.004543 0.001254 0.013930 0.000000 0.000000 0.000000
# 4 0.000000 0.000000 0.000000 0.040409 0.000000 0.000000
# 5 0.000000 0.000000 0.000000 0.000000 0.044964 0.000000
# 6 0.000000 0.000000 0.000000 0.000000 0.000000 0.048768
#
#
# Mechanical properties :
#
#
# Convention : Reuss Voigt Hill
#
# Bulk Modulus (GPa) = 42.04716 54.24770 48.14743
# Shear Modulus (GPa) = 24.86660 27.28395 26.07528
#
# Velocity S-wave (km/s) = 3.39298 3.55408 3.47446
# Velocity P-wave (km/s) = 5.90051 6.47739 6.19567
#
# Compressibility (1/GPa) = 0.02378282
#
# Stress axis : x y z
#
# Youngs Moduli (GPa) = 101.72193 56.71193 71.78645
#
# Poissons Ratio (x) = 0.31289 0.32610
# Poissons Ratio (y) = 0.56122 -0.09004
# Poissons Ratio (z) = 0.46209 -0.07114
#
# Static dielectric constant tensor:
#      x y z
#    x 4.083090 0.000000 0.000000 
#    y 0.000000 3.748860 0.000000 
#    z 0.000000 0.000000 4.029540 
# 
# 
# High freq. dielectric constant tensor:
#      x y z
#    x 1.840990 0.000000 0.000000 
#    y 0.000000 1.834880 0.000000 
#    z 0.000000 0.000000 1.856030 
# 
# From -- ./inp_files/34875.got.cif
#   From: 2010.06.25/outbox.cif.g09.slc.cpg/sg71_18_cif.got.tgz:34875.got - 2010.06.28 04:59:45.
