data_PCOD8291470
_publ_section_title
;
Structure prediction by ZEFSAII (Michael W. Deem and Ramdas Pophale) SiO2 
 PCOD8291470
Probable space group: I M M M
;
_chemical_formula_sum "Si O2"
_cell_formula_units_Z 80
_cell_length_a 7.703032
_cell_length_b 31.288736
_cell_length_c 17.868245
_cell_angle_alpha 90.000000
_cell_angle_beta 90.000000
_cell_angle_gamma 90.000000
_cell_volume 4306.571079
_symmetry_space_group_name_H-M "I M M M"
_symmetry_group_IT_number 71
_symmetry_cell_setting 'orthorhombic'
loop_
_space_group_symop_operation_xyz
x,y,z
-x,-y,z
x,-y,-z
-x,y,-z
-x,-y,-z
x,y,-z
-x,y,z
x,-y,z
1/2+x,1/2+y,1/2+z
1/2-x,1/2-y,1/2+z
1/2+x,1/2-y,1/2-z
1/2-x,1/2+y,1/2-z
1/2-x,1/2-y,1/2-z
1/2+x,1/2+y,1/2-z
1/2-x,1/2+y,1/2+z
1/2+x,1/2-y,1/2+z
loop_
_atom_site_type_symbol
_atom_site_label
_atom_site_fract_x
_atom_site_fract_y
_atom_site_fract_z
Si Si1 0.197623 0.332278 0.918106
Si Si2 0.000000 0.902175 0.082269
Si Si3 0.700365 0.892452 0.710638
Si Si4 0.196306 0.654065 0.636380
Si Si5 0.699949 0.750271 0.163979
Si Si6 0.000000 0.949822 0.766278
O O1 0.275872 0.368157 0.862567
O O2 0.199434 0.285201 0.882818
O O3 0.000000 0.345125 0.928815
O O4 0.290718 0.333318 0.000000
O O5 0.828562 0.873114 0.087162
O O6 0.000000 0.938469 0.145600
O O7 0.000000 0.923862 0.000000
O O8 0.500000 0.908241 0.702043
O O9 0.714466 0.857991 0.776687
O O10 0.825543 0.932344 0.727066
O O11 0.243991 0.703805 0.628247
O O12 0.000000 0.645025 0.608230
O O13 0.500000 0.739128 0.155997
O O14 0.750000 0.750000 0.250000
O O15 0.000000 0.000000 0.756453
#
# Coordination Sequence:
#
# PCOD8291470 Si02
#       6
#    16   8  16  16  16   8
#     4  10  21  35  52  78 111 148 188 231 278 323
#     4  10  22  37  58  81 111 150 180 225 286 330
#     4   9  18  36  58  80 108 144 182 222 275 330
#     4   9  19  34  52  76 107 151 197 228 261 319
#     4  11  21  31  51  76 108 150 194 239 274 310
#     4  10  22  39  63  90 108 131 179 230 282 352
#
# _framework density 18.576263999999998
#
# number of rings (size 3 to 8) (size 9 to 14) (size 15 to 20)
#    0.000    2.200    2.000    0.600    4.200    2.200 
#    0.000    2.000    0.000    1.200    0.000    8.400 
#    0.000    0.000    0.000    0.000    0.000    0.000 
#
# Total GULP energy -495862.086989 kJ/mol
# GULP energy per Si atom -12396.552175 kJ/mol
# Density = 1.853398 g / cm^3
# Si number density = 18.576264 Si / 1000 Ang^3
#
#
#
# Elastic Constant Matrix: (Units=GPa)
#
#
# Indices 1 2 3 4 5 6 
#
# 1 79.2784 47.5537 27.3093 -0.0002 0.0000 0.0000
# 2 47.5537 126.3378 52.8516 -0.0003 0.0000 0.0000
# 3 27.3093 52.8516 123.0749 -0.0010 -0.0001 0.0000
# 4 -0.0002 -0.0003 -0.0010 15.2526 0.0000 0.0000
# 5 0.0000 0.0000 -0.0001 0.0000 14.8887 0.0000
# 6 0.0000 0.0000 0.0000 0.0000 0.0000 22.9453
#
#
#
# Elastic Compliance Matrix: (Units=1/GPa)
#
#
# Indices 1 2 3 4 5 6 
#
# 1 0.016438 -0.005682 -0.001207 0.000000 0.000000 0.000000
# 2 -0.005682 0.011613 -0.003726 0.000000 0.000000 0.000000
# 3 -0.001207 -0.003726 0.009993 0.000001 0.000000 0.000000
# 4 0.000000 0.000000 0.000001 0.065563 0.000000 0.000000
# 5 0.000000 0.000000 0.000000 0.000000 0.067165 0.000000
# 6 0.000000 0.000000 0.000000 0.000000 0.000000 0.043582
#
#
# Mechanical properties :
#
#
# Convention : Reuss Voigt Hill
#
# Bulk Modulus (GPa) = 59.47866 64.90225 62.19045
# Shear Modulus (GPa) = 20.73063 24.01575 22.37319
#
# Velocity S-wave (km/s) = 3.34424 3.59948 3.47421
# Velocity P-wave (km/s) = 6.85566 7.23112 7.04589
#
# Compressibility (1/GPa) = 0.01681275
#
# Stress axis : x y z
#
# Youngs Moduli (GPa) = 60.83443 86.11181 100.06923
#
# Poissons Ratio (x) = 0.48931 0.12082
# Poissons Ratio (y) = 0.34567 0.37286
# Poissons Ratio (z) = 0.07345 0.32085
#
# Static dielectric constant tensor:
#      x y z
#    x 3.610320 0.000000 0.000000 
#    y 0.000000 3.047920 0.000000 
#    z 0.000000 0.000000 3.603920 
# 
# 
# High freq. dielectric constant tensor:
#      x y z
#    x 1.729190 0.000000 0.000000 
#    y 0.000000 1.686350 0.000000 
#    z 0.000000 0.000000 1.717380 
# 
# From -- ./inp_files/8423.got.cif
#   From: 2010.06.25/outbox.cif.g09.slc.cpg/sg71_5_cif.got.tgz:8423.got - 2010.06.28 04:59:45.
