data_PCOD8291277
_publ_section_title
;
Structure prediction by ZEFSAII (Michael W. Deem and Ramdas Pophale) SiO2 
 PCOD8291277
Probable space group: I M M M
;
_chemical_formula_sum "Si O2"
_cell_formula_units_Z 104
_cell_length_a 21.130871
_cell_length_b 9.316964
_cell_length_c 27.972839
_cell_angle_alpha 90.000000
_cell_angle_beta 90.000000
_cell_angle_gamma 90.000000
_cell_volume 5507.168466
_symmetry_space_group_name_H-M "I M M M"
_symmetry_group_IT_number 71
_symmetry_cell_setting 'orthorhombic'
loop_
_space_group_symop_operation_xyz
x,y,z
-x,-y,z
x,-y,-z
-x,y,-z
-x,-y,-z
x,y,-z
-x,y,z
x,-y,z
1/2+x,1/2+y,1/2+z
1/2-x,1/2-y,1/2+z
1/2+x,1/2-y,1/2-z
1/2-x,1/2+y,1/2-z
1/2-x,1/2-y,1/2-z
1/2+x,1/2+y,1/2-z
1/2-x,1/2+y,1/2+z
1/2+x,1/2-y,1/2+z
loop_
_atom_site_type_symbol
_atom_site_label
_atom_site_fract_x
_atom_site_fract_y
_atom_site_fract_z
Si Si1 0.598815 0.330798 0.379154
Si Si2 0.757659 0.168223 0.135683
Si Si3 0.500000 0.829857 0.556704
Si Si4 0.836376 0.166309 0.304745
Si Si5 0.664024 0.834687 0.053297
Si Si6 0.931489 0.830571 0.227754
Si Si7 0.070675 0.164516 0.391849
O O1 0.591679 0.500000 0.390667
O O2 0.671625 0.282177 0.376280
O O3 0.562597 0.241199 0.419936
O O4 0.570231 0.290935 0.327846
O O5 0.727696 0.246950 0.182240
O O6 0.719236 0.214631 0.088801
O O7 0.755491 0.000000 0.147007
O O8 0.500000 0.797871 0.500000
O O9 0.500000 0.000000 0.566673
O O10 0.870437 0.229666 0.256780
O O11 0.888746 0.192586 0.344881
O O12 0.817406 0.000000 0.299553
O O13 0.599584 0.750274 0.063635
O O14 0.648117 0.000000 0.060758
O O15 0.687836 0.801130 0.000000
O O16 0.000000 0.774515 0.247206
O O17 0.928405 0.000000 0.235293
O O18 0.000000 0.219785 0.381772
O O19 0.071036 0.000000 0.406905
#
# Coordination Sequence:
#
# PCOD8291277 Si02
#       7
#    16  16   8  16  16  16  16
#     4  10  20  37  61  85 107 139 181 221 265 318
#     4   9  19  34  52  76 107 137 173 223 268 314
#     4  11  25  43  61  85 117 145 173 221 284 339
#     4   9  17  30  50  75 104 143 181 211 256 316
#     4   9  18  32  47  64  91 128 167 209 261 314
#     4   9  16  29  53  81 108 139 181 226 263 308
#     4   9  17  29  45  67  95 127 168 213 253 299
#
# _framework density 18.884478000000001
#
# number of rings (size 3 to 8) (size 9 to 14) (size 15 to 20)
#    0.000    2.692    0.769    0.692    0.000    5.231 
#    0.000    3.846    0.000    0.923    0.000    0.000 
#    0.000    0.000    0.000    0.000    0.000    0.000 
#
# Total GULP energy -644524.666009 kJ/mol
# GULP energy per Si atom -12394.705116 kJ/mol
# Density = 1.884150 g / cm^3
# Si number density = 18.884478 Si / 1000 Ang^3
#
#
#
# Elastic Constant Matrix: (Units=GPa)
#
#
# Indices 1 2 3 4 5 6 
#
# 1 144.1806 48.3530 48.9078 0.0000 0.0000 0.0000
# 2 48.3530 48.6112 40.3145 0.0000 0.0000 0.0000
# 3 48.9078 40.3145 95.0275 0.0000 0.0000 0.0000
# 4 0.0000 0.0000 0.0000 23.1147 0.0000 0.0000
# 5 0.0000 0.0000 0.0000 0.0000 14.4842 0.0000
# 6 0.0000 0.0000 0.0000 0.0000 0.0000 28.9735
#
#
#
# Elastic Compliance Matrix: (Units=1/GPa)
#
#
# Indices 1 2 3 4 5 6 
#
# 1 0.010546 -0.009239 -0.001508 0.000000 0.000000 0.000000
# 2 -0.009239 0.039832 -0.012143 0.000000 0.000000 0.000000
# 3 -0.001508 -0.012143 0.016451 0.000000 0.000000 0.000000
# 4 0.000000 0.000000 0.000000 0.043263 0.000000 0.000000
# 5 0.000000 0.000000 0.000000 0.000000 0.069041 0.000000
# 6 0.000000 0.000000 0.000000 0.000000 0.000000 0.034514
#
#
# Mechanical properties :
#
#
# Convention : Reuss Voigt Hill
#
# Bulk Modulus (GPa) = 47.51005 62.55219 55.03112
# Shear Modulus (GPa) = 18.76571 23.33074 21.04823
#
# Velocity S-wave (km/s) = 3.15574 3.51870 3.34215
# Velocity P-wave (km/s) = 6.20412 7.05010 6.64059
#
# Compressibility (1/GPa) = 0.02104818
#
# Stress axis : x y z
#
# Youngs Moduli (GPa) = 94.82502 25.10534 60.78641
#
# Poissons Ratio (x) = 0.23195 0.09166
# Poissons Ratio (y) = 0.87610 0.73815
# Poissons Ratio (z) = 0.14299 0.30486
#
# Static dielectric constant tensor:
#      x y z
#    x 3.700900 0.000000 0.000000 
#    y 0.000000 3.264040 0.000000 
#    z 0.000000 0.000000 3.574590 
# 
# 
# High freq. dielectric constant tensor:
#      x y z
#    x 1.744040 0.000000 0.000000 
#    y 0.000000 1.702260 0.000000 
#    z 0.000000 0.000000 1.732500 
# 
# From -- ./inp_files/56289.got.cif
#   From: 2010.06.25/outbox.cif.g09.slc.cpg/sg71_29_cif.got.tgz:56289.got - 2010.06.28 04:59:45.
