data_PCOD8291002
_publ_section_title
;
Structure prediction by ZEFSAII (Michael W. Deem and Ramdas Pophale) SiO2 
 PCOD8291002
Probable space group: I M M M
;
_chemical_formula_sum "Si O2"
_cell_formula_units_Z 72
_cell_length_a 18.414403
_cell_length_b 7.838412
_cell_length_c 25.325171
_cell_angle_alpha 90.000000
_cell_angle_beta 90.000000
_cell_angle_gamma 90.000000
_cell_volume 3655.427013
_symmetry_space_group_name_H-M "I M M M"
_symmetry_group_IT_number 71
_symmetry_cell_setting 'orthorhombic'
loop_
_space_group_symop_operation_xyz
x,y,z
-x,-y,z
x,-y,-z
-x,y,-z
-x,-y,-z
x,y,-z
-x,y,z
x,-y,z
1/2+x,1/2+y,1/2+z
1/2-x,1/2-y,1/2+z
1/2+x,1/2-y,1/2-z
1/2-x,1/2+y,1/2-z
1/2-x,1/2-y,1/2-z
1/2+x,1/2+y,1/2-z
1/2-x,1/2+y,1/2+z
1/2+x,1/2-y,1/2+z
loop_
_atom_site_type_symbol
_atom_site_label
_atom_site_fract_x
_atom_site_fract_y
_atom_site_fract_z
Si Si1 0.080005 0.696844 0.334469
Si Si2 0.583394 0.299420 0.056072
Si Si3 0.416000 0.306156 0.365095
Si Si4 0.914406 0.500000 0.940728
Si Si5 0.668451 0.201409 0.737117
O O1 0.072712 0.500000 0.322104
O O2 0.120546 0.722559 0.391260
O O3 0.124950 0.779134 0.287003
O O4 0.000000 0.783187 0.335993
O O5 0.500000 0.239795 0.055834
O O6 0.590260 0.500000 0.059296
O O7 0.618619 0.236064 0.000000
O O8 0.500000 0.267976 0.348815
O O9 0.408934 0.500000 0.387052
O O10 0.363172 0.289700 0.314972
O O11 0.389849 0.171518 0.409695
O O12 0.000000 0.500000 0.946235
O O13 0.879971 0.500000 0.000000
O O14 0.750000 0.250000 0.750000
O O15 0.659557 0.000000 0.730542
#
# Coordination Sequence:
#
# PCOD8291002 Si02
#       5
#    16  16  16   8  16
#     4   9  18  31  49  73 100 133 171 215 269 325
#     4   8  14  25  42  66  96 127 160 203 251 297
#     4  10  20  35  58  87 118 153 191 232 285 349
#     4   9  18  34  58  88 120 152 186 234 292 345
#     4  11  22  36  53  76 109 146 187 236 286 336
#
# _framework density 19.696742
#
# number of rings (size 3 to 8) (size 9 to 14) (size 15 to 20)
#    0.000    2.556    1.111    2.000    0.000    3.556 
#    0.000    6.667    0.000    1.333    0.000    3.111 
#    0.000    0.000    0.000    0.000    0.000    0.000 
#
# Total GULP energy -445994.189554 kJ/mol
# GULP energy per Si atom -12388.727488 kJ/mol
# Density = 1.965191 g / cm^3
# Si number density = 19.696742 Si / 1000 Ang^3
#
#
#
# Elastic Constant Matrix: (Units=GPa)
#
#
# Indices 1 2 3 4 5 6 
#
# 1 62.3729 18.4042 50.9916 0.0000 0.0000 0.0000
# 2 18.4042 87.4635 49.9661 0.0000 0.0000 0.0000
# 3 50.9916 49.9661 192.8751 0.0000 0.0000 0.0000
# 4 0.0000 0.0000 0.0000 19.0765 0.0000 0.0000
# 5 0.0000 0.0000 0.0000 0.0000 5.9467 0.0000
# 6 0.0000 0.0000 0.0000 0.0000 0.0000 18.1261
#
#
#
# Elastic Compliance Matrix: (Units=1/GPa)
#
#
# Indices 1 2 3 4 5 6 
#
# 1 0.020606 -0.001436 -0.005076 0.000000 0.000000 0.000000
# 2 -0.001436 0.013519 -0.003123 0.000000 0.000000 0.000000
# 3 -0.005076 -0.003123 0.007336 0.000000 0.000000 0.000000
# 4 0.000000 0.000000 0.000000 0.052421 0.000000 0.000000
# 5 0.000000 0.000000 0.000000 0.000000 0.168162 0.000000
# 6 0.000000 0.000000 0.000000 0.000000 0.000000 0.055169
#
#
# Mechanical properties :
#
#
# Convention : Reuss Voigt Hill
#
# Bulk Modulus (GPa) = 45.06181 64.60392 54.83287
# Shear Modulus (GPa) = 14.54001 23.51983 19.02992
#
# Velocity S-wave (km/s) = 2.71992 3.45932 3.11166
# Velocity P-wave (km/s) = 5.72638 6.98759 6.38818
#
# Compressibility (1/GPa) = 0.02219174
#
# Stress axis : x y z
#
# Youngs Moduli (GPa) = 48.52990 73.96745 136.32316
#
# Poissons Ratio (x) = 0.10624 0.69192
# Poissons Ratio (y) = 0.06971 0.42568
# Poissons Ratio (z) = 0.24632 0.23097
#
# Static dielectric constant tensor:
#      x y z
#    x 3.240960 0.000000 0.000000 
#    y 0.000000 3.557390 0.000000 
#    z 0.000000 0.000000 4.070860 
# 
# 
# High freq. dielectric constant tensor:
#      x y z
#    x 1.709370 0.000000 0.000000 
#    y 0.000000 1.766100 0.000000 
#    z 0.000000 0.000000 1.784080 
# 
# From -- ./inp_files/47922.got.cif
#   From: 2010.06.25/outbox.cif.g09.slc.cpg/sg71_24_cif.got.tgz:47922.got - 2010.06.28 04:59:45.
