data_PCOD8291432
_publ_section_title
;
Structure prediction by ZEFSAII (Michael W. Deem and Ramdas Pophale) SiO2 
 PCOD8291432
Probable space group: I M M M
;
_chemical_formula_sum "Si O2"
_cell_formula_units_Z 80
_cell_length_a 7.778984
_cell_length_b 20.217550
_cell_length_c 28.669669
_cell_angle_alpha 90.000000
_cell_angle_beta 90.000000
_cell_angle_gamma 90.000000
_cell_volume 4508.936125
_symmetry_space_group_name_H-M "I M M M"
_symmetry_group_IT_number 71
_symmetry_cell_setting 'orthorhombic'
loop_
_space_group_symop_operation_xyz
x,y,z
-x,-y,z
x,-y,-z
-x,y,-z
-x,-y,-z
x,y,-z
-x,y,z
x,-y,z
1/2+x,1/2+y,1/2+z
1/2-x,1/2-y,1/2+z
1/2+x,1/2-y,1/2-z
1/2-x,1/2+y,1/2-z
1/2-x,1/2-y,1/2-z
1/2+x,1/2+y,1/2-z
1/2-x,1/2+y,1/2+z
1/2+x,1/2-y,1/2+z
loop_
_atom_site_type_symbol
_atom_site_label
_atom_site_fract_x
_atom_site_fract_y
_atom_site_fract_z
Si Si1 0.500000 0.873090 0.447763
Si Si2 0.806266 0.689773 0.281799
Si Si3 0.500000 0.715667 0.552337
Si Si4 0.305715 0.372977 0.117097
Si Si5 0.803980 0.283984 0.382114
Si Si6 0.298048 0.425134 0.782905
O O1 0.500000 0.902253 0.500000
O O2 0.500000 0.794403 0.448688
O O3 0.326954 0.898571 0.422136
O O4 0.750000 0.750000 0.250000
O O5 0.721913 0.688962 0.333316
O O6 0.787261 0.619957 0.256436
O O7 0.000000 0.705041 0.294194
O O8 0.500000 0.686633 0.500000
O O9 0.674258 0.690598 0.577755
O O10 0.500000 0.397470 0.105096
O O11 0.301701 0.294720 0.121268
O O12 0.239803 0.403051 0.165824
O O13 0.000000 0.308564 0.392913
O O14 0.500000 0.416721 0.777946
O O15 0.237463 0.500000 0.773986
#
# Coordination Sequence:
#
# PCOD8291432 Si02
#       6
#     8  16   8  16  16  16
#     4   9  18  30  47  72  95 123 172 222 265 305
#     4  11  21  31  51  77 103 138 174 215 260 307
#     4   9  18  30  48  71 101 137 165 209 267 305
#     4   9  17  31  48  67  95 131 169 211 260 307
#     4   9  18  30  46  73 101 128 172 213 250 308
#     4  10  21  35  50  72 103 138 175 214 260 312
#
# _framework density 17.742545
#
# number of rings (size 3 to 8) (size 9 to 14) (size 15 to 20)
#    0.000    2.400    2.000    0.600    4.200    1.200 
#    0.000    4.000    0.000    1.200    0.000    2.800 
#    0.000    1.600    0.000    4.400    0.000    0.200 
#
# Total GULP energy -495795.599687 kJ/mol
# GULP energy per Si atom -12394.889992 kJ/mol
# Density = 1.770216 g / cm^3
# Si number density = 17.742545 Si / 1000 Ang^3
#
#
#
# Elastic Constant Matrix: (Units=GPa)
#
#
# Indices 1 2 3 4 5 6 
#
# 1 96.1979 16.7294 69.9173 0.0000 0.0000 0.0000
# 2 16.7294 43.2163 32.9917 0.0000 0.0000 0.0000
# 3 69.9173 32.9917 160.5407 0.0000 0.0000 0.0000
# 4 0.0000 0.0000 0.0000 10.8738 0.0000 0.0000
# 5 0.0000 0.0000 0.0000 0.0000 31.5887 0.0000
# 6 0.0000 0.0000 0.0000 0.0000 0.0000 13.5792
#
#
#
# Elastic Compliance Matrix: (Units=1/GPa)
#
#
# Indices 1 2 3 4 5 6 
#
# 1 0.015245 -0.000988 -0.006436 0.000000 0.000000 0.000000
# 2 -0.000988 0.027509 -0.005223 0.000000 0.000000 0.000000
# 3 -0.006436 -0.005223 0.010105 0.000000 0.000000 0.000000
# 4 0.000000 0.000000 0.000000 0.091964 0.000000 0.000000
# 5 0.000000 0.000000 0.000000 0.000000 0.031657 0.000000
# 6 0.000000 0.000000 0.000000 0.000000 0.000000 0.073642
#
#
# Mechanical properties :
#
#
# Convention : Reuss Voigt Hill
#
# Bulk Modulus (GPa) = 36.27780 59.91464 48.09622
# Shear Modulus (GPa) = 17.56815 23.22943 20.39879
#
# Velocity S-wave (km/s) = 3.15011 3.62228 3.39442
# Velocity P-wave (km/s) = 5.80707 7.16497 6.52146
#
# Compressibility (1/GPa) = 0.02756507
#
# Stress axis : x y z
#
# Youngs Moduli (GPa) = 65.59509 36.35154 98.95685
#
# Poissons Ratio (x) = 0.03591 0.63692
# Poissons Ratio (y) = 0.06480 0.51685
# Poissons Ratio (z) = 0.42219 0.18986
#
# Static dielectric constant tensor:
#      x y z
#    x 3.551430 0.000000 0.000000 
#    y 0.000000 2.850620 0.000000 
#    z 0.000000 0.000000 3.377680 
# 
# 
# High freq. dielectric constant tensor:
#      x y z
#    x 1.697990 0.000000 0.000000 
#    y 0.000000 1.632190 0.000000 
#    z 0.000000 0.000000 1.685680 
# 
# From -- ./inp_files/12393.got.cif
#   From: 2010.06.25/outbox.cif.g09.slc.cpg/sg71_7_cif.got.tgz:12393.got - 2010.06.28 04:59:45.
