data_PCOD8291186
_publ_section_title
;
Structure prediction by ZEFSAII (Michael W. Deem and Ramdas Pophale) SiO2 
 PCOD8291186
Probable space group: I M M M
;
_chemical_formula_sum "Si O2"
_cell_formula_units_Z 112
_cell_length_a 14.692750
_cell_length_b 14.360363
_cell_length_c 24.647388
_cell_angle_alpha 90.000000
_cell_angle_beta 90.000000
_cell_angle_gamma 90.000000
_cell_volume 5200.431844
_symmetry_space_group_name_H-M "I M M M"
_symmetry_group_IT_number 71
_symmetry_cell_setting 'orthorhombic'
loop_
_space_group_symop_operation_xyz
x,y,z
-x,-y,z
x,-y,-z
-x,y,-z
-x,-y,-z
x,y,-z
-x,y,z
x,-y,z
1/2+x,1/2+y,1/2+z
1/2-x,1/2-y,1/2+z
1/2+x,1/2-y,1/2-z
1/2-x,1/2+y,1/2-z
1/2-x,1/2-y,1/2-z
1/2+x,1/2+y,1/2-z
1/2-x,1/2+y,1/2+z
1/2+x,1/2-y,1/2+z
loop_
_atom_site_type_symbol
_atom_site_label
_atom_site_fract_x
_atom_site_fract_y
_atom_site_fract_z
Si Si1 0.893960 0.396972 0.845707
Si Si2 0.895592 0.734103 0.940678
Si Si3 0.223567 0.892753 0.093736
Si Si4 0.854324 0.727946 0.254949
Si Si5 0.598664 0.398682 0.306090
Si Si6 0.107756 0.102978 0.439080
Si Si7 0.895215 0.286548 0.621596
O O1 0.849300 0.500000 0.847746
O O2 0.852867 0.333181 0.894258
O O3 0.877900 0.354390 0.786525
O O4 0.000000 0.405659 0.857187
O O5 0.836489 0.828447 0.945418
O O6 0.000000 0.759655 0.926476
O O7 0.890048 0.685342 0.000000
O O8 0.180900 0.876937 0.153359
O O9 0.329427 0.862255 0.093364
O O10 0.216774 0.000000 0.075009
O O11 0.750000 0.750000 0.250000
O O12 0.906936 0.822580 0.240849
O O13 0.886338 0.699268 0.314274
O O14 0.500000 0.396819 0.336408
O O15 0.614426 0.500000 0.279209
O O16 0.143694 0.126304 0.500000
O O17 0.138859 0.183614 0.397166
O O18 0.000000 0.099999 0.440245
O O19 0.143993 0.000000 0.420994
O O20 0.000000 0.305092 0.603846
#
# Coordination Sequence:
#
# PCOD8291186 Si02
#       7
#    16  16  16  16  16  16  16
#     4  10  21  38  61  89 124 167 208 247 304 378
#     4  10  21  40  67  96 125 157 201 259 317 376
#     4  11  23  40  60  86 121 160 203 254 309 366
#     4  12  22  38  59  85 126 165 205 260 308 365
#     4  10  20  36  60  84 110 151 199 250 309 365
#     4   8  16  35  63  92 122 157 199 251 311 369
#     4  11  23  38  61  93 126 165 213 260 306 366
#
# _framework density 21.536673
#
# number of rings (size 3 to 8) (size 9 to 14) (size 15 to 20)
#    0.000    1.714    2.857    2.143    0.000    4.000 
#    0.000    5.714    0.000    0.000    0.000    3.000 
#    0.000    0.000    0.000    0.000    0.000    0.000 
#
# Total GULP energy -694063.645478 kJ/mol
# GULP energy per Si atom -12393.993669 kJ/mol
# Density = 2.148765 g / cm^3
# Si number density = 21.536673 Si / 1000 Ang^3
#
#
#
# Elastic Constant Matrix: (Units=GPa)
#
#
# Indices 1 2 3 4 5 6 
#
# 1 93.5625 34.1534 6.7026 0.0000 0.0000 0.0000
# 2 34.1534 157.6948 57.4137 0.0000 0.0000 0.0000
# 3 6.7026 57.4137 107.4662 0.0000 0.0000 0.0000
# 4 0.0000 0.0000 0.0000 13.8128 0.0000 0.0000
# 5 0.0000 0.0000 0.0000 0.0000 11.3287 0.0000
# 6 0.0000 0.0000 0.0000 0.0000 0.0000 29.3796
#
#
#
# Elastic Compliance Matrix: (Units=1/GPa)
#
#
# Indices 1 2 3 4 5 6 
#
# 1 0.011657 -0.002806 0.000772 0.000000 0.000000 0.000000
# 2 -0.002806 0.008548 -0.004392 0.000000 0.000000 0.000000
# 3 0.000772 -0.004392 0.011603 0.000000 0.000000 0.000000
# 4 0.000000 0.000000 0.000000 0.072396 0.000000 0.000000
# 5 0.000000 0.000000 0.000000 0.000000 0.088271 0.000000
# 6 0.000000 0.000000 0.000000 0.000000 0.000000 0.034037
#
#
# Mechanical properties :
#
#
# Convention : Reuss Voigt Hill
#
# Bulk Modulus (GPa) = 52.75037 61.69587 57.22312
# Shear Modulus (GPa) = 20.35138 28.26781 24.30960
#
# Velocity S-wave (km/s) = 3.07736 3.62683 3.36334
# Velocity P-wave (km/s) = 6.09699 6.80056 6.45837
#
# Compressibility (1/GPa) = 0.01895721
#
# Stress axis : x y z
#
# Youngs Moduli (GPa) = 85.78601 116.98684 86.18165
#
# Poissons Ratio (x) = 0.32823 -0.06652
# Poissons Ratio (y) = 0.24069 0.37849
# Poissons Ratio (z) = -0.06622 0.51378
#
# Static dielectric constant tensor:
#      x y z
#    x 3.866500 0.000000 0.000000 
#    y 0.000000 4.136230 0.000000 
#    z 0.000000 0.000000 3.833810 
# 
# 
# High freq. dielectric constant tensor:
#      x y z
#    x 1.843390 0.000000 0.000000 
#    y 0.000000 1.845060 0.000000 
#    z 0.000000 0.000000 1.826650 
# 
# From -- ./inp_files/39290.got.cif
#   From: 2010.06.25/outbox.cif.g09.slc.cpg/sg71_20_cif.got.tgz:39290.got - 2010.06.28 04:59:45.
