data_PCOD8291679
_publ_section_title
;
Structure prediction by ZEFSAII (Michael W. Deem and Ramdas Pophale) SiO2 
 PCOD8291679
Probable space group: I M M M
;
_chemical_formula_sum "Si O2"
_cell_formula_units_Z 96
_cell_length_a 11.549386
_cell_length_b 25.450543
_cell_length_c 17.685367
_cell_angle_alpha 90.000000
_cell_angle_beta 90.000000
_cell_angle_gamma 90.000000
_cell_volume 5198.403970
_symmetry_space_group_name_H-M "I M M M"
_symmetry_group_IT_number 71
_symmetry_cell_setting 'orthorhombic'
loop_
_space_group_symop_operation_xyz
x,y,z
-x,-y,z
x,-y,-z
-x,y,-z
-x,-y,-z
x,y,-z
-x,y,z
x,-y,z
1/2+x,1/2+y,1/2+z
1/2-x,1/2-y,1/2+z
1/2+x,1/2-y,1/2-z
1/2-x,1/2+y,1/2-z
1/2-x,1/2-y,1/2-z
1/2+x,1/2+y,1/2-z
1/2-x,1/2+y,1/2+z
1/2+x,1/2-y,1/2+z
loop_
_atom_site_type_symbol
_atom_site_label
_atom_site_fract_x
_atom_site_fract_y
_atom_site_fract_z
Si Si1 0.500000 0.893151 0.411545
Si Si2 0.239966 0.749315 0.160302
Si Si3 0.365628 0.651587 0.087870
Si Si4 0.500000 0.773195 0.591220
Si Si5 0.367219 0.940885 0.814074
Si Si6 0.730351 0.939973 0.346439
Si Si7 0.363484 0.154621 0.915550
O O1 0.500000 0.889640 0.500000
O O2 0.500000 0.833594 0.380714
O O3 0.611829 0.924516 0.386165
O O4 0.250000 0.750000 0.250000
O O5 0.291269 0.695286 0.129437
O O6 0.110110 0.755249 0.128872
O O7 0.312804 0.798262 0.132162
O O8 0.500000 0.663424 0.099881
O O9 0.335813 0.595132 0.123378
O O10 0.331226 0.652057 0.000000
O O11 0.500000 0.766929 0.500000
O O12 0.500000 0.930370 0.788433
O O13 0.283476 0.931982 0.743145
O O14 0.328374 0.901100 0.879335
O O15 0.354360 0.000000 0.845926
O O16 0.760137 0.000000 0.366284
O O17 0.500000 0.161922 0.916972
O O18 0.312263 0.155808 0.000000
#
# Coordination Sequence:
#
# PCOD8291679 Si02
#       7
#     8  16  16   8  16  16  16
#     4  11  21  34  55  82 112 147 190 240 294 348
#     4  12  25  39  62  87 118 152 194 244 293 352
#     4  11  24  41  59  79 114 157 193 236 292 352
#     4  11  24  41  62  87 119 157 196 245 301 354
#     4   9  18  34  56  84 117 149 184 233 290 341
#     4  11  21  35  56  83 114 149 193 241 288 343
#     4  10  21  36  58  86 117 152 190 235 288 351
#
# _framework density 18.467206999999998
#
# number of rings (size 3 to 8) (size 9 to 14) (size 15 to 20)
#    0.000    1.333    2.500    3.750    2.333    3.667 
#    0.000    2.500    0.000    0.000    0.000    0.000 
#    0.000    2.000    0.000    0.000    0.000    0.000 
#
# Total GULP energy -595363.014160 kJ/mol
# GULP energy per Si atom -12403.396128 kJ/mol
# Density = 1.842517 g / cm^3
# Si number density = 18.467207 Si / 1000 Ang^3
#
#
#
# Elastic Constant Matrix: (Units=GPa)
#
#
# Indices 1 2 3 4 5 6 
#
# 1 40.1530 5.2456 18.0674 0.0000 0.0000 0.0000
# 2 5.2456 92.6073 36.0343 0.0000 0.0000 0.0000
# 3 18.0674 36.0343 105.7158 0.0003 0.0000 0.0000
# 4 0.0000 0.0000 0.0003 -1.0749 0.0000 0.0000
# 5 0.0000 0.0000 0.0000 0.0000 27.5616 0.0000
# 6 0.0000 0.0000 0.0000 0.0000 0.0000 29.7415
#
#
#
# Elastic Compliance Matrix: (Units=1/GPa)
#
#
# Indices 1 2 3 4 5 6 
#
# 1 0.026987 0.000307 -0.004717 -0.000001 0.000000 0.000000
# 2 0.000307 0.012453 -0.004297 -0.000001 0.000000 0.000000
# 3 -0.004717 -0.004297 0.011730 0.000003 0.000000 0.000000
# 4 -0.000001 -0.000001 0.000003 -0.930362 0.000000 0.000000
# 5 0.000000 0.000000 0.000000 0.000000 0.036282 0.000000
# 6 0.000000 0.000000 0.000000 0.000000 0.000000 0.033623
#
#
# Mechanical properties :
#
#
# Convention : Reuss Voigt Hill
#
# Bulk Modulus (GPa) = 29.62455 39.68562 34.65509
# Shear Modulus (GPa) = -6.40517 23.18759 8.39121
#
# Velocity S-wave (km/s) = -1.86438 3.54730 2.13394
# Velocity P-wave (km/s) = 3.38260 6.18985 4.98779
#
# Compressibility (1/GPa) = 0.03375578
#
# Stress axis : x y z
#
# Youngs Moduli (GPa) = 37.05480 80.30217 85.25034
#
# Poissons Ratio (x) = -0.02463 0.40211
# Poissons Ratio (y) = -0.01136 0.36633
# Poissons Ratio (z) = 0.17478 0.34507
#
# Static dielectric constant tensor:
#      x y z
#    x 3.290200 0.000000 0.000000 
#    y 0.000000 3.637640 0.000000 
#    z 0.000000 0.000000 3.556810 
# 
# 
# High freq. dielectric constant tensor:
#      x y z
#    x 1.700310 0.000000 0.000000 
#    y 0.000000 1.727140 0.000000 
#    z 0.000000 0.000000 1.724810 
# 
# From -- ./inp_files/24268.got.cif
#   From: 2010.06.25/outbox.cif.g09.slc.cpg/sg71_13_cif.got.tgz:24268.got - 2010.06.28 04:59:45.
