data_PCOD8291582
_publ_section_title
;
Structure prediction by ZEFSAII (Michael W. Deem and Ramdas Pophale) SiO2 
 PCOD8291582
Probable space group: I M M M
;
_chemical_formula_sum "Si O2"
_cell_formula_units_Z 104
_cell_length_a 27.725027
_cell_length_b 8.800667
_cell_length_c 20.983328
_cell_angle_alpha 90.000000
_cell_angle_beta 90.000000
_cell_angle_gamma 90.000000
_cell_volume 5119.905387
_symmetry_space_group_name_H-M "I M M M"
_symmetry_group_IT_number 71
_symmetry_cell_setting 'orthorhombic'
loop_
_space_group_symop_operation_xyz
x,y,z
-x,-y,z
x,-y,-z
-x,y,-z
-x,-y,-z
x,y,-z
-x,y,z
x,-y,z
1/2+x,1/2+y,1/2+z
1/2-x,1/2-y,1/2+z
1/2+x,1/2-y,1/2-z
1/2-x,1/2+y,1/2-z
1/2-x,1/2-y,1/2-z
1/2+x,1/2+y,1/2-z
1/2-x,1/2+y,1/2+z
1/2+x,1/2-y,1/2+z
loop_
_atom_site_type_symbol
_atom_site_label
_atom_site_fract_x
_atom_site_fract_y
_atom_site_fract_z
Si Si1 0.725132 0.672918 0.570018
Si Si2 0.305014 0.674334 0.148570
Si Si3 0.555045 0.828721 0.183708
Si Si4 0.627518 0.178360 0.598240
Si Si5 0.900929 0.176216 0.572397
Si Si6 0.367876 0.323592 0.734128
Si Si7 0.443713 0.319994 0.500000
O O1 0.750109 0.686954 0.500000
O O2 0.710344 0.500000 0.584920
O O3 0.759827 0.725179 0.627091
O O4 0.677062 0.772449 0.565567
O O5 0.288861 0.500000 0.144755
O O6 0.347998 0.707770 0.099820
O O7 0.321897 0.715954 0.220551
O O8 0.500000 0.821594 0.204933
O O9 0.560274 0.776764 0.110383
O O10 0.583618 0.710570 0.227289
O O11 0.575194 0.000000 0.191854
O O12 0.631811 0.221109 0.672062
O O13 0.582032 0.256861 0.563693
O O14 0.620231 0.000000 0.591083
O O15 0.902095 0.231002 0.500000
O O16 0.914717 0.000000 0.579368
O O17 0.367329 0.500000 0.715156
O O18 0.438713 0.500000 0.500000
O O19 0.500000 0.270504 0.500000
#
# Coordination Sequence:
#
# PCOD8291582 Si02
#       7
#    16  16  16  16  16  16   8
#     4  11  23  38  60  89 125 165 204 248 297 357
#     4   9  19  36  58  85 117 157 204 250 299 354
#     4  10  21  36  54  79 112 149 193 247 302 359
#     4  12  25  42  67  95 124 159 197 245 300 355
#     4   9  18  33  53  78 111 153 200 250 298 353
#     4  10  22  41  63  86 118 158 200 251 304 364
#     4  11  25  47  73  99 129 163 201 249 306 371
#
# _framework density 20.312875999999999
#
# number of rings (size 3 to 8) (size 9 to 14) (size 15 to 20)
#    0.000    1.769    0.769    4.385    0.000    8.308 
#    0.000    1.538    0.000    0.000    0.000    0.000 
#    0.000    0.000    0.000    0.000    0.000    0.000 
#
# Total GULP energy -644833.860148 kJ/mol
# GULP energy per Si atom -12400.651157 kJ/mol
# Density = 2.026664 g / cm^3
# Si number density = 20.312876 Si / 1000 Ang^3
#
#
#
# Elastic Constant Matrix: (Units=GPa)
#
#
# Indices 1 2 3 4 5 6 
#
# 1 99.2785 48.7715 40.9291 0.0000 0.0000 0.0000
# 2 48.7715 97.3697 36.8100 0.0000 0.0000 0.0000
# 3 40.9291 36.8100 120.4438 0.0000 0.0000 0.0000
# 4 0.0000 0.0000 0.0000 33.3415 0.0000 0.0000
# 5 0.0000 0.0000 0.0000 0.0000 22.4333 0.0000
# 6 0.0000 0.0000 0.0000 0.0000 0.0000 34.6236
#
#
#
# Elastic Compliance Matrix: (Units=1/GPa)
#
#
# Indices 1 2 3 4 5 6 
#
# 1 0.014265 -0.006007 -0.003012 0.000000 0.000000 0.000000
# 2 -0.006007 0.014141 -0.002281 0.000000 0.000000 0.000000
# 3 -0.003012 -0.002281 0.010023 0.000000 0.000000 0.000000
# 4 0.000000 0.000000 0.000000 0.029993 0.000000 0.000000
# 5 0.000000 0.000000 0.000000 0.000000 0.044576 0.000000
# 6 0.000000 0.000000 0.000000 0.000000 0.000000 0.028882
#
#
# Mechanical properties :
#
#
# Convention : Reuss Voigt Hill
#
# Bulk Modulus (GPa) = 63.16683 63.34590 63.25637
# Shear Modulus (GPa) = 29.45409 30.78510 30.11959
#
# Velocity S-wave (km/s) = 3.81204 3.89722 3.85487
# Velocity P-wave (km/s) = 7.10915 7.17662 7.14297
#
# Compressibility (1/GPa) = 0.01583109
#
# Stress axis : x y z
#
# Youngs Moduli (GPa) = 70.10067 70.71636 99.76961
#
# Poissons Ratio (x) = 0.42477 0.30049
# Poissons Ratio (y) = 0.42107 0.22753
# Poissons Ratio (z) = 0.21113 0.16127
#
# Static dielectric constant tensor:
#      x y z
#    x 3.534470 0.000000 0.000000 
#    y 0.000000 3.696350 0.000000 
#    z 0.000000 0.000000 3.868690 
# 
# 
# High freq. dielectric constant tensor:
#      x y z
#    x 1.782050 0.000000 0.000000 
#    y 0.000000 1.798350 0.000000 
#    z 0.000000 0.000000 1.802990 
# 
# From -- ./inp_files/56247.got.cif
#   From: 2010.06.25/outbox.cif.g09.slc.cpg/sg71_29_cif.got.tgz:56247.got - 2010.06.28 04:59:45.
