data_PCOD8291263
_publ_section_title
;
Structure prediction by ZEFSAII (Michael W. Deem and Ramdas Pophale) SiO2 
 PCOD8291263
Probable space group: I M M M
;
_chemical_formula_sum "Si O2"
_cell_formula_units_Z 120
_cell_length_a 29.800744
_cell_length_b 24.239459
_cell_length_c 9.093270
_cell_angle_alpha 90.000000
_cell_angle_beta 90.000000
_cell_angle_gamma 90.000000
_cell_volume 6568.559161
_symmetry_space_group_name_H-M "I M M M"
_symmetry_group_IT_number 71
_symmetry_cell_setting 'orthorhombic'
loop_
_space_group_symop_operation_xyz
x,y,z
-x,-y,z
x,-y,-z
-x,y,-z
-x,-y,-z
x,y,-z
-x,y,z
x,-y,z
1/2+x,1/2+y,1/2+z
1/2-x,1/2-y,1/2+z
1/2+x,1/2-y,1/2-z
1/2-x,1/2+y,1/2-z
1/2-x,1/2-y,1/2-z
1/2+x,1/2+y,1/2-z
1/2-x,1/2+y,1/2+z
1/2+x,1/2-y,1/2+z
loop_
_atom_site_type_symbol
_atom_site_label
_atom_site_fract_x
_atom_site_fract_y
_atom_site_fract_z
Si Si1 0.429018 0.635433 0.167651
Si Si2 0.259355 0.563885 0.666603
Si Si3 0.826918 0.859884 0.667991
Si Si4 0.448967 0.758264 0.827308
Si Si5 0.297612 0.253866 0.672125
Si Si6 0.500000 0.563325 0.326349
Si Si7 0.124443 0.327765 0.168646
Si Si8 0.831689 0.438100 0.168731
O O1 0.377366 0.617776 0.177328
O O2 0.436510 0.697204 0.230695
O O3 0.455645 0.592122 0.265180
O O4 0.446708 0.632857 0.000000
O O5 0.262244 0.586589 0.500000
O O6 0.271646 0.500000 0.672512
O O7 0.294460 0.593743 0.770520
O O8 0.209649 0.574720 0.725335
O O9 0.813465 0.846151 0.500000
O O10 0.824575 0.805472 0.765538
O O11 0.500000 0.772450 0.782862
O O12 0.416633 0.804404 0.761082
O O13 0.441568 0.760049 0.000000
O O14 0.289245 0.261320 0.500000
O O15 0.250000 0.250000 0.750000
O O16 0.327780 0.200383 0.707629
O O17 0.500000 0.500000 0.275159
O O18 0.500000 0.568754 0.500000
O O19 0.129534 0.393220 0.201922
O O20 0.112468 0.316375 0.000000
O O21 0.850585 0.500000 0.197580
O O22 0.815279 0.432068 0.000000
#
# Coordination Sequence:
#
# PCOD8291263 Si02
#       8
#    16  16  16  16  16   8  16  16
#     4  10  21  39  60  80 106 143 186 232 280 336
#     4  10  21  36  54  78 109 147 190 234 280 328
#     4  11  22  36  55  78 107 145 189 232 281 334
#     4  10  20  37  60  84 110 141 181 228 281 336
#     4  11  22  34  51  79 116 152 188 231 282 337
#     4  11  25  41  59  85 113 143 182 231 288 341
#     4  10  21  35  54  84 114 142 182 226 274 333
#     4   9  18  35  58  82 112 149 187 227 267 318
#
# _framework density 18.268847000000001
#
# number of rings (size 3 to 8) (size 9 to 14) (size 15 to 20)
#    0.000    1.800    2.000    2.200    0.000    5.867 
#    0.000    2.667    0.000    0.400    0.000    2.800 
#    0.000    0.000    0.000    0.000    0.000    0.000 
#
# Total GULP energy -744128.188474 kJ/mol
# GULP energy per Si atom -12402.136475 kJ/mol
# Density = 1.822727 g / cm^3
# Si number density = 18.268847 Si / 1000 Ang^3
#
#
#
# Elastic Constant Matrix: (Units=GPa)
#
#
# Indices 1 2 3 4 5 6 
#
# 1 98.5414 62.9006 50.6155 0.0000 0.0000 0.0000
# 2 62.9006 119.3426 47.3908 0.0000 0.0000 0.0000
# 3 50.6155 47.3908 80.5289 0.0000 0.0000 0.0000
# 4 0.0000 0.0000 0.0000 28.8807 0.0000 0.0000
# 5 0.0000 0.0000 0.0000 0.0000 32.7084 0.0000
# 6 0.0000 0.0000 0.0000 0.0000 0.0000 29.6737
#
#
#
# Elastic Compliance Matrix: (Units=1/GPa)
#
#
# Indices 1 2 3 4 5 6 
#
# 1 0.018269 -0.006615 -0.007590 0.000000 0.000000 0.000000
# 2 -0.006615 0.013330 -0.003687 0.000000 0.000000 0.000000
# 3 -0.007590 -0.003687 0.019358 0.000000 0.000000 0.000000
# 4 0.000000 0.000000 0.000000 0.034625 0.000000 0.000000
# 5 0.000000 0.000000 0.000000 0.000000 0.030573 0.000000
# 6 0.000000 0.000000 0.000000 0.000000 0.000000 0.033700
#
#
# Mechanical properties :
#
#
# Convention : Reuss Voigt Hill
#
# Bulk Modulus (GPa) = 65.90374 68.91406 67.40890
# Shear Modulus (GPa) = 26.21976 27.41962 26.81969
#
# Velocity S-wave (km/s) = 3.79254 3.87834 3.83568
# Velocity P-wave (km/s) = 7.43844 7.60654 7.52296
#
# Compressibility (1/GPa) = 0.01517365
#
# Stress axis : x y z
#
# Youngs Moduli (GPa) = 54.73769 75.02064 51.65806
#
# Poissons Ratio (x) = 0.49625 0.39208
# Poissons Ratio (y) = 0.36208 0.19045
# Poissons Ratio (z) = 0.41545 0.27658
#
# Static dielectric constant tensor:
#      x y z
#    x 3.267460 0.000000 0.000000 
#    y 0.000000 3.496810 0.000000 
#    z 0.000000 0.000000 3.469780 
# 
# 
# High freq. dielectric constant tensor:
#      x y z
#    x 1.699380 0.000000 0.000000 
#    y 0.000000 1.709050 0.000000 
#    z 0.000000 0.000000 1.713210 
# 
# From -- ./inp_files/15673.got.cif
#   From: 2010.06.25/outbox.cif.g09.slc.cpg/sg71_8_cif.got.tgz:15673.got - 2010.06.28 04:59:45.
