data_PCOD8291904
_publ_section_title
;
Structure prediction by ZEFSAII (Michael W. Deem and Ramdas Pophale) SiO2 
 PCOD8291904
Probable space group: I M M M
;
_chemical_formula_sum "Si O2"
_cell_formula_units_Z 88
_cell_length_a 20.634388
_cell_length_b 8.625609
_cell_length_c 25.223910
_cell_angle_alpha 90.000000
_cell_angle_beta 90.000000
_cell_angle_gamma 90.000000
_cell_volume 4489.456505
_symmetry_space_group_name_H-M "I M M M"
_symmetry_group_IT_number 71
_symmetry_cell_setting 'orthorhombic'
loop_
_space_group_symop_operation_xyz
x,y,z
-x,-y,z
x,-y,-z
-x,y,-z
-x,-y,-z
x,y,-z
-x,y,z
x,-y,z
1/2+x,1/2+y,1/2+z
1/2-x,1/2-y,1/2+z
1/2+x,1/2-y,1/2-z
1/2-x,1/2+y,1/2-z
1/2-x,1/2-y,1/2-z
1/2+x,1/2+y,1/2-z
1/2-x,1/2+y,1/2+z
1/2+x,1/2-y,1/2+z
loop_
_atom_site_type_symbol
_atom_site_label
_atom_site_fract_x
_atom_site_fract_y
_atom_site_fract_z
Si Si1 0.670606 0.819283 0.190397
Si Si2 0.778928 0.184017 0.000000
Si Si3 0.368944 0.682324 0.594700
Si Si4 0.000000 0.328457 0.061301
Si Si5 0.193694 0.680110 0.809334
Si Si6 0.574356 0.681076 0.106108
Si Si7 0.632898 0.183181 0.000000
O O1 0.743061 0.775889 0.172572
O O2 0.665283 0.770696 0.252100
O O3 0.617249 0.729344 0.156445
O O4 0.658975 0.000000 0.180761
O O5 0.816210 0.243362 0.947794
O O6 0.706058 0.251455 0.000000
O O7 0.779313 0.000000 0.000000
O O8 0.362209 0.500000 0.604932
O O9 0.439705 0.722277 0.575343
O O10 0.361030 0.777841 0.648754
O O11 0.000000 0.500000 0.089159
O O12 0.000000 0.360505 0.000000
O O13 0.211875 0.500000 0.809049
O O14 0.500000 0.725999 0.118376
O O15 0.582411 0.500000 0.096495
O O16 0.595898 0.764382 0.052437
O O17 0.636054 0.000000 0.000000
#
# Coordination Sequence:
#
# PCOD8291904 Si02
#       7
#    16   8  16   8  16  16   8
#     4  10  21  39  63  89 118 155 197 243 295 352
#     4   9  20  35  55  85 117 146 187 240 287 340
#     4  11  21  37  60  85 116 156 200 242 291 354
#     4  11  23  39  57  81 117 157 199 244 297 354
#     4  10  21  38  61  90 121 153 193 246 299 350
#     4  11  24  41  60  85 120 159 199 244 294 351
#     4  11  22  38  62  91 120 154 195 238 293 355
#
# _framework density 19.601482000000001
#
# number of rings (size 3 to 8) (size 9 to 14) (size 15 to 20)
#    0.000    1.545    0.909    4.091    0.000    6.545 
#    1.636    2.727    0.000    0.000    0.000    0.000 
#    0.000    0.000    0.000    0.000    0.000    0.000 
#
# Total GULP energy -545702.885942 kJ/mol
# GULP energy per Si atom -12402.338317 kJ/mol
# Density = 1.955687 g / cm^3
# Si number density = 19.601482 Si / 1000 Ang^3
#
#
#
# Elastic Constant Matrix: (Units=GPa)
#
#
# Indices 1 2 3 4 5 6 
#
# 1 126.4858 31.0853 64.1979 0.0000 0.0000 0.0000
# 2 31.0853 55.3782 33.4754 0.0000 0.0000 0.0000
# 3 64.1979 33.4754 120.2779 0.0000 0.0000 0.0000
# 4 0.0000 0.0000 0.0000 31.8745 0.0000 0.0000
# 5 0.0000 0.0000 0.0000 0.0000 15.2058 0.0000
# 6 0.0000 0.0000 0.0000 0.0000 0.0000 34.3012
#
#
#
# Elastic Compliance Matrix: (Units=1/GPa)
#
#
# Indices 1 2 3 4 5 6 
#
# 1 0.011309 -0.003245 -0.005133 0.000000 0.000000 0.000000
# 2 -0.003245 0.022641 -0.004569 0.000000 0.000000 0.000000
# 3 -0.005133 -0.004569 0.012325 0.000000 0.000000 0.000000
# 4 0.000000 0.000000 0.000000 0.031373 0.000000 0.000000
# 5 0.000000 0.000000 0.000000 0.000000 0.065765 0.000000
# 6 0.000000 0.000000 0.000000 0.000000 0.000000 0.029153
#
#
# Mechanical properties :
#
#
# Convention : Reuss Voigt Hill
#
# Bulk Modulus (GPa) = 49.06574 62.18434 55.62504
# Shear Modulus (GPa) = 24.35994 27.83518 26.09756
#
# Velocity S-wave (km/s) = 3.52911 3.77245 3.65280
# Velocity P-wave (km/s) = 6.45694 7.12519 6.79928
#
# Compressibility (1/GPa) = 0.02038082
#
# Stress axis : x y z
#
# Youngs Moduli (GPa) = 88.42726 44.16687 81.13307
#
# Poissons Ratio (x) = 0.14333 0.41644
# Poissons Ratio (y) = 0.28696 0.37073
# Poissons Ratio (z) = 0.45388 0.20182
#
# Static dielectric constant tensor:
#      x y z
#    x 3.623310 0.000000 0.000000 
#    y 0.000000 3.559090 0.000000 
#    z 0.000000 0.000000 3.700350 
# 
# 
# High freq. dielectric constant tensor:
#      x y z
#    x 1.764560 0.000000 0.000000 
#    y 0.000000 1.768460 0.000000 
#    z 0.000000 0.000000 1.771890 
# 
# From -- ./inp_files/61159.got.cif
#   From: 2010.06.25/outbox.cif.g09.slc.cpg/sg71_31_cif.got.tgz:61159.got - 2010.06.28 04:59:45.
