data_PCOD8291630
_publ_section_title
;
Structure prediction by ZEFSAII (Michael W. Deem and Ramdas Pophale) SiO2 
 PCOD8291630
Probable space group: I M M M
;
_chemical_formula_sum "Si O2"
_cell_formula_units_Z 72
_cell_length_a 14.062603
_cell_length_b 13.162961
_cell_length_c 19.240585
_cell_angle_alpha 90.000000
_cell_angle_beta 90.000000
_cell_angle_gamma 90.000000
_cell_volume 3561.538008
_symmetry_space_group_name_H-M "I M M M"
_symmetry_group_IT_number 71
_symmetry_cell_setting 'orthorhombic'
loop_
_space_group_symop_operation_xyz
x,y,z
-x,-y,z
x,-y,-z
-x,y,-z
-x,-y,-z
x,y,-z
-x,y,z
x,-y,z
1/2+x,1/2+y,1/2+z
1/2-x,1/2-y,1/2+z
1/2+x,1/2-y,1/2-z
1/2-x,1/2+y,1/2-z
1/2-x,1/2-y,1/2-z
1/2+x,1/2+y,1/2-z
1/2-x,1/2+y,1/2+z
1/2+x,1/2-y,1/2+z
loop_
_atom_site_type_symbol
_atom_site_label
_atom_site_fract_x
_atom_site_fract_y
_atom_site_fract_z
Si Si1 0.212976 0.612380 0.794293
Si Si2 0.892536 0.188077 0.783525
Si Si3 0.500000 0.614761 0.082563
Si Si4 0.196809 0.196354 0.578633
Si Si5 0.316599 0.616475 0.421738
O O1 0.171058 0.500000 0.782504
O O2 0.135889 0.694520 0.768595
O O3 0.314166 0.619684 0.754730
O O4 0.229911 0.630562 0.876194
O O5 0.892023 0.157994 0.865463
O O6 0.000000 0.168920 0.755712
O O7 0.500000 0.500000 0.112765
O O8 0.591476 0.677125 0.108998
O O9 0.500000 0.610899 0.000000
O O10 0.206255 0.156808 0.500000
O O11 0.220299 0.316314 0.585259
O O12 0.359314 0.628577 0.500000
O O13 0.288776 0.500000 0.406861
#
# Coordination Sequence:
#
# PCOD8291630 Si02
#       5
#    16  16   8  16  16
#     4  10  21  36  56  80 107 141 176 213 264 319
#     4  10  22  38  55  79 109 137 175 224 264 310
#     4   9  16  26  43  69 101 135 169 207 252 301
#     4   9  18  32  50  76 108 137 172 217 260 310
#     4   9  18  34  55  76 102 137 174 217 268 314
#
# _framework density 20.215986000000001
#
# number of rings (size 3 to 8) (size 9 to 14) (size 15 to 20)
#    0.000    2.556    0.000    1.333    1.556    4.000 
#    0.000    1.667    0.000    3.333    0.000    6.222 
#    0.000    0.000    0.000    0.000    0.000    0.000 
#
# Total GULP energy -446165.188508 kJ/mol
# GULP energy per Si atom -12393.477459 kJ/mol
# Density = 2.016997 g / cm^3
# Si number density = 20.215986 Si / 1000 Ang^3
#
#
#
# Elastic Constant Matrix: (Units=GPa)
#
#
# Indices 1 2 3 4 5 6 
#
# 1 70.0126 16.6494 1.0190 0.0000 0.0000 0.0000
# 2 16.6494 130.4606 6.8246 0.0000 0.0000 0.0000
# 3 1.0190 6.8246 54.1661 0.0000 0.0000 0.0000
# 4 0.0000 0.0000 0.0000 22.4990 0.0000 0.0000
# 5 0.0000 0.0000 0.0000 0.0000 22.2081 0.0000
# 6 0.0000 0.0000 0.0000 0.0000 0.0000 15.4461
#
#
#
# Elastic Compliance Matrix: (Units=1/GPa)
#
#
# Indices 1 2 3 4 5 6 
#
# 1 0.014730 -0.001878 -0.000041 0.000000 0.000000 0.000000
# 2 -0.001878 0.007955 -0.000967 0.000000 0.000000 0.000000
# 3 -0.000041 -0.000967 0.018584 0.000000 0.000000 0.000000
# 4 0.000000 0.000000 0.000000 0.044446 0.000000 0.000000
# 5 0.000000 0.000000 0.000000 0.000000 0.045029 0.000000
# 6 0.000000 0.000000 0.000000 0.000000 0.000000 0.064741
#
#
# Mechanical properties :
#
#
# Convention : Reuss Voigt Hill
#
# Bulk Modulus (GPa) = 28.16949 33.73614 30.95282
# Shear Modulus (GPa) = 23.46426 27.37372 25.41899
#
# Velocity S-wave (km/s) = 3.41057 3.68375 3.54979
# Velocity P-wave (km/s) = 5.42898 5.90063 5.66971
#
# Compressibility (1/GPa) = 0.03549940
#
# Stress axis : x y z
#
# Youngs Moduli (GPa) = 67.88742 125.70115 53.80873
#
# Poissons Ratio (x) = 0.23604 0.00218
# Poissons Ratio (y) = 0.12748 0.05203
# Poissons Ratio (z) = 0.00275 0.12155
#
# Static dielectric constant tensor:
#      x y z
#    x 3.394920 0.000000 0.000000 
#    y 0.000000 3.686960 0.000000 
#    z 0.000000 0.000000 3.919130 
# 
# 
# High freq. dielectric constant tensor:
#      x y z
#    x 1.749950 0.000000 0.000000 
#    y 0.000000 1.786120 0.000000 
#    z 0.000000 0.000000 1.806670 
# 
# From -- ./inp_files/58601.got.cif
#   From: 2010.06.25/outbox.cif.g09.slc.cpg/sg71_30_cif.got.tgz:58601.got - 2010.06.28 04:59:45.
