data_PCOD8291280
_publ_section_title
;
Structure prediction by ZEFSAII (Michael W. Deem and Ramdas Pophale) SiO2 
 PCOD8291280
Probable space group: I M M M
;
_chemical_formula_sum "Si O2"
_cell_formula_units_Z 80
_cell_length_a 18.207239
_cell_length_b 9.594431
_cell_length_c 23.237119
_cell_angle_alpha 90.000000
_cell_angle_beta 90.000000
_cell_angle_gamma 90.000000
_cell_volume 4059.248128
_symmetry_space_group_name_H-M "I M M M"
_symmetry_group_IT_number 71
_symmetry_cell_setting 'orthorhombic'
loop_
_space_group_symop_operation_xyz
x,y,z
-x,-y,z
x,-y,-z
-x,y,-z
-x,-y,-z
x,y,-z
-x,y,z
x,-y,z
1/2+x,1/2+y,1/2+z
1/2-x,1/2-y,1/2+z
1/2+x,1/2-y,1/2-z
1/2-x,1/2+y,1/2-z
1/2-x,1/2-y,1/2-z
1/2+x,1/2+y,1/2-z
1/2-x,1/2+y,1/2+z
1/2+x,1/2-y,1/2+z
loop_
_atom_site_type_symbol
_atom_site_label
_atom_site_fract_x
_atom_site_fract_y
_atom_site_fract_z
Si Si1 0.610530 0.834802 0.500000
Si Si2 0.919932 0.844220 0.894865
Si Si3 0.326669 0.155952 0.681381
Si Si4 0.279264 0.335746 0.000000
Si Si5 0.328332 0.340074 0.875094
Si Si6 0.583381 0.842795 0.204898
O O1 0.572468 0.764819 0.446058
O O2 0.695109 0.791169 0.500000
O O3 0.597121 0.000000 0.500000
O O4 0.862705 0.784916 0.850264
O O5 0.000000 0.852433 0.865431
O O6 0.895267 0.000000 0.914579
O O7 0.240312 0.173446 0.669099
O O8 0.353454 0.173560 0.746712
O O9 0.350322 0.000000 0.659220
O O10 0.313648 0.279527 0.060140
O O11 0.285091 0.500000 0.000000
O O12 0.352419 0.500000 0.880033
O O13 0.396061 0.255537 0.848531
O O14 0.500000 0.806354 0.226580
O O15 0.584718 0.000000 0.181791
#
# Coordination Sequence:
#
# PCOD8291280 Si02
#       6
#     8  16  16   8  16  16
#     4  11  20  36  57  75 107 153 199 241 284 342
#     4  11  23  35  49  78 119 155 192 240 287 336
#     4  10  20  37  61  85 112 152 195 235 282 344
#     4   9  18  36  59  86 114 140 185 245 286 331
#     4  10  20  37  62  88 114 146 190 241 291 344
#     4  10  22  39  58  85 120 153 191 239 288 345
#
# _framework density 19.708082999999998
#
# number of rings (size 3 to 8) (size 9 to 14) (size 15 to 20)
#    0.000    1.800    2.000    2.400    0.000    5.600 
#    0.000    1.000    0.000    3.000    0.000    0.000 
#    0.000    0.000    0.000    0.000    0.000    0.000 
#
# Total GULP energy -495592.603732 kJ/mol
# GULP energy per Si atom -12389.815093 kJ/mol
# Density = 1.966323 g / cm^3
# Si number density = 19.708083 Si / 1000 Ang^3
#
#
#
# Elastic Constant Matrix: (Units=GPa)
#
#
# Indices 1 2 3 4 5 6 
#
# 1 63.5471 32.7579 41.3821 0.0000 0.0000 0.0000
# 2 32.7579 110.6393 37.7546 0.0000 0.0000 0.0000
# 3 41.3821 37.7546 89.9703 0.0000 0.0000 0.0000
# 4 0.0000 0.0000 0.0000 37.6009 0.0000 0.0000
# 5 0.0000 0.0000 0.0000 0.0000 26.4750 0.0000
# 6 0.0000 0.0000 0.0000 0.0000 0.0000 30.7859
#
#
#
# Elastic Compliance Matrix: (Units=1/GPa)
#
#
# Indices 1 2 3 4 5 6 
#
# 1 0.023802 -0.003865 -0.009326 0.000000 0.000000 0.000000
# 2 -0.003865 0.011176 -0.002912 0.000000 0.000000 0.000000
# 3 -0.009326 -0.002912 0.016626 0.000000 0.000000 0.000000
# 4 0.000000 0.000000 0.000000 0.026595 0.000000 0.000000
# 5 0.000000 0.000000 0.000000 0.000000 0.037771 0.000000
# 6 0.000000 0.000000 0.000000 0.000000 0.000000 0.032482
#
#
# Mechanical properties :
#
#
# Convention : Reuss Voigt Hill
#
# Bulk Modulus (GPa) = 51.55060 54.21622 52.88341
# Shear Modulus (GPa) = 26.72001 29.12318 27.92159
#
# Velocity S-wave (km/s) = 3.68610 3.84829 3.76807
# Velocity P-wave (km/s) = 6.65810 6.87860 6.76925
#
# Compressibility (1/GPa) = 0.01939842
#
# Stress axis : x y z
#
# Youngs Moduli (GPa) = 42.01390 89.47353 60.14538
#
# Poissons Ratio (x) = 0.34580 0.56091
# Poissons Ratio (y) = 0.16238 0.17517
# Poissons Ratio (z) = 0.39182 0.26058
#
# Static dielectric constant tensor:
#      x y z
#    x 3.436490 0.000000 0.000000 
#    y 0.000000 3.608800 0.000000 
#    z 0.000000 0.000000 3.830630 
# 
# 
# High freq. dielectric constant tensor:
#      x y z
#    x 1.755740 0.000000 0.000000 
#    y 0.000000 1.766890 0.000000 
#    z 0.000000 0.000000 1.755960 
# 
# From -- ./inp_files/61043.got.cif
#   From: 2010.06.25/outbox.cif.g09.slc.cpg/sg71_31_cif.got.tgz:61043.got - 2010.06.28 04:59:45.
