data_PCOD8291603
_publ_section_title
;
Structure prediction by ZEFSAII (Michael W. Deem and Ramdas Pophale) SiO2 
 PCOD8291603
Probable space group: I M M M
;
_chemical_formula_sum "Si O2"
_cell_formula_units_Z 88
_cell_length_a 22.454005
_cell_length_b 14.256461
_cell_length_c 14.123782
_cell_angle_alpha 90.000000
_cell_angle_beta 90.000000
_cell_angle_gamma 90.000000
_cell_volume 4521.229483
_symmetry_space_group_name_H-M "I M M M"
_symmetry_group_IT_number 71
_symmetry_cell_setting 'orthorhombic'
loop_
_space_group_symop_operation_xyz
x,y,z
-x,-y,z
x,-y,-z
-x,y,-z
-x,-y,-z
x,y,-z
-x,y,z
x,-y,z
1/2+x,1/2+y,1/2+z
1/2-x,1/2-y,1/2+z
1/2+x,1/2-y,1/2-z
1/2-x,1/2+y,1/2-z
1/2-x,1/2-y,1/2-z
1/2+x,1/2+y,1/2-z
1/2-x,1/2+y,1/2+z
1/2+x,1/2-y,1/2+z
loop_
_atom_site_type_symbol
_atom_site_label
_atom_site_fract_x
_atom_site_fract_y
_atom_site_fract_z
Si Si1 0.141026 0.606146 0.887409
Si Si2 0.746496 0.766653 0.390404
Si Si3 0.841126 0.892202 0.889239
Si Si4 0.067996 0.243621 0.207392
Si Si5 0.566092 0.500000 0.109333
Si Si6 0.621620 0.696765 0.111154
O O1 0.140616 0.500000 0.850982
O O2 0.201012 0.656037 0.848880
O O3 0.084415 0.659730 0.844677
O O4 0.137042 0.612656 0.000000
O O5 0.753703 0.786793 0.500000
O O6 0.721112 0.662551 0.369295
O O7 0.812174 0.781537 0.348185
O O8 0.894314 0.844530 0.831300
O O9 0.833604 0.000000 0.857594
O O10 0.857043 0.883772 0.000000
O O11 0.078357 0.257112 0.320954
O O12 0.000000 0.220726 0.186341
O O13 0.500000 0.500000 0.159788
O O14 0.606204 0.589241 0.134529
O O15 0.551918 0.500000 0.000000
O O16 0.612486 0.722709 0.000000
#
# Coordination Sequence:
#
# PCOD8291603 Si02
#       6
#    16  16  16  16   8  16
#     4   9  19  36  59  85 112 140 174 226 284 333
#     4   8  16  33  56  82 110 139 180 225 274 334
#     4   9  19  36  56  80 112 145 175 220 281 340
#     4  11  23  36  53  79 110 145 189 230 267 325
#     4   9  18  32  50  74 105 145 188 222 261 312
#     4  10  21  36  55  79 110 147 184 228 274 319
#
# _framework density 19.463732
#
# number of rings (size 3 to 8) (size 9 to 14) (size 15 to 20)
#    0.000    2.636    0.000    2.182    2.545    6.182 
#    0.000    4.545    0.000    1.636    0.000    1.273 
#    0.000    0.000    0.000    0.000    0.000    0.000 
#
# Total GULP energy -545334.567230 kJ/mol
# GULP energy per Si atom -12393.967437 kJ/mol
# Density = 1.941943 g / cm^3
# Si number density = 19.463732 Si / 1000 Ang^3
#
#
#
# Elastic Constant Matrix: (Units=GPa)
#
#
# Indices 1 2 3 4 5 6 
#
# 1 128.6572 53.6816 17.2204 0.0000 0.0000 0.0000
# 2 53.6816 146.0552 28.4714 0.0000 0.0000 0.0000
# 3 17.2204 28.4714 54.6696 0.0000 0.0000 0.0000
# 4 0.0000 0.0000 0.0000 10.4624 0.0000 0.0000
# 5 0.0000 0.0000 0.0000 0.0000 20.8283 0.0000
# 6 0.0000 0.0000 0.0000 0.0000 0.0000 39.4357
#
#
#
# Elastic Compliance Matrix: (Units=1/GPa)
#
#
# Indices 1 2 3 4 5 6 
#
# 1 0.009259 -0.003155 -0.001274 0.000000 0.000000 0.000000
# 2 -0.003155 0.008695 -0.003535 0.000000 0.000000 0.000000
# 3 -0.001274 -0.003535 0.020534 0.000000 0.000000 0.000000
# 4 0.000000 0.000000 0.000000 0.095581 0.000000 0.000000
# 5 0.000000 0.000000 0.000000 0.000000 0.048012 0.000000
# 6 0.000000 0.000000 0.000000 0.000000 0.000000 0.025358
#
#
# Mechanical properties :
#
#
# Convention : Reuss Voigt Hill
#
# Bulk Modulus (GPa) = 44.32215 58.68098 51.50156
# Shear Modulus (GPa) = 21.65575 29.47918 25.56747
#
# Velocity S-wave (km/s) = 3.33922 3.89597 3.62829
# Velocity P-wave (km/s) = 6.13907 7.10299 6.63855
#
# Compressibility (1/GPa) = 0.02256208
#
# Stress axis : x y z
#
# Youngs Moduli (GPa) = 107.99771 115.00396 48.70047
#
# Poissons Ratio (x) = 0.36284 0.06202
# Poissons Ratio (y) = 0.34073 0.17214
# Poissons Ratio (z) = 0.13754 0.40650
#
# Static dielectric constant tensor:
#      x y z
#    x 3.642350 0.000000 0.000000 
#    y 0.000000 3.642800 0.000000 
#    z 0.000000 0.000000 3.553900 
# 
# 
# High freq. dielectric constant tensor:
#      x y z
#    x 1.753290 0.000000 0.000000 
#    y 0.000000 1.742180 0.000000 
#    z 0.000000 0.000000 1.758390 
# 
# From -- ./inp_files/34417.got.cif
#   From: 2010.06.25/outbox.cif.g09.slc.cpg/sg71_18_cif.got.tgz:34417.got - 2010.06.28 04:59:45.
