data_PCOD8291996
_publ_section_title
;
Structure prediction by ZEFSAII (Michael W. Deem and Ramdas Pophale) SiO2 
 PCOD8291996
Probable space group: I M M M
;
_chemical_formula_sum "Si O2"
_cell_formula_units_Z 72
_cell_length_a 9.783276
_cell_length_b 14.715501
_cell_length_c 26.916951
_cell_angle_alpha 90.000000
_cell_angle_beta 90.000000
_cell_angle_gamma 90.000000
_cell_volume 3875.120593
_symmetry_space_group_name_H-M "I M M M"
_symmetry_group_IT_number 71
_symmetry_cell_setting 'orthorhombic'
loop_
_space_group_symop_operation_xyz
x,y,z
-x,-y,z
x,-y,-z
-x,y,-z
-x,-y,-z
x,y,-z
-x,y,z
x,-y,z
1/2+x,1/2+y,1/2+z
1/2-x,1/2-y,1/2+z
1/2+x,1/2-y,1/2-z
1/2-x,1/2+y,1/2-z
1/2-x,1/2-y,1/2-z
1/2+x,1/2+y,1/2-z
1/2-x,1/2+y,1/2+z
1/2+x,1/2-y,1/2+z
loop_
_atom_site_type_symbol
_atom_site_label
_atom_site_fract_x
_atom_site_fract_y
_atom_site_fract_z
Si Si1 0.163788 0.636095 0.860385
Si Si2 0.841082 0.000000 0.182161
Si Si3 0.240706 0.835185 0.116935
Si Si4 0.500000 0.600324 0.442255
Si Si5 0.000000 0.391910 0.441563
Si Si6 0.159079 0.500000 0.945111
Si Si7 0.662827 0.500000 0.798989
O O1 0.218930 0.737981 0.858127
O O2 0.198441 0.589902 0.913625
O O3 0.255989 0.587565 0.818892
O O4 0.000000 0.629081 0.848861
O O5 0.770251 0.910546 0.159747
O O6 0.818433 0.000000 0.240380
O O7 0.000000 0.000000 0.168506
O O8 0.129701 0.844177 0.074226
O O9 0.377520 0.843891 0.086325
O O10 0.500000 0.500000 0.417669
O O11 0.500000 0.590123 0.500000
O O12 0.000000 0.500000 0.433578
O O13 0.000000 0.368700 0.500000
O O14 0.000000 0.500000 0.954462
O O15 0.231224 0.500000 0.000000
O O16 0.500000 0.500000 0.813521
#
# Coordination Sequence:
#
# PCOD8291996 Si02
#       7
#    16   8  16   8   8   8   8
#     4  10  21  40  63  90 122 156 204 254 303 364
#     4  11  21  41  64  91 121 153 210 260 305 366
#     4  12  21  39  61  89 124 162 202 257 300 357
#     4  11  20  34  60  90 122 162 200 235 294 361
#     4  11  24  40  56  86 134 174 204 239 300 371
#     4   8  16  32  55  83 115 148 189 242 289 341
#     4  10  24  42  65  88 119 162 196 255 325 373
#
# _framework density 18.580065999999999
#
# number of rings (size 3 to 8) (size 9 to 14) (size 15 to 20)
#    0.000    1.444    4.444    1.667    1.556    4.444 
#    4.000    0.000    0.000    1.333    0.000    0.000 
#    0.000    0.000    0.000    0.000    0.000    0.000 
#
# Total GULP energy -446203.771857 kJ/mol
# GULP energy per Si atom -12394.549218 kJ/mol
# Density = 1.853778 g / cm^3
# Si number density = 18.580066 Si / 1000 Ang^3
#
#
#
# Elastic Constant Matrix: (Units=GPa)
#
#
# Indices 1 2 3 4 5 6 
#
# 1 147.0638 53.4538 60.3637 0.0000 0.0000 0.0000
# 2 53.4538 160.0306 58.9273 0.0000 0.0000 0.0000
# 3 60.3637 58.9273 134.2396 0.0000 0.0000 0.0000
# 4 0.0000 0.0000 0.0000 13.6509 0.0000 0.0000
# 5 0.0000 0.0000 0.0000 0.0000 34.9627 0.0000
# 6 0.0000 0.0000 0.0000 0.0000 0.0000 28.1920
#
#
#
# Elastic Compliance Matrix: (Units=1/GPa)
#
#
# Indices 1 2 3 4 5 6 
#
# 1 0.008733 -0.001755 -0.003157 0.000000 0.000000 0.000000
# 2 -0.001755 0.007806 -0.002638 0.000000 0.000000 0.000000
# 3 -0.003157 -0.002638 0.010027 0.000000 0.000000 0.000000
# 4 0.000000 0.000000 0.000000 0.073255 0.000000 0.000000
# 5 0.000000 0.000000 0.000000 0.000000 0.028602 0.000000
# 6 0.000000 0.000000 0.000000 0.000000 0.000000 0.035471
#
#
# Mechanical properties :
#
#
# Convention : Reuss Voigt Hill
#
# Bulk Modulus (GPa) = 87.20030 87.42483 87.31257
# Shear Modulus (GPa) = 27.35000 33.26708 30.30854
#
# Velocity S-wave (km/s) = 3.84084 4.23599 4.04324
# Velocity P-wave (km/s) = 8.16722 8.43089 8.30010
#
# Compressibility (1/GPa) = 0.01146785
#
# Stress axis : x y z
#
# Youngs Moduli (GPa) = 114.50403 128.10403 99.73299
#
# Poissons Ratio (x) = 0.22478 0.31484
# Poissons Ratio (y) = 0.20092 0.26306
# Poissons Ratio (z) = 0.36147 0.33789
#
# Static dielectric constant tensor:
#      x y z
#    x 3.390900 0.000000 0.000000 
#    y 0.000000 3.441820 0.000000 
#    z 0.000000 0.000000 3.462720 
# 
# 
# High freq. dielectric constant tensor:
#      x y z
#    x 1.718640 0.000000 0.000000 
#    y 0.000000 1.724360 0.000000 
#    z 0.000000 0.000000 1.725340 
# 
# From -- ./inp_files/14404.got.cif
#   From: 2010.06.25/outbox.cif.g09.slc.cpg/sg71_8_cif.got.tgz:14404.got - 2010.06.28 04:59:45.
