data_PCOD8291267
_publ_section_title
;
Structure prediction by ZEFSAII (Michael W. Deem and Ramdas Pophale) SiO2 
 PCOD8291267
Probable space group: I M M M
;
_chemical_formula_sum "Si O2"
_cell_formula_units_Z 88
_cell_length_a 8.077437
_cell_length_b 23.601469
_cell_length_c 23.858697
_cell_angle_alpha 90.000000
_cell_angle_beta 90.000000
_cell_angle_gamma 90.000000
_cell_volume 4548.407179
_symmetry_space_group_name_H-M "I M M M"
_symmetry_group_IT_number 71
_symmetry_cell_setting 'orthorhombic'
loop_
_space_group_symop_operation_xyz
x,y,z
-x,-y,z
x,-y,-z
-x,y,-z
-x,-y,-z
x,y,-z
-x,y,z
x,-y,z
1/2+x,1/2+y,1/2+z
1/2-x,1/2-y,1/2+z
1/2+x,1/2-y,1/2-z
1/2-x,1/2+y,1/2-z
1/2-x,1/2-y,1/2-z
1/2+x,1/2+y,1/2-z
1/2-x,1/2+y,1/2+z
1/2+x,1/2-y,1/2+z
loop_
_atom_site_type_symbol
_atom_site_label
_atom_site_fract_x
_atom_site_fract_y
_atom_site_fract_z
Si Si1 0.191163 0.564929 0.727071
Si Si2 0.500000 0.933560 0.938209
Si Si3 0.809335 0.724546 0.435815
Si Si4 0.314366 0.381541 0.620981
Si Si5 0.806765 0.064574 0.347536
Si Si6 0.307242 0.845933 0.563697
O O1 0.253844 0.500000 0.719759
O O2 0.295190 0.607042 0.687392
O O3 0.215469 0.584634 0.791012
O O4 0.000000 0.569606 0.710117
O O5 0.328560 0.916630 0.909417
O O6 0.500000 0.000000 0.941074
O O7 0.500000 0.905984 0.000000
O O8 0.746219 0.717616 0.500000
O O9 0.705085 0.684719 0.394161
O O10 0.787432 0.789358 0.416472
O O11 0.000000 0.706419 0.430700
O O12 0.500000 0.400617 0.602789
O O13 0.746773 0.101604 0.399106
O O14 0.000000 0.071832 0.337639
O O15 0.758929 0.000000 0.361858
O O16 0.258446 0.861138 0.500000
O O17 0.500000 0.833903 0.569846
#
# Coordination Sequence:
#
# PCOD8291267 Si02
#       6
#    16   8  16  16  16  16
#     4  10  20  37  60  84 114 153 197 246 298 353
#     4  11  24  40  56  82 120 156 196 250 304 352
#     4  10  20  37  60  84 114 153 197 246 298 353
#     4  12  23  37  60  87 117 156 204 248 300 355
#     4  10  21  37  58  86 118 153 195 241 295 357
#     4  10  21  37  58  86 118 153 195 241 295 357
#
# _framework density 19.347431
#
# number of rings (size 3 to 8) (size 9 to 14) (size 15 to 20)
#    0.000    1.545    1.818    3.273    0.000    6.909 
#    0.000    3.636    0.000    0.000    0.000    0.000 
#    0.000    0.000    0.000    0.000    0.000    0.000 
#
# Total GULP energy -545668.990076 kJ/mol
# GULP energy per Si atom -12401.567956 kJ/mol
# Density = 1.930340 g / cm^3
# Si number density = 19.347431 Si / 1000 Ang^3
#
#
#
# Elastic Constant Matrix: (Units=GPa)
#
#
# Indices 1 2 3 4 5 6 
#
# 1 110.7706 34.1607 40.8006 0.0000 0.0000 0.0000
# 2 34.1607 95.8303 74.6039 0.0000 0.0000 0.0000
# 3 40.8006 74.6039 112.2350 0.0000 0.0000 0.0000
# 4 0.0000 0.0000 0.0000 37.7595 0.0000 0.0000
# 5 0.0000 0.0000 0.0000 0.0000 25.8017 0.0000
# 6 0.0000 0.0000 0.0000 0.0000 0.0000 25.5117
#
#
#
# Elastic Compliance Matrix: (Units=1/GPa)
#
#
# Indices 1 2 3 4 5 6 
#
# 1 0.010541 -0.001605 -0.002765 0.000000 0.000000 0.000000
# 2 -0.001605 0.021871 -0.013954 0.000000 0.000000 0.000000
# 3 -0.002765 -0.013954 0.019191 0.000000 0.000000 0.000000
# 4 0.000000 0.000000 0.000000 0.026483 0.000000 0.000000
# 5 0.000000 0.000000 0.000000 0.000000 0.038757 0.000000
# 6 0.000000 0.000000 0.000000 0.000000 0.000000 0.039198
#
#
# Mechanical properties :
#
#
# Convention : Reuss Voigt Hill
#
# Bulk Modulus (GPa) = 66.87296 68.66291 67.76794
# Shear Modulus (GPa) = 25.29420 29.09928 27.19674
#
# Velocity S-wave (km/s) = 3.61968 3.88240 3.75334
# Velocity P-wave (km/s) = 7.21864 7.46082 7.34073
#
# Compressibility (1/GPa) = 0.01495373
#
# Stress axis : x y z
#
# Youngs Moduli (GPa) = 94.86657 45.72357 52.10874
#
# Poissons Ratio (x) = 0.07338 0.14409
# Poissons Ratio (y) = 0.15225 0.72714
# Poissons Ratio (z) = 0.26233 0.63804
#
# Static dielectric constant tensor:
#      x y z
#    x 3.644460 0.000000 0.000000 
#    y 0.000000 3.738030 0.000000 
#    z 0.000000 0.000000 3.784940 
# 
# 
# High freq. dielectric constant tensor:
#      x y z
#    x 1.765940 0.000000 0.000000 
#    y 0.000000 1.745430 0.000000 
#    z 0.000000 0.000000 1.747080 
# 
# From -- ./inp_files/50485.got.cif
#   From: 2010.06.25/outbox.cif.g09.slc.cpg/sg71_26_cif.got.tgz:50485.got - 2010.06.28 04:59:45.
