data_PCOD8291180
_publ_section_title
;
Structure prediction by ZEFSAII (Michael W. Deem and Ramdas Pophale) SiO2 
 PCOD8291180
Probable space group: I M M M
;
_chemical_formula_sum "Si O2"
_cell_formula_units_Z 104
_cell_length_a 27.858601
_cell_length_b 8.876686
_cell_length_c 21.566628
_cell_angle_alpha 90.000000
_cell_angle_beta 90.000000
_cell_angle_gamma 90.000000
_cell_volume 5333.255725
_symmetry_space_group_name_H-M "I M M M"
_symmetry_group_IT_number 71
_symmetry_cell_setting 'orthorhombic'
loop_
_space_group_symop_operation_xyz
x,y,z
-x,-y,z
x,-y,-z
-x,y,-z
-x,-y,-z
x,y,-z
-x,y,z
x,-y,z
1/2+x,1/2+y,1/2+z
1/2-x,1/2-y,1/2+z
1/2+x,1/2-y,1/2-z
1/2-x,1/2+y,1/2-z
1/2-x,1/2-y,1/2-z
1/2+x,1/2+y,1/2-z
1/2-x,1/2+y,1/2+z
1/2+x,1/2-y,1/2+z
loop_
_atom_site_type_symbol
_atom_site_label
_atom_site_fract_x
_atom_site_fract_y
_atom_site_fract_z
Si Si1 0.193235 0.325363 0.071230
Si Si2 0.101262 0.821582 0.116605
Si Si3 0.443813 0.831992 0.500000
Si Si4 0.876852 0.826541 0.354222
Si Si5 0.795100 0.322663 0.570693
Si Si6 0.054609 0.178653 0.754716
Si Si7 0.052148 0.664830 0.427814
O O1 0.198370 0.500000 0.087520
O O2 0.154305 0.249889 0.116317
O O3 0.243633 0.247587 0.083994
O O4 0.176678 0.300700 0.000000
O O5 0.073296 0.770801 0.178186
O O6 0.106131 0.000000 0.111899
O O7 0.070753 0.760131 0.060048
O O8 0.500000 0.850005 0.500000
O O9 0.419944 0.000000 0.500000
O O10 0.829257 0.737161 0.374286
O O11 0.905600 0.759634 0.294438
O O12 0.913972 0.803027 0.410142
O O13 0.862989 0.000000 0.345471
O O14 0.812250 0.279977 0.500000
O O15 0.791073 0.500000 0.577143
O O16 0.000000 0.241470 0.744326
O O17 0.053164 0.000000 0.748381
O O18 0.045518 0.667966 0.500000
O O19 0.073474 0.500000 0.407933
O O20 0.000000 0.687384 0.396333
#
# Coordination Sequence:
#
# PCOD8291180 Si02
#       7
#    16  16   8  16  16  16  16
#     4  10  20  36  59  87 120 149 179 229 292 345
#     4  11  21  36  61  87 113 149 193 232 279 344
#     4  11  23  37  55  85 123 153 183 233 290 337
#     4  11  21  34  54  79 109 146 189 236 288 337
#     4  10  21  37  58  84 115 149 191 238 284 339
#     4   9  20  38  57  80 113 152 193 237 281 332
#     4   9  18  32  49  71 102 139 180 229 284 340
#
# _framework density 19.500284000000001
#
# number of rings (size 3 to 8) (size 9 to 14) (size 15 to 20)
#    0.000    1.923    0.769    3.923    0.000    5.846 
#    0.000    4.615    0.000    5.538    0.000    0.000 
#    0.000    0.000    0.000    0.000    0.000    0.000 
#
# Total GULP energy -644490.744862 kJ/mol
# GULP energy per Si atom -12394.052786 kJ/mol
# Density = 1.945590 g / cm^3
# Si number density = 19.500284 Si / 1000 Ang^3
#
#
#
# Elastic Constant Matrix: (Units=GPa)
#
#
# Indices 1 2 3 4 5 6 
#
# 1 127.2093 49.7254 67.6644 0.0000 0.0000 0.0000
# 2 49.7254 75.3374 35.7924 0.0000 0.0000 0.0000
# 3 67.6644 35.7924 96.2778 0.0000 0.0000 0.0000
# 4 0.0000 0.0000 0.0000 12.5379 0.0000 0.0000
# 5 0.0000 0.0000 0.0000 0.0000 13.1292 0.0000
# 6 0.0000 0.0000 0.0000 0.0000 0.0000 28.8295
#
#
#
# Elastic Compliance Matrix: (Units=1/GPa)
#
#
# Indices 1 2 3 4 5 6 
#
# 1 0.014302 -0.005665 -0.007945 0.000000 0.000000 0.000000
# 2 -0.005665 0.018365 -0.002846 0.000000 0.000000 0.000000
# 3 -0.007945 -0.002846 0.017029 0.000000 0.000000 0.000000
# 4 0.000000 0.000000 0.000000 0.079758 0.000000 0.000000
# 5 0.000000 0.000000 0.000000 0.000000 0.076166 0.000000
# 6 0.000000 0.000000 0.000000 0.000000 0.000000 0.034687
#
#
# Mechanical properties :
#
#
# Convention : Reuss Voigt Hill
#
# Bulk Modulus (GPa) = 59.58514 67.24321 63.41417
# Shear Modulus (GPa) = 17.93320 20.60880 19.27100
#
# Velocity S-wave (km/s) = 3.03584 3.25444 3.14704
# Velocity P-wave (km/s) = 6.55064 6.97710 6.76723
#
# Compressibility (1/GPa) = 0.01678271
#
# Stress axis : x y z
#
# Youngs Moduli (GPa) = 69.92222 54.45218 58.72466
#
# Poissons Ratio (x) = 0.30846 0.46658
# Poissons Ratio (y) = 0.39610 0.16713
# Poissons Ratio (z) = 0.55555 0.15497
#
# Static dielectric constant tensor:
#      x y z
#    x 3.708600 0.000000 0.000000 
#    y 0.000000 3.563840 0.000000 
#    z 0.000000 0.000000 3.512000 
# 
# 
# High freq. dielectric constant tensor:
#      x y z
#    x 1.772530 0.000000 0.000000 
#    y 0.000000 1.753720 0.000000 
#    z 0.000000 0.000000 1.742180 
# 
# From -- ./inp_files/56652.got.cif
#   From: 2010.06.25/outbox.cif.g09.slc.cpg/sg71_29_cif.got.tgz:56652.got - 2010.06.28 04:59:45.
