data_PCOD8291645
_publ_section_title
;
Structure prediction by ZEFSAII (Michael W. Deem and Ramdas Pophale) SiO2 
 PCOD8291645
Probable space group: I M M M
;
_chemical_formula_sum "Si O2"
_cell_formula_units_Z 96
_cell_length_a 13.699229
_cell_length_b 15.175795
_cell_length_c 21.685028
_cell_angle_alpha 90.000000
_cell_angle_beta 90.000000
_cell_angle_gamma 90.000000
_cell_volume 4508.245565
_symmetry_space_group_name_H-M "I M M M"
_symmetry_group_IT_number 71
_symmetry_cell_setting 'orthorhombic'
loop_
_space_group_symop_operation_xyz
x,y,z
-x,-y,z
x,-y,-z
-x,y,-z
-x,-y,-z
x,y,-z
-x,y,z
x,-y,z
1/2+x,1/2+y,1/2+z
1/2-x,1/2-y,1/2+z
1/2+x,1/2-y,1/2-z
1/2-x,1/2+y,1/2-z
1/2-x,1/2-y,1/2-z
1/2+x,1/2+y,1/2-z
1/2-x,1/2+y,1/2+z
1/2+x,1/2-y,1/2+z
loop_
_atom_site_type_symbol
_atom_site_label
_atom_site_fract_x
_atom_site_fract_y
_atom_site_fract_z
Si Si1 0.890629 0.312468 0.702572
Si Si2 0.747786 0.500000 0.566858
Si Si3 0.608382 0.186800 0.338644
Si Si4 0.392631 0.338532 0.567557
Si Si5 0.701064 0.000000 0.801358
Si Si6 0.812086 0.850089 0.633648
Si Si7 0.885848 0.103846 0.500000
Si Si8 0.889105 0.000000 0.282099
O O1 0.889549 0.269955 0.770679
O O2 0.850781 0.410218 0.718848
O O3 0.828259 0.251303 0.656498
O O4 0.000000 0.319118 0.675603
O O5 0.802297 0.500000 0.500000
O O6 0.683001 0.584813 0.574163
O O7 0.818106 0.500000 0.624855
O O8 0.500000 0.144572 0.351373
O O9 0.632912 0.265945 0.383463
O O10 0.699026 0.120814 0.352824
O O11 0.385490 0.294585 0.500000
O O12 0.500000 0.378226 0.578855
O O13 0.812613 0.000000 0.775163
O O14 0.836674 0.855187 0.561152
O O15 0.879042 0.914929 0.673712
O O16 0.000000 0.127523 0.500000
O O17 0.868047 0.000000 0.500000
O O18 0.000000 0.000000 0.255574
#
# Coordination Sequence:
#
# PCOD8291645 Si02
#       8
#    16   8  16  16   8  16   8   8
#     4  11  24  44  69  95 131 174 221 274 331 398
#     4  10  21  36  56  84 124 168 213 263 324 380
#     4  10  22  39  63  96 131 171 215 264 332 398
#     4   9  18  33  54  84 125 166 209 256 311 386
#     4  12  25  44  65  94 133 171 226 267 330 394
#     4  12  24  45  68 100 136 171 221 277 329 394
#     4  11  24  44  71  98 132 178 222 272 336 393
#     4  12  26  42  69 103 134 166 215 281 335 390
#
# _framework density 21.294315000000001
#
# number of rings (size 3 to 8) (size 9 to 14) (size 15 to 20)
#    0.000    1.250    2.500    3.500    3.500    1.667 
#    1.500    0.417    0.000    1.000    0.000    0.000 
#    0.000    0.000    0.000    0.000    0.000    0.000 
#
# Total GULP energy -594790.333672 kJ/mol
# GULP energy per Si atom -12391.465285 kJ/mol
# Density = 2.124585 g / cm^3
# Si number density = 21.294315 Si / 1000 Ang^3
#
#
#
# Elastic Constant Matrix: (Units=GPa)
#
#
# Indices 1 2 3 4 5 6 
#
# 1 143.3771 24.5280 38.3715 0.0000 0.0000 0.0000
# 2 24.5280 84.6435 25.6393 0.0000 0.0000 0.0000
# 3 38.3715 25.6393 130.6266 0.0000 0.0000 0.0000
# 4 0.0000 0.0000 0.0000 29.5043 0.0000 0.0000
# 5 0.0000 0.0000 0.0000 0.0000 29.5311 0.0000
# 6 0.0000 0.0000 0.0000 0.0000 0.0000 24.4731
#
#
#
# Elastic Compliance Matrix: (Units=1/GPa)
#
#
# Indices 1 2 3 4 5 6 
#
# 1 0.007784 -0.001662 -0.001960 0.000000 0.000000 0.000000
# 2 -0.001662 0.012916 -0.002047 0.000000 0.000000 0.000000
# 3 -0.001960 -0.002047 0.008633 0.000000 0.000000 0.000000
# 4 0.000000 0.000000 0.000000 0.033893 0.000000 0.000000
# 5 0.000000 0.000000 0.000000 0.000000 0.033863 0.000000
# 6 0.000000 0.000000 0.000000 0.000000 0.000000 0.040861
#
#
# Mechanical properties :
#
#
# Convention : Reuss Voigt Hill
#
# Bulk Modulus (GPa) = 55.57266 59.52498 57.54882
# Shear Modulus (GPa) = 32.19875 34.70893 33.45384
#
# Velocity S-wave (km/s) = 3.89277 4.04166 3.96791
# Velocity P-wave (km/s) = 6.80874 7.05650 6.93372
#
# Compressibility (1/GPa) = 0.01799446
#
# Stress axis : x y z
#
# Youngs Moduli (GPa) = 128.47685 77.42434 115.83444
#
# Poissons Ratio (x) = 0.12866 0.22706
# Poissons Ratio (y) = 0.21349 0.23711
# Poissons Ratio (z) = 0.25185 0.15849
#
# Static dielectric constant tensor:
#      x y z
#    x 4.005520 0.000000 0.000000 
#    y 0.000000 3.865490 0.000000 
#    z 0.000000 0.000000 4.163150 
# 
# 
# High freq. dielectric constant tensor:
#      x y z
#    x 1.839300 0.000000 0.000000 
#    y 0.000000 1.815680 0.000000 
#    z 0.000000 0.000000 1.848120 
# 
# From -- ./inp_files/53057.got.cif
#   From: 2010.06.25/outbox.cif.g09.slc.cpg/sg71_27_cif.got.tgz:53057.got - 2010.06.28 04:59:45.
