data_PCOD8291619
_publ_section_title
;
Structure prediction by ZEFSAII (Michael W. Deem and Ramdas Pophale) SiO2 
 PCOD8291619
Probable space group: I M M M
;
_chemical_formula_sum "Si O2"
_cell_formula_units_Z 88
_cell_length_a 13.940519
_cell_length_b 18.153158
_cell_length_c 17.970845
_cell_angle_alpha 90.000000
_cell_angle_beta 90.000000
_cell_angle_gamma 90.000000
_cell_volume 4547.781898
_symmetry_space_group_name_H-M "I M M M"
_symmetry_group_IT_number 71
_symmetry_cell_setting 'orthorhombic'
loop_
_space_group_symop_operation_xyz
x,y,z
-x,-y,z
x,-y,-z
-x,y,-z
-x,-y,-z
x,y,-z
-x,y,z
x,-y,z
1/2+x,1/2+y,1/2+z
1/2-x,1/2-y,1/2+z
1/2+x,1/2-y,1/2-z
1/2-x,1/2+y,1/2-z
1/2-x,1/2-y,1/2-z
1/2+x,1/2+y,1/2-z
1/2-x,1/2+y,1/2+z
1/2+x,1/2-y,1/2+z
loop_
_atom_site_type_symbol
_atom_site_label
_atom_site_fract_x
_atom_site_fract_y
_atom_site_fract_z
Si Si1 0.107781 0.500000 0.411836
Si Si2 0.301221 0.581168 0.087352
Si Si3 0.394687 0.148778 0.414275
Si Si4 0.389088 0.719560 0.841093
Si Si5 0.608957 0.299144 0.672260
Si Si6 0.278664 0.855215 0.911401
O O1 0.102461 0.500000 0.500000
O O2 0.162303 0.573314 0.384428
O O3 0.000000 0.500000 0.378391
O O4 0.330150 0.500000 0.115936
O O5 0.188998 0.592537 0.108388
O O6 0.371032 0.639524 0.124737
O O7 0.315940 0.587725 0.000000
O O8 0.385533 0.171692 0.500000
O O9 0.500000 0.113492 0.398134
O O10 0.380253 0.222146 0.368368
O O11 0.500000 0.740364 0.847694
O O12 0.355410 0.715326 0.755919
O O13 0.331546 0.780913 0.886395
O O14 0.500000 0.329231 0.670393
O O15 0.675885 0.358548 0.630163
O O16 0.264208 0.854517 0.000000
#
# Coordination Sequence:
#
# PCOD8291619 Si02
#       6
#     8  16  16  16  16  16
#     4   9  20  38  59  87 117 143 179 232 286 334
#     4  10  21  36  55  82 113 146 189 237 278 324
#     4   9  17  32  56  84 113 146 183 225 278 337
#     4  11  23  38  57  82 112 151 193 231 281 341
#     4  10  21  37  58  85 115 147 188 237 283 336
#     4  11  21  37  62  87 113 148 188 233 286 341
#
# _framework density 19.350092
#
# number of rings (size 3 to 8) (size 9 to 14) (size 15 to 20)
#    0.000    1.909    1.818    2.182    0.000    4.000 
#    1.636    3.182    0.000    1.636    0.000    0.000 
#    0.000    0.000    0.000    0.000    0.000    0.000 
#
# Total GULP energy -545570.587434 kJ/mol
# GULP energy per Si atom -12399.331533 kJ/mol
# Density = 1.930605 g / cm^3
# Si number density = 19.350092 Si / 1000 Ang^3
#
#
#
# Elastic Constant Matrix: (Units=GPa)
#
#
# Indices 1 2 3 4 5 6 
#
# 1 85.7390 31.9190 30.8040 0.0000 0.0000 0.0000
# 2 31.9190 98.7456 19.7068 0.0000 0.0000 0.0000
# 3 30.8040 19.7068 46.8491 0.0000 0.0000 0.0000
# 4 0.0000 0.0000 0.0000 -8.1858 0.0000 0.0000
# 5 0.0000 0.0000 0.0000 0.0000 31.3007 0.0000
# 6 0.0000 0.0000 0.0000 0.0000 0.0000 26.4258
#
#
#
# Elastic Compliance Matrix: (Units=1/GPa)
#
#
# Indices 1 2 3 4 5 6 
#
# 1 0.016257 -0.003408 -0.009256 0.000000 0.000000 0.000000
# 2 -0.003408 0.011769 -0.002710 0.000000 0.000000 0.000000
# 3 -0.009256 -0.002710 0.028571 0.000000 0.000000 0.000000
# 4 0.000000 0.000000 0.000000 -0.122163 0.000000 0.000000
# 5 0.000000 0.000000 0.000000 0.000000 0.031948 0.000000
# 6 0.000000 0.000000 0.000000 0.000000 0.000000 0.037842
#
#
# Mechanical properties :
#
#
# Convention : Reuss Voigt Hill
#
# Bulk Modulus (GPa) = 38.68453 44.02148 41.35300
# Shear Modulus (GPa) = 114.70652 19.83507 67.27079
#
# Velocity S-wave (km/s) = 7.70768 3.20513 5.90259
# Velocity P-wave (km/s) = 9.96225 6.04124 8.23841
#
# Compressibility (1/GPa) = 0.02585013
#
# Stress axis : x y z
#
# Youngs Moduli (GPa) = 61.51009 84.96563 35.00039
#
# Poissons Ratio (x) = 0.28955 0.32397
# Poissons Ratio (y) = 0.20962 0.09485
# Poissons Ratio (z) = 0.56934 0.23026
#
# Static dielectric constant tensor:
#      x y z
#    x 3.932780 0.000000 0.000000 
#    y 0.000000 3.198310 0.000000 
#    z 0.000000 0.000000 3.403870 
# 
# 
# High freq. dielectric constant tensor:
#      x y z
#    x 1.768760 0.000000 0.000000 
#    y 0.000000 1.736550 0.000000 
#    z 0.000000 0.000000 1.747820 
# 
# From -- ./inp_files/44706.got.cif
#   From: 2010.06.25/outbox.cif.g09.slc.cpg/sg71_23_cif.got.tgz:44706.got - 2010.06.28 04:59:45.
