data_PCOD8291572
_publ_section_title
;
Structure prediction by ZEFSAII (Michael W. Deem and Ramdas Pophale) SiO2 
 PCOD8291572
Probable space group: I M M M
;
_chemical_formula_sum "Si O2"
_cell_formula_units_Z 80
_cell_length_a 9.137851
_cell_length_b 26.580022
_cell_length_c 18.297611
_cell_angle_alpha 90.000000
_cell_angle_beta 90.000000
_cell_angle_gamma 90.000000
_cell_volume 4444.202085
_symmetry_space_group_name_H-M "I M M M"
_symmetry_group_IT_number 71
_symmetry_cell_setting 'orthorhombic'
loop_
_space_group_symop_operation_xyz
x,y,z
-x,-y,z
x,-y,-z
-x,y,-z
-x,-y,-z
x,y,-z
-x,y,z
x,-y,z
1/2+x,1/2+y,1/2+z
1/2-x,1/2-y,1/2+z
1/2+x,1/2-y,1/2-z
1/2-x,1/2+y,1/2-z
1/2-x,1/2-y,1/2-z
1/2+x,1/2+y,1/2-z
1/2-x,1/2+y,1/2+z
1/2+x,1/2-y,1/2+z
loop_
_atom_site_type_symbol
_atom_site_label
_atom_site_fract_x
_atom_site_fract_y
_atom_site_fract_z
Si Si1 0.664073 0.898489 0.290120
Si Si2 0.330696 0.348855 0.416489
Si Si3 0.327439 0.556447 0.918841
Si Si4 0.671185 0.942790 0.860552
Si Si5 0.668260 0.794945 0.210377
O O1 0.500000 0.912025 0.313546
O O2 0.764624 0.904993 0.360368
O O3 0.714428 0.935009 0.224250
O O4 0.677942 0.841326 0.265289
O O5 0.314135 0.330902 0.500000
O O6 0.500000 0.350498 0.392530
O O7 0.264459 0.405028 0.410151
O O8 0.245561 0.308913 0.366118
O O9 0.500000 0.558226 0.913722
O O10 0.271227 0.500000 0.902139
O O11 0.276269 0.572789 0.000000
O O12 0.500000 0.929752 0.871236
O O13 0.706150 0.000000 0.883898
O O14 0.500000 0.780431 0.194128
O O15 0.750000 0.750000 0.250000
#
# Coordination Sequence:
#
# PCOD8291572 Si02
#       5
#    16  16  16  16  16
#     4   9  18  32  50  73  99 127 164 209 252 298
#     4  10  21  36  54  78 108 139 172 212 255 301
#     4   9  18  31  46  68 100 135 169 205 245 291
#     4   9  18  32  50  74 105 140 176 213 254 303
#     4  10  21  38  59  80 102 130 167 212 261 311
#
# _framework density 18.000980999999999
#
# number of rings (size 3 to 8) (size 9 to 14) (size 15 to 20)
#    0.000    2.600    0.000    3.600    0.000    8.000 
#    0.000    4.000    0.000    1.200    0.000    0.000 
#    0.000    0.000    0.000    0.000    0.000    0.000 
#
# Total GULP energy -495987.430215 kJ/mol
# GULP energy per Si atom -12399.685755 kJ/mol
# Density = 1.796001 g / cm^3
# Si number density = 18.000981 Si / 1000 Ang^3
#
#
#
# Elastic Constant Matrix: (Units=GPa)
#
#
# Indices 1 2 3 4 5 6 
#
# 1 100.8927 44.9599 56.8032 0.0001 0.0000 0.0000
# 2 44.9599 77.3066 38.0415 0.0000 0.0000 0.0000
# 3 56.8032 38.0415 107.0292 0.0007 -0.0002 0.0000
# 4 0.0001 0.0000 0.0007 18.0829 -0.0001 0.0000
# 5 0.0000 0.0000 -0.0002 -0.0001 33.6887 0.0001
# 6 0.0000 0.0000 0.0000 0.0000 0.0001 32.7221
#
#
#
# Elastic Compliance Matrix: (Units=1/GPa)
#
#
# Indices 1 2 3 4 5 6 
#
# 1 0.016360 -0.006353 -0.006424 0.000000 0.000000 0.000000
# 2 -0.006353 0.018145 -0.003077 0.000000 0.000000 0.000000
# 3 -0.006424 -0.003077 0.013847 -0.000001 0.000000 0.000000
# 4 0.000000 0.000000 -0.000001 0.055301 0.000000 0.000000
# 5 0.000000 0.000000 0.000000 0.000000 0.029684 0.000000
# 6 0.000000 0.000000 0.000000 0.000000 0.000000 0.030560
#
#
# Mechanical properties :
#
#
# Convention : Reuss Voigt Hill
#
# Bulk Modulus (GPa) = 60.09202 62.75973 61.42587
# Shear Modulus (GPa) = 24.85677 26.59365 25.72521
#
# Velocity S-wave (km/s) = 3.72002 3.84779 3.78445
# Velocity P-wave (km/s) = 7.20462 7.39466 7.30026
#
# Compressibility (1/GPa) = 0.01664114
#
# Stress axis : x y z
#
# Youngs Moduli (GPa) = 61.12654 55.11267 72.21963
#
# Poissons Ratio (x) = 0.35013 0.46397
# Poissons Ratio (y) = 0.38834 0.22225
# Poissons Ratio (z) = 0.39270 0.16961
#
# Static dielectric constant tensor:
#      x y z
#    x 3.373820 0.000000 0.000000 
#    y 0.000000 3.241740 0.000000 
#    z 0.000000 0.000000 3.268150 
# 
# 
# High freq. dielectric constant tensor:
#      x y z
#    x 1.700560 0.000000 0.000000 
#    y 0.000000 1.681760 0.000000 
#    z 0.000000 0.000000 1.696320 
# 
# From -- ./inp_files/8259.got.cif
#   From: 2010.06.25/outbox.cif.g09.slc.cpg/sg71_5_cif.got.tgz:8259.got - 2010.06.28 04:59:45.
