data_PCOD8291370
_publ_section_title
;
Structure prediction by ZEFSAII (Michael W. Deem and Ramdas Pophale) SiO2 
 PCOD8291370
Probable space group: I M M M
;
_chemical_formula_sum "Si O2"
_cell_formula_units_Z 80
_cell_length_a 11.381800
_cell_length_b 26.713275
_cell_length_c 12.899498
_cell_angle_alpha 90.000000
_cell_angle_beta 90.000000
_cell_angle_gamma 90.000000
_cell_volume 3922.029848
_symmetry_space_group_name_H-M "I M M M"
_symmetry_group_IT_number 71
_symmetry_cell_setting 'orthorhombic'
loop_
_space_group_symop_operation_xyz
x,y,z
-x,-y,z
x,-y,-z
-x,y,-z
-x,-y,-z
x,y,-z
-x,y,z
x,-y,z
1/2+x,1/2+y,1/2+z
1/2-x,1/2-y,1/2+z
1/2+x,1/2-y,1/2-z
1/2-x,1/2+y,1/2-z
1/2-x,1/2-y,1/2-z
1/2+x,1/2+y,1/2-z
1/2-x,1/2+y,1/2+z
1/2+x,1/2-y,1/2+z
loop_
_atom_site_type_symbol
_atom_site_label
_atom_site_fract_x
_atom_site_fract_y
_atom_site_fract_z
Si Si1 0.373645 0.056768 0.000000
Si Si2 0.139878 0.500000 0.876447
Si Si3 0.754730 0.578336 0.717431
Si Si4 0.791612 0.773455 0.383050
Si Si5 0.000000 0.159875 0.619559
Si Si6 0.634541 0.183229 0.227362
Si Si7 0.500000 0.557175 0.221901
O O1 0.303314 0.067018 0.104191
O O2 0.500000 0.086413 0.000000
O O3 0.407511 0.000000 0.000000
O O4 0.189046 0.451905 0.814470
O O5 0.000000 0.500000 0.869076
O O6 0.177845 0.500000 0.000000
O O7 0.780738 0.635934 0.737018
O O8 0.616261 0.566124 0.709637
O O9 0.762115 0.786388 0.500000
O O10 0.669152 0.779626 0.321606
O O11 0.840976 0.716408 0.375389
O O12 0.885056 0.813048 0.334037
O O13 0.000000 0.173190 0.500000
O O14 0.000000 0.099656 0.632898
O O15 0.500000 0.165905 0.234167
O O16 0.500000 0.500000 0.176670
#
# Coordination Sequence:
#
# PCOD8291370 Si02
#       7
#     8   8  16  16   8  16   8
#     4  11  22  41  69  93 129 170 218 278 328 402
#     4  11  24  44  68  97 136 172 215 277 339 400
#     4  12  25  43  66 100 131 176 227 276 341 399
#     4  10  22  41  65  94 128 171 217 271 338 399
#     4  10  20  41  67  91 130 176 220 269 331 406
#     4  11  23  39  65  95 131 170 221 281 331 402
#     4  12  24  44  66  96 137 176 225 284 332 411
#
# _framework density 20.397601999999999
#
# number of rings (size 3 to 8) (size 9 to 14) (size 15 to 20)
#    0.000    1.000    5.000    1.800    1.400    2.600 
#    0.000    1.000    0.000    0.000    0.000    0.000 
#    0.000    0.000    0.000    0.000    0.000    0.000 
#
# Total GULP energy -495632.897893 kJ/mol
# GULP energy per Si atom -12390.822447 kJ/mol
# Density = 2.035118 g / cm^3
# Si number density = 20.397602 Si / 1000 Ang^3
#
#
#
# Elastic Constant Matrix: (Units=GPa)
#
#
# Indices 1 2 3 4 5 6 
#
# 1 130.1707 32.8095 46.8507 0.0001 -0.0001 0.0005
# 2 32.8095 142.5272 23.1496 0.0000 0.0000 -0.0009
# 3 46.8507 23.1496 122.4191 -0.0004 -0.0005 -0.0062
# 4 0.0001 0.0000 -0.0004 25.1842 0.0000 -0.0046
# 5 -0.0001 0.0000 -0.0005 0.0000 29.2627 -0.0006
# 6 0.0005 -0.0009 -0.0062 -0.0046 -0.0006 -674.2381
#
#
#
# Elastic Compliance Matrix: (Units=1/GPa)
#
#
# Indices 1 2 3 4 5 6 
#
# 1 0.009252 -0.001604 -0.003237 0.000000 0.000000 0.000000
# 2 -0.001604 0.007517 -0.000808 0.000000 0.000000 0.000000
# 3 -0.003237 -0.000808 0.009560 0.000000 0.000000 0.000000
# 4 0.000000 0.000000 0.000000 0.039707 0.000000 0.000000
# 5 0.000000 0.000000 0.000000 0.000000 0.034173 0.000000
# 6 0.000000 0.000000 0.000000 0.000000 0.000000 -0.001483
#
#
# Mechanical properties :
#
#
# Convention : Reuss Voigt Hill
#
# Bulk Modulus (GPa) = 66.52963 66.74851 66.63907
# Shear Modulus (GPa) = 43.46539 -104.47108 -30.50285
#
# Velocity S-wave (km/s) = 4.62118 -7.16439 -3.87125
# Velocity P-wave (km/s) = 7.82055 5.97020 3.57195
#
# Compressibility (1/GPa) = 0.01503090
#
# Stress axis : x y z
#
# Youngs Moduli (GPa) = 108.08857 133.03909 104.59872
#
# Poissons Ratio (x) = 0.21338 0.33863
# Poissons Ratio (y) = 0.17336 0.08447
# Poissons Ratio (z) = 0.34992 0.10744
#
# Static dielectric constant tensor:
#      x y z
#    x 3.903000 0.000000 0.000000 
#    y 0.000000 3.944580 0.000000 
#    z 0.000000 0.000000 3.506990 
# 
# 
# High freq. dielectric constant tensor:
#      x y z
#    x 1.808480 0.000000 0.000000 
#    y 0.000000 1.809950 0.000000 
#    z 0.000000 0.000000 1.781610 
# 
# From -- ./inp_files/32728.got.cif
#   From: 2010.06.25/outbox.cif.g09.slc.cpg/sg71_17_cif.got.tgz:32728.got - 2010.06.28 04:59:45.
