data_PCOD8291608
_publ_section_title
;
Structure prediction by ZEFSAII (Michael W. Deem and Ramdas Pophale) SiO2 
 PCOD8291608
Probable space group: I M M M
;
_chemical_formula_sum "Si O2"
_cell_formula_units_Z 88
_cell_length_a 22.794894
_cell_length_b 9.132859
_cell_length_c 23.785844
_cell_angle_alpha 90.000000
_cell_angle_beta 90.000000
_cell_angle_gamma 90.000000
_cell_volume 4951.797725
_symmetry_space_group_name_H-M "I M M M"
_symmetry_group_IT_number 71
_symmetry_cell_setting 'orthorhombic'
loop_
_space_group_symop_operation_xyz
x,y,z
-x,-y,z
x,-y,-z
-x,y,-z
-x,-y,-z
x,y,-z
-x,y,z
x,-y,z
1/2+x,1/2+y,1/2+z
1/2-x,1/2-y,1/2+z
1/2+x,1/2-y,1/2-z
1/2-x,1/2+y,1/2-z
1/2-x,1/2-y,1/2-z
1/2+x,1/2+y,1/2-z
1/2-x,1/2+y,1/2+z
1/2+x,1/2-y,1/2+z
loop_
_atom_site_type_symbol
_atom_site_label
_atom_site_fract_x
_atom_site_fract_y
_atom_site_fract_z
Si Si1 0.275759 0.830132 0.064355
Si Si2 0.567966 0.331259 0.359567
Si Si3 0.894017 0.327655 0.626518
Si Si4 0.568440 0.332650 0.768718
Si Si5 0.659322 0.828388 0.435342
Si Si6 0.000000 0.169624 0.433702
O O1 0.330935 0.785271 0.101934
O O2 0.219661 0.741846 0.086869
O O3 0.260741 0.000000 0.070487
O O4 0.290286 0.788628 0.000000
O O5 0.500000 0.302838 0.372606
O O6 0.584007 0.500000 0.370602
O O7 0.582212 0.288840 0.295291
O O8 0.604751 0.229110 0.400166
O O9 0.906142 0.500000 0.623055
O O10 0.895030 0.274663 0.691057
O O11 0.942357 0.244692 0.590416
O O12 0.500000 0.312371 0.782221
O O13 0.587097 0.500000 0.779852
O O14 0.648783 0.784217 0.500000
O O15 0.664226 0.000000 0.427074
O O16 0.000000 0.190257 0.500000
O O17 0.000000 0.000000 0.415808
#
# Coordination Sequence:
#
# PCOD8291608 Si02
#       6
#    16  16  16  16  16   8
#     4   9  19  36  55  74 102 141 180 219 264 317
#     4   9  19  36  58  82 107 140 178 214 257 313
#     4  11  21  33  53  80 106 137 180 226 272 317
#     4   9  18  34  54  76 106 142 178 217 264 316
#     4  10  21  36  55  81 110 138 171 216 268 319
#     4  11  23  35  49  73 107 145 182 223 270 317
#
# _framework density 17.771322999999999
#
# number of rings (size 3 to 8) (size 9 to 14) (size 15 to 20)
#    0.000    2.273    0.909    3.000    0.000    5.455 
#    0.000    6.364    0.000    0.000    0.000    0.000 
#    0.000    0.000    0.000    0.000    0.000    0.000 
#
# Total GULP energy -545729.148988 kJ/mol
# GULP energy per Si atom -12402.935204 kJ/mol
# Density = 1.773087 g / cm^3
# Si number density = 17.771323 Si / 1000 Ang^3
#
#
#
# Elastic Constant Matrix: (Units=GPa)
#
#
# Indices 1 2 3 4 5 6 
#
# 1 108.8112 59.7135 65.7001 0.0000 0.0000 0.0000
# 2 59.7135 83.0564 52.3214 0.0000 0.0000 0.0000
# 3 65.7001 52.3214 91.0512 0.0000 0.0000 0.0000
# 4 0.0000 0.0000 0.0000 33.5809 0.0000 0.0000
# 5 0.0000 0.0000 0.0000 0.0000 27.3014 0.0000
# 6 0.0000 0.0000 0.0000 0.0000 0.0000 27.1082
#
#
#
# Elastic Compliance Matrix: (Units=1/GPa)
#
#
# Indices 1 2 3 4 5 6 
#
# 1 0.019119 -0.007923 -0.009243 0.000000 0.000000 0.000000
# 2 -0.007923 0.022155 -0.007014 0.000000 0.000000 0.000000
# 3 -0.009243 -0.007014 0.021683 0.000000 0.000000 0.000000
# 4 0.000000 0.000000 0.000000 0.029779 0.000000 0.000000
# 5 0.000000 0.000000 0.000000 0.000000 0.036628 0.000000
# 6 0.000000 0.000000 0.000000 0.000000 0.000000 0.036889
#
#
# Mechanical properties :
#
#
# Convention : Reuss Voigt Hill
#
# Bulk Modulus (GPa) = 68.50823 70.93210 69.72016
# Shear Modulus (GPa) = 22.78131 24.61036 23.69583
#
# Velocity S-wave (km/s) = 3.58427 3.72537 3.65550
# Velocity P-wave (km/s) = 7.46745 7.64886 7.55870
#
# Compressibility (1/GPa) = 0.01459679
#
# Stress axis : x y z
#
# Youngs Moduli (GPa) = 52.30343 45.13709 46.11976
#
# Poissons Ratio (x) = 0.35763 0.42628
# Poissons Ratio (y) = 0.41441 0.32347
# Poissons Ratio (z) = 0.48344 0.31658
#
# Static dielectric constant tensor:
#      x y z
#    x 3.229180 0.000000 0.000000 
#    y 0.000000 3.289830 0.000000 
#    z 0.000000 0.000000 3.351180 
# 
# 
# High freq. dielectric constant tensor:
#      x y z
#    x 1.680760 0.000000 0.000000 
#    y 0.000000 1.691400 0.000000 
#    z 0.000000 0.000000 1.689570 
# 
# From -- ./inp_files/12506.got.cif
#   From: 2010.06.25/outbox.cif.g09.slc.cpg/sg71_7_cif.got.tgz:12506.got - 2010.06.28 04:59:45.
