data_PCOD8291013
_publ_section_title
;
Structure prediction by ZEFSAII (Michael W. Deem and Ramdas Pophale) SiO2 
 PCOD8291013
Probable space group: I M M M
;
_chemical_formula_sum "Si O2"
_cell_formula_units_Z 96
_cell_length_a 20.148758
_cell_length_b 16.859608
_cell_length_c 14.341671
_cell_angle_alpha 90.000000
_cell_angle_beta 90.000000
_cell_angle_gamma 90.000000
_cell_volume 4871.867956
_symmetry_space_group_name_H-M "I M M M"
_symmetry_group_IT_number 71
_symmetry_cell_setting 'orthorhombic'
loop_
_space_group_symop_operation_xyz
x,y,z
-x,-y,z
x,-y,-z
-x,y,-z
-x,-y,-z
x,y,-z
-x,y,z
x,-y,z
1/2+x,1/2+y,1/2+z
1/2-x,1/2-y,1/2+z
1/2+x,1/2-y,1/2-z
1/2-x,1/2+y,1/2-z
1/2-x,1/2-y,1/2-z
1/2+x,1/2+y,1/2-z
1/2-x,1/2+y,1/2+z
1/2+x,1/2-y,1/2+z
loop_
_atom_site_type_symbol
_atom_site_label
_atom_site_fract_x
_atom_site_fract_y
_atom_site_fract_z
Si Si1 0.573327 0.259121 0.606404
Si Si2 0.275072 0.588694 0.786202
Si Si3 0.000000 0.757361 0.395188
Si Si4 0.863649 0.648316 0.246676
Si Si5 0.000000 0.589498 0.316992
Si Si6 0.855685 0.222237 0.611458
Si Si7 0.648823 0.588475 0.603110
O O1 0.577672 0.229764 0.500000
O O2 0.500000 0.243250 0.647800
O O3 0.627380 0.212762 0.665618
O O4 0.587041 0.352688 0.613980
O O5 0.296428 0.500000 0.817004
O O6 0.195325 0.592108 0.788442
O O7 0.308771 0.650551 0.857112
O O8 0.296051 0.607395 0.680338
O O9 0.000000 0.660632 0.392096
O O10 0.067912 0.793198 0.351786
O O11 0.000000 0.785282 0.500000
O O12 0.837426 0.694152 0.339711
O O13 0.931827 0.598471 0.257720
O O14 0.000000 0.500000 0.360415
O O15 0.851383 0.232601 0.500000
O O16 0.681611 0.598990 0.500000
O O17 0.620235 0.500000 0.615653
#
# Coordination Sequence:
#
# PCOD8291013 Si02
#       7
#    16  16   8  16   8  16  16
#     4  10  20  35  59  86 111 144 188 234 280 335
#     4  11  23  38  56  83 116 150 191 237 284 336
#     4   8  18  37  59  83 113 145 187 233 273 326
#     4  11  21  38  58  83 112 146 192 234 283 333
#     4  10  20  35  59  83 111 147 181 227 286 337
#     4  10  21  37  59  85 115 151 190 231 277 334
#     4   9  19  35  55  83 118 147 177 227 288 343
#
# _framework density 19.704967
#
# number of rings (size 3 to 8) (size 9 to 14) (size 15 to 20)
#    0.000    2.000    2.500    1.000    0.000    2.167 
#    0.000    2.083    0.000    6.500    0.000    0.000 
#    0.000    0.000    0.000    0.000    0.000    0.000 
#
# Total GULP energy -594810.056705 kJ/mol
# GULP energy per Si atom -12391.876181 kJ/mol
# Density = 1.966012 g / cm^3
# Si number density = 19.704967 Si / 1000 Ang^3
#
#
#
# Elastic Constant Matrix: (Units=GPa)
#
#
# Indices 1 2 3 4 5 6 
#
# 1 98.8970 35.8583 25.2018 0.0000 0.0000 0.0000
# 2 35.8583 79.6606 30.2901 0.0000 0.0000 0.0000
# 3 25.2018 30.2901 74.6693 0.0000 0.0000 0.0000
# 4 0.0000 0.0000 0.0000 18.8843 0.0000 0.0000
# 5 0.0000 0.0000 0.0000 0.0000 20.4449 0.0000
# 6 0.0000 0.0000 0.0000 0.0000 0.0000 24.8952
#
#
#
# Elastic Compliance Matrix: (Units=1/GPa)
#
#
# Indices 1 2 3 4 5 6 
#
# 1 0.012401 -0.004719 -0.002271 0.000000 0.000000 0.000000
# 2 -0.004719 0.016638 -0.005157 0.000000 0.000000 0.000000
# 3 -0.002271 -0.005157 0.016251 0.000000 0.000000 0.000000
# 4 0.000000 0.000000 0.000000 0.052954 0.000000 0.000000
# 5 0.000000 0.000000 0.000000 0.000000 0.048912 0.000000
# 6 0.000000 0.000000 0.000000 0.000000 0.000000 0.040168
#
#
# Mechanical properties :
#
#
# Convention : Reuss Voigt Hill
#
# Bulk Modulus (GPa) = 47.62669 48.43636 48.03152
# Shear Modulus (GPa) = 22.87104 23.63665 23.25385
#
# Velocity S-wave (km/s) = 3.41056 3.46718 3.43899
# Velocity P-wave (km/s) = 6.30330 6.37672 6.34012
#
# Compressibility (1/GPa) = 0.02099663
#
# Stress axis : x y z
#
# Youngs Moduli (GPa) = 80.63713 60.10313 61.53507
#
# Poissons Ratio (x) = 0.28360 0.13977
# Poissons Ratio (y) = 0.38049 0.31732
# Poissons Ratio (z) = 0.18316 0.30994
#
# Static dielectric constant tensor:
#      x y z
#    x 3.637220 0.000000 0.000000 
#    y 0.000000 3.445560 0.000000 
#    z 0.000000 0.000000 3.562510 
# 
# 
# High freq. dielectric constant tensor:
#      x y z
#    x 1.767750 0.000000 0.000000 
#    y 0.000000 1.754790 0.000000 
#    z 0.000000 0.000000 1.763180 
# 
# From -- ./inp_files/37842.got.cif
#   From: 2010.06.25/outbox.cif.g09.slc.cpg/sg71_19_cif.got.tgz:37842.got - 2010.06.28 04:59:45.
