data_PCOD8291015
_publ_section_title
;
Structure prediction by ZEFSAII (Michael W. Deem and Ramdas Pophale) SiO2 
 PCOD8291015
Probable space group: I M M M
;
_chemical_formula_sum "Si O2"
_cell_formula_units_Z 104
_cell_length_a 8.580176
_cell_length_b 29.765203
_cell_length_c 20.494554
_cell_angle_alpha 90.000000
_cell_angle_beta 90.000000
_cell_angle_gamma 90.000000
_cell_volume 5234.118091
_symmetry_space_group_name_H-M "I M M M"
_symmetry_group_IT_number 71
_symmetry_cell_setting 'orthorhombic'
loop_
_space_group_symop_operation_xyz
x,y,z
-x,-y,z
x,-y,-z
-x,y,-z
-x,-y,-z
x,y,-z
-x,y,z
x,-y,z
1/2+x,1/2+y,1/2+z
1/2-x,1/2-y,1/2+z
1/2+x,1/2-y,1/2-z
1/2-x,1/2+y,1/2-z
1/2-x,1/2-y,1/2-z
1/2+x,1/2+y,1/2-z
1/2-x,1/2+y,1/2+z
1/2+x,1/2-y,1/2+z
loop_
_atom_site_type_symbol
_atom_site_label
_atom_site_fract_x
_atom_site_fract_y
_atom_site_fract_z
Si Si1 0.823547 0.824252 0.374985
Si Si2 0.184597 0.133540 0.136638
Si Si3 0.685385 0.224402 0.500000
Si Si4 0.823979 0.077891 0.340906
Si Si5 0.815358 0.827251 0.000000
Si Si6 0.813925 0.000000 0.428773
Si Si7 0.180995 0.299170 0.743614
Si Si8 0.183130 0.551747 0.291997
O O1 0.753723 0.799352 0.436703
O O2 0.824674 0.877462 0.384611
O O3 0.709789 0.819897 0.313928
O O4 0.000000 0.806474 0.361649
O O5 0.246714 0.147634 0.064854
O O6 0.237512 0.171254 0.188059
O O7 0.246640 0.083267 0.151140
O O8 0.000000 0.132207 0.139043
O O9 0.500000 0.220420 0.500000
O O10 0.743178 0.275797 0.500000
O O11 0.749828 0.042459 0.390020
O O12 0.722841 0.077225 0.275248
O O13 0.000000 0.065627 0.319137
O O14 0.000000 0.827332 0.000000
O O15 0.737989 0.000000 0.500000
O O16 0.000000 0.000000 0.433250
O O17 0.250000 0.250000 0.750000
O O18 0.000000 0.297249 0.726801
O O19 0.247886 0.500000 0.294794
O O20 0.000000 0.550809 0.301189
#
# Coordination Sequence:
#
# PCOD8291015 Si02
#       8
#    16  16   8  16   8   8  16  16
#     4  11  23  38  58  89 124 161 208 261 309 365
#     4  11  22  41  67  94 123 160 207 261 321 384
#     4  11  23  41  63  87 123 173 213 258 321 384
#     4  10  20  35  59  85 115 157 206 255 306 361
#     4   9  22  43  66  90 118 155 204 255 312 382
#     4   9  18  32  55  85 113 152 203 252 301 353
#     4  12  24  39  61  91 125 161 206 257 312 374
#     4  11  23  39  61  91 127 163 204 257 317 378
#
# _framework density 19.869631999999999
#
# number of rings (size 3 to 8) (size 9 to 14) (size 15 to 20)
#    0.000    1.308    2.308    3.923    1.077    2.769 
#    0.000    4.231    0.000    2.769    0.000    0.000 
#    0.000    0.000    0.000    0.000    0.000    0.000 
#
# Total GULP energy -644633.833061 kJ/mol
# GULP energy per Si atom -12396.804482 kJ/mol
# Density = 1.982441 g / cm^3
# Si number density = 19.869632 Si / 1000 Ang^3
#
#
#
# Elastic Constant Matrix: (Units=GPa)
#
#
# Indices 1 2 3 4 5 6 
#
# 1 77.1314 39.2166 28.0667 0.0000 0.0001 0.0000
# 2 39.2166 139.2488 70.6215 -0.0002 -0.0002 0.0000
# 3 28.0667 70.6215 159.4707 -0.0002 -0.0002 0.0000
# 4 0.0000 -0.0002 -0.0002 40.4228 0.0003 0.0000
# 5 0.0001 -0.0002 -0.0002 0.0003 236.4877 0.0001
# 6 0.0000 0.0000 0.0000 0.0000 0.0001 29.5728
#
#
#
# Elastic Compliance Matrix: (Units=1/GPa)
#
#
# Indices 1 2 3 4 5 6 
#
# 1 0.015256 -0.003785 -0.001009 0.000000 0.000000 0.000000
# 2 -0.003785 0.010200 -0.003851 0.000000 0.000000 0.000000
# 3 -0.001009 -0.003851 0.008154 0.000000 0.000000 0.000000
# 4 0.000000 0.000000 0.000000 0.024739 0.000000 0.000000
# 5 0.000000 0.000000 0.000000 0.000000 0.004229 0.000000
# 6 0.000000 0.000000 0.000000 0.000000 0.000000 0.033815
#
#
# Mechanical properties :
#
#
# Convention : Reuss Voigt Hill
#
# Bulk Modulus (GPa) = 61.27215 72.40673 66.83944
# Shear Modulus (GPa) = 41.97345 77.15974 59.56659
#
# Velocity S-wave (km/s) = 4.60112 6.23837 5.48122
# Velocity P-wave (km/s) = 7.68967 9.40265 8.58897
#
# Compressibility (1/GPa) = 0.01632063
#
# Stress axis : x y z
#
# Youngs Moduli (GPa) = 65.54606 98.03443 122.64229
#
# Poissons Ratio (x) = 0.37106 0.12374
# Poissons Ratio (y) = 0.24809 0.47231
# Poissons Ratio (z) = 0.06613 0.37754
#
# Static dielectric constant tensor:
#      x y z
#    x 3.436990 0.000000 0.000000 
#    y 0.000000 3.852310 0.000000 
#    z 0.000000 0.000000 3.750800 
# 
# 
# High freq. dielectric constant tensor:
#      x y z
#    x 1.766540 0.000000 0.000000 
#    y 0.000000 1.791550 0.000000 
#    z 0.000000 0.000000 1.772630 
# 
# From -- ./inp_files/50953.got.cif
#   From: 2010.06.25/outbox.cif.g09.slc.cpg/sg71_26_cif.got.tgz:50953.got - 2010.06.28 04:59:45.
