data_PCOD8291826
_publ_section_title
;
Structure prediction by ZEFSAII (Michael W. Deem and Ramdas Pophale) SiO2 
 PCOD8291826
Probable space group: I M M M
;
_chemical_formula_sum "Si O2"
_cell_formula_units_Z 104
_cell_length_a 9.409962
_cell_length_b 21.720032
_cell_length_c 25.810470
_cell_angle_alpha 90.000000
_cell_angle_beta 90.000000
_cell_angle_gamma 90.000000
_cell_volume 5275.264542
_symmetry_space_group_name_H-M "I M M M"
_symmetry_group_IT_number 71
_symmetry_cell_setting 'orthorhombic'
loop_
_space_group_symop_operation_xyz
x,y,z
-x,-y,z
x,-y,-z
-x,y,-z
-x,-y,-z
x,y,-z
-x,y,z
x,-y,z
1/2+x,1/2+y,1/2+z
1/2-x,1/2-y,1/2+z
1/2+x,1/2-y,1/2-z
1/2-x,1/2+y,1/2-z
1/2-x,1/2-y,1/2-z
1/2+x,1/2+y,1/2-z
1/2-x,1/2+y,1/2+z
1/2+x,1/2-y,1/2+z
loop_
_atom_site_type_symbol
_atom_site_label
_atom_site_fract_x
_atom_site_fract_y
_atom_site_fract_z
Si Si1 0.331091 0.927447 0.500000
Si Si2 0.835799 0.837859 0.211681
Si Si3 0.661028 0.431730 0.380505
Si Si4 0.833800 0.748100 0.643982
Si Si5 0.834347 0.932914 0.706359
Si Si6 0.836836 0.347795 0.557647
Si Si7 0.665155 0.620982 0.900652
O O1 0.500000 0.915668 0.500000
O O2 0.262747 0.896044 0.550622
O O3 0.295808 0.000000 0.500000
O O4 0.812511 0.888711 0.168138
O O5 0.747395 0.776356 0.195755
O O6 0.773616 0.872531 0.263205
O O7 0.000000 0.818100 0.218415
O O8 0.500000 0.429888 0.399221
O O9 0.708394 0.500000 0.364286
O O10 0.752214 0.409724 0.429473
O O11 0.790221 0.706549 0.595455
O O12 0.785724 0.815461 0.626090
O O13 0.000000 0.746762 0.657430
O O14 0.811679 0.928855 0.644578
O O15 0.000000 0.933040 0.720580
O O16 0.770001 0.000000 0.723260
O O17 0.801361 0.325110 0.500000
O O18 0.000000 0.364413 0.564677
O O19 0.500000 0.624148 0.918612
#
# Coordination Sequence:
#
# PCOD8291826 Si02
#       7
#     8  16  16  16  16  16  16
#     4  11  25  43  61  85 119 151 180 225 286 339
#     4   9  17  31  52  76 106 143 179 217 268 326
#     4   9  17  29  45  66  93 127 168 213 262 314
#     4   9  19  34  52  77 108 139 179 226 272 321
#     4   9  17  31  54  84 112 140 183 234 276 321
#     4   9  18  31  46  63  90 129 168 212 265 319
#     4  10  21  37  61  87 110 144 190 233 274 326
#
# _framework density 19.714649999999999
#
# number of rings (size 3 to 8) (size 9 to 14) (size 15 to 20)
#    0.000    2.692    0.000    1.154    1.077    5.231 
#    0.000    2.308    0.000    2.308    0.000    0.000 
#    0.000    0.000    0.000    0.000    0.000    0.000 
#
# Total GULP energy -644433.603551 kJ/mol
# GULP energy per Si atom -12392.953914 kJ/mol
# Density = 1.966978 g / cm^3
# Si number density = 19.714650 Si / 1000 Ang^3
#
#
#
# Elastic Constant Matrix: (Units=GPa)
#
#
# Indices 1 2 3 4 5 6 
#
# 1 52.4126 38.9880 41.6655 0.0000 0.0000 0.0000
# 2 38.9880 104.3739 38.7372 0.0000 0.0000 0.0000
# 3 41.6655 38.7372 108.2303 0.0000 0.0000 0.0000
# 4 0.0000 0.0000 0.0000 20.4325 0.0000 0.0000
# 5 0.0000 0.0000 0.0000 0.0000 14.4084 0.0000
# 6 0.0000 0.0000 0.0000 0.0000 0.0000 26.7011
#
#
#
# Elastic Compliance Matrix: (Units=1/GPa)
#
#
# Indices 1 2 3 4 5 6 
#
# 1 0.033368 -0.008876 -0.009669 0.000000 0.000000 0.000000
# 2 -0.008876 0.013410 -0.001383 0.000000 0.000000 0.000000
# 3 -0.009669 -0.001383 0.013457 0.000000 0.000000 0.000000
# 4 0.000000 0.000000 0.000000 0.048942 0.000000 0.000000
# 5 0.000000 0.000000 0.000000 0.000000 0.069404 0.000000
# 6 0.000000 0.000000 0.000000 0.000000 0.000000 0.037452
#
#
# Mechanical properties :
#
#
# Convention : Reuss Voigt Hill
#
# Bulk Modulus (GPa) = 49.06854 55.97759 52.52307
# Shear Modulus (GPa) = 19.03458 22.01680 20.52569
#
# Velocity S-wave (km/s) = 3.11063 3.34544 3.23017
# Velocity P-wave (km/s) = 6.15181 6.58621 6.37271
#
# Compressibility (1/GPa) = 0.02037966
#
# Stress axis : x y z
#
# Youngs Moduli (GPa) = 29.96860 74.57363 74.31257
#
# Poissons Ratio (x) = 0.66191 0.71853
# Poissons Ratio (y) = 0.26600 0.10274
# Poissons Ratio (z) = 0.28977 0.10310
#
# Static dielectric constant tensor:
#      x y z
#    x 3.411420 0.000000 0.000000 
#    y 0.000000 3.816800 0.000000 
#    z 0.000000 0.000000 3.769150 
# 
# 
# High freq. dielectric constant tensor:
#      x y z
#    x 1.731890 0.000000 0.000000 
#    y 0.000000 1.778910 0.000000 
#    z 0.000000 0.000000 1.775100 
# 
# From -- ./inp_files/63310.got.cif
#   From: 2010.06.25/outbox.cif.g09.slc.cpg/sg71_32_cif.got.tgz:63310.got - 2010.06.28 04:59:45.
