data_PCOD8291404
_publ_section_title
;
Structure prediction by ZEFSAII (Michael W. Deem and Ramdas Pophale) SiO2 
 PCOD8291404
Probable space group: I M M M
;
_chemical_formula_sum "Si O2"
_cell_formula_units_Z 88
_cell_length_a 25.014758
_cell_length_b 19.178987
_cell_length_c 9.467842
_cell_angle_alpha 90.000000
_cell_angle_beta 90.000000
_cell_angle_gamma 90.000000
_cell_volume 4542.270277
_symmetry_space_group_name_H-M "I M M M"
_symmetry_group_IT_number 71
_symmetry_cell_setting 'orthorhombic'
loop_
_space_group_symop_operation_xyz
x,y,z
-x,-y,z
x,-y,-z
-x,y,-z
-x,-y,-z
x,y,-z
-x,y,z
x,-y,z
1/2+x,1/2+y,1/2+z
1/2-x,1/2-y,1/2+z
1/2+x,1/2-y,1/2-z
1/2-x,1/2+y,1/2-z
1/2-x,1/2-y,1/2-z
1/2+x,1/2+y,1/2-z
1/2-x,1/2+y,1/2+z
1/2+x,1/2-y,1/2+z
loop_
_atom_site_type_symbol
_atom_site_label
_atom_site_fract_x
_atom_site_fract_y
_atom_site_fract_z
Si Si1 0.941112 0.078652 0.832012
Si Si2 0.436692 0.000000 0.156394
Si Si3 0.440326 0.872616 0.341393
Si Si4 0.337019 0.652621 0.666457
Si Si5 0.333676 0.194190 0.338862
Si Si6 0.770477 0.580011 0.334429
O O1 0.893303 0.125949 0.767650
O O2 0.000000 0.107046 0.785925
O O3 0.933747 0.000000 0.775384
O O4 0.936926 0.078026 0.000000
O O5 0.417391 0.068088 0.238318
O O6 0.500000 0.000000 0.148611
O O7 0.410857 0.000000 0.000000
O O8 0.441993 0.903463 0.500000
O O9 0.500000 0.847072 0.297329
O O10 0.398501 0.809531 0.332107
O O11 0.344303 0.661026 0.500000
O O12 0.320254 0.729322 0.724902
O O13 0.290925 0.597473 0.704336
O O14 0.313347 0.185696 0.500000
O O15 0.308458 0.132682 0.247940
O O16 0.780554 0.590715 0.500000
O O17 0.782282 0.500000 0.289728
#
# Coordination Sequence:
#
# PCOD8291404 Si02
#       6
#    16   8  16  16  16  16
#     4   8  13  22  41  72 106 136 165 199 241 292
#     4   9  17  29  47  69  91 121 163 205 240 279
#     4   9  18  32  48  68  97 130 161 196 245 298
#     4   9  17  31  49  70 100 135 167 200 246 302
#     4  10  21  34  51  75 101 131 166 207 251 297
#     4  10  21  36  54  74  97 130 169 209 253 299
#
# _framework density 19.373571999999999
#
# number of rings (size 3 to 8) (size 9 to 14) (size 15 to 20)
#    0.000    2.818    0.000    1.909    1.273    5.091 
#    0.000    3.636    0.000    0.000    0.000    0.000 
#    0.000    2.182    0.000   10.000    0.000    9.091 
#
# Total GULP energy -545278.837692 kJ/mol
# GULP energy per Si atom -12392.700857 kJ/mol
# Density = 1.932948 g / cm^3
# Si number density = 19.373572 Si / 1000 Ang^3
#
#
#
# Elastic Constant Matrix: (Units=GPa)
#
#
# Indices 1 2 3 4 5 6 
#
# 1 107.1082 55.1314 21.2798 0.0000 0.0000 0.0000
# 2 55.1314 126.6367 29.8230 0.0000 0.0000 0.0000
# 3 21.2798 29.8230 44.3742 0.0000 0.0000 0.0000
# 4 0.0000 0.0000 0.0000 18.5429 0.0000 0.0000
# 5 0.0000 0.0000 0.0000 0.0000 16.2732 0.0000
# 6 0.0000 0.0000 0.0000 0.0000 0.0000 29.4980
#
#
#
# Elastic Compliance Matrix: (Units=1/GPa)
#
#
# Indices 1 2 3 4 5 6 
#
# 1 0.012306 -0.004714 -0.002733 0.000000 0.000000 0.000000
# 2 -0.004714 0.011187 -0.005258 0.000000 0.000000 0.000000
# 3 -0.002733 -0.005258 0.027380 0.000000 0.000000 0.000000
# 4 0.000000 0.000000 0.000000 0.053929 0.000000 0.000000
# 5 0.000000 0.000000 0.000000 0.000000 0.061451 0.000000
# 6 0.000000 0.000000 0.000000 0.000000 0.000000 0.033901
#
#
# Mechanical properties :
#
#
# Convention : Reuss Voigt Hill
#
# Bulk Modulus (GPa) = 39.27291 54.50972 46.89131
# Shear Modulus (GPa) = 21.36288 24.32180 22.84234
#
# Velocity S-wave (km/s) = 3.32427 3.54702 3.43745
# Velocity P-wave (km/s) = 5.92028 6.70614 6.32543
#
# Compressibility (1/GPa) = 0.02546284
#
# Stress axis : x y z
#
# Youngs Moduli (GPa) = 81.26397 89.38998 36.52267
#
# Poissons Ratio (x) = 0.42134 0.09983
# Poissons Ratio (y) = 0.38304 0.19204
# Poissons Ratio (z) = 0.22212 0.47002
#
# Static dielectric constant tensor:
#      x y z
#    x 3.720060 0.000000 0.000000 
#    y 0.000000 3.581190 0.000000 
#    z 0.000000 0.000000 3.168620 
# 
# 
# High freq. dielectric constant tensor:
#      x y z
#    x 1.768310 0.000000 0.000000 
#    y 0.000000 1.749740 0.000000 
#    z 0.000000 0.000000 1.698060 
# 
# From -- ./inp_files/12496.got.cif
#   From: 2010.06.25/outbox.cif.g09.slc.cpg/sg71_7_cif.got.tgz:12496.got - 2010.06.28 04:59:45.
