data_PCOD8291020
_publ_section_title
;
Structure prediction by ZEFSAII (Michael W. Deem and Ramdas Pophale) SiO2 
 PCOD8291020
Probable space group: I M M M
;
_chemical_formula_sum "Si O2"
_cell_formula_units_Z 96
_cell_length_a 28.610348
_cell_length_b 19.734600
_cell_length_c 8.783672
_cell_angle_alpha 90.000000
_cell_angle_beta 90.000000
_cell_angle_gamma 90.000000
_cell_volume 4959.382194
_symmetry_space_group_name_H-M "I M M M"
_symmetry_group_IT_number 71
_symmetry_cell_setting 'orthorhombic'
loop_
_space_group_symop_operation_xyz
x,y,z
-x,-y,z
x,-y,-z
-x,y,-z
-x,-y,-z
x,y,-z
-x,y,z
x,-y,z
1/2+x,1/2+y,1/2+z
1/2-x,1/2-y,1/2+z
1/2+x,1/2-y,1/2-z
1/2-x,1/2+y,1/2-z
1/2-x,1/2-y,1/2-z
1/2+x,1/2+y,1/2-z
1/2-x,1/2+y,1/2+z
1/2+x,1/2-y,1/2+z
loop_
_atom_site_type_symbol
_atom_site_label
_atom_site_fract_x
_atom_site_fract_y
_atom_site_fract_z
Si Si1 0.628328 0.578955 0.678579
Si Si2 0.945956 0.173862 0.679623
Si Si3 0.054950 0.574501 0.668432
Si Si4 0.806039 0.311718 0.328872
Si Si5 0.215277 0.153805 0.671930
Si Si6 0.598192 0.195107 0.324869
O O1 0.630963 0.592326 0.500000
O O2 0.627037 0.500000 0.719245
O O3 0.580830 0.611835 0.741799
O O4 0.673738 0.611923 0.753043
O O5 0.941617 0.165142 0.500000
O O6 0.921962 0.244304 0.723881
O O7 0.000000 0.173188 0.732516
O O8 0.073206 0.596838 0.500000
O O9 0.075327 0.500000 0.709184
O O10 0.068628 0.627669 0.797371
O O11 0.000000 0.570186 0.663933
O O12 0.816804 0.336372 0.500000
O O13 0.796263 0.232473 0.326597
O O14 0.762902 0.356401 0.266492
O O15 0.849421 0.324574 0.219389
O O16 0.222393 0.127676 0.500000
O O17 0.595531 0.217109 0.500000
#
# Coordination Sequence:
#
# PCOD8291020 Si02
#       6
#    16  16  16  16  16  16
#     4  11  24  41  62  88 121 160 200 247 305 364
#     4  11  24  41  61  86 117 156 205 256 303 355
#     4   9  19  37  59  81 110 152 197 238 286 348
#     4  10  20  35  59  87 118 151 188 236 288 342
#     4  10  20  36  60  88 116 150 191 236 286 343
#     4  12  23  35  57  89 123 156 193 243 298 351
#
# _framework density 19.357248999999999
#
# number of rings (size 3 to 8) (size 9 to 14) (size 15 to 20)
#    0.000    1.500    1.667    4.500    0.000    7.000 
#    0.000    3.333    0.000    5.000    0.000    0.000 
#    0.000    0.000    0.000    0.000    0.000    0.000 
#
# Total GULP energy -595264.532356 kJ/mol
# GULP energy per Si atom -12401.344424 kJ/mol
# Density = 1.931319 g / cm^3
# Si number density = 19.357249 Si / 1000 Ang^3
#
#
#
# Elastic Constant Matrix: (Units=GPa)
#
#
# Indices 1 2 3 4 5 6 
#
# 1 114.3923 48.3296 40.2712 0.0000 0.0000 0.0000
# 2 48.3296 68.0331 33.6706 0.0000 0.0000 0.0000
# 3 40.2712 33.6706 99.7744 0.0000 0.0000 0.0000
# 4 0.0000 0.0000 0.0000 27.9391 0.0000 0.0000
# 5 0.0000 0.0000 0.0000 0.0000 36.7654 0.0000
# 6 0.0000 0.0000 0.0000 0.0000 0.0000 28.9822
#
#
#
# Elastic Compliance Matrix: (Units=1/GPa)
#
#
# Indices 1 2 3 4 5 6 
#
# 1 0.013014 -0.007977 -0.002560 0.000000 0.000000 0.000000
# 2 -0.007977 0.022536 -0.004385 0.000000 0.000000 0.000000
# 3 -0.002560 -0.004385 0.012536 0.000000 0.000000 0.000000
# 4 0.000000 0.000000 0.000000 0.035792 0.000000 0.000000
# 5 0.000000 0.000000 0.000000 0.000000 0.027200 0.000000
# 6 0.000000 0.000000 0.000000 0.000000 0.000000 0.034504
#
#
# Mechanical properties :
#
#
# Convention : Reuss Voigt Hill
#
# Bulk Modulus (GPa) = 54.82681 58.52694 56.67688
# Shear Modulus (GPa) = 27.54705 29.39922 28.47314
#
# Velocity S-wave (km/s) = 3.77648 3.90137 3.83943
# Velocity P-wave (km/s) = 6.88483 7.11302 6.99985
#
# Compressibility (1/GPa) = 0.01823925
#
# Stress axis : x y z
#
# Youngs Moduli (GPa) = 76.84242 44.37320 79.77046
#
# Poissons Ratio (x) = 0.35399 0.20425
# Poissons Ratio (y) = 0.61301 0.34982
# Poissons Ratio (z) = 0.19675 0.19459
#
# Static dielectric constant tensor:
#      x y z
#    x 3.742220 0.000000 0.000000 
#    y 0.000000 3.581680 0.000000 
#    z 0.000000 0.000000 3.746090 
# 
# 
# High freq. dielectric constant tensor:
#      x y z
#    x 1.760740 0.000000 0.000000 
#    y 0.000000 1.739110 0.000000 
#    z 0.000000 0.000000 1.764160 
# 
# From -- ./inp_files/14845.got.cif
#   From: 2010.06.25/outbox.cif.g09.slc.cpg/sg71_8_cif.got.tgz:14845.got - 2010.06.28 04:59:45.
