data_PCOD8291307
_publ_section_title
;
Structure prediction by ZEFSAII (Michael W. Deem and Ramdas Pophale) SiO2 
 PCOD8291307
Probable space group: I M M M
;
_chemical_formula_sum "Si O2"
_cell_formula_units_Z 80
_cell_length_a 21.684273
_cell_length_b 21.497846
_cell_length_c 8.737739
_cell_angle_alpha 90.000000
_cell_angle_beta 90.000000
_cell_angle_gamma 90.000000
_cell_volume 4073.229513
_symmetry_space_group_name_H-M "I M M M"
_symmetry_group_IT_number 71
_symmetry_cell_setting 'orthorhombic'
loop_
_space_group_symop_operation_xyz
x,y,z
-x,-y,z
x,-y,-z
-x,y,-z
-x,-y,-z
x,y,-z
-x,y,z
x,-y,z
1/2+x,1/2+y,1/2+z
1/2-x,1/2-y,1/2+z
1/2+x,1/2-y,1/2-z
1/2-x,1/2+y,1/2-z
1/2-x,1/2-y,1/2-z
1/2+x,1/2+y,1/2-z
1/2-x,1/2+y,1/2+z
1/2+x,1/2-y,1/2+z
loop_
_atom_site_type_symbol
_atom_site_label
_atom_site_fract_x
_atom_site_fract_y
_atom_site_fract_z
Si Si1 0.738306 0.927782 0.319831
Si Si2 0.000000 0.569276 0.317956
Si Si3 0.428154 0.729308 0.176320
Si Si4 0.430682 0.500000 0.180438
Si Si5 0.861669 0.114761 0.820520
Si Si6 0.878542 0.635403 0.677714
O O1 0.748988 0.925540 0.500000
O O2 0.791919 0.888557 0.238671
O O3 0.676477 0.891430 0.278153
O O4 0.736631 0.000000 0.263729
O O5 0.060541 0.602865 0.256152
O O6 0.000000 0.500000 0.253319
O O7 0.000000 0.572227 0.500000
O O8 0.500000 0.738457 0.224020
O O9 0.394747 0.679207 0.281652
O O10 0.388475 0.791451 0.201052
O O11 0.425117 0.707996 0.000000
O O12 0.500000 0.500000 0.239986
O O13 0.399184 0.560885 0.241438
O O14 0.425796 0.500000 0.000000
O O15 0.861821 0.104855 0.000000
O O16 0.866654 0.619149 0.500000
#
# Coordination Sequence:
#
# PCOD8291307 Si02
#       6
#    16   8  16   8  16  16
#     4  11  24  42  63  88 124 167 210 259 320 379
#     4   9  16  30  57  93 125 156 201 258 311 363
#     4  10  21  40  64  91 127 168 209 254 313 379
#     4  11  23  41  65  93 125 162 203 252 315 377
#     4  12  25  40  63  92 123 163 211 261 312 367
#     4  10  20  37  63  93 124 163 210 258 310 371
#
# _framework density 19.640433999999999
#
# number of rings (size 3 to 8) (size 9 to 14) (size 15 to 20)
#    0.000    1.400    2.000    3.900    0.000    7.200 
#    0.000    0.500    0.000    1.800    0.000    0.000 
#    0.000    0.000    0.000    0.000    0.000    0.000 
#
# Total GULP energy -496092.350230 kJ/mol
# GULP energy per Si atom -12402.308756 kJ/mol
# Density = 1.959573 g / cm^3
# Si number density = 19.640434 Si / 1000 Ang^3
#
#
#
# Elastic Constant Matrix: (Units=GPa)
#
#
# Indices 1 2 3 4 5 6 
#
# 1 167.6233 74.1126 105.1716 0.0000 0.0000 0.0000
# 2 74.1126 129.7445 95.6203 0.0000 0.0000 0.0000
# 3 105.1716 95.6203 201.8345 0.0000 0.0000 0.0000
# 4 0.0000 0.0000 0.0000 23.4329 0.0000 0.0000
# 5 0.0000 0.0000 0.0000 0.0000 37.0222 0.0000
# 6 0.0000 0.0000 0.0000 0.0000 0.0000 42.6325
#
#
#
# Elastic Compliance Matrix: (Units=1/GPa)
#
#
# Indices 1 2 3 4 5 6 
#
# 1 0.009449 -0.002718 -0.003636 0.000000 0.000000 0.000000
# 2 -0.002718 0.012624 -0.004565 0.000000 0.000000 0.000000
# 3 -0.003636 -0.004565 0.009012 0.000000 0.000000 0.000000
# 4 0.000000 0.000000 0.000000 0.042675 0.000000 0.000000
# 5 0.000000 0.000000 0.000000 0.000000 0.027011 0.000000
# 6 0.000000 0.000000 0.000000 0.000000 0.000000 0.023456
#
#
# Mechanical properties :
#
#
# Convention : Reuss Voigt Hill
#
# Bulk Modulus (GPa) = 108.13274 116.55682 112.34478
# Shear Modulus (GPa) = 33.52441 35.57071 34.54756
#
# Velocity S-wave (km/s) = 4.13596 4.26031 4.19860
# Velocity P-wave (km/s) = 8.83085 9.14738 8.99051
#
# Compressibility (1/GPa) = 0.00924789
#
# Stress axis : x y z
#
# Youngs Moduli (GPa) = 105.83543 79.21553 110.96695
#
# Poissons Ratio (x) = 0.21527 0.40348
# Poissons Ratio (y) = 0.28761 0.50651
# Poissons Ratio (z) = 0.38482 0.36158
#
# Static dielectric constant tensor:
#      x y z
#    x 3.865010 0.000000 0.000000 
#    y 0.000000 3.546280 0.000000 
#    z 0.000000 0.000000 3.441020 
# 
# 
# High freq. dielectric constant tensor:
#      x y z
#    x 1.781530 0.000000 0.000000 
#    y 0.000000 1.776430 0.000000 
#    z 0.000000 0.000000 1.752600 
# 
# From -- ./inp_files/10280.got.cif
#   From: 2010.06.25/outbox.cif.g09.slc.cpg/sg71_6_cif.got.tgz:10280.got - 2010.06.28 04:59:45.
