data_PCOD8291192
_publ_section_title
;
Structure prediction by ZEFSAII (Michael W. Deem and Ramdas Pophale) SiO2 
 PCOD8291192
Probable space group: I M M M
;
_chemical_formula_sum "Si O2"
_cell_formula_units_Z 104
_cell_length_a 18.564863
_cell_length_b 17.680761
_cell_length_c 15.994148
_cell_angle_alpha 90.000000
_cell_angle_beta 90.000000
_cell_angle_gamma 90.000000
_cell_volume 5249.933625
_symmetry_space_group_name_H-M "I M M M"
_symmetry_group_IT_number 71
_symmetry_cell_setting 'orthorhombic'
loop_
_space_group_symop_operation_xyz
x,y,z
-x,-y,z
x,-y,-z
-x,y,-z
-x,-y,-z
x,y,-z
-x,y,z
x,-y,z
1/2+x,1/2+y,1/2+z
1/2-x,1/2-y,1/2+z
1/2+x,1/2-y,1/2-z
1/2-x,1/2+y,1/2-z
1/2-x,1/2-y,1/2-z
1/2+x,1/2+y,1/2-z
1/2-x,1/2+y,1/2+z
1/2+x,1/2-y,1/2+z
loop_
_atom_site_type_symbol
_atom_site_label
_atom_site_fract_x
_atom_site_fract_y
_atom_site_fract_z
Si Si1 0.920083 0.085952 0.701781
Si Si2 0.671182 0.658799 0.657549
Si Si3 0.918829 0.160057 0.000000
Si Si4 0.170518 0.590578 0.664183
Si Si5 0.418158 0.089479 0.000000
Si Si6 0.166759 0.662189 0.835586
Si Si7 0.919227 0.339591 0.000000
Si Si8 0.704735 0.413753 0.091122
O O1 0.872791 0.135148 0.762473
O O2 0.879962 0.090997 0.612731
O O3 0.000000 0.120095 0.692739
O O4 0.923059 0.000000 0.734208
O O5 0.624389 0.630156 0.579567
O O6 0.748983 0.620879 0.650496
O O7 0.675811 0.748603 0.663003
O O8 0.922098 0.249958 0.000000
O O9 0.000000 0.126725 0.000000
O O10 0.171197 0.500000 0.675008
O O11 0.123318 0.616457 0.583983
O O12 0.135917 0.629715 0.747528
O O13 0.500000 0.122031 0.000000
O O14 0.420713 0.000000 0.000000
O O15 0.120134 0.632434 0.914925
O O16 0.247756 0.630644 0.841725
O O17 0.000000 0.373328 0.000000
O O18 0.731005 0.500000 0.091976
O O19 0.715817 0.377038 0.000000
#
# Coordination Sequence:
#
# PCOD8291192 Si02
#       8
#    16  16   8  16   8  16   8  16
#     4  10  21  37  57  84 119 155 191 235 284 337
#     4  11  21  35  59  86 116 149 192 239 284 340
#     4   9  19  35  54  80 116 156 185 223 285 346
#     4  11  22  38  61  85 111 149 196 240 287 343
#     4   9  21  42  62  80 107 143 188 242 290 336
#     4  11  21  36  61  88 116 152 191 239 287 345
#     4   9  20  37  56  86 120 148 183 231 290 348
#     4  10  20  36  60  86 117 155 192 232 281 345
#
# _framework density 19.809773
#
# number of rings (size 3 to 8) (size 9 to 14) (size 15 to 20)
#    0.000    1.769    2.308    2.308    0.000    1.538 
#    0.000    2.692    0.000    6.000    0.000    0.000 
#    0.000    0.000    0.000    0.000    0.000    0.000 
#
# Total GULP energy -644612.148593 kJ/mol
# GULP energy per Si atom -12396.387473 kJ/mol
# Density = 1.976469 g / cm^3
# Si number density = 19.809773 Si / 1000 Ang^3
#
#
#
# Elastic Constant Matrix: (Units=GPa)
#
#
# Indices 1 2 3 4 5 6 
#
# 1 134.6833 28.0901 53.8427 0.0000 0.0000 0.0000
# 2 28.0901 52.3764 25.0428 0.0000 0.0000 0.0000
# 3 53.8427 25.0428 134.9995 0.0000 0.0000 0.0000
# 4 0.0000 0.0000 0.0000 22.2175 0.0000 0.0000
# 5 0.0000 0.0000 0.0000 0.0000 24.6152 0.0000
# 6 0.0000 0.0000 0.0000 0.0000 0.0000 14.8063
#
#
#
# Elastic Compliance Matrix: (Units=1/GPa)
#
#
# Indices 1 2 3 4 5 6 
#
# 1 0.009403 -0.003566 -0.003089 0.000000 0.000000 0.000000
# 2 -0.003566 0.022303 -0.002715 0.000000 0.000000 0.000000
# 3 -0.003089 -0.002715 0.009143 0.000000 0.000000 0.000000
# 4 0.000000 0.000000 0.000000 0.045010 0.000000 0.000000
# 5 0.000000 0.000000 0.000000 0.000000 0.040625 0.000000
# 6 0.000000 0.000000 0.000000 0.000000 0.000000 0.067539
#
#
# Mechanical properties :
#
#
# Convention : Reuss Voigt Hill
#
# Bulk Modulus (GPa) = 45.22935 59.55671 52.39303
# Shear Modulus (GPa) = 22.71346 26.66669 24.69007
#
# Velocity S-wave (km/s) = 3.38979 3.67296 3.53421
# Velocity P-wave (km/s) = 6.18080 6.93665 6.56960
#
# Compressibility (1/GPa) = 0.02210954
#
# Stress axis : x y z
#
# Youngs Moduli (GPa) = 106.34354 44.83632 109.37292
#
# Poissons Ratio (x) = 0.15990 0.33784
# Poissons Ratio (y) = 0.37925 0.29694
# Poissons Ratio (z) = 0.32848 0.12173
#
# Static dielectric constant tensor:
#      x y z
#    x 3.790560 0.000000 0.000000 
#    y 0.000000 3.328220 0.000000 
#    z 0.000000 0.000000 3.904960 
# 
# 
# High freq. dielectric constant tensor:
#      x y z
#    x 1.775610 0.000000 0.000000 
#    y 0.000000 1.749990 0.000000 
#    z 0.000000 0.000000 1.787720 
# 
# From -- ./inp_files/46166.got.cif
#   From: 2010.06.25/outbox.cif.g09.slc.cpg/sg71_24_cif.got.tgz:46166.got - 2010.06.28 04:59:45.
