data_PCOD8291379
_publ_section_title
;
Structure prediction by ZEFSAII (Michael W. Deem and Ramdas Pophale) SiO2 
 PCOD8291379
Probable space group: I M M M
;
_chemical_formula_sum "Si O2"
_cell_formula_units_Z 80
_cell_length_a 16.551705
_cell_length_b 28.014040
_cell_length_c 9.878813
_cell_angle_alpha 90.000000
_cell_angle_beta 90.000000
_cell_angle_gamma 90.000000
_cell_volume 4580.609256
_symmetry_space_group_name_H-M "I M M M"
_symmetry_group_IT_number 71
_symmetry_cell_setting 'orthorhombic'
loop_
_space_group_symop_operation_xyz
x,y,z
-x,-y,z
x,-y,-z
-x,y,-z
-x,-y,-z
x,y,-z
-x,y,z
x,-y,z
1/2+x,1/2+y,1/2+z
1/2-x,1/2-y,1/2+z
1/2+x,1/2-y,1/2-z
1/2-x,1/2+y,1/2-z
1/2-x,1/2-y,1/2-z
1/2+x,1/2+y,1/2-z
1/2-x,1/2+y,1/2+z
1/2+x,1/2-y,1/2+z
loop_
_atom_site_type_symbol
_atom_site_label
_atom_site_fract_x
_atom_site_fract_y
_atom_site_fract_z
Si Si1 0.333914 0.789465 0.348077
Si Si2 0.132323 0.500000 0.340000
Si Si3 0.500000 0.160995 0.649041
Si Si4 0.200646 0.181641 0.157600
Si Si5 0.500000 0.073678 0.840018
Si Si6 0.314645 0.500000 0.338418
Si Si7 0.591296 0.406500 0.339362
O O1 0.299962 0.797114 0.500000
O O2 0.425087 0.804655 0.333713
O O3 0.282055 0.821995 0.245634
O O4 0.335783 0.733537 0.311379
O O5 0.138660 0.500000 0.500000
O O6 0.081315 0.546176 0.293543
O O7 0.222942 0.500000 0.278576
O O8 0.500000 0.136351 0.500000
O O9 0.500000 0.123551 0.767756
O O10 0.137778 0.141336 0.207293
O O11 0.222487 0.174127 0.000000
O O12 0.500000 0.081431 0.000000
O O13 0.311939 0.500000 0.500000
O O14 0.361216 0.546928 0.284429
O O15 0.587193 0.408601 0.500000
O O16 0.500000 0.405972 0.280100
#
# Coordination Sequence:
#
# PCOD8291379 Si02
#       7
#    16   8   8  16   8   8  16
#     4   9  19  34  49  69 101 133 163 200 241 285
#     4   8  16  30  46  68  99 131 157 195 254 295
#     4  10  21  33  49  72 102 137 164 196 245 292
#     4   9  18  32  52  74  96 127 166 202 238 287
#     4   9  18  32  50  72 100 130 163 203 242 290
#     4   9  16  26  42  67 101 128 151 192 247 296
#     4   9  17  27  44  71 100 126 155 196 245 293
#
# _framework density 17.464925999999998
#
# number of rings (size 3 to 8) (size 9 to 14) (size 15 to 20)
#    0.000    3.000    0.000    0.900    4.200    2.000 
#    0.000    1.000    0.000    0.600    0.000    0.700 
#    0.000    1.600    0.000    0.000    0.000    0.000 
#
# Total GULP energy -495829.630200 kJ/mol
# GULP energy per Si atom -12395.740755 kJ/mol
# Density = 1.742517 g / cm^3
# Si number density = 17.464926 Si / 1000 Ang^3
#
#
#
# Elastic Constant Matrix: (Units=GPa)
#
#
# Indices 1 2 3 4 5 6 
#
# 1 157.8232 67.7028 37.7483 0.0001 -0.0003 -0.0001
# 2 67.7028 105.1510 30.9614 -0.0006 -0.0001 -0.0001
# 3 37.7483 30.9614 38.1328 -0.0054 -0.0004 -0.0007
# 4 0.0001 -0.0006 -0.0054 15.9818 0.0000 -0.0002
# 5 -0.0003 -0.0001 -0.0004 0.0000 18.4689 -0.0001
# 6 -0.0001 -0.0001 -0.0007 -0.0002 -0.0001 27.3959
#
#
#
# Elastic Compliance Matrix: (Units=1/GPa)
#
#
# Indices 1 2 3 4 5 6 
#
# 1 0.009681 -0.004483 -0.005943 -0.000002 0.000000 0.000000
# 2 -0.004483 0.014574 -0.007395 -0.000002 0.000000 0.000000
# 3 -0.005943 -0.007395 0.038112 0.000013 0.000001 0.000001
# 4 -0.000002 -0.000002 0.000013 0.062571 0.000000 0.000001
# 5 0.000000 0.000000 0.000001 0.000000 0.054145 0.000000
# 6 0.000000 0.000000 0.000001 0.000001 0.000000 0.036502
#
#
# Mechanical properties :
#
#
# Convention : Reuss Voigt Hill
#
# Bulk Modulus (GPa) = 37.42014 63.77021 50.59518
# Shear Modulus (GPa) = 19.22067 23.34895 21.28481
#
# Velocity S-wave (km/s) = 3.32102 3.66034 3.49480
# Velocity P-wave (km/s) = 6.01481 7.37948 6.73181
#
# Compressibility (1/GPa) = 0.02672358
#
# Stress axis : x y z
#
# Youngs Moduli (GPa) = 103.29611 68.61418 26.23852
#
# Poissons Ratio (x) = 0.30761 0.15594
# Poissons Ratio (y) = 0.46310 0.19404
# Poissons Ratio (z) = 0.61391 0.50742
#
# Static dielectric constant tensor:
#      x y z
#    x 3.544600 0.000000 0.000000 
#    y 0.000000 3.284260 0.000000 
#    z 0.000000 0.000000 2.926110 
# 
# 
# High freq. dielectric constant tensor:
#      x y z
#    x 1.685400 0.000000 0.000000 
#    y 0.000000 1.680450 0.000000 
#    z 0.000000 0.000000 1.624400 
# 
# From -- ./inp_files/24168.got.cif
#   From: 2010.06.25/outbox.cif.g09.slc.cpg/sg71_13_cif.got.tgz:24168.got - 2010.06.28 04:59:45.
