data_PCOD8291646
_publ_section_title
;
Structure prediction by ZEFSAII (Michael W. Deem and Ramdas Pophale) SiO2 
 PCOD8291646
Probable space group: I M M M
;
_chemical_formula_sum "Si O2"
_cell_formula_units_Z 104
_cell_length_a 23.885270
_cell_length_b 25.906296
_cell_length_c 8.614818
_cell_angle_alpha 90.000000
_cell_angle_beta 90.000000
_cell_angle_gamma 90.000000
_cell_volume 5330.667387
_symmetry_space_group_name_H-M "I M M M"
_symmetry_group_IT_number 71
_symmetry_cell_setting 'orthorhombic'
loop_
_space_group_symop_operation_xyz
x,y,z
-x,-y,z
x,-y,-z
-x,y,-z
-x,-y,-z
x,y,-z
-x,y,z
x,-y,z
1/2+x,1/2+y,1/2+z
1/2-x,1/2-y,1/2+z
1/2+x,1/2-y,1/2-z
1/2-x,1/2+y,1/2-z
1/2-x,1/2-y,1/2-z
1/2+x,1/2+y,1/2-z
1/2-x,1/2+y,1/2+z
1/2+x,1/2-y,1/2+z
loop_
_atom_site_type_symbol
_atom_site_label
_atom_site_fract_x
_atom_site_fract_y
_atom_site_fract_z
Si Si1 0.935505 0.000000 0.331724
Si Si2 0.713377 0.794355 0.679164
Si Si3 0.724223 0.386873 0.317327
Si Si4 0.885268 0.347715 0.682542
Si Si5 0.180201 0.441997 0.819281
Si Si6 0.403373 0.605970 0.317460
Si Si7 0.000000 0.296381 0.317455
Si Si8 0.000000 0.818614 0.184580
O O1 0.921117 0.950106 0.234318
O O2 0.904509 0.000000 0.500000
O O3 0.000000 0.000000 0.365234
O O4 0.701557 0.783069 0.500000
O O5 0.750000 0.750000 0.750000
O O6 0.747286 0.846188 0.704203
O O7 0.654223 0.799929 0.766844
O O8 0.729324 0.373432 0.500000
O O9 0.760939 0.437666 0.277245
O O10 0.660299 0.387545 0.261830
O O11 0.880860 0.356369 0.500000
O O12 0.867046 0.401296 0.763341
O O13 0.947083 0.330625 0.735146
O O14 0.157309 0.500000 0.791253
O O15 0.192166 0.431980 0.000000
O O16 0.406859 0.607597 0.500000
O O17 0.444715 0.650762 0.251825
O O18 0.000000 0.239981 0.241200
O O19 0.000000 0.286733 0.500000
O O20 0.000000 0.818272 0.000000
#
# Coordination Sequence:
#
# PCOD8291646 Si02
#       8
#     8  16  16  16  16  16   8   8
#     4  11  23  37  55  79 107 147 193 240 293 340
#     4  11  22  37  58  84 115 152 192 236 288 343
#     4  10  21  36  56  85 115 147 192 237 285 347
#     4  10  21  40  62  88 119 154 195 239 293 353
#     4  10  21  38  60  88 121 155 191 238 293 349
#     4  10  22  39  58  81 111 149 195 241 289 346
#     4  10  24  42  62  90 122 153 191 243 296 345
#     4  10  22  39  59  83 112 154 200 244 292 347
#
# _framework density 19.509751000000001
#
# number of rings (size 3 to 8) (size 9 to 14) (size 15 to 20)
#    0.000    1.769    0.769    4.846    3.231    4.615 
#    0.000    0.385    0.000    2.308    0.000    0.000 
#    0.000    0.000    0.000    0.000    0.000    0.000 
#
# Total GULP energy -644528.111600 kJ/mol
# GULP energy per Si atom -12394.771377 kJ/mol
# Density = 1.946535 g / cm^3
# Si number density = 19.509751 Si / 1000 Ang^3
#
#
#
# Elastic Constant Matrix: (Units=GPa)
#
#
# Indices 1 2 3 4 5 6 
#
# 1 169.5768 70.3981 34.6469 0.0000 0.0000 0.0000
# 2 70.3981 106.1535 31.0225 0.0000 0.0000 0.0000
# 3 34.6469 31.0225 41.9457 0.0000 0.0000 0.0000
# 4 0.0000 0.0000 0.0000 32.6732 0.0000 0.0000
# 5 0.0000 0.0000 0.0000 0.0000 22.9340 0.0000
# 6 0.0000 0.0000 0.0000 0.0000 0.0000 17.5695
#
#
#
# Elastic Compliance Matrix: (Units=1/GPa)
#
#
# Indices 1 2 3 4 5 6 
#
# 1 0.008557 -0.004604 -0.003663 0.000000 0.000000 0.000000
# 2 -0.004604 0.014495 -0.006917 0.000000 0.000000 0.000000
# 3 -0.003663 -0.006917 0.031982 0.000000 0.000000 0.000000
# 4 0.000000 0.000000 0.000000 0.030606 0.000000 0.000000
# 5 0.000000 0.000000 0.000000 0.000000 0.043603 0.000000
# 6 0.000000 0.000000 0.000000 0.000000 0.000000 0.056917
#
#
# Mechanical properties :
#
#
# Convention : Reuss Voigt Hill
#
# Bulk Modulus (GPa) = 40.54303 65.53455 53.03879
# Shear Modulus (GPa) = 22.24692 26.74259 24.49476
#
# Velocity S-wave (km/s) = 3.38049 3.70635 3.54717
# Velocity P-wave (km/s) = 6.00525 7.20969 6.63486
#
# Compressibility (1/GPa) = 0.02466515
#
# Stress axis : x y z
#
# Youngs Moduli (GPa) = 116.86671 68.98794 31.26792
#
# Poissons Ratio (x) = 0.31764 0.11452
# Poissons Ratio (y) = 0.53808 0.21629
# Poissons Ratio (z) = 0.42804 0.47722
#
# Static dielectric constant tensor:
#      x y z
#    x 3.964060 0.000000 0.000000 
#    y 0.000000 3.948620 0.000000 
#    z 0.000000 0.000000 3.550320 
# 
# 
# High freq. dielectric constant tensor:
#      x y z
#    x 1.762200 0.000000 0.000000 
#    y 0.000000 1.760860 0.000000 
#    z 0.000000 0.000000 1.764180 
# 
# From -- ./inp_files/13384.got.cif
#   From: 2010.06.25/outbox.cif.g09.slc.cpg/sg71_7_cif.got.tgz:13384.got - 2010.06.28 04:59:45.
