data_PCOD8291099
_publ_section_title
;
Structure prediction by ZEFSAII (Michael W. Deem and Ramdas Pophale) SiO2 
 PCOD8291099
Probable space group: I M M M
;
_chemical_formula_sum "Si O2"
_cell_formula_units_Z 88
_cell_length_a 25.599759
_cell_length_b 8.065632
_cell_length_c 21.483819
_cell_angle_alpha 90.000000
_cell_angle_beta 90.000000
_cell_angle_gamma 90.000000
_cell_volume 4435.941036
_symmetry_space_group_name_H-M "I M M M"
_symmetry_group_IT_number 71
_symmetry_cell_setting 'orthorhombic'
loop_
_space_group_symop_operation_xyz
x,y,z
-x,-y,z
x,-y,-z
-x,y,-z
-x,-y,-z
x,y,-z
-x,y,z
x,-y,z
1/2+x,1/2+y,1/2+z
1/2-x,1/2-y,1/2+z
1/2+x,1/2-y,1/2-z
1/2-x,1/2+y,1/2-z
1/2-x,1/2-y,1/2-z
1/2+x,1/2+y,1/2-z
1/2-x,1/2+y,1/2+z
1/2+x,1/2-y,1/2+z
loop_
_atom_site_type_symbol
_atom_site_label
_atom_site_fract_x
_atom_site_fract_y
_atom_site_fract_z
Si Si1 0.500000 0.697727 0.125961
Si Si2 0.000000 0.806534 0.235648
Si Si3 0.890298 0.197683 0.429646
Si Si4 0.943468 0.500000 0.072091
Si Si5 0.200199 0.185932 0.806080
Si Si6 0.694339 0.691386 0.831809
Si Si7 0.587758 0.313056 0.359679
O O1 0.500000 0.500000 0.126834
O O2 0.500000 0.774953 0.195855
O O3 0.552375 0.761615 0.091432
O O4 0.052287 0.755777 0.198546
O O5 0.000000 0.000000 0.247005
O O6 0.879304 0.262035 0.500000
O O7 0.845401 0.271065 0.382800
O O8 0.888936 0.000000 0.428831
O O9 0.915401 0.672472 0.088199
O O10 0.000000 0.500000 0.105214
O O11 0.950119 0.500000 0.000000
O O12 0.244216 0.280898 0.847417
O O13 0.188730 0.268437 0.738117
O O14 0.147811 0.185688 0.844065
O O15 0.220970 0.000000 0.795330
O O16 0.679335 0.500000 0.829906
O O17 0.570746 0.500000 0.382052
#
# Coordination Sequence:
#
# PCOD8291099 Si02
#       7
#     8   8  16   8  16  16  16
#     4   9  15  24  44  73 106 140 175 215 259 316
#     4   9  16  28  49  77 106 138 173 215 272 319
#     4   9  16  26  42  69 105 141 176 213 259 317
#     4  11  24  40  58  82 112 146 184 223 277 345
#     4   9  18  32  52  76 104 136 179 228 277 327
#     4   9  17  30  49  75 105 141 177 223 279 325
#     4  10  20  36  57  82 112 146 182 229 279 331
#
# _framework density 19.837955000000001
#
# number of rings (size 3 to 8) (size 9 to 14) (size 15 to 20)
#    0.000    2.636    0.909    1.364    1.273    5.818 
#    0.000    1.818    0.000    1.636    0.000    0.000 
#    0.000    1.455    0.000    0.000    0.000    0.000 
#
# Total GULP energy -545087.812393 kJ/mol
# GULP energy per Si atom -12388.359373 kJ/mol
# Density = 1.979280 g / cm^3
# Si number density = 19.837955 Si / 1000 Ang^3
#
#
#
# Elastic Constant Matrix: (Units=GPa)
#
#
# Indices 1 2 3 4 5 6 
#
# 1 144.4117 20.4522 63.6000 0.0000 0.0000 0.0000
# 2 20.4522 56.3572 29.3616 0.0000 0.0000 0.0000
# 3 63.6000 29.3616 106.7099 0.0000 0.0000 0.0000
# 4 0.0000 0.0000 0.0000 17.3565 0.0000 0.0000
# 5 0.0000 0.0000 0.0000 0.0000 21.8750 0.0000
# 6 0.0000 0.0000 0.0000 0.0000 0.0000 23.5853
#
#
#
# Elastic Compliance Matrix: (Units=1/GPa)
#
#
# Indices 1 2 3 4 5 6 
#
# 1 0.009405 -0.000575 -0.005447 0.000000 0.000000 0.000000
# 2 -0.000575 0.020748 -0.005366 0.000000 0.000000 0.000000
# 3 -0.005447 -0.005366 0.014094 0.000000 0.000000 0.000000
# 4 0.000000 0.000000 0.000000 0.057615 0.000000 0.000000
# 5 0.000000 0.000000 0.000000 0.000000 0.045714 0.000000
# 6 0.000000 0.000000 0.000000 0.000000 0.000000 0.042399
#
#
# Mechanical properties :
#
#
# Convention : Reuss Voigt Hill
#
# Bulk Modulus (GPa) = 46.57525 59.36736 52.97131
# Shear Modulus (GPa) = 22.73647 25.50102 24.11875
#
# Velocity S-wave (km/s) = 3.38910 3.58923 3.49060
# Velocity P-wave (km/s) = 6.23245 6.86789 6.55787
#
# Compressibility (1/GPa) = 0.02147063
#
# Stress axis : x y z
#
# Youngs Moduli (GPa) = 106.32498 48.19641 70.95041
#
# Poissons Ratio (x) = 0.02772 0.38649
# Poissons Ratio (y) = 0.06116 0.38073
# Poissons Ratio (z) = 0.57918 0.25863
#
# Static dielectric constant tensor:
#      x y z
#    x 3.812100 0.000000 0.000000 
#    y 0.000000 3.597270 0.000000 
#    z 0.000000 0.000000 3.601560 
# 
# 
# High freq. dielectric constant tensor:
#      x y z
#    x 1.783480 0.000000 0.000000 
#    y 0.000000 1.738530 0.000000 
#    z 0.000000 0.000000 1.753300 
# 
# From -- ./inp_files/55628.got.cif
#   From: 2010.06.25/outbox.cif.g09.slc.cpg/sg71_28_cif.got.tgz:55628.got - 2010.06.28 04:59:45.
