data_PCOD8291211
_publ_section_title
;
Structure prediction by ZEFSAII (Michael W. Deem and Ramdas Pophale) SiO2 
 PCOD8291211
Probable space group: I M M M
;
_chemical_formula_sum "Si O2"
_cell_formula_units_Z 88
_cell_length_a 8.770163
_cell_length_b 29.852620
_cell_length_c 16.657523
_cell_angle_alpha 90.000000
_cell_angle_beta 90.000000
_cell_angle_gamma 90.000000
_cell_volume 4361.145131
_symmetry_space_group_name_H-M "I M M M"
_symmetry_group_IT_number 71
_symmetry_cell_setting 'orthorhombic'
loop_
_space_group_symop_operation_xyz
x,y,z
-x,-y,z
x,-y,-z
-x,y,-z
-x,-y,-z
x,y,-z
-x,y,z
x,-y,z
1/2+x,1/2+y,1/2+z
1/2-x,1/2-y,1/2+z
1/2+x,1/2-y,1/2-z
1/2-x,1/2+y,1/2-z
1/2-x,1/2-y,1/2-z
1/2+x,1/2+y,1/2-z
1/2-x,1/2+y,1/2+z
1/2+x,1/2-y,1/2+z
loop_
_atom_site_type_symbol
_atom_site_label
_atom_site_fract_x
_atom_site_fract_y
_atom_site_fract_z
Si Si1 0.670565 0.550417 0.406571
Si Si2 0.178718 0.885799 0.634078
Si Si3 0.819391 0.447829 0.000000
Si Si4 0.323959 0.880421 0.803305
Si Si5 0.832018 0.294023 0.093500
Si Si6 0.820334 0.703850 0.592000
O O1 0.705724 0.552012 0.500000
O O2 0.500000 0.569028 0.388841
O O3 0.682961 0.500000 0.374188
O O4 0.800618 0.578975 0.364111
O O5 0.258796 0.923407 0.579714
O O6 0.223230 0.891875 0.726244
O O7 0.225323 0.836072 0.609080
O O8 0.000000 0.891710 0.622219
O O9 0.768086 0.500000 0.000000
O O10 0.000000 0.443545 0.000000
O O11 0.500000 0.876850 0.778472
O O12 0.267676 0.835496 0.848260
O O13 0.756300 0.248797 0.127388
O O14 0.000000 0.301079 0.133066
O O15 0.851349 0.287559 0.000000
O O16 0.768938 0.693170 0.500000
O O17 0.000000 0.710615 0.594448
#
# Coordination Sequence:
#
# PCOD8291211 Si02
#       6
#    16  16   8  16  16  16
#     4   9  19  37  60  85 116 156 199 244 296 358
#     4  12  25  41  64  90 120 159 198 244 302 365
#     4  11  25  47  73  97 121 151 195 253 312 371
#     4  11  23  38  58  87 124 161 201 254 304 354
#     4  10  20  36  61  88 118 156 201 250 298 357
#     4   9  19  36  58  86 121 161 205 250 298 353
#
# _framework density 20.178187000000001
#
# number of rings (size 3 to 8) (size 9 to 14) (size 15 to 20)
#    0.000    1.727    0.909    4.091    0.000    5.818 
#    0.000    2.727    0.000    0.000    0.000    0.000 
#    0.000    0.000    0.000    0.000    0.000    0.000 
#
# Total GULP energy -545614.621048 kJ/mol
# GULP energy per Si atom -12400.332297 kJ/mol
# Density = 2.013226 g / cm^3
# Si number density = 20.178187 Si / 1000 Ang^3
#
#
#
# Elastic Constant Matrix: (Units=GPa)
#
#
# Indices 1 2 3 4 5 6 
#
# 1 85.3410 51.8376 38.2523 -0.0001 0.0000 0.0000
# 2 51.8376 148.2742 65.0231 -0.0003 0.0000 0.0000
# 3 38.2523 65.0231 78.2830 -0.0014 0.0000 -0.0001
# 4 -0.0001 -0.0003 -0.0014 2.7693 0.0000 -0.0001
# 5 0.0000 0.0000 0.0000 0.0000 26.7344 -0.0001
# 6 0.0000 0.0000 -0.0001 -0.0001 -0.0001 46.2280
#
#
#
# Elastic Compliance Matrix: (Units=1/GPa)
#
#
# Indices 1 2 3 4 5 6 
#
# 1 0.016031 -0.003412 -0.004999 -0.000002 0.000000 0.000000
# 2 -0.003412 0.011335 -0.007747 -0.000003 0.000000 0.000000
# 3 -0.004999 -0.007747 0.021652 0.000010 0.000000 0.000000
# 4 -0.000002 -0.000003 0.000010 0.361104 0.000000 0.000001
# 5 0.000000 0.000000 0.000000 0.000000 0.037405 0.000000
# 6 0.000000 0.000000 0.000000 0.000001 0.000000 0.021632
#
#
# Mechanical properties :
#
#
# Convention : Reuss Voigt Hill
#
# Bulk Modulus (GPa) = 59.87952 69.12493 64.50222
# Shear Modulus (GPa) = 9.86108 25.59868 17.72988
#
# Velocity S-wave (km/s) = 2.21305 3.56565 2.96745
# Velocity P-wave (km/s) = 6.02245 7.16124 6.61640
#
# Compressibility (1/GPa) = 0.01670020
#
# Stress axis : x y z
#
# Youngs Moduli (GPa) = 62.37852 88.22456 46.18487
#
# Poissons Ratio (x) = 0.30105 0.23089
# Poissons Ratio (y) = 0.21285 0.35781
# Poissons Ratio (z) = 0.31184 0.68351
#
# Static dielectric constant tensor:
#      x y z
#    x 3.746350 0.000000 0.000000 
#    y 0.000000 3.818590 0.000000 
#    z 0.000000 0.000000 3.666070 
# 
# 
# High freq. dielectric constant tensor:
#      x y z
#    x 1.790780 0.000000 0.000000 
#    y 0.000000 1.794970 0.000000 
#    z 0.000000 0.000000 1.783470 
# 
# From -- ./inp_files/42509.got.cif
#   From: 2010.06.25/outbox.cif.g09.slc.cpg/sg71_22_cif.got.tgz:42509.got - 2010.06.28 04:59:45.
