data_PCOD8291050
_publ_section_title
;
Structure prediction by ZEFSAII (Michael W. Deem and Ramdas Pophale) SiO2 
 PCOD8291050
Probable space group: I M M M
;
_chemical_formula_sum "Si O2"
_cell_formula_units_Z 96
_cell_length_a 29.180479
_cell_length_b 19.218780
_cell_length_c 9.176790
_cell_angle_alpha 90.000000
_cell_angle_beta 90.000000
_cell_angle_gamma 90.000000
_cell_volume 5146.465022
_symmetry_space_group_name_H-M "I M M M"
_symmetry_group_IT_number 71
_symmetry_cell_setting 'orthorhombic'
loop_
_space_group_symop_operation_xyz
x,y,z
-x,-y,z
x,-y,-z
-x,y,-z
-x,-y,-z
x,y,-z
-x,y,z
x,-y,z
1/2+x,1/2+y,1/2+z
1/2-x,1/2-y,1/2+z
1/2+x,1/2-y,1/2-z
1/2-x,1/2+y,1/2-z
1/2-x,1/2-y,1/2-z
1/2+x,1/2+y,1/2-z
1/2-x,1/2+y,1/2+z
1/2+x,1/2-y,1/2+z
loop_
_atom_site_type_symbol
_atom_site_label
_atom_site_fract_x
_atom_site_fract_y
_atom_site_fract_z
Si Si1 0.616387 0.831875 0.828822
Si Si2 0.624906 0.322664 0.829560
Si Si3 0.051925 0.080479 0.829084
Si Si4 0.203397 0.581150 0.328626
Si Si5 0.231227 0.180334 0.328042
Si Si6 0.553844 0.923299 0.339082
O O1 0.615941 0.754278 0.765749
O O2 0.658970 0.877277 0.771844
O O3 0.570024 0.867911 0.778222
O O4 0.618394 0.828546 0.000000
O O5 0.590966 0.375843 0.751206
O O6 0.678144 0.336101 0.796643
O O7 0.614181 0.327834 0.000000
O O8 0.000000 0.102865 0.782496
O O9 0.059536 0.000000 0.788415
O O10 0.057971 0.092359 0.000000
O O11 0.212069 0.593306 0.500000
O O12 0.197490 0.500000 0.292521
O O13 0.245120 0.611811 0.236389
O O14 0.240262 0.189220 0.500000
O O15 0.250000 0.250000 0.250000
O O16 0.573036 0.905128 0.500000
O O17 0.500000 0.920994 0.341902
O O18 0.570871 0.000000 0.292494
#
# Coordination Sequence:
#
# PCOD8291050 Si02
#       6
#    16  16  16  16  16  16
#     4  10  20  36  55  78 110 146 184 227 276 333
#     4  10  22  38  58  85 116 149 188 232 282 342
#     4   9  20  40  63  87 117 152 192 239 290 348
#     4  10  21  38  59  83 114 151 190 234 286 340
#     4  11  22  39  60  82 115 154 194 240 290 346
#     4   9  19  35  52  73 105 142 181 228 277 324
#
# _framework density 18.653580999999999
#
# number of rings (size 3 to 8) (size 9 to 14) (size 15 to 20)
#    0.000    2.167    1.667    2.000    0.000    6.333 
#    0.000    8.333    0.000    0.000    0.000    0.000 
#    0.000    0.000    0.000    0.000    0.000    0.000 
#
# Total GULP energy -595048.206825 kJ/mol
# GULP energy per Si atom -12396.837642 kJ/mol
# Density = 1.861112 g / cm^3
# Si number density = 18.653581 Si / 1000 Ang^3
#
#
#
# Elastic Constant Matrix: (Units=GPa)
#
#
# Indices 1 2 3 4 5 6 
#
# 1 109.7161 74.8044 51.2370 0.0000 0.0000 0.0000
# 2 74.8044 137.2073 52.6237 0.0000 0.0000 0.0000
# 3 51.2370 52.6237 48.1407 0.0000 0.0000 0.0000
# 4 0.0000 0.0000 0.0000 33.2166 0.0000 0.0000
# 5 0.0000 0.0000 0.0000 0.0000 36.5513 0.0000
# 6 0.0000 0.0000 0.0000 0.0000 0.0000 41.7373
#
#
#
# Elastic Compliance Matrix: (Units=1/GPa)
#
#
# Indices 1 2 3 4 5 6 
#
# 1 0.019704 -0.004648 -0.015891 0.000000 0.000000 0.000000
# 2 -0.004648 0.013646 -0.009970 0.000000 0.000000 0.000000
# 3 -0.015891 -0.009970 0.048584 0.000000 0.000000 0.000000
# 4 0.000000 0.000000 0.000000 0.030105 0.000000 0.000000
# 5 0.000000 0.000000 0.000000 0.000000 0.027359 0.000000
# 6 0.000000 0.000000 0.000000 0.000000 0.000000 0.023959
#
#
# Mechanical properties :
#
#
# Convention : Reuss Voigt Hill
#
# Bulk Modulus (GPa) = 47.80890 72.48827 60.14859
# Shear Modulus (GPa) = 21.61245 30.06096 25.83671
#
# Velocity S-wave (km/s) = 3.40755 4.01875 3.72570
# Velocity P-wave (km/s) = 6.41618 7.77679 7.12902
#
# Compressibility (1/GPa) = 0.02091661
#
# Stress axis : x y z
#
# Youngs Moduli (GPa) = 50.74990 73.28106 20.58296
#
# Poissons Ratio (x) = 0.34061 0.32708
# Poissons Ratio (y) = 0.23588 0.20521
# Poissons Ratio (z) = 0.80647 0.73061
#
# Static dielectric constant tensor:
#      x y z
#    x 3.453800 0.000000 0.000000 
#    y 0.000000 3.594030 0.000000 
#    z 0.000000 0.000000 3.445840 
# 
# 
# High freq. dielectric constant tensor:
#      x y z
#    x 1.728960 0.000000 0.000000 
#    y 0.000000 1.731070 0.000000 
#    z 0.000000 0.000000 1.717190 
# 
# From -- ./inp_files/10902.got.cif
#   From: 2010.06.25/outbox.cif.g09.slc.cpg/sg71_6_cif.got.tgz:10902.got - 2010.06.28 04:59:45.
