data_PCOD8291935
_publ_section_title
;
Structure prediction by ZEFSAII (Michael W. Deem and Ramdas Pophale) SiO2 
 PCOD8291935
Probable space group: I M M M
;
_chemical_formula_sum "Si O2"
_cell_formula_units_Z 96
_cell_length_a 19.855270
_cell_length_b 28.500817
_cell_length_c 9.161319
_cell_angle_alpha 90.000000
_cell_angle_beta 90.000000
_cell_angle_gamma 90.000000
_cell_volume 5184.311788
_symmetry_space_group_name_H-M "I M M M"
_symmetry_group_IT_number 71
_symmetry_cell_setting 'orthorhombic'
loop_
_space_group_symop_operation_xyz
x,y,z
-x,-y,z
x,-y,-z
-x,y,-z
-x,-y,-z
x,y,-z
-x,y,z
x,-y,z
1/2+x,1/2+y,1/2+z
1/2-x,1/2-y,1/2+z
1/2+x,1/2-y,1/2-z
1/2-x,1/2+y,1/2-z
1/2-x,1/2-y,1/2-z
1/2+x,1/2+y,1/2-z
1/2-x,1/2+y,1/2+z
1/2+x,1/2-y,1/2+z
loop_
_atom_site_type_symbol
_atom_site_label
_atom_site_fract_x
_atom_site_fract_y
_atom_site_fract_z
Si Si1 0.808466 0.406241 0.169241
Si Si2 0.421112 0.622508 0.828843
Si Si3 0.073558 0.554789 0.659951
Si Si4 0.656765 0.714199 0.170334
Si Si5 0.677946 0.445097 0.672869
Si Si6 0.810256 0.300460 0.832600
O O1 0.872919 0.435966 0.213866
O O2 0.744450 0.421131 0.263317
O O3 0.832285 0.353265 0.200215
O O4 0.790060 0.414021 0.000000
O O5 0.500000 0.621496 0.795380
O O6 0.391836 0.672566 0.773685
O O7 0.387301 0.579820 0.741614
O O8 0.405274 0.615953 0.000000
O O9 0.096396 0.574598 0.500000
O O10 0.066244 0.500000 0.645937
O O11 0.000000 0.575984 0.701712
O O12 0.732452 0.701274 0.215920
O O13 0.641477 0.764435 0.245191
O O14 0.646624 0.721099 0.000000
O O15 0.677404 0.437935 0.500000
O O16 0.676291 0.500000 0.714444
O O17 0.817776 0.286549 0.000000
#
# Coordination Sequence:
#
# PCOD8291935 Si02
#       6
#    16  16  16  16  16  16
#     4  11  21  35  56  84 115 146 183 231 280 328
#     4  10  21  39  61  83 111 147 187 234 287 340
#     4   9  19  36  55  76 107 146 185 225 272 328
#     4   9  17  33  54  79 107 137 176 219 265 323
#     4  11  24  39  56  81 113 148 190 238 284 334
#     4   9  18  32  52  79 109 138 173 219 269 320
#
# _framework density 18.517405
#
# number of rings (size 3 to 8) (size 9 to 14) (size 15 to 20)
#    0.000    2.167    1.667    2.000    0.000    6.667 
#    0.000    3.333    0.000    3.000    0.000    0.000 
#    0.000    0.000    0.000    0.000    0.000    0.000 
#
# Total GULP energy -595050.715939 kJ/mol
# GULP energy per Si atom -12396.889915 kJ/mol
# Density = 1.847526 g / cm^3
# Si number density = 18.517405 Si / 1000 Ang^3
#
#
#
# Elastic Constant Matrix: (Units=GPa)
#
#
# Indices 1 2 3 4 5 6 
#
# 1 88.8575 40.4617 39.6141 0.0000 0.0000 0.0000
# 2 40.4617 94.7941 50.2007 0.0000 0.0000 0.0000
# 3 39.6141 50.2007 68.7243 0.0000 0.0000 0.0000
# 4 0.0000 0.0000 0.0000 35.1539 0.0000 0.0000
# 5 0.0000 0.0000 0.0000 0.0000 25.6224 0.0000
# 6 0.0000 0.0000 0.0000 0.0000 0.0000 28.1867
#
#
#
# Elastic Compliance Matrix: (Units=1/GPa)
#
#
# Indices 1 2 3 4 5 6 
#
# 1 0.015689 -0.003111 -0.006771 0.000000 0.000000 0.000000
# 2 -0.003111 0.017821 -0.011225 0.000000 0.000000 0.000000
# 3 -0.006771 -0.011225 0.026653 0.000000 0.000000 0.000000
# 4 0.000000 0.000000 0.000000 0.028446 0.000000 0.000000
# 5 0.000000 0.000000 0.000000 0.000000 0.039028 0.000000
# 6 0.000000 0.000000 0.000000 0.000000 0.000000 0.035478
#
#
# Mechanical properties :
#
#
# Convention : Reuss Voigt Hill
#
# Bulk Modulus (GPa) = 55.70961 56.99209 56.35085
# Shear Modulus (GPa) = 23.66154 25.93255 24.79704
#
# Velocity S-wave (km/s) = 3.57851 3.74631 3.66337
# Velocity P-wave (km/s) = 6.87202 7.03971 6.95637
#
# Compressibility (1/GPa) = 0.01795022
#
# Stress axis : x y z
#
# Youngs Moduli (GPa) = 63.73793 56.11238 37.51893
#
# Poissons Ratio (x) = 0.17456 0.25405
# Poissons Ratio (y) = 0.19828 0.42114
# Poissons Ratio (z) = 0.43158 0.62985
#
# Static dielectric constant tensor:
#      x y z
#    x 3.317550 0.000000 0.000000 
#    y 0.000000 3.586230 0.000000 
#    z 0.000000 0.000000 3.399700 
# 
# 
# High freq. dielectric constant tensor:
#      x y z
#    x 1.704140 0.000000 0.000000 
#    y 0.000000 1.722910 0.000000 
#    z 0.000000 0.000000 1.716870 
# 
# From -- ./inp_files/10881.got.cif
#   From: 2010.06.25/outbox.cif.g09.slc.cpg/sg71_6_cif.got.tgz:10881.got - 2010.06.28 04:59:45.
