data_PCOD8291034
_publ_section_title
;
Structure prediction by ZEFSAII (Michael W. Deem and Ramdas Pophale) SiO2 
 PCOD8291034
Probable space group: I M M M
;
_chemical_formula_sum "Si O2"
_cell_formula_units_Z 88
_cell_length_a 17.663954
_cell_length_b 14.720179
_cell_length_c 16.567794
_cell_angle_alpha 90.000000
_cell_angle_beta 90.000000
_cell_angle_gamma 90.000000
_cell_volume 4307.900881
_symmetry_space_group_name_H-M "I M M M"
_symmetry_group_IT_number 71
_symmetry_cell_setting 'orthorhombic'
loop_
_space_group_symop_operation_xyz
x,y,z
-x,-y,z
x,-y,-z
-x,y,-z
-x,-y,-z
x,y,-z
-x,y,z
x,-y,z
1/2+x,1/2+y,1/2+z
1/2-x,1/2-y,1/2+z
1/2+x,1/2-y,1/2-z
1/2-x,1/2+y,1/2-z
1/2-x,1/2-y,1/2-z
1/2+x,1/2+y,1/2-z
1/2-x,1/2+y,1/2+z
1/2+x,1/2-y,1/2+z
loop_
_atom_site_type_symbol
_atom_site_label
_atom_site_fract_x
_atom_site_fract_y
_atom_site_fract_z
Si Si1 0.500000 0.396785 0.403843
Si Si2 0.853283 0.791183 0.094867
Si Si3 0.799479 0.600572 0.845843
Si Si4 0.843820 0.178297 0.406211
Si Si5 0.000000 0.901924 0.404585
Si Si6 0.202523 0.641806 0.661887
Si Si7 0.413526 0.000000 0.094513
O O1 0.500000 0.500000 0.369803
O O2 0.500000 0.399982 0.500000
O O3 0.572697 0.341774 0.371309
O O4 0.850221 0.687683 0.129546
O O5 0.783093 0.857922 0.115806
O O6 0.856544 0.779173 0.000000
O O7 0.836230 0.500000 0.864028
O O8 0.719871 0.601243 0.894475
O O9 0.783991 0.605605 0.750864
O O10 0.843911 0.210759 0.500000
O O11 0.925465 0.148521 0.375965
O O12 0.823620 0.254583 0.341160
O O13 0.000000 0.912070 0.500000
O O14 0.000000 0.000000 0.363220
O O15 0.135117 0.587111 0.619395
O O16 0.500000 0.000000 0.131961
O O17 0.423365 0.000000 0.000000
#
# Coordination Sequence:
#
# PCOD8291034 Si02
#       7
#     8  16  16  16   8  16   8
#     4   9  20  38  62  93 120 146 190 256 312 355
#     4  10  21  39  64  91 119 156 204 251 301 362
#     4  11  22  39  58  84 121 164 202 248 300 366
#     4  10  20  35  60  86 117 158 204 252 303 359
#     4   9  18  32  53  87 120 150 193 248 300 351
#     4  11  22  40  57  87 120 157 198 247 302 362
#     4  11  24  40  62  89 118 154 203 249 292 356
#
# _framework density 20.427582000000001
#
# number of rings (size 3 to 8) (size 9 to 14) (size 15 to 20)
#    0.000    1.727    0.909    6.000    2.545    2.182 
#    1.636    3.182    0.000    6.000    0.000    0.000 
#    0.000    0.000    0.000    0.000    0.000    0.000 
#
# Total GULP energy -545180.631893 kJ/mol
# GULP energy per Si atom -12390.468907 kJ/mol
# Density = 2.038109 g / cm^3
# Si number density = 20.427582 Si / 1000 Ang^3
#
#
#
# Elastic Constant Matrix: (Units=GPa)
#
#
# Indices 1 2 3 4 5 6 
#
# 1 176.0914 76.2212 17.5076 0.0000 0.0000 0.0000
# 2 76.2212 135.4158 24.0376 0.0000 0.0000 0.0000
# 3 17.5076 24.0376 53.2768 0.0000 0.0000 0.0000
# 4 0.0000 0.0000 0.0000 -127.4835 0.0000 0.0000
# 5 0.0000 0.0000 0.0000 0.0000 1.6795 0.0000
# 6 0.0000 0.0000 0.0000 0.0000 0.0000 18.1710
#
#
#
# Elastic Compliance Matrix: (Units=1/GPa)
#
#
# Indices 1 2 3 4 5 6 
#
# 1 0.007526 -0.004128 -0.000611 0.000000 0.000000 0.000000
# 2 -0.004128 0.010292 -0.003287 0.000000 0.000000 0.000000
# 3 -0.000611 -0.003287 0.020454 0.000000 0.000000 0.000000
# 4 0.000000 0.000000 0.000000 -0.007844 0.000000 0.000000
# 5 0.000000 0.000000 0.000000 0.000000 0.595416 0.000000
# 6 0.000000 0.000000 0.000000 0.000000 0.000000 0.055033
#
#
# Mechanical properties :
#
#
# Convention : Reuss Voigt Hill
#
# Bulk Modulus (GPa) = 45.00392 66.70185 55.85289
# Shear Modulus (GPa) = 7.09890 -5.05878 1.02006
#
# Velocity S-wave (km/s) = 1.86620 -1.57538 0.70742
# Velocity P-wave (km/s) = 5.16937 5.42353 5.29797
#
# Compressibility (1/GPa) = 0.02222028
#
# Stress axis : x y z
#
# Youngs Moduli (GPa) = 132.86605 97.16663 48.89110
#
# Poissons Ratio (x) = 0.40110 0.02986
# Poissons Ratio (y) = 0.54846 0.16070
# Poissons Ratio (z) = 0.08116 0.31938
#
# Static dielectric constant tensor:
#      x y z
#    x 4.344120 0.000000 0.000000 
#    y 0.000000 4.594220 0.000000 
#    z 0.000000 0.000000 3.493190 
# 
# 
# High freq. dielectric constant tensor:
#      x y z
#    x 1.796490 0.000000 0.000000 
#    y 0.000000 1.806480 0.000000 
#    z 0.000000 0.000000 1.785740 
# 
# From -- ./inp_files/45915.got.cif
#   From: 2010.06.25/outbox.cif.g09.slc.cpg/sg71_23_cif.got.tgz:45915.got - 2010.06.28 04:59:45.
