data_PCOD8291348
_publ_section_title
;
Structure prediction by ZEFSAII (Michael W. Deem and Ramdas Pophale) SiO2 
 PCOD8291348
Probable space group: I M M M
;
_chemical_formula_sum "Si O2"
_cell_formula_units_Z 88
_cell_length_a 16.625046
_cell_length_b 11.737072
_cell_length_c 23.562930
_cell_angle_alpha 90.000000
_cell_angle_beta 90.000000
_cell_angle_gamma 90.000000
_cell_volume 4597.819496
_symmetry_space_group_name_H-M "I M M M"
_symmetry_group_IT_number 71
_symmetry_cell_setting 'orthorhombic'
loop_
_space_group_symop_operation_xyz
x,y,z
-x,-y,z
x,-y,-z
-x,y,-z
-x,-y,-z
x,y,-z
-x,y,z
x,-y,z
1/2+x,1/2+y,1/2+z
1/2-x,1/2-y,1/2+z
1/2+x,1/2-y,1/2-z
1/2-x,1/2+y,1/2-z
1/2-x,1/2-y,1/2-z
1/2+x,1/2+y,1/2-z
1/2-x,1/2+y,1/2+z
1/2+x,1/2-y,1/2+z
loop_
_atom_site_type_symbol
_atom_site_label
_atom_site_fract_x
_atom_site_fract_y
_atom_site_fract_z
Si Si1 0.742002 0.000000 0.564444
Si Si2 0.410874 0.500000 0.112128
Si Si3 0.409864 0.633358 0.436605
Si Si4 0.800862 0.714266 0.863062
Si Si5 0.500000 0.134961 0.932848
Si Si6 0.618916 0.253227 0.850363
Si Si7 0.089003 0.369895 0.764265
O O1 0.839612 0.000000 0.565633
O O2 0.704208 0.108561 0.594660
O O3 0.712980 0.000000 0.500000
O O4 0.500000 0.500000 0.083418
O O5 0.401306 0.387883 0.150970
O O6 0.379166 0.661987 0.500000
O O7 0.500000 0.681297 0.428520
O O8 0.409441 0.500000 0.425987
O O9 0.352130 0.687074 0.390823
O O10 0.713964 0.767077 0.851211
O O11 0.842323 0.679124 0.804550
O O12 0.579082 0.192427 0.905175
O O13 0.500000 0.000000 0.920987
O O14 0.500000 0.161058 0.000000
O O15 0.584020 0.199946 0.793668
O O16 0.110693 0.500000 0.749816
O O17 0.000000 0.361761 0.792712
#
# Coordination Sequence:
#
# PCOD8291348 Si02
#       7
#     8   8  16  16   8  16  16
#     4  10  22  37  57  88 128 157 195 258 300 353
#     4  10  20  39  60  87 123 160 209 242 300 386
#     4   9  19  37  59  83 117 157 199 247 304 369
#     4  11  22  39  59  91 122 156 211 250 307 372
#     4  11  24  43  67  97 129 162 213 262 303 375
#     4  11  23  41  62  90 125 163 201 254 314 366
#     4  11  22  40  65  86 119 164 208 258 309 368
#
# _framework density 19.139506999999998
#
# number of rings (size 3 to 8) (size 9 to 14) (size 15 to 20)
#    0.000    1.545    2.727    2.727    0.000    5.273 
#    1.636    1.818    0.000    2.182    0.000    0.000 
#    0.000    0.000    0.000    0.000    0.000    0.000 
#
# Total GULP energy -545632.748558 kJ/mol
# GULP energy per Si atom -12400.744285 kJ/mol
# Density = 1.909595 g / cm^3
# Si number density = 19.139507 Si / 1000 Ang^3
#
#
#
# Elastic Constant Matrix: (Units=GPa)
#
#
# Indices 1 2 3 4 5 6 
#
# 1 124.6004 46.2983 51.3322 0.0000 0.0000 0.0000
# 2 46.2983 95.4931 46.7311 0.0000 0.0000 0.0000
# 3 51.3322 46.7311 115.9318 0.0000 0.0000 0.0000
# 4 0.0000 0.0000 0.0000 34.8120 0.0000 0.0000
# 5 0.0000 0.0000 0.0000 0.0000 29.4289 0.0000
# 6 0.0000 0.0000 0.0000 0.0000 0.0000 29.7173
#
#
#
# Elastic Compliance Matrix: (Units=1/GPa)
#
#
# Indices 1 2 3 4 5 6 
#
# 1 0.010716 -0.003580 -0.003302 0.000000 0.000000 0.000000
# 2 -0.003580 0.014241 -0.004155 0.000000 0.000000 0.000000
# 3 -0.003302 -0.004155 0.011763 0.000000 0.000000 0.000000
# 4 0.000000 0.000000 0.000000 0.028726 0.000000 0.000000
# 5 0.000000 0.000000 0.000000 0.000000 0.033980 0.000000
# 6 0.000000 0.000000 0.000000 0.000000 0.000000 0.033650
#
#
# Mechanical properties :
#
#
# Convention : Reuss Voigt Hill
#
# Bulk Modulus (GPa) = 68.27865 69.41648 68.84756
# Shear Modulus (GPa) = 31.24370 31.56922 31.40646
#
# Velocity S-wave (km/s) = 4.04470 4.06572 4.05523
# Velocity P-wave (km/s) = 7.58713 7.64117 7.61420
#
# Compressibility (1/GPa) = 0.01464587
#
# Stress axis : x y z
#
# Youngs Moduli (GPa) = 93.31776 70.21961 85.01370
#
# Poissons Ratio (x) = 0.25136 0.28071
# Poissons Ratio (y) = 0.33405 0.35327
# Poissons Ratio (z) = 0.30813 0.29179
#
# Static dielectric constant tensor:
#      x y z
#    x 3.759220 0.000000 0.000000 
#    y 0.000000 3.567480 0.000000 
#    z 0.000000 0.000000 3.322540 
# 
# 
# High freq. dielectric constant tensor:
#      x y z
#    x 1.758880 0.000000 0.000000 
#    y 0.000000 1.753300 0.000000 
#    z 0.000000 0.000000 1.733670 
# 
# From -- ./inp_files/59702.got.cif
#   From: 2010.06.25/outbox.cif.g09.slc.cpg/sg71_30_cif.got.tgz:59702.got - 2010.06.28 04:59:45.
