data_PCOD8291737
_publ_section_title
;
Structure prediction by ZEFSAII (Michael W. Deem and Ramdas Pophale) SiO2 
 PCOD8291737
Probable space group: I M M M
;
_chemical_formula_sum "Si O2"
_cell_formula_units_Z 96
_cell_length_a 19.922986
_cell_length_b 8.937793
_cell_length_c 27.408378
_cell_angle_alpha 90.000000
_cell_angle_beta 90.000000
_cell_angle_gamma 90.000000
_cell_volume 4880.542030
_symmetry_space_group_name_H-M "I M M M"
_symmetry_group_IT_number 71
_symmetry_cell_setting 'orthorhombic'
loop_
_space_group_symop_operation_xyz
x,y,z
-x,-y,z
x,-y,-z
-x,y,-z
-x,-y,-z
x,y,-z
-x,y,z
x,-y,z
1/2+x,1/2+y,1/2+z
1/2-x,1/2-y,1/2+z
1/2+x,1/2-y,1/2-z
1/2-x,1/2+y,1/2-z
1/2-x,1/2-y,1/2-z
1/2+x,1/2+y,1/2-z
1/2-x,1/2+y,1/2+z
1/2+x,1/2-y,1/2+z
loop_
_atom_site_type_symbol
_atom_site_label
_atom_site_fract_x
_atom_site_fract_y
_atom_site_fract_z
Si Si1 0.422680 0.827436 0.056156
Si Si2 0.202159 0.675076 0.710778
Si Si3 0.313084 0.326484 0.444121
Si Si4 0.804885 0.823684 0.608093
Si Si5 0.575389 0.827392 0.729189
Si Si6 0.075106 0.176759 0.869721
O O1 0.500000 0.798492 0.069285
O O2 0.379080 0.723857 0.091412
O O3 0.403715 0.000000 0.065528
O O4 0.408694 0.785470 0.000000
O O5 0.218585 0.500000 0.707768
O O6 0.250000 0.750000 0.750000
O O7 0.215557 0.747975 0.658740
O O8 0.124801 0.705170 0.725792
O O9 0.333453 0.301763 0.500000
O O10 0.297170 0.500000 0.433215
O O11 0.247324 0.230109 0.432769
O O12 0.375297 0.266862 0.411984
O O13 0.801952 0.000000 0.614450
O O14 0.500000 0.778617 0.744713
O O15 0.600865 0.736667 0.682182
O O16 0.577624 0.000000 0.714212
O O17 0.000000 0.237738 0.880682
O O18 0.074884 0.000000 0.867245
#
# Coordination Sequence:
#
# PCOD8291737 Si02
#       6
#    16  16  16  16  16  16
#     4   9  19  38  63  87 112 146 187 230 280 338
#     4  11  23  39  59  82 110 145 186 233 281 332
#     4  10  21  37  57  80 109 147 188 230 277 330
#     4  12  25  38  55  82 115 149 186 231 280 332
#     4   9  19  36  57  80 106 139 178 218 264 321
#     4   9  18  33  55  83 112 142 178 223 274 325
#
# _framework density 19.669947000000001
#
# number of rings (size 3 to 8) (size 9 to 14) (size 15 to 20)
#    0.000    2.000    0.000    4.000    0.000    8.667 
#    0.000    4.167    0.000    0.000    0.000    3.500 
#    0.000    0.000    0.000    0.000    0.000    0.000 
#
# Total GULP energy -595383.824244 kJ/mol
# GULP energy per Si atom -12403.829672 kJ/mol
# Density = 1.962518 g / cm^3
# Si number density = 19.669947 Si / 1000 Ang^3
#
#
#
# Elastic Constant Matrix: (Units=GPa)
#
#
# Indices 1 2 3 4 5 6 
#
# 1 72.2383 31.3700 21.3133 0.0000 0.0000 0.0000
# 2 31.3700 76.7497 27.3367 0.0000 0.0000 0.0000
# 3 21.3133 27.3367 68.8533 0.0000 0.0000 0.0000
# 4 0.0000 0.0000 0.0000 31.0695 0.0000 0.0000
# 5 0.0000 0.0000 0.0000 0.0000 38.1619 0.0000
# 6 0.0000 0.0000 0.0000 0.0000 0.0000 27.5133
#
#
#
# Elastic Compliance Matrix: (Units=1/GPa)
#
#
# Indices 1 2 3 4 5 6 
#
# 1 0.017338 -0.006027 -0.002974 0.000000 0.000000 0.000000
# 2 -0.006027 0.017271 -0.004991 0.000000 0.000000 0.000000
# 3 -0.002974 -0.004991 0.017426 0.000000 0.000000 0.000000
# 4 0.000000 0.000000 0.000000 0.032186 0.000000 0.000000
# 5 0.000000 0.000000 0.000000 0.000000 0.026204 0.000000
# 6 0.000000 0.000000 0.000000 0.000000 0.000000 0.036346
#
#
# Mechanical properties :
#
#
# Convention : Reuss Voigt Hill
#
# Bulk Modulus (GPa) = 41.58070 41.98682 41.78376
# Shear Modulus (GPa) = 27.35650 28.53703 27.94676
#
# Velocity S-wave (km/s) = 3.73336 3.81306 3.77342
# Velocity P-wave (km/s) = 6.30627 6.38576 6.34614
#
# Compressibility (1/GPa) = 0.02404962
#
# Stress axis : x y z
#
# Youngs Moduli (GPa) = 57.67712 57.90149 57.38603
#
# Poissons Ratio (x) = 0.34899 0.17066
# Poissons Ratio (y) = 0.34764 0.28643
# Poissons Ratio (z) = 0.17152 0.28900
#
# Static dielectric constant tensor:
#      x y z
#    x 3.883700 0.000000 0.000000 
#    y 0.000000 3.492370 0.000000 
#    z 0.000000 0.000000 3.583490 
# 
# 
# High freq. dielectric constant tensor:
#      x y z
#    x 1.779240 0.000000 0.000000 
#    y 0.000000 1.755870 0.000000 
#    z 0.000000 0.000000 1.764910 
# 
# From -- ./inp_files/10863.got.cif
#   From: 2010.06.25/outbox.cif.g09.slc.cpg/sg71_6_cif.got.tgz:10863.got - 2010.06.28 04:59:45.
