data_PCOD8291875
_publ_section_title
;
Structure prediction by ZEFSAII (Michael W. Deem and Ramdas Pophale) SiO2 
 PCOD8291875
Probable space group: I M M M
;
_chemical_formula_sum "Si O2"
_cell_formula_units_Z 88
_cell_length_a 28.821979
_cell_length_b 8.842917
_cell_length_c 17.074530
_cell_angle_alpha 90.000000
_cell_angle_beta 90.000000
_cell_angle_gamma 90.000000
_cell_volume 4351.791746
_symmetry_space_group_name_H-M "I M M M"
_symmetry_group_IT_number 71
_symmetry_cell_setting 'orthorhombic'
loop_
_space_group_symop_operation_xyz
x,y,z
-x,-y,z
x,-y,-z
-x,y,-z
-x,-y,-z
x,y,-z
-x,y,z
x,-y,z
1/2+x,1/2+y,1/2+z
1/2-x,1/2-y,1/2+z
1/2+x,1/2-y,1/2-z
1/2-x,1/2+y,1/2-z
1/2-x,1/2-y,1/2-z
1/2+x,1/2+y,1/2-z
1/2-x,1/2+y,1/2+z
1/2+x,1/2-y,1/2+z
loop_
_atom_site_type_symbol
_atom_site_label
_atom_site_fract_x
_atom_site_fract_y
_atom_site_fract_z
Si Si1 0.947547 0.170017 0.660460
Si Si2 0.678973 0.831156 0.000000
Si Si3 0.070268 0.668288 0.500000
Si Si4 0.411772 0.820855 0.689264
Si Si5 0.500000 0.179821 0.589340
Si Si6 0.184528 0.822513 0.187897
Si Si7 0.775949 0.177388 0.355947
O O1 0.947146 0.242782 0.575382
O O2 0.917938 0.267042 0.721516
O O3 0.000000 0.166312 0.691311
O O4 0.926842 0.000000 0.656706
O O5 0.624641 0.844980 0.000000
O O6 0.692213 0.735964 0.075276
O O7 0.701116 0.000000 0.000000
O O8 0.048398 0.500000 0.500000
O O9 0.453696 0.761490 0.633859
O O10 0.363083 0.754415 0.659028
O O11 0.409323 0.000000 0.688083
O O12 0.500000 0.241542 0.500000
O O13 0.500000 0.000000 0.589656
O O14 0.196739 0.778882 0.277108
O O15 0.226360 0.759085 0.135459
O O16 0.179828 0.000000 0.175284
O O17 0.767398 0.000000 0.362145
#
# Coordination Sequence:
#
# PCOD8291875 Si02
#       7
#    16   8   8  16   8  16  16
#     4  11  23  38  57  83 120 160 200 247 299 350
#     4  11  23  38  56  83 118 153 189 242 296 343
#     4  11  24  38  57  86 120 160 205 245 288 347
#     4  11  21  37  63  90 117 154 201 247 298 362
#     4   9  20  40  63  88 117 150 193 247 300 353
#     4  10  21  38  61  88 119 153 193 243 297 352
#     4  10  21  38  60  85 115 155 198 239 287 352
#
# _framework density 20.221557000000001
#
# number of rings (size 3 to 8) (size 9 to 14) (size 15 to 20)
#    0.000    1.545    0.909    4.091    0.000    8.727 
#    1.636    0.000    0.000    3.818    0.000    0.000 
#    0.000    0.000    0.000    0.000    0.000    0.000 
#
# Total GULP energy -545739.431677 kJ/mol
# GULP energy per Si atom -12403.168902 kJ/mol
# Density = 2.017553 g / cm^3
# Si number density = 20.221557 Si / 1000 Ang^3
#
#
#
# Elastic Constant Matrix: (Units=GPa)
#
#
# Indices 1 2 3 4 5 6 
#
# 1 125.8750 40.8645 21.9992 0.0000 0.0000 0.0000
# 2 40.8645 94.9425 23.1979 0.0000 0.0000 0.0000
# 3 21.9992 23.1979 69.9791 0.0000 0.0000 0.0000
# 4 0.0000 0.0000 0.0000 31.9580 0.0000 0.0000
# 5 0.0000 0.0000 0.0000 0.0000 -12.5625 0.0000
# 6 0.0000 0.0000 0.0000 0.0000 0.0000 36.0281
#
#
#
# Elastic Compliance Matrix: (Units=1/GPa)
#
#
# Indices 1 2 3 4 5 6 
#
# 1 0.009430 -0.003628 -0.001762 0.000000 0.000000 0.000000
# 2 -0.003628 0.012857 -0.003121 0.000000 0.000000 0.000000
# 3 -0.001762 -0.003121 0.015879 0.000000 0.000000 0.000000
# 4 0.000000 0.000000 0.000000 0.031291 0.000000 0.000000
# 5 0.000000 0.000000 0.000000 0.000000 -0.079602 0.000000
# 6 0.000000 0.000000 0.000000 0.000000 0.000000 0.027756
#
#
# Mechanical properties :
#
#
# Convention : Reuss Voigt Hill
#
# Bulk Modulus (GPa) = 47.29773 51.43555 49.36664
# Shear Modulus (GPa) = 119.95676 24.73372 72.34524
#
# Velocity S-wave (km/s) = 7.71038 3.50113 5.98782
# Velocity P-wave (km/s) = 10.13446 6.46801 8.50124
#
# Compressibility (1/GPa) = 0.02114266
#
# Stress axis : x y z
#
# Youngs Moduli (GPa) = 106.04180 77.77801 62.97792
#
# Poissons Ratio (x) = 0.28221 0.11095
# Poissons Ratio (y) = 0.38477 0.19658
# Poissons Ratio (z) = 0.18682 0.24278
#
# Static dielectric constant tensor:
#      x y z
#    x 3.826480 0.000000 0.000000 
#    y 0.000000 3.747080 0.000000 
#    z 0.000000 0.000000 3.544370 
# 
# 
# High freq. dielectric constant tensor:
#      x y z
#    x 1.803200 0.000000 0.000000 
#    y 0.000000 1.795360 0.000000 
#    z 0.000000 0.000000 1.775390 
# 
# From -- ./inp_files/49271.got.cif
#   From: 2010.06.25/outbox.cif.g09.slc.cpg/sg71_25_cif.got.tgz:49271.got - 2010.06.28 04:59:45.
