data_PCOD8291392
_publ_section_title
;
Structure prediction by ZEFSAII (Michael W. Deem and Ramdas Pophale) SiO2 
 PCOD8291392
Probable space group: I M M M
;
_chemical_formula_sum "Si O2"
_cell_formula_units_Z 104
_cell_length_a 9.093025
_cell_length_b 31.972135
_cell_length_c 20.131988
_cell_angle_alpha 90.000000
_cell_angle_beta 90.000000
_cell_angle_gamma 90.000000
_cell_volume 5852.840460
_symmetry_space_group_name_H-M "I M M M"
_symmetry_group_IT_number 71
_symmetry_cell_setting 'orthorhombic'
loop_
_space_group_symop_operation_xyz
x,y,z
-x,-y,z
x,-y,-z
-x,y,-z
-x,-y,-z
x,y,-z
-x,y,z
x,-y,z
1/2+x,1/2+y,1/2+z
1/2-x,1/2-y,1/2+z
1/2+x,1/2-y,1/2-z
1/2-x,1/2+y,1/2-z
1/2-x,1/2-y,1/2-z
1/2+x,1/2+y,1/2-z
1/2-x,1/2+y,1/2+z
1/2+x,1/2-y,1/2+z
loop_
_atom_site_type_symbol
_atom_site_label
_atom_site_fract_x
_atom_site_fract_y
_atom_site_fract_z
Si Si1 0.669093 0.312017 0.425274
Si Si2 0.826743 0.226480 0.424002
Si Si3 0.664432 0.072968 0.628246
Si Si4 0.830183 0.954317 0.247275
Si Si5 0.165370 0.333691 0.821884
Si Si6 0.671040 0.365692 0.698002
Si Si7 0.327657 0.451867 0.000000
O O1 0.698185 0.328333 0.500000
O O2 0.500000 0.297877 0.416403
O O3 0.771814 0.273005 0.408289
O O4 0.709082 0.349948 0.375855
O O5 0.784697 0.214122 0.500000
O O6 0.752213 0.195678 0.372119
O O7 0.000000 0.224773 0.413204
O O8 0.500000 0.056140 0.615003
O O9 0.736072 0.045297 0.685796
O O10 0.661785 0.120939 0.647145
O O11 0.762111 0.070403 0.563494
O O12 0.782572 0.914973 0.201151
O O13 0.000000 0.949326 0.267577
O O14 0.804406 0.000000 0.212293
O O15 0.243312 0.336504 0.750284
O O16 0.000000 0.316283 0.812046
O O17 0.500000 0.360582 0.714661
O O18 0.282466 0.500000 0.000000
O O19 0.500000 0.444809 0.000000
#
# Coordination Sequence:
#
# PCOD8291392 Si02
#       7
#    16  16  16  16  16  16   8
#     4   9  18  34  55  77 101 132 167 204 249 299
#     4  10  21  35  52  75 101 133 172 210 250 298
#     4  10  21  34  48  69  95 126 165 210 254 295
#     4   9  17  31  51  73  98 129 164 202 246 297
#     4  10  21  35  51  73 101 132 168 209 254 298
#     4   9  18  33  53  76 102 132 168 207 248 298
#     4  11  23  35  47  65  91 127 169 209 253 303
#
# _framework density 17.769151000000001
#
# number of rings (size 3 to 8) (size 9 to 14) (size 15 to 20)
#    0.000    2.385    0.000    2.077    1.077    6.769 
#    0.000    0.000    0.000    0.462    0.000    3.231 
#    0.000    0.000    0.000   11.538    0.000   12.000 
#
# Total GULP energy -644686.884277 kJ/mol
# GULP energy per Si atom -12397.824698 kJ/mol
# Density = 1.772871 g / cm^3
# Si number density = 17.769151 Si / 1000 Ang^3
#
#
#
# Elastic Constant Matrix: (Units=GPa)
#
#
# Indices 1 2 3 4 5 6 
#
# 1 70.9757 38.9313 43.9674 0.0000 0.0000 0.0000
# 2 38.9313 90.2484 61.3212 0.0000 0.0000 0.0000
# 3 43.9674 61.3212 106.5679 0.0003 0.0000 0.0000
# 4 0.0000 0.0000 0.0003 -5.9724 0.0000 0.0000
# 5 0.0000 0.0000 0.0000 0.0000 22.4908 0.0000
# 6 0.0000 0.0000 0.0000 0.0000 0.0000 21.9254
#
#
#
# Elastic Compliance Matrix: (Units=1/GPa)
#
#
# Indices 1 2 3 4 5 6 
#
# 1 0.020220 -0.005015 -0.005457 0.000000 0.000000 0.000000
# 2 -0.005015 0.019438 -0.009116 0.000000 0.000000 0.000000
# 3 -0.005457 -0.009116 0.016880 0.000001 0.000000 0.000000
# 4 0.000000 0.000000 0.000001 -0.167437 0.000000 0.000000
# 5 0.000000 0.000000 0.000000 0.000000 0.044463 0.000000
# 6 0.000000 0.000000 0.000000 0.000000 0.000000 0.045609
#
#
# Mechanical properties :
#
#
# Convention : Reuss Voigt Hill
#
# Bulk Modulus (GPa) = 57.59183 61.80352 59.69768
# Shear Modulus (GPa) = 207.15177 15.92689 111.53933
#
# Velocity S-wave (km/s) = 10.80891 2.99711 7.93143
# Velocity P-wave (km/s) = 13.72072 6.84352 10.84186
#
# Compressibility (1/GPa) = 0.01736357
#
# Stress axis : x y z
#
# Youngs Moduli (GPa) = 49.45493 51.44611 59.24013
#
# Poissons Ratio (x) = 0.25800 0.32326
# Poissons Ratio (y) = 0.24801 0.54002
# Poissons Ratio (z) = 0.26986 0.46897
#
# Static dielectric constant tensor:
#      x y z
#    x 3.533120 0.000000 0.000000 
#    y 0.000000 3.394440 0.000000 
#    z 0.000000 0.000000 3.284630 
# 
# 
# High freq. dielectric constant tensor:
#      x y z
#    x 1.696380 0.000000 0.000000 
#    y 0.000000 1.685670 0.000000 
#    z 0.000000 0.000000 1.671700 
# 
# From -- ./inp_files/51179.got.cif
#   From: 2010.06.25/outbox.cif.g09.slc.cpg/sg71_26_cif.got.tgz:51179.got - 2010.06.28 04:59:45.
