data_PCOD8291005
_publ_section_title
;
Structure prediction by ZEFSAII (Michael W. Deem and Ramdas Pophale) SiO2 
 PCOD8291005
Probable space group: I M M M
;
_chemical_formula_sum "Si O2"
_cell_formula_units_Z 112
_cell_length_a 14.625655
_cell_length_b 16.055860
_cell_length_c 23.036737
_cell_angle_alpha 90.000000
_cell_angle_beta 90.000000
_cell_angle_gamma 90.000000
_cell_volume 5409.658646
_symmetry_space_group_name_H-M "I M M M"
_symmetry_group_IT_number 71
_symmetry_cell_setting 'orthorhombic'
loop_
_space_group_symop_operation_xyz
x,y,z
-x,-y,z
x,-y,-z
-x,y,-z
-x,-y,-z
x,y,-z
-x,y,z
x,-y,z
1/2+x,1/2+y,1/2+z
1/2-x,1/2-y,1/2+z
1/2+x,1/2-y,1/2-z
1/2-x,1/2+y,1/2-z
1/2-x,1/2-y,1/2-z
1/2+x,1/2+y,1/2-z
1/2-x,1/2+y,1/2+z
1/2+x,1/2-y,1/2+z
loop_
_atom_site_type_symbol
_atom_site_label
_atom_site_fract_x
_atom_site_fract_y
_atom_site_fract_z
Si Si1 0.603443 0.754165 0.624059
Si Si2 0.394663 0.088691 0.825841
Si Si3 0.605181 0.824033 0.063662
Si Si4 0.896863 0.092985 0.660223
Si Si5 0.108567 0.909802 0.935205
Si Si6 0.143905 0.247488 0.255584
Si Si7 0.270814 0.337237 0.066852
O O1 0.500000 0.771172 0.600788
O O2 0.643969 0.664612 0.604889
O O3 0.597427 0.749751 0.693161
O O4 0.671309 0.823042 0.596796
O O5 0.500000 0.071320 0.832864
O O6 0.355969 0.110382 0.889836
O O7 0.382525 0.165593 0.783758
O O8 0.349519 0.000000 0.804822
O O9 0.500000 0.797818 0.077347
O O10 0.667703 0.743919 0.068482
O O11 0.612707 0.864670 0.000000
O O12 0.883796 0.165504 0.708279
O O13 0.825374 0.097244 0.606772
O O14 0.000000 0.101869 0.635927
O O15 0.883982 0.000000 0.687979
O O16 0.000000 0.909462 0.936452
O O17 0.142814 0.000000 0.911870
O O18 0.146723 0.894175 0.000000
O O19 0.250000 0.250000 0.250000
O O20 0.258005 0.368539 0.000000
#
# Coordination Sequence:
#
# PCOD8291005 Si02
#       7
#    16  16  16  16  16  16  16
#     4  11  22  37  61  90 124 170 216 260 315 381
#     4  10  20  35  58  87 120 161 206 250 300 367
#     4   9  17  32  57  86 119 160 202 249 307 369
#     4  11  24  43  69  99 131 167 212 271 333 389
#     4   8  15  30  53  83 120 159 201 251 304 362
#     4  12  23  42  64  89 129 170 212 265 316 375
#     4  11  22  39  63  92 126 166 213 265 322 382
#
# _framework density 20.703707999999999
#
# number of rings (size 3 to 8) (size 9 to 14) (size 15 to 20)
#    0.000    1.714    2.857    2.571    0.000    3.429 
#    0.000    5.714    0.000    1.286    0.000    1.000 
#    0.000    0.000    0.000    0.000    0.000    0.000 
#
# Total GULP energy -693794.064542 kJ/mol
# GULP energy per Si atom -12389.179724 kJ/mol
# Density = 2.065659 g / cm^3
# Si number density = 20.703708 Si / 1000 Ang^3
#
#
#
# Elastic Constant Matrix: (Units=GPa)
#
#
# Indices 1 2 3 4 5 6 
#
# 1 82.9372 15.8333 17.7406 0.0000 0.0000 0.0000
# 2 15.8333 131.4138 56.3162 0.0000 0.0000 0.0000
# 3 17.7406 56.3162 124.3764 0.0000 0.0000 0.0000
# 4 0.0000 0.0000 0.0000 6.1027 0.0000 0.0000
# 5 0.0000 0.0000 0.0000 0.0000 7.7697 0.0000
# 6 0.0000 0.0000 0.0000 0.0000 0.0000 -19.0018
#
#
#
# Elastic Compliance Matrix: (Units=1/GPa)
#
#
# Indices 1 2 3 4 5 6 
#
# 1 0.012526 -0.000923 -0.001369 0.000000 0.000000 0.000000
# 2 -0.000923 0.009510 -0.004174 0.000000 0.000000 0.000000
# 3 -0.001369 -0.004174 0.010125 0.000000 0.000000 0.000000
# 4 0.000000 0.000000 0.000000 0.163861 0.000000 0.000000
# 5 0.000000 0.000000 0.000000 0.000000 0.128706 0.000000
# 6 0.000000 0.000000 0.000000 0.000000 0.000000 -0.052627
#
#
# Mechanical properties :
#
#
# Convention : Reuss Voigt Hill
#
# Bulk Modulus (GPa) = 52.00287 57.61197 54.80742
# Shear Modulus (GPa) = 17.15603 15.56327 16.35965
#
# Velocity S-wave (km/s) = 2.88174 2.74471 2.81406
# Velocity P-wave (km/s) = 6.02036 6.15889 6.09002
#
# Compressibility (1/GPa) = 0.01922971
#
# Stress axis : x y z
#
# Youngs Moduli (GPa) = 79.83220 105.15774 98.76140
#
# Poissons Ratio (x) = 0.09701 0.13520
# Poissons Ratio (y) = 0.07365 0.41225
# Poissons Ratio (z) = 0.10929 0.43895
#
# Static dielectric constant tensor:
#      x y z
#    x 3.779630 0.000000 0.000000 
#    y 0.000000 3.924840 0.000000 
#    z 0.000000 0.000000 3.629560 
# 
# 
# High freq. dielectric constant tensor:
#      x y z
#    x 1.812940 0.000000 0.000000 
#    y 0.000000 1.797810 0.000000 
#    z 0.000000 0.000000 1.806160 
# 
# From -- ./inp_files/59934.got.cif
#   From: 2010.06.25/outbox.cif.g09.slc.cpg/sg71_30_cif.got.tgz:59934.got - 2010.06.28 04:59:45.
