data_PCOD8291993
_publ_section_title
;
Structure prediction by ZEFSAII (Michael W. Deem and Ramdas Pophale) SiO2 
 PCOD8291993
Probable space group: I M M M
;
_chemical_formula_sum "Si O2"
_cell_formula_units_Z 72
_cell_length_a 26.301929
_cell_length_b 8.797031
_cell_length_c 15.388785
_cell_angle_alpha 90.000000
_cell_angle_beta 90.000000
_cell_angle_gamma 90.000000
_cell_volume 3560.639911
_symmetry_space_group_name_H-M "I M M M"
_symmetry_group_IT_number 71
_symmetry_cell_setting 'orthorhombic'
loop_
_space_group_symop_operation_xyz
x,y,z
-x,-y,z
x,-y,-z
-x,y,-z
-x,-y,-z
x,y,-z
-x,y,z
x,-y,z
1/2+x,1/2+y,1/2+z
1/2-x,1/2-y,1/2+z
1/2+x,1/2-y,1/2-z
1/2-x,1/2+y,1/2-z
1/2-x,1/2-y,1/2-z
1/2+x,1/2+y,1/2-z
1/2-x,1/2+y,1/2+z
1/2+x,1/2-y,1/2+z
loop_
_atom_site_type_symbol
_atom_site_label
_atom_site_fract_x
_atom_site_fract_y
_atom_site_fract_z
Si Si1 0.398981 0.319445 0.326062
Si Si2 0.441431 0.175865 0.156473
Si Si3 0.939876 0.326144 0.000000
Si Si4 0.283433 0.321711 0.675727
Si Si5 0.880868 0.820529 0.500000
Si Si6 0.728693 0.178603 0.000000
O O1 0.403647 0.500000 0.323744
O O2 0.432934 0.249072 0.250191
O O3 0.419195 0.260225 0.416815
O O4 0.341038 0.264136 0.314574
O O5 0.500000 0.196199 0.129744
O O6 0.425947 0.000000 0.159979
O O7 0.406951 0.257644 0.085998
O O8 0.920847 0.500000 0.000000
O O9 0.000000 0.318159 0.000000
O O10 0.280938 0.500000 0.687214
O O11 0.250000 0.250000 0.750000
O O12 0.261909 0.272628 0.582562
O O13 0.822451 0.774467 0.500000
O O14 0.885860 0.000000 0.500000
O O15 0.715512 0.000000 0.000000
#
# Coordination Sequence:
#
# PCOD8291993 Si02
#       6
#    16  16   8  16   8   8
#     4  11  23  40  63  92 123 155 198 250 300 349
#     4  11  24  42  63  88 120 159 201 243 294 359
#     4  11  24  41  61  88 122 161 204 245 292 356
#     4  10  22  39  60  87 118 154 196 242 292 351
#     4  12  25  40  61  91 122 153 198 251 300 351
#     4  10  21  40  62  83 116 160 198 236 292 355
#
# _framework density 20.221084000000001
#
# number of rings (size 3 to 8) (size 9 to 14) (size 15 to 20)
#    0.000    1.222    0.000    5.667    0.000   14.667 
#    0.000    1.111    0.000    0.000    0.000    0.000 
#    0.000    0.000    0.000    0.000    0.000    0.000 
#
# Total GULP energy -446630.345632 kJ/mol
# GULP energy per Si atom -12406.398490 kJ/mol
# Density = 2.017506 g / cm^3
# Si number density = 20.221084 Si / 1000 Ang^3
#
#
#
# Elastic Constant Matrix: (Units=GPa)
#
#
# Indices 1 2 3 4 5 6 
#
# 1 89.3839 44.4692 17.5578 0.0000 0.0000 0.0000
# 2 44.4692 105.3691 38.9152 0.0000 0.0000 0.0000
# 3 17.5578 38.9152 119.0980 0.0000 0.0000 0.0000
# 4 0.0000 0.0000 0.0000 40.4160 0.0000 0.0000
# 5 0.0000 0.0000 0.0000 0.0000 45.9645 0.0000
# 6 0.0000 0.0000 0.0000 0.0000 0.0000 33.3224
#
#
#
# Elastic Compliance Matrix: (Units=1/GPa)
#
#
# Indices 1 2 3 4 5 6 
#
# 1 0.014163 -0.005921 -0.000153 0.000000 0.000000 0.000000
# 2 -0.005921 0.013268 -0.003462 0.000000 0.000000 0.000000
# 3 -0.000153 -0.003462 0.009550 0.000000 0.000000 0.000000
# 4 0.000000 0.000000 0.000000 0.024743 0.000000 0.000000
# 5 0.000000 0.000000 0.000000 0.000000 0.021756 0.000000
# 6 0.000000 0.000000 0.000000 0.000000 0.000000 0.030010
#
#
# Mechanical properties :
#
#
# Convention : Reuss Voigt Hill
#
# Bulk Modulus (GPa) = 55.83915 57.30392 56.57154
# Shear Modulus (GPa) = 36.09246 38.13450 37.11348
#
# Velocity S-wave (km/s) = 4.22938 4.34738 4.28879
# Velocity P-wave (km/s) = 7.17806 7.32119 7.24998
#
# Compressibility (1/GPa) = 0.01790858
#
# Stress axis : x y z
#
# Youngs Moduli (GPa) = 70.60418 75.36948 104.70754
#
# Poissons Ratio (x) = 0.44625 0.01606
# Poissons Ratio (y) = 0.41803 0.36254
# Poissons Ratio (z) = 0.01083 0.26096
#
# Static dielectric constant tensor:
#      x y z
#    x 4.102060 0.000000 0.000000 
#    y 0.000000 3.789470 0.000000 
#    z 0.000000 0.000000 5.520880 
# 
# 
# High freq. dielectric constant tensor:
#      x y z
#    x 1.807180 0.000000 0.000000 
#    y 0.000000 1.796080 0.000000 
#    z 0.000000 0.000000 1.810070 
# 
# From -- ./inp_files/14358.got.cif
#   From: 2010.06.25/outbox.cif.g09.slc.cpg/sg71_8_cif.got.tgz:14358.got - 2010.06.28 04:59:45.
