data_PCOD8291844
_publ_section_title
;
Structure prediction by ZEFSAII (Michael W. Deem and Ramdas Pophale) SiO2 
 PCOD8291844
Probable space group: I M M M
;
_chemical_formula_sum "Si O2"
_cell_formula_units_Z 80
_cell_length_a 30.746567
_cell_length_b 12.382676
_cell_length_c 10.886464
_cell_angle_alpha 90.000000
_cell_angle_beta 90.000000
_cell_angle_gamma 90.000000
_cell_volume 4144.746582
_symmetry_space_group_name_H-M "I M M M"
_symmetry_group_IT_number 71
_symmetry_cell_setting 'orthorhombic'
loop_
_space_group_symop_operation_xyz
x,y,z
-x,-y,z
x,-y,-z
-x,y,-z
-x,-y,-z
x,y,-z
-x,y,z
x,-y,z
1/2+x,1/2+y,1/2+z
1/2-x,1/2-y,1/2+z
1/2+x,1/2-y,1/2-z
1/2-x,1/2+y,1/2-z
1/2-x,1/2-y,1/2-z
1/2+x,1/2+y,1/2-z
1/2-x,1/2+y,1/2+z
1/2+x,1/2-y,1/2+z
loop_
_atom_site_type_symbol
_atom_site_label
_atom_site_fract_x
_atom_site_fract_y
_atom_site_fract_z
Si Si1 0.949319 0.120043 0.000000
Si Si2 0.951320 0.118787 0.356650
Si Si3 0.238619 0.379817 0.635478
Si Si4 0.449641 0.000000 0.645418
Si Si5 0.190602 0.703005 0.139243
Si Si6 0.591299 0.772258 0.302572
O O1 0.936715 0.190998 0.116129
O O2 0.000000 0.103993 0.000000
O O3 0.927383 0.000000 0.000000
O O4 0.950793 0.105680 0.500000
O O5 0.916308 0.214334 0.328045
O O6 0.000000 0.151293 0.311924
O O7 0.939172 0.000000 0.299494
O O8 0.217850 0.350773 0.500000
O O9 0.256670 0.500000 0.632374
O O10 0.204034 0.374653 0.747829
O O11 0.281200 0.309667 0.659812
O O12 0.426202 0.105551 0.699028
O O13 0.500000 0.000000 0.684559
O O14 0.444095 0.000000 0.500000
O O15 0.140471 0.730956 0.152665
O O16 0.198392 0.655316 0.000000
#
# Coordination Sequence:
#
# PCOD8291844 Si02
#       6
#     8  16  16   8  16  16
#     4  11  22  35  55  85 119 154 191 241 301 355
#     4   9  19  37  59  82 113 155 199 247 300 351
#     4   9  20  39  62  83 113 152 190 244 306 366
#     4  11  22  36  53  77 121 169 200 235 291 345
#     4  10  21  38  58  88 118 151 194 243 301 363
#     4  12  22  36  57  86 117 156 198 248 291 361
#
# _framework density 19.301542000000001
#
# number of rings (size 3 to 8) (size 9 to 14) (size 15 to 20)
#    0.000    1.800    2.000    3.000    1.400    4.400 
#    0.000    0.500    0.000    1.800    0.000    0.000 
#    0.000    0.000    0.000    0.000    0.000    0.000 
#
# Total GULP energy -495536.352193 kJ/mol
# GULP energy per Si atom -12388.408805 kJ/mol
# Density = 1.925761 g / cm^3
# Si number density = 19.301542 Si / 1000 Ang^3
#
#
#
# Elastic Constant Matrix: (Units=GPa)
#
#
# Indices 1 2 3 4 5 6 
#
# 1 87.3754 33.9941 43.4832 0.0000 0.0000 0.0000
# 2 33.9941 130.2911 43.7857 0.0000 0.0000 0.0000
# 3 43.4832 43.7857 97.5178 0.0000 0.0000 0.0000
# 4 0.0000 0.0000 0.0000 39.4014 0.0000 0.0000
# 5 0.0000 0.0000 0.0000 0.0000 22.6297 0.0000
# 6 0.0000 0.0000 0.0000 0.0000 0.0000 10.9007
#
#
#
# Elastic Compliance Matrix: (Units=1/GPa)
#
#
# Indices 1 2 3 4 5 6 
#
# 1 0.015130 -0.001979 -0.005858 0.000000 0.000000 0.000000
# 2 -0.001979 0.009298 -0.003292 0.000000 0.000000 0.000000
# 3 -0.005858 -0.003292 0.014345 0.000000 0.000000 0.000000
# 4 0.000000 0.000000 0.000000 0.025380 0.000000 0.000000
# 5 0.000000 0.000000 0.000000 0.000000 0.044190 0.000000
# 6 0.000000 0.000000 0.000000 0.000000 0.000000 0.091737
#
#
# Mechanical properties :
#
#
# Convention : Reuss Voigt Hill
#
# Bulk Modulus (GPa) = 60.55351 61.96781 61.26066
# Shear Modulus (GPa) = 21.94493 27.51444 24.72968
#
# Velocity S-wave (km/s) = 3.37553 3.77968 3.58331
# Velocity P-wave (km/s) = 6.82882 7.15701 6.99484
#
# Compressibility (1/GPa) = 0.01651432
#
# Stress axis : x y z
#
# Youngs Moduli (GPa) = 66.09358 107.55143 69.71127
#
# Poissons Ratio (x) = 0.21284 0.40837
# Poissons Ratio (y) = 0.13080 0.22951
# Poissons Ratio (z) = 0.38717 0.35410
#
# Static dielectric constant tensor:
#      x y z
#    x 3.358560 0.000000 0.000000 
#    y 0.000000 3.714410 0.000000 
#    z 0.000000 0.000000 4.283950 
# 
# 
# High freq. dielectric constant tensor:
#      x y z
#    x 1.731160 0.000000 0.000000 
#    y 0.000000 1.755460 0.000000 
#    z 0.000000 0.000000 1.761720 
# 
# From -- ./inp_files/29705.got.cif
#   From: 2010.06.25/outbox.cif.g09.slc.cpg/sg71_15_cif.got.tgz:29705.got - 2010.06.28 04:59:45.
