data_PCOD8291559
_publ_section_title
;
Structure prediction by ZEFSAII (Michael W. Deem and Ramdas Pophale) SiO2 
 PCOD8291559
Probable space group: I M M M
;
_chemical_formula_sum "Si O2"
_cell_formula_units_Z 56
_cell_length_a 35.850338
_cell_length_b 9.178732
_cell_length_c 9.521534
_cell_angle_alpha 90.000000
_cell_angle_beta 90.000000
_cell_angle_gamma 90.000000
_cell_volume 3133.162116
_symmetry_space_group_name_H-M "I M M M"
_symmetry_group_IT_number 71
_symmetry_cell_setting 'orthorhombic'
loop_
_space_group_symop_operation_xyz
x,y,z
-x,-y,z
x,-y,-z
-x,y,-z
-x,-y,-z
x,y,-z
-x,y,z
x,-y,z
1/2+x,1/2+y,1/2+z
1/2-x,1/2-y,1/2+z
1/2+x,1/2-y,1/2-z
1/2-x,1/2+y,1/2-z
1/2-x,1/2-y,1/2-z
1/2+x,1/2+y,1/2-z
1/2-x,1/2+y,1/2+z
1/2+x,1/2-y,1/2+z
loop_
_atom_site_type_symbol
_atom_site_label
_atom_site_fract_x
_atom_site_fract_y
_atom_site_fract_z
Si Si1 0.856241 0.667990 0.337567
Si Si2 0.000000 0.835644 0.167052
Si Si3 0.427449 0.169598 0.662636
Si Si4 0.718434 0.669433 0.836141
O O1 0.866183 0.691161 0.500000
O O2 0.846623 0.500000 0.304912
O O3 0.891371 0.722127 0.247789
O O4 0.821261 0.764827 0.291361
O O5 0.036921 0.755383 0.223334
O O6 0.000000 0.000000 0.223960
O O7 0.000000 0.829139 0.000000
O O8 0.420262 0.205679 0.500000
O O9 0.435418 0.000000 0.686473
O O10 0.718701 0.500000 0.797609
O O11 0.750000 0.750000 0.750000
O O12 0.726004 0.696547 0.000000
#
# Coordination Sequence:
#
# PCOD8291559 Si02
#       4
#    16   8  16  16
#     4   9  18  33  51  71  98 130 161 197 244 294
#     4   9  17  29  46  69  96 124 156 197 242 284
#     4   9  17  30  49  71  94 123 160 199 238 284
#     4  10  21  36  54  76 102 133 168 206 249 297
#
# _framework density 17.873318999999999
#
# number of rings (size 3 to 8) (size 9 to 14) (size 15 to 20)
#    0.000    2.714    0.000    1.286    0.000    5.714 
#    0.000    3.571    0.000    4.286    0.000    0.000 
#    0.000    0.000    0.000    0.000    0.000    0.000 
#
# Total GULP energy -347269.892019 kJ/mol
# GULP energy per Si atom -12402.496144 kJ/mol
# Density = 1.783264 g / cm^3
# Si number density = 17.873319 Si / 1000 Ang^3
#
#
#
# Elastic Constant Matrix: (Units=GPa)
#
#
# Indices 1 2 3 4 5 6 
#
# 1 198.2509 101.4458 75.0385 0.0000 0.0000 0.0000
# 2 101.4458 110.6413 45.9969 0.0000 0.0000 0.0000
# 3 75.0385 45.9969 53.0549 0.0000 0.0000 0.0000
# 4 0.0000 0.0000 0.0000 20.3894 0.0000 0.0000
# 5 0.0000 0.0000 0.0000 0.0000 34.6069 0.0000
# 6 0.0000 0.0000 0.0000 0.0000 0.0000 37.2984
#
#
#
# Elastic Compliance Matrix: (Units=1/GPa)
#
#
# Indices 1 2 3 4 5 6 
#
# 1 0.013623 -0.007005 -0.013194 0.000000 0.000000 0.000000
# 2 -0.007005 0.017734 -0.005467 0.000000 0.000000 0.000000
# 3 -0.013194 -0.005467 0.042249 0.000000 0.000000 0.000000
# 4 0.000000 0.000000 0.000000 0.049045 0.000000 0.000000
# 5 0.000000 0.000000 0.000000 0.000000 0.028896 0.000000
# 6 0.000000 0.000000 0.000000 0.000000 0.000000 0.026811
#
#
# Mechanical properties :
#
#
# Convention : Reuss Voigt Hill
#
# Bulk Modulus (GPa) = 44.89647 89.65661 67.27654
# Shear Modulus (GPa) = 21.08687 27.75666 24.42176
#
# Velocity S-wave (km/s) = 3.43854 3.94504 3.70047
# Velocity P-wave (km/s) = 6.39832 8.42747 7.48201
#
# Compressibility (1/GPa) = 0.02227347
#
# Stress axis : x y z
#
# Youngs Moduli (GPa) = 73.40642 56.38845 23.66932
#
# Poissons Ratio (x) = 0.39503 0.31229
# Poissons Ratio (y) = 0.51425 0.12939
# Poissons Ratio (z) = 0.96852 0.30826
#
# Static dielectric constant tensor:
#      x y z
#    x 3.461790 0.000000 0.000000 
#    y 0.000000 3.368460 0.000000 
#    z 0.000000 0.000000 3.139410 
# 
# 
# High freq. dielectric constant tensor:
#      x y z
#    x 1.702910 0.000000 0.000000 
#    y 0.000000 1.693740 0.000000 
#    z 0.000000 0.000000 1.669830 
# 
# From -- ./inp_files/3303.got.cif
#   From: 2010.06.25/outbox.cif.g09.slc.cpg/sg71_2_cif.got.tgz:3303.got - 2010.06.28 04:59:45.
