data_PCOD8291075
_publ_section_title
;
Structure prediction by ZEFSAII (Michael W. Deem and Ramdas Pophale) SiO2 
 PCOD8291075
Probable space group: I M M M
;
_chemical_formula_sum "Si O2"
_cell_formula_units_Z 96
_cell_length_a 23.319752
_cell_length_b 25.284546
_cell_length_c 9.025025
_cell_angle_alpha 90.000000
_cell_angle_beta 90.000000
_cell_angle_gamma 90.000000
_cell_volume 5321.419554
_symmetry_space_group_name_H-M "I M M M"
_symmetry_group_IT_number 71
_symmetry_cell_setting 'orthorhombic'
loop_
_space_group_symop_operation_xyz
x,y,z
-x,-y,z
x,-y,-z
-x,y,-z
-x,-y,-z
x,y,-z
-x,y,z
x,-y,z
1/2+x,1/2+y,1/2+z
1/2-x,1/2-y,1/2+z
1/2+x,1/2-y,1/2-z
1/2-x,1/2+y,1/2-z
1/2-x,1/2-y,1/2-z
1/2+x,1/2+y,1/2-z
1/2-x,1/2+y,1/2+z
1/2+x,1/2-y,1/2+z
loop_
_atom_site_type_symbol
_atom_site_label
_atom_site_fract_x
_atom_site_fract_y
_atom_site_fract_z
Si Si1 0.756472 0.938796 0.828459
Si Si2 0.435965 0.500000 0.823876
Si Si3 0.065936 0.806817 0.173508
Si Si4 0.064545 0.500000 0.174823
Si Si5 0.133768 0.100927 0.324178
Si Si6 0.065455 0.300802 0.330086
Si Si7 0.628873 0.093299 0.829222
O O1 0.801617 0.906724 0.730514
O O2 0.696197 0.910673 0.797264
O O3 0.753400 0.000000 0.778403
O O4 0.773885 0.934640 0.000000
O O5 0.500000 0.500000 0.757806
O O6 0.403553 0.448318 0.764563
O O7 0.437367 0.500000 0.000000
O O8 0.107638 0.845968 0.258972
O O9 0.081416 0.747848 0.224758
O O10 0.000000 0.820138 0.214018
O O11 0.077318 0.811674 0.000000
O O12 0.095746 0.552151 0.229303
O O13 0.000000 0.500000 0.236586
O O14 0.065723 0.500000 0.000000
O O15 0.133066 0.104575 0.500000
O O16 0.074396 0.283207 0.500000
O O17 0.107759 0.348274 0.286774
O O18 0.000000 0.319369 0.303597
O O19 0.615332 0.080006 0.000000
#
# Coordination Sequence:
#
# PCOD8291075 Si02
#       7
#    16   8  16   8  16  16  16
#     4  10  20  36  56  79 111 148 184 226 277 328
#     4   9  18  31  49  76 106 133 166 217 272 317
#     4  10  21  37  57  82 113 147 181 222 278 336
#     4  11  23  34  49  80 118 149 180 227 284 335
#     4  11  21  35  56  81 110 144 186 228 271 327
#     4   9  18  34  58  85 110 140 182 231 278 328
#     4  10  20  37  59  82 108 146 192 231 275 331
#
# _framework density 18.040298
#
# number of rings (size 3 to 8) (size 9 to 14) (size 15 to 20)
#    0.000    2.000    1.667    2.250    0.000    4.333 
#    0.000    2.500    0.000    2.000    0.000    0.000 
#    0.000    0.000    0.000    0.000    0.000    0.000 
#
# Total GULP energy -595397.878164 kJ/mol
# GULP energy per Si atom -12404.122462 kJ/mol
# Density = 1.799924 g / cm^3
# Si number density = 18.040298 Si / 1000 Ang^3
#
#
#
# Elastic Constant Matrix: (Units=GPa)
#
#
# Indices 1 2 3 4 5 6 
#
# 1 125.8477 77.4093 52.1587 0.0000 0.0000 0.0000
# 2 77.4093 120.7615 50.3512 0.0000 0.0000 0.0000
# 3 52.1587 50.3512 70.5147 0.0000 0.0000 0.0000
# 4 0.0000 0.0000 0.0000 18.4188 0.0000 0.0000
# 5 0.0000 0.0000 0.0000 0.0000 27.8196 0.0000
# 6 0.0000 0.0000 0.0000 0.0000 0.0000 44.1284
#
#
#
# Elastic Compliance Matrix: (Units=1/GPa)
#
#
# Indices 1 2 3 4 5 6 
#
# 1 0.014653 -0.006940 -0.005883 0.000000 0.000000 0.000000
# 2 -0.006940 0.015078 -0.005633 0.000000 0.000000 0.000000
# 3 -0.005883 -0.005633 0.022556 0.000000 0.000000 0.000000
# 4 0.000000 0.000000 0.000000 0.054292 0.000000 0.000000
# 5 0.000000 0.000000 0.000000 0.000000 0.035946 0.000000
# 6 0.000000 0.000000 0.000000 0.000000 0.000000 0.022661
#
#
# Mechanical properties :
#
#
# Convention : Reuss Voigt Hill
#
# Bulk Modulus (GPa) = 65.04437 75.21804 70.13120
# Shear Modulus (GPa) = 24.12849 27.22035 25.67442
#
# Velocity S-wave (km/s) = 3.66112 3.88862 3.77659
# Velocity P-wave (km/s) = 7.34881 7.87063 7.61419
#
# Compressibility (1/GPa) = 0.01537412
#
# Stress axis : x y z
#
# Youngs Moduli (GPa) = 68.24436 66.32163 44.33467
#
# Poissons Ratio (x) = 0.46026 0.26084
# Poissons Ratio (y) = 0.47360 0.24975
# Poissons Ratio (z) = 0.40151 0.37361
#
# Static dielectric constant tensor:
#      x y z
#    x 3.395950 0.000000 0.000000 
#    y 0.000000 3.248990 0.000000 
#    z 0.000000 0.000000 3.240090 
# 
# 
# High freq. dielectric constant tensor:
#      x y z
#    x 1.700700 0.000000 0.000000 
#    y 0.000000 1.699600 0.000000 
#    z 0.000000 0.000000 1.693800 
# 
# From -- ./inp_files/12910.got.cif
#   From: 2010.06.25/outbox.cif.g09.slc.cpg/sg71_7_cif.got.tgz:12910.got - 2010.06.28 04:59:45.
