data_PCOD8291138
_publ_section_title
;
Structure prediction by ZEFSAII (Michael W. Deem and Ramdas Pophale) SiO2 
 PCOD8291138
Probable space group: I M M M
;
_chemical_formula_sum "Si O2"
_cell_formula_units_Z 96
_cell_length_a 14.996063
_cell_length_b 19.187302
_cell_length_c 16.785721
_cell_angle_alpha 90.000000
_cell_angle_beta 90.000000
_cell_angle_gamma 90.000000
_cell_volume 4829.822472
_symmetry_space_group_name_H-M "I M M M"
_symmetry_group_IT_number 71
_symmetry_cell_setting 'orthorhombic'
loop_
_space_group_symop_operation_xyz
x,y,z
-x,-y,z
x,-y,-z
-x,y,-z
-x,-y,-z
x,y,-z
-x,y,z
x,-y,z
1/2+x,1/2+y,1/2+z
1/2-x,1/2-y,1/2+z
1/2+x,1/2-y,1/2-z
1/2-x,1/2+y,1/2-z
1/2-x,1/2-y,1/2-z
1/2+x,1/2+y,1/2-z
1/2-x,1/2+y,1/2+z
1/2+x,1/2-y,1/2+z
loop_
_atom_site_type_symbol
_atom_site_label
_atom_site_fract_x
_atom_site_fract_y
_atom_site_fract_z
Si Si1 0.598863 0.690957 0.370388
Si Si2 0.328854 0.076588 0.000000
Si Si3 0.102490 0.578975 0.822714
Si Si4 0.600901 0.135241 0.840637
Si Si5 0.773174 0.684222 0.091037
Si Si6 0.899395 0.204504 0.310347
Si Si7 0.624434 0.423053 0.500000
O O1 0.500000 0.725857 0.380001
O O2 0.678338 0.741464 0.398105
O O3 0.614524 0.673108 0.277680
O O4 0.598237 0.620016 0.421058
O O5 0.347240 0.122461 0.077932
O O6 0.226749 0.061305 0.000000
O O7 0.377659 0.000000 0.000000
O O8 0.112823 0.500000 0.850638
O O9 0.135468 0.586176 0.731016
O O10 0.160308 0.624379 0.881914
O O11 0.000000 0.604420 0.827612
O O12 0.500000 0.117705 0.862290
O O13 0.613809 0.212710 0.807689
O O14 0.678400 0.674329 0.134651
O O15 0.749600 0.673275 0.000000
O O16 0.000000 0.186411 0.341907
O O17 0.577440 0.500000 0.500000
#
# Coordination Sequence:
#
# PCOD8291138 Si02
#       7
#    16   8  16  16  16  16   8
#     4  11  22  40  63  87 122 163 205 251 302 366
#     4  11  23  35  51  85 129 170 208 248 306 370
#     4  10  22  40  62  90 124 160 201 253 311 371
#     4  10  20  36  58  85 122 164 208 254 305 364
#     4  12  24  38  64  92 121 160 205 255 310 362
#     4  10  23  41  63  90 120 160 210 258 302 358
#     4  11  25  39  59  93 128 163 201 249 309 373
#
# _framework density 19.876507
#
# number of rings (size 3 to 8) (size 9 to 14) (size 15 to 20)
#    0.000    1.333    2.500    3.000    3.500    3.667 
#    0.000    0.833    0.000    1.500    0.000    1.167 
#    0.000    0.000    0.000    0.000    0.000    0.000 
#
# Total GULP energy -595043.857048 kJ/mol
# GULP energy per Si atom -12396.747022 kJ/mol
# Density = 1.983127 g / cm^3
# Si number density = 19.876507 Si / 1000 Ang^3
#
#
#
# Elastic Constant Matrix: (Units=GPa)
#
#
# Indices 1 2 3 4 5 6 
#
# 1 109.8608 38.1189 66.7195 0.0000 0.0000 0.0000
# 2 38.1189 89.8483 54.1992 0.0000 0.0000 0.0000
# 3 66.7195 54.1992 155.8676 -0.0001 0.0000 0.0000
# 4 0.0000 0.0000 -0.0001 50.2310 0.0000 0.0000
# 5 0.0000 0.0000 0.0000 0.0000 22.0483 0.0000
# 6 0.0000 0.0000 0.0000 0.0000 0.0000 22.7676
#
#
#
# Elastic Compliance Matrix: (Units=1/GPa)
#
#
# Indices 1 2 3 4 5 6 
#
# 1 0.012793 -0.002688 -0.004541 0.000000 0.000000 0.000000
# 2 -0.002688 0.014649 -0.003943 0.000000 0.000000 0.000000
# 3 -0.004541 -0.003943 0.009731 0.000000 0.000000 0.000000
# 4 0.000000 0.000000 0.000000 0.019908 0.000000 0.000000
# 5 0.000000 0.000000 0.000000 0.000000 0.045355 0.000000
# 6 0.000000 0.000000 0.000000 0.000000 0.000000 0.043922
#
#
# Mechanical properties :
#
#
# Convention : Reuss Voigt Hill
#
# Bulk Modulus (GPa) = 67.44200 74.85020 71.14610
# Shear Modulus (GPa) = 28.79422 32.11198 30.45310
#
# Velocity S-wave (km/s) = 3.81025 4.02378 3.91847
# Velocity P-wave (km/s) = 7.30490 7.70241 7.50629
#
# Compressibility (1/GPa) = 0.01482756
#
# Stress axis : x y z
#
# Youngs Moduli (GPa) = 78.16666 68.26422 102.76629
#
# Poissons Ratio (x) = 0.18350 0.46671
# Poissons Ratio (y) = 0.21012 0.40523
# Poissons Ratio (z) = 0.35499 0.26918
#
# Static dielectric constant tensor:
#      x y z
#    x 3.852100 0.000000 0.000000 
#    y 0.000000 3.503310 0.000000 
#    z 0.000000 0.000000 3.663420 
# 
# 
# High freq. dielectric constant tensor:
#      x y z
#    x 1.786230 0.000000 0.000000 
#    y 0.000000 1.753460 0.000000 
#    z 0.000000 0.000000 1.778500 
# 
# From -- ./inp_files/34550.got.cif
#   From: 2010.06.25/outbox.cif.g09.slc.cpg/sg71_18_cif.got.tgz:34550.got - 2010.06.28 04:59:45.
