data_PCOD8291066
_publ_section_title
;
Structure prediction by ZEFSAII (Michael W. Deem and Ramdas Pophale) SiO2 
 PCOD8291066
Probable space group: I M M M
;
_chemical_formula_sum "Si O2"
_cell_formula_units_Z 104
_cell_length_a 23.763467
_cell_length_b 9.070826
_cell_length_c 26.216904
_cell_angle_alpha 90.000000
_cell_angle_beta 90.000000
_cell_angle_gamma 90.000000
_cell_volume 5651.165716
_symmetry_space_group_name_H-M "I M M M"
_symmetry_group_IT_number 71
_symmetry_cell_setting 'orthorhombic'
loop_
_space_group_symop_operation_xyz
x,y,z
-x,-y,z
x,-y,-z
-x,y,-z
-x,-y,-z
x,y,-z
-x,y,z
x,-y,z
1/2+x,1/2+y,1/2+z
1/2-x,1/2-y,1/2+z
1/2+x,1/2-y,1/2-z
1/2-x,1/2+y,1/2-z
1/2-x,1/2-y,1/2-z
1/2+x,1/2+y,1/2-z
1/2-x,1/2+y,1/2+z
1/2+x,1/2-y,1/2+z
loop_
_atom_site_type_symbol
_atom_site_label
_atom_site_fract_x
_atom_site_fract_y
_atom_site_fract_z
Si Si1 0.934315 0.329751 0.500000
Si Si2 0.563642 0.826634 0.640189
Si Si3 0.654993 0.172450 0.441446
Si Si4 0.262751 0.672851 0.370290
Si Si5 0.144616 0.828589 0.211996
Si Si6 0.433640 0.172187 0.109958
Si Si7 0.155702 0.173903 0.327670
O O1 0.920072 0.500000 0.500000
O O2 0.911439 0.267802 0.445880
O O3 0.000000 0.302958 0.500000
O O4 0.500000 0.768936 0.632611
O O5 0.599431 0.780813 0.590231
O O6 0.589931 0.755485 0.690961
O O7 0.564612 0.000000 0.648382
O O8 0.644164 0.215543 0.500000
O O9 0.709132 0.260675 0.421121
O O10 0.667514 0.000000 0.434973
O O11 0.254329 0.500000 0.378174
O O12 0.301466 0.711156 0.321926
O O13 0.202868 0.746883 0.361235
O O14 0.159456 0.776435 0.268866
O O15 0.129971 0.000000 0.210145
O O16 0.500000 0.195168 0.115458
O O17 0.404597 0.272343 0.152381
O O18 0.418342 0.000000 0.117245
O O19 0.162318 0.000000 0.333677
#
# Coordination Sequence:
#
# PCOD8291066 Si02
#       7
#     8  16  16  16  16  16  16
#     4   7  12  28  53  73  91 121 159 197 236 279
#     4   9  18  32  52  80 110 141 179 218 258 310
#     4   9  18  34  55  78 108 143 175 215 267 315
#     4  10  20  36  56  76  99 132 177 221 261 309
#     4   9  20  36  53  73 101 138 175 215 262 310
#     4   9  18  34  55  77 101 131 168 209 252 300
#     4  11  22  35  52  77 106 135 170 213 264 317
#
# _framework density 18.403282000000001
#
# number of rings (size 3 to 8) (size 9 to 14) (size 15 to 20)
#    0.000    2.692    0.000    2.308    0.000    3.692 
#    1.385    5.000    0.000    1.385    0.000    4.308 
#    0.000    0.000    0.000    0.000    0.000    0.000 
#
# Total GULP energy -644666.494614 kJ/mol
# GULP energy per Si atom -12397.432589 kJ/mol
# Density = 1.836140 g / cm^3
# Si number density = 18.403282 Si / 1000 Ang^3
#
#
#
# Elastic Constant Matrix: (Units=GPa)
#
#
# Indices 1 2 3 4 5 6 
#
# 1 99.0009 38.9676 42.3508 0.0000 0.0000 0.0000
# 2 38.9676 52.5032 35.0409 0.0000 0.0000 0.0000
# 3 42.3508 35.0409 75.4332 0.0000 0.0000 0.0000
# 4 0.0000 0.0000 0.0000 27.4077 0.0000 0.0000
# 5 0.0000 0.0000 0.0000 0.0000 20.4703 0.0000
# 6 0.0000 0.0000 0.0000 0.0000 0.0000 30.8842
#
#
#
# Elastic Compliance Matrix: (Units=1/GPa)
#
#
# Indices 1 2 3 4 5 6 
#
# 1 0.015397 -0.008201 -0.004835 0.000000 0.000000 0.000000
# 2 -0.008201 0.031973 -0.010248 0.000000 0.000000 0.000000
# 3 -0.004835 -0.010248 0.020732 0.000000 0.000000 0.000000
# 4 0.000000 0.000000 0.000000 0.036486 0.000000 0.000000
# 5 0.000000 0.000000 0.000000 0.000000 0.048851 0.000000
# 6 0.000000 0.000000 0.000000 0.000000 0.000000 0.032379
#
#
# Mechanical properties :
#
#
# Convention : Reuss Voigt Hill
#
# Bulk Modulus (GPa) = 46.43819 51.07286 48.75552
# Shear Modulus (GPa) = 20.87131 23.12430 21.99780
#
# Velocity S-wave (km/s) = 3.37131 3.54860 3.46109
# Velocity P-wave (km/s) = 6.35946 6.67850 6.52093
#
# Compressibility (1/GPa) = 0.02153400
#
# Stress axis : x y z
#
# Youngs Moduli (GPa) = 64.94718 31.27683 48.23519
#
# Poissons Ratio (x) = 0.25649 0.23322
# Poissons Ratio (y) = 0.53262 0.49431
# Poissons Ratio (z) = 0.31402 0.32052
#
# Static dielectric constant tensor:
#      x y z
#    x 3.323070 0.000000 0.000000 
#    y 0.000000 3.236210 0.000000 
#    z 0.000000 0.000000 3.614470 
# 
# 
# High freq. dielectric constant tensor:
#      x y z
#    x 1.706670 0.000000 0.000000 
#    y 0.000000 1.701290 0.000000 
#    z 0.000000 0.000000 1.720100 
# 
# From -- ./inp_files/63527.got.cif
#   From: 2010.06.25/outbox.cif.g09.slc.cpg/sg71_32_cif.got.tgz:63527.got - 2010.06.28 04:59:45.
