data_PCOD8291579
_publ_section_title
;
Structure prediction by ZEFSAII (Michael W. Deem and Ramdas Pophale) SiO2 
 PCOD8291579
Probable space group: I M M M
;
_chemical_formula_sum "Si O2"
_cell_formula_units_Z 88
_cell_length_a 27.164786
_cell_length_b 9.570317
_cell_length_c 17.434014
_cell_angle_alpha 90.000000
_cell_angle_beta 90.000000
_cell_angle_gamma 90.000000
_cell_volume 4532.418481
_symmetry_space_group_name_H-M "I M M M"
_symmetry_group_IT_number 71
_symmetry_cell_setting 'orthorhombic'
loop_
_space_group_symop_operation_xyz
x,y,z
-x,-y,z
x,-y,-z
-x,y,-z
-x,-y,-z
x,y,-z
-x,y,z
x,-y,z
1/2+x,1/2+y,1/2+z
1/2-x,1/2-y,1/2+z
1/2+x,1/2-y,1/2-z
1/2-x,1/2+y,1/2-z
1/2-x,1/2-y,1/2-z
1/2+x,1/2+y,1/2-z
1/2-x,1/2+y,1/2+z
1/2+x,1/2-y,1/2+z
loop_
_atom_site_type_symbol
_atom_site_label
_atom_site_fract_x
_atom_site_fract_y
_atom_site_fract_z
Si Si1 0.859372 0.160679 0.661414
Si Si2 0.556353 0.837216 0.911714
Si Si3 0.500000 0.843829 0.591707
Si Si4 0.259402 0.338865 0.086415
Si Si5 0.412901 0.344887 0.590494
Si Si6 0.816386 0.162796 0.824313
O O1 0.907446 0.250564 0.642708
O O2 0.817917 0.181792 0.596561
O O3 0.835442 0.210696 0.741380
O O4 0.876253 0.000000 0.667353
O O5 0.500000 0.803942 0.888398
O O6 0.567684 0.000000 0.900123
O O7 0.565101 0.794282 0.000000
O O8 0.500000 0.846251 0.500000
O O9 0.547803 0.764210 0.624202
O O10 0.500000 0.000000 0.625336
O O11 0.245076 0.500000 0.099865
O O12 0.231339 0.248762 0.150206
O O13 0.245847 0.291136 0.000000
O O14 0.415987 0.345222 0.500000
O O15 0.425057 0.500000 0.622706
O O16 0.358628 0.299813 0.614732
O O17 0.802084 0.000000 0.824667
#
# Coordination Sequence:
#
# PCOD8291579 Si02
#       6
#    16  16   8  16  16  16
#     4  10  21  37  56  82 115 148 182 224 277 332
#     4   9  19  37  60  85 113 146 186 230 273 321
#     4   9  17  29  47  71  95 123 166 217 264 313
#     4  10  21  36  55  80 110 144 183 229 279 329
#     4   9  17  31  50  70  96 133 176 221 267 313
#     4  10  21  36  54  79 109 144 184 224 269 326
#
# _framework density 19.415682
#
# number of rings (size 3 to 8) (size 9 to 14) (size 15 to 20)
#    0.000    2.455    0.000    2.455    0.000    5.818 
#    1.636    2.727    0.000    0.000    0.000    0.000 
#    0.000    0.000    0.000    0.000    0.000    0.000 
#
# Total GULP energy -545605.711830 kJ/mol
# GULP energy per Si atom -12400.129814 kJ/mol
# Density = 1.937149 g / cm^3
# Si number density = 19.415682 Si / 1000 Ang^3
#
#
#
# Elastic Constant Matrix: (Units=GPa)
#
#
# Indices 1 2 3 4 5 6 
#
# 1 105.9625 61.7202 42.9430 0.0000 0.0000 0.0000
# 2 61.7202 87.3712 44.1289 0.0000 0.0000 0.0000
# 3 42.9430 44.1289 71.9730 0.0000 0.0000 0.0000
# 4 0.0000 0.0000 0.0000 26.5170 0.0000 0.0000
# 5 0.0000 0.0000 0.0000 0.0000 13.0634 0.0000
# 6 0.0000 0.0000 0.0000 0.0000 0.0000 36.6022
#
#
#
# Elastic Compliance Matrix: (Units=1/GPa)
#
#
# Indices 1 2 3 4 5 6 
#
# 1 0.016786 -0.009849 -0.003976 0.000000 0.000000 0.000000
# 2 -0.009849 0.022359 -0.007832 0.000000 0.000000 0.000000
# 3 -0.003976 -0.007832 0.021069 0.000000 0.000000 0.000000
# 4 0.000000 0.000000 0.000000 0.037712 0.000000 0.000000
# 5 0.000000 0.000000 0.000000 0.000000 0.076550 0.000000
# 6 0.000000 0.000000 0.000000 0.000000 0.000000 0.027321
#
#
# Mechanical properties :
#
#
# Convention : Reuss Voigt Hill
#
# Bulk Modulus (GPa) = 59.18018 62.54341 60.86179
# Shear Modulus (GPa) = 19.94063 23.00418 21.47241
#
# Velocity S-wave (km/s) = 3.20822 3.44586 3.32916
# Velocity P-wave (km/s) = 6.65360 6.93648 6.79651
#
# Compressibility (1/GPa) = 0.01689755
#
# Stress axis : x y z
#
# Youngs Moduli (GPa) = 59.57439 44.72461 47.46334
#
# Poissons Ratio (x) = 0.44051 0.18873
# Poissons Ratio (y) = 0.58677 0.37175
# Poissons Ratio (z) = 0.23689 0.35030
#
# Static dielectric constant tensor:
#      x y z
#    x 3.515780 0.000000 0.000000 
#    y 0.000000 3.521450 0.000000 
#    z 0.000000 0.000000 3.403320 
# 
# 
# High freq. dielectric constant tensor:
#      x y z
#    x 1.759140 0.000000 0.000000 
#    y 0.000000 1.748850 0.000000 
#    z 0.000000 0.000000 1.745750 
# 
# From -- ./inp_files/49257.got.cif
#   From: 2010.06.25/outbox.cif.g09.slc.cpg/sg71_25_cif.got.tgz:49257.got - 2010.06.28 04:59:45.
