data_PCOD8291715
_publ_section_title
;
Structure prediction by ZEFSAII (Michael W. Deem and Ramdas Pophale) SiO2 
 PCOD8291715
Probable space group: I M M M
;
_chemical_formula_sum "Si O2"
_cell_formula_units_Z 112
_cell_length_a 27.532641
_cell_length_b 14.179673
_cell_length_c 14.495427
_cell_angle_alpha 90.000000
_cell_angle_beta 90.000000
_cell_angle_gamma 90.000000
_cell_volume 5659.070453
_symmetry_space_group_name_H-M "I M M M"
_symmetry_group_IT_number 71
_symmetry_cell_setting 'orthorhombic'
loop_
_space_group_symop_operation_xyz
x,y,z
-x,-y,z
x,-y,-z
-x,y,-z
-x,-y,-z
x,y,-z
-x,y,z
x,-y,z
1/2+x,1/2+y,1/2+z
1/2-x,1/2-y,1/2+z
1/2+x,1/2-y,1/2-z
1/2-x,1/2+y,1/2-z
1/2-x,1/2-y,1/2-z
1/2+x,1/2+y,1/2-z
1/2-x,1/2+y,1/2+z
1/2+x,1/2-y,1/2+z
loop_
_atom_site_type_symbol
_atom_site_label
_atom_site_fract_x
_atom_site_fract_y
_atom_site_fract_z
Si Si1 0.715232 0.766519 0.392699
Si Si2 0.675421 0.771456 0.106033
Si Si3 0.854411 0.612237 0.775956
Si Si4 0.396936 0.393207 0.101598
Si Si5 0.858618 0.106278 0.106252
Si Si6 0.447833 0.389318 0.281442
Si Si7 0.445518 0.111816 0.603695
O O1 0.712944 0.794380 0.500000
O O2 0.769950 0.747609 0.360240
O O3 0.691050 0.851281 0.335950
O O4 0.688044 0.668521 0.371775
O O5 0.649076 0.847305 0.171982
O O6 0.649791 0.671101 0.116487
O O7 0.673553 0.808707 0.000000
O O8 0.851679 0.500000 0.770714
O O9 0.904924 0.647621 0.823422
O O10 0.378468 0.500000 0.116381
O O11 0.438940 0.367699 0.173785
O O12 0.419560 0.378640 0.000000
O O13 0.904576 0.153996 0.157743
O O14 0.847755 0.000000 0.141609
O O15 0.872382 0.105882 0.000000
O O16 0.500000 0.344389 0.308574
O O17 0.449458 0.500000 0.301134
O O18 0.433301 0.149373 0.500000
O O19 0.500000 0.145403 0.633221
O O20 0.444166 0.000000 0.601599
#
# Coordination Sequence:
#
# PCOD8291715 Si02
#       7
#    16  16  16  16  16  16  16
#     4  10  21  37  56  79 108 139 176 225 274 318
#     4  10  22  39  56  77 109 145 181 223 268 317
#     4  11  22  35  55  82 111 144 181 221 267 320
#     4   9  18  34  56  78 100 131 172 217 264 311
#     4   9  18  33  53  76 104 140 177 211 253 311
#     4   9  17  29  48  75 105 137 171 208 253 307
#     4   8  15  31  56  83 109 138 174 219 273 328
#
# _framework density 19.791236000000001
#
# number of rings (size 3 to 8) (size 9 to 14) (size 15 to 20)
#    0.000    2.571    0.000    2.143    0.000    2.857 
#    0.000   10.000    0.000    2.143    0.000    2.000 
#    0.000    0.000    0.000    0.000    0.000    0.000 
#
# Total GULP energy -694206.266535 kJ/mol
# GULP energy per Si atom -12396.540474 kJ/mol
# Density = 1.974619 g / cm^3
# Si number density = 19.791236 Si / 1000 Ang^3
#
#
#
# Elastic Constant Matrix: (Units=GPa)
#
#
# Indices 1 2 3 4 5 6 
#
# 1 110.2142 25.4292 39.3276 0.0000 0.0000 0.0000
# 2 25.4292 69.7302 33.4328 0.0000 0.0000 0.0000
# 3 39.3276 33.4328 78.7974 0.0000 0.0000 0.0000
# 4 0.0000 0.0000 0.0000 27.0071 0.0000 0.0000
# 5 0.0000 0.0000 0.0000 0.0000 45.6513 0.0000
# 6 0.0000 0.0000 0.0000 0.0000 0.0000 -9.2927
#
#
#
# Elastic Compliance Matrix: (Units=1/GPa)
#
#
# Indices 1 2 3 4 5 6 
#
# 1 0.011210 -0.001764 -0.004846 0.000000 0.000000 0.000000
# 2 -0.001764 0.018281 -0.006876 0.000000 0.000000 0.000000
# 3 -0.004846 -0.006876 0.018027 0.000000 0.000000 0.000000
# 4 0.000000 0.000000 0.000000 0.037027 0.000000 0.000000
# 5 0.000000 0.000000 0.000000 0.000000 0.021905 0.000000
# 6 0.000000 0.000000 0.000000 0.000000 0.000000 -0.107611
#
#
# Mechanical properties :
#
#
# Convention : Reuss Voigt Hill
#
# Bulk Modulus (GPa) = 48.67403 50.56898 49.62151
# Shear Modulus (GPa) = 153.09565 23.37664 88.23614
#
# Velocity S-wave (km/s) = 8.80473 3.44053 6.68433
# Velocity P-wave (km/s) = 11.31421 6.43348 9.20329
#
# Compressibility (1/GPa) = 0.02054484
#
# Stress axis : x y z
#
# Youngs Moduli (GPa) = 89.20973 54.70126 55.47315
#
# Poissons Ratio (x) = 0.09652 0.26882
# Poissons Ratio (y) = 0.15740 0.38142
# Poissons Ratio (z) = 0.43231 0.37612
#
# Static dielectric constant tensor:
#      x y z
#    x 3.854760 0.000000 0.000000 
#    y 0.000000 3.445500 0.000000 
#    z 0.000000 0.000000 3.793620 
# 
# 
# High freq. dielectric constant tensor:
#      x y z
#    x 1.769310 0.000000 0.000000 
#    y 0.000000 1.757150 0.000000 
#    z 0.000000 0.000000 1.776950 
# 
# From -- ./inp_files/39260.got.cif
#   From: 2010.06.25/outbox.cif.g09.slc.cpg/sg71_20_cif.got.tgz:39260.got - 2010.06.28 04:59:45.
