data_PCOD8291207
_publ_section_title
;
Structure prediction by ZEFSAII (Michael W. Deem and Ramdas Pophale) SiO2 
 PCOD8291207
Probable space group: I M M M
;
_chemical_formula_sum "Si O2"
_cell_formula_units_Z 64
_cell_length_a 10.676448
_cell_length_b 33.060672
_cell_length_c 9.068396
_cell_angle_alpha 90.000000
_cell_angle_beta 90.000000
_cell_angle_gamma 90.000000
_cell_volume 3200.876683
_symmetry_space_group_name_H-M "I M M M"
_symmetry_group_IT_number 71
_symmetry_cell_setting 'orthorhombic'
loop_
_space_group_symop_operation_xyz
x,y,z
-x,-y,z
x,-y,-z
-x,y,-z
-x,-y,-z
x,y,-z
-x,y,z
x,-y,z
1/2+x,1/2+y,1/2+z
1/2-x,1/2-y,1/2+z
1/2+x,1/2-y,1/2-z
1/2-x,1/2+y,1/2-z
1/2-x,1/2-y,1/2-z
1/2+x,1/2+y,1/2-z
1/2-x,1/2+y,1/2+z
1/2+x,1/2-y,1/2+z
loop_
_atom_site_type_symbol
_atom_site_label
_atom_site_fract_x
_atom_site_fract_y
_atom_site_fract_z
Si Si1 0.141071 0.000000 0.156908
Si Si2 0.260569 0.425387 0.828530
Si Si3 0.000000 0.455041 0.174024
Si Si4 0.743645 0.334149 0.173967
Si Si5 0.000000 0.213174 0.673303
Si Si6 0.500000 0.806638 0.824601
O O1 0.160701 0.040958 0.246645
O O2 0.000000 0.000000 0.112261
O O3 0.216690 0.000000 0.000000
O O4 0.302542 0.379816 0.792882
O O5 0.118331 0.429668 0.772598
O O6 0.274267 0.435059 0.000000
O O7 0.000000 0.500000 0.245119
O O8 0.000000 0.459702 0.000000
O O9 0.629161 0.306545 0.234924
O O10 0.873534 0.325608 0.257824
O O11 0.768596 0.327706 0.000000
O O12 0.000000 0.259634 0.719273
O O13 0.000000 0.206001 0.500000
O O14 0.500000 0.812978 0.000000
#
# Coordination Sequence:
#
# PCOD8291207 Si02
#       6
#     8  16   8  16   8   8
#     4  11  25  40  53  76 118 161 190 229 284 343
#     4  10  20  36  61  86 109 145 194 242 287 336
#     4   9  15  28  50  80 109 130 168 231 284 325
#     4  10  21  38  62  90 119 152 199 256 300 343
#     4   9  20  38  60  89 120 152 198 253 301 351
#     4  11  22  38  60  87 123 162 195 234 298 374
#
# _framework density 19.994522
#
# number of rings (size 3 to 8) (size 9 to 14) (size 15 to 20)
#    0.000    2.000    1.250    2.250    1.750    4.000 
#    0.000    3.125    0.000    0.000    0.000    0.000 
#    0.000    0.000    0.000    0.000    0.000    0.000 
#
# Total GULP energy -396589.071988 kJ/mol
# GULP energy per Si atom -12393.408500 kJ/mol
# Density = 1.994901 g / cm^3
# Si number density = 19.994522 Si / 1000 Ang^3
#
#
#
# Elastic Constant Matrix: (Units=GPa)
#
#
# Indices 1 2 3 4 5 6 
#
# 1 113.3339 41.6032 42.0389 -0.0405 -0.0025 -0.0180
# 2 41.6032 133.5576 54.1551 0.0052 -0.0042 0.0209
# 3 42.0389 54.1551 71.4870 -0.2413 -0.0109 -0.1157
# 4 -0.0405 0.0052 -0.2413 -356.8805 0.0308 -0.6439
# 5 -0.0025 -0.0042 -0.0109 0.0308 22.5190 -0.0713
# 6 -0.0180 0.0209 -0.1157 -0.6439 -0.0713 -101.8258
#
#
#
# Elastic Compliance Matrix: (Units=1/GPa)
#
#
# Indices 1 2 3 4 5 6 
#
# 1 0.011418 -0.001204 -0.005802 0.000003 -0.000002 0.000004
# 2 -0.001204 0.010934 -0.007575 0.000005 -0.000002 0.000011
# 3 -0.005802 -0.007575 0.023139 -0.000015 0.000009 -0.000027
# 4 0.000003 0.000005 -0.000015 -0.002802 0.000004 0.000018
# 5 -0.000002 -0.000002 0.000009 0.000004 0.044407 -0.000031
# 6 0.000004 0.000011 -0.000027 0.000018 -0.000031 -0.009821
#
#
# Mechanical properties :
#
#
# Convention : Reuss Voigt Hill
#
# Bulk Modulus (GPa) = 61.24355 65.99699 63.62027
# Shear Modulus (GPa) = 44.69084 -75.19869 -15.25393
#
# Velocity S-wave (km/s) = 4.73287 -6.13932 -2.76507
# Velocity P-wave (km/s) = 7.78225 4.14438 4.65766
#
# Compressibility (1/GPa) = 0.01632825
#
# Stress axis : x y z
#
# Youngs Moduli (GPa) = 87.58368 91.45825 43.21696
#
# Poissons Ratio (x) = 0.11010 0.25076
# Poissons Ratio (y) = 0.10544 0.32737
# Poissons Ratio (z) = 0.50819 0.69280
#
# Static dielectric constant tensor:
#      x y z
#    x 3.535800 -0.000010 -0.000020 
#    y -0.000010 3.794450 -0.000020 
#    z -0.000020 -0.000020 3.332690 
# 
# 
# High freq. dielectric constant tensor:
#      x y z
#    x 1.788210 0.000000 0.000000 
#    y 0.000000 1.794520 0.000000 
#    z 0.000000 0.000000 1.749540 
# 
# From -- ./inp_files/3828.got.cif
#   From: 2010.06.25/outbox.cif.g09.slc.cpg/sg71_2_cif.got.tgz:3828.got - 2010.06.28 04:59:45.
