data_PCOD8291986
_publ_section_title
;
Structure prediction by ZEFSAII (Michael W. Deem and Ramdas Pophale) SiO2 
 PCOD8291986
Probable space group: I M M M
;
_chemical_formula_sum "Si O2"
_cell_formula_units_Z 60
_cell_length_a 10.382453
_cell_length_b 13.972877
_cell_length_c 19.772894
_cell_angle_alpha 90.000000
_cell_angle_beta 90.000000
_cell_angle_gamma 90.000000
_cell_volume 2868.507885
_symmetry_space_group_name_H-M "I M M M"
_symmetry_group_IT_number 71
_symmetry_cell_setting 'orthorhombic'
loop_
_space_group_symop_operation_xyz
x,y,z
-x,-y,z
x,-y,-z
-x,y,-z
-x,-y,-z
x,y,-z
-x,y,z
x,-y,z
1/2+x,1/2+y,1/2+z
1/2-x,1/2-y,1/2+z
1/2+x,1/2-y,1/2-z
1/2-x,1/2+y,1/2-z
1/2-x,1/2-y,1/2-z
1/2+x,1/2+y,1/2-z
1/2-x,1/2+y,1/2+z
1/2+x,1/2-y,1/2+z
loop_
_atom_site_type_symbol
_atom_site_label
_atom_site_fract_x
_atom_site_fract_y
_atom_site_fract_z
Si Si1 0.000000 0.000000 0.177336
Si Si2 0.650630 0.000000 0.618298
Si Si3 0.643563 0.793819 0.799658
Si Si4 0.249753 0.200978 0.575863
Si Si5 0.721995 0.000000 0.226477
Si Si6 0.500000 0.324701 0.423453
O O1 0.877048 0.000000 0.226494
O O2 0.000000 0.909190 0.129397
O O3 0.720857 0.909995 0.585723
O O4 0.500000 0.000000 0.599529
O O5 0.668220 0.000000 0.698280
O O6 0.500000 0.779966 0.768615
O O7 0.750000 0.750000 0.750000
O O8 0.644398 0.738785 0.871157
O O9 0.669813 0.906242 0.811954
O O10 0.197638 0.217757 0.500000
O O11 0.377987 0.259575 0.590593
O O12 0.500000 0.365289 0.500000
#
# Coordination Sequence:
#
# PCOD8291986 Si02
#       6
#     4   8  16  16   8   8
#     4  12  23  40  68 102 135 172 228 284 340 400
#     4  12  23  40  65  98 138 177 226 281 339 411
#     4  12  27  46  71  99 139 183 231 282 339 405
#     4  11  24  42  68 100 136 181 226 280 345 407
#     4  12  26  40  70 101 141 174 226 278 343 408
#     4  10  21  39  64  97 135 177 223 275 338 407
#
# _framework density 20.916799000000001
#
# number of rings (size 3 to 8) (size 9 to 14) (size 15 to 20)
#    0.000    0.533    6.667    1.800    3.733    1.067 
#    0.000    0.667    0.000    3.200    0.000    0.000 
#    0.000    0.000    0.000    0.000    0.000    0.000 
#
# Total GULP energy -372109.987437 kJ/mol
# GULP energy per Si atom -12403.666248 kJ/mol
# Density = 2.086919 g / cm^3
# Si number density = 20.916799 Si / 1000 Ang^3
#
#
#
# Elastic Constant Matrix: (Units=GPa)
#
#
# Indices 1 2 3 4 5 6 
#
# 1 131.1208 38.5043 29.3607 0.0000 0.0000 0.0000
# 2 38.5043 153.7922 45.8864 0.0000 0.0000 0.0000
# 3 29.3607 45.8864 101.7000 0.0000 0.0000 0.0000
# 4 0.0000 0.0000 0.0000 -58.1708 0.0000 0.0000
# 5 0.0000 0.0000 0.0000 0.0000 27.2116 0.0000
# 6 0.0000 0.0000 0.0000 0.0000 0.0000 21.2071
#
#
#
# Elastic Compliance Matrix: (Units=1/GPa)
#
#
# Indices 1 2 3 4 5 6 
#
# 1 0.008485 -0.001610 -0.001723 0.000000 0.000000 0.000000
# 2 -0.001610 0.007819 -0.003063 0.000000 0.000000 0.000000
# 3 -0.001723 -0.003063 0.011712 0.000000 0.000000 0.000000
# 4 0.000000 0.000000 0.000000 -0.017191 0.000000 0.000000
# 5 0.000000 0.000000 0.000000 0.000000 0.036749 0.000000
# 6 0.000000 0.000000 0.000000 0.000000 0.000000 0.047154
#
#
# Mechanical properties :
#
#
# Convention : Reuss Voigt Hill
#
# Bulk Modulus (GPa) = 65.68639 68.23510 66.96075
# Shear Modulus (GPa) = 44.40604 16.24033 30.32319
#
# Velocity S-wave (km/s) = 4.61258 2.78946 3.81163
# Velocity P-wave (km/s) = 7.73562 6.56261 7.17313
#
# Compressibility (1/GPa) = 0.01522385
#
# Stress axis : x y z
#
# Youngs Moduli (GPa) = 117.85125 127.88725 85.37964
#
# Poissons Ratio (x) = 0.20594 0.14712
# Poissons Ratio (y) = 0.18978 0.26153
# Poissons Ratio (z) = 0.20307 0.39174
#
# Static dielectric constant tensor:
#      x y z
#    x 3.703680 0.000000 0.000000 
#    y 0.000000 4.455480 0.000000 
#    z 0.000000 0.000000 3.826300 
# 
# 
# High freq. dielectric constant tensor:
#      x y z
#    x 1.812860 0.000000 0.000000 
#    y 0.000000 1.838430 0.000000 
#    z 0.000000 0.000000 1.818350 
# 
# From -- ./inp_files/19402.got.cif
#   From: 2010.06.25/outbox.cif.g09.slc.cpg/sg71_10_cif.got.tgz:19402.got - 2010.06.28 04:59:45.
