data_PCOD8291281
_publ_section_title
;
Structure prediction by ZEFSAII (Michael W. Deem and Ramdas Pophale) SiO2 
 PCOD8291281
Probable space group: I M M M
;
_chemical_formula_sum "Si O2"
_cell_formula_units_Z 60
_cell_length_a 18.108291
_cell_length_b 12.972995
_cell_length_c 14.029860
_cell_angle_alpha 90.000000
_cell_angle_beta 90.000000
_cell_angle_gamma 90.000000
_cell_volume 3295.877435
_symmetry_space_group_name_H-M "I M M M"
_symmetry_group_IT_number 71
_symmetry_cell_setting 'orthorhombic'
loop_
_space_group_symop_operation_xyz
x,y,z
-x,-y,z
x,-y,-z
-x,y,-z
-x,-y,-z
x,y,-z
-x,y,z
x,-y,z
1/2+x,1/2+y,1/2+z
1/2-x,1/2-y,1/2+z
1/2+x,1/2-y,1/2-z
1/2-x,1/2+y,1/2-z
1/2-x,1/2-y,1/2-z
1/2+x,1/2+y,1/2-z
1/2-x,1/2+y,1/2+z
1/2+x,1/2-y,1/2+z
loop_
_atom_site_type_symbol
_atom_site_label
_atom_site_fract_x
_atom_site_fract_y
_atom_site_fract_z
Si Si1 0.639354 0.190914 0.799529
Si Si2 0.000000 0.382717 0.815380
Si Si3 0.087716 0.378663 0.500000
Si Si4 0.799089 0.117646 0.205529
Si Si5 0.647369 0.619253 0.500000
Si Si6 0.500000 0.746220 0.500000
O O1 0.571999 0.138507 0.746227
O O2 0.713676 0.132472 0.766921
O O3 0.648016 0.311424 0.771226
O O4 0.624509 0.178819 0.911169
O O5 0.000000 0.500000 0.848104
O O6 0.000000 0.315197 0.907961
O O7 0.108568 0.500000 0.500000
O O8 0.000000 0.363762 0.500000
O O9 0.823315 0.000000 0.224069
O O10 0.806767 0.149340 0.094283
O O11 0.628245 0.500000 0.500000
O O12 0.570769 0.676205 0.500000
#
# Coordination Sequence:
#
# PCOD8291281 Si02
#       6
#    16   8   8  16   8   4
#     4  11  22  38  61  86 118 149 195 243 288 344
#     4  12  23  38  59  85 118 154 190 240 293 347
#     4  11  21  35  59  86 112 148 194 244 290 335
#     4  10  21  38  61  87 116 154 194 238 291 343
#     4  10  20  37  61  86 116 152 195 241 284 337
#     4  12  22  38  54  90 120 154 192 232 286 354
#
# _framework density 18.204561000000002
#
# number of rings (size 3 to 8) (size 9 to 14) (size 15 to 20)
#    0.000    1.200    4.000    3.600    0.000    1.067 
#    0.000    1.333    0.000    0.800    0.000    0.000 
#    0.000    0.000    0.000    0.000    0.000    0.000 
#
# Total GULP energy -372077.721995 kJ/mol
# GULP energy per Si atom -12402.590733 kJ/mol
# Density = 1.816313 g / cm^3
# Si number density = 18.204561 Si / 1000 Ang^3
#
#
#
# Elastic Constant Matrix: (Units=GPa)
#
#
# Indices 1 2 3 4 5 6 
#
# 1 97.5301 38.1209 24.5886 0.0000 0.0000 0.0000
# 2 38.1209 96.1150 52.3005 0.0000 0.0000 0.0000
# 3 24.5886 52.3005 118.2902 0.0000 0.0000 0.0000
# 4 0.0000 0.0000 0.0000 34.3909 0.0000 0.0000
# 5 0.0000 0.0000 0.0000 0.0000 53.4887 0.0000
# 6 0.0000 0.0000 0.0000 0.0000 0.0000 27.4971
#
#
#
# Elastic Compliance Matrix: (Units=1/GPa)
#
#
# Indices 1 2 3 4 5 6 
#
# 1 0.012159 -0.004539 -0.000520 0.000000 0.000000 0.000000
# 2 -0.004539 0.015395 -0.005863 0.000000 0.000000 0.000000
# 3 -0.000520 -0.005863 0.011154 0.000000 0.000000 0.000000
# 4 0.000000 0.000000 0.000000 0.029077 0.000000 0.000000
# 5 0.000000 0.000000 0.000000 0.000000 0.018696 0.000000
# 6 0.000000 0.000000 0.000000 0.000000 0.000000 0.036368
#
#
# Mechanical properties :
#
#
# Convention : Reuss Voigt Hill
#
# Bulk Modulus (GPa) = 59.30358 60.21726 59.76042
# Shear Modulus (GPa) = 33.26358 36.20368 34.73363
#
# Velocity S-wave (km/s) = 4.27923 4.46434 4.37276
# Velocity P-wave (km/s) = 7.55398 7.72811 7.64154
#
# Compressibility (1/GPa) = 0.01686239
#
# Stress axis : x y z
#
# Youngs Moduli (GPa) = 82.24602 64.95668 89.65179
#
# Poissons Ratio (x) = 0.29485 0.04666
# Poissons Ratio (y) = 0.37333 0.52564
# Poissons Ratio (z) = 0.04281 0.38085
#
# Static dielectric constant tensor:
#      x y z
#    x 3.451690 0.000000 0.000000 
#    y 0.000000 3.436400 0.000000 
#    z 0.000000 0.000000 6.595100 
# 
# 
# High freq. dielectric constant tensor:
#      x y z
#    x 1.718480 0.000000 0.000000 
#    y 0.000000 1.704290 0.000000 
#    z 0.000000 0.000000 1.708610 
# 
# From -- ./inp_files/21517.got.cif
#   From: 2010.06.25/outbox.cif.g09.slc.cpg/sg71_11_cif.got.tgz:21517.got - 2010.06.28 04:59:45.
