data_PCOD8291824
_publ_section_title
;
Structure prediction by ZEFSAII (Michael W. Deem and Ramdas Pophale) SiO2 
 PCOD8291824
Probable space group: I M M M
;
_chemical_formula_sum "Si O2"
_cell_formula_units_Z 88
_cell_length_a 24.252598
_cell_length_b 8.581657
_cell_length_c 19.926207
_cell_angle_alpha 90.000000
_cell_angle_beta 90.000000
_cell_angle_gamma 90.000000
_cell_volume 4147.191197
_symmetry_space_group_name_H-M "I M M M"
_symmetry_group_IT_number 71
_symmetry_cell_setting 'orthorhombic'
loop_
_space_group_symop_operation_xyz
x,y,z
-x,-y,z
x,-y,-z
-x,y,-z
-x,-y,-z
x,y,-z
-x,y,z
x,-y,z
1/2+x,1/2+y,1/2+z
1/2-x,1/2-y,1/2+z
1/2+x,1/2-y,1/2-z
1/2-x,1/2+y,1/2-z
1/2-x,1/2-y,1/2-z
1/2+x,1/2+y,1/2-z
1/2-x,1/2+y,1/2+z
1/2+x,1/2-y,1/2+z
loop_
_atom_site_type_symbol
_atom_site_label
_atom_site_fract_x
_atom_site_fract_y
_atom_site_fract_z
Si Si1 0.941034 0.315825 0.886561
Si Si2 0.323901 0.817918 0.425781
Si Si3 0.062978 0.683600 0.500000
Si Si4 0.869806 0.179960 0.376794
Si Si5 0.062624 0.676290 0.734937
Si Si6 0.758544 0.682162 0.675755
O O1 0.946111 0.500000 0.886976
O O2 0.888135 0.263883 0.929271
O O3 0.932625 0.261089 0.810235
O O4 0.000000 0.248058 0.914178
O O5 0.298834 0.787601 0.500000
O O6 0.294953 0.715642 0.369182
O O7 0.319017 0.000000 0.406289
O O8 0.058889 0.500000 0.500000
O O9 0.097056 0.734061 0.435083
O O10 0.000000 0.752525 0.500000
O O11 0.902013 0.203493 0.307766
O O12 0.808511 0.244097 0.366166
O O13 0.865625 0.000000 0.395809
O O14 0.086318 0.500000 0.727754
O O15 0.000000 0.678838 0.709157
O O16 0.768317 0.500000 0.683425
O O17 0.750000 0.750000 0.750000
#
# Coordination Sequence:
#
# PCOD8291824 Si02
#       6
#    16  16   8  16  16  16
#     4   8  15  30  55  87 121 159 202 247 297 355
#     4  10  21  37  60  91 128 165 206 256 307 366
#     4  11  25  45  67  93 129 175 224 271 326 393
#     4  12  25  40  62  91 125 164 210 265 324 388
#     4   9  17  32  56  85 119 161 209 258 307 365
#     4  12  26  45  68  92 123 163 214 270 329 394
#
# _framework density 21.219182
#
# number of rings (size 3 to 8) (size 9 to 14) (size 15 to 20)
#    0.000    1.727    0.000    6.273    1.273    5.455 
#    0.000    1.818    0.000    1.636    0.000    1.273 
#    0.000    0.000    0.000    0.000    0.000    0.000 
#
# Total GULP energy -545447.554860 kJ/mol
# GULP energy per Si atom -12396.535338 kJ/mol
# Density = 2.117089 g / cm^3
# Si number density = 21.219182 Si / 1000 Ang^3
#
#
#
# Elastic Constant Matrix: (Units=GPa)
#
#
# Indices 1 2 3 4 5 6 
#
# 1 117.6253 26.6975 50.6576 0.0000 0.0000 0.0000
# 2 26.6975 81.0911 23.4094 0.0000 0.0000 0.0000
# 3 50.6576 23.4094 97.3834 0.0000 0.0000 0.0000
# 4 0.0000 0.0000 0.0000 19.3633 0.0000 0.0000
# 5 0.0000 0.0000 0.0000 0.0000 32.8313 0.0000
# 6 0.0000 0.0000 0.0000 0.0000 0.0000 28.2351
#
#
#
# Elastic Compliance Matrix: (Units=1/GPa)
#
#
# Indices 1 2 3 4 5 6 
#
# 1 0.011302 -0.002175 -0.005356 0.000000 0.000000 0.000000
# 2 -0.002175 0.013670 -0.002155 0.000000 0.000000 0.000000
# 3 -0.005356 -0.002155 0.013573 0.000000 0.000000 0.000000
# 4 0.000000 0.000000 0.000000 0.051644 0.000000 0.000000
# 5 0.000000 0.000000 0.000000 0.000000 0.030459 0.000000
# 6 0.000000 0.000000 0.000000 0.000000 0.000000 0.035417
#
#
# Mechanical properties :
#
#
# Convention : Reuss Voigt Hill
#
# Bulk Modulus (GPa) = 52.15630 55.29209 53.72419
# Shear Modulus (GPa) = 27.49862 29.10828 28.30345
#
# Velocity S-wave (km/s) = 3.60381 3.70779 3.65617
# Velocity P-wave (km/s) = 6.47686 6.66666 6.57245
#
# Compressibility (1/GPa) = 0.01917314
#
# Stress axis : x y z
#
# Youngs Moduli (GPa) = 88.47997 73.15389 73.67565
#
# Poissons Ratio (x) = 0.15908 0.39464
# Poissons Ratio (y) = 0.19241 0.15876
# Poissons Ratio (z) = 0.47393 0.15763
#
# Static dielectric constant tensor:
#      x y z
#    x 5.239380 0.000000 0.000000 
#    y 0.000000 3.536040 0.000000 
#    z 0.000000 0.000000 3.921760 
# 
# 
# High freq. dielectric constant tensor:
#      x y z
#    x 1.848970 0.000000 0.000000 
#    y 0.000000 1.799560 0.000000 
#    z 0.000000 0.000000 1.837620 
# 
# From -- ./inp_files/55570.got.cif
#   From: 2010.06.25/outbox.cif.g09.slc.cpg/sg71_28_cif.got.tgz:55570.got - 2010.06.28 04:59:45.
