data_PCOD8291369
_publ_section_title
;
Structure prediction by ZEFSAII (Michael W. Deem and Ramdas Pophale) SiO2 
 PCOD8291369
Probable space group: I M M M
;
_chemical_formula_sum "Si O2"
_cell_formula_units_Z 88
_cell_length_a 26.581812
_cell_length_b 11.970953
_cell_length_c 14.923227
_cell_angle_alpha 90.000000
_cell_angle_beta 90.000000
_cell_angle_gamma 90.000000
_cell_volume 4748.714424
_symmetry_space_group_name_H-M "I M M M"
_symmetry_group_IT_number 71
_symmetry_cell_setting 'orthorhombic'
loop_
_space_group_symop_operation_xyz
x,y,z
-x,-y,z
x,-y,-z
-x,y,-z
-x,-y,-z
x,y,-z
-x,y,z
x,-y,z
1/2+x,1/2+y,1/2+z
1/2-x,1/2-y,1/2+z
1/2+x,1/2-y,1/2-z
1/2-x,1/2+y,1/2-z
1/2-x,1/2-y,1/2-z
1/2+x,1/2+y,1/2-z
1/2-x,1/2+y,1/2+z
1/2+x,1/2-y,1/2+z
loop_
_atom_site_type_symbol
_atom_site_label
_atom_site_fract_x
_atom_site_fract_y
_atom_site_fract_z
Si Si1 0.190012 0.128521 0.500000
Si Si2 0.140082 0.761765 0.161377
Si Si3 0.058043 0.378178 0.100048
Si Si4 0.714304 0.000000 0.899396
Si Si5 0.856036 0.708066 0.367122
Si Si6 0.674719 0.500000 0.393047
Si Si7 0.940303 0.366850 0.500000
Si Si8 0.691796 0.868986 0.500000
O O1 0.165132 0.181280 0.412467
O O2 0.249013 0.150120 0.500000
O O3 0.175730 0.000000 0.500000
O O4 0.082182 0.725185 0.151251
O O5 0.149471 0.730610 0.263039
O O6 0.145808 0.892341 0.144162
O O7 0.172717 0.688629 0.091645
O O8 0.068591 0.500000 0.145509
O O9 0.000000 0.352726 0.096536
O O10 0.080876 0.382022 0.000000
O O11 0.681815 0.892290 0.881953
O O12 0.768752 0.000000 0.850160
O O13 0.732592 0.000000 0.000000
O O14 0.911190 0.678546 0.410275
O O15 0.671973 0.500000 0.500000
O O16 0.936697 0.500000 0.500000
O O17 0.000000 0.330305 0.500000
O O18 0.677730 0.000000 0.500000
#
# Coordination Sequence:
#
# PCOD8291369 Si02
#       8
#     8  16  16   8  16   8   8   8
#     4  10  23  42  59  81 118 162 210 253 296 357
#     4  12  24  38  59  89 125 162 203 254 302 364
#     4   9  18  35  60  85 113 149 190 240 300 356
#     4  11  20  40  62  84 119 162 205 252 318 367
#     4  11  23  39  62  90 124 160 198 253 317 363
#     4  11  24  40  59  81 121 174 215 246 291 366
#     4  10  20  40  69 100 126 151 194 253 318 378
#     4  11  23  38  59  89 120 160 206 255 301 354
#
# _framework density 18.531331999999999
#
# number of rings (size 3 to 8) (size 9 to 14) (size 15 to 20)
#    0.000    1.364    4.545    2.182    3.818    3.636 
#    0.000    2.273    0.000    6.000    0.000    0.000 
#    0.000    0.000    0.000    0.000    0.000    0.000 
#
# Total GULP energy -545162.139429 kJ/mol
# GULP energy per Si atom -12390.048623 kJ/mol
# Density = 1.848915 g / cm^3
# Si number density = 18.531332 Si / 1000 Ang^3
#
#
#
# Elastic Constant Matrix: (Units=GPa)
#
#
# Indices 1 2 3 4 5 6 
#
# 1 89.9997 72.4200 51.7301 0.0000 0.0000 0.0000
# 2 72.4200 149.3535 52.2520 0.0000 0.0000 0.0000
# 3 51.7301 52.2520 124.7260 0.0000 0.0000 0.0000
# 4 0.0000 0.0000 0.0000 17.4504 0.0000 0.0000
# 5 0.0000 0.0000 0.0000 0.0000 5.0144 0.0000
# 6 0.0000 0.0000 0.0000 0.0000 0.0000 115.0689
#
#
#
# Elastic Compliance Matrix: (Units=1/GPa)
#
#
# Indices 1 2 3 4 5 6 
#
# 1 0.020687 -0.008236 -0.005129 0.000000 0.000000 0.000000
# 2 -0.008236 0.011125 -0.001244 0.000000 0.000000 0.000000
# 3 -0.005129 -0.001244 0.010666 0.000000 0.000000 0.000000
# 4 0.000000 0.000000 0.000000 0.057305 0.000000 0.000000
# 5 0.000000 0.000000 0.000000 0.000000 0.199427 0.000000
# 6 0.000000 0.000000 0.000000 0.000000 0.000000 0.008690
#
#
# Mechanical properties :
#
#
# Convention : Reuss Voigt Hill
#
# Bulk Modulus (GPa) = 75.42915 79.65370 77.54142
# Shear Modulus (GPa) = 14.63957 40.01853 27.32905
#
# Velocity S-wave (km/s) = 2.81373 4.65209 3.84441
# Velocity P-wave (km/s) = 7.16575 8.48130 7.85113
#
# Compressibility (1/GPa) = 0.01325747
#
# Stress axis : x y z
#
# Youngs Moduli (GPa) = 48.33957 89.89067 93.75271
#
# Poissons Ratio (x) = 0.74037 0.48090
# Poissons Ratio (y) = 0.39814 0.11667
# Poissons Ratio (z) = 0.24795 0.11187
#
# Static dielectric constant tensor:
#      x y z
#    x 3.593140 0.000000 0.000000 
#    y 0.000000 3.617900 0.000000 
#    z 0.000000 0.000000 3.798040 
# 
# 
# High freq. dielectric constant tensor:
#      x y z
#    x 1.725200 0.000000 0.000000 
#    y 0.000000 1.721680 0.000000 
#    z 0.000000 0.000000 1.712980 
# 
# From -- ./inp_files/40232.got.cif
#   From: 2010.06.25/outbox.cif.g09.slc.cpg/sg71_21_cif.got.tgz:40232.got - 2010.06.28 04:59:45.
