data_PCOD8291605
_publ_section_title
;
Structure prediction by ZEFSAII (Michael W. Deem and Ramdas Pophale) SiO2 
 PCOD8291605
Probable space group: I M M M
;
_chemical_formula_sum "Si O2"
_cell_formula_units_Z 80
_cell_length_a 9.580772
_cell_length_b 29.437116
_cell_length_c 14.174942
_cell_angle_alpha 90.000000
_cell_angle_beta 90.000000
_cell_angle_gamma 90.000000
_cell_volume 3997.763098
_symmetry_space_group_name_H-M "I M M M"
_symmetry_group_IT_number 71
_symmetry_cell_setting 'orthorhombic'
loop_
_space_group_symop_operation_xyz
x,y,z
-x,-y,z
x,-y,-z
-x,y,-z
-x,-y,-z
x,y,-z
-x,y,z
x,-y,z
1/2+x,1/2+y,1/2+z
1/2-x,1/2-y,1/2+z
1/2+x,1/2-y,1/2-z
1/2-x,1/2+y,1/2-z
1/2-x,1/2-y,1/2-z
1/2+x,1/2+y,1/2-z
1/2-x,1/2+y,1/2+z
1/2+x,1/2-y,1/2+z
loop_
_atom_site_type_symbol
_atom_site_label
_atom_site_fract_x
_atom_site_fract_y
_atom_site_fract_z
Si Si1 0.839662 0.051861 0.244758
Si Si2 0.843862 0.189896 0.112169
Si Si3 0.160384 0.606749 0.611559
Si Si4 0.161602 0.127643 0.392427
Si Si5 0.657349 0.209804 0.387986
O O1 0.739388 0.064111 0.157573
O O2 0.800721 0.082465 0.334840
O O3 0.000000 0.059486 0.213556
O O4 0.812721 0.000000 0.274154
O O5 0.734261 0.152743 0.149335
O O6 0.798522 0.239959 0.148999
O O7 0.000000 0.177661 0.148801
O O8 0.845111 0.190171 0.000000
O O9 0.173676 0.601471 0.500000
O O10 0.000000 0.607854 0.643938
O O11 0.208590 0.118521 0.500000
O O12 0.241494 0.170903 0.346832
O O13 0.000000 0.139842 0.386565
O O14 0.669315 0.209597 0.500000
O O15 0.500000 0.198841 0.355900
#
# Coordination Sequence:
#
# PCOD8291605 Si02
#       5
#    16  16  16  16  16
#     4  10  22  39  57  77 102 135 176 219 263 314
#     4   8  14  27  49  76 106 140 175 209 248 300
#     4  10  21  36  55  80 108 137 171 215 265 311
#     4   9  18  33  54  80 108 137 171 214 261 306
#     4   8  14  26  47  76 108 141 174 207 248 301
#
# _framework density 20.011191
#
# number of rings (size 3 to 8) (size 9 to 14) (size 15 to 20)
#    0.000    3.000    0.000    1.800    0.000    4.000 
#    0.000    9.000    0.000    0.000    0.000    4.200 
#    0.000    0.000    0.000    0.000    0.000    0.000 
#
# Total GULP energy -495920.400581 kJ/mol
# GULP energy per Si atom -12398.010015 kJ/mol
# Density = 1.996564 g / cm^3
# Si number density = 20.011191 Si / 1000 Ang^3
#
#
#
# Elastic Constant Matrix: (Units=GPa)
#
#
# Indices 1 2 3 4 5 6 
#
# 1 95.9804 63.7885 25.9703 0.0003 0.0000 0.0000
# 2 63.7885 145.9121 26.3257 0.0004 -0.0001 0.0000
# 3 25.9703 26.3257 33.7633 0.0096 -0.0007 -0.0004
# 4 0.0003 0.0004 0.0096 21.2664 -0.0006 -0.0004
# 5 0.0000 -0.0001 -0.0007 -0.0006 19.5277 0.0004
# 6 0.0000 0.0000 -0.0004 -0.0004 0.0004 34.5187
#
#
#
# Elastic Compliance Matrix: (Units=1/GPa)
#
#
# Indices 1 2 3 4 5 6 
#
# 1 0.016424 -0.005703 -0.008186 0.000004 0.000000 0.000000
# 2 -0.005703 0.009956 -0.003376 0.000001 0.000000 0.000000
# 3 -0.008186 -0.003376 0.038547 -0.000017 0.000001 0.000000
# 4 0.000004 0.000001 -0.000017 0.047023 0.000001 0.000000
# 5 0.000000 0.000000 0.000001 0.000001 0.051209 -0.000001
# 6 0.000000 0.000000 0.000000 0.000000 -0.000001 0.028970
#
#
# Mechanical properties :
#
#
# Convention : Reuss Voigt Hill
#
# Bulk Modulus (GPa) = 32.89897 56.42499 44.66198
# Shear Modulus (GPa) = 21.11560 25.70064 23.40812
#
# Velocity S-wave (km/s) = 3.25189 3.58762 3.42387
# Velocity P-wave (km/s) = 5.52953 6.73938 6.16421
#
# Compressibility (1/GPa) = 0.03039609
#
# Stress axis : x y z
#
# Youngs Moduli (GPa) = 60.88575 100.44427 25.94232
#
# Poissons Ratio (x) = 0.57285 0.21238
# Poissons Ratio (y) = 0.34724 0.08758
# Poissons Ratio (z) = 0.49844 0.33908
#
# Static dielectric constant tensor:
#      x y z
#    x 3.694490 0.000000 0.000000 
#    y 0.000000 3.849680 0.000000 
#    z 0.000000 0.000000 3.380440 
# 
# 
# High freq. dielectric constant tensor:
#      x y z
#    x 1.774680 0.000000 0.000000 
#    y 0.000000 1.780200 0.000000 
#    z 0.000000 0.000000 1.765330 
# 
# From -- ./inp_files/14518.got.cif
#   From: 2010.06.25/outbox.cif.g09.slc.cpg/sg71_8_cif.got.tgz:14518.got - 2010.06.28 04:59:45.
