data_PCOD8291626
_publ_section_title
;
Structure prediction by ZEFSAII (Michael W. Deem and Ramdas Pophale) SiO2 
 PCOD8291626
Probable space group: I M M M
;
_chemical_formula_sum "Si O2"
_cell_formula_units_Z 104
_cell_length_a 8.908852
_cell_length_b 23.248797
_cell_length_c 26.365530
_cell_angle_alpha 90.000000
_cell_angle_beta 90.000000
_cell_angle_gamma 90.000000
_cell_volume 5460.830990
_symmetry_space_group_name_H-M "I M M M"
_symmetry_group_IT_number 71
_symmetry_cell_setting 'orthorhombic'
loop_
_space_group_symop_operation_xyz
x,y,z
-x,-y,z
x,-y,-z
-x,y,-z
-x,-y,-z
x,y,-z
-x,y,z
x,-y,z
1/2+x,1/2+y,1/2+z
1/2-x,1/2-y,1/2+z
1/2+x,1/2-y,1/2-z
1/2-x,1/2+y,1/2-z
1/2-x,1/2-y,1/2-z
1/2+x,1/2+y,1/2-z
1/2-x,1/2+y,1/2+z
1/2+x,1/2-y,1/2+z
loop_
_atom_site_type_symbol
_atom_site_label
_atom_site_fract_x
_atom_site_fract_y
_atom_site_fract_z
Si Si1 0.162484 0.715688 0.291640
Si Si2 0.829282 0.000000 0.559727
Si Si3 0.324163 0.910295 0.626746
Si Si4 0.678388 0.500000 0.320745
Si Si5 0.680234 0.115427 0.858047
Si Si6 0.326302 0.307639 0.558748
Si Si7 0.833492 0.208062 0.609965
Si Si8 0.826472 0.500000 0.212503
O O1 0.250000 0.750000 0.250000
O O2 0.231689 0.654558 0.309518
O O3 0.147842 0.752746 0.341563
O O4 0.000000 0.703955 0.267483
O O5 0.747909 0.056826 0.579554
O O6 0.818974 0.000000 0.500000
O O7 0.000000 0.000000 0.579127
O O8 0.500000 0.906992 0.617108
O O9 0.256464 0.847273 0.628394
O O10 0.289218 0.943387 0.679317
O O11 0.500000 0.500000 0.324881
O O12 0.745253 0.445967 0.350497
O O13 0.723795 0.500000 0.261891
O O14 0.500000 0.111130 0.860722
O O15 0.739649 0.143173 0.910097
O O16 0.308360 0.323429 0.500000
O O17 0.500000 0.306399 0.575427
O O18 0.256897 0.244062 0.567712
O O19 0.000000 0.191623 0.589288
O O20 0.000000 0.500000 0.229586
#
# Coordination Sequence:
#
# PCOD8291626 Si02
#       8
#    16   8  16   8  16  16  16   8
#     4   9  20  35  54  81 112 149 187 228 278 332
#     4  10  21  37  56  77 105 144 187 238 296 347
#     4  10  21  37  57  81 111 150 195 243 290 341
#     4  12  25  39  61  89 118 156 198 243 292 343
#     4  10  22  41  61  86 119 155 195 240 290 348
#     4  10  21  39  63  90 119 151 190 239 294 350
#     4  10  21  36  55  83 116 151 192 234 282 342
#     4   9  21  39  56  79 112 154 198 242 294 348
#
# _framework density 19.044720999999999
#
# number of rings (size 3 to 8) (size 9 to 14) (size 15 to 20)
#    0.000    2.077    0.000    4.154    2.154    8.000 
#    0.000    0.385    0.000    2.308    0.000    0.000 
#    0.000    0.000    0.000    0.000    0.000    0.000 
#
# Total GULP energy -644714.174471 kJ/mol
# GULP energy per Si atom -12398.349509 kJ/mol
# Density = 1.900137 g / cm^3
# Si number density = 19.044721 Si / 1000 Ang^3
#
#
#
# Elastic Constant Matrix: (Units=GPa)
#
#
# Indices 1 2 3 4 5 6 
#
# 1 136.7229 59.6762 50.5723 0.0000 0.0000 0.0000
# 2 59.6762 138.0625 36.7009 0.0000 0.0000 0.0000
# 3 50.5723 36.7009 77.0039 0.0000 0.0000 0.0000
# 4 0.0000 0.0000 0.0000 109.9163 0.0000 0.0000
# 5 0.0000 0.0000 0.0000 0.0000 32.2722 0.0000
# 6 0.0000 0.0000 0.0000 0.0000 0.0000 55.6627
#
#
#
# Elastic Compliance Matrix: (Units=1/GPa)
#
#
# Indices 1 2 3 4 5 6 
#
# 1 0.010751 -0.003172 -0.005549 0.000000 0.000000 0.000000
# 2 -0.003172 0.009230 -0.002316 0.000000 0.000000 0.000000
# 3 -0.005549 -0.002316 0.017734 0.000000 0.000000 0.000000
# 4 0.000000 0.000000 0.000000 0.009098 0.000000 0.000000
# 5 0.000000 0.000000 0.000000 0.000000 0.030986 0.000000
# 6 0.000000 0.000000 0.000000 0.000000 0.000000 0.017965
#
#
# Mechanical properties :
#
#
# Convention : Reuss Voigt Hill
#
# Bulk Modulus (GPa) = 63.93166 71.74312 67.83739
# Shear Modulus (GPa) = 40.63319 53.22624 46.92971
#
# Velocity S-wave (km/s) = 4.62407 5.29232 4.96944
# Velocity P-wave (km/s) = 7.88362 8.66589 8.28399
#
# Compressibility (1/GPa) = 0.01564170
#
# Stress axis : x y z
#
# Youngs Moduli (GPa) = 93.01428 108.34526 56.38773
#
# Poissons Ratio (x) = 0.34367 0.31289
# Poissons Ratio (y) = 0.29504 0.13058
# Poissons Ratio (z) = 0.51613 0.25091
#
# Static dielectric constant tensor:
#      x y z
#    x 3.663490 0.000000 0.000000 
#    y 0.000000 4.090980 0.000000 
#    z 0.000000 0.000000 3.658740 
# 
# 
# High freq. dielectric constant tensor:
#      x y z
#    x 1.754760 0.000000 0.000000 
#    y 0.000000 1.746250 0.000000 
#    z 0.000000 0.000000 1.730390 
# 
# From -- ./inp_files/63384.got.cif
#   From: 2010.06.25/outbox.cif.g09.slc.cpg/sg71_32_cif.got.tgz:63384.got - 2010.06.28 04:59:45.
