data_PCOD8291037
_publ_section_title
;
Structure prediction by ZEFSAII (Michael W. Deem and Ramdas Pophale) SiO2 
 PCOD8291037
Probable space group: I M M M
;
_chemical_formula_sum "Si O2"
_cell_formula_units_Z 120
_cell_length_a 23.133740
_cell_length_b 13.006898
_cell_length_c 21.837464
_cell_angle_alpha 90.000000
_cell_angle_beta 90.000000
_cell_angle_gamma 90.000000
_cell_volume 6570.853535
_symmetry_space_group_name_H-M "I M M M"
_symmetry_group_IT_number 71
_symmetry_cell_setting 'orthorhombic'
loop_
_space_group_symop_operation_xyz
x,y,z
-x,-y,z
x,-y,-z
-x,y,-z
-x,-y,-z
x,y,-z
-x,y,z
x,-y,z
1/2+x,1/2+y,1/2+z
1/2-x,1/2-y,1/2+z
1/2+x,1/2-y,1/2-z
1/2-x,1/2+y,1/2-z
1/2-x,1/2-y,1/2-z
1/2+x,1/2+y,1/2-z
1/2-x,1/2+y,1/2+z
1/2+x,1/2-y,1/2+z
loop_
_atom_site_type_symbol
_atom_site_label
_atom_site_fract_x
_atom_site_fract_y
_atom_site_fract_z
Si Si1 0.565280 0.715868 0.238000
Si Si2 0.749822 0.741590 0.151754
Si Si3 0.934498 0.382985 0.161261
Si Si4 0.065286 0.725634 0.597977
Si Si5 0.568021 0.612775 0.000000
Si Si6 0.326418 0.116319 0.069332
Si Si7 0.316224 0.619843 0.255413
Si Si8 0.164078 0.379416 0.069463
O O1 0.500000 0.672749 0.250711
O O2 0.579225 0.814032 0.279994
O O3 0.570505 0.753643 0.169262
O O4 0.614013 0.630144 0.250515
O O5 0.703241 0.809899 0.117585
O O6 0.716311 0.664006 0.196246
O O7 0.794434 0.816390 0.186165
O O8 0.782630 0.675450 0.101475
O O9 0.921893 0.500000 0.181627
O O10 0.894972 0.350441 0.104272
O O11 0.000000 0.368821 0.138633
O O12 0.087230 0.826568 0.561092
O O13 0.104723 0.630113 0.577812
O O14 0.000000 0.697686 0.579035
O O15 0.597994 0.500000 0.000000
O O16 0.500000 0.597762 0.000000
O O17 0.309626 0.000000 0.085020
O O18 0.307699 0.143043 0.000000
O O19 0.300915 0.500000 0.263035
O O20 0.176056 0.500000 0.071317
O O21 0.158176 0.339498 0.000000
#
# Coordination Sequence:
#
# PCOD8291037 Si02
#       8
#    16  16  16  16   8  16  16  16
#     4  10  20  37  57  83 114 146 185 232 283 334
#     4  11  22  41  56  79 116 151 181 234 278 336
#     4   9  18  34  57  86 119 150 181 224 282 343
#     4  10  20  36  56  81 112 144 187 237 283 336
#     4   9  18  34  55  77 107 147 184 226 286 345
#     4  11  23  38  57  79 106 146 191 232 275 328
#     4  11  23  38  60  85 108 146 191 231 281 334
#     4  10  20  35  60  90 117 149 187 230 283 340
#
# _framework density 18.262467000000001
#
# number of rings (size 3 to 8) (size 9 to 14) (size 15 to 20)
#    0.000    1.800    3.333    1.200    0.000    1.867 
#    0.000    4.667    0.000    0.000    0.000    0.000 
#    0.000    2.133    0.000    0.000    0.000    0.000 
#
# Total GULP energy -743972.916743 kJ/mol
# GULP energy per Si atom -12399.548612 kJ/mol
# Density = 1.822090 g / cm^3
# Si number density = 18.262467 Si / 1000 Ang^3
#
#
#
# Elastic Constant Matrix: (Units=GPa)
#
#
# Indices 1 2 3 4 5 6 
#
# 1 88.7386 38.5535 41.2756 0.0000 0.0000 0.0000
# 2 38.5535 67.3087 47.3948 0.0000 0.0000 0.0000
# 3 41.2756 47.3948 128.8842 0.0000 0.0000 0.0000
# 4 0.0000 0.0000 0.0000 22.8665 0.0000 0.0000
# 5 0.0000 0.0000 0.0000 0.0000 22.1599 0.0000
# 6 0.0000 0.0000 0.0000 0.0000 0.0000 22.6405
#
#
#
# Elastic Compliance Matrix: (Units=1/GPa)
#
#
# Indices 1 2 3 4 5 6 
#
# 1 0.015488 -0.007258 -0.002291 0.000000 0.000000 0.000000
# 2 -0.007258 0.023449 -0.006299 0.000000 0.000000 0.000000
# 3 -0.002291 -0.006299 0.010809 0.000000 0.000000 0.000000
# 4 0.000000 0.000000 0.000000 0.043732 0.000000 0.000000
# 5 0.000000 0.000000 0.000000 0.000000 0.045126 0.000000
# 6 0.000000 0.000000 0.000000 0.000000 0.000000 0.044169
#
#
# Mechanical properties :
#
#
# Convention : Reuss Voigt Hill
#
# Bulk Modulus (GPa) = 55.39969 59.93103 57.66536
# Shear Modulus (GPa) = 22.67716 24.04722 23.36219
#
# Velocity S-wave (km/s) = 3.52765 3.63265 3.58053
# Velocity P-wave (km/s) = 6.85518 7.10511 6.98127
#
# Compressibility (1/GPa) = 0.01805064
#
# Stress axis : x y z
#
# Youngs Moduli (GPa) = 64.56576 42.64501 92.51685
#
# Poissons Ratio (x) = 0.30952 0.21196
# Poissons Ratio (y) = 0.46863 0.58273
# Poissons Ratio (z) = 0.14792 0.26861
#
# Static dielectric constant tensor:
#      x y z
#    x 3.505090 0.000000 0.000000 
#    y 0.000000 3.286840 0.000000 
#    z 0.000000 0.000000 3.452650 
# 
# 
# High freq. dielectric constant tensor:
#      x y z
#    x 1.712780 0.000000 0.000000 
#    y 0.000000 1.694750 0.000000 
#    z 0.000000 0.000000 1.715430 
# 
# From -- ./inp_files/27713.got.cif
#   From: 2010.06.25/outbox.cif.g09.slc.cpg/sg71_14_cif.got.tgz:27713.got - 2010.06.28 04:59:45.
