data_PCOD8291873
_publ_section_title
;
Structure prediction by ZEFSAII (Michael W. Deem and Ramdas Pophale) SiO2 
 PCOD8291873
Probable space group: I M M M
;
_chemical_formula_sum "Si O2"
_cell_formula_units_Z 88
_cell_length_a 20.268667
_cell_length_b 8.812670
_cell_length_c 25.467588
_cell_angle_alpha 90.000000
_cell_angle_beta 90.000000
_cell_angle_gamma 90.000000
_cell_volume 4549.047911
_symmetry_space_group_name_H-M "I M M M"
_symmetry_group_IT_number 71
_symmetry_cell_setting 'orthorhombic'
loop_
_space_group_symop_operation_xyz
x,y,z
-x,-y,z
x,-y,-z
-x,y,-z
-x,-y,-z
x,y,-z
-x,y,z
x,-y,z
1/2+x,1/2+y,1/2+z
1/2-x,1/2-y,1/2+z
1/2+x,1/2-y,1/2-z
1/2-x,1/2+y,1/2-z
1/2-x,1/2-y,1/2-z
1/2+x,1/2+y,1/2-z
1/2-x,1/2+y,1/2+z
1/2+x,1/2-y,1/2+z
loop_
_atom_site_type_symbol
_atom_site_label
_atom_site_fract_x
_atom_site_fract_y
_atom_site_fract_z
Si Si1 0.777433 0.821588 0.000000
Si Si2 0.317998 0.329191 0.693808
Si Si3 0.662040 0.172071 0.798627
Si Si4 0.000000 0.319854 0.058191
Si Si5 0.640022 0.822730 0.408261
Si Si6 0.636428 0.676230 0.000000
Si Si7 0.075872 0.822880 0.611562
O O1 0.811395 0.760727 0.947732
O O2 0.701545 0.776181 0.000000
O O3 0.783113 0.000000 0.000000
O O4 0.342322 0.500000 0.681956
O O5 0.351592 0.277421 0.748274
O O6 0.239587 0.322311 0.691898
O O7 0.341061 0.209660 0.650992
O O8 0.622969 0.231987 0.849104
O O9 0.639149 0.000000 0.787272
O O10 0.065685 0.259867 0.086202
O O11 0.000000 0.500000 0.057363
O O12 0.000000 0.252529 0.000000
O O13 0.644965 0.000000 0.420767
O O14 0.593881 0.717153 0.051481
O O15 0.656715 0.500000 0.000000
O O16 0.000000 0.775741 0.621276
O O17 0.086580 0.000000 0.622338
#
# Coordination Sequence:
#
# PCOD8291873 Si02
#       7
#     8  16  16   8  16   8  16
#     4  12  24  36  54  85 121 151 188 239 288 335
#     4  10  21  38  60  87 117 147 188 241 289 335
#     4  10  21  38  60  85 114 152 193 234 283 340
#     4   9  18  36  58  80 110 148 190 231 274 333
#     4  11  21  37  60  84 112 150 193 235 285 344
#     4  10  21  38  61  87 114 151 193 231 282 344
#     4  10  21  38  60  86 117 151 189 236 286 339
#
# _framework density 19.344708000000001
#
# number of rings (size 3 to 8) (size 9 to 14) (size 15 to 20)
#    0.000    1.727    0.909    3.818    0.000    7.273 
#    1.636    2.273    0.000    1.636    0.000    0.000 
#    0.000    0.000    0.000    0.000    0.000    0.000 
#
# Total GULP energy -545636.599924 kJ/mol
# GULP energy per Si atom -12400.831816 kJ/mol
# Density = 1.930068 g / cm^3
# Si number density = 19.344708 Si / 1000 Ang^3
#
#
#
# Elastic Constant Matrix: (Units=GPa)
#
#
# Indices 1 2 3 4 5 6 
#
# 1 66.4111 41.0885 38.6771 0.0000 0.0000 0.0000
# 2 41.0885 90.4919 39.0556 0.0000 0.0000 0.0000
# 3 38.6771 39.0556 125.7501 0.0000 0.0000 0.0000
# 4 0.0000 0.0000 0.0000 52.9435 0.0000 0.0000
# 5 0.0000 0.0000 0.0000 0.0000 3.1906 0.0000
# 6 0.0000 0.0000 0.0000 0.0000 0.0000 9.8667
#
#
#
# Elastic Compliance Matrix: (Units=1/GPa)
#
#
# Indices 1 2 3 4 5 6 
#
# 1 0.022869 -0.008486 -0.004398 0.000000 0.000000 0.000000
# 2 -0.008486 0.015910 -0.002331 0.000000 0.000000 0.000000
# 3 -0.004398 -0.002331 0.010029 0.000000 0.000000 0.000000
# 4 0.000000 0.000000 0.000000 0.018888 0.000000 0.000000
# 5 0.000000 0.000000 0.000000 0.000000 0.313419 0.000000
# 6 0.000000 0.000000 0.000000 0.000000 0.000000 0.101351
#
#
# Mechanical properties :
#
#
# Convention : Reuss Voigt Hill
#
# Bulk Modulus (GPa) = 54.41445 57.81062 56.11253
# Shear Modulus (GPa) = 9.63349 24.12229 16.87789
#
# Velocity S-wave (km/s) = 2.23399 3.53508 2.95698
# Velocity P-wave (km/s) = 5.90290 6.82728 6.38185
#
# Compressibility (1/GPa) = 0.01837747
#
# Stress axis : x y z
#
# Youngs Moduli (GPa) = 43.72649 62.85401 99.70878
#
# Poissons Ratio (x) = 0.53336 0.43857
# Poissons Ratio (y) = 0.37105 0.23246
# Poissons Ratio (z) = 0.19233 0.14653
#
# Static dielectric constant tensor:
#      x y z
#    x 3.649750 0.000000 0.000000 
#    y 0.000000 3.529690 0.000000 
#    z 0.000000 0.000000 3.603460 
# 
# 
# High freq. dielectric constant tensor:
#      x y z
#    x 1.751730 0.000000 0.000000 
#    y 0.000000 1.750310 0.000000 
#    z 0.000000 0.000000 1.762680 
# 
# From -- ./inp_files/61156.got.cif
#   From: 2010.06.25/outbox.cif.g09.slc.cpg/sg71_31_cif.got.tgz:61156.got - 2010.06.28 04:59:45.
