data_PCOD8291208
_publ_section_title
;
Structure prediction by ZEFSAII (Michael W. Deem and Ramdas Pophale) SiO2 
 PCOD8291208
Probable space group: I M M M
;
_chemical_formula_sum "Si O2"
_cell_formula_units_Z 72
_cell_length_a 17.467312
_cell_length_b 9.446156
_cell_length_c 23.304577
_cell_angle_alpha 90.000000
_cell_angle_beta 90.000000
_cell_angle_gamma 90.000000
_cell_volume 3845.230830
_symmetry_space_group_name_H-M "I M M M"
_symmetry_group_IT_number 71
_symmetry_cell_setting 'orthorhombic'
loop_
_space_group_symop_operation_xyz
x,y,z
-x,-y,z
x,-y,-z
-x,y,-z
-x,-y,-z
x,y,-z
-x,y,z
x,-y,z
1/2+x,1/2+y,1/2+z
1/2-x,1/2-y,1/2+z
1/2+x,1/2-y,1/2-z
1/2-x,1/2+y,1/2-z
1/2-x,1/2-y,1/2-z
1/2+x,1/2+y,1/2-z
1/2-x,1/2+y,1/2+z
1/2+x,1/2-y,1/2+z
loop_
_atom_site_type_symbol
_atom_site_label
_atom_site_fract_x
_atom_site_fract_y
_atom_site_fract_z
Si Si1 0.500000 0.336977 0.432319
Si Si2 0.173179 0.337579 0.750591
Si Si3 0.134985 0.662795 0.877821
Si Si4 0.794447 0.836559 0.433648
Si Si5 0.087595 0.666425 0.636707
O O1 0.500000 0.500000 0.413069
O O2 0.500000 0.320904 0.500000
O O3 0.575299 0.263451 0.408378
O O4 0.197479 0.500000 0.743471
O O5 0.250000 0.250000 0.750000
O O6 0.127473 0.314641 0.809715
O O7 0.118099 0.288122 0.699294
O O8 0.118112 0.500000 0.895007
O O9 0.219572 0.707622 0.897936
O O10 0.778532 0.804280 0.500000
O O11 0.865819 0.744536 0.412943
O O12 0.814666 0.000000 0.423120
O O13 0.096368 0.500000 0.626945
O O14 0.000000 0.714989 0.632131
#
# Coordination Sequence:
#
# PCOD8291208 Si02
#       5
#     8  16  16  16  16
#     4  11  25  41  57  85 123 157 194 243 292 341
#     4  10  20  36  61  87 114 146 187 235 285 342
#     4  10  21  38  62  87 114 153 195 236 289 352
#     4  10  21  38  60  85 112 147 194 241 285 338
#     4  10  22  38  57  84 118 153 189 234 287 341
#
# _framework density 18.724492999999999
#
# number of rings (size 3 to 8) (size 9 to 14) (size 15 to 20)
#    0.000    1.889    2.222    1.000    1.556    4.889 
#    0.000    2.222    0.000    0.000    0.000    0.000 
#    0.000    0.000    0.000    0.000    0.000    0.000 
#
# Total GULP energy -446572.245929 kJ/mol
# GULP energy per Si atom -12404.784609 kJ/mol
# Density = 1.868187 g / cm^3
# Si number density = 18.724493 Si / 1000 Ang^3
#
#
#
# Elastic Constant Matrix: (Units=GPa)
#
#
# Indices 1 2 3 4 5 6 
#
# 1 115.9119 53.7558 26.4985 0.0000 0.0000 0.0000
# 2 53.7558 68.5146 27.2838 0.0000 0.0000 0.0000
# 3 26.4985 27.2838 75.9541 0.0000 0.0000 0.0000
# 4 0.0000 0.0000 0.0000 31.6418 0.0000 0.0000
# 5 0.0000 0.0000 0.0000 0.0000 30.1480 0.0000
# 6 0.0000 0.0000 0.0000 0.0000 0.0000 35.5075
#
#
#
# Elastic Compliance Matrix: (Units=1/GPa)
#
#
# Indices 1 2 3 4 5 6 
#
# 1 0.013636 -0.010274 -0.001067 0.000000 0.000000 0.000000
# 2 -0.010274 0.024772 -0.005314 0.000000 0.000000 0.000000
# 3 -0.001067 -0.005314 0.015447 0.000000 0.000000 0.000000
# 4 0.000000 0.000000 0.000000 0.031604 0.000000 0.000000
# 5 0.000000 0.000000 0.000000 0.000000 0.033170 0.000000
# 6 0.000000 0.000000 0.000000 0.000000 0.000000 0.028163
#
#
# Mechanical properties :
#
#
# Convention : Reuss Voigt Hill
#
# Bulk Modulus (GPa) = 48.67229 52.82853 50.75041
# Shear Modulus (GPa) = 26.74525 29.64898 28.19711
#
# Velocity S-wave (km/s) = 3.78346 3.98355 3.88480
# Velocity P-wave (km/s) = 6.71837 7.03087 6.87639
#
# Compressibility (1/GPa) = 0.02054557
#
# Stress axis : x y z
#
# Youngs Moduli (GPa) = 73.33734 40.36777 64.73760
#
# Poissons Ratio (x) = 0.41472 0.06906
# Poissons Ratio (y) = 0.75344 0.34404
# Poissons Ratio (z) = 0.07823 0.21453
#
# Static dielectric constant tensor:
#      x y z
#    x 3.338400 0.000000 0.000000 
#    y 0.000000 3.415790 0.000000 
#    z 0.000000 0.000000 3.633040 
# 
# 
# High freq. dielectric constant tensor:
#      x y z
#    x 1.728790 0.000000 0.000000 
#    y 0.000000 1.722050 0.000000 
#    z 0.000000 0.000000 1.740930 
# 
# From -- ./inp_files/7895.got.cif
#   From: 2010.06.25/outbox.cif.g09.slc.cpg/sg71_4_cif.got.tgz:7895.got - 2010.06.28 04:59:45.
