data_PCOD8291092
_publ_section_title
;
Structure prediction by ZEFSAII (Michael W. Deem and Ramdas Pophale) SiO2 
 PCOD8291092
Probable space group: I M M M
;
_chemical_formula_sum "Si O2"
_cell_formula_units_Z 80
_cell_length_a 9.327134
_cell_length_b 16.828429
_cell_length_c 27.317498
_cell_angle_alpha 90.000000
_cell_angle_beta 90.000000
_cell_angle_gamma 90.000000
_cell_volume 4287.782139
_symmetry_space_group_name_H-M "I M M M"
_symmetry_group_IT_number 71
_symmetry_cell_setting 'orthorhombic'
loop_
_space_group_symop_operation_xyz
x,y,z
-x,-y,z
x,-y,-z
-x,y,-z
-x,-y,-z
x,y,-z
-x,y,z
x,-y,z
1/2+x,1/2+y,1/2+z
1/2-x,1/2-y,1/2+z
1/2+x,1/2-y,1/2-z
1/2-x,1/2+y,1/2-z
1/2-x,1/2-y,1/2-z
1/2+x,1/2+y,1/2-z
1/2-x,1/2+y,1/2+z
1/2+x,1/2-y,1/2+z
loop_
_atom_site_type_symbol
_atom_site_label
_atom_site_fract_x
_atom_site_fract_y
_atom_site_fract_z
Si Si1 0.332214 0.907820 0.810004
Si Si2 0.671234 0.090101 0.000000
Si Si3 0.830497 0.680286 0.594650
Si Si4 0.667658 0.359301 0.109158
Si Si5 0.835935 0.091748 0.715997
Si Si6 0.167230 0.500000 0.942380
O O1 0.500000 0.893600 0.803671
O O2 0.268494 0.858747 0.855771
O O3 0.258864 0.875574 0.760609
O O4 0.295293 0.000000 0.818837
O O5 0.733255 0.134384 0.047816
O O6 0.500000 0.092603 0.000000
O O7 0.727530 0.000000 0.000000
O O8 0.788700 0.772437 0.590045
O O9 0.000000 0.669636 0.595944
O O10 0.500000 0.378555 0.100385
O O11 0.702907 0.360788 0.166865
O O12 0.761378 0.421718 0.079664
O O13 0.000000 0.104547 0.730978
O O14 0.801802 0.000000 0.705101
O O15 0.000000 0.500000 0.928903
O O16 0.193338 0.500000 0.000000
#
# Coordination Sequence:
#
# PCOD8291092 Si02
#       6
#    16   8  16  16  16   8
#     4   9  17  30  49  75 108 144 178 216 264 318
#     4   9  16  28  48  75 109 142 170 215 273 311
#     4   9  18  30  48  78 108 136 178 226 265 313
#     4  10  20  36  57  80 106 138 181 225 264 312
#     4   9  17  31  49  72 102 138 178 220 264 313
#     4  11  25  41  57  79 109 143 177 216 271 330
#
# _framework density 18.657665000000001
#
# number of rings (size 3 to 8) (size 9 to 14) (size 15 to 20)
#    0.000    2.600    1.000    0.900    1.400    4.800 
#    0.000    1.000    0.000    0.000    0.000    0.000 
#    0.000    4.800    0.000    0.000    0.000    0.000 
#
# Total GULP energy -496023.227433 kJ/mol
# GULP energy per Si atom -12400.580686 kJ/mol
# Density = 1.861520 g / cm^3
# Si number density = 18.657665 Si / 1000 Ang^3
#
#
#
# Elastic Constant Matrix: (Units=GPa)
#
#
# Indices 1 2 3 4 5 6 
#
# 1 51.0956 44.9752 53.8573 0.0000 0.0000 0.0000
# 2 44.9752 127.8557 88.7094 0.0000 0.0000 0.0000
# 3 53.8573 88.7094 156.5212 0.0000 0.0000 0.0000
# 4 0.0000 0.0000 0.0000 29.9981 0.0000 0.0000
# 5 0.0000 0.0000 0.0000 0.0000 23.9351 0.0000
# 6 0.0000 0.0000 0.0000 0.0000 0.0000 11.5807
#
#
#
# Elastic Compliance Matrix: (Units=1/GPa)
#
#
# Indices 1 2 3 4 5 6 
#
# 1 0.033476 -0.006236 -0.007985 0.000000 0.000000 0.000000
# 2 -0.006236 0.014052 -0.005818 0.000000 0.000000 0.000000
# 3 -0.007985 -0.005818 0.012434 0.000000 0.000000 0.000000
# 4 0.000000 0.000000 0.000000 0.033335 0.000000 0.000000
# 5 0.000000 0.000000 0.000000 0.000000 0.041780 0.000000
# 6 0.000000 0.000000 0.000000 0.000000 0.000000 0.086351
#
#
# Mechanical properties :
#
#
# Convention : Reuss Voigt Hill
#
# Bulk Modulus (GPa) = 50.29063 78.95069 64.62066
# Shear Modulus (GPa) = 18.64748 22.96483 20.80616
#
# Velocity S-wave (km/s) = 3.16484 3.51216 3.34301
# Velocity P-wave (km/s) = 6.35357 7.67165 7.04351
#
# Compressibility (1/GPa) = 0.01988442
#
# Stress axis : x y z
#
# Youngs Moduli (GPa) = 29.87197 71.16586 80.42581
#
# Poissons Ratio (x) = 0.44378 0.64217
# Poissons Ratio (y) = 0.18628 0.46793
# Poissons Ratio (z) = 0.23852 0.41406
#
# Static dielectric constant tensor:
#      x y z
#    x 3.078780 0.000000 0.000000 
#    y 0.000000 3.443530 0.000000 
#    z 0.000000 0.000000 3.668110 
# 
# 
# High freq. dielectric constant tensor:
#      x y z
#    x 1.679220 0.000000 0.000000 
#    y 0.000000 1.726180 0.000000 
#    z 0.000000 0.000000 1.738760 
# 
# From -- ./inp_files/8382.got.cif
#   From: 2010.06.25/outbox.cif.g09.slc.cpg/sg71_5_cif.got.tgz:8382.got - 2010.06.28 04:59:45.
