data_PCOD8291779
_publ_section_title
;
Structure prediction by ZEFSAII (Michael W. Deem and Ramdas Pophale) SiO2 
 PCOD8291779
Probable space group: I M M M
;
_chemical_formula_sum "Si O2"
_cell_formula_units_Z 104
_cell_length_a 21.908705
_cell_length_b 26.240458
_cell_length_c 8.763137
_cell_angle_alpha 90.000000
_cell_angle_beta 90.000000
_cell_angle_gamma 90.000000
_cell_volume 5037.878856
_symmetry_space_group_name_H-M "I M M M"
_symmetry_group_IT_number 71
_symmetry_cell_setting 'orthorhombic'
loop_
_space_group_symop_operation_xyz
x,y,z
-x,-y,z
x,-y,-z
-x,y,-z
-x,-y,-z
x,y,-z
-x,y,z
x,-y,z
1/2+x,1/2+y,1/2+z
1/2-x,1/2-y,1/2+z
1/2+x,1/2-y,1/2-z
1/2-x,1/2+y,1/2-z
1/2-x,1/2-y,1/2-z
1/2+x,1/2+y,1/2-z
1/2-x,1/2+y,1/2+z
1/2+x,1/2-y,1/2+z
loop_
_atom_site_type_symbol
_atom_site_label
_atom_site_fract_x
_atom_site_fract_y
_atom_site_fract_z
Si Si1 0.932031 0.801564 0.677523
Si Si2 0.929159 0.000000 0.318913
Si Si3 0.352777 0.209655 0.820542
Si Si4 0.618083 0.604425 0.680759
Si Si5 0.252267 0.640910 0.321715
Si Si6 0.431781 0.126547 0.672640
Si Si7 0.324690 0.942569 0.326778
O O1 0.920299 0.813150 0.500000
O O2 0.879007 0.763456 0.743569
O O3 0.932588 0.854673 0.769963
O O4 0.000000 0.777678 0.700166
O O5 0.894834 0.049830 0.256003
O O6 0.924297 0.000000 0.500000
O O7 0.000000 0.000000 0.265682
O O8 0.286258 0.190193 0.753904
O O9 0.403371 0.167855 0.784583
O O10 0.347330 0.214633 0.000000
O O11 0.619449 0.596304 0.500000
O O12 0.680529 0.630693 0.746039
O O13 0.258281 0.649236 0.500000
O O14 0.214681 0.590174 0.289249
O O15 0.429209 0.148210 0.500000
O O16 0.500000 0.114815 0.726253
O O17 0.395306 0.073598 0.683434
O O18 0.300431 0.935307 0.500000
O O19 0.318686 0.000000 0.271265
#
# Coordination Sequence:
#
# PCOD8291779 Si02
#       7
#    16   8  16  16  16  16  16
#     4  10  21  37  58  85 115 148 189 233 277 329
#     4  11  25  45  67  89 115 149 190 235 282 335
#     4   9  18  35  57  79 108 148 188 228 272 324
#     4  11  24  40  60  88 118 149 185 230 285 341
#     4   9  20  37  55  79 111 145 184 228 278 331
#     4   9  17  29  46  71 104 140 180 228 281 332
#     4   9  18  31  48  72 101 137 183 231 277 332
#
# _framework density 20.643608
#
# number of rings (size 3 to 8) (size 9 to 14) (size 15 to 20)
#    0.000    2.385    0.000    1.615    1.077    6.769 
#    0.000    1.538    0.000    0.000    0.000    4.308 
#    0.000    0.000    0.000    0.000    0.000    0.000 
#
# Total GULP energy -644328.293816 kJ/mol
# GULP energy per Si atom -12390.928727 kJ/mol
# Density = 2.059662 g / cm^3
# Si number density = 20.643608 Si / 1000 Ang^3
#
#
#
# Elastic Constant Matrix: (Units=GPa)
#
#
# Indices 1 2 3 4 5 6 
#
# 1 116.7395 43.7014 24.8478 0.0000 0.0000 0.0000
# 2 43.7014 130.6995 23.0875 0.0000 0.0000 0.0000
# 3 24.8478 23.0875 26.1751 0.0000 0.0000 0.0000
# 4 0.0000 0.0000 0.0000 31.2506 0.0000 0.0000
# 5 0.0000 0.0000 0.0000 0.0000 25.1187 0.0000
# 6 0.0000 0.0000 0.0000 0.0000 0.0000 25.1831
#
#
#
# Elastic Compliance Matrix: (Units=1/GPa)
#
#
# Indices 1 2 3 4 5 6 
#
# 1 0.011255 -0.002222 -0.008724 0.000000 0.000000 0.000000
# 2 -0.002222 0.009502 -0.006272 0.000000 0.000000 0.000000
# 3 -0.008724 -0.006272 0.052018 0.000000 0.000000 0.000000
# 4 0.000000 0.000000 0.000000 0.031999 0.000000 0.000000
# 5 0.000000 0.000000 0.000000 0.000000 0.039811 0.000000
# 6 0.000000 0.000000 0.000000 0.000000 0.000000 0.039709
#
#
# Mechanical properties :
#
#
# Convention : Reuss Voigt Hill
#
# Bulk Modulus (GPa) = 26.08322 50.76526 38.42424
# Shear Modulus (GPa) = 21.59737 28.44232 25.01984
#
# Velocity S-wave (km/s) = 3.23801 3.71587 3.48514
# Velocity P-wave (km/s) = 5.16160 6.56162 5.90326
#
# Compressibility (1/GPa) = 0.03833883
#
# Stress axis : x y z
#
# Youngs Moduli (GPa) = 88.85057 105.24083 19.22417
#
# Poissons Ratio (x) = 0.23386 0.16771
# Poissons Ratio (y) = 0.19744 0.12057
# Poissons Ratio (z) = 0.77514 0.66004
#
# Static dielectric constant tensor:
#      x y z
#    x 4.116050 0.000000 0.000000 
#    y 0.000000 3.759530 0.000000 
#    z 0.000000 0.000000 3.496970 
# 
# 
# High freq. dielectric constant tensor:
#      x y z
#    x 1.817530 0.000000 0.000000 
#    y 0.000000 1.806040 0.000000 
#    z 0.000000 0.000000 1.787640 
# 
# From -- ./inp_files/11106.got.cif
#   From: 2010.06.25/outbox.cif.g09.slc.cpg/sg71_6_cif.got.tgz:11106.got - 2010.06.28 04:59:45.
