data_PCOD8291638
_publ_section_title
;
Structure prediction by ZEFSAII (Michael W. Deem and Ramdas Pophale) SiO2 
 PCOD8291638
Probable space group: I M M M
;
_chemical_formula_sum "Si O2"
_cell_formula_units_Z 96
_cell_length_a 19.888692
_cell_length_b 9.062731
_cell_length_c 27.839978
_cell_angle_alpha 90.000000
_cell_angle_beta 90.000000
_cell_angle_gamma 90.000000
_cell_volume 5018.040931
_symmetry_space_group_name_H-M "I M M M"
_symmetry_group_IT_number 71
_symmetry_cell_setting 'orthorhombic'
loop_
_space_group_symop_operation_xyz
x,y,z
-x,-y,z
x,-y,-z
-x,y,-z
-x,-y,-z
x,y,-z
-x,y,z
x,-y,z
1/2+x,1/2+y,1/2+z
1/2-x,1/2-y,1/2+z
1/2+x,1/2-y,1/2-z
1/2-x,1/2+y,1/2-z
1/2-x,1/2-y,1/2-z
1/2+x,1/2+y,1/2-z
1/2-x,1/2+y,1/2+z
1/2+x,1/2-y,1/2+z
loop_
_atom_site_type_symbol
_atom_site_label
_atom_site_fract_x
_atom_site_fract_y
_atom_site_fract_z
Si Si1 0.922629 0.672903 0.381775
Si Si2 0.312958 0.826758 0.384209
Si Si3 0.317277 0.671221 0.055165
Si Si4 0.923947 0.170014 0.714199
Si Si5 0.195093 0.827135 0.782690
Si Si6 0.077994 0.169380 0.055207
O O1 0.911818 0.500000 0.379872
O O2 0.880209 0.737722 0.425382
O O3 0.897050 0.738044 0.331199
O O4 0.000000 0.716734 0.390509
O O5 0.250288 0.784034 0.417422
O O6 0.303602 0.741195 0.334998
O O7 0.380677 0.776730 0.410484
O O8 0.316933 0.000000 0.373825
O O9 0.333826 0.500000 0.061973
O O10 0.306407 0.713718 0.000000
O O11 0.878238 0.203356 0.760196
O O12 0.000000 0.215648 0.727940
O O13 0.919328 0.000000 0.698906
O O14 0.250000 0.750000 0.750000
O O15 0.211095 0.000000 0.785682
O O16 0.000000 0.194606 0.066849
O O17 0.097975 0.000000 0.065472
O O18 0.093194 0.209804 0.000000
#
# Coordination Sequence:
#
# PCOD8291638 Si02
#       6
#    16  16  16  16  16  16
#     4  10  21  36  56  84 114 141 174 222 276 326
#     4  11  23  38  57  83 114 147 186 233 281 330
#     4  10  22  39  57  78 107 145 187 227 268 321
#     4   9  19  37  59  80 105 142 184 221 262 318
#     4  11  23  38  57  82 112 146 185 231 280 332
#     4   9  19  37  60  85 114 149 188 229 276 333
#
# _framework density 19.130972
#
# number of rings (size 3 to 8) (size 9 to 14) (size 15 to 20)
#    0.000    2.000    0.000    3.500    0.000   10.333 
#    0.000    4.167    0.000    0.000    0.000    0.000 
#    0.000    0.000    0.000    0.000    0.000    0.000 
#
# Total GULP energy -595434.424533 kJ/mol
# GULP energy per Si atom -12404.883844 kJ/mol
# Density = 1.908743 g / cm^3
# Si number density = 19.130972 Si / 1000 Ang^3
#
#
#
# Elastic Constant Matrix: (Units=GPa)
#
#
# Indices 1 2 3 4 5 6 
#
# 1 93.1973 61.3835 71.7814 0.0000 0.0000 0.0000
# 2 61.3835 92.8308 74.3174 0.0000 0.0000 0.0000
# 3 71.7814 74.3174 152.4548 0.0000 0.0000 0.0000
# 4 0.0000 0.0000 0.0000 36.8030 0.0000 0.0000
# 5 0.0000 0.0000 0.0000 0.0000 36.8903 0.0000
# 6 0.0000 0.0000 0.0000 0.0000 0.0000 34.4336
#
#
#
# Elastic Compliance Matrix: (Units=1/GPa)
#
#
# Indices 1 2 3 4 5 6 
#
# 1 0.021234 -0.009901 -0.005171 0.000000 0.000000 0.000000
# 2 -0.009901 0.022283 -0.006201 0.000000 0.000000 0.000000
# 3 -0.005171 -0.006201 0.012017 0.000000 0.000000 0.000000
# 4 0.000000 0.000000 0.000000 0.027172 0.000000 0.000000
# 5 0.000000 0.000000 0.000000 0.000000 0.027107 0.000000
# 6 0.000000 0.000000 0.000000 0.000000 0.000000 0.029041
#
#
# Mechanical properties :
#
#
# Convention : Reuss Voigt Hill
#
# Bulk Modulus (GPa) = 76.99268 83.71638 80.35453
# Shear Modulus (GPa) = 26.92079 30.35875 28.63977
#
# Velocity S-wave (km/s) = 3.75531 3.98790 3.87335
# Velocity P-wave (km/s) = 7.68997 8.06592 7.88019
#
# Compressibility (1/GPa) = 0.01298825
#
# Stress axis : x y z
#
# Youngs Moduli (GPa) = 47.09424 44.87681 83.21576
#
# Poissons Ratio (x) = 0.44431 0.43035
# Poissons Ratio (y) = 0.46627 0.51601
# Poissons Ratio (z) = 0.24355 0.27827
#
# Static dielectric constant tensor:
#      x y z
#    x 2.905570 0.000000 0.000000 
#    y 0.000000 3.535070 0.000000 
#    z 0.000000 0.000000 3.411920 
# 
# 
# High freq. dielectric constant tensor:
#      x y z
#    x 1.753610 0.000000 0.000000 
#    y 0.000000 1.747570 0.000000 
#    z 0.000000 0.000000 1.747670 
# 
# From -- ./inp_files/10850.got.cif
#   From: 2010.06.25/outbox.cif.g09.slc.cpg/sg71_6_cif.got.tgz:10850.got - 2010.06.28 04:59:45.
