data_PCOD8291802
_publ_section_title
;
Structure prediction by ZEFSAII (Michael W. Deem and Ramdas Pophale) SiO2 
 PCOD8291802
Probable space group: I M M M
;
_chemical_formula_sum "Si O2"
_cell_formula_units_Z 96
_cell_length_a 20.473885
_cell_length_b 14.951906
_cell_length_c 15.128420
_cell_angle_alpha 90.000000
_cell_angle_beta 90.000000
_cell_angle_gamma 90.000000
_cell_volume 4631.166453
_symmetry_space_group_name_H-M "I M M M"
_symmetry_group_IT_number 71
_symmetry_cell_setting 'orthorhombic'
loop_
_space_group_symop_operation_xyz
x,y,z
-x,-y,z
x,-y,-z
-x,y,-z
-x,-y,-z
x,y,-z
-x,y,z
x,-y,z
1/2+x,1/2+y,1/2+z
1/2-x,1/2-y,1/2+z
1/2+x,1/2-y,1/2-z
1/2-x,1/2+y,1/2-z
1/2-x,1/2-y,1/2-z
1/2+x,1/2+y,1/2-z
1/2-x,1/2+y,1/2+z
1/2+x,1/2-y,1/2+z
loop_
_atom_site_type_symbol
_atom_site_label
_atom_site_fract_x
_atom_site_fract_y
_atom_site_fract_z
Si Si1 0.112721 0.175733 0.902988
Si Si2 0.000000 0.603380 0.289316
Si Si3 0.324534 0.399488 0.901990
Si Si4 0.754757 0.266130 0.353166
Si Si5 0.929760 0.101568 0.729514
Si Si6 0.374657 0.895423 0.102725
Si Si7 0.000000 0.683084 0.099774
O O1 0.187722 0.200830 0.893991
O O2 0.095118 0.102502 0.829883
O O3 0.065993 0.260418 0.889368
O O4 0.100885 0.133792 0.000000
O O5 0.934228 0.641680 0.336042
O O6 0.000000 0.615358 0.182648
O O7 0.000000 0.500000 0.311614
O O8 0.302961 0.500000 0.871715
O O9 0.264851 0.330794 0.898806
O O10 0.378336 0.354514 0.837329
O O11 0.354193 0.403858 0.000000
O O12 0.750000 0.250000 0.250000
O O13 0.810415 0.338123 0.375181
O O14 0.000000 0.151321 0.721517
O O15 0.937920 0.000000 0.699450
O O16 0.359348 0.000000 0.122389
O O17 0.393661 0.882076 0.000000
O O18 0.000000 0.638791 0.000000
#
# Coordination Sequence:
#
# PCOD8291802 Si02
#       7
#    16   8  16  16  16  16   8
#     4  11  22  38  59  84 117 155 198 250 304 354
#     4  10  21  39  64  90 120 162 201 244 305 362
#     4  10  22  41  62  88 124 160 197 244 299 362
#     4  12  23  39  63  89 123 162 203 250 302 363
#     4  10  21  37  59  87 118 156 201 246 297 355
#     4  10  22  40  63  95 130 160 199 251 307 369
#     4  10  22  40  60  84 116 156 204 255 303 355
#
# _framework density 20.729118
#
# number of rings (size 3 to 8) (size 9 to 14) (size 15 to 20)
#    0.000    1.500    2.500    2.750    0.000    3.167 
#    0.000    3.333    0.000    1.000    0.000    0.000 
#    0.000    0.000    0.000    0.000    0.000    0.000 
#
# Total GULP energy -594936.285163 kJ/mol
# GULP energy per Si atom -12394.505941 kJ/mol
# Density = 2.068194 g / cm^3
# Si number density = 20.729118 Si / 1000 Ang^3
#
#
#
# Elastic Constant Matrix: (Units=GPa)
#
#
# Indices 1 2 3 4 5 6 
#
# 1 121.9833 28.3635 11.8883 0.0000 0.0000 0.0000
# 2 28.3635 58.9604 10.6756 0.0000 0.0000 0.0000
# 3 11.8883 10.6756 122.8775 0.0000 0.0000 0.0000
# 4 0.0000 0.0000 0.0000 32.9142 0.0000 0.0000
# 5 0.0000 0.0000 0.0000 0.0000 29.7364 0.0000
# 6 0.0000 0.0000 0.0000 0.0000 0.0000 18.2348
#
#
#
# Elastic Compliance Matrix: (Units=1/GPa)
#
#
# Indices 1 2 3 4 5 6 
#
# 1 0.009263 -0.004362 -0.000517 0.000000 0.000000 0.000000
# 2 -0.004362 0.019286 -0.001254 0.000000 0.000000 0.000000
# 3 -0.000517 -0.001254 0.008297 0.000000 0.000000 0.000000
# 4 0.000000 0.000000 0.000000 0.030382 0.000000 0.000000
# 5 0.000000 0.000000 0.000000 0.000000 0.033629 0.000000
# 6 0.000000 0.000000 0.000000 0.000000 0.000000 0.054840
#
#
# Mechanical properties :
#
#
# Convention : Reuss Voigt Hill
#
# Bulk Modulus (GPa) = 40.68369 45.07512 42.87940
# Shear Modulus (GPa) = 28.38399 33.03668 30.71033
#
# Velocity S-wave (km/s) = 3.70439 3.99649 3.85321
# Velocity P-wave (km/s) = 6.16163 6.56414 6.36607
#
# Compressibility (1/GPa) = 0.02457988
#
# Stress axis : x y z
#
# Youngs Moduli (GPa) = 107.96178 51.85115 120.52366
#
# Poissons Ratio (x) = 0.22618 0.06233
# Poissons Ratio (y) = 0.47095 0.15108
# Poissons Ratio (z) = 0.05583 0.06500
#
# Static dielectric constant tensor:
#      x y z
#    x 4.097250 0.000000 0.000000 
#    y 0.000000 3.593810 0.000000 
#    z 0.000000 0.000000 4.042600 
# 
# 
# High freq. dielectric constant tensor:
#      x y z
#    x 1.815740 0.000000 0.000000 
#    y 0.000000 1.793150 0.000000 
#    z 0.000000 0.000000 1.830910 
# 
# From -- ./inp_files/37855.got.cif
#   From: 2010.06.25/outbox.cif.g09.slc.cpg/sg71_19_cif.got.tgz:37855.got - 2010.06.28 04:59:45.
