data_PCOD8291088
_publ_section_title
;
Structure prediction by ZEFSAII (Michael W. Deem and Ramdas Pophale) SiO2 
 PCOD8291088
Probable space group: I M M M
;
_chemical_formula_sum "Si O2"
_cell_formula_units_Z 104
_cell_length_a 26.657129
_cell_length_b 8.835807
_cell_length_c 23.141493
_cell_angle_alpha 90.000000
_cell_angle_beta 90.000000
_cell_angle_gamma 90.000000
_cell_volume 5450.683553
_symmetry_space_group_name_H-M "I M M M"
_symmetry_group_IT_number 71
_symmetry_cell_setting 'orthorhombic'
loop_
_space_group_symop_operation_xyz
x,y,z
-x,-y,z
x,-y,-z
-x,y,-z
-x,-y,-z
x,y,-z
-x,y,z
x,-y,z
1/2+x,1/2+y,1/2+z
1/2-x,1/2-y,1/2+z
1/2+x,1/2-y,1/2-z
1/2-x,1/2+y,1/2-z
1/2-x,1/2-y,1/2-z
1/2+x,1/2+y,1/2-z
1/2-x,1/2+y,1/2+z
1/2+x,1/2-y,1/2+z
loop_
_atom_site_type_symbol
_atom_site_label
_atom_site_fract_x
_atom_site_fract_y
_atom_site_fract_z
Si Si1 0.942871 0.321205 0.162860
Si Si2 0.352951 0.177870 0.260953
Si Si3 0.709910 0.178679 0.629810
Si Si4 0.120587 0.823942 0.933411
Si Si5 0.683189 0.179119 0.861345
Si Si6 0.500000 0.170498 0.068873
Si Si7 0.400236 0.670642 0.068485
O O1 0.936837 0.500000 0.153362
O O2 0.907589 0.266516 0.216266
O O3 0.925302 0.241541 0.104011
O O4 0.000000 0.275263 0.176921
O O5 0.311004 0.225726 0.307335
O O6 0.337841 0.248623 0.199182
O O7 0.354649 0.000000 0.253436
O O8 0.672745 0.240928 0.580892
O O9 0.763841 0.251248 0.621940
O O10 0.713932 0.000000 0.622574
O O11 0.127192 0.000000 0.919545
O O12 0.107161 0.794896 0.000000
O O13 0.645425 0.225768 0.911541
O O14 0.688685 0.000000 0.858643
O O15 0.548506 0.257583 0.092952
O O16 0.500000 0.000000 0.093620
O O17 0.500000 0.168145 0.000000
O O18 0.394906 0.500000 0.092266
O O19 0.400909 0.671442 0.000000
#
# Coordination Sequence:
#
# PCOD8291088 Si02
#       7
#    16  16  16  16  16   8  16
#     4   9  18  35  58  81 109 145 183 223 267 319
#     4   8  17  34  54  79 107 139 178 219 268 319
#     4  10  20  36  57  78 105 141 180 221 269 324
#     4  10  21  36  54  79 111 145 182 225 273 323
#     4  11  21  34  54  82 111 139 178 223 269 321
#     4   9  17  33  57  79  99 129 169 211 258 309
#     4  10  21  37  55  76 106 142 177 216 263 315
#
# _framework density 19.080175000000001
#
# number of rings (size 3 to 8) (size 9 to 14) (size 15 to 20)
#    0.000    2.385    0.000    3.462    0.000    4.308 
#    1.385    8.462    0.000    0.000    0.000    0.000 
#    0.000    0.000    0.000    0.000    0.000    0.000 
#
# Total GULP energy -644814.013336 kJ/mol
# GULP energy per Si atom -12400.269487 kJ/mol
# Density = 1.903675 g / cm^3
# Si number density = 19.080175 Si / 1000 Ang^3
#
#
#
# Elastic Constant Matrix: (Units=GPa)
#
#
# Indices 1 2 3 4 5 6 
#
# 1 142.0006 36.0314 11.8332 0.0000 0.0000 0.0000
# 2 36.0314 74.4262 17.6640 0.0000 0.0000 0.0000
# 3 11.8332 17.6640 26.7630 0.0000 0.0000 0.0000
# 4 0.0000 0.0000 0.0000 21.0912 0.0000 0.0000
# 5 0.0000 0.0000 0.0000 0.0000 17.2970 0.0000
# 6 0.0000 0.0000 0.0000 0.0000 0.0000 29.3715
#
#
#
# Elastic Compliance Matrix: (Units=1/GPa)
#
#
# Indices 1 2 3 4 5 6 
#
# 1 0.008059 -0.003624 -0.001172 0.000000 0.000000 0.000000
# 2 -0.003624 0.017561 -0.009988 0.000000 0.000000 0.000000
# 3 -0.001172 -0.009988 0.044476 0.000000 0.000000 0.000000
# 4 0.000000 0.000000 0.000000 0.047413 0.000000 0.000000
# 5 0.000000 0.000000 0.000000 0.000000 0.057813 0.000000
# 6 0.000000 0.000000 0.000000 0.000000 0.000000 0.034047
#
#
# Mechanical properties :
#
#
# Convention : Reuss Voigt Hill
#
# Bulk Modulus (GPa) = 24.67403 41.58297 33.12850
# Shear Modulus (GPa) = 19.80622 25.39602 22.60112
#
# Velocity S-wave (km/s) = 3.22538 3.65227 3.44544
# Velocity P-wave (km/s) = 5.17982 6.29496 5.76442
#
# Compressibility (1/GPa) = 0.04052845
#
# Stress axis : x y z
#
# Youngs Moduli (GPa) = 124.07986 56.94447 22.48426
#
# Poissons Ratio (x) = 0.20634 0.02635
# Poissons Ratio (y) = 0.44961 0.22458
# Poissons Ratio (z) = 0.14539 0.56878
#
# Static dielectric constant tensor:
#      x y z
#    x 3.613110 0.000000 0.000000 
#    y 0.000000 3.478620 0.000000 
#    z 0.000000 0.000000 3.499560 
# 
# 
# High freq. dielectric constant tensor:
#      x y z
#    x 1.750980 0.000000 0.000000 
#    y 0.000000 1.738480 0.000000 
#    z 0.000000 0.000000 1.727290 
# 
# From -- ./inp_files/56264.got.cif
#   From: 2010.06.25/outbox.cif.g09.slc.cpg/sg71_29_cif.got.tgz:56264.got - 2010.06.28 04:59:45.
