data_PCOD8291657
_publ_section_title
;
Structure prediction by ZEFSAII (Michael W. Deem and Ramdas Pophale) SiO2 
 PCOD8291657
Probable space group: I M M M
;
_chemical_formula_sum "Si O2"
_cell_formula_units_Z 104
_cell_length_a 19.847273
_cell_length_b 17.235664
_cell_length_c 15.011251
_cell_angle_alpha 90.000000
_cell_angle_beta 90.000000
_cell_angle_gamma 90.000000
_cell_volume 5135.062684
_symmetry_space_group_name_H-M "I M M M"
_symmetry_group_IT_number 71
_symmetry_cell_setting 'orthorhombic'
loop_
_space_group_symop_operation_xyz
x,y,z
-x,-y,z
x,-y,-z
-x,y,-z
-x,-y,-z
x,y,-z
-x,y,z
x,-y,z
1/2+x,1/2+y,1/2+z
1/2-x,1/2-y,1/2+z
1/2+x,1/2-y,1/2-z
1/2-x,1/2+y,1/2-z
1/2-x,1/2-y,1/2-z
1/2+x,1/2+y,1/2-z
1/2-x,1/2+y,1/2+z
1/2+x,1/2-y,1/2+z
loop_
_atom_site_type_symbol
_atom_site_label
_atom_site_fract_x
_atom_site_fract_y
_atom_site_fract_z
Si Si1 0.321039 0.287418 0.402582
Si Si2 0.161116 0.414565 0.597624
Si Si3 0.714851 0.588840 0.723774
Si Si4 0.420379 0.000000 0.399471
Si Si5 0.198839 0.176983 0.398477
Si Si6 0.076020 0.277653 0.354309
Si Si7 0.576402 0.167184 0.654518
O O1 0.320485 0.326634 0.500000
O O2 0.336606 0.353320 0.328165
O O3 0.248044 0.249723 0.382217
O O4 0.377044 0.220445 0.406602
O O5 0.197035 0.409966 0.500000
O O6 0.130257 0.500000 0.612757
O O7 0.213594 0.396481 0.676348
O O8 0.099657 0.354776 0.595289
O O9 0.690981 0.500000 0.713291
O O10 0.718095 0.609360 0.828557
O O11 0.395857 0.078090 0.348414
O O12 0.500000 0.000000 0.401534
O O13 0.391227 0.000000 0.500000
O O14 0.205459 0.145331 0.500000
O O15 0.122634 0.204988 0.380511
O O16 0.080960 0.296671 0.251112
O O17 0.000000 0.256953 0.383136
O O18 0.500000 0.169593 0.617512
#
# Coordination Sequence:
#
# PCOD8291657 Si02
#       7
#    16  16  16   8  16  16  16
#     4  11  21  37  63  89 119 159 200 250 305 361
#     4  10  21  36  56  87 125 161 196 237 293 364
#     4  11  22  39  63  88 120 159 198 249 305 362
#     4   9  18  34  54  82 125 167 202 240 289 364
#     4  11  23  41  62  87 119 154 201 256 310 363
#     4  11  22  37  59  85 118 160 206 253 302 356
#     4  10  21  36  58  87 122 165 207 247 301 367
#
# _framework density 20.252915999999999
#
# number of rings (size 3 to 8) (size 9 to 14) (size 15 to 20)
#    0.000    1.462    3.077    2.769    1.077    3.692 
#    1.385    0.769    0.000    1.846    0.000    2.154 
#    0.000    0.000    0.000    0.000    0.000    0.000 
#
# Total GULP energy -644613.240114 kJ/mol
# GULP energy per Si atom -12396.408464 kJ/mol
# Density = 2.020682 g / cm^3
# Si number density = 20.252916 Si / 1000 Ang^3
#
#
#
# Elastic Constant Matrix: (Units=GPa)
#
#
# Indices 1 2 3 4 5 6 
#
# 1 89.2414 36.3559 34.1409 0.0000 0.0000 0.0000
# 2 36.3559 106.9652 52.5437 0.0000 0.0000 0.0000
# 3 34.1409 52.5437 121.6318 0.0000 0.0000 0.0000
# 4 0.0000 0.0000 0.0000 26.4671 0.0000 0.0000
# 5 0.0000 0.0000 0.0000 0.0000 15.5429 0.0000
# 6 0.0000 0.0000 0.0000 0.0000 0.0000 21.9354
#
#
#
# Elastic Compliance Matrix: (Units=1/GPa)
#
#
# Indices 1 2 3 4 5 6 
#
# 1 0.013492 -0.003460 -0.002293 0.000000 0.000000 0.000000
# 2 -0.003460 0.012754 -0.004539 0.000000 0.000000 0.000000
# 3 -0.002293 -0.004539 0.010826 0.000000 0.000000 0.000000
# 4 0.000000 0.000000 0.000000 0.037783 0.000000 0.000000
# 5 0.000000 0.000000 0.000000 0.000000 0.064338 0.000000
# 6 0.000000 0.000000 0.000000 0.000000 0.000000 0.045588
#
#
# Mechanical properties :
#
#
# Convention : Reuss Voigt Hill
#
# Bulk Modulus (GPa) = 60.64156 62.65771 61.64964
# Shear Modulus (GPa) = 23.71248 25.77560 24.74404
#
# Velocity S-wave (km/s) = 3.42543 3.57134 3.49915
# Velocity P-wave (km/s) = 6.75662 6.92898 6.84334
#
# Compressibility (1/GPa) = 0.01649034
#
# Stress axis : x y z
#
# Youngs Moduli (GPa) = 74.11793 78.40586 92.37301
#
# Poissons Ratio (x) = 0.27125 0.21177
# Poissons Ratio (y) = 0.25642 0.41924
# Poissons Ratio (z) = 0.16992 0.35585
#
# Static dielectric constant tensor:
#      x y z
#    x 3.527340 0.000000 0.000000 
#    y 0.000000 3.668290 0.000000 
#    z 0.000000 0.000000 3.868480 
# 
# 
# High freq. dielectric constant tensor:
#      x y z
#    x 1.759770 0.000000 0.000000 
#    y 0.000000 1.777020 0.000000 
#    z 0.000000 0.000000 1.809810 
# 
# From -- ./inp_files/38089.got.cif
#   From: 2010.06.25/outbox.cif.g09.slc.cpg/sg71_20_cif.got.tgz:38089.got - 2010.06.28 04:59:45.
