data_PCOD8291147
_publ_section_title
;
Structure prediction by ZEFSAII (Michael W. Deem and Ramdas Pophale) SiO2 
 PCOD8291147
Probable space group: I M M M
;
_chemical_formula_sum "Si O2"
_cell_formula_units_Z 88
_cell_length_a 20.179189
_cell_length_b 9.184464
_cell_length_c 25.489913
_cell_angle_alpha 90.000000
_cell_angle_beta 90.000000
_cell_angle_gamma 90.000000
_cell_volume 4724.173916
_symmetry_space_group_name_H-M "I M M M"
_symmetry_group_IT_number 71
_symmetry_cell_setting 'orthorhombic'
loop_
_space_group_symop_operation_xyz
x,y,z
-x,-y,z
x,-y,-z
-x,y,-z
-x,-y,-z
x,y,-z
-x,y,z
x,-y,z
1/2+x,1/2+y,1/2+z
1/2-x,1/2-y,1/2+z
1/2+x,1/2-y,1/2-z
1/2-x,1/2+y,1/2-z
1/2-x,1/2-y,1/2-z
1/2+x,1/2+y,1/2-z
1/2-x,1/2+y,1/2+z
1/2+x,1/2-y,1/2+z
loop_
_atom_site_type_symbol
_atom_site_label
_atom_site_fract_x
_atom_site_fract_y
_atom_site_fract_z
Si Si1 0.772333 0.829897 0.000000
Si Si2 0.315072 0.336376 0.702365
Si Si3 0.664929 0.171091 0.800942
Si Si4 0.000000 0.328902 0.058868
Si Si5 0.625847 0.663420 0.410675
Si Si6 0.632958 0.674603 0.000000
Si Si7 0.077188 0.669156 0.601078
O O1 0.814270 0.788477 0.948454
O O2 0.708042 0.729964 0.000000
O O3 0.751640 0.000000 0.000000
O O4 0.310932 0.500000 0.724106
O O5 0.355422 0.242818 0.745440
O O6 0.240889 0.279254 0.690034
O O7 0.353936 0.327814 0.648958
O O8 0.619544 0.226419 0.849051
O O9 0.655954 0.000000 0.795645
O O10 0.065282 0.272118 0.086456
O O11 0.000000 0.500000 0.062183
O O12 0.000000 0.269824 0.000000
O O13 0.603883 0.500000 0.426360
O O14 0.595336 0.734151 0.948961
O O15 0.631250 0.500000 0.000000
O O16 0.093900 0.500000 0.588886
O O17 0.000000 0.689084 0.614534
#
# Coordination Sequence:
#
# PCOD8291147 Si02
#       7
#     8  16  16   8  16   8  16
#     4  10  20  36  60  84 109 146 190 233 270 324
#     4   9  18  33  55  83 111 141 181 229 278 324
#     4   9  18  35  58  82 110 143 182 227 274 326
#     4  11  23  37  53  77 115 151 183 232 287 332
#     4  10  20  36  59  82 108 148 193 230 270 332
#     4  12  25  37  55  86 118 145 175 225 284 333
#     4  10  21  39  61  81 107 147 190 228 268 328
#
# _framework density 18.627593999999998
#
# number of rings (size 3 to 8) (size 9 to 14) (size 15 to 20)
#    0.000    2.091    0.909    2.455    0.000    6.909 
#    1.636    3.636    0.000    0.000    0.000    0.000 
#    0.000    0.000    0.000    0.000    0.000    0.000 
#
# Total GULP energy -545608.430445 kJ/mol
# GULP energy per Si atom -12400.191601 kJ/mol
# Density = 1.858520 g / cm^3
# Si number density = 18.627594 Si / 1000 Ang^3
#
#
#
# Elastic Constant Matrix: (Units=GPa)
#
#
# Indices 1 2 3 4 5 6 
#
# 1 97.8805 42.7460 52.9601 0.0000 0.0000 0.0000
# 2 42.7460 66.4313 52.0631 0.0000 0.0000 0.0000
# 3 52.9601 52.0631 131.1431 0.0000 0.0000 0.0000
# 4 0.0000 0.0000 0.0000 32.8108 0.0000 0.0000
# 5 0.0000 0.0000 0.0000 0.0000 10.8839 0.0000
# 6 0.0000 0.0000 0.0000 0.0000 0.0000 72.0609
#
#
#
# Elastic Compliance Matrix: (Units=1/GPa)
#
#
# Indices 1 2 3 4 5 6 
#
# 1 0.015110 -0.007172 -0.003255 0.000000 0.000000 0.000000
# 2 -0.007172 0.025256 -0.007130 0.000000 0.000000 0.000000
# 3 -0.003255 -0.007130 0.011770 0.000000 0.000000 0.000000
# 4 0.000000 0.000000 0.000000 0.030478 0.000000 0.000000
# 5 0.000000 0.000000 0.000000 0.000000 0.091878 0.000000
# 6 0.000000 0.000000 0.000000 0.000000 0.000000 0.013877
#
#
# Mechanical properties :
#
#
# Convention : Reuss Voigt Hill
#
# Bulk Modulus (GPa) = 58.74574 65.66592 62.20583
# Shear Modulus (GPa) = 21.81914 32.99684 27.40799
#
# Velocity S-wave (km/s) = 3.42619 4.21336 3.84000
# Velocity P-wave (km/s) = 6.87438 7.68104 7.28888
#
# Compressibility (1/GPa) = 0.01702251
#
# Stress axis : x y z
#
# Youngs Moduli (GPa) = 66.18340 39.59460 84.95976
#
# Poissons Ratio (x) = 0.28396 0.27651
# Poissons Ratio (y) = 0.47465 0.60579
# Poissons Ratio (z) = 0.21540 0.28232
#
# Static dielectric constant tensor:
#      x y z
#    x 3.399390 0.000000 0.000000 
#    y 0.000000 3.419980 0.000000 
#    z 0.000000 0.000000 3.545620 
# 
# 
# High freq. dielectric constant tensor:
#      x y z
#    x 1.720560 0.000000 0.000000 
#    y 0.000000 1.712220 0.000000 
#    z 0.000000 0.000000 1.733410 
# 
# From -- ./inp_files/61161.got.cif
#   From: 2010.06.25/outbox.cif.g09.slc.cpg/sg71_31_cif.got.tgz:61161.got - 2010.06.28 04:59:45.
