data_PCOD8291480
_publ_section_title
;
Structure prediction by ZEFSAII (Michael W. Deem and Ramdas Pophale) SiO2 
 PCOD8291480
Probable space group: I M M M
;
_chemical_formula_sum "Si O2"
_cell_formula_units_Z 120
_cell_length_a 23.066373
_cell_length_b 29.186626
_cell_length_c 9.133002
_cell_angle_alpha 90.000000
_cell_angle_beta 90.000000
_cell_angle_gamma 90.000000
_cell_volume 6148.607301
_symmetry_space_group_name_H-M "I M M M"
_symmetry_group_IT_number 71
_symmetry_cell_setting 'orthorhombic'
loop_
_space_group_symop_operation_xyz
x,y,z
-x,-y,z
x,-y,-z
-x,y,-z
-x,-y,-z
x,y,-z
-x,y,z
x,-y,z
1/2+x,1/2+y,1/2+z
1/2-x,1/2-y,1/2+z
1/2+x,1/2-y,1/2-z
1/2-x,1/2+y,1/2-z
1/2-x,1/2-y,1/2-z
1/2+x,1/2+y,1/2-z
1/2-x,1/2+y,1/2+z
1/2+x,1/2-y,1/2+z
loop_
_atom_site_type_symbol
_atom_site_label
_atom_site_fract_x
_atom_site_fract_y
_atom_site_fract_z
Si Si1 0.933907 0.299139 0.657672
Si Si2 0.276423 0.707581 0.667313
Si Si3 0.396505 0.601525 0.169367
Si Si4 0.890150 0.796984 0.666032
Si Si5 0.171761 0.553556 0.169815
Si Si6 0.773090 0.105745 0.826990
Si Si7 0.000000 0.945858 0.166346
Si Si8 0.934362 0.385025 0.171564
O O1 0.902214 0.305253 0.500000
O O2 0.930662 0.246058 0.706824
O O3 0.908539 0.336488 0.769507
O O4 0.000000 0.311934 0.640032
O O5 0.269505 0.720004 0.500000
O O6 0.250000 0.750000 0.750000
O O7 0.342701 0.704178 0.709385
O O8 0.249379 0.657546 0.703027
O O9 0.421300 0.653732 0.179004
O O10 0.333451 0.596534 0.243496
O O11 0.442153 0.569888 0.251441
O O12 0.391216 0.586128 0.000000
O O13 0.865040 0.792093 0.500000
O O14 0.165412 0.500000 0.197593
O O15 0.224653 0.571512 0.267222
O O16 0.110521 0.575626 0.220392
O O17 0.184573 0.564888 0.000000
O O18 0.783122 0.097771 0.000000
O O19 0.000000 0.000000 0.166400
O O20 0.000000 0.926833 0.000000
O O21 0.000000 0.396635 0.227996
O O22 0.935944 0.379671 0.000000
#
# Coordination Sequence:
#
# PCOD8291480 Si02
#       8
#    16  16  16  16  16  16   8  16
#     4   9  18  32  52  78 111 149 185 222 273 335
#     4  10  21  35  53  79 112 149 190 232 281 340
#     4  10  21  39  64  89 117 153 196 244 291 345
#     4   9  19  34  54  81 113 148 188 231 281 337
#     4  10  22  39  60  86 113 148 196 246 298 352
#     4  10  22  40  60  84 118 155 193 240 296 352
#     4  11  25  43  63  89 121 157 197 243 298 353
#     4   9  19  36  56  81 115 150 190 239 289 342
#
# _framework density 19.516614000000001
#
# number of rings (size 3 to 8) (size 9 to 14) (size 15 to 20)
#    0.000    2.333    0.000    1.400    2.800    4.800 
#    0.000    1.333    0.000    0.000    0.000    2.800 
#    0.000    0.000    0.000    0.000    0.000    0.000 
#
# Total GULP energy -743475.881940 kJ/mol
# GULP energy per Si atom -12391.264699 kJ/mol
# Density = 1.947219 g / cm^3
# Si number density = 19.516614 Si / 1000 Ang^3
#
#
#
# Elastic Constant Matrix: (Units=GPa)
#
#
# Indices 1 2 3 4 5 6 
#
# 1 94.0320 56.0713 52.0528 0.0000 0.0000 0.0000
# 2 56.0713 121.2379 55.0596 0.0000 0.0000 0.0000
# 3 52.0528 55.0596 86.2302 0.0000 0.0000 0.0000
# 4 0.0000 0.0000 0.0000 31.4191 0.0000 0.0000
# 5 0.0000 0.0000 0.0000 0.0000 27.2293 0.0000
# 6 0.0000 0.0000 0.0000 0.0000 0.0000 35.4365
#
#
#
# Elastic Compliance Matrix: (Units=1/GPa)
#
#
# Indices 1 2 3 4 5 6 
#
# 1 0.017683 -0.004691 -0.007679 0.000000 0.000000 0.000000
# 2 -0.004691 0.012861 -0.005381 0.000000 0.000000 0.000000
# 3 -0.007679 -0.005381 0.019668 0.000000 0.000000 0.000000
# 4 0.000000 0.000000 0.000000 0.031828 0.000000 0.000000
# 5 0.000000 0.000000 0.000000 0.000000 0.036725 0.000000
# 6 0.000000 0.000000 0.000000 0.000000 0.000000 0.028219
#
#
# Mechanical properties :
#
#
# Convention : Reuss Voigt Hill
#
# Bulk Modulus (GPa) = 67.97562 69.76304 68.86933
# Shear Modulus (GPa) = 26.68258 28.03809 27.36033
#
# Velocity S-wave (km/s) = 3.70154 3.79440 3.74826
# Velocity P-wave (km/s) = 7.29203 7.41752 7.35505
#
# Compressibility (1/GPa) = 0.01471116
#
# Stress axis : x y z
#
# Youngs Moduli (GPa) = 56.55304 77.75331 50.84416
#
# Poissons Ratio (x) = 0.36471 0.39043
# Poissons Ratio (y) = 0.26527 0.27357
# Poissons Ratio (z) = 0.43427 0.41836
#
# Static dielectric constant tensor:
#      x y z
#    x 3.418720 0.000000 0.000000 
#    y 0.000000 125.171420 0.000000 
#    z 0.000000 0.000000 3.750400 
# 
# 
# High freq. dielectric constant tensor:
#      x y z
#    x 1.748170 0.000000 0.000000 
#    y 0.000000 1.766740 0.000000 
#    z 0.000000 0.000000 1.762440 
# 
# From -- ./inp_files/15622.got.cif
#   From: 2010.06.25/outbox.cif.g09.slc.cpg/sg71_8_cif.got.tgz:15622.got - 2010.06.28 04:59:45.
