data_PCOD8291834
_publ_section_title
;
Structure prediction by ZEFSAII (Michael W. Deem and Ramdas Pophale) SiO2 
 PCOD8291834
Probable space group: I M M M
;
_chemical_formula_sum "Si O2"
_cell_formula_units_Z 104
_cell_length_a 18.229054
_cell_length_b 12.671620
_cell_length_c 24.541590
_cell_angle_alpha 90.000000
_cell_angle_beta 90.000000
_cell_angle_gamma 90.000000
_cell_volume 5668.902251
_symmetry_space_group_name_H-M "I M M M"
_symmetry_group_IT_number 71
_symmetry_cell_setting 'orthorhombic'
loop_
_space_group_symop_operation_xyz
x,y,z
-x,-y,z
x,-y,-z
-x,y,-z
-x,-y,-z
x,y,-z
-x,y,z
x,-y,z
1/2+x,1/2+y,1/2+z
1/2-x,1/2-y,1/2+z
1/2+x,1/2-y,1/2-z
1/2-x,1/2+y,1/2-z
1/2-x,1/2-y,1/2-z
1/2+x,1/2+y,1/2-z
1/2-x,1/2+y,1/2+z
1/2+x,1/2-y,1/2+z
loop_
_atom_site_type_symbol
_atom_site_label
_atom_site_fract_x
_atom_site_fract_y
_atom_site_fract_z
Si Si1 0.799616 0.119791 0.440653
Si Si2 0.916367 0.500000 0.635509
Si Si3 0.307397 0.298411 0.409972
Si Si4 0.915942 0.678066 0.721095
Si Si5 0.216770 0.500000 0.435695
Si Si6 0.706077 0.196202 0.298757
Si Si7 0.086123 0.875436 0.000000
Si Si8 0.854545 0.116424 0.330357
O O1 0.836445 0.136795 0.500000
O O2 0.730141 0.196785 0.436577
O O3 0.862559 0.142091 0.395029
O O4 0.770366 0.000000 0.434313
O O5 0.897545 0.603496 0.670557
O O6 0.868280 0.500000 0.581181
O O7 0.000000 0.500000 0.616282
O O8 0.253091 0.396949 0.410605
O O9 0.323061 0.275900 0.345939
O O10 0.380203 0.324836 0.444887
O O11 0.866245 0.642658 0.772561
O O12 0.898750 0.799155 0.705027
O O13 0.000000 0.666930 0.739128
O O14 0.224644 0.500000 0.500000
O O15 0.750000 0.250000 0.250000
O O16 0.765582 0.114937 0.322759
O O17 0.000000 0.852072 0.000000
O O18 0.103644 0.000000 0.000000
O O19 0.884989 0.000000 0.315470
#
# Coordination Sequence:
#
# PCOD8291834 Si02
#       8
#    16   8  16  16   8  16   8  16
#     4   9  16  28  51  78 106 133 169 218 266 309
#     4  10  22  37  56  80 114 151 182 226 276 336
#     4  11  19  35  55  81 110 142 188 229 280 328
#     4  10  21  38  54  75 107 147 185 221 278 335
#     4  12  20  33  60  86 112 144 181 225 279 339
#     4   9  19  34  52  79 105 138 183 233 272 325
#     4  11  22  38  55  81 121 157 188 230 288 350
#     4   9  18  32  52  80 107 135 173 227 273 313
#
# _framework density 18.345701999999999
#
# number of rings (size 3 to 8) (size 9 to 14) (size 15 to 20)
#    0.000    2.077    2.308    2.769    1.077    1.077 
#    5.538    0.000    0.000    2.308    0.000    2.154 
#    0.000    0.000    0.000    0.000    0.000    0.000 
#
# Total GULP energy -644400.623095 kJ/mol
# GULP energy per Si atom -12392.319675 kJ/mol
# Density = 1.830395 g / cm^3
# Si number density = 18.345702 Si / 1000 Ang^3
#
#
#
# Elastic Constant Matrix: (Units=GPa)
#
#
# Indices 1 2 3 4 5 6 
#
# 1 72.1428 4.8625 18.6616 0.0000 0.0000 0.0000
# 2 4.8625 69.1463 -2.6819 0.0000 0.0000 0.0000
# 3 18.6616 -2.6819 77.7505 0.0000 0.0000 0.0000
# 4 0.0000 0.0000 0.0000 -7.0881 0.0000 0.0000
# 5 0.0000 0.0000 0.0000 0.0000 30.6090 0.0000
# 6 0.0000 0.0000 0.0000 0.0000 0.0000 21.8750
#
#
#
# Elastic Compliance Matrix: (Units=1/GPa)
#
#
# Indices 1 2 3 4 5 6 
#
# 1 0.014876 -0.001186 -0.003611 0.000000 0.000000 0.000000
# 2 -0.001186 0.014576 0.000787 0.000000 0.000000 0.000000
# 3 -0.003611 0.000787 0.013756 0.000000 0.000000 0.000000
# 4 0.000000 0.000000 0.000000 -0.141081 0.000000 0.000000
# 5 0.000000 0.000000 0.000000 0.000000 0.032670 0.000000
# 6 0.000000 0.000000 0.000000 0.000000 0.000000 0.045714
#
#
# Mechanical properties :
#
#
# Convention : Reuss Voigt Hill
#
# Bulk Modulus (GPa) = 28.41943 28.96933 28.69438
# Shear Modulus (GPa) = 19275.24150 22.29233 9648.76691
#
# Velocity S-wave (km/s) = 102.61330 3.48965 72.60050
# Velocity P-wave (km/s) = 118.55312 5.66232 83.92528
#
# Compressibility (1/GPa) = 0.03518719
#
# Stress axis : x y z
#
# Youngs Moduli (GPa) = 67.22459 68.60571 72.69769
#
# Poissons Ratio (x) = 0.08138 0.26253
# Poissons Ratio (y) = 0.07974 -0.05725
# Poissons Ratio (z) = 0.24277 -0.05403
#
# Static dielectric constant tensor:
#      x y z
#    x 3.290560 0.000000 0.000000 
#    y 0.000000 3.422750 0.000000 
#    z 0.000000 0.000000 3.770150 
# 
# 
# High freq. dielectric constant tensor:
#      x y z
#    x 1.680990 0.000000 0.000000 
#    y 0.000000 1.715810 0.000000 
#    z 0.000000 0.000000 1.721690 
# 
# From -- ./inp_files/60761.got.cif
#   From: 2010.06.25/outbox.cif.g09.slc.cpg/sg71_31_cif.got.tgz:60761.got - 2010.06.28 04:59:45.
