data_PCOD8291621
_publ_section_title
;
Structure prediction by ZEFSAII (Michael W. Deem and Ramdas Pophale) SiO2 
 PCOD8291621
Probable space group: I M M M
;
_chemical_formula_sum "Si O2"
_cell_formula_units_Z 88
_cell_length_a 19.706048
_cell_length_b 24.873014
_cell_length_c 8.814181
_cell_angle_alpha 90.000000
_cell_angle_beta 90.000000
_cell_angle_gamma 90.000000
_cell_volume 4320.260309
_symmetry_space_group_name_H-M "I M M M"
_symmetry_group_IT_number 71
_symmetry_cell_setting 'orthorhombic'
loop_
_space_group_symop_operation_xyz
x,y,z
-x,-y,z
x,-y,-z
-x,y,-z
-x,-y,-z
x,y,-z
-x,y,z
x,-y,z
1/2+x,1/2+y,1/2+z
1/2-x,1/2-y,1/2+z
1/2+x,1/2-y,1/2-z
1/2-x,1/2+y,1/2-z
1/2-x,1/2-y,1/2-z
1/2+x,1/2+y,1/2-z
1/2-x,1/2+y,1/2+z
1/2+x,1/2-y,1/2+z
loop_
_atom_site_type_symbol
_atom_site_label
_atom_site_fract_x
_atom_site_fract_y
_atom_site_fract_z
Si Si1 0.923693 0.198201 0.170709
Si Si2 0.812178 0.282370 0.175936
Si Si3 0.576578 0.589711 0.175942
Si Si4 0.705027 0.559287 0.335260
Si Si5 0.832165 0.403037 0.177701
Si Si6 0.419624 0.000000 0.820048
O O1 0.878691 0.248708 0.210326
O O2 0.907005 0.151854 0.290862
O O3 0.000000 0.218639 0.188144
O O4 0.909738 0.176551 0.000000
O O5 0.750000 0.250000 0.250000
O O6 0.834651 0.341325 0.238380
O O7 0.793861 0.288004 0.000000
O O8 0.500000 0.575325 0.227493
O O9 0.628561 0.554943 0.273101
O O10 0.586697 0.577395 0.000000
O O11 0.707524 0.589417 0.500000
O O12 0.732486 0.500000 0.362655
O O13 0.753455 0.584766 0.209836
O O14 0.883639 0.445010 0.259221
O O15 0.847774 0.407578 0.000000
O O16 0.500000 0.000000 0.773984
O O17 0.411701 0.000000 0.000000
#
# Coordination Sequence:
#
# PCOD8291621 Si02
#       6
#    16  16  16  16  16   8
#     4   9  18  35  57  79 109 149 190 232 283 346
#     4  10  22  37  57  89 122 156 198 247 304 366
#     4  10  21  36  55  82 116 152 193 242 292 343
#     4  11  23  38  58  82 112 151 195 241 291 351
#     4  11  23  40  64  92 123 158 202 256 312 369
#     4  11  25  45  67  93 126 165 212 263 319 383
#
# _framework density 20.369142
#
# number of rings (size 3 to 8) (size 9 to 14) (size 15 to 20)
#    0.000    1.727    0.909    3.000    0.000    9.091 
#    0.000    3.636    0.000    2.182    0.000    0.000 
#    0.000    0.000    0.000    0.000    0.000    0.000 
#
# Total GULP energy -545192.780588 kJ/mol
# GULP energy per Si atom -12390.745013 kJ/mol
# Density = 2.032278 g / cm^3
# Si number density = 20.369142 Si / 1000 Ang^3
#
#
#
# Elastic Constant Matrix: (Units=GPa)
#
#
# Indices 1 2 3 4 5 6 
#
# 1 104.6413 47.9991 33.9649 0.0000 0.0000 0.0000
# 2 47.9991 109.3345 26.5247 0.0000 0.0000 0.0000
# 3 33.9649 26.5247 66.1851 0.0000 0.0000 0.0000
# 4 0.0000 0.0000 0.0000 27.5606 0.0000 0.0000
# 5 0.0000 0.0000 0.0000 0.0000 30.7213 0.0000
# 6 0.0000 0.0000 0.0000 0.0000 0.0000 35.9034
#
#
#
# Elastic Compliance Matrix: (Units=1/GPa)
#
#
# Indices 1 2 3 4 5 6 
#
# 1 0.013292 -0.004631 -0.004965 0.000000 0.000000 0.000000
# 2 -0.004631 0.011745 -0.002330 0.000000 0.000000 0.000000
# 3 -0.004965 -0.002330 0.018591 0.000000 0.000000 0.000000
# 4 0.000000 0.000000 0.000000 0.036284 0.000000 0.000000
# 5 0.000000 0.000000 0.000000 0.000000 0.032551 0.000000
# 6 0.000000 0.000000 0.000000 0.000000 0.000000 0.027853
#
#
# Mechanical properties :
#
#
# Convention : Reuss Voigt Hill
#
# Bulk Modulus (GPa) = 50.56943 55.23758 52.90351
# Shear Modulus (GPa) = 29.28083 30.28186 29.78134
#
# Velocity S-wave (km/s) = 3.79556 3.85990 3.82787
# Velocity P-wave (km/s) = 6.63994 6.85873 6.75022
#
# Compressibility (1/GPa) = 0.01977479
#
# Stress axis : x y z
#
# Youngs Moduli (GPa) = 75.23120 85.14551 53.78869
#
# Poissons Ratio (x) = 0.39430 0.26709
# Poissons Ratio (y) = 0.34839 0.12535
# Poissons Ratio (z) = 0.37356 0.19842
#
# Static dielectric constant tensor:
#      x y z
#    x 4.080420 0.000000 0.000000 
#    y 0.000000 3.796320 0.000000 
#    z 0.000000 0.000000 3.813430 
# 
# 
# High freq. dielectric constant tensor:
#      x y z
#    x 1.802580 0.000000 0.000000 
#    y 0.000000 1.798720 0.000000 
#    z 0.000000 0.000000 1.794440 
# 
# From -- ./inp_files/10385.got.cif
#   From: 2010.06.25/outbox.cif.g09.slc.cpg/sg71_6_cif.got.tgz:10385.got - 2010.06.28 04:59:45.
