data_PCOD8291805
_publ_section_title
;
Structure prediction by ZEFSAII (Michael W. Deem and Ramdas Pophale) SiO2 
 PCOD8291805
Probable space group: I M M M
;
_chemical_formula_sum "Si O2"
_cell_formula_units_Z 88
_cell_length_a 24.041990
_cell_length_b 20.093520
_cell_length_c 8.756714
_cell_angle_alpha 90.000000
_cell_angle_beta 90.000000
_cell_angle_gamma 90.000000
_cell_volume 4230.265265
_symmetry_space_group_name_H-M "I M M M"
_symmetry_group_IT_number 71
_symmetry_cell_setting 'orthorhombic'
loop_
_space_group_symop_operation_xyz
x,y,z
-x,-y,z
x,-y,-z
-x,y,-z
-x,-y,-z
x,y,-z
-x,y,z
x,-y,z
1/2+x,1/2+y,1/2+z
1/2-x,1/2-y,1/2+z
1/2+x,1/2-y,1/2-z
1/2-x,1/2+y,1/2-z
1/2-x,1/2-y,1/2-z
1/2+x,1/2+y,1/2-z
1/2-x,1/2+y,1/2+z
1/2+x,1/2-y,1/2+z
loop_
_atom_site_type_symbol
_atom_site_label
_atom_site_fract_x
_atom_site_fract_y
_atom_site_fract_z
Si Si1 0.370475 0.372037 0.318985
Si Si2 0.562597 0.108924 0.822476
Si Si3 0.828677 0.426500 0.176092
Si Si4 0.252338 0.323565 0.320009
Si Si5 0.935924 0.000000 0.817473
Si Si6 0.062957 0.253361 0.827920
O O1 0.374220 0.375913 0.500000
O O2 0.306604 0.365033 0.264425
O O3 0.401896 0.436578 0.251503
O O4 0.400997 0.306250 0.259523
O O5 0.500000 0.086684 0.776265
O O6 0.606743 0.067733 0.724327
O O7 0.571096 0.186466 0.787660
O O8 0.573244 0.095684 0.000000
O O9 0.802341 0.500000 0.205359
O O10 0.799913 0.368489 0.273057
O O11 0.823927 0.406715 0.000000
O O12 0.252768 0.314042 0.500000
O O13 0.250000 0.250000 0.250000
O O14 0.000000 0.000000 0.758061
O O15 0.936133 0.000000 0.000000
O O16 0.000000 0.228024 0.832796
O O17 0.082193 0.273821 0.000000
#
# Coordination Sequence:
#
# PCOD8291805 Si02
#       6
#    16  16  16  16   8  16
#     4   9  18  30  49  79 113 150 192 239 291 351
#     4  10  21  37  59  88 118 149 189 238 297 364
#     4  11  25  43  62  85 117 156 201 250 302 362
#     4  11  23  39  62  89 121 159 204 255 307 366
#     4   9  16  28  48  78 117 153 188 235 292 353
#     4   9  16  29  52  82 116 152 191 237 289 346
#
# _framework density 20.802479000000002
#
# number of rings (size 3 to 8) (size 9 to 14) (size 15 to 20)
#    0.000    2.091    0.000    3.273    1.273    6.545 
#    0.000    2.727    0.000    0.000    0.000    0.000 
#    0.000    6.545    0.000    0.000    0.000    0.000 
#
# Total GULP energy -545499.292020 kJ/mol
# GULP energy per Si atom -12397.711182 kJ/mol
# Density = 2.075513 g / cm^3
# Si number density = 20.802479 Si / 1000 Ang^3
#
#
#
# Elastic Constant Matrix: (Units=GPa)
#
#
# Indices 1 2 3 4 5 6 
#
# 1 120.2031 56.2513 28.6216 0.0000 0.0000 0.0000
# 2 56.2513 113.9973 28.4337 0.0000 0.0000 0.0000
# 3 28.6216 28.4337 51.8979 0.0000 0.0000 0.0000
# 4 0.0000 0.0000 0.0000 21.3397 0.0000 0.0000
# 5 0.0000 0.0000 0.0000 0.0000 23.5367 0.0000
# 6 0.0000 0.0000 0.0000 0.0000 0.0000 39.1732
#
#
#
# Elastic Compliance Matrix: (Units=1/GPa)
#
#
# Indices 1 2 3 4 5 6 
#
# 1 0.011403 -0.004701 -0.003714 0.000000 0.000000 0.000000
# 2 -0.004701 0.012098 -0.004036 0.000000 0.000000 0.000000
# 3 -0.003714 -0.004036 0.023528 0.000000 0.000000 0.000000
# 4 0.000000 0.000000 0.000000 0.046861 0.000000 0.000000
# 5 0.000000 0.000000 0.000000 0.000000 0.042487 0.000000
# 6 0.000000 0.000000 0.000000 0.000000 0.000000 0.025528
#
#
# Mechanical properties :
#
#
# Convention : Reuss Voigt Hill
#
# Bulk Modulus (GPa) = 45.18932 56.96795 51.07863
# Shear Modulus (GPa) = 25.74910 28.32936 27.03923
#
# Velocity S-wave (km/s) = 3.52204 3.69430 3.60920
# Velocity P-wave (km/s) = 6.18950 6.75587 6.47887
#
# Compressibility (1/GPa) = 0.02212912
#
# Stress axis : x y z
#
# Youngs Moduli (GPa) = 87.69459 82.65627 42.50279
#
# Poissons Ratio (x) = 0.38853 0.15783
# Poissons Ratio (y) = 0.41222 0.17154
# Poissons Ratio (z) = 0.32565 0.33360
#
# Static dielectric constant tensor:
#      x y z
#    x 4.012390 0.000000 0.000000 
#    y 0.000000 3.792100 0.000000 
#    z 0.000000 0.000000 3.377860 
# 
# 
# High freq. dielectric constant tensor:
#      x y z
#    x 1.825210 0.000000 0.000000 
#    y 0.000000 1.821760 0.000000 
#    z 0.000000 0.000000 1.779300 
# 
# From -- ./inp_files/12529.got.cif
#   From: 2010.06.25/outbox.cif.g09.slc.cpg/sg71_7_cif.got.tgz:12529.got - 2010.06.28 04:59:45.
