data_PCOD8291592
_publ_section_title
;
Structure prediction by ZEFSAII (Michael W. Deem and Ramdas Pophale) SiO2 
 PCOD8291592
Probable space group: I M M M
;
_chemical_formula_sum "Si O2"
_cell_formula_units_Z 88
_cell_length_a 18.609922
_cell_length_b 7.556963
_cell_length_c 29.807144
_cell_angle_alpha 90.000000
_cell_angle_beta 90.000000
_cell_angle_gamma 90.000000
_cell_volume 4191.912554
_symmetry_space_group_name_H-M "I M M M"
_symmetry_group_IT_number 71
_symmetry_cell_setting 'orthorhombic'
loop_
_space_group_symop_operation_xyz
x,y,z
-x,-y,z
x,-y,-z
-x,y,-z
-x,-y,-z
x,y,-z
-x,y,z
x,-y,z
1/2+x,1/2+y,1/2+z
1/2-x,1/2-y,1/2+z
1/2+x,1/2-y,1/2-z
1/2-x,1/2+y,1/2-z
1/2-x,1/2-y,1/2-z
1/2+x,1/2+y,1/2-z
1/2-x,1/2+y,1/2+z
1/2+x,1/2-y,1/2+z
loop_
_atom_site_type_symbol
_atom_site_label
_atom_site_fract_x
_atom_site_fract_y
_atom_site_fract_z
Si Si1 0.181803 0.803292 0.626508
Si Si2 0.419572 0.704226 0.201540
Si Si3 0.081243 0.706521 0.550794
Si Si4 0.084824 0.000000 0.052862
Si Si5 0.920436 0.291851 0.201046
Si Si6 0.659784 0.212268 0.612096
O O1 0.135742 0.705161 0.665919
O O2 0.134898 0.814644 0.581671
O O3 0.258253 0.716149 0.614669
O O4 0.200274 0.000000 0.643437
O O5 0.500000 0.790608 0.198412
O O6 0.425973 0.500000 0.188607
O O7 0.387669 0.726734 0.251587
O O8 0.093973 0.768486 0.500000
O O9 0.097383 0.500000 0.555984
O O10 0.000000 0.749545 0.565542
O O11 0.119136 0.820606 0.073286
O O12 0.000000 0.000000 0.062700
O O13 0.101023 0.000000 0.000000
O O14 0.924599 0.500000 0.201722
O O15 0.872573 0.228373 0.159800
O O16 0.000000 0.209538 0.195209
O O17 0.652474 0.000000 0.602663
#
# Coordination Sequence:
#
# PCOD8291592 Si02
#       6
#    16  16  16   8  16  16
#     4  10  21  36  54  81 119 158 197 242 303 364
#     4   9  18  32  52  81 117 158 203 250 294 345
#     4   9  19  35  54  77 106 146 197 248 296 350
#     4  11  26  46  70  98 121 153 203 251 307 377
#     4   9  18  34  56  82 113 153 201 247 294 355
#     4  10  23  42  63  92 127 161 198 249 306 366
#
# _framework density 20.992804
#
# number of rings (size 3 to 8) (size 9 to 14) (size 15 to 20)
#    0.000    2.455    0.000    1.636    2.545    5.091 
#    0.000    5.455    0.000    0.000    0.000    0.000 
#    0.000    0.000    0.000    0.000    0.000    0.000 
#
# Total GULP energy -545375.870956 kJ/mol
# GULP energy per Si atom -12394.906158 kJ/mol
# Density = 2.094502 g / cm^3
# Si number density = 20.992804 Si / 1000 Ang^3
#
#
#
# Elastic Constant Matrix: (Units=GPa)
#
#
# Indices 1 2 3 4 5 6 
#
# 1 151.1060 26.7545 95.2766 0.0000 0.0000 0.0000
# 2 26.7545 48.6899 29.9648 0.0000 0.0000 0.0000
# 3 95.2766 29.9648 150.1144 0.0000 0.0000 0.0000
# 4 0.0000 0.0000 0.0000 25.8098 0.0000 0.0000
# 5 0.0000 0.0000 0.0000 0.0000 15.0994 0.0000
# 6 0.0000 0.0000 0.0000 0.0000 0.0000 19.6981
#
#
#
# Elastic Compliance Matrix: (Units=1/GPa)
#
#
# Indices 1 2 3 4 5 6 
#
# 1 0.011207 -0.002030 -0.006708 0.000000 0.000000 0.000000
# 2 -0.002030 0.023782 -0.003459 0.000000 0.000000 0.000000
# 3 -0.006708 -0.003459 0.011609 0.000000 0.000000 0.000000
# 4 0.000000 0.000000 0.000000 0.038745 0.000000 0.000000
# 5 0.000000 0.000000 0.000000 0.000000 0.066228 0.000000
# 6 0.000000 0.000000 0.000000 0.000000 0.000000 0.050766
#
#
# Mechanical properties :
#
#
# Convention : Reuss Voigt Hill
#
# Bulk Modulus (GPa) = 45.03408 72.65579 58.84493
# Shear Modulus (GPa) = 21.35552 25.31576 23.33564
#
# Velocity S-wave (km/s) = 3.19294 3.47641 3.33769
# Velocity P-wave (km/s) = 5.92384 7.12733 6.55327
#
# Compressibility (1/GPa) = 0.02220541
#
# Stress axis : x y z
#
# Youngs Moduli (GPa) = 89.23331 42.04822 86.13823
#
# Poissons Ratio (x) = 0.08535 0.57778
# Poissons Ratio (y) = 0.18114 0.29794
# Poissons Ratio (z) = 0.59854 0.14544
#
# Static dielectric constant tensor:
#      x y z
#    x 4.022410 0.000000 0.000000 
#    y 0.000000 3.534700 0.000000 
#    z 0.000000 0.000000 3.863540 
# 
# 
# High freq. dielectric constant tensor:
#      x y z
#    x 1.819830 0.000000 0.000000 
#    y 0.000000 1.807650 0.000000 
#    z 0.000000 0.000000 1.824770 
# 
# From -- ./inp_files/49203.got.cif
#   From: 2010.06.25/outbox.cif.g09.slc.cpg/sg71_25_cif.got.tgz:49203.got - 2010.06.28 04:59:45.
