data_PCOD8291997
_publ_section_title
;
Structure prediction by ZEFSAII (Michael W. Deem and Ramdas Pophale) SiO2 
 PCOD8291997
Probable space group: I M M M
;
_chemical_formula_sum "Si O2"
_cell_formula_units_Z 88
_cell_length_a 8.756298
_cell_length_b 23.134266
_cell_length_c 22.061750
_cell_angle_alpha 90.000000
_cell_angle_beta 90.000000
_cell_angle_gamma 90.000000
_cell_volume 4469.060326
_symmetry_space_group_name_H-M "I M M M"
_symmetry_group_IT_number 71
_symmetry_cell_setting 'orthorhombic'
loop_
_space_group_symop_operation_xyz
x,y,z
-x,-y,z
x,-y,-z
-x,y,-z
-x,-y,-z
x,y,-z
-x,y,z
x,-y,z
1/2+x,1/2+y,1/2+z
1/2-x,1/2-y,1/2+z
1/2+x,1/2-y,1/2-z
1/2-x,1/2+y,1/2-z
1/2-x,1/2-y,1/2-z
1/2+x,1/2+y,1/2-z
1/2-x,1/2+y,1/2+z
1/2+x,1/2-y,1/2+z
loop_
_atom_site_type_symbol
_atom_site_label
_atom_site_fract_x
_atom_site_fract_y
_atom_site_fract_z
Si Si1 0.819291 0.933006 0.000000
Si Si2 0.820692 0.740502 0.316283
Si Si3 0.321533 0.876068 0.118221
Si Si4 0.171383 0.064958 0.429134
Si Si5 0.179117 0.437006 0.260769
Si Si6 0.676986 0.145967 0.342397
O O1 0.764970 0.896849 0.941657
O O2 0.000000 0.934175 0.000000
O O3 0.757456 0.000000 0.000000
O O4 0.750000 0.750000 0.250000
O O5 0.760656 0.685035 0.354361
O O6 0.774679 0.796561 0.354802
O O7 0.000000 0.733528 0.307358
O O8 0.500000 0.871620 0.102416
O O9 0.287094 0.923601 0.169382
O O10 0.195858 0.068250 0.500000
O O11 0.299371 0.105128 0.399829
O O12 0.000000 0.085228 0.411706
O O13 0.198049 0.000000 0.405798
O O14 0.251513 0.500000 0.246149
O O15 0.244796 0.387124 0.216928
O O16 0.000000 0.439041 0.248185
O O17 0.500000 0.162245 0.334754
#
# Coordination Sequence:
#
# PCOD8291997 Si02
#       6
#     8  16  16  16  16  16
#     4  11  25  43  63  93 129 159 196 253 316 367
#     4  11  22  39  62  88 118 154 196 244 296 356
#     4  10  21  40  64  87 115 159 208 244 291 361
#     4   9  19  37  58  81 114 155 196 239 291 351
#     4   9  17  31  54  85 117 147 186 237 287 343
#     4  11  21  35  56  86 120 154 195 242 295 357
#
# _framework density 19.690940999999999
#
# number of rings (size 3 to 8) (size 9 to 14) (size 15 to 20)
#    0.000    1.909    1.818    3.000    0.000    4.364 
#    1.636    0.909    0.000    3.273    0.000    0.000 
#    0.000    0.000    0.000    0.000    0.000    0.000 
#
# Total GULP energy -545434.852958 kJ/mol
# GULP energy per Si atom -12396.246658 kJ/mol
# Density = 1.964612 g / cm^3
# Si number density = 19.690941 Si / 1000 Ang^3
#
#
#
# Elastic Constant Matrix: (Units=GPa)
#
#
# Indices 1 2 3 4 5 6 
#
# 1 46.9075 33.4791 30.5913 0.0000 0.0000 0.0000
# 2 33.4791 144.3842 59.0755 0.0000 0.0000 0.0000
# 3 30.5913 59.0755 90.4163 0.0000 0.0000 0.0000
# 4 0.0000 0.0000 0.0000 30.4208 0.0000 0.0000
# 5 0.0000 0.0000 0.0000 0.0000 29.9044 0.0000
# 6 0.0000 0.0000 0.0000 0.0000 0.0000 29.1109
#
#
#
# Elastic Compliance Matrix: (Units=1/GPa)
#
#
# Indices 1 2 3 4 5 6 
#
# 1 0.028705 -0.003661 -0.007320 0.000000 0.000000 0.000000
# 2 -0.003661 0.009920 -0.005243 0.000000 0.000000 0.000000
# 3 -0.007320 -0.005243 0.016962 0.000000 0.000000 0.000000
# 4 0.000000 0.000000 0.000000 0.032872 0.000000 0.000000
# 5 0.000000 0.000000 0.000000 0.000000 0.033440 0.000000
# 6 0.000000 0.000000 0.000000 0.000000 0.000000 0.034351
#
#
# Mechanical properties :
#
#
# Convention : Reuss Voigt Hill
#
# Bulk Modulus (GPa) = 43.21581 58.66666 50.94123
# Shear Modulus (GPa) = 25.45666 28.45802 26.95734
#
# Velocity S-wave (km/s) = 3.59947 3.80575 3.70404
# Velocity P-wave (km/s) = 6.26655 7.01213 6.64980
#
# Compressibility (1/GPa) = 0.02313968
#
# Stress axis : x y z
#
# Youngs Moduli (GPa) = 34.83657 100.80677 58.95482
#
# Poissons Ratio (x) = 0.36905 0.43156
# Poissons Ratio (y) = 0.12754 0.30909
# Poissons Ratio (z) = 0.25501 0.52851
#
# Static dielectric constant tensor:
#      x y z
#    x 3.448200 0.000000 0.000000 
#    y 0.000000 4.026820 0.000000 
#    z 0.000000 0.000000 3.476410 
# 
# 
# High freq. dielectric constant tensor:
#      x y z
#    x 1.743030 0.000000 0.000000 
#    y 0.000000 1.782830 0.000000 
#    z 0.000000 0.000000 1.764600 
# 
# From -- ./inp_files/50490.got.cif
#   From: 2010.06.25/outbox.cif.g09.slc.cpg/sg71_26_cif.got.tgz:50490.got - 2010.06.28 04:59:45.
