data_PCOD8291024
_publ_section_title
;
Structure prediction by ZEFSAII (Michael W. Deem and Ramdas Pophale) SiO2 
 PCOD8291024
Probable space group: I M M M
;
_chemical_formula_sum "Si O2"
_cell_formula_units_Z 112
_cell_length_a 14.850485
_cell_length_b 14.298610
_cell_length_c 26.213472
_cell_angle_alpha 90.000000
_cell_angle_beta 90.000000
_cell_angle_gamma 90.000000
_cell_volume 5566.202547
_symmetry_space_group_name_H-M "I M M M"
_symmetry_group_IT_number 71
_symmetry_cell_setting 'orthorhombic'
loop_
_space_group_symop_operation_xyz
x,y,z
-x,-y,z
x,-y,-z
-x,y,-z
-x,-y,-z
x,y,-z
-x,y,z
x,-y,z
1/2+x,1/2+y,1/2+z
1/2-x,1/2-y,1/2+z
1/2+x,1/2-y,1/2-z
1/2-x,1/2+y,1/2-z
1/2-x,1/2-y,1/2-z
1/2+x,1/2+y,1/2-z
1/2-x,1/2+y,1/2+z
1/2+x,1/2-y,1/2+z
loop_
_atom_site_type_symbol
_atom_site_label
_atom_site_fract_x
_atom_site_fract_y
_atom_site_fract_z
Si Si1 0.811898 0.396363 0.879431
Si Si2 0.899675 0.753420 0.943142
Si Si3 0.224654 0.889083 0.106565
Si Si4 0.696715 0.687178 0.210972
Si Si5 0.600131 0.392867 0.301635
Si Si6 0.137061 0.103980 0.440810
Si Si7 0.901291 0.279175 0.623612
O O1 0.853265 0.500000 0.871781
O O2 0.887159 0.324446 0.898769
O O3 0.765215 0.366295 0.826472
O O4 0.741049 0.395541 0.925459
O O5 0.830763 0.840300 0.938701
O O6 0.000000 0.793614 0.935915
O O7 0.887956 0.710433 0.000000
O O8 0.174393 0.852883 0.158351
O O9 0.327031 0.851888 0.103101
O O10 0.226057 0.000000 0.099942
O O11 0.750000 0.750000 0.250000
O O12 0.637208 0.615489 0.244143
O O13 0.626494 0.751025 0.180520
O O14 0.500000 0.345670 0.307148
O O15 0.588675 0.500000 0.315436
O O16 0.126961 0.127271 0.500000
O O17 0.087492 0.185328 0.409998
O O18 0.096638 0.000000 0.428736
O O19 0.000000 0.327704 0.624713
#
# Coordination Sequence:
#
# PCOD8291024 Si02
#       7
#    16  16  16  16  16  16  16
#     4  10  20  35  59  91 128 163 197 241 296 361
#     4  11  23  40  64  92 121 157 203 251 305 369
#     4  11  23  42  63  84 118 158 203 260 313 360
#     4  11  19  36  59  86 120 162 199 245 292 348
#     4  10  20  35  59  88 116 150 194 243 299 359
#     4   9  18  35  61  90 121 157 192 231 288 357
#     4  11  23  38  59  89 121 157 200 247 299 357
#
# _framework density 20.121437
#
# number of rings (size 3 to 8) (size 9 to 14) (size 15 to 20)
#    0.000    1.571    4.286    1.714    0.000    3.714 
#    0.000    2.857    0.000    0.000    0.000    2.000 
#    0.000    0.000    0.000    0.000    0.000    0.000 
#
# Total GULP energy -694012.137811 kJ/mol
# GULP energy per Si atom -12393.073889 kJ/mol
# Density = 2.007564 g / cm^3
# Si number density = 20.121437 Si / 1000 Ang^3
#
#
#
# Elastic Constant Matrix: (Units=GPa)
#
#
# Indices 1 2 3 4 5 6 
#
# 1 142.9706 49.8180 49.2222 0.0000 0.0000 0.0000
# 2 49.8180 109.5400 35.5925 0.0000 0.0000 0.0000
# 3 49.2222 35.5925 97.5768 0.0000 0.0000 0.0000
# 4 0.0000 0.0000 0.0000 28.2022 0.0000 0.0000
# 5 0.0000 0.0000 0.0000 0.0000 19.1145 0.0000
# 6 0.0000 0.0000 0.0000 0.0000 0.0000 8.8786
#
#
#
# Elastic Compliance Matrix: (Units=1/GPa)
#
#
# Indices 1 2 3 4 5 6 
#
# 1 0.009291 -0.003066 -0.003569 0.000000 0.000000 0.000000
# 2 -0.003066 0.011368 -0.002600 0.000000 0.000000 0.000000
# 3 -0.003569 -0.002600 0.012997 0.000000 0.000000 0.000000
# 4 0.000000 0.000000 0.000000 0.035458 0.000000 0.000000
# 5 0.000000 0.000000 0.000000 0.000000 0.052316 0.000000
# 6 0.000000 0.000000 0.000000 0.000000 0.000000 0.112631
#
#
# Mechanical properties :
#
#
# Convention : Reuss Voigt Hill
#
# Bulk Modulus (GPa) = 65.84539 68.81697 67.33118
# Shear Modulus (GPa) = 19.41041 25.60271 22.50656
#
# Velocity S-wave (km/s) = 3.10927 3.57095 3.34808
# Velocity P-wave (km/s) = 6.75908 7.16082 6.96285
#
# Compressibility (1/GPa) = 0.01518709
#
# Stress axis : x y z
#
# Youngs Moduli (GPa) = 107.62579 87.96324 76.94129
#
# Poissons Ratio (x) = 0.26971 0.27457
# Poissons Ratio (y) = 0.33000 0.20005
# Poissons Ratio (z) = 0.38407 0.22871
#
# Static dielectric constant tensor:
#      x y z
#    x 3.609040 0.000000 0.000000 
#    y 0.000000 3.712390 0.000000 
#    z 0.000000 0.000000 3.746750 
# 
# 
# High freq. dielectric constant tensor:
#      x y z
#    x 1.783260 0.000000 0.000000 
#    y 0.000000 1.771050 0.000000 
#    z 0.000000 0.000000 1.787560 
# 
# From -- ./inp_files/59926.got.cif
#   From: 2010.06.25/outbox.cif.g09.slc.cpg/sg71_30_cif.got.tgz:59926.got - 2010.06.28 04:59:45.
