data_PCOD8291261
_publ_section_title
;
Structure prediction by ZEFSAII (Michael W. Deem and Ramdas Pophale) SiO2 
 PCOD8291261
Probable space group: I M M M
;
_chemical_formula_sum "Si O2"
_cell_formula_units_Z 104
_cell_length_a 21.549913
_cell_length_b 29.453968
_cell_length_c 8.047846
_cell_angle_alpha 90.000000
_cell_angle_beta 90.000000
_cell_angle_gamma 90.000000
_cell_volume 5108.212896
_symmetry_space_group_name_H-M "I M M M"
_symmetry_group_IT_number 71
_symmetry_cell_setting 'orthorhombic'
loop_
_space_group_symop_operation_xyz
x,y,z
-x,-y,z
x,-y,-z
-x,y,-z
-x,-y,-z
x,y,-z
-x,y,z
x,-y,z
1/2+x,1/2+y,1/2+z
1/2-x,1/2-y,1/2+z
1/2+x,1/2-y,1/2-z
1/2-x,1/2+y,1/2-z
1/2-x,1/2-y,1/2-z
1/2+x,1/2+y,1/2-z
1/2-x,1/2+y,1/2+z
1/2+x,1/2-y,1/2+z
loop_
_atom_site_type_symbol
_atom_site_label
_atom_site_fract_x
_atom_site_fract_y
_atom_site_fract_z
Si Si1 0.568367 0.053593 0.500000
Si Si2 0.870030 0.862154 0.688247
Si Si3 0.149446 0.447685 0.687529
Si Si4 0.928318 0.050523 0.191959
Si Si5 0.812575 0.274606 0.194619
Si Si6 0.431506 0.276432 0.691499
Si Si7 0.268637 0.128801 0.695671
O O1 0.500000 0.075742 0.500000
O O2 0.601675 0.069425 0.670328
O O3 0.563132 0.000000 0.500000
O O4 0.872088 0.844880 0.500000
O O5 0.891427 0.914135 0.696118
O O6 0.915006 0.829706 0.793320
O O7 0.800229 0.859074 0.757469
O O8 0.121546 0.442892 0.500000
O O9 0.168901 0.500000 0.719901
O O10 0.209268 0.415550 0.703950
O O11 0.000000 0.053101 0.239923
O O12 0.902913 0.000000 0.230077
O O13 0.918234 0.062779 0.000000
O O14 0.750000 0.250000 0.250000
O O15 0.875387 0.252903 0.275586
O O16 0.811344 0.327873 0.241134
O O17 0.816400 0.267709 0.000000
O O18 0.436580 0.263502 0.500000
O O19 0.500000 0.267209 0.773008
O O20 0.269589 0.117805 0.500000
#
# Coordination Sequence:
#
# PCOD8291261 Si02
#       7
#     8  16  16  16  16  16  16
#     4   9  18  36  62  88 120 162 199 245 307 359
#     4  11  22  34  53  82 112 146 190 238 291 349
#     4  10  21  37  60  91 124 161 205 250 300 363
#     4   9  19  36  54  72 102 145 189 234 284 340
#     4  10  20  37  60  83 114 150 195 242 294 357
#     4  10  21  37  58  84 113 148 192 240 290 349
#     4  10  21  37  56  81 118 156 197 243 301 361
#
# _framework density 20.359369999999998
#
# number of rings (size 3 to 8) (size 9 to 14) (size 15 to 20)
#    0.000    2.077    2.308    1.385    0.000    5.538 
#    0.000    6.154    0.000    0.000    0.000    0.000 
#    0.000    0.000    0.000    0.000    0.000    0.000 
#
# Total GULP energy -644600.363732 kJ/mol
# GULP energy per Si atom -12396.160841 kJ/mol
# Density = 2.031303 g / cm^3
# Si number density = 20.359370 Si / 1000 Ang^3
#
#
#
# Elastic Constant Matrix: (Units=GPa)
#
#
# Indices 1 2 3 4 5 6 
#
# 1 152.5145 60.5927 33.1117 0.0000 0.0000 0.0000
# 2 60.5927 108.6507 20.7082 0.0000 0.0000 0.0000
# 3 33.1117 20.7082 63.6808 0.0000 0.0000 0.0000
# 4 0.0000 0.0000 0.0000 21.4227 0.0000 0.0000
# 5 0.0000 0.0000 0.0000 0.0000 21.2110 0.0000
# 6 0.0000 0.0000 0.0000 0.0000 0.0000 34.4528
#
#
#
# Elastic Compliance Matrix: (Units=1/GPa)
#
#
# Indices 1 2 3 4 5 6 
#
# 1 0.009014 -0.004407 -0.003254 0.000000 0.000000 0.000000
# 2 -0.004407 0.011966 -0.001600 0.000000 0.000000 0.000000
# 3 -0.003254 -0.001600 0.017916 0.000000 0.000000 0.000000
# 4 0.000000 0.000000 0.000000 0.046679 0.000000 0.000000
# 5 0.000000 0.000000 0.000000 0.000000 0.047145 0.000000
# 6 0.000000 0.000000 0.000000 0.000000 0.000000 0.029025
#
#
# Mechanical properties :
#
#
# Convention : Reuss Voigt Hill
#
# Bulk Modulus (GPa) = 49.08077 61.51903 55.29990
# Shear Modulus (GPa) = 26.72961 29.44620 28.08791
#
# Velocity S-wave (km/s) = 3.62731 3.80718 3.71833
# Velocity P-wave (km/s) = 6.45777 7.04332 6.75689
#
# Compressibility (1/GPa) = 0.02037458
#
# Stress axis : x y z
#
# Youngs Moduli (GPa) = 110.93895 83.56785 55.81754
#
# Poissons Ratio (x) = 0.36826 0.18163
# Poissons Ratio (y) = 0.48888 0.08930
# Poissons Ratio (z) = 0.36099 0.13370
#
# Static dielectric constant tensor:
#      x y z
#    x 3.308980 0.000000 0.000000 
#    y 0.000000 4.184570 0.000000 
#    z 0.000000 0.000000 3.533220 
# 
# 
# High freq. dielectric constant tensor:
#      x y z
#    x 1.788130 0.000000 0.000000 
#    y 0.000000 1.791730 0.000000 
#    z 0.000000 0.000000 1.782560 
# 
# From -- ./inp_files/11492.got.cif
#   From: 2010.06.25/outbox.cif.g09.slc.cpg/sg71_6_cif.got.tgz:11492.got - 2010.06.28 04:59:45.
