data_PCOD8291959
_publ_section_title
;
Structure prediction by ZEFSAII (Michael W. Deem and Ramdas Pophale) SiO2 
 PCOD8291959
Probable space group: I M M M
;
_chemical_formula_sum "Si O2"
_cell_formula_units_Z 112
_cell_length_a 24.947230
_cell_length_b 14.085285
_cell_length_c 14.430616
_cell_angle_alpha 90.000000
_cell_angle_beta 90.000000
_cell_angle_gamma 90.000000
_cell_volume 5070.757482
_symmetry_space_group_name_H-M "I M M M"
_symmetry_group_IT_number 71
_symmetry_cell_setting 'orthorhombic'
loop_
_space_group_symop_operation_xyz
x,y,z
-x,-y,z
x,-y,-z
-x,y,-z
-x,-y,-z
x,y,-z
-x,y,z
x,-y,z
1/2+x,1/2+y,1/2+z
1/2-x,1/2-y,1/2+z
1/2+x,1/2-y,1/2-z
1/2-x,1/2+y,1/2-z
1/2-x,1/2-y,1/2-z
1/2+x,1/2+y,1/2-z
1/2-x,1/2+y,1/2+z
1/2+x,1/2-y,1/2+z
loop_
_atom_site_type_symbol
_atom_site_label
_atom_site_fract_x
_atom_site_fract_y
_atom_site_fract_z
Si Si1 0.441594 0.108573 0.772696
Si Si2 0.060151 0.887508 0.397241
Si Si3 0.256367 0.388179 0.720808
Si Si4 0.156450 0.613380 0.603988
Si Si5 0.877232 0.112444 0.216042
Si Si6 0.197393 0.391492 0.101384
Si Si7 0.911416 0.278205 0.103738
O O1 0.500000 0.116855 0.822230
O O2 0.394976 0.152047 0.838232
O O3 0.447201 0.163285 0.675451
O O4 0.427617 0.000000 0.750108
O O5 0.078342 0.851311 0.500000
O O6 0.101266 0.854257 0.317250
O O7 0.000000 0.849433 0.374801
O O8 0.058819 0.000000 0.398289
O O9 0.257725 0.500000 0.713808
O O10 0.212186 0.348801 0.648362
O O11 0.316144 0.351390 0.703344
O O12 0.240255 0.354880 0.823951
O O13 0.152586 0.653543 0.500000
O O14 0.155204 0.500000 0.603551
O O15 0.909518 0.168139 0.136378
O O16 0.884454 0.000000 0.200715
O O17 0.179606 0.500000 0.124389
O O18 0.146821 0.324238 0.105635
O O19 0.224560 0.386455 0.000000
O O20 0.935951 0.281797 0.000000
#
# Coordination Sequence:
#
# PCOD8291959 Si02
#       7
#    16  16  16  16  16  16  16
#     4  10  21  39  63  89 117 148 189 246 304 358
#     4   8  15  32  59  85 108 141 189 244 300 351
#     4   9  17  32  55  83 117 156 197 239 283 337
#     4   9  17  32  56  85 119 160 198 231 280 346
#     4  10  22  37  57  87 121 159 202 245 287 340
#     4   9  17  32  56  82 110 148 192 241 297 350
#     4  11  23  38  57  82 114 153 196 243 293 348
#
# _framework density 22.087430000000001
#
# number of rings (size 3 to 8) (size 9 to 14) (size 15 to 20)
#    0.000    2.571    1.429    0.857    0.000    4.000 
#    0.000    7.143    0.000    0.000    0.000    3.000 
#    0.000    0.000    0.000    0.000    0.000    0.000 
#
# Total GULP energy -694003.017290 kJ/mol
# GULP energy per Si atom -12392.911023 kJ/mol
# Density = 2.203716 g / cm^3
# Si number density = 22.087430 Si / 1000 Ang^3
#
#
#
# Elastic Constant Matrix: (Units=GPa)
#
#
# Indices 1 2 3 4 5 6 
#
# 1 121.5119 11.5352 62.0532 0.0000 0.0000 0.0000
# 2 11.5352 51.8259 28.1762 0.0000 0.0000 0.0000
# 3 62.0532 28.1762 162.1819 0.0000 0.0000 0.0000
# 4 0.0000 0.0000 0.0000 25.2157 0.0000 0.0000
# 5 0.0000 0.0000 0.0000 0.0000 14.6780 0.0000
# 6 0.0000 0.0000 0.0000 0.0000 0.0000 2.8391
#
#
#
# Elastic Compliance Matrix: (Units=1/GPa)
#
#
# Indices 1 2 3 4 5 6 
#
# 1 0.010229 -0.000164 -0.003885 0.000000 0.000000 0.000000
# 2 -0.000164 0.021311 -0.003639 0.000000 0.000000 0.000000
# 3 -0.003885 -0.003639 0.008285 0.000000 0.000000 0.000000
# 4 0.000000 0.000000 0.000000 0.039658 0.000000 0.000000
# 5 0.000000 0.000000 0.000000 0.000000 0.068129 0.000000
# 6 0.000000 0.000000 0.000000 0.000000 0.000000 0.352220
#
#
# Mechanical properties :
#
#
# Convention : Reuss Voigt Hill
#
# Bulk Modulus (GPa) = 40.90587 59.89431 50.40009
# Shear Modulus (GPa) = 9.55367 24.13023 16.84195
#
# Velocity S-wave (km/s) = 2.08201 3.30887 2.76436
# Velocity P-wave (km/s) = 4.93355 6.46327 5.74951
#
# Compressibility (1/GPa) = 0.02444637
#
# Stress axis : x y z
#
# Youngs Moduli (GPa) = 97.75722 46.92494 120.70309
#
# Poissons Ratio (x) = 0.00772 0.46897
# Poissons Ratio (y) = 0.01608 0.43929
# Poissons Ratio (z) = 0.37982 0.17078
#
# Static dielectric constant tensor:
#      x y z
#    x 4.038920 0.000000 0.000000 
#    y 0.000000 3.669640 0.000000 
#    z 0.000000 0.000000 4.315240 
# 
# 
# High freq. dielectric constant tensor:
#      x y z
#    x 1.856790 0.000000 0.000000 
#    y 0.000000 1.856460 0.000000 
#    z 0.000000 0.000000 1.865240 
# 
# From -- ./inp_files/39291.got.cif
#   From: 2010.06.25/outbox.cif.g09.slc.cpg/sg71_20_cif.got.tgz:39291.got - 2010.06.28 04:59:45.
