data_PCOD8291253
_publ_section_title
;
Structure prediction by ZEFSAII (Michael W. Deem and Ramdas Pophale) SiO2 
 PCOD8291253
Probable space group: I M M M
;
_chemical_formula_sum "Si O2"
_cell_formula_units_Z 72
_cell_length_a 8.789010
_cell_length_b 16.189454
_cell_length_c 24.663605
_cell_angle_alpha 90.000000
_cell_angle_beta 90.000000
_cell_angle_gamma 90.000000
_cell_volume 3509.366427
_symmetry_space_group_name_H-M "I M M M"
_symmetry_group_IT_number 71
_symmetry_cell_setting 'orthorhombic'
loop_
_space_group_symop_operation_xyz
x,y,z
-x,-y,z
x,-y,-z
-x,y,-z
-x,-y,-z
x,y,-z
-x,y,z
x,-y,z
1/2+x,1/2+y,1/2+z
1/2-x,1/2-y,1/2+z
1/2+x,1/2-y,1/2-z
1/2-x,1/2+y,1/2-z
1/2-x,1/2-y,1/2-z
1/2+x,1/2+y,1/2-z
1/2-x,1/2+y,1/2+z
1/2+x,1/2-y,1/2+z
loop_
_atom_site_type_symbol
_atom_site_label
_atom_site_fract_x
_atom_site_fract_y
_atom_site_fract_z
Si Si1 0.180026 0.331750 0.777222
Si Si2 0.169125 0.647060 0.439167
Si Si3 0.178132 0.500000 0.723392
Si Si4 0.326984 0.500000 0.389933
Si Si5 0.680085 0.594505 0.000000
Si Si6 0.825173 0.179938 0.608720
O O1 0.250000 0.250000 0.750000
O O2 0.244507 0.415209 0.748900
O O3 0.223857 0.342680 0.839870
O O4 0.000000 0.324202 0.771093
O O5 0.193316 0.680870 0.500000
O O6 0.296276 0.579716 0.426561
O O7 0.186254 0.721950 0.397756
O O8 0.000000 0.608142 0.433302
O O9 0.214332 0.500000 0.660344
O O10 0.000000 0.500000 0.732961
O O11 0.500000 0.500000 0.369898
O O12 0.743896 0.635907 0.055099
O O13 0.731273 0.500000 0.000000
O O14 0.500000 0.606817 0.000000
O O15 0.000000 0.152508 0.618561
#
# Coordination Sequence:
#
# PCOD8291253 Si02
#       6
#    16  16   8   8   8  16
#     4  11  24  42  63  89 120 157 201 248 300 356
#     4  10  20  37  59  83 116 159 199 229 275 348
#     4  10  24  45  63  81 115 161 201 237 292 365
#     4  12  25  37  56  87 117 145 192 251 299 339
#     4   9  18  34  59  92 123 152 190 237 287 341
#     4  10  20  37  62  91 121 155 196 240 287 345
#
# _framework density 20.516524
#
# number of rings (size 3 to 8) (size 9 to 14) (size 15 to 20)
#    0.000    1.667    1.111    3.333    1.556    9.778 
#    0.000    0.556    0.000    0.667    0.000    0.000 
#    0.000    0.000    0.000    0.000    0.000    0.000 
#
# Total GULP energy -446438.822452 kJ/mol
# GULP energy per Si atom -12401.078401 kJ/mol
# Density = 2.046983 g / cm^3
# Si number density = 20.516524 Si / 1000 Ang^3
#
#
#
# Elastic Constant Matrix: (Units=GPa)
#
#
# Indices 1 2 3 4 5 6 
#
# 1 46.4671 31.7108 20.7022 0.0000 0.0000 0.0000
# 2 31.7108 123.6355 39.3782 0.0001 0.0000 0.0000
# 3 20.7022 39.3782 110.0974 0.0000 0.0000 0.0000
# 4 0.0000 0.0001 0.0000 -127.9588 0.0000 0.0000
# 5 0.0000 0.0000 0.0000 0.0000 35.0276 0.0000
# 6 0.0000 0.0000 0.0000 0.0000 0.0000 16.6210
#
#
#
# Elastic Compliance Matrix: (Units=1/GPa)
#
#
# Indices 1 2 3 4 5 6 
#
# 1 0.026895 -0.005967 -0.002923 0.000000 0.000000 0.000000
# 2 -0.005967 0.010452 -0.002616 0.000000 0.000000 0.000000
# 3 -0.002923 -0.002616 0.010568 0.000000 0.000000 0.000000
# 4 0.000000 0.000000 0.000000 -0.007815 0.000000 0.000000
# 5 0.000000 0.000000 0.000000 0.000000 0.028549 0.000000
# 6 0.000000 0.000000 0.000000 0.000000 0.000000 0.060165
#
#
# Mechanical properties :
#
#
# Convention : Reuss Voigt Hill
#
# Bulk Modulus (GPa) = 40.15672 51.53138 45.84405
# Shear Modulus (GPa) = 31.22498 -2.70147 14.26175
#
# Velocity S-wave (km/s) = 3.90544 -1.14873 2.63940
# Velocity P-wave (km/s) = 6.32076 4.83860 5.62868
#
# Compressibility (1/GPa) = 0.02490243
#
# Stress axis : x y z
#
# Youngs Moduli (GPa) = 37.18148 95.67432 94.62302
#
# Poissons Ratio (x) = 0.57091 0.27658
# Poissons Ratio (y) = 0.22187 0.24756
# Poissons Ratio (z) = 0.10868 0.25031
#
# Static dielectric constant tensor:
#      x y z
#    x 3.400010 0.000000 0.000000 
#    y 0.000000 3.872120 0.000000 
#    z 0.000000 0.000000 3.743860 
# 
# 
# High freq. dielectric constant tensor:
#      x y z
#    x 1.770970 0.000000 0.000000 
#    y 0.000000 1.812220 0.000000 
#    z 0.000000 0.000000 1.815890 
# 
# From -- ./inp_files/62879.got.cif
#   From: 2010.06.25/outbox.cif.g09.slc.cpg/sg71_32_cif.got.tgz:62879.got - 2010.06.28 04:59:45.
