data_PCOD8291690
_publ_section_title
;
Structure prediction by ZEFSAII (Michael W. Deem and Ramdas Pophale) SiO2 
 PCOD8291690
Probable space group: I M M M
;
_chemical_formula_sum "Si O2"
_cell_formula_units_Z 88
_cell_length_a 28.624442
_cell_length_b 19.137775
_cell_length_c 7.895913
_cell_angle_alpha 90.000000
_cell_angle_beta 90.000000
_cell_angle_gamma 90.000000
_cell_volume 4325.445339
_symmetry_space_group_name_H-M "I M M M"
_symmetry_group_IT_number 71
_symmetry_cell_setting 'orthorhombic'
loop_
_space_group_symop_operation_xyz
x,y,z
-x,-y,z
x,-y,-z
-x,y,-z
-x,-y,-z
x,y,-z
-x,y,z
x,-y,z
1/2+x,1/2+y,1/2+z
1/2-x,1/2-y,1/2+z
1/2+x,1/2-y,1/2-z
1/2-x,1/2+y,1/2-z
1/2-x,1/2-y,1/2-z
1/2+x,1/2+y,1/2-z
1/2-x,1/2+y,1/2+z
1/2+x,1/2-y,1/2+z
loop_
_atom_site_type_symbol
_atom_site_label
_atom_site_fract_x
_atom_site_fract_y
_atom_site_fract_z
Si Si1 0.444847 0.580123 0.500000
Si Si2 0.694503 0.421059 0.307360
Si Si3 0.230281 0.323579 0.807660
Si Si4 0.052060 0.578078 0.701206
Si Si5 0.605829 0.346888 0.192245
Si Si6 0.373577 0.188906 0.800964
O O1 0.427758 0.500000 0.500000
O O2 0.500000 0.586099 0.500000
O O3 0.427152 0.615305 0.327080
O O4 0.676289 0.419591 0.500000
O O5 0.698800 0.500000 0.240236
O O6 0.745238 0.385063 0.298687
O O7 0.657702 0.378948 0.194113
O O8 0.250000 0.250000 0.750000
O O9 0.174929 0.327251 0.789288
O O10 0.244458 0.335709 0.000000
O O11 0.051840 0.581862 0.500000
O O12 0.066426 0.500000 0.760740
O O13 0.088718 0.634175 0.773513
O O14 0.000000 0.596014 0.768926
O O15 0.608359 0.265903 0.244090
O O16 0.586084 0.355503 0.000000
O O17 0.365972 0.180204 0.000000
#
# Coordination Sequence:
#
# PCOD8291690 Si02
#       6
#     8  16  16  16  16  16
#     4  11  26  46  66  92 127 165 211 267 321 379
#     4  11  23  40  63  89 120 160 208 260 314 375
#     4  12  24  38  58  85 121 161 202 251 308 370
#     4   8  15  31  57  87 119 156 199 248 300 359
#     4  11  23  40  65  94 126 165 208 259 318 379
#     4  10  21  36  59  91 124 161 204 254 312 371
#
# _framework density 20.344726000000001
#
# number of rings (size 3 to 8) (size 9 to 14) (size 15 to 20)
#    0.000    1.545    2.727    3.273    1.273    4.364 
#    0.000    4.545    0.000    0.000    0.000    1.273 
#    0.000    0.000    0.000    0.000    0.000    0.000 
#
# Total GULP energy -545688.274822 kJ/mol
# GULP energy per Si atom -12402.006246 kJ/mol
# Density = 2.029842 g / cm^3
# Si number density = 20.344726 Si / 1000 Ang^3
#
#
#
# Elastic Constant Matrix: (Units=GPa)
#
#
# Indices 1 2 3 4 5 6 
#
# 1 125.1940 83.6720 28.1803 0.0000 0.0000 0.0000
# 2 83.6720 180.5506 35.1502 0.0000 0.0000 0.0000
# 3 28.1803 35.1502 72.1335 0.0000 0.0000 0.0000
# 4 0.0000 0.0000 0.0000 24.4196 0.0000 0.0000
# 5 0.0000 0.0000 0.0000 0.0000 24.1722 0.0000
# 6 0.0000 0.0000 0.0000 0.0000 0.0000 44.1448
#
#
#
# Elastic Compliance Matrix: (Units=1/GPa)
#
#
# Indices 1 2 3 4 5 6 
#
# 1 0.011869 -0.005080 -0.002162 0.000000 0.000000 0.000000
# 2 -0.005080 0.008293 -0.002057 0.000000 0.000000 0.000000
# 3 -0.002162 -0.002057 0.015710 0.000000 0.000000 0.000000
# 4 0.000000 0.000000 0.000000 0.040951 0.000000 0.000000
# 5 0.000000 0.000000 0.000000 0.000000 0.041370 0.000000
# 6 0.000000 0.000000 0.000000 0.000000 0.000000 0.022653
#
#
# Mechanical properties :
#
#
# Convention : Reuss Voigt Hill
#
# Bulk Modulus (GPa) = 57.88332 74.65369 66.26850
# Shear Modulus (GPa) = 30.26638 33.93903 32.10271
#
# Velocity S-wave (km/s) = 3.86123 4.08879 3.97664
# Velocity P-wave (km/s) = 6.95642 7.68537 7.32996
#
# Compressibility (1/GPa) = 0.01727613
#
# Stress axis : x y z
#
# Youngs Moduli (GPa) = 84.25262 120.58288 63.65424
#
# Poissons Ratio (x) = 0.61251 0.13760
# Poissons Ratio (y) = 0.42797 0.13092
# Poissons Ratio (z) = 0.18212 0.24800
#
# Static dielectric constant tensor:
#      x y z
#    x 3.844140 0.000000 0.000000 
#    y 0.000000 3.904020 0.000000 
#    z 0.000000 0.000000 3.510380 
# 
# 
# High freq. dielectric constant tensor:
#      x y z
#    x 1.792260 0.000000 0.000000 
#    y 0.000000 1.804040 0.000000 
#    z 0.000000 0.000000 1.787220 
# 
# From -- ./inp_files/16632.got.cif
#   From: 2010.06.25/outbox.cif.g09.slc.cpg/sg71_9_cif.got.tgz:16632.got - 2010.06.28 04:59:45.
