data_PCOD8291485
_publ_section_title
;
Structure prediction by ZEFSAII (Michael W. Deem and Ramdas Pophale) SiO2 
 PCOD8291485
Probable space group: I M M M
;
_chemical_formula_sum "Si O2"
_cell_formula_units_Z 104
_cell_length_a 21.522255
_cell_length_b 9.151123
_cell_length_c 27.342363
_cell_angle_alpha 90.000000
_cell_angle_beta 90.000000
_cell_angle_gamma 90.000000
_cell_volume 5385.155026
_symmetry_space_group_name_H-M "I M M M"
_symmetry_group_IT_number 71
_symmetry_cell_setting 'orthorhombic'
loop_
_space_group_symop_operation_xyz
x,y,z
-x,-y,z
x,-y,-z
-x,y,-z
-x,-y,-z
x,y,-z
-x,y,z
x,-y,z
1/2+x,1/2+y,1/2+z
1/2-x,1/2-y,1/2+z
1/2+x,1/2-y,1/2-z
1/2-x,1/2+y,1/2-z
1/2-x,1/2-y,1/2-z
1/2+x,1/2+y,1/2-z
1/2-x,1/2+y,1/2+z
1/2+x,1/2-y,1/2+z
loop_
_atom_site_type_symbol
_atom_site_label
_atom_site_fract_x
_atom_site_fract_y
_atom_site_fract_z
Si Si1 0.570486 0.334204 0.374139
Si Si2 0.675530 0.330634 0.445177
Si Si3 0.611382 0.662324 0.054254
Si Si4 0.000000 0.337826 0.441286
Si Si5 0.927174 0.673426 0.224512
Si Si6 0.809906 0.825101 0.274171
Si Si7 0.729629 0.337412 0.118528
O O1 0.500000 0.311475 0.389471
O O2 0.583569 0.500000 0.355704
O O3 0.606842 0.301408 0.424368
O O4 0.588562 0.224006 0.330559
O O5 0.682061 0.260320 0.500000
O O6 0.691247 0.500000 0.449519
O O7 0.718252 0.267620 0.402317
O O8 0.583397 0.500000 0.053567
O O9 0.561000 0.763111 0.081329
O O10 0.676554 0.667582 0.079115
O O11 0.622953 0.722721 0.000000
O O12 0.000000 0.500000 0.421754
O O13 0.000000 0.322611 0.500000
O O14 0.916988 0.500000 0.228665
O O15 0.876449 0.755269 0.258665
O O16 0.000000 0.713565 0.237591
O O17 0.750000 0.750000 0.250000
O O18 0.800473 0.786561 0.330880
O O19 0.811031 0.000000 0.264129
O O20 0.757819 0.500000 0.123822
#
# Coordination Sequence:
#
# PCOD8291485 Si02
#       7
#    16  16  16   8  16  16  16
#     4   9  18  34  57  83 112 149 190 229 274 333
#     4  10  21  35  53  81 115 149 185 229 281 333
#     4   9  17  32  53  73  97 132 172 211 253 305
#     4   9  17  29  47  73 101 129 163 203 249 299
#     4  10  21  38  60  86 117 152 191 238 292 349
#     4  11  23  39  60  85 113 147 190 239 290 345
#     4  10  22  38  55  78 105 140 184 227 273 325
#
# _framework density 19.312349999999999
#
# number of rings (size 3 to 8) (size 9 to 14) (size 15 to 20)
#    0.000    2.231    0.000    2.538    0.000    8.000 
#    1.385    3.077    0.000    0.000    0.000    3.231 
#    0.000    0.000    0.000    0.000    0.000    0.000 
#
# Total GULP energy -644361.541928 kJ/mol
# GULP energy per Si atom -12391.568114 kJ/mol
# Density = 1.926839 g / cm^3
# Si number density = 19.312350 Si / 1000 Ang^3
#
#
#
# Elastic Constant Matrix: (Units=GPa)
#
#
# Indices 1 2 3 4 5 6 
#
# 1 104.5978 54.3491 53.4801 0.0000 0.0000 0.0000
# 2 54.3491 89.7780 43.5323 0.0000 0.0000 0.0000
# 3 53.4801 43.5323 94.2984 0.0000 0.0000 0.0000
# 4 0.0000 0.0000 0.0000 25.8115 0.0000 0.0000
# 5 0.0000 0.0000 0.0000 0.0000 24.7752 0.0000
# 6 0.0000 0.0000 0.0000 0.0000 0.0000 30.1039
#
#
#
# Elastic Compliance Matrix: (Units=1/GPa)
#
#
# Indices 1 2 3 4 5 6 
#
# 1 0.016223 -0.006905 -0.006013 0.000000 0.000000 0.000000
# 2 -0.006905 0.017290 -0.004066 0.000000 0.000000 0.000000
# 3 -0.006013 -0.004066 0.015892 0.000000 0.000000 0.000000
# 4 0.000000 0.000000 0.000000 0.038742 0.000000 0.000000
# 5 0.000000 0.000000 0.000000 0.000000 0.040363 0.000000
# 6 0.000000 0.000000 0.000000 0.000000 0.000000 0.033218
#
#
# Mechanical properties :
#
#
# Convention : Reuss Voigt Hill
#
# Bulk Modulus (GPa) = 64.77885 65.71081 65.24483
# Shear Modulus (GPa) = 24.89526 25.29227 25.09377
#
# Velocity S-wave (km/s) = 3.59428 3.62282 3.60858
# Velocity P-wave (km/s) = 7.13026 7.18324 7.15680
#
# Compressibility (1/GPa) = 0.01543714
#
# Stress axis : x y z
#
# Youngs Moduli (GPa) = 61.64211 57.83600 62.92640
#
# Poissons Ratio (x) = 0.39937 0.37836
# Poissons Ratio (y) = 0.42566 0.25584
# Poissons Ratio (z) = 0.37064 0.23514
#
# Static dielectric constant tensor:
#      x y z
#    x 3.746100 0.000000 0.000000 
#    y 0.000000 3.731240 0.000000 
#    z 0.000000 0.000000 3.557130 
# 
# 
# High freq. dielectric constant tensor:
#      x y z
#    x 1.763370 0.000000 0.000000 
#    y 0.000000 1.750020 0.000000 
#    z 0.000000 0.000000 1.740470 
# 
# From -- ./inp_files/14998.got.cif
#   From: 2010.06.25/outbox.cif.g09.slc.cpg/sg71_8_cif.got.tgz:14998.got - 2010.06.28 04:59:45.
