data_PCOD8291076
_publ_section_title
;
Structure prediction by ZEFSAII (Michael W. Deem and Ramdas Pophale) SiO2 
 PCOD8291076
Probable space group: I M M M
;
_chemical_formula_sum "Si O2"
_cell_formula_units_Z 72
_cell_length_a 10.535840
_cell_length_b 23.457764
_cell_length_c 14.487921
_cell_angle_alpha 90.000000
_cell_angle_beta 90.000000
_cell_angle_gamma 90.000000
_cell_volume 3580.649808
_symmetry_space_group_name_H-M "I M M M"
_symmetry_group_IT_number 71
_symmetry_cell_setting 'orthorhombic'
loop_
_space_group_symop_operation_xyz
x,y,z
-x,-y,z
x,-y,-z
-x,y,-z
-x,-y,-z
x,y,-z
-x,y,z
x,-y,z
1/2+x,1/2+y,1/2+z
1/2-x,1/2-y,1/2+z
1/2+x,1/2-y,1/2-z
1/2-x,1/2+y,1/2-z
1/2-x,1/2-y,1/2-z
1/2+x,1/2+y,1/2-z
1/2-x,1/2+y,1/2+z
1/2+x,1/2-y,1/2+z
loop_
_atom_site_type_symbol
_atom_site_label
_atom_site_fract_x
_atom_site_fract_y
_atom_site_fract_z
Si Si1 0.855763 0.740202 0.397283
Si Si2 0.143397 0.370684 0.709191
Si Si3 0.500000 0.564139 0.891362
Si Si4 0.745212 0.635708 0.894929
Si Si5 0.140124 0.067223 0.103401
O O1 0.836236 0.714389 0.500000
O O2 0.815456 0.692784 0.322782
O O3 0.774919 0.796987 0.386428
O O4 0.000000 0.759065 0.382091
O O5 0.145084 0.377219 0.820569
O O6 0.244744 0.413496 0.667077
O O7 0.000000 0.384490 0.675119
O O8 0.500000 0.500000 0.847015
O O9 0.623680 0.599434 0.861491
O O10 0.500000 0.558140 0.000000
O O11 0.785611 0.619388 0.000000
O O12 0.000000 0.086953 0.140795
O O13 0.144182 0.000000 0.100615
O O14 0.158855 0.091626 0.000000
#
# Coordination Sequence:
#
# PCOD8291076 Si02
#       5
#    16  16   8  16  16
#     4   9  17  33  56  81 112 150 194 244 296 348
#     4  11  23  35  54  87 120 155 195 234 290 355
#     4   9  18  34  58  84 103 133 192 252 295 338
#     4  10  20  36  56  79 113 156 197 242 293 342
#     4   9  20  40  63  86 114 149 191 242 294 342
#
# _framework density 20.108083000000001
#
# number of rings (size 3 to 8) (size 9 to 14) (size 15 to 20)
#    0.000    2.333    1.111    2.000    1.556    3.111 
#    0.000    2.222    0.000    1.333    0.000    4.667 
#    0.000    0.000    0.000    0.000    0.000    0.000 
#
# Total GULP energy -446144.804980 kJ/mol
# GULP energy per Si atom -12392.911249 kJ/mol
# Density = 2.006232 g / cm^3
# Si number density = 20.108083 Si / 1000 Ang^3
#
#
#
# Elastic Constant Matrix: (Units=GPa)
#
#
# Indices 1 2 3 4 5 6 
#
# 1 93.9960 29.8518 47.5472 0.0000 0.0000 0.0000
# 2 29.8518 60.6869 25.7539 0.0000 0.0000 0.0000
# 3 47.5472 25.7539 102.3423 0.0001 0.0001 0.0000
# 4 0.0000 0.0000 0.0001 15.6513 0.0000 0.0000
# 5 0.0000 0.0000 0.0001 0.0000 29.2757 0.0000
# 6 0.0000 0.0000 0.0000 0.0000 0.0000 25.6758
#
#
#
# Elastic Compliance Matrix: (Units=1/GPa)
#
#
# Indices 1 2 3 4 5 6 
#
# 1 0.015151 -0.004999 -0.005781 0.000000 0.000000 0.000000
# 2 -0.004999 0.020098 -0.002735 0.000000 0.000000 0.000000
# 3 -0.005781 -0.002735 0.013145 0.000000 0.000000 0.000000
# 4 0.000000 0.000000 0.000000 0.063893 0.000000 0.000000
# 5 0.000000 0.000000 0.000000 0.000000 0.034158 0.000000
# 6 0.000000 0.000000 0.000000 0.000000 0.000000 0.038947
#
#
# Mechanical properties :
#
#
# Convention : Reuss Voigt Hill
#
# Bulk Modulus (GPa) = 46.80883 51.48123 49.14503
# Shear Modulus (GPa) = 22.77464 24.37871 23.57667
#
# Velocity S-wave (km/s) = 3.36908 3.48571 3.42789
# Velocity P-wave (km/s) = 6.20189 6.46978 6.33725
#
# Compressibility (1/GPa) = 0.02136349
#
# Stress axis : x y z
#
# Youngs Moduli (GPa) = 66.00382 49.75672 76.07444
#
# Poissons Ratio (x) = 0.24875 0.43977
# Poissons Ratio (y) = 0.32998 0.20805
# Poissons Ratio (z) = 0.38155 0.13608
#
# Static dielectric constant tensor:
#      x y z
#    x 3.491140 0.000000 0.000000 
#    y 0.000000 3.573880 0.000000 
#    z 0.000000 0.000000 3.840620 
# 
# 
# High freq. dielectric constant tensor:
#      x y z
#    x 1.763560 0.000000 0.000000 
#    y 0.000000 1.772610 0.000000 
#    z 0.000000 0.000000 1.792820 
# 
# From -- ./inp_files/14334.got.cif
#   From: 2010.06.25/outbox.cif.g09.slc.cpg/sg71_8_cif.got.tgz:14334.got - 2010.06.28 04:59:45.
