data_PCOD8291546
_publ_section_title
;
Structure prediction by ZEFSAII (Michael W. Deem and Ramdas Pophale) SiO2 
 PCOD8291546
Probable space group: I M M M
;
_chemical_formula_sum "Si O2"
_cell_formula_units_Z 104
_cell_length_a 16.692447
_cell_length_b 14.583853
_cell_length_c 23.259349
_cell_angle_alpha 90.000000
_cell_angle_beta 90.000000
_cell_angle_gamma 90.000000
_cell_volume 5662.260416
_symmetry_space_group_name_H-M "I M M M"
_symmetry_group_IT_number 71
_symmetry_cell_setting 'orthorhombic'
loop_
_space_group_symop_operation_xyz
x,y,z
-x,-y,z
x,-y,-z
-x,y,-z
-x,-y,-z
x,y,-z
-x,y,z
x,-y,z
1/2+x,1/2+y,1/2+z
1/2-x,1/2-y,1/2+z
1/2+x,1/2-y,1/2-z
1/2-x,1/2+y,1/2-z
1/2-x,1/2-y,1/2-z
1/2+x,1/2+y,1/2-z
1/2-x,1/2+y,1/2+z
1/2+x,1/2-y,1/2+z
loop_
_atom_site_type_symbol
_atom_site_label
_atom_site_fract_x
_atom_site_fract_y
_atom_site_fract_z
Si Si1 0.093547 0.105384 0.214114
Si Si2 0.811476 0.744150 0.141489
Si Si3 0.910778 0.500000 0.568883
Si Si4 0.091979 0.859588 0.435387
Si Si5 0.405380 0.102931 0.564862
Si Si6 0.823526 0.324283 0.564660
Si Si7 0.689233 0.399802 0.174328
O O1 0.140531 0.179357 0.176225
O O2 0.119244 0.120336 0.280053
O O3 0.000000 0.126840 0.208898
O O4 0.111598 0.000000 0.194403
O O5 0.870851 0.678195 0.107359
O O6 0.755998 0.798393 0.097865
O O7 0.756620 0.678560 0.181548
O O8 0.914674 0.500000 0.500000
O O9 0.863196 0.413048 0.593356
O O10 0.000000 0.500000 0.594698
O O11 0.111358 0.896557 0.500000
O O12 0.106787 0.751256 0.433366
O O13 0.151008 0.905535 0.389447
O O14 0.000000 0.880878 0.419692
O O15 0.375559 0.123354 0.500000
O O16 0.500000 0.109529 0.567838
O O17 0.377556 0.000000 0.582767
O O18 0.795863 0.344858 0.500000
O O19 0.727821 0.500000 0.186347
#
# Coordination Sequence:
#
# PCOD8291546 Si02
#       7
#    16  16   8  16  16  16  16
#     4  10  22  39  57  75  99 136 181 223 265 320
#     4  11  20  33  55  79 105 134 177 223 269 308
#     4   9  16  28  46  66  95 137 177 207 247 310
#     4   9  17  30  49  75 107 139 171 207 251 311
#     4   9  18  33  54  81 113 147 179 214 264 325
#     4   9  18  29  45  72 103 134 168 212 264 307
#     4  10  21  36  53  77 106 138 172 214 267 320
#
# _framework density 18.367222999999999
#
# number of rings (size 3 to 8) (size 9 to 14) (size 15 to 20)
#    0.000    2.385    0.000    3.231    1.077    3.692 
#    0.000    0.769    0.000    0.000    0.000    3.231 
#    0.000    0.000    0.000    0.000    0.000    0.000 
#
# Total GULP energy -644541.692759 kJ/mol
# GULP energy per Si atom -12395.032553 kJ/mol
# Density = 1.832542 g / cm^3
# Si number density = 18.367223 Si / 1000 Ang^3
#
#
#
# Elastic Constant Matrix: (Units=GPa)
#
#
# Indices 1 2 3 4 5 6 
#
# 1 94.3185 59.8066 42.1559 0.0000 0.0000 0.0000
# 2 59.8066 134.2670 51.4124 0.0000 0.0000 0.0000
# 3 42.1559 51.4124 77.0208 0.0000 0.0000 0.0000
# 4 0.0000 0.0000 0.0000 17.3050 0.0000 0.0000
# 5 0.0000 0.0000 0.0000 0.0000 25.4284 0.0000
# 6 0.0000 0.0000 0.0000 0.0000 0.0000 28.4099
#
#
#
# Elastic Compliance Matrix: (Units=1/GPa)
#
#
# Indices 1 2 3 4 5 6 
#
# 1 0.016337 -0.005176 -0.005487 0.000000 0.000000 0.000000
# 2 -0.005176 0.011645 -0.004940 0.000000 0.000000 0.000000
# 3 -0.005487 -0.004940 0.019284 0.000000 0.000000 0.000000
# 4 0.000000 0.000000 0.000000 0.057787 0.000000 0.000000
# 5 0.000000 0.000000 0.000000 0.000000 0.039326 0.000000
# 6 0.000000 0.000000 0.000000 0.000000 0.000000 0.035199
#
#
# Mechanical properties :
#
#
# Convention : Reuss Voigt Hill
#
# Bulk Modulus (GPa) = 62.26523 68.03956 65.15239
# Shear Modulus (GPa) = 23.13352 24.37742 23.75547
#
# Velocity S-wave (km/s) = 3.55279 3.64706 3.60024
# Velocity P-wave (km/s) = 7.12766 7.40670 7.26852
#
# Compressibility (1/GPa) = 0.01606033
#
# Stress axis : x y z
#
# Youngs Moduli (GPa) = 61.21212 85.87320 51.85612
#
# Poissons Ratio (x) = 0.44448 0.28451
# Poissons Ratio (y) = 0.31683 0.25618
# Poissons Ratio (z) = 0.33584 0.42424
#
# Static dielectric constant tensor:
#      x y z
#    x 3.299770 0.000000 0.000000 
#    y 0.000000 3.571370 0.000000 
#    z 0.000000 0.000000 3.266470 
# 
# 
# High freq. dielectric constant tensor:
#      x y z
#    x 1.710930 0.000000 0.000000 
#    y 0.000000 1.725450 0.000000 
#    z 0.000000 0.000000 1.690910 
# 
# From -- ./inp_files/59915.got.cif
#   From: 2010.06.25/outbox.cif.g09.slc.cpg/sg71_30_cif.got.tgz:59915.got - 2010.06.28 04:59:45.
