data_PCOD8291907
_publ_section_title
;
Structure prediction by ZEFSAII (Michael W. Deem and Ramdas Pophale) SiO2 
 PCOD8291907
Probable space group: I M M M
;
_chemical_formula_sum "Si O2"
_cell_formula_units_Z 88
_cell_length_a 19.780046
_cell_length_b 15.388058
_cell_length_c 13.981611
_cell_angle_alpha 90.000000
_cell_angle_beta 90.000000
_cell_angle_gamma 90.000000
_cell_volume 4255.673752
_symmetry_space_group_name_H-M "I M M M"
_symmetry_group_IT_number 71
_symmetry_cell_setting 'orthorhombic'
loop_
_space_group_symop_operation_xyz
x,y,z
-x,-y,z
x,-y,-z
-x,y,-z
-x,-y,-z
x,y,-z
-x,y,z
x,-y,z
1/2+x,1/2+y,1/2+z
1/2-x,1/2-y,1/2+z
1/2+x,1/2-y,1/2-z
1/2-x,1/2+y,1/2-z
1/2-x,1/2-y,1/2-z
1/2+x,1/2+y,1/2-z
1/2-x,1/2+y,1/2+z
1/2+x,1/2-y,1/2+z
loop_
_atom_site_type_symbol
_atom_site_label
_atom_site_fract_x
_atom_site_fract_y
_atom_site_fract_z
Si Si1 0.124743 0.399834 0.760347
Si Si2 0.796654 0.698457 0.107353
Si Si3 0.423122 0.403400 0.801150
Si Si4 0.424618 0.679970 0.393503
Si Si5 0.150367 0.741492 0.389736
Si Si6 0.500000 0.898014 0.607442
O O1 0.120965 0.500000 0.728072
O O2 0.195138 0.381195 0.817596
O O3 0.118765 0.339835 0.666518
O O4 0.065822 0.371408 0.832885
O O5 0.863232 0.755362 0.125005
O O6 0.730786 0.755857 0.129285
O O7 0.793258 0.660855 0.000000
O O8 0.500000 0.391196 0.835604
O O9 0.397081 0.500000 0.827474
O O10 0.418601 0.394489 0.686059
O O11 0.378665 0.333431 0.856391
O O12 0.418281 0.638940 0.500000
O O13 0.500000 0.725810 0.383155
O O14 0.132805 0.726428 0.500000
O O15 0.500000 0.855096 0.500000
O O16 0.500000 0.000000 0.592915
#
# Coordination Sequence:
#
# PCOD8291907 Si02
#       6
#    16  16  16  16  16   8
#     4  11  23  39  63  93 126 164 203 250 312 380
#     4  10  21  38  61  91 124 159 204 252 306 372
#     4  10  22  40  63  90 118 154 207 263 314 368
#     4   9  18  34  61  93 124 157 191 240 311 383
#     4  11  25  43  61  85 124 168 214 264 306 360
#     4   9  20  38  61  95 130 155 195 257 317 377
#
# _framework density 20.678277000000001
#
# number of rings (size 3 to 8) (size 9 to 14) (size 15 to 20)
#    0.000    1.909    1.818    1.091    2.545    3.273 
#    0.000    4.545    0.000    4.909    0.000    0.000 
#    0.000    0.000    0.000    0.000    0.000    0.000 
#
# Total GULP energy -545394.676094 kJ/mol
# GULP energy per Si atom -12395.333548 kJ/mol
# Density = 2.063121 g / cm^3
# Si number density = 20.678277 Si / 1000 Ang^3
#
#
#
# Elastic Constant Matrix: (Units=GPa)
#
#
# Indices 1 2 3 4 5 6 
#
# 1 87.6679 53.5626 55.9088 0.0000 0.0000 0.0000
# 2 53.5626 125.0226 72.2181 0.0000 0.0000 0.0000
# 3 55.9088 72.2181 143.7902 0.0000 0.0000 0.0000
# 4 0.0000 0.0000 0.0000 23.6354 0.0000 0.0000
# 5 0.0000 0.0000 0.0000 0.0000 44.3997 0.0000
# 6 0.0000 0.0000 0.0000 0.0000 0.0000 21.8045
#
#
#
# Elastic Compliance Matrix: (Units=1/GPa)
#
#
# Indices 1 2 3 4 5 6 
#
# 1 0.017061 -0.004899 -0.004173 0.000000 0.000000 0.000000
# 2 -0.004899 0.012674 -0.004461 0.000000 0.000000 0.000000
# 3 -0.004173 -0.004461 0.010818 0.000000 0.000000 0.000000
# 4 0.000000 0.000000 0.000000 0.042309 0.000000 0.000000
# 5 0.000000 0.000000 0.000000 0.000000 0.022523 0.000000
# 6 0.000000 0.000000 0.000000 0.000000 0.000000 0.045862
#
#
# Mechanical properties :
#
#
# Convention : Reuss Voigt Hill
#
# Bulk Modulus (GPa) = 74.14460 79.98442 77.06451
# Shear Modulus (GPa) = 27.35106 29.62068 28.48587
#
# Velocity S-wave (km/s) = 3.64083 3.78888 3.71560
# Velocity P-wave (km/s) = 7.32177 7.60955 7.46705
#
# Compressibility (1/GPa) = 0.01348716
#
# Stress axis : x y z
#
# Youngs Moduli (GPa) = 58.61264 78.90199 92.44117
#
# Poissons Ratio (x) = 0.38651 0.38580
# Poissons Ratio (y) = 0.28712 0.41236
# Poissons Ratio (z) = 0.24462 0.35196
#
# Static dielectric constant tensor:
#      x y z
#    x 3.884510 0.000000 0.000000 
#    y 0.000000 3.514830 0.000000 
#    z 0.000000 0.000000 3.859510 
# 
# 
# High freq. dielectric constant tensor:
#      x y z
#    x 1.811840 0.000000 0.000000 
#    y 0.000000 1.792340 0.000000 
#    z 0.000000 0.000000 1.815050 
# 
# From -- ./inp_files/37743.got.cif
#   From: 2010.06.25/outbox.cif.g09.slc.cpg/sg71_19_cif.got.tgz:37743.got - 2010.06.28 04:59:45.
