data_PCOD8291953
_publ_section_title
;
Structure prediction by ZEFSAII (Michael W. Deem and Ramdas Pophale) SiO2 
 PCOD8291953
Probable space group: I M M M
;
_chemical_formula_sum "Si O2"
_cell_formula_units_Z 72
_cell_length_a 30.355416
_cell_length_b 7.922272
_cell_length_c 14.888834
_cell_angle_alpha 90.000000
_cell_angle_beta 90.000000
_cell_angle_gamma 90.000000
_cell_volume 3580.524304
_symmetry_space_group_name_H-M "I M M M"
_symmetry_group_IT_number 71
_symmetry_cell_setting 'orthorhombic'
loop_
_space_group_symop_operation_xyz
x,y,z
-x,-y,z
x,-y,-z
-x,y,-z
-x,-y,-z
x,y,-z
-x,y,z
x,-y,z
1/2+x,1/2+y,1/2+z
1/2-x,1/2-y,1/2+z
1/2+x,1/2-y,1/2-z
1/2-x,1/2+y,1/2-z
1/2-x,1/2-y,1/2-z
1/2+x,1/2+y,1/2-z
1/2-x,1/2+y,1/2+z
1/2+x,1/2-y,1/2+z
loop_
_atom_site_type_symbol
_atom_site_label
_atom_site_fract_x
_atom_site_fract_y
_atom_site_fract_z
Si Si1 0.949852 0.311582 0.716774
Si Si2 0.447969 0.500000 0.097991
Si Si3 0.627971 0.694793 0.318970
Si Si4 0.230793 0.299740 0.500000
Si Si5 0.293865 0.800721 0.196599
Si Si6 0.171025 0.201282 0.000000
O O1 0.946944 0.500000 0.674352
O O2 0.932692 0.171451 0.646610
O O3 0.916754 0.299021 0.800519
O O4 0.000000 0.273859 0.748023
O O5 0.500000 0.500000 0.089692
O O6 0.425912 0.500000 0.000000
O O7 0.615135 0.500000 0.328646
O O8 0.663957 0.713319 0.240545
O O9 0.646584 0.769309 0.411711
O O10 0.233550 0.500000 0.500000
O O11 0.207469 0.238659 0.407732
O O12 0.279947 0.223614 0.500000
O O13 0.250000 0.750000 0.250000
O O14 0.299699 0.000000 0.201435
O O15 0.172768 0.000000 0.000000
#
# Coordination Sequence:
#
# PCOD8291953 Si02
#       6
#    16   8  16   8  16   8
#     4  10  21  39  62  88 122 161 201 250 307 362
#     4   9  18  36  62  89 117 153 199 248 298 357
#     4  11  21  38  61  86 117 155 200 251 304 363
#     4   9  18  36  56  77 112 153 193 238 295 357
#     4  11  21  36  57  81 112 151 194 242 299 360
#     4   9  18  34  59  85 112 153 200 244 301 362
#
# _framework density 20.108787
#
# number of rings (size 3 to 8) (size 9 to 14) (size 15 to 20)
#    0.000    1.889    3.333    1.333    0.000    0.444 
#    2.000    8.333    0.000    3.333    0.000    0.000 
#    0.000    0.000    0.000    0.000    0.000    0.000 
#
# Total GULP energy -446290.774034 kJ/mol
# GULP energy per Si atom -12396.965945 kJ/mol
# Density = 2.006302 g / cm^3
# Si number density = 20.108787 Si / 1000 Ang^3
#
#
#
# Elastic Constant Matrix: (Units=GPa)
#
#
# Indices 1 2 3 4 5 6 
#
# 1 110.0196 20.3419 58.5447 0.0000 0.0000 0.0000
# 2 20.3419 85.5107 26.9866 0.0000 0.0000 0.0000
# 3 58.5447 26.9866 163.2907 0.0000 0.0000 0.0000
# 4 0.0000 0.0000 0.0000 17.5959 0.0000 0.0000
# 5 0.0000 0.0000 0.0000 0.0000 23.0980 0.0000
# 6 0.0000 0.0000 0.0000 0.0000 0.0000 28.9368
#
#
#
# Elastic Compliance Matrix: (Units=1/GPa)
#
#
# Indices 1 2 3 4 5 6 
#
# 1 0.011412 -0.001502 -0.003843 0.000000 0.000000 0.000000
# 2 -0.001502 0.012536 -0.001533 0.000000 0.000000 0.000000
# 3 -0.003843 -0.001533 0.007755 0.000000 0.000000 0.000000
# 4 0.000000 0.000000 0.000000 0.056831 0.000000 0.000000
# 5 0.000000 0.000000 0.000000 0.000000 0.043294 0.000000
# 6 0.000000 0.000000 0.000000 0.000000 0.000000 0.034558
#
#
# Mechanical properties :
#
#
# Convention : Reuss Voigt Hill
#
# Bulk Modulus (GPa) = 55.72227 63.39637 59.55932
# Shear Modulus (GPa) = 26.86358 30.78932 28.82645
#
# Velocity S-wave (km/s) = 3.65898 3.91722 3.79030
# Velocity P-wave (km/s) = 6.75436 7.21489 6.98842
#
# Compressibility (1/GPa) = 0.01794615
#
# Stress axis : x y z
#
# Youngs Moduli (GPa) = 87.62584 79.77281 128.94209
#
# Poissons Ratio (x) = 0.11981 0.49558
# Poissons Ratio (y) = 0.13160 0.19770
# Poissons Ratio (z) = 0.33678 0.12231
#
# Static dielectric constant tensor:
#      x y z
#    x 3.583950 0.000000 0.000000 
#    y 0.000000 3.580760 0.000000 
#    z 0.000000 0.000000 3.886920 
# 
# 
# High freq. dielectric constant tensor:
#      x y z
#    x 1.778660 0.000000 0.000000 
#    y 0.000000 1.781560 0.000000 
#    z 0.000000 0.000000 1.777510 
# 
# From -- ./inp_files/31481.got.cif
#   From: 2010.06.25/outbox.cif.g09.slc.cpg/sg71_16_cif.got.tgz:31481.got - 2010.06.28 04:59:45.
