data_PCOD8291606
_publ_section_title
;
Structure prediction by ZEFSAII (Michael W. Deem and Ramdas Pophale) SiO2 
 PCOD8291606
Probable space group: I M M M
;
_chemical_formula_sum "Si O2"
_cell_formula_units_Z 96
_cell_length_a 27.374501
_cell_length_b 9.087673
_cell_length_c 19.972239
_cell_angle_alpha 90.000000
_cell_angle_beta 90.000000
_cell_angle_gamma 90.000000
_cell_volume 4968.504154
_symmetry_space_group_name_H-M "I M M M"
_symmetry_group_IT_number 71
_symmetry_cell_setting 'orthorhombic'
loop_
_space_group_symop_operation_xyz
x,y,z
-x,-y,z
x,-y,-z
-x,y,-z
-x,-y,-z
x,y,-z
-x,y,z
x,-y,z
1/2+x,1/2+y,1/2+z
1/2-x,1/2-y,1/2+z
1/2+x,1/2-y,1/2-z
1/2-x,1/2+y,1/2-z
1/2-x,1/2-y,1/2-z
1/2+x,1/2+y,1/2-z
1/2-x,1/2+y,1/2+z
1/2+x,1/2-y,1/2+z
loop_
_atom_site_type_symbol
_atom_site_label
_atom_site_fract_x
_atom_site_fract_y
_atom_site_fract_z
Si Si1 0.444411 0.329258 0.685605
Si Si2 0.133180 0.169608 0.076341
Si Si3 0.217685 0.672251 0.694118
Si Si4 0.894763 0.329317 0.306264
Si Si5 0.232418 0.328162 0.077442
Si Si6 0.444204 0.671233 0.923368
O O1 0.500000 0.291178 0.667164
O O2 0.437709 0.500000 0.702622
O O3 0.412137 0.282457 0.622005
O O4 0.429079 0.240871 0.750714
O O5 0.178711 0.270725 0.096259
O O6 0.148104 0.000000 0.088007
O O7 0.117145 0.197073 0.000000
O O8 0.230113 0.500000 0.692508
O O9 0.250000 0.750000 0.750000
O O10 0.161438 0.701690 0.711734
O O11 0.228159 0.741922 0.621540
O O12 0.906391 0.500000 0.309318
O O13 0.906994 0.262528 0.378418
O O14 0.234626 0.500000 0.094513
O O15 0.244632 0.296477 0.000000
O O16 0.500000 0.709787 0.904347
O O17 0.434309 0.500000 0.911430
O O18 0.433753 0.713948 0.000000
#
# Coordination Sequence:
#
# PCOD8291606 Si02
#       6
#    16  16  16  16  16  16
#     4  10  21  36  55  80 110 145 184 225 269 320
#     4   9  18  34  57  83 111 145 183 224 272 322
#     4  11  24  40  58  81 110 144 184 230 277 327
#     4  11  24  38  54  80 111 142 179 225 273 321
#     4  10  21  37  58  84 113 145 182 224 271 326
#     4   9  19  37  60  84 110 142 180 220 263 316
#
# _framework density 19.321709999999999
#
# number of rings (size 3 to 8) (size 9 to 14) (size 15 to 20)
#    0.000    2.000    0.000    3.500    0.000   11.000 
#    0.000    5.833    0.000    0.000    0.000    3.500 
#    0.000    0.000    0.000    0.000    0.000    0.000 
#
# Total GULP energy -595432.343757 kJ/mol
# GULP energy per Si atom -12404.840495 kJ/mol
# Density = 1.927773 g / cm^3
# Si number density = 19.321710 Si / 1000 Ang^3
#
#
#
# Elastic Constant Matrix: (Units=GPa)
#
#
# Indices 1 2 3 4 5 6 
#
# 1 52.1741 34.7716 23.5296 0.0000 0.0000 0.0000
# 2 34.7716 81.3635 36.5466 0.0000 0.0000 0.0000
# 3 23.5296 36.5466 81.7835 0.0000 0.0000 0.0000
# 4 0.0000 0.0000 0.0000 26.6732 0.0000 0.0000
# 5 0.0000 0.0000 0.0000 0.0000 41.5199 0.0000
# 6 0.0000 0.0000 0.0000 0.0000 0.0000 30.6115
#
#
#
# Elastic Compliance Matrix: (Units=1/GPa)
#
#
# Indices 1 2 3 4 5 6 
#
# 1 0.027505 -0.010259 -0.003329 0.000000 0.000000 0.000000
# 2 -0.010259 0.019204 -0.005630 0.000000 0.000000 0.000000
# 3 -0.003329 -0.005630 0.015701 0.000000 0.000000 0.000000
# 4 0.000000 0.000000 0.000000 0.037491 0.000000 0.000000
# 5 0.000000 0.000000 0.000000 0.000000 0.024085 0.000000
# 6 0.000000 0.000000 0.000000 0.000000 0.000000 0.032667
#
#
# Mechanical properties :
#
#
# Convention : Reuss Voigt Hill
#
# Bulk Modulus (GPa) = 41.71230 45.00185 43.35708
# Shear Modulus (GPa) = 24.62075 27.79247 26.20661
#
# Velocity S-wave (km/s) = 3.57354 3.79675 3.68683
# Velocity P-wave (km/s) = 6.21789 6.52394 6.37275
#
# Compressibility (1/GPa) = 0.02397374
#
# Stress axis : x y z
#
# Youngs Moduli (GPa) = 36.35671 52.07294 63.69041
#
# Poissons Ratio (x) = 0.53424 0.21201
# Poissons Ratio (y) = 0.37300 0.35857
# Poissons Ratio (z) = 0.12102 0.29317
#
# Static dielectric constant tensor:
#      x y z
#    x 3.530760 0.000000 0.000000 
#    y 0.000000 3.540170 0.000000 
#    z 0.000000 0.000000 3.645020 
# 
# 
# High freq. dielectric constant tensor:
#      x y z
#    x 1.751260 0.000000 0.000000 
#    y 0.000000 1.752910 0.000000 
#    z 0.000000 0.000000 1.763300 
# 
# From -- ./inp_files/10858.got.cif
#   From: 2010.06.25/outbox.cif.g09.slc.cpg/sg71_6_cif.got.tgz:10858.got - 2010.06.28 04:59:45.
