data_PCOD8291537
_publ_section_title
;
Structure prediction by ZEFSAII (Michael W. Deem and Ramdas Pophale) SiO2 
 PCOD8291537
Probable space group: I M M M
;
_chemical_formula_sum "Si O2"
_cell_formula_units_Z 96
_cell_length_a 19.894482
_cell_length_b 30.108173
_cell_length_c 8.854109
_cell_angle_alpha 90.000000
_cell_angle_beta 90.000000
_cell_angle_gamma 90.000000
_cell_volume 5303.491812
_symmetry_space_group_name_H-M "I M M M"
_symmetry_group_IT_number 71
_symmetry_cell_setting 'orthorhombic'
loop_
_space_group_symop_operation_xyz
x,y,z
-x,-y,z
x,-y,-z
-x,y,-z
-x,-y,-z
x,y,-z
-x,y,z
x,-y,z
1/2+x,1/2+y,1/2+z
1/2-x,1/2-y,1/2+z
1/2+x,1/2-y,1/2-z
1/2-x,1/2+y,1/2-z
1/2-x,1/2-y,1/2-z
1/2+x,1/2+y,1/2-z
1/2-x,1/2+y,1/2+z
1/2+x,1/2-y,1/2+z
loop_
_atom_site_type_symbol
_atom_site_label
_atom_site_fract_x
_atom_site_fract_y
_atom_site_fract_z
Si Si1 0.573534 0.052719 0.330252
Si Si2 0.426939 0.660678 0.179111
Si Si3 0.212071 0.125233 0.678651
Si Si4 0.293387 0.948095 0.174458
Si Si5 0.572964 0.760336 0.178804
Si Si6 0.213719 0.707687 0.679605
O O1 0.588274 0.069655 0.500000
O O2 0.500000 0.070354 0.275709
O O3 0.632506 0.069805 0.220696
O O4 0.572173 0.000000 0.328221
O O5 0.500000 0.642521 0.236180
O O6 0.365328 0.629969 0.234606
O O7 0.415576 0.710466 0.242162
O O8 0.426923 0.661958 0.000000
O O9 0.218413 0.130764 0.500000
O O10 0.236736 0.076845 0.729286
O O11 0.257345 0.162254 0.757287
O O12 0.285639 0.000000 0.210698
O O13 0.282772 0.937318 0.000000
O O14 0.500000 0.778557 0.237039
O O15 0.634996 0.791130 0.230007
O O16 0.571540 0.757551 0.000000
O O17 0.221977 0.709487 0.500000
O O18 0.250000 0.750000 0.750000
#
# Coordination Sequence:
#
# PCOD8291537 Si02
#       6
#    16  16  16  16  16  16
#     4   8  14  27  49  75 100 127 163 209 258 304
#     4   8  14  27  49  76 101 127 167 214 255 302
#     4  11  21  34  54  79 104 135 173 215 267 315
#     4  10  21  36  53  75 104 138 176 218 263 313
#     4   8  14  27  48  72  99 134 174 211 247 291
#     4  11  20  32  51  76 106 137 170 210 256 308
#
# _framework density 18.101282999999999
#
# number of rings (size 3 to 8) (size 9 to 14) (size 15 to 20)
#    0.000    2.667    1.667    3.000    0.000    1.333 
#    0.000    2.500    0.000    8.500    0.000    3.500 
#    0.000    0.000    0.000    0.000    0.000    0.000 
#
# Total GULP energy -594788.477550 kJ/mol
# GULP energy per Si atom -12391.426616 kJ/mol
# Density = 1.806008 g / cm^3
# Si number density = 18.101283 Si / 1000 Ang^3
#
#
#
# Elastic Constant Matrix: (Units=GPa)
#
#
# Indices 1 2 3 4 5 6 
#
# 1 183.9457 55.3651 44.8891 0.0000 0.0000 0.0000
# 2 55.3651 55.6958 26.3825 0.0000 0.0000 0.0000
# 3 44.8891 26.3825 57.8663 0.0002 0.0000 0.0000
# 4 0.0000 0.0000 0.0002 25.1323 0.0000 0.0000
# 5 0.0000 0.0000 0.0000 0.0000 20.9618 0.0000
# 6 0.0000 0.0000 0.0000 0.0000 0.0000 26.1112
#
#
#
# Elastic Compliance Matrix: (Units=1/GPa)
#
#
# Indices 1 2 3 4 5 6 
#
# 1 0.008249 -0.006592 -0.003393 0.000000 0.000000 0.000000
# 2 -0.006592 0.028169 -0.007729 0.000000 0.000000 0.000000
# 3 -0.003393 -0.007729 0.023437 0.000000 0.000000 0.000000
# 4 0.000000 0.000000 0.000000 0.039789 0.000000 0.000000
# 5 0.000000 0.000000 0.000000 0.000000 0.047706 0.000000
# 6 0.000000 0.000000 0.000000 0.000000 0.000000 0.038298
#
#
# Mechanical properties :
#
#
# Convention : Reuss Voigt Hill
#
# Bulk Modulus (GPa) = 40.94007 61.19790 51.06898
# Shear Modulus (GPa) = 21.81325 25.83249 23.82287
#
# Velocity S-wave (km/s) = 3.47517 3.78181 3.63173
# Velocity P-wave (km/s) = 6.22646 7.27677 6.77201
#
# Compressibility (1/GPa) = 0.02442595
#
# Stress axis : x y z
#
# Youngs Moduli (GPa) = 121.23206 35.50011 42.66720
#
# Poissons Ratio (x) = 0.23403 0.14478
# Poissons Ratio (y) = 0.79920 0.32977
# Poissons Ratio (z) = 0.41136 0.27438
#
# Static dielectric constant tensor:
#      x y z
#    x 4.105040 0.000000 0.000000 
#    y 0.000000 3.085270 0.000000 
#    z 0.000000 0.000000 3.118070 
# 
# 
# High freq. dielectric constant tensor:
#      x y z
#    x 1.720150 0.000000 0.000000 
#    y 0.000000 1.662100 0.000000 
#    z 0.000000 0.000000 1.676120 
# 
# From -- ./inp_files/10842.got.cif
#   From: 2010.06.25/outbox.cif.g09.slc.cpg/sg71_6_cif.got.tgz:10842.got - 2010.06.28 04:59:45.
