data_PCOD8291540
_publ_section_title
;
Structure prediction by ZEFSAII (Michael W. Deem and Ramdas Pophale) SiO2 
 PCOD8291540
Probable space group: I M M M
;
_chemical_formula_sum "Si O2"
_cell_formula_units_Z 80
_cell_length_a 20.527251
_cell_length_b 24.998714
_cell_length_c 8.700142
_cell_angle_alpha 90.000000
_cell_angle_beta 90.000000
_cell_angle_gamma 90.000000
_cell_volume 4464.520298
_symmetry_space_group_name_H-M "I M M M"
_symmetry_group_IT_number 71
_symmetry_cell_setting 'orthorhombic'
loop_
_space_group_symop_operation_xyz
x,y,z
-x,-y,z
x,-y,-z
-x,y,-z
-x,-y,-z
x,y,-z
-x,y,z
x,-y,z
1/2+x,1/2+y,1/2+z
1/2-x,1/2-y,1/2+z
1/2+x,1/2-y,1/2-z
1/2-x,1/2+y,1/2-z
1/2-x,1/2-y,1/2-z
1/2+x,1/2+y,1/2-z
1/2-x,1/2+y,1/2+z
1/2+x,1/2-y,1/2+z
loop_
_atom_site_type_symbol
_atom_site_label
_atom_site_fract_x
_atom_site_fract_y
_atom_site_fract_z
Si Si1 0.308787 0.283987 0.680146
Si Si2 0.613958 0.000000 0.831871
Si Si3 0.126875 0.387326 0.680991
Si Si4 0.733196 0.610366 0.818601
Si Si5 0.926396 0.274970 0.677005
Si Si6 0.769083 0.000000 0.170837
O O1 0.296905 0.287990 0.500000
O O2 0.250000 0.250000 0.750000
O O3 0.312520 0.343121 0.751581
O O4 0.377996 0.256648 0.713022
O O5 0.594392 0.056850 0.752901
O O6 0.691779 0.000000 0.837397
O O7 0.581871 0.000000 0.000000
O O8 0.142805 0.395408 0.500000
O O9 0.193722 0.375437 0.767741
O O10 0.078166 0.338557 0.709633
O O11 0.707251 0.553254 0.758478
O O12 0.728938 0.610461 0.000000
O O13 0.907903 0.263318 0.500000
O O14 0.000000 0.256972 0.713486
O O15 0.799334 0.000000 0.000000
#
# Coordination Sequence:
#
# PCOD8291540 Si02
#       6
#    16   8  16  16  16   8
#     4  12  23  36  55  79 106 140 183 230 277 326
#     4   7  12  23  42  67  93 131 175 214 254 299
#     4   9  16  29  48  69 101 141 180 221 267 316
#     4  11  20  31  51  80 109 139 175 220 270 322
#     4  10  21  36  53  75 106 144 184 227 275 328
#     4   9  17  31  49  74 109 142 172 213 263 318
#
# _framework density 17.919059000000001
#
# number of rings (size 3 to 8) (size 9 to 14) (size 15 to 20)
#    0.000    2.000    2.000    5.100    0.000    0.400 
#    0.000    0.500    0.000    3.000    0.000    0.700 
#    0.000   12.000    0.000    0.000    0.000    0.000 
#
# Total GULP energy -495779.627181 kJ/mol
# GULP energy per Si atom -12394.490680 kJ/mol
# Density = 1.787827 g / cm^3
# Si number density = 17.919059 Si / 1000 Ang^3
#
#
#
# Elastic Constant Matrix: (Units=GPa)
#
#
# Indices 1 2 3 4 5 6 
#
# 1 58.8010 36.2125 25.5125 0.0000 0.0000 0.0000
# 2 36.2125 133.6137 52.7384 0.0000 0.0000 0.0000
# 3 25.5125 52.7384 121.2692 0.0000 0.0000 0.0000
# 4 0.0000 0.0000 0.0000 28.9606 0.0000 0.0000
# 5 0.0000 0.0000 0.0000 0.0000 18.3611 0.0000
# 6 0.0000 0.0000 0.0000 0.0000 0.0000 16.2164
#
#
#
# Elastic Compliance Matrix: (Units=1/GPa)
#
#
# Indices 1 2 3 4 5 6 
#
# 1 0.020950 -0.004754 -0.002340 0.000000 0.000000 0.000000
# 2 -0.004754 0.010114 -0.003398 0.000000 0.000000 0.000000
# 3 -0.002340 -0.003398 0.010216 0.000000 0.000000 0.000000
# 4 0.000000 0.000000 0.000000 0.034530 0.000000 0.000000
# 5 0.000000 0.000000 0.000000 0.000000 0.054463 0.000000
# 6 0.000000 0.000000 0.000000 0.000000 0.000000 0.061666
#
#
# Mechanical properties :
#
#
# Convention : Reuss Voigt Hill
#
# Bulk Modulus (GPa) = 49.27269 60.29008 54.78138
# Shear Modulus (GPa) = 22.75951 25.98898 24.37425
#
# Velocity S-wave (km/s) = 3.56775 3.81248 3.69215
# Velocity P-wave (km/s) = 6.67300 7.28690 6.98669
#
# Compressibility (1/GPa) = 0.02029522
#
# Stress axis : x y z
#
# Youngs Moduli (GPa) = 47.73349 98.87157 97.88347
#
# Poissons Ratio (x) = 0.47007 0.22903
# Poissons Ratio (y) = 0.22694 0.33264
# Poissons Ratio (z) = 0.11169 0.33599
#
# Static dielectric constant tensor:
#      x y z
#    x 2.864120 0.000000 0.000000 
#    y 0.000000 3.789300 0.000000 
#    z 0.000000 0.000000 3.243000 
# 
# 
# High freq. dielectric constant tensor:
#      x y z
#    x 1.638990 0.000000 0.000000 
#    y 0.000000 1.714680 0.000000 
#    z 0.000000 0.000000 1.685250 
# 
# From -- ./inp_files/10215.got.cif
#   From: 2010.06.25/outbox.cif.g09.slc.cpg/sg71_6_cif.got.tgz:10215.got - 2010.06.28 04:59:45.
