data_PCOD8291691
_publ_section_title
;
Structure prediction by ZEFSAII (Michael W. Deem and Ramdas Pophale) SiO2 
 PCOD8291691
Probable space group: I M M M
;
_chemical_formula_sum "Si O2"
_cell_formula_units_Z 72
_cell_length_a 22.029513
_cell_length_b 14.142315
_cell_length_c 10.699255
_cell_angle_alpha 90.000000
_cell_angle_beta 90.000000
_cell_angle_gamma 90.000000
_cell_volume 3333.334836
_symmetry_space_group_name_H-M "I M M M"
_symmetry_group_IT_number 71
_symmetry_cell_setting 'orthorhombic'
loop_
_space_group_symop_operation_xyz
x,y,z
-x,-y,z
x,-y,-z
-x,y,-z
-x,-y,-z
x,y,-z
-x,y,z
x,-y,z
1/2+x,1/2+y,1/2+z
1/2-x,1/2-y,1/2+z
1/2+x,1/2-y,1/2-z
1/2-x,1/2+y,1/2-z
1/2-x,1/2-y,1/2-z
1/2+x,1/2+y,1/2-z
1/2-x,1/2+y,1/2+z
1/2+x,1/2-y,1/2+z
loop_
_atom_site_type_symbol
_atom_site_label
_atom_site_fract_x
_atom_site_fract_y
_atom_site_fract_z
Si Si1 0.677098 0.109521 0.500000
Si Si2 0.363591 0.104154 0.859024
Si Si3 0.070160 0.241320 0.000000
Si Si4 0.243586 0.106063 0.739914
Si Si5 0.567735 0.611487 0.000000
Si Si6 0.619535 0.702538 0.247431
O O1 0.615276 0.169478 0.500000
O O2 0.717620 0.135689 0.381025
O O3 0.658109 0.000000 0.500000
O O4 0.290198 0.109625 0.855963
O O5 0.392916 0.185807 0.774653
O O6 0.384480 0.000000 0.809726
O O7 0.385556 0.119686 0.000000
O O8 0.083402 0.177724 0.124774
O O9 0.000000 0.273260 0.000000
O O10 0.190708 0.181097 0.765561
O O11 0.216257 0.000000 0.723883
O O12 0.599604 0.644487 0.873460
O O13 0.569131 0.500000 0.000000
O O14 0.500000 0.652247 0.000000
#
# Coordination Sequence:
#
# PCOD8291691 Si02
#       6
#     8  16   8  16   8  16
#     4  10  21  39  63  95 133 167 217 278 328 389
#     4  10  21  36  59  95 134 166 206 260 324 395
#     4  12  28  42  60  94 136 184 231 260 311 394
#     4  10  21  36  61  98 131 163 211 272 340 400
#     4  11  25  47  71  91 116 162 223 277 323 380
#     4  12  23  41  69  94 133 171 217 270 334 387
#
# _framework density 21.599989999999998
#
# number of rings (size 3 to 8) (size 9 to 14) (size 15 to 20)
#    0.000    1.222    3.333    2.667    1.556    1.111 
#    0.000    1.667    0.000    6.667    0.000    0.000 
#    0.000    0.000    0.000    0.000    0.000    0.000 
#
# Total GULP energy -446256.167540 kJ/mol
# GULP energy per Si atom -12396.004654 kJ/mol
# Density = 2.155083 g / cm^3
# Si number density = 21.599990 Si / 1000 Ang^3
#
#
#
# Elastic Constant Matrix: (Units=GPa)
#
#
# Indices 1 2 3 4 5 6 
#
# 1 88.2941 10.6908 28.9702 0.0000 0.0000 0.0000
# 2 10.6908 77.4946 26.9925 0.0000 0.0000 0.0000
# 3 28.9702 26.9925 133.2423 0.0000 0.0000 0.0000
# 4 0.0000 0.0000 0.0000 15.7938 0.0000 0.0000
# 5 0.0000 0.0000 0.0000 0.0000 22.1989 0.0000
# 6 0.0000 0.0000 0.0000 0.0000 0.0000 20.6145
#
#
#
# Elastic Compliance Matrix: (Units=1/GPa)
#
#
# Indices 1 2 3 4 5 6 
#
# 1 0.012244 -0.000820 -0.002496 0.000000 0.000000 0.000000
# 2 -0.000820 0.013939 -0.002646 0.000000 0.000000 0.000000
# 3 -0.002496 -0.002646 0.008584 0.000000 0.000000 0.000000
# 4 0.000000 0.000000 0.000000 0.063316 0.000000 0.000000
# 5 0.000000 0.000000 0.000000 0.000000 0.045047 0.000000
# 6 0.000000 0.000000 0.000000 0.000000 0.000000 0.048510
#
#
# Mechanical properties :
#
#
# Convention : Reuss Voigt Hill
#
# Bulk Modulus (GPa) = 43.77543 48.03756 45.90649
# Shear Modulus (GPa) = 23.67686 27.21327 25.44507
#
# Velocity S-wave (km/s) = 3.31441 3.55332 3.43594
# Velocity P-wave (km/s) = 5.91249 6.25481 6.08606
#
# Compressibility (1/GPa) = 0.02284387
#
# Stress axis : x y z
#
# Youngs Moduli (GPa) = 81.67247 71.74283 116.49894
#
# Poissons Ratio (x) = 0.05881 0.29079
# Poissons Ratio (y) = 0.06695 0.30820
# Poissons Ratio (z) = 0.20386 0.18980
#
# Static dielectric constant tensor:
#      x y z
#    x 3.648780 0.000000 0.000000 
#    y 0.000000 3.954130 0.000000 
#    z 0.000000 0.000000 4.292330 
# 
# 
# High freq. dielectric constant tensor:
#      x y z
#    x 1.815740 0.000000 0.000000 
#    y 0.000000 1.850980 0.000000 
#    z 0.000000 0.000000 1.864240 
# 
# From -- ./inp_files/27028.got.cif
#   From: 2010.06.25/outbox.cif.g09.slc.cpg/sg71_14_cif.got.tgz:27028.got - 2010.06.28 04:59:45.
