data_PCOD8291610
_publ_section_title
;
Structure prediction by ZEFSAII (Michael W. Deem and Ramdas Pophale) SiO2 
 PCOD8291610
Probable space group: I M M M
;
_chemical_formula_sum "Si O2"
_cell_formula_units_Z 80
_cell_length_a 9.132789
_cell_length_b 18.373922
_cell_length_c 24.995553
_cell_angle_alpha 90.000000
_cell_angle_beta 90.000000
_cell_angle_gamma 90.000000
_cell_volume 4194.382589
_symmetry_space_group_name_H-M "I M M M"
_symmetry_group_IT_number 71
_symmetry_cell_setting 'orthorhombic'
loop_
_space_group_symop_operation_xyz
x,y,z
-x,-y,z
x,-y,-z
-x,y,-z
-x,-y,-z
x,y,-z
-x,y,z
x,-y,z
1/2+x,1/2+y,1/2+z
1/2-x,1/2-y,1/2+z
1/2+x,1/2-y,1/2-z
1/2-x,1/2+y,1/2-z
1/2-x,1/2-y,1/2-z
1/2+x,1/2+y,1/2-z
1/2-x,1/2+y,1/2+z
1/2+x,1/2-y,1/2+z
loop_
_atom_site_type_symbol
_atom_site_label
_atom_site_fract_x
_atom_site_fract_y
_atom_site_fract_z
Si Si1 0.830661 0.915914 0.658198
Si Si2 0.327027 0.827261 0.251337
Si Si3 0.331597 0.681988 0.060335
Si Si4 0.171030 0.827110 0.061729
Si Si5 0.330473 0.083464 0.146815
O O1 0.727868 0.873309 0.698627
O O2 0.800741 0.886359 0.598491
O O3 0.000000 0.904492 0.674433
O O4 0.786185 0.000000 0.658740
O O5 0.500000 0.816404 0.256111
O O6 0.250000 0.750000 0.250000
O O7 0.282631 0.869657 0.197788
O O8 0.500000 0.706270 0.063124
O O9 0.238388 0.750557 0.080692
O O10 0.287068 0.659165 0.000000
O O11 0.238074 0.892815 0.095463
O O12 0.000000 0.823513 0.072414
O O13 0.208966 0.842132 0.000000
O O14 0.500000 0.095016 0.133251
O O15 0.294580 0.000000 0.159944
#
# Coordination Sequence:
#
# PCOD8291610 Si02
#       5
#    16  16  16  16  16
#     4  10  21  36  55  82 114 145 180 224 273 323
#     4  11  23  39  59  82 109 142 182 226 272 323
#     4   9  18  34  56  80 108 145 186 224 263 313
#     4  10  21  36  55  81 111 141 176 221 270 318
#     4  10  22  39  57  78 106 141 180 220 264 318
#
# _framework density 19.073129000000002
#
# number of rings (size 3 to 8) (size 9 to 14) (size 15 to 20)
#    0.000    2.000    0.000    3.000    0.000   10.800 
#    0.000    4.000    0.000    0.000    0.000    4.200 
#    0.000    0.000    0.000    0.000    0.000    0.000 
#
# Total GULP energy -496194.665995 kJ/mol
# GULP energy per Si atom -12404.866650 kJ/mol
# Density = 1.902972 g / cm^3
# Si number density = 19.073129 Si / 1000 Ang^3
#
#
#
# Elastic Constant Matrix: (Units=GPa)
#
#
# Indices 1 2 3 4 5 6 
#
# 1 76.3735 63.5022 55.6725 0.0000 0.0000 0.0000
# 2 63.5022 154.6860 75.7069 0.0000 0.0000 0.0000
# 3 55.6725 75.7069 108.5690 0.0000 0.0000 0.0000
# 4 0.0000 0.0000 0.0000 30.7077 0.0000 0.0000
# 5 0.0000 0.0000 0.0000 0.0000 33.9510 0.0000
# 6 0.0000 0.0000 0.0000 0.0000 0.0000 28.0444
#
#
#
# Elastic Compliance Matrix: (Units=1/GPa)
#
#
# Indices 1 2 3 4 5 6 
#
# 1 0.023896 -0.005788 -0.008218 0.000000 0.000000 0.000000
# 2 -0.005788 0.011216 -0.004853 0.000000 0.000000 0.000000
# 3 -0.008218 -0.004853 0.016809 0.000000 0.000000 0.000000
# 4 0.000000 0.000000 0.000000 0.032565 0.000000 0.000000
# 5 0.000000 0.000000 0.000000 0.000000 0.029454 0.000000
# 6 0.000000 0.000000 0.000000 0.000000 0.000000 0.035658
#
#
# Mechanical properties :
#
#
# Convention : Reuss Voigt Hill
#
# Bulk Modulus (GPa) = 70.40455 81.04355 75.72405
# Shear Modulus (GPa) = 26.03484 28.19042 27.11263
#
# Velocity S-wave (km/s) = 3.69860 3.84867 3.77438
# Velocity P-wave (km/s) = 7.43186 7.89512 7.66699
#
# Compressibility (1/GPa) = 0.01420363
#
# Stress axis : x y z
#
# Youngs Moduli (GPa) = 41.84728 89.15751 59.49309
#
# Poissons Ratio (x) = 0.51606 0.48889
# Poissons Ratio (y) = 0.24222 0.28872
# Poissons Ratio (z) = 0.34388 0.43269
#
# Static dielectric constant tensor:
#      x y z
#    x 3.515550 0.000000 0.000000 
#    y 0.000000 3.540920 0.000000 
#    z 0.000000 0.000000 3.629120 
# 
# 
# High freq. dielectric constant tensor:
#      x y z
#    x 1.741100 0.000000 0.000000 
#    y 0.000000 1.745200 0.000000 
#    z 0.000000 0.000000 1.751820 
# 
# From -- ./inp_files/8303.got.cif
#   From: 2010.06.25/outbox.cif.g09.slc.cpg/sg71_5_cif.got.tgz:8303.got - 2010.06.28 04:59:45.
