data_PCOD8291535
_publ_section_title
;
Structure prediction by ZEFSAII (Michael W. Deem and Ramdas Pophale) SiO2 
 PCOD8291535
Probable space group: I M M M
;
_chemical_formula_sum "Si O2"
_cell_formula_units_Z 80
_cell_length_a 8.640372
_cell_length_b 14.523325
_cell_length_c 28.950240
_cell_angle_alpha 90.000000
_cell_angle_beta 90.000000
_cell_angle_gamma 90.000000
_cell_volume 3632.876760
_symmetry_space_group_name_H-M "I M M M"
_symmetry_group_IT_number 71
_symmetry_cell_setting 'orthorhombic'
loop_
_space_group_symop_operation_xyz
x,y,z
-x,-y,z
x,-y,-z
-x,y,-z
-x,-y,-z
x,y,-z
-x,y,z
x,-y,z
1/2+x,1/2+y,1/2+z
1/2-x,1/2-y,1/2+z
1/2+x,1/2-y,1/2-z
1/2-x,1/2+y,1/2-z
1/2-x,1/2-y,1/2-z
1/2+x,1/2+y,1/2-z
1/2-x,1/2+y,1/2+z
1/2+x,1/2-y,1/2+z
loop_
_atom_site_type_symbol
_atom_site_label
_atom_site_fract_x
_atom_site_fract_y
_atom_site_fract_z
Si Si1 0.178475 0.605115 0.275541
Si Si2 0.819238 0.105782 0.679083
Si Si3 0.822503 0.717855 0.551787
Si Si4 0.830746 0.400775 0.053462
Si Si5 0.678437 0.281688 0.643270
O O1 0.212942 0.500000 0.289680
O O2 0.280693 0.634328 0.231648
O O3 0.219553 0.668812 0.318436
O O4 0.000000 0.619825 0.262316
O O5 0.722082 0.172133 0.644530
O O6 0.000000 0.120871 0.670318
O O7 0.768941 0.000000 0.670502
O O8 0.762868 0.690095 0.500000
O O9 0.805515 0.827201 0.560359
O O10 0.721548 0.673152 0.593138
O O11 0.000000 0.688773 0.557206
O O12 0.784618 0.500000 0.076159
O O13 0.000000 0.365962 0.073002
O O14 0.853828 0.417441 0.000000
O O15 0.500000 0.298748 0.653755
#
# Coordination Sequence:
#
# PCOD8291535 Si02
#       5
#    16  16  16  16  16
#     4  10  21  39  63  89 118 150 186 232 286 344
#     4  10  21  38  60  87 121 157 193 234 279 333
#     4  10  21  36  53  74 103 141 187 238 288 337
#     4   8  14  26  44  65  91 126 169 216 266 321
#     4  12  24  37  58  85 116 154 194 237 284 341
#
# _framework density 22.021115999999999
#
# number of rings (size 3 to 8) (size 9 to 14) (size 15 to 20)
#    0.000    2.000    0.000    4.800    0.000    4.800 
#    0.000    2.000    0.000    0.600    0.000    4.200 
#    0.000    0.000    0.000    0.000    0.000    0.000 
#
# Total GULP energy -495736.057398 kJ/mol
# GULP energy per Si atom -12393.401435 kJ/mol
# Density = 2.197099 g / cm^3
# Si number density = 22.021116 Si / 1000 Ang^3
#
#
#
# Elastic Constant Matrix: (Units=GPa)
#
#
# Indices 1 2 3 4 5 6 
#
# 1 78.3882 8.9474 24.7606 0.0000 0.0000 0.0000
# 2 8.9474 30.5474 11.7732 0.0000 0.0000 0.0000
# 3 24.7606 11.7732 124.5812 0.0000 0.0000 0.0000
# 4 0.0000 0.0000 0.0000 5.9641 0.0000 0.0000
# 5 0.0000 0.0000 0.0000 0.0000 35.6082 0.0000
# 6 0.0000 0.0000 0.0000 0.0000 0.0000 22.3268
#
#
#
# Elastic Compliance Matrix: (Units=1/GPa)
#
#
# Indices 1 2 3 4 5 6 
#
# 1 0.013892 -0.003118 -0.002466 0.000000 0.000000 0.000000
# 2 -0.003118 0.034673 -0.002657 0.000000 0.000000 0.000000
# 3 -0.002466 -0.002657 0.008768 0.000000 0.000000 0.000000
# 4 0.000000 0.000000 0.000000 0.167670 0.000000 0.000000
# 5 0.000000 0.000000 0.000000 0.000000 0.028083 0.000000
# 6 0.000000 0.000000 0.000000 0.000000 0.000000 0.044789
#
#
# Mechanical properties :
#
#
# Convention : Reuss Voigt Hill
#
# Bulk Modulus (GPa) = 24.47974 36.05327 30.26651
# Shear Modulus (GPa) = 15.24502 25.31554 20.28028
#
# Velocity S-wave (km/s) = 2.63400 3.39426 3.03800
# Velocity P-wave (km/s) = 4.51566 5.63640 5.10687
#
# Compressibility (1/GPa) = 0.04085011
#
# Stress axis : x y z
#
# Youngs Moduli (GPa) = 71.98376 28.84054 114.04893
#
# Poissons Ratio (x) = 0.08994 0.28128
# Poissons Ratio (y) = 0.22448 0.30302
# Poissons Ratio (z) = 0.17754 0.07663
#
# Static dielectric constant tensor:
#      x y z
#    x 3.778070 0.000000 0.000000 
#    y 0.000000 3.750590 0.000000 
#    z 0.000000 0.000000 4.211460 
# 
# 
# High freq. dielectric constant tensor:
#      x y z
#    x 1.862220 0.000000 0.000000 
#    y 0.000000 1.825470 0.000000 
#    z 0.000000 0.000000 1.886790 
# 
# From -- ./inp_files/67941.got.cif
#   From: 2010.06.25/outbox.cif.g09.slc.cpg/sg71_34_cif.got.tgz:67941.got - 2010.06.28 04:59:45.
