data_PCOD8291343
_publ_section_title
;
Structure prediction by ZEFSAII (Michael W. Deem and Ramdas Pophale) SiO2 
 PCOD8291343
Probable space group: I M M M
;
_chemical_formula_sum "Si O2"
_cell_formula_units_Z 80
_cell_length_a 9.075190
_cell_length_b 21.539733
_cell_length_c 21.685315
_cell_angle_alpha 90.000000
_cell_angle_beta 90.000000
_cell_angle_gamma 90.000000
_cell_volume 4238.983996
_symmetry_space_group_name_H-M "I M M M"
_symmetry_group_IT_number 71
_symmetry_cell_setting 'orthorhombic'
loop_
_space_group_symop_operation_xyz
x,y,z
-x,-y,z
x,-y,-z
-x,y,-z
-x,-y,-z
x,y,-z
-x,y,z
x,-y,z
1/2+x,1/2+y,1/2+z
1/2-x,1/2-y,1/2+z
1/2+x,1/2-y,1/2-z
1/2-x,1/2+y,1/2-z
1/2-x,1/2-y,1/2-z
1/2+x,1/2+y,1/2-z
1/2-x,1/2+y,1/2+z
1/2+x,1/2-y,1/2+z
loop_
_atom_site_type_symbol
_atom_site_label
_atom_site_fract_x
_atom_site_fract_y
_atom_site_fract_z
Si Si1 0.835609 0.500000 0.427661
Si Si2 0.674510 0.570054 0.764608
Si Si3 0.670731 0.772022 0.071889
Si Si4 0.328052 0.365666 0.111832
Si Si5 0.834861 0.426821 0.000000
Si Si6 0.325292 0.613534 0.368165
O O1 0.850474 0.500000 0.500000
O O2 0.746907 0.439402 0.408968
O O3 0.000000 0.500000 0.398256
O O4 0.500000 0.565836 0.765829
O O5 0.740205 0.500000 0.767150
O O6 0.731603 0.610888 0.822010
O O7 0.726490 0.604322 0.702407
O O8 0.500000 0.790819 0.078819
O O9 0.704731 0.706888 0.104492
O O10 0.771640 0.820519 0.107454
O O11 0.714632 0.768251 0.000000
O O12 0.500000 0.379553 0.103886
O O13 0.245986 0.404302 0.060548
O O14 0.834296 0.500000 0.000000
O O15 0.000000 0.400046 0.000000
O O16 0.500000 0.608929 0.374921
#
# Coordination Sequence:
#
# PCOD8291343 Si02
#       6
#     8  16  16  16   8  16
#     4  11  23  39  59  85 115 152 199 250 295 343
#     4   9  18  35  59  87 117 148 192 248 291 341
#     4  10  21  38  57  84 119 153 197 248 290 340
#     4  10  20  38  64  86 110 157 205 239 285 353
#     4  11  23  37  55  87 127 154 187 250 307 343
#     4  11  22  37  59  87 118 155 194 239 298 355
#
# _framework density 18.872447000000001
#
# number of rings (size 3 to 8) (size 9 to 14) (size 15 to 20)
#    0.000    1.800    2.000    2.400    0.000    6.800 
#    0.000    2.000    0.000    0.000    0.000    0.000 
#    0.000    0.000    0.000    0.000    0.000    0.000 
#
# Total GULP energy -496083.883728 kJ/mol
# GULP energy per Si atom -12402.097093 kJ/mol
# Density = 1.882949 g / cm^3
# Si number density = 18.872447 Si / 1000 Ang^3
#
#
#
# Elastic Constant Matrix: (Units=GPa)
#
#
# Indices 1 2 3 4 5 6 
#
# 1 72.4608 55.4914 51.7731 0.0000 0.0000 0.0000
# 2 55.4914 124.5588 75.7156 0.0000 0.0000 0.0000
# 3 51.7731 75.7156 154.8237 0.0000 0.0000 0.0000
# 4 0.0000 0.0000 0.0000 39.0714 0.0000 0.0000
# 5 0.0000 0.0000 0.0000 0.0000 26.3994 0.0000
# 6 0.0000 0.0000 0.0000 0.0000 0.0000 34.0972
#
#
#
# Elastic Compliance Matrix: (Units=1/GPa)
#
#
# Indices 1 2 3 4 5 6 
#
# 1 0.022348 -0.007703 -0.003706 0.000000 0.000000 0.000000
# 2 -0.007703 0.014080 -0.004310 0.000000 0.000000 0.000000
# 3 -0.003706 -0.004310 0.009806 0.000000 0.000000 0.000000
# 4 0.000000 0.000000 0.000000 0.025594 0.000000 0.000000
# 5 0.000000 0.000000 0.000000 0.000000 0.037880 0.000000
# 6 0.000000 0.000000 0.000000 0.000000 0.000000 0.029328
#
#
# Mechanical properties :
#
#
# Convention : Reuss Voigt Hill
#
# Bulk Modulus (GPa) = 67.58702 79.75595 73.67149
# Shear Modulus (GPa) = 28.50550 31.17115 29.83833
#
# Velocity S-wave (km/s) = 3.89064 4.06849 3.98056
# Velocity P-wave (km/s) = 7.48820 8.02636 7.76194
#
# Compressibility (1/GPa) = 0.01479574
#
# Stress axis : x y z
#
# Youngs Moduli (GPa) = 44.74746 71.02297 101.98027
#
# Poissons Ratio (x) = 0.54711 0.37792
# Poissons Ratio (y) = 0.34470 0.43951
# Poissons Ratio (z) = 0.16582 0.30609
#
# Static dielectric constant tensor:
#      x y z
#    x 3.403690 0.000000 0.000000 
#    y 0.000000 2.911240 0.000000 
#    z 0.000000 0.000000 3.810290 
# 
# 
# High freq. dielectric constant tensor:
#      x y z
#    x 1.717190 0.000000 0.000000 
#    y 0.000000 1.744300 0.000000 
#    z 0.000000 0.000000 1.745640 
# 
# From -- ./inp_files/50389.got.cif
#   From: 2010.06.25/outbox.cif.g09.slc.cpg/sg71_26_cif.got.tgz:50389.got - 2010.06.28 04:59:45.
