data_PCOD8291801
_publ_section_title
;
Structure prediction by ZEFSAII (Michael W. Deem and Ramdas Pophale) SiO2 
 PCOD8291801
Probable space group: I M M M
;
_chemical_formula_sum "Si O2"
_cell_formula_units_Z 72
_cell_length_a 8.900227
_cell_length_b 13.874907
_cell_length_c 28.994553
_cell_angle_alpha 90.000000
_cell_angle_beta 90.000000
_cell_angle_gamma 90.000000
_cell_volume 3580.532186
_symmetry_space_group_name_H-M "I M M M"
_symmetry_group_IT_number 71
_symmetry_cell_setting 'orthorhombic'
loop_
_space_group_symop_operation_xyz
x,y,z
-x,-y,z
x,-y,-z
-x,y,-z
-x,-y,-z
x,y,-z
-x,y,z
x,-y,z
1/2+x,1/2+y,1/2+z
1/2-x,1/2-y,1/2+z
1/2+x,1/2-y,1/2-z
1/2-x,1/2+y,1/2-z
1/2-x,1/2-y,1/2-z
1/2+x,1/2+y,1/2-z
1/2-x,1/2+y,1/2+z
1/2+x,1/2-y,1/2+z
loop_
_atom_site_type_symbol
_atom_site_label
_atom_site_fract_x
_atom_site_fract_y
_atom_site_fract_z
Si Si1 0.675175 0.889266 0.726742
Si Si2 0.323563 0.290012 0.413298
Si Si3 0.671546 0.390850 0.946410
Si Si4 0.670270 0.113781 0.000000
Si Si5 0.175046 0.283616 0.320218
O O1 0.500000 0.874835 0.715907
O O2 0.768501 0.824261 0.691238
O O3 0.711667 0.856429 0.778747
O O4 0.724772 0.000000 0.720737
O O5 0.500000 0.304360 0.415100
O O6 0.281229 0.177361 0.417638
O O7 0.251320 0.350426 0.454234
O O8 0.260683 0.326918 0.364440
O O9 0.500000 0.375681 0.930312
O O10 0.723097 0.500000 0.937301
O O11 0.686848 0.364382 0.000000
O O12 0.500000 0.153416 0.000000
O O13 0.674298 0.000000 0.000000
O O14 0.000000 0.278523 0.331453
#
# Coordination Sequence:
#
# PCOD8291801 Si02
#       5
#    16  16  16   8  16
#     4   9  19  38  62  87 116 149 190 242 296 349
#     4  12  24  38  59  88 122 157 195 245 296 345
#     4   9  18  34  57  82 110 148 193 238 285 342
#     4  11  25  45  66  85 112 155 203 248 294 345
#     4  10  21  37  59  87 118 155 196 237 288 352
#
# _framework density 20.108744000000002
#
# number of rings (size 3 to 8) (size 9 to 14) (size 15 to 20)
#    0.000    1.889    1.111    3.667    0.000    4.444 
#    0.000    3.333    0.000    0.000    0.000    0.000 
#    0.000    0.000    0.000    0.000    0.000    0.000 
#
# Total GULP energy -446534.726836 kJ/mol
# GULP energy per Si atom -12403.742412 kJ/mol
# Density = 2.006298 g / cm^3
# Si number density = 20.108744 Si / 1000 Ang^3
#
#
#
# Elastic Constant Matrix: (Units=GPa)
#
#
# Indices 1 2 3 4 5 6 
#
# 1 131.5398 32.1512 60.5130 0.0000 0.0000 0.0000
# 2 32.1512 67.1882 20.8458 0.0000 0.0000 0.0000
# 3 60.5130 20.8458 113.8441 0.0000 0.0000 0.0000
# 4 0.0000 0.0000 0.0000 14.8335 0.0000 0.0000
# 5 0.0000 0.0000 0.0000 0.0000 34.6255 0.0000
# 6 0.0000 0.0000 0.0000 0.0000 0.0000 25.3472
#
#
#
# Elastic Compliance Matrix: (Units=1/GPa)
#
#
# Indices 1 2 3 4 5 6 
#
# 1 0.010826 -0.003600 -0.005095 0.000000 0.000000 0.000000
# 2 -0.003600 0.016977 -0.001195 0.000000 0.000000 0.000000
# 3 -0.005095 -0.001195 0.011711 0.000000 0.000000 0.000000
# 4 0.000000 0.000000 0.000000 0.067415 0.000000 0.000000
# 5 0.000000 0.000000 0.000000 0.000000 0.028880 0.000000
# 6 0.000000 0.000000 0.000000 0.000000 0.000000 0.039452
#
#
# Mechanical properties :
#
#
# Convention : Reuss Voigt Hill
#
# Bulk Modulus (GPa) = 50.67487 59.95467 55.31477
# Shear Modulus (GPa) = 24.79905 28.23204 26.51555
#
# Velocity S-wave (km/s) = 3.51557 3.75102 3.63520
# Velocity P-wave (km/s) = 6.46019 6.97425 6.72214
#
# Compressibility (1/GPa) = 0.01973365
#
# Stress axis : x y z
#
# Youngs Moduli (GPa) = 92.36853 58.90340 85.38795
#
# Poissons Ratio (x) = 0.21203 0.43509
# Poissons Ratio (y) = 0.33250 0.10206
# Poissons Ratio (z) = 0.47066 0.07040
#
# Static dielectric constant tensor:
#      x y z
#    x 3.601560 0.000000 0.000000 
#    y 0.000000 3.641210 0.000000 
#    z 0.000000 0.000000 3.667620 
# 
# 
# High freq. dielectric constant tensor:
#      x y z
#    x 1.782960 0.000000 0.000000 
#    y 0.000000 1.782870 0.000000 
#    z 0.000000 0.000000 1.789640 
# 
# From -- ./inp_files/16377.got.cif
#   From: 2010.06.25/outbox.cif.g09.slc.cpg/sg71_9_cif.got.tgz:16377.got - 2010.06.28 04:59:45.
