data_PCOD8291987
_publ_section_title
;
Structure prediction by ZEFSAII (Michael W. Deem and Ramdas Pophale) SiO2 
 PCOD8291987
Probable space group: I M M M
;
_chemical_formula_sum "Si O2"
_cell_formula_units_Z 64
_cell_length_a 8.732212
_cell_length_b 13.541087
_cell_length_c 26.761296
_cell_angle_alpha 90.000000
_cell_angle_beta 90.000000
_cell_angle_gamma 90.000000
_cell_volume 3164.353114
_symmetry_space_group_name_H-M "I M M M"
_symmetry_group_IT_number 71
_symmetry_cell_setting 'orthorhombic'
loop_
_space_group_symop_operation_xyz
x,y,z
-x,-y,z
x,-y,-z
-x,y,-z
-x,-y,-z
x,y,-z
-x,y,z
x,-y,z
1/2+x,1/2+y,1/2+z
1/2-x,1/2-y,1/2+z
1/2+x,1/2-y,1/2-z
1/2-x,1/2+y,1/2-z
1/2-x,1/2-y,1/2-z
1/2+x,1/2+y,1/2-z
1/2-x,1/2+y,1/2+z
1/2+x,1/2-y,1/2+z
loop_
_atom_site_type_symbol
_atom_site_label
_atom_site_fract_x
_atom_site_fract_y
_atom_site_fract_z
Si Si1 0.820538 0.111280 0.376704
Si Si2 0.828334 0.000000 0.913639
Si Si3 0.325676 0.500000 0.704104
Si Si4 0.177899 0.213959 0.942400
Si Si5 0.679831 0.153009 0.270211
O O1 0.754767 0.198034 0.411316
O O2 0.751720 0.116336 0.321600
O O3 0.000000 0.128760 0.372951
O O4 0.784929 0.000000 0.397774
O O5 0.750650 0.896358 0.932010
O O6 0.828038 0.000000 0.854765
O O7 0.000000 0.000000 0.935890
O O8 0.500000 0.500000 0.725103
O O9 0.225813 0.589040 0.723216
O O10 0.000000 0.212040 0.926955
O O11 0.202917 0.240596 0.000000
O O12 0.500000 0.159264 0.278270
O O13 0.750000 0.250000 0.250000
#
# Coordination Sequence:
#
# PCOD8291987 Si02
#       5
#    16   8   8  16  16
#     4  11  24  42  63  88 125 168 214 266 320 381
#     4   9  19  37  62  92 126 163 204 256 315 380
#     4  11  21  36  59  90 125 163 207 251 305 372
#     4  10  21  39  65  94 124 163 213 266 324 387
#     4  12  24  39  61  89 124 165 208 257 310 374
#
# _framework density 20.225304000000001
#
# number of rings (size 3 to 8) (size 9 to 14) (size 15 to 20)
#    0.000    1.250    1.250    5.250    0.000    6.000 
#    0.000    4.375    0.000    1.500    0.000    0.000 
#    0.000    0.000    0.000    0.000    0.000    0.000 
#
# Total GULP energy -396467.775573 kJ/mol
# GULP energy per Si atom -12389.617987 kJ/mol
# Density = 2.017927 g / cm^3
# Si number density = 20.225304 Si / 1000 Ang^3
#
#
#
# Elastic Constant Matrix: (Units=GPa)
#
#
# Indices 1 2 3 4 5 6 
#
# 1 95.7635 62.1542 40.5330 0.0000 0.0000 0.0000
# 2 62.1542 176.8370 41.3800 0.0000 0.0000 0.0000
# 3 40.5330 41.3800 82.1294 0.0000 0.0000 0.0000
# 4 0.0000 0.0000 0.0000 89.2036 0.0000 0.0000
# 5 0.0000 0.0000 0.0000 0.0000 29.2472 0.0000
# 6 0.0000 0.0000 0.0000 0.0000 0.0000 27.7177
#
#
#
# Elastic Compliance Matrix: (Units=1/GPa)
#
#
# Indices 1 2 3 4 5 6 
#
# 1 0.015481 -0.004142 -0.005554 0.000000 0.000000 0.000000
# 2 -0.004142 0.007519 -0.001744 0.000000 0.000000 0.000000
# 3 -0.005554 -0.001744 0.015796 0.000000 0.000000 0.000000
# 4 0.000000 0.000000 0.000000 0.011210 0.000000 0.000000
# 5 0.000000 0.000000 0.000000 0.000000 0.034191 0.000000
# 6 0.000000 0.000000 0.000000 0.000000 0.000000 0.036078
#
#
# Mechanical properties :
#
#
# Convention : Reuss Voigt Hill
#
# Bulk Modulus (GPa) = 62.82812 71.42936 67.12874
# Shear Modulus (GPa) = 33.67918 43.27789 38.47853
#
# Velocity S-wave (km/s) = 4.08511 4.63080 4.36649
# Velocity P-wave (km/s) = 7.30633 7.99912 7.66056
#
# Compressibility (1/GPa) = 0.01591644
#
# Stress axis : x y z
#
# Youngs Moduli (GPa) = 64.59467 133.00010 63.30895
#
# Poissons Ratio (x) = 0.55085 0.35159
# Poissons Ratio (y) = 0.26753 0.11042
# Poissons Ratio (z) = 0.35873 0.23198
#
# Static dielectric constant tensor:
#      x y z
#    x 3.742460 0.000000 0.000000 
#    y 0.000000 4.147780 0.000000 
#    z 0.000000 0.000000 3.560650 
# 
# 
# High freq. dielectric constant tensor:
#      x y z
#    x 1.777140 0.000000 0.000000 
#    y 0.000000 1.821220 0.000000 
#    z 0.000000 0.000000 1.793330 
# 
# From -- ./inp_files/67708.got.cif
#   From: 2010.06.25/outbox.cif.g09.slc.cpg/sg71_34_cif.got.tgz:67708.got - 2010.06.28 04:59:45.
