data_PCOD8291424
_publ_section_title
;
Structure prediction by ZEFSAII (Michael W. Deem and Ramdas Pophale) SiO2 
 PCOD8291424
Probable space group: I M M M
;
_chemical_formula_sum "Si O2"
_cell_formula_units_Z 96
_cell_length_a 18.550028
_cell_length_b 9.243316
_cell_length_c 32.487272
_cell_angle_alpha 90.000000
_cell_angle_beta 90.000000
_cell_angle_gamma 90.000000
_cell_volume 5570.390154
_symmetry_space_group_name_H-M "I M M M"
_symmetry_group_IT_number 71
_symmetry_cell_setting 'orthorhombic'
loop_
_space_group_symop_operation_xyz
x,y,z
-x,-y,z
x,-y,-z
-x,y,-z
-x,-y,-z
x,y,-z
-x,y,z
x,-y,z
1/2+x,1/2+y,1/2+z
1/2-x,1/2-y,1/2+z
1/2+x,1/2-y,1/2-z
1/2-x,1/2+y,1/2-z
1/2-x,1/2-y,1/2-z
1/2+x,1/2+y,1/2-z
1/2-x,1/2+y,1/2+z
1/2+x,1/2-y,1/2+z
loop_
_atom_site_type_symbol
_atom_site_label
_atom_site_fract_x
_atom_site_fract_y
_atom_site_fract_z
Si Si1 0.418322 0.331141 0.671928
Si Si2 0.149020 0.331459 0.663921
Si Si3 0.787385 0.833436 0.546761
Si Si4 0.918217 0.329589 0.419605
Si Si5 0.415974 0.832464 0.246707
Si Si6 0.789130 0.168570 0.116363
O O1 0.500000 0.286060 0.660404
O O2 0.412018 0.500000 0.681417
O O3 0.390803 0.250143 0.712493
O O4 0.367743 0.288626 0.633434
O O5 0.135816 0.500000 0.669544
O O6 0.096972 0.277425 0.627143
O O7 0.126986 0.262488 0.707826
O O8 0.231280 0.294548 0.652155
O O9 0.760257 0.818869 0.500000
O O10 0.864813 0.755518 0.550289
O O11 0.727073 0.759951 0.575532
O O12 0.796221 0.000000 0.559762
O O13 0.902279 0.500000 0.424089
O O14 0.000000 0.292012 0.431788
O O15 0.500000 0.807932 0.238093
O O16 0.397621 0.000000 0.253637
O O17 0.784040 0.000000 0.104488
#
# Coordination Sequence:
#
# PCOD8291424 Si02
#       6
#    16  16  16  16  16  16
#     4   9  18  32  48  68  95 122 149 188 238 284
#     4   8  14  26  44  66  92 123 161 199 227 254
#     4  10  21  35  50  70  96 122 148 187 240 287
#     4   9  17  30  49  71  96 130 169 201 226 259
#     4   9  16  26  42  64  91 125 161 192 224 265
#     4   9  18  33  52  70  89 119 157 193 231 279
#
# _framework density 17.233982000000001
#
# number of rings (size 3 to 8) (size 9 to 14) (size 15 to 20)
#    0.000    3.000    0.000    2.000    0.000    5.333 
#    0.000    5.000    0.000    4.500    0.000    3.500 
#    0.000    0.000    0.000    0.000    0.000    0.000 
#
# Total GULP energy -595055.816504 kJ/mol
# GULP energy per Si atom -12396.996177 kJ/mol
# Density = 1.719476 g / cm^3
# Si number density = 17.233982 Si / 1000 Ang^3
#
#
#
# Elastic Constant Matrix: (Units=GPa)
#
#
# Indices 1 2 3 4 5 6 
#
# 1 78.9809 36.1706 58.7483 0.0000 0.0000 0.0000
# 2 36.1706 58.5928 50.5545 0.0000 0.0000 0.0000
# 3 58.7483 50.5545 111.8355 0.0000 0.0000 0.0000
# 4 0.0000 0.0000 0.0000 27.2702 0.0000 0.0000
# 5 0.0000 0.0000 0.0000 0.0000 17.8312 0.0000
# 6 0.0000 0.0000 0.0000 0.0000 0.0000 15.8478
#
#
#
# Elastic Compliance Matrix: (Units=1/GPa)
#
#
# Indices 1 2 3 4 5 6 
#
# 1 0.021962 -0.005908 -0.008866 0.000000 0.000000 0.000000
# 2 -0.005908 0.029569 -0.010263 0.000000 0.000000 0.000000
# 3 -0.008866 -0.010263 0.018239 0.000000 0.000000 0.000000
# 4 0.000000 0.000000 0.000000 0.036670 0.000000 0.000000
# 5 0.000000 0.000000 0.000000 0.000000 0.056081 0.000000
# 6 0.000000 0.000000 0.000000 0.000000 0.000000 0.063100
#
#
# Mechanical properties :
#
#
# Convention : Reuss Voigt Hill
#
# Bulk Modulus (GPa) = 50.77330 60.03956 55.40643
# Shear Modulus (GPa) = 17.71417 19.11891 18.41654
#
# Velocity S-wave (km/s) = 3.20951 3.33434 3.27252
# Velocity P-wave (km/s) = 6.57721 7.05247 6.81898
#
# Compressibility (1/GPa) = 0.01969539
#
# Stress axis : x y z
#
# Youngs Moduli (GPa) = 45.53377 33.81926 54.82880
#
# Poissons Ratio (x) = 0.19979 0.48612
# Poissons Ratio (y) = 0.26899 0.56272
# Poissons Ratio (z) = 0.40371 0.34709
#
# Static dielectric constant tensor:
#      x y z
#    x 3.234760 0.000000 0.000000 
#    y 0.000000 3.055500 0.000000 
#    z 0.000000 0.000000 3.181680 
# 
# 
# High freq. dielectric constant tensor:
#      x y z
#    x 1.654170 0.000000 0.000000 
#    y 0.000000 1.645160 0.000000 
#    z 0.000000 0.000000 1.658940 
# 
# From -- ./inp_files/10953.got.cif
#   From: 2010.06.25/outbox.cif.g09.slc.cpg/sg71_6_cif.got.tgz:10953.got - 2010.06.28 04:59:45.
