data_PCOD8291057
_publ_section_title
;
Structure prediction by ZEFSAII (Michael W. Deem and Ramdas Pophale) SiO2 
 PCOD8291057
Probable space group: I M M M
;
_chemical_formula_sum "Si O2"
_cell_formula_units_Z 88
_cell_length_a 20.580335
_cell_length_b 24.630913
_cell_length_c 8.740967
_cell_angle_alpha 90.000000
_cell_angle_beta 90.000000
_cell_angle_gamma 90.000000
_cell_volume 4430.904918
_symmetry_space_group_name_H-M "I M M M"
_symmetry_group_IT_number 71
_symmetry_cell_setting 'orthorhombic'
loop_
_space_group_symop_operation_xyz
x,y,z
-x,-y,z
x,-y,-z
-x,y,-z
-x,-y,-z
x,y,-z
-x,y,z
x,-y,z
1/2+x,1/2+y,1/2+z
1/2-x,1/2-y,1/2+z
1/2+x,1/2-y,1/2-z
1/2-x,1/2+y,1/2-z
1/2-x,1/2-y,1/2-z
1/2+x,1/2+y,1/2-z
1/2-x,1/2+y,1/2+z
1/2+x,1/2-y,1/2+z
loop_
_atom_site_type_symbol
_atom_site_label
_atom_site_fract_x
_atom_site_fract_y
_atom_site_fract_z
Si Si1 0.137216 0.605459 0.317751
Si Si2 0.207784 0.500000 0.321376
Si Si3 0.343070 0.500000 0.177527
Si Si4 0.925436 0.786295 0.823868
Si Si5 0.926267 0.102992 0.672170
Si Si6 0.686977 0.779239 0.820632
Si Si7 0.000000 0.437402 0.318206
O O1 0.138573 0.607699 0.500000
O O2 0.176512 0.554250 0.250261
O O3 0.172688 0.660025 0.254953
O O4 0.062813 0.596846 0.260775
O O5 0.193170 0.500000 0.500000
O O6 0.282973 0.500000 0.289070
O O7 0.383172 0.552768 0.221858
O O8 0.322528 0.500000 0.000000
O O9 0.912621 0.849437 0.792027
O O10 0.878593 0.753023 0.714330
O O11 0.000000 0.771088 0.784242
O O12 0.909087 0.774125 0.000000
O O13 0.909607 0.122983 0.500000
O O14 0.000000 0.082945 0.680580
O O15 0.750000 0.750000 0.750000
O O16 0.699293 0.781028 0.000000
O O17 0.000000 0.500000 0.255434
O O18 0.000000 0.441121 0.500000
#
# Coordination Sequence:
#
# PCOD8291057 Si02
#       7
#    16   8   8  16  16  16   8
#     4   9  19  34  56  86 116 146 186 234 287 348
#     4  10  20  36  55  83 116 149 184 228 287 346
#     4  10  21  34  53  83 113 147 188 232 287 347
#     4  10  22  40  60  84 116 153 195 244 295 348
#     4   9  18  35  58  82 110 145 188 238 288 342
#     4  11  24  40  60  87 119 158 201 246 295 353
#     4   9  14  28  56  88 118 142 174 231 294 345
#
# _framework density 19.860502
#
# number of rings (size 3 to 8) (size 9 to 14) (size 15 to 20)
#    0.000    2.273    0.909    1.364    3.818    2.909 
#    0.000    0.909    0.000    2.727    0.000    0.636 
#    0.000    0.000    0.000    0.000    0.000    0.000 
#
# Total GULP energy -545451.289888 kJ/mol
# GULP energy per Si atom -12396.620225 kJ/mol
# Density = 1.981530 g / cm^3
# Si number density = 19.860502 Si / 1000 Ang^3
#
#
#
# Elastic Constant Matrix: (Units=GPa)
#
#
# Indices 1 2 3 4 5 6 
#
# 1 133.8177 92.0493 25.7304 0.0000 0.0000 0.0000
# 2 92.0493 145.4081 20.3483 0.0000 0.0000 0.0000
# 3 25.7304 20.3483 28.2474 0.0000 0.0000 0.0000
# 4 0.0000 0.0000 0.0000 19.8923 0.0000 0.0000
# 5 0.0000 0.0000 0.0000 0.0000 29.7705 0.0000
# 6 0.0000 0.0000 0.0000 0.0000 0.0000 42.6445
#
#
#
# Elastic Compliance Matrix: (Units=1/GPa)
#
#
# Indices 1 2 3 4 5 6 
#
# 1 0.014483 -0.008143 -0.007327 0.000000 0.000000 0.000000
# 2 -0.008143 0.012227 -0.001390 0.000000 0.000000 0.000000
# 3 -0.007327 -0.001390 0.043077 0.000000 0.000000 0.000000
# 4 0.000000 0.000000 0.000000 0.050271 0.000000 0.000000
# 5 0.000000 0.000000 0.000000 0.000000 0.033590 0.000000
# 6 0.000000 0.000000 0.000000 0.000000 0.000000 0.023450
#
#
# Mechanical properties :
#
#
# Convention : Reuss Voigt Hill
#
# Bulk Modulus (GPa) = 27.72637 64.85880 46.29259
# Shear Modulus (GPa) = 22.43781 29.75117 26.09449
#
# Velocity S-wave (km/s) = 3.36485 3.87461 3.62869
# Velocity P-wave (km/s) = 5.39325 7.26257 6.39656
#
# Compressibility (1/GPa) = 0.03606675
#
# Stress axis : x y z
#
# Youngs Moduli (GPa) = 69.04676 81.78896 23.21451
#
# Poissons Ratio (x) = 0.66601 0.17008
# Poissons Ratio (y) = 0.56225 0.03227
# Poissons Ratio (z) = 0.50587 0.11369
#
# Static dielectric constant tensor:
#      x y z
#    x 3.683730 0.000000 0.000000 
#    y 0.000000 3.858530 0.000000 
#    z 0.000000 0.000000 3.223500 
# 
# 
# High freq. dielectric constant tensor:
#      x y z
#    x 1.784560 0.000000 0.000000 
#    y 0.000000 1.784520 0.000000 
#    z 0.000000 0.000000 1.737930 
# 
# From -- ./inp_files/10515.got.cif
#   From: 2010.06.25/outbox.cif.g09.slc.cpg/sg71_6_cif.got.tgz:10515.got - 2010.06.28 04:59:45.
