data_PCOD8291149
_publ_section_title
;
Structure prediction by ZEFSAII (Michael W. Deem and Ramdas Pophale) SiO2 
 PCOD8291149
Probable space group: I M M M
;
_chemical_formula_sum "Si O2"
_cell_formula_units_Z 88
_cell_length_a 8.872380
_cell_length_b 19.503848
_cell_length_c 24.983506
_cell_angle_alpha 90.000000
_cell_angle_beta 90.000000
_cell_angle_gamma 90.000000
_cell_volume 4323.284560
_symmetry_space_group_name_H-M "I M M M"
_symmetry_group_IT_number 71
_symmetry_cell_setting 'orthorhombic'
loop_
_space_group_symop_operation_xyz
x,y,z
-x,-y,z
x,-y,-z
-x,y,-z
-x,-y,-z
x,y,-z
-x,y,z
x,-y,z
1/2+x,1/2+y,1/2+z
1/2-x,1/2-y,1/2+z
1/2+x,1/2-y,1/2-z
1/2-x,1/2+y,1/2-z
1/2-x,1/2-y,1/2-z
1/2+x,1/2+y,1/2-z
1/2-x,1/2+y,1/2+z
1/2+x,1/2-y,1/2+z
loop_
_atom_site_type_symbol
_atom_site_label
_atom_site_fract_x
_atom_site_fract_y
_atom_site_fract_z
Si Si1 0.825243 0.321600 0.086235
Si Si2 0.834134 0.828438 0.058981
Si Si3 0.169816 0.077479 0.757753
Si Si4 0.668872 0.924008 0.865904
Si Si5 0.178607 0.080939 0.500000
Si Si6 0.675329 0.197668 0.292538
O O1 0.800038 0.252118 0.053444
O O2 0.764029 0.301955 0.146131
O O3 0.000000 0.343691 0.089381
O O4 0.739947 0.382719 0.054535
O O5 0.703849 0.866770 0.090680
O O6 0.000000 0.839467 0.085542
O O7 0.833698 0.860129 0.000000
O O8 0.208372 0.083298 0.819882
O O9 0.290802 0.120673 0.725304
O O10 0.000000 0.105176 0.749335
O O11 0.184278 0.000000 0.737080
O O12 0.500000 0.911299 0.843657
O O13 0.680865 0.000000 0.891448
O O14 0.000000 0.088556 0.500000
O O15 0.224884 0.000000 0.500000
O O16 0.500000 0.214523 0.291493
O O17 0.750000 0.250000 0.250000
#
# Coordination Sequence:
#
# PCOD8291149 Si02
#       6
#    16  16  16  16   8  16
#     4  10  22  42  64  88 120 159 203 250 304 368
#     4  10  20  36  59  83 111 149 195 243 290 348
#     4  10  21  38  59  82 114 156 198 242 295 354
#     4  10  21  36  55  82 117 155 196 243 292 347
#     4  11  25  43  65  95 126 159 206 263 319 376
#     4  11  23  38  62  94 126 161 204 254 308 372
#
# _framework density 20.354894000000002
#
# number of rings (size 3 to 8) (size 9 to 14) (size 15 to 20)
#    0.000    1.727    0.909    3.000    0.000    8.000 
#    0.000    5.455    0.000    0.000    0.000    0.000 
#    0.000    0.000    0.000    0.000    0.000    0.000 
#
# Total GULP energy -545309.836581 kJ/mol
# GULP energy per Si atom -12393.405377 kJ/mol
# Density = 2.030857 g / cm^3
# Si number density = 20.354894 Si / 1000 Ang^3
#
#
#
# Elastic Constant Matrix: (Units=GPa)
#
#
# Indices 1 2 3 4 5 6 
#
# 1 67.5733 41.0314 35.4590 0.0000 0.0000 0.0000
# 2 41.0314 84.6962 48.1265 0.0000 0.0000 0.0000
# 3 35.4590 48.1265 111.9564 0.0000 0.0000 0.0000
# 4 0.0000 0.0000 0.0000 36.2434 0.0000 0.0000
# 5 0.0000 0.0000 0.0000 0.0000 31.9792 0.0000
# 6 0.0000 0.0000 0.0000 0.0000 0.0000 35.5246
#
#
#
# Elastic Compliance Matrix: (Units=1/GPa)
#
#
# Indices 1 2 3 4 5 6 
#
# 1 0.021762 -0.008768 -0.003123 0.000000 0.000000 0.000000
# 2 -0.008768 0.019156 -0.005457 0.000000 0.000000 0.000000
# 3 -0.003123 -0.005457 0.012267 0.000000 0.000000 0.000000
# 4 0.000000 0.000000 0.000000 0.027591 0.000000 0.000000
# 5 0.000000 0.000000 0.000000 0.000000 0.031270 0.000000
# 6 0.000000 0.000000 0.000000 0.000000 0.000000 0.028149
#
#
# Mechanical properties :
#
#
# Convention : Reuss Voigt Hill
#
# Bulk Modulus (GPa) = 54.09116 57.05108 55.57112
# Shear Modulus (GPa) = 27.61593 30.05672 28.83633
#
# Velocity S-wave (km/s) = 3.68737 3.84687 3.76796
# Velocity P-wave (km/s) = 6.69034 6.91522 6.80371
#
# Compressibility (1/GPa) = 0.01848731
#
# Stress axis : x y z
#
# Youngs Moduli (GPa) = 45.95248 52.20430 81.51772
#
# Poissons Ratio (x) = 0.45771 0.25461
# Poissons Ratio (y) = 0.40290 0.44488
# Poissons Ratio (z) = 0.14353 0.28490
#
# Static dielectric constant tensor:
#      x y z
#    x 3.671780 0.000000 0.000000 
#    y 0.000000 3.760370 0.000000 
#    z 0.000000 0.000000 3.709540 
# 
# 
# High freq. dielectric constant tensor:
#      x y z
#    x 1.793390 0.000000 0.000000 
#    y 0.000000 1.798870 0.000000 
#    z 0.000000 0.000000 1.791970 
# 
# From -- ./inp_files/10486.got.cif
#   From: 2010.06.25/outbox.cif.g09.slc.cpg/sg71_6_cif.got.tgz:10486.got - 2010.06.28 04:59:45.
