data_PCOD8291588
_publ_section_title
;
Structure prediction by ZEFSAII (Michael W. Deem and Ramdas Pophale) SiO2 
 PCOD8291588
Probable space group: I M M M
;
_chemical_formula_sum "Si O2"
_cell_formula_units_Z 96
_cell_length_a 15.298377
_cell_length_b 23.355491
_cell_length_c 13.950898
_cell_angle_alpha 90.000000
_cell_angle_beta 90.000000
_cell_angle_gamma 90.000000
_cell_volume 4984.671290
_symmetry_space_group_name_H-M "I M M M"
_symmetry_group_IT_number 71
_symmetry_cell_setting 'orthorhombic'
loop_
_space_group_symop_operation_xyz
x,y,z
-x,-y,z
x,-y,-z
-x,y,-z
-x,-y,-z
x,y,-z
-x,y,z
x,-y,z
1/2+x,1/2+y,1/2+z
1/2-x,1/2-y,1/2+z
1/2+x,1/2-y,1/2-z
1/2-x,1/2+y,1/2-z
1/2-x,1/2-y,1/2-z
1/2+x,1/2+y,1/2-z
1/2-x,1/2+y,1/2+z
1/2+x,1/2-y,1/2+z
loop_
_atom_site_type_symbol
_atom_site_label
_atom_site_fract_x
_atom_site_fract_y
_atom_site_fract_z
Si Si1 0.154945 0.747440 0.611209
Si Si2 0.500000 0.567673 0.890650
Si Si3 0.668241 0.317586 0.607441
Si Si4 0.500000 0.178276 0.199874
Si Si5 0.000000 0.435721 0.214417
Si Si6 0.681037 0.065326 0.610599
Si Si7 0.338555 0.370470 0.201056
Si Si8 0.500000 0.239949 0.606003
O O1 0.139059 0.759782 0.500000
O O2 0.250334 0.722944 0.631931
O O3 0.141874 0.806272 0.667184
O O4 0.085336 0.701436 0.647615
O O5 0.500000 0.500000 0.889625
O O6 0.414106 0.588414 0.836233
O O7 0.500000 0.590723 0.000000
O O8 0.676017 0.343367 0.500000
O O9 0.663257 0.369957 0.682812
O O10 0.583496 0.279368 0.619112
O O11 0.500000 0.108859 0.196611
O O12 0.500000 0.191621 0.313434
O O13 0.083874 0.425637 0.148202
O O14 0.000000 0.500000 0.257663
O O15 0.683460 0.082804 0.500000
O O16 0.745202 0.107856 0.665658
O O17 0.712397 0.000000 0.625254
O O18 0.500000 0.211226 0.500000
#
# Coordination Sequence:
#
# PCOD8291588 Si02
#       8
#    16   8  16   8   8  16  16   8
#     4  11  23  37  58  89 122 151 186 237 291 347
#     4  11  24  40  59  87 120 153 194 241 287 340
#     4  10  22  39  56  83 119 154 192 234 284 339
#     4  12  22  38  58  83 116 154 191 235 288 346
#     4  10  23  39  57  81 113 155 197 239 284 336
#     4  10  21  37  57  84 118 153 192 239 289 342
#     4  12  21  37  61  86 115 157 194 230 287 348
#     4  10  21  36  54  80 115 153 192 230 276 338
#
# _framework density 19.259042999999998
#
# number of rings (size 3 to 8) (size 9 to 14) (size 15 to 20)
#    0.000    1.250    1.667    5.000    2.333    3.000 
#    0.000    0.000    0.000    3.500    0.000    9.333 
#    0.000    0.000    0.000    0.000    0.000    0.000 
#
# Total GULP energy -595374.832113 kJ/mol
# GULP energy per Si atom -12403.642336 kJ/mol
# Density = 1.921521 g / cm^3
# Si number density = 19.259043 Si / 1000 Ang^3
#
#
#
# Elastic Constant Matrix: (Units=GPa)
#
#
# Indices 1 2 3 4 5 6 
#
# 1 133.6632 41.5296 39.8123 0.0000 0.0000 0.0000
# 2 41.5296 84.1390 43.0106 0.0000 0.0000 0.0000
# 3 39.8123 43.0106 106.6440 0.0001 0.0000 0.0000
# 4 0.0000 0.0000 0.0001 30.9243 0.0000 0.0000
# 5 0.0000 0.0000 0.0000 0.0000 32.4162 0.0000
# 6 0.0000 0.0000 0.0000 0.0000 0.0000 25.7488
#
#
#
# Elastic Compliance Matrix: (Units=1/GPa)
#
#
# Indices 1 2 3 4 5 6 
#
# 1 0.009167 -0.003496 -0.002012 0.000000 0.000000 0.000000
# 2 -0.003496 0.016305 -0.005271 0.000000 0.000000 0.000000
# 3 -0.002012 -0.005271 0.012254 0.000000 0.000000 0.000000
# 4 0.000000 0.000000 0.000000 0.032337 0.000000 0.000000
# 5 0.000000 0.000000 0.000000 0.000000 0.030849 0.000000
# 6 0.000000 0.000000 0.000000 0.000000 0.000000 0.038837
#
#
# Mechanical properties :
#
#
# Convention : Reuss Voigt Hill
#
# Bulk Modulus (GPa) = 61.85134 63.68347 62.76741
# Shear Modulus (GPa) = 29.99464 31.15743 30.57604
#
# Velocity S-wave (km/s) = 3.95071 4.02656 3.98882
# Velocity P-wave (km/s) = 7.27984 7.39974 7.34003
#
# Compressibility (1/GPa) = 0.01616780
#
# Stress axis : x y z
#
# Youngs Moduli (GPa) = 109.08573 61.33057 81.60607
#
# Poissons Ratio (x) = 0.21442 0.16421
# Poissons Ratio (y) = 0.38137 0.43013
# Poissons Ratio (z) = 0.21951 0.32326
#
# Static dielectric constant tensor:
#      x y z
#    x 3.680050 0.000000 0.000000 
#    y 0.000000 3.453240 0.000000 
#    z 0.000000 0.000000 3.825970 
# 
# 
# High freq. dielectric constant tensor:
#      x y z
#    x 1.773810 0.000000 0.000000 
#    y 0.000000 1.731890 0.000000 
#    z 0.000000 0.000000 1.752400 
# 
# From -- ./inp_files/34578.got.cif
#   From: 2010.06.25/outbox.cif.g09.slc.cpg/sg71_18_cif.got.tgz:34578.got - 2010.06.28 04:59:45.
