data_PCOD8291292
_publ_section_title
;
Structure prediction by ZEFSAII (Michael W. Deem and Ramdas Pophale) SiO2 
 PCOD8291292
Probable space group: I M M M
;
_chemical_formula_sum "Si O2"
_cell_formula_units_Z 104
_cell_length_a 28.355671
_cell_length_b 9.107870
_cell_length_c 20.651691
_cell_angle_alpha 90.000000
_cell_angle_beta 90.000000
_cell_angle_gamma 90.000000
_cell_volume 5333.500869
_symmetry_space_group_name_H-M "I M M M"
_symmetry_group_IT_number 71
_symmetry_cell_setting 'orthorhombic'
loop_
_space_group_symop_operation_xyz
x,y,z
-x,-y,z
x,-y,-z
-x,y,-z
-x,-y,-z
x,y,-z
-x,y,z
x,-y,z
1/2+x,1/2+y,1/2+z
1/2-x,1/2-y,1/2+z
1/2+x,1/2-y,1/2-z
1/2-x,1/2+y,1/2-z
1/2-x,1/2-y,1/2-z
1/2+x,1/2+y,1/2-z
1/2-x,1/2+y,1/2+z
1/2+x,1/2-y,1/2+z
loop_
_atom_site_type_symbol
_atom_site_label
_atom_site_fract_x
_atom_site_fract_y
_atom_site_fract_z
Si Si1 0.638961 0.166753 0.926564
Si Si2 0.398066 0.169603 0.620265
Si Si3 0.444267 0.337449 0.731696
Si Si4 0.193294 0.669131 0.807336
Si Si5 0.800674 0.171872 0.678039
Si Si6 0.946346 0.830363 0.378717
Si Si7 0.445239 0.325723 0.500000
O O1 0.674206 0.260562 0.883583
O O2 0.586211 0.231614 0.924083
O O3 0.638223 0.000000 0.901560
O O4 0.657114 0.175795 0.000000
O O5 0.423933 0.210490 0.686706
O O6 0.342357 0.199145 0.632714
O O7 0.417977 0.267519 0.562574
O O8 0.407812 0.000000 0.603689
O O9 0.500000 0.332390 0.727405
O O10 0.426864 0.500000 0.709524
O O11 0.428362 0.308182 0.805173
O O12 0.190809 0.500000 0.785786
O O13 0.178515 0.764735 0.745043
O O14 0.245597 0.712132 0.829955
O O15 0.810206 0.000000 0.678357
O O16 0.000000 0.776695 0.387065
O O17 0.941862 0.000000 0.398922
O O18 0.442754 0.500000 0.500000
O O19 0.500000 0.273490 0.500000
#
# Coordination Sequence:
#
# PCOD8291292 Si02
#       7
#    16  16  16  16  16  16   8
#     4  11  24  39  54  77 113 153 190 230 278 330
#     4  11  22  36  56  83 113 145 183 230 283 338
#     4   9  18  33  53  79 111 143 178 224 275 326
#     4   9  20  38  60  88 118 144 176 228 290 342
#     4  10  20  37  62  88 113 147 188 230 279 338
#     4   9  19  36  58  84 112 144 187 235 278 328
#     4  11  25  43  59  77 109 153 197 239 284 339
#
# _framework density 19.499388
#
# number of rings (size 3 to 8) (size 9 to 14) (size 15 to 20)
#    0.000    2.077    0.000    3.923    0.000    9.538 
#    1.385    3.077    0.000    0.000    0.000    0.000 
#    0.000    0.000    0.000    0.000    0.000    0.000 
#
# Total GULP energy -644902.413783 kJ/mol
# GULP energy per Si atom -12401.969496 kJ/mol
# Density = 1.945501 g / cm^3
# Si number density = 19.499388 Si / 1000 Ang^3
#
#
#
# Elastic Constant Matrix: (Units=GPa)
#
#
# Indices 1 2 3 4 5 6 
#
# 1 77.9095 46.4615 52.5605 0.0000 0.0000 0.0000
# 2 46.4615 91.9746 49.0299 0.0000 0.0000 0.0000
# 3 52.5605 49.0299 83.7364 0.0000 0.0000 0.0000
# 4 0.0000 0.0000 0.0000 31.4316 0.0000 0.0000
# 5 0.0000 0.0000 0.0000 0.0000 28.1024 0.0000
# 6 0.0000 0.0000 0.0000 0.0000 0.0000 29.4800
#
#
#
# Elastic Compliance Matrix: (Units=1/GPa)
#
#
# Indices 1 2 3 4 5 6 
#
# 1 0.024373 -0.006043 -0.011761 0.000000 0.000000 0.000000
# 2 -0.006043 0.017304 -0.006339 0.000000 0.000000 0.000000
# 3 -0.011761 -0.006339 0.023036 0.000000 0.000000 0.000000
# 4 0.000000 0.000000 0.000000 0.031815 0.000000 0.000000
# 5 0.000000 0.000000 0.000000 0.000000 0.035584 0.000000
# 6 0.000000 0.000000 0.000000 0.000000 0.000000 0.033921
#
#
# Mechanical properties :
#
#
# Convention : Reuss Voigt Hill
#
# Bulk Modulus (GPa) = 60.87015 61.08047 60.97531
# Shear Modulus (GPa) = 22.74842 24.84070 23.79456
#
# Velocity S-wave (km/s) = 3.41929 3.57308 3.49703
# Velocity P-wave (km/s) = 6.84638 6.95808 6.90245
#
# Compressibility (1/GPa) = 0.01642841
#
# Stress axis : x y z
#
# Youngs Moduli (GPa) = 41.02867 57.78849 43.41044
#
# Poissons Ratio (x) = 0.34921 0.51053
# Poissons Ratio (y) = 0.24793 0.27519
# Poissons Ratio (z) = 0.48252 0.36633
#
# Static dielectric constant tensor:
#      x y z
#    x 3.706210 0.000000 0.000000 
#    y 0.000000 3.696030 0.000000 
#    z 0.000000 0.000000 3.494600 
# 
# 
# High freq. dielectric constant tensor:
#      x y z
#    x 1.768040 0.000000 0.000000 
#    y 0.000000 1.763650 0.000000 
#    z 0.000000 0.000000 1.748660 
# 
# From -- ./inp_files/56268.got.cif
#   From: 2010.06.25/outbox.cif.g09.slc.cpg/sg71_29_cif.got.tgz:56268.got - 2010.06.28 04:59:45.
