data_PCOD8291955
_publ_section_title
;
Structure prediction by ZEFSAII (Michael W. Deem and Ramdas Pophale) SiO2 
 PCOD8291955
Probable space group: I M M M
;
_chemical_formula_sum "Si O2"
_cell_formula_units_Z 56
_cell_length_a 11.671582
_cell_length_b 15.824828
_cell_length_c 14.511191
_cell_angle_alpha 90.000000
_cell_angle_beta 90.000000
_cell_angle_gamma 90.000000
_cell_volume 2680.228262
_symmetry_space_group_name_H-M "I M M M"
_symmetry_group_IT_number 71
_symmetry_cell_setting 'orthorhombic'
loop_
_space_group_symop_operation_xyz
x,y,z
-x,-y,z
x,-y,-z
-x,y,-z
-x,-y,-z
x,y,-z
-x,y,z
x,-y,z
1/2+x,1/2+y,1/2+z
1/2-x,1/2-y,1/2+z
1/2+x,1/2-y,1/2-z
1/2-x,1/2+y,1/2-z
1/2-x,1/2-y,1/2-z
1/2+x,1/2+y,1/2-z
1/2-x,1/2+y,1/2+z
1/2+x,1/2-y,1/2+z
loop_
_atom_site_type_symbol
_atom_site_label
_atom_site_fract_x
_atom_site_fract_y
_atom_site_fract_z
Si Si1 0.760287 0.899497 0.000000
Si Si2 0.124014 0.404596 0.676212
Si Si3 0.761117 0.826203 0.677552
Si Si4 0.129915 0.265701 0.000000
Si Si5 0.500000 0.399620 0.109480
O O1 0.690358 0.866530 0.911261
O O2 0.870396 0.837639 0.000000
O O3 0.793026 0.000000 0.000000
O O4 0.101591 0.500000 0.649222
O O5 0.196468 0.402158 0.770231
O O6 0.000000 0.358483 0.687059
O O7 0.750000 0.750000 0.750000
O O8 0.693170 0.805347 0.586442
O O9 0.890330 0.854622 0.655565
O O10 0.000000 0.296729 0.000000
O O11 0.500000 0.500000 0.131431
O O12 0.500000 0.384557 0.000000
#
# Coordination Sequence:
#
# PCOD8291955 Si02
#       5
#     8  16  16   8   8
#     4  10  21  39  62  94 133 178 223 267 330 411
#     4  10  21  39  64  95 130 168 213 268 330 398
#     4  12  25  42  68  98 131 173 224 278 337 399
#     4  12  26  43  60  95 134 168 217 281 344 401
#     4  11  26  50  74  99 137 186 237 284 338 412
#
# _framework density 20.893742
#
# number of rings (size 3 to 8) (size 9 to 14) (size 15 to 20)
#    0.000    1.000    4.286    2.143    4.000    2.000 
#    2.571    0.000    0.000    3.429    0.000    0.000 
#    0.000    0.000    0.000    0.000    0.000    0.000 
#
# Total GULP energy -346961.843115 kJ/mol
# GULP energy per Si atom -12391.494397 kJ/mol
# Density = 2.084619 g / cm^3
# Si number density = 20.893742 Si / 1000 Ang^3
#
#
#
# Elastic Constant Matrix: (Units=GPa)
#
#
# Indices 1 2 3 4 5 6 
#
# 1 169.9137 50.3747 78.8880 0.0000 0.0000 0.0000
# 2 50.3747 67.2333 41.1112 0.0000 0.0000 0.0000
# 3 78.8880 41.1112 174.8805 0.0000 0.0000 0.0000
# 4 0.0000 0.0000 0.0000 36.6112 0.0000 0.0000
# 5 0.0000 0.0000 0.0000 0.0000 14.9355 0.0000
# 6 0.0000 0.0000 0.0000 0.0000 0.0000 32.2635
#
#
#
# Elastic Compliance Matrix: (Units=1/GPa)
#
#
# Indices 1 2 3 4 5 6 
#
# 1 0.008567 -0.004737 -0.002751 0.000000 0.000000 0.000000
# 2 -0.004737 0.019989 -0.002562 0.000000 0.000000 0.000000
# 3 -0.002751 -0.002562 0.007562 0.000000 0.000000 0.000000
# 4 0.000000 0.000000 0.000000 0.027314 0.000000 0.000000
# 5 0.000000 0.000000 0.000000 0.000000 0.066954 0.000000
# 6 0.000000 0.000000 0.000000 0.000000 0.000000 0.030995
#
#
# Mechanical properties :
#
#
# Convention : Reuss Voigt Hill
#
# Bulk Modulus (GPa) = 62.43110 83.64168 73.03639
# Shear Modulus (GPa) = 26.76369 32.87230 29.81800
#
# Velocity S-wave (km/s) = 3.58291 3.97080 3.78183
# Velocity P-wave (km/s) = 6.86014 7.81932 7.35538
#
# Compressibility (1/GPa) = 0.01601766
#
# Stress axis : x y z
#
# Youngs Moduli (GPa) = 116.72920 50.02661 132.24815
#
# Poissons Ratio (x) = 0.23695 0.36381
# Poissons Ratio (y) = 0.55290 0.33888
# Poissons Ratio (z) = 0.32112 0.12819
#
# Static dielectric constant tensor:
#      x y z
#    x 4.217750 0.000000 0.000000 
#    y 0.000000 3.911250 0.000000 
#    z 0.000000 0.000000 4.322920 
# 
# 
# High freq. dielectric constant tensor:
#      x y z
#    x 1.822910 0.000000 0.000000 
#    y 0.000000 1.818730 0.000000 
#    z 0.000000 0.000000 1.834740 
# 
# From -- ./inp_files/32243.got.cif
#   From: 2010.06.25/outbox.cif.g09.slc.cpg/sg71_17_cif.got.tgz:32243.got - 2010.06.28 04:59:45.
