data_PCOD8291167
_publ_section_title
;
Structure prediction by ZEFSAII (Michael W. Deem and Ramdas Pophale) SiO2 
 PCOD8291167
Probable space group: I M M M
;
_chemical_formula_sum "Si O2"
_cell_formula_units_Z 72
_cell_length_a 24.359703
_cell_length_b 8.892929
_cell_length_c 16.867580
_cell_angle_alpha 90.000000
_cell_angle_beta 90.000000
_cell_angle_gamma 90.000000
_cell_volume 3654.008830
_symmetry_space_group_name_H-M "I M M M"
_symmetry_group_IT_number 71
_symmetry_cell_setting 'orthorhombic'
loop_
_space_group_symop_operation_xyz
x,y,z
-x,-y,z
x,-y,-z
-x,y,-z
-x,-y,-z
x,y,-z
-x,y,z
x,-y,z
1/2+x,1/2+y,1/2+z
1/2-x,1/2-y,1/2+z
1/2+x,1/2-y,1/2-z
1/2-x,1/2+y,1/2-z
1/2-x,1/2-y,1/2-z
1/2+x,1/2+y,1/2-z
1/2-x,1/2+y,1/2+z
1/2+x,1/2-y,1/2+z
loop_
_atom_site_type_symbol
_atom_site_label
_atom_site_fract_x
_atom_site_fract_y
_atom_site_fract_z
Si Si1 0.564402 0.177384 0.500000
Si Si2 0.246820 0.827743 0.588117
Si Si3 0.857877 0.178382 0.874727
Si Si4 0.648885 0.323021 0.804419
Si Si5 0.436664 0.170309 0.910173
O O1 0.500000 0.217235 0.500000
O O2 0.591576 0.246530 0.421073
O O3 0.574603 0.000000 0.500000
O O4 0.220478 0.819342 0.500000
O O5 0.300685 0.725647 0.586531
O O6 0.203327 0.760090 0.651395
O O7 0.262612 0.000000 0.608810
O O8 0.856670 0.239447 0.784521
O O9 0.864998 0.000000 0.879799
O O10 0.653500 0.500000 0.803380
O O11 0.594895 0.278853 0.851562
O O12 0.500000 0.180940 0.887151
O O13 0.415501 0.000000 0.899894
O O14 0.427213 0.224586 0.000000
#
# Coordination Sequence:
#
# PCOD8291167 Si02
#       5
#     8  16  16  16  16
#     4  11  25  45  67  87 111 153 204 249 302 361
#     4  10  20  36  59  85 119 158 194 233 283 347
#     4  11  23  39  60  87 119 151 190 243 297 351
#     4  10  22  37  56  87 121 154 192 237 293 351
#     4   9  19  36  56  80 113 152 194 240 287 338
#
# _framework density 19.704387000000001
#
# number of rings (size 3 to 8) (size 9 to 14) (size 15 to 20)
#    0.000    1.889    1.111    3.000    0.000    6.222 
#    0.000    5.556    0.000    0.000    0.000    0.000 
#    0.000    0.000    0.000    0.000    0.000    0.000 
#
# Total GULP energy -446448.649579 kJ/mol
# GULP energy per Si atom -12401.351377 kJ/mol
# Density = 1.965954 g / cm^3
# Si number density = 19.704387 Si / 1000 Ang^3
#
#
#
# Elastic Constant Matrix: (Units=GPa)
#
#
# Indices 1 2 3 4 5 6 
#
# 1 117.8863 39.4303 74.4106 0.0000 0.0000 0.0000
# 2 39.4303 46.6535 36.3462 0.0000 0.0000 0.0000
# 3 74.4106 36.3462 145.1751 0.0000 0.0000 0.0000
# 4 0.0000 0.0000 0.0000 24.6172 0.0000 0.0000
# 5 0.0000 0.0000 0.0000 0.0000 21.3198 0.0000
# 6 0.0000 0.0000 0.0000 0.0000 0.0000 33.3234
#
#
#
# Elastic Compliance Matrix: (Units=1/GPa)
#
#
# Indices 1 2 3 4 5 6 
#
# 1 0.014657 -0.008119 -0.005480 0.000000 0.000000 0.000000
# 2 -0.008119 0.031125 -0.003631 0.000000 0.000000 0.000000
# 3 -0.005480 -0.003631 0.010606 0.000000 0.000000 0.000000
# 4 0.000000 0.000000 0.000000 0.040622 0.000000 0.000000
# 5 0.000000 0.000000 0.000000 0.000000 0.046905 0.000000
# 6 0.000000 0.000000 0.000000 0.000000 0.000000 0.030009
#
#
# Mechanical properties :
#
#
# Convention : Reuss Voigt Hill
#
# Bulk Modulus (GPa) = 45.60221 67.78767 56.69494
# Shear Modulus (GPa) = 23.18097 26.48728 24.83412
#
# Velocity S-wave (km/s) = 3.43364 3.67036 3.55397
# Velocity P-wave (km/s) = 6.23805 7.24148 6.75841
#
# Compressibility (1/GPa) = 0.02192876
#
# Stress axis : x y z
#
# Youngs Moduli (GPa) = 68.22518 32.12826 94.28394
#
# Poissons Ratio (x) = 0.26084 0.51669
# Poissons Ratio (y) = 0.55389 0.34237
# Poissons Ratio (z) = 0.37388 0.11667
#
# Static dielectric constant tensor:
#      x y z
#    x 3.485080 0.000000 0.000000 
#    y 0.000000 3.490890 0.000000 
#    z 0.000000 0.000000 3.935040 
# 
# 
# High freq. dielectric constant tensor:
#      x y z
#    x 1.765760 0.000000 0.000000 
#    y 0.000000 1.759470 0.000000 
#    z 0.000000 0.000000 1.781720 
# 
# From -- ./inp_files/6050.got.cif
#   From: 2010.06.25/outbox.cif.g09.slc.cpg/sg71_4_cif.got.tgz:6050.got - 2010.06.28 04:59:45.
