data_PCOD8291530
_publ_section_title
;
Structure prediction by ZEFSAII (Michael W. Deem and Ramdas Pophale) SiO2 
 PCOD8291530
Probable space group: I M M M
;
_chemical_formula_sum "Si O2"
_cell_formula_units_Z 56
_cell_length_a 8.971219
_cell_length_b 9.776880
_cell_length_c 36.417486
_cell_angle_alpha 90.000000
_cell_angle_beta 90.000000
_cell_angle_gamma 90.000000
_cell_volume 3194.197057
_symmetry_space_group_name_H-M "I M M M"
_symmetry_group_IT_number 71
_symmetry_cell_setting 'orthorhombic'
loop_
_space_group_symop_operation_xyz
x,y,z
-x,-y,z
x,-y,-z
-x,y,-z
-x,-y,-z
x,y,-z
-x,y,z
x,-y,z
1/2+x,1/2+y,1/2+z
1/2-x,1/2-y,1/2+z
1/2+x,1/2-y,1/2-z
1/2-x,1/2+y,1/2-z
1/2-x,1/2-y,1/2-z
1/2+x,1/2+y,1/2-z
1/2-x,1/2+y,1/2+z
1/2+x,1/2-y,1/2+z
loop_
_atom_site_type_symbol
_atom_site_label
_atom_site_fract_x
_atom_site_fract_y
_atom_site_fract_z
Si Si1 0.325172 0.842110 0.280507
Si Si2 0.821698 0.653660 0.421263
Si Si3 0.326488 0.657640 0.144119
Si Si4 0.337023 0.162150 0.000000
O O1 0.500000 0.816104 0.280047
O O2 0.250000 0.750000 0.250000
O O3 0.262488 0.796870 0.319884
O O4 0.285241 0.000000 0.272601
O O5 0.767549 0.500000 0.411850
O O6 0.762602 0.754670 0.389812
O O7 0.756142 0.702238 0.461364
O O8 0.000000 0.657719 0.423597
O O9 0.500000 0.687853 0.151199
O O10 0.297887 0.500000 0.134507
O O11 0.500000 0.231973 0.000000
O O12 0.356375 0.000000 0.000000
#
# Coordination Sequence:
#
# PCOD8291530 Si02
#       4
#    16  16  16   8
#     4  10  21  36  53  72  94 122 155 191 233 280
#     4   8  13  22  38  60  86 117 151 184 220 265
#     4   9  17  29  44  64  92 121 147 182 229 274
#     4   7  10  18  33  55  84 115 146 182 222 261
#
# _framework density 17.531793
#
# number of rings (size 3 to 8) (size 9 to 14) (size 15 to 20)
#    0.000    3.286    0.000    2.571    0.000    2.857 
#    0.000    3.571    0.000    4.286    0.000    1.000 
#    0.000    8.000    0.000    0.000    0.000    0.000 
#
# Total GULP energy -346951.671137 kJ/mol
# GULP energy per Si atom -12391.131112 kJ/mol
# Density = 1.749189 g / cm^3
# Si number density = 17.531793 Si / 1000 Ang^3
#
#
#
# Elastic Constant Matrix: (Units=GPa)
#
#
# Indices 1 2 3 4 5 6 
#
# 1 37.6837 28.6721 49.5916 0.0000 0.0000 0.0000
# 2 28.6721 79.0037 96.3290 0.0000 0.0000 0.0000
# 3 49.5916 96.3290 209.1420 0.0000 0.0000 0.0000
# 4 0.0000 0.0000 0.0000 36.6392 0.0000 0.0000
# 5 0.0000 0.0000 0.0000 0.0000 17.4134 0.0000
# 6 0.0000 0.0000 0.0000 0.0000 0.0000 14.6763
#
#
#
# Elastic Compliance Matrix: (Units=1/GPa)
#
#
# Indices 1 2 3 4 5 6 
#
# 1 0.040091 -0.006749 -0.006398 0.000000 0.000000 0.000000
# 2 -0.006749 0.030008 -0.012221 0.000000 0.000000 0.000000
# 3 -0.006398 -0.012221 0.011928 0.000000 0.000000 0.000000
# 4 0.000000 0.000000 0.000000 0.027293 0.000000 0.000000
# 5 0.000000 0.000000 0.000000 0.000000 0.057427 0.000000
# 6 0.000000 0.000000 0.000000 0.000000 0.000000 0.068137
#
#
# Mechanical properties :
#
#
# Convention : Reuss Voigt Hill
#
# Bulk Modulus (GPa) = 31.95826 75.00165 53.47996
# Shear Modulus (GPa) = 16.88897 23.82823 20.35860
#
# Velocity S-wave (km/s) = 3.10713 3.69066 3.41139
# Velocity P-wave (km/s) = 5.58038 7.81246 6.78878
#
# Compressibility (1/GPa) = 0.03129081
#
# Stress axis : x y z
#
# Youngs Moduli (GPa) = 24.94302 33.32404 83.83984
#
# Poissons Ratio (x) = 0.22491 0.53640
# Poissons Ratio (y) = 0.16834 1.02463
# Poissons Ratio (z) = 0.15958 0.40726
#
# Static dielectric constant tensor:
#      x y z
#    x 2.840140 0.000000 0.000000 
#    y 0.000000 3.186600 0.000000 
#    z 0.000000 0.000000 3.783220 
# 
# 
# High freq. dielectric constant tensor:
#      x y z
#    x 1.628130 0.000000 0.000000 
#    y 0.000000 1.659140 0.000000 
#    z 0.000000 0.000000 1.699360 
# 
# From -- ./inp_files/3568.got.cif
#   From: 2010.06.25/outbox.cif.g09.slc.cpg/sg71_2_cif.got.tgz:3568.got - 2010.06.28 04:59:45.
