data_PCOD8291328
_publ_section_title
;
Structure prediction by ZEFSAII (Michael W. Deem and Ramdas Pophale) SiO2 
 PCOD8291328
Probable space group: I M M M
;
_chemical_formula_sum "Si O2"
_cell_formula_units_Z 80
_cell_length_a 9.012167
_cell_length_b 26.577128
_cell_length_c 17.120281
_cell_angle_alpha 90.000000
_cell_angle_beta 90.000000
_cell_angle_gamma 90.000000
_cell_volume 4100.607177
_symmetry_space_group_name_H-M "I M M M"
_symmetry_group_IT_number 71
_symmetry_cell_setting 'orthorhombic'
loop_
_space_group_symop_operation_xyz
x,y,z
-x,-y,z
x,-y,-z
-x,y,-z
-x,-y,-z
x,y,-z
-x,y,z
x,-y,z
1/2+x,1/2+y,1/2+z
1/2-x,1/2-y,1/2+z
1/2+x,1/2-y,1/2-z
1/2-x,1/2+y,1/2-z
1/2-x,1/2-y,1/2-z
1/2+x,1/2+y,1/2-z
1/2-x,1/2+y,1/2+z
1/2+x,1/2-y,1/2+z
loop_
_atom_site_type_symbol
_atom_site_label
_atom_site_fract_x
_atom_site_fract_y
_atom_site_fract_z
Si Si1 0.668985 0.811903 0.412077
Si Si2 0.175269 0.000000 0.588569
Si Si3 0.677361 0.942765 0.000000
Si Si4 0.175611 0.271147 0.327419
Si Si5 0.327404 0.911508 0.321071
Si Si6 0.324886 0.116129 0.150450
O O1 0.691579 0.831737 0.500000
O O2 0.500000 0.794394 0.397709
O O3 0.777550 0.764852 0.398584
O O4 0.710351 0.856237 0.352765
O O5 0.230385 0.049129 0.632475
O O6 0.236454 0.000000 0.500000
O O7 0.000000 0.000000 0.589201
O O8 0.741007 0.914250 0.076614
O O9 0.500000 0.942481 0.000000
O O10 0.736621 0.000000 0.000000
O O11 0.250000 0.250000 0.250000
O O12 0.236708 0.326921 0.346800
O O13 0.000000 0.271528 0.315880
O O14 0.500000 0.924523 0.333509
O O15 0.282734 0.913277 0.229892
O O16 0.500000 0.119043 0.141919
#
# Coordination Sequence:
#
# PCOD8291328 Si02
#       6
#    16   8   8  16  16  16
#     4  10  21  37  57  84 118 152 194 243 290 347
#     4  11  25  41  57  84 119 146 182 239 295 347
#     4   9  18  32  54  84 116 146 186 247 302 335
#     4  11  21  36  57  83 119 156 195 240 292 354
#     4  10  20  38  62  84 110 151 197 237 282 344
#     4   9  19  34  54  84 118 149 190 239 286 343
#
# _framework density 19.509305999999999
#
# number of rings (size 3 to 8) (size 9 to 14) (size 15 to 20)
#    0.000    2.000    2.000    1.500    2.800    2.800 
#    0.000    0.000    0.000    0.000    0.000    0.700 
#    0.000    0.000    0.000    0.000    0.000    0.000 
#
# Total GULP energy -496044.334264 kJ/mol
# GULP energy per Si atom -12401.108357 kJ/mol
# Density = 1.946490 g / cm^3
# Si number density = 19.509306 Si / 1000 Ang^3
#
#
#
# Elastic Constant Matrix: (Units=GPa)
#
#
# Indices 1 2 3 4 5 6 
#
# 1 44.3756 38.2192 28.4887 0.0001 0.0000 0.0000
# 2 38.2192 139.5550 79.6282 0.0002 0.0000 0.0000
# 3 28.4887 79.6282 161.5020 0.0008 0.0001 0.0001
# 4 0.0001 0.0002 0.0008 36.1070 0.0000 0.0000
# 5 0.0000 0.0000 0.0001 0.0000 24.8342 0.0001
# 6 0.0000 0.0000 0.0001 0.0000 0.0001 30.1476
#
#
#
# Elastic Compliance Matrix: (Units=1/GPa)
#
#
# Indices 1 2 3 4 5 6 
#
# 1 0.029829 -0.007189 -0.001717 0.000000 0.000000 0.000000
# 2 -0.007189 0.011703 -0.004502 0.000000 0.000000 0.000000
# 3 -0.001717 -0.004502 0.008715 0.000000 0.000000 0.000000
# 4 0.000000 0.000000 0.000000 0.027695 0.000000 0.000000
# 5 0.000000 0.000000 0.000000 0.000000 0.040267 0.000000
# 6 0.000000 0.000000 0.000000 0.000000 0.000000 0.033170
#
#
# Mechanical properties :
#
#
# Convention : Reuss Voigt Hill
#
# Bulk Modulus (GPa) = 42.68052 70.90054 56.79053
# Shear Modulus (GPa) = 26.88069 31.49088 29.18578
#
# Velocity S-wave (km/s) = 3.71595 4.02200 3.87200
# Velocity P-wave (km/s) = 6.35103 7.61508 7.01160
#
# Compressibility (1/GPa) = 0.02342989
#
# Stress axis : x y z
#
# Youngs Moduli (GPa) = 33.52409 85.44501 114.75080
#
# Poissons Ratio (x) = 0.61430 0.19704
# Poissons Ratio (y) = 0.24102 0.51662
# Poissons Ratio (z) = 0.05756 0.38469
#
# Static dielectric constant tensor:
#      x y z
#    x 3.277700 0.000000 0.000000 
#    y 0.000000 3.853580 0.000000 
#    z 0.000000 0.000000 3.855260 
# 
# 
# High freq. dielectric constant tensor:
#      x y z
#    x 1.718880 0.000000 0.000000 
#    y 0.000000 1.767100 0.000000 
#    z 0.000000 0.000000 1.776880 
# 
# From -- ./inp_files/42251.got.cif
#   From: 2010.06.25/outbox.cif.g09.slc.cpg/sg71_22_cif.got.tgz:42251.got - 2010.06.28 04:59:45.
