data_PCOD8291946
_publ_section_title
;
Structure prediction by ZEFSAII (Michael W. Deem and Ramdas Pophale) SiO2 
 PCOD8291946
Probable space group: I M M M
;
_chemical_formula_sum "Si O2"
_cell_formula_units_Z 88
_cell_length_a 22.247597
_cell_length_b 14.339785
_cell_length_c 13.674532
_cell_angle_alpha 90.000000
_cell_angle_beta 90.000000
_cell_angle_gamma 90.000000
_cell_volume 4362.527933
_symmetry_space_group_name_H-M "I M M M"
_symmetry_group_IT_number 71
_symmetry_cell_setting 'orthorhombic'
loop_
_space_group_symop_operation_xyz
x,y,z
-x,-y,z
x,-y,-z
-x,y,-z
-x,-y,-z
x,y,-z
-x,y,z
x,-y,z
1/2+x,1/2+y,1/2+z
1/2-x,1/2-y,1/2+z
1/2+x,1/2-y,1/2-z
1/2-x,1/2+y,1/2-z
1/2-x,1/2-y,1/2-z
1/2+x,1/2+y,1/2-z
1/2-x,1/2+y,1/2+z
1/2+x,1/2-y,1/2+z
loop_
_atom_site_type_symbol
_atom_site_label
_atom_site_fract_x
_atom_site_fract_y
_atom_site_fract_z
Si Si1 0.120144 0.389552 0.778159
Si Si2 0.783118 0.725158 0.112726
Si Si3 0.432194 0.392595 0.803435
Si Si4 0.367592 0.605490 0.391059
Si Si5 0.149768 0.742785 0.387373
Si Si6 0.500000 0.889359 0.610392
O O1 0.121975 0.500000 0.765868
O O2 0.178910 0.356107 0.836200
O O3 0.120097 0.342717 0.671384
O O4 0.060061 0.355038 0.834213
O O5 0.812095 0.826505 0.128252
O O6 0.715732 0.732611 0.155985
O O7 0.779537 0.696516 0.000000
O O8 0.500000 0.361388 0.822734
O O9 0.421914 0.500000 0.829893
O O10 0.418556 0.373223 0.688949
O O11 0.390117 0.334768 0.875559
O O12 0.394880 0.621307 0.500000
O O13 0.343090 0.500000 0.380098
O O14 0.153366 0.712305 0.500000
O O15 0.500000 0.848627 0.500000
O O16 0.500000 0.000000 0.606436
#
# Coordination Sequence:
#
# PCOD8291946 Si02
#       6
#    16  16  16  16  16   8
#     4  11  23  39  62  91 123 159 200 247 303 362
#     4  10  21  39  61  90 122 154 199 246 298 362
#     4  10  22  40  62  88 118 154 200 250 301 357
#     4   9  18  34  60  92 125 156 186 235 304 372
#     4  11  25  42  60  85 120 161 208 255 296 349
#     4   9  20  40  63  89 120 151 191 245 303 365
#
# _framework density 20.171790000000001
#
# number of rings (size 3 to 8) (size 9 to 14) (size 15 to 20)
#    0.000    1.909    1.818    1.091    1.273    4.000 
#    0.000    6.364    0.000    1.636    0.000    0.000 
#    0.000    0.000    0.000    0.000    0.000    0.000 
#
# Total GULP energy -545685.267398 kJ/mol
# GULP energy per Si atom -12401.937895 kJ/mol
# Density = 2.012588 g / cm^3
# Si number density = 20.171790 Si / 1000 Ang^3
#
#
#
# Elastic Constant Matrix: (Units=GPa)
#
#
# Indices 1 2 3 4 5 6 
#
# 1 139.1101 55.2078 52.8632 0.0000 0.0000 0.0000
# 2 55.2078 91.4403 39.1690 0.0000 0.0000 0.0000
# 3 52.8632 39.1690 90.3825 0.0000 0.0000 0.0000
# 4 0.0000 0.0000 0.0000 31.4500 0.0000 0.0000
# 5 0.0000 0.0000 0.0000 0.0000 34.1097 0.0000
# 6 0.0000 0.0000 0.0000 0.0000 0.0000 30.4953
#
#
#
# Elastic Compliance Matrix: (Units=1/GPa)
#
#
# Indices 1 2 3 4 5 6 
#
# 1 0.010618 -0.004605 -0.004214 0.000000 0.000000 0.000000
# 2 -0.004605 0.015427 -0.003992 0.000000 0.000000 0.000000
# 3 -0.004214 -0.003992 0.015259 0.000000 0.000000 0.000000
# 4 0.000000 0.000000 0.000000 0.031797 0.000000 0.000000
# 5 0.000000 0.000000 0.000000 0.000000 0.029317 0.000000
# 6 0.000000 0.000000 0.000000 0.000000 0.000000 0.032792
#
#
# Mechanical properties :
#
#
# Convention : Reuss Voigt Hill
#
# Bulk Modulus (GPa) = 63.77450 68.37920 66.07685
# Shear Modulus (GPa) = 30.10989 30.79052 30.45021
#
# Velocity S-wave (km/s) = 3.86770 3.91117 3.88950
# Velocity P-wave (km/s) = 7.18539 7.37349 7.28005
#
# Compressibility (1/GPa) = 0.01568025
#
# Stress axis : x y z
#
# Youngs Moduli (GPa) = 94.18230 64.82352 65.53550
#
# Poissons Ratio (x) = 0.29853 0.27619
# Poissons Ratio (y) = 0.43374 0.26161
# Poissons Ratio (z) = 0.39691 0.25876
#
# Static dielectric constant tensor:
#      x y z
#    x 3.728660 0.000000 0.000000 
#    y 0.000000 3.569160 0.000000 
#    z 0.000000 0.000000 3.748830 
# 
# 
# High freq. dielectric constant tensor:
#      x y z
#    x 1.785570 0.000000 0.000000 
#    y 0.000000 1.784560 0.000000 
#    z 0.000000 0.000000 1.794070 
# 
# From -- ./inp_files/37742.got.cif
#   From: 2010.06.25/outbox.cif.g09.slc.cpg/sg71_19_cif.got.tgz:37742.got - 2010.06.28 04:59:45.
