data_PCOD8291155
_publ_section_title
;
Structure prediction by ZEFSAII (Michael W. Deem and Ramdas Pophale) SiO2 
 PCOD8291155
Probable space group: I M M M
;
_chemical_formula_sum "Si O2"
_cell_formula_units_Z 88
_cell_length_a 20.835390
_cell_length_b 8.659359
_cell_length_c 25.226484
_cell_angle_alpha 90.000000
_cell_angle_beta 90.000000
_cell_angle_gamma 90.000000
_cell_volume 4551.390545
_symmetry_space_group_name_H-M "I M M M"
_symmetry_group_IT_number 71
_symmetry_cell_setting 'orthorhombic'
loop_
_space_group_symop_operation_xyz
x,y,z
-x,-y,z
x,-y,-z
-x,y,-z
-x,-y,-z
x,y,-z
-x,y,z
x,-y,z
1/2+x,1/2+y,1/2+z
1/2-x,1/2-y,1/2+z
1/2+x,1/2-y,1/2-z
1/2-x,1/2+y,1/2-z
1/2-x,1/2-y,1/2-z
1/2+x,1/2+y,1/2-z
1/2-x,1/2+y,1/2+z
1/2+x,1/2-y,1/2+z
loop_
_atom_site_type_symbol
_atom_site_label
_atom_site_fract_x
_atom_site_fract_y
_atom_site_fract_z
Si Si1 0.674011 0.822415 0.191845
Si Si2 0.779232 0.317919 0.000000
Si Si3 0.364336 0.679163 0.590684
Si Si4 0.000000 0.181643 0.939747
Si Si5 0.190486 0.674516 0.812386
Si Si6 0.574556 0.682380 0.110788
Si Si7 0.633989 0.316826 0.000000
O O1 0.734687 0.713911 0.181807
O O2 0.659680 0.807641 0.254335
O O3 0.613697 0.765717 0.157600
O O4 0.690013 0.000000 0.177234
O O5 0.814012 0.262492 0.947158
O O6 0.777611 0.500000 0.000000
O O7 0.706648 0.252480 0.000000
O O8 0.363865 0.500000 0.575353
O O9 0.435301 0.752136 0.584838
O O10 0.347142 0.705042 0.651470
O O11 0.000000 0.000000 0.930571
O O12 0.000000 0.229948 0.000000
O O13 0.182017 0.500000 0.833026
O O14 0.500000 0.726452 0.117338
O O15 0.585368 0.500000 0.115951
O O16 0.598260 0.742705 0.053143
O O17 0.632633 0.500000 0.000000
#
# Coordination Sequence:
#
# PCOD8291155 Si02
#       7
#    16   8  16   8  16  16   8
#     4  10  21  38  60  84 113 149 186 231 286 338
#     4  11  21  33  54  84 117 150 188 237 287 333
#     4  11  21  36  58  82 111 149 193 236 281 338
#     4   9  18  36  56  76 110 152 188 227 280 333
#     4  10  21  38  59  84 113 144 185 237 288 338
#     4  10  20  36  59  84 113 151 191 229 275 333
#     4   9  19  35  55  81 112 146 182 226 273 322
#
# _framework density 19.334748999999999
#
# number of rings (size 3 to 8) (size 9 to 14) (size 15 to 20)
#    0.000    1.909    0.909    3.273    0.000    5.091 
#    1.636    3.636    0.000    1.091    0.000    0.000 
#    0.000    0.000    0.000    0.000    0.000    0.000 
#
# Total GULP energy -545552.667954 kJ/mol
# GULP energy per Si atom -12398.924272 kJ/mol
# Density = 1.929074 g / cm^3
# Si number density = 19.334749 Si / 1000 Ang^3
#
#
#
# Elastic Constant Matrix: (Units=GPa)
#
#
# Indices 1 2 3 4 5 6 
#
# 1 136.4850 25.7435 73.5394 0.0000 0.0000 0.0000
# 2 25.7435 52.8361 32.9305 0.0000 0.0000 0.0000
# 3 73.5394 32.9305 125.1636 0.0000 0.0000 0.0000
# 4 0.0000 0.0000 0.0000 23.6454 0.0000 0.0000
# 5 0.0000 0.0000 0.0000 0.0000 26.6825 0.0000
# 6 0.0000 0.0000 0.0000 0.0000 0.0000 24.6320
#
#
#
# Elastic Compliance Matrix: (Units=1/GPa)
#
#
# Indices 1 2 3 4 5 6 
#
# 1 0.010828 -0.001568 -0.005950 0.000000 0.000000 0.000000
# 2 -0.001568 0.022866 -0.005095 0.000000 0.000000 0.000000
# 3 -0.005950 -0.005095 0.012826 0.000000 0.000000 0.000000
# 4 0.000000 0.000000 0.000000 0.042291 0.000000 0.000000
# 5 0.000000 0.000000 0.000000 0.000000 0.037478 0.000000
# 6 0.000000 0.000000 0.000000 0.000000 0.000000 0.040598
#
#
# Mechanical properties :
#
#
# Convention : Reuss Voigt Hill
#
# Bulk Modulus (GPa) = 46.95889 64.32351 55.64120
# Shear Modulus (GPa) = 25.09925 27.14341 26.12133
#
# Velocity S-wave (km/s) = 3.60688 3.75089 3.67959
# Velocity P-wave (km/s) = 6.45648 7.21799 6.84783
#
# Compressibility (1/GPa) = 0.02129522
#
# Stress axis : x y z
#
# Youngs Moduli (GPa) = 92.35119 43.73360 77.96866
#
# Poissons Ratio (x) = 0.06856 0.46388
# Poissons Ratio (y) = 0.14478 0.39724
# Poissons Ratio (z) = 0.54945 0.22282
#
# Static dielectric constant tensor:
#      x y z
#    x 3.671690 0.000000 0.000000 
#    y 0.000000 3.374510 0.000000 
#    z 0.000000 0.000000 3.618320 
# 
# 
# High freq. dielectric constant tensor:
#      x y z
#    x 1.756040 0.000000 0.000000 
#    y 0.000000 1.739560 0.000000 
#    z 0.000000 0.000000 1.760090 
# 
# From -- ./inp_files/61176.got.cif
#   From: 2010.06.25/outbox.cif.g09.slc.cpg/sg71_31_cif.got.tgz:61176.got - 2010.06.28 04:59:45.
