data_PCOD8291874
_publ_section_title
;
Structure prediction by ZEFSAII (Michael W. Deem and Ramdas Pophale) SiO2 
 PCOD8291874
Probable space group: I M M M
;
_chemical_formula_sum "Si O2"
_cell_formula_units_Z 80
_cell_length_a 20.139008
_cell_length_b 11.474944
_cell_length_c 18.502188
_cell_angle_alpha 90.000000
_cell_angle_beta 90.000000
_cell_angle_gamma 90.000000
_cell_volume 4275.744430
_symmetry_space_group_name_H-M "I M M M"
_symmetry_group_IT_number 71
_symmetry_cell_setting 'orthorhombic'
loop_
_space_group_symop_operation_xyz
x,y,z
-x,-y,z
x,-y,-z
-x,y,-z
-x,-y,-z
x,y,-z
-x,y,z
x,-y,z
1/2+x,1/2+y,1/2+z
1/2-x,1/2-y,1/2+z
1/2+x,1/2-y,1/2-z
1/2-x,1/2+y,1/2-z
1/2-x,1/2-y,1/2-z
1/2+x,1/2+y,1/2-z
1/2-x,1/2+y,1/2+z
1/2+x,1/2-y,1/2+z
loop_
_atom_site_type_symbol
_atom_site_label
_atom_site_fract_x
_atom_site_fract_y
_atom_site_fract_z
Si Si1 0.314086 0.862420 0.821296
Si Si2 0.625416 0.500000 0.914456
Si Si3 0.924026 0.751615 0.415183
Si Si4 0.774624 0.500000 0.914621
Si Si5 0.075486 0.135163 0.081520
Si Si6 0.816295 0.727071 0.839010
O O1 0.376527 0.836802 0.872857
O O2 0.247808 0.806948 0.855281
O O3 0.325866 0.804266 0.744183
O O4 0.304393 0.000000 0.813453
O O5 0.587784 0.615870 0.887573
O O6 0.699878 0.500000 0.882403
O O7 0.627657 0.500000 0.000000
O O8 0.907731 0.740877 0.500000
O O9 0.000000 0.717114 0.399146
O O10 0.812967 0.612350 0.887172
O O11 0.773850 0.500000 0.000000
O O12 0.118305 0.204472 0.139006
O O13 0.000000 0.177991 0.089232
O O14 0.081001 0.000000 0.100447
O O15 0.100984 0.158420 0.000000
#
# Coordination Sequence:
#
# PCOD8291874 Si02
#       6
#    16   8  16   8  16  16
#     4  11  24  39  57  83 118 158 195 237 288 343
#     4   9  17  34  59  87 116 147 189 239 287 333
#     4  10  21  38  60  85 115 153 197 243 287 338
#     4  11  20  35  63  93 116 147 191 241 291 339
#     4   9  19  38  63  89 116 147 187 238 293 348
#     4  11  22  39  60  85 119 152 194 237 290 345
#
# _framework density 18.710191999999999
#
# number of rings (size 3 to 8) (size 9 to 14) (size 15 to 20)
#    0.000    1.800    3.000    2.100    0.000    3.600 
#    1.800    1.500    0.000    1.800    0.000    0.000 
#    0.000    0.000    0.000    0.000    0.000    0.000 
#
# Total GULP energy -496131.111940 kJ/mol
# GULP energy per Si atom -12403.277798 kJ/mol
# Density = 1.866761 g / cm^3
# Si number density = 18.710192 Si / 1000 Ang^3
#
#
#
# Elastic Constant Matrix: (Units=GPa)
#
#
# Indices 1 2 3 4 5 6 
#
# 1 110.5014 54.3670 49.7165 0.0000 0.0000 0.0000
# 2 54.3670 94.9125 35.2203 0.0000 0.0000 0.0000
# 3 49.7165 35.2203 66.4638 0.0000 0.0000 0.0000
# 4 0.0000 0.0000 0.0000 28.3556 0.0000 0.0000
# 5 0.0000 0.0000 0.0000 0.0000 29.9000 0.0000
# 6 0.0000 0.0000 0.0000 0.0000 0.0000 38.3903
#
#
#
# Elastic Compliance Matrix: (Units=1/GPa)
#
#
# Indices 1 2 3 4 5 6 
#
# 1 0.015869 -0.005832 -0.008780 0.000000 0.000000 0.000000
# 2 -0.005832 0.015258 -0.003723 0.000000 0.000000 0.000000
# 3 -0.008780 -0.003723 0.023587 0.000000 0.000000 0.000000
# 4 0.000000 0.000000 0.000000 0.035266 0.000000 0.000000
# 5 0.000000 0.000000 0.000000 0.000000 0.033445 0.000000
# 6 0.000000 0.000000 0.000000 0.000000 0.000000 0.026048
#
#
# Mechanical properties :
#
#
# Convention : Reuss Voigt Hill
#
# Bulk Modulus (GPa) = 55.42162 61.16503 58.29333
# Shear Modulus (GPa) = 26.02015 28.16744 27.09380
#
# Velocity S-wave (km/s) = 3.73325 3.88423 3.80949
# Velocity P-wave (km/s) = 6.94753 7.27173 7.11148
#
# Compressibility (1/GPa) = 0.01804350
#
# Stress axis : x y z
#
# Youngs Moduli (GPa) = 63.01445 65.53843 42.39707
#
# Poissons Ratio (x) = 0.38222 0.37226
# Poissons Ratio (y) = 0.36750 0.15785
# Poissons Ratio (z) = 0.55328 0.24401
#
# Static dielectric constant tensor:
#      x y z
#    x 3.429830 0.000000 0.000000 
#    y 0.000000 3.431630 0.000000 
#    z 0.000000 0.000000 3.309630 
# 
# 
# High freq. dielectric constant tensor:
#      x y z
#    x 1.728170 0.000000 0.000000 
#    y 0.000000 1.730380 0.000000 
#    z 0.000000 0.000000 1.718280 
# 
# From -- ./inp_files/23821.got.cif
#   From: 2010.06.25/outbox.cif.g09.slc.cpg/sg71_12_cif.got.tgz:23821.got - 2010.06.28 04:59:45.
