data_PCOD8291048
_publ_section_title
;
Structure prediction by ZEFSAII (Michael W. Deem and Ramdas Pophale) SiO2 
 PCOD8291048
Probable space group: I M M M
;
_chemical_formula_sum "Si O2"
_cell_formula_units_Z 104
_cell_length_a 23.428191
_cell_length_b 8.754315
_cell_length_c 25.884993
_cell_angle_alpha 90.000000
_cell_angle_beta 90.000000
_cell_angle_gamma 90.000000
_cell_volume 5308.954183
_symmetry_space_group_name_H-M "I M M M"
_symmetry_group_IT_number 71
_symmetry_cell_setting 'orthorhombic'
loop_
_space_group_symop_operation_xyz
x,y,z
-x,-y,z
x,-y,-z
-x,y,-z
-x,-y,-z
x,y,-z
-x,y,z
x,-y,z
1/2+x,1/2+y,1/2+z
1/2-x,1/2-y,1/2+z
1/2+x,1/2-y,1/2-z
1/2-x,1/2+y,1/2-z
1/2-x,1/2-y,1/2-z
1/2+x,1/2+y,1/2-z
1/2-x,1/2+y,1/2+z
1/2+x,1/2-y,1/2+z
loop_
_atom_site_type_symbol
_atom_site_label
_atom_site_fract_x
_atom_site_fract_y
_atom_site_fract_z
Si Si1 0.339307 0.180352 0.366064
Si Si2 0.065323 0.819543 0.941029
Si Si3 0.830804 0.678022 0.249906
Si Si4 0.728122 0.821394 0.148415
Si Si5 0.122279 0.172812 0.398477
Si Si6 0.063871 0.828708 0.704211
Si Si7 0.437163 0.318229 0.000000
O O1 0.390998 0.247689 0.399814
O O2 0.333131 0.250374 0.307593
O O3 0.276875 0.232858 0.385062
O O4 0.347475 0.000000 0.366996
O O5 0.000000 0.769570 0.927861
O O6 0.070787 0.000000 0.936830
O O7 0.080133 0.767515 0.000000
O O8 0.820158 0.500000 0.244609
O O9 0.783324 0.741158 0.291748
O O10 0.893922 0.707227 0.271009
O O11 0.670972 0.790718 0.117247
O O12 0.741991 0.000000 0.149221
O O13 0.070945 0.172363 0.357388
O O14 0.097081 0.240233 0.450734
O O15 0.146895 0.000000 0.404325
O O16 0.000000 0.778940 0.718761
O O17 0.076858 0.000000 0.725310
O O18 0.441714 0.500000 0.000000
O O19 0.500000 0.245140 0.000000
#
# Coordination Sequence:
#
# PCOD8291048 Si02
#       7
#    16  16  16  16  16  16   8
#     4  11  22  36  57  85 111 138 176 221 268 320
#     4   9  20  41  65  86 111 143 178 218 267 325
#     4   9  20  35  51  75 108 143 179 221 269 319
#     4  10  20  36  55  75 105 145 184 221 266 320
#     4   9  17  31  50  73 102 136 176 224 270 312
#     4   9  17  29  47  72 102 137 177 219 264 316
#     4   9  16  28  51  79 103 133 176 223 268 311
#
# _framework density 19.589545000000001
#
# number of rings (size 3 to 8) (size 9 to 14) (size 15 to 20)
#    0.000    2.538    0.000    2.308    0.000    5.231 
#    1.385    4.231    0.000    1.846    0.000    0.000 
#    0.000    0.000    0.000    0.000    0.000    0.000 
#
# Total GULP energy -644241.102261 kJ/mol
# GULP energy per Si atom -12389.251967 kJ/mol
# Density = 1.954496 g / cm^3
# Si number density = 19.589545 Si / 1000 Ang^3
#
#
#
# Elastic Constant Matrix: (Units=GPa)
#
#
# Indices 1 2 3 4 5 6 
#
# 1 111.0573 25.5793 50.5914 0.0000 0.0000 0.0000
# 2 25.5793 37.4880 25.3839 0.0000 0.0000 0.0000
# 3 50.5914 25.3839 103.0962 0.0000 0.0000 0.0000
# 4 0.0000 0.0000 0.0000 22.2806 0.0000 0.0000
# 5 0.0000 0.0000 0.0000 0.0000 4.8551 0.0000
# 6 0.0000 0.0000 0.0000 0.0000 0.0000 31.1584
#
#
#
# Elastic Compliance Matrix: (Units=1/GPa)
#
#
# Indices 1 2 3 4 5 6 
#
# 1 0.012389 -0.005204 -0.004798 0.000000 0.000000 0.000000
# 2 -0.005204 0.034199 -0.005866 0.000000 0.000000 0.000000
# 3 -0.004798 -0.005866 0.013499 0.000000 0.000000 0.000000
# 4 0.000000 0.000000 0.000000 0.044882 0.000000 0.000000
# 5 0.000000 0.000000 0.000000 0.000000 0.205971 0.000000
# 6 0.000000 0.000000 0.000000 0.000000 0.000000 0.032094
#
#
# Mechanical properties :
#
#
# Convention : Reuss Voigt Hill
#
# Bulk Modulus (GPa) = 35.27540 50.52785 42.90162
# Shear Modulus (GPa) = 13.01340 21.66462 17.33901
#
# Velocity S-wave (km/s) = 2.58020 3.32916 2.97832
# Velocity P-wave (km/s) = 5.18873 6.37393 5.81162
#
# Compressibility (1/GPa) = 0.02834837
#
# Stress axis : x y z
#
# Youngs Moduli (GPa) = 80.71832 29.24101 74.08218
#
# Poissons Ratio (x) = 0.15218 0.35545
# Poissons Ratio (y) = 0.42009 0.43459
# Poissons Ratio (z) = 0.38729 0.17154
#
# Static dielectric constant tensor:
#      x y z
#    x 3.563500 0.000000 0.000000 
#    y 0.000000 3.246220 0.000000 
#    z 0.000000 0.000000 3.745800 
# 
# 
# High freq. dielectric constant tensor:
#      x y z
#    x 1.770610 0.000000 0.000000 
#    y 0.000000 1.741540 0.000000 
#    z 0.000000 0.000000 1.755790 
# 
# From -- ./inp_files/66844.got.cif
#   From: 2010.06.25/outbox.cif.g09.slc.cpg/sg71_34_cif.got.tgz:66844.got - 2010.06.28 04:59:45.
