data_PCOD8291958
_publ_section_title
;
Structure prediction by ZEFSAII (Michael W. Deem and Ramdas Pophale) SiO2 
 PCOD8291958
Probable space group: I M M M
;
_chemical_formula_sum "Si O2"
_cell_formula_units_Z 88
_cell_length_a 18.002045
_cell_length_b 8.790989
_cell_length_c 29.389802
_cell_angle_alpha 90.000000
_cell_angle_beta 90.000000
_cell_angle_gamma 90.000000
_cell_volume 4651.106027
_symmetry_space_group_name_H-M "I M M M"
_symmetry_group_IT_number 71
_symmetry_cell_setting 'orthorhombic'
loop_
_space_group_symop_operation_xyz
x,y,z
-x,-y,z
x,-y,-z
-x,y,-z
-x,-y,-z
x,y,-z
-x,y,z
x,-y,z
1/2+x,1/2+y,1/2+z
1/2-x,1/2-y,1/2+z
1/2+x,1/2-y,1/2-z
1/2-x,1/2+y,1/2-z
1/2-x,1/2-y,1/2-z
1/2+x,1/2+y,1/2-z
1/2-x,1/2+y,1/2+z
1/2+x,1/2-y,1/2+z
loop_
_atom_site_type_symbol
_atom_site_label
_atom_site_fract_x
_atom_site_fract_y
_atom_site_fract_z
Si Si1 0.583730 0.820772 0.142688
Si Si2 0.848468 0.825597 0.053871
Si Si3 0.708878 0.322474 0.707421
Si Si4 0.414332 0.170623 0.752894
Si Si5 0.000000 0.672226 0.054128
Si Si6 0.730009 0.320200 0.883819
O O1 0.500000 0.767232 0.129673
O O2 0.600854 0.778733 0.195129
O O3 0.644527 0.736277 0.111491
O O4 0.590693 0.000000 0.135215
O O5 0.925867 0.755337 0.072380
O O6 0.777645 0.737288 0.073525
O O7 0.845648 0.000000 0.069838
O O8 0.843826 0.810008 0.000000
O O9 0.724861 0.500000 0.703496
O O10 0.750000 0.250000 0.750000
O O11 0.622572 0.287156 0.717288
O O12 0.733244 0.244394 0.661355
O O13 0.500000 0.173883 0.741533
O O14 0.382682 0.000000 0.745900
O O15 0.000000 0.500000 0.072570
O O16 0.000000 0.676265 0.000000
O O17 0.730751 0.500000 0.882847
#
# Coordination Sequence:
#
# PCOD8291958 Si02
#       6
#    16  16  16  16   8  16
#     4   9  18  34  57  82 110 146 187 231 278 333
#     4  10  21  39  63  88 115 149 189 232 278 333
#     4  12  23  36  54  78 111 148 188 231 278 330
#     4   9  18  34  55  77 105 143 185 229 277 328
#     4   9  17  33  59  89 119 149 183 227 279 333
#     4  12  24  37  57  85 115 149 188 232 284 336
#
# _framework density 18.920231000000001
#
# number of rings (size 3 to 8) (size 9 to 14) (size 15 to 20)
#    0.000    1.727    1.818    5.182    0.000    2.909 
#    1.636    1.818    0.000    0.545    0.000    3.818 
#    0.000    0.000    0.000    0.000    0.000    0.000 
#
# Total GULP energy -545576.113166 kJ/mol
# GULP energy per Si atom -12399.457117 kJ/mol
# Density = 1.887717 g / cm^3
# Si number density = 18.920231 Si / 1000 Ang^3
#
#
#
# Elastic Constant Matrix: (Units=GPa)
#
#
# Indices 1 2 3 4 5 6 
#
# 1 140.2895 68.9894 34.6212 0.0000 0.0000 0.0000
# 2 68.9894 139.2633 31.6308 0.0000 0.0000 0.0000
# 3 34.6212 31.6308 36.0083 0.0000 0.0000 0.0000
# 4 0.0000 0.0000 0.0000 25.3598 0.0000 0.0000
# 5 0.0000 0.0000 0.0000 0.0000 28.0177 0.0000
# 6 0.0000 0.0000 0.0000 0.0000 0.0000 36.3594
#
#
#
# Elastic Compliance Matrix: (Units=1/GPa)
#
#
# Indices 1 2 3 4 5 6 
#
# 1 0.010678 -0.003695 -0.007021 0.000000 0.000000 0.000000
# 2 -0.003695 0.010249 -0.005450 0.000000 0.000000 0.000000
# 3 -0.007021 -0.005450 0.039309 0.000000 0.000000 0.000000
# 4 0.000000 0.000000 0.000000 0.039432 0.000000 0.000000
# 5 0.000000 0.000000 0.000000 0.000000 0.035692 0.000000
# 6 0.000000 0.000000 0.000000 0.000000 0.000000 0.027503
#
#
# Mechanical properties :
#
#
# Convention : Reuss Voigt Hill
#
# Bulk Modulus (GPa) = 35.83708 65.11601 50.47654
# Shear Modulus (GPa) = 24.45025 29.96872 27.20948
#
# Velocity S-wave (km/s) = 3.59873 3.98421 3.79636
# Velocity P-wave (km/s) = 6.02080 7.46029 6.77887
#
# Compressibility (1/GPa) = 0.02790406
#
# Stress axis : x y z
#
# Youngs Moduli (GPa) = 93.65227 97.56983 25.43928
#
# Poissons Ratio (x) = 0.36053 0.17860
# Poissons Ratio (y) = 0.34605 0.13865
# Poissons Ratio (z) = 0.65750 0.53179
#
# Static dielectric constant tensor:
#      x y z
#    x 3.880790 0.000000 0.000000 
#    y 0.000000 3.873490 0.000000 
#    z 0.000000 0.000000 3.300110 
# 
# 
# High freq. dielectric constant tensor:
#      x y z
#    x 1.754940 0.000000 0.000000 
#    y 0.000000 1.740530 0.000000 
#    z 0.000000 0.000000 1.695150 
# 
# From -- ./inp_files/70389.got.cif
#   From: 2010.06.25/outbox.cif.g09.slc.cpg/sg71_36_cif.got.tgz:70389.got - 2010.06.28 04:59:45.
