data_PCOD8291974
_publ_section_title
;
Structure prediction by ZEFSAII (Michael W. Deem and Ramdas Pophale) SiO2 
 PCOD8291974
Probable space group: I M M M
;
_chemical_formula_sum "Si O2"
_cell_formula_units_Z 104
_cell_length_a 21.300707
_cell_length_b 28.289349
_cell_length_c 8.157961
_cell_angle_alpha 90.000000
_cell_angle_beta 90.000000
_cell_angle_gamma 90.000000
_cell_volume 4915.849709
_symmetry_space_group_name_H-M "I M M M"
_symmetry_group_IT_number 71
_symmetry_cell_setting 'orthorhombic'
loop_
_space_group_symop_operation_xyz
x,y,z
-x,-y,z
x,-y,-z
-x,y,-z
-x,-y,-z
x,y,-z
-x,y,z
x,-y,z
1/2+x,1/2+y,1/2+z
1/2-x,1/2-y,1/2+z
1/2+x,1/2-y,1/2-z
1/2-x,1/2+y,1/2-z
1/2-x,1/2-y,1/2-z
1/2+x,1/2+y,1/2-z
1/2-x,1/2+y,1/2+z
1/2+x,1/2-y,1/2+z
loop_
_atom_site_type_symbol
_atom_site_label
_atom_site_fract_x
_atom_site_fract_y
_atom_site_fract_z
Si Si1 0.130717 0.053821 0.808673
Si Si2 0.209941 0.862189 0.686874
Si Si3 0.664902 0.822091 0.185703
Si Si4 0.074516 0.447827 0.500000
Si Si5 0.635558 0.723539 0.310016
Si Si6 0.072558 0.609186 0.817106
Si Si7 0.500000 0.593041 0.811637
Si Si8 0.000000 0.195499 0.813163
O O1 0.183147 0.085625 0.719882
O O2 0.060844 0.071555 0.774056
O O3 0.138394 0.000000 0.746272
O O4 0.143601 0.057664 0.000000
O O5 0.231703 0.858845 0.500000
O O6 0.270073 0.850163 0.797030
O O7 0.155357 0.824829 0.723301
O O8 0.672981 0.767074 0.230051
O O9 0.611756 0.842576 0.306620
O O10 0.641561 0.827406 0.000000
O O11 0.103618 0.500000 0.500000
O O12 0.098005 0.423965 0.330464
O O13 0.000000 0.449596 0.500000
O O14 0.653666 0.720805 0.500000
O O15 0.560769 0.728233 0.280473
O O16 0.000000 0.621438 0.789776
O O17 0.082450 0.586689 0.000000
O O18 0.500000 0.649696 0.801360
O O19 0.500000 0.577822 0.000000
O O20 0.000000 0.176756 0.000000
#
# Coordination Sequence:
#
# PCOD8291974 Si02
#       8
#    16  16  16   8  16  16   8   8
#     4  11  24  43  67  94 128 172 219 270 332 395
#     4  12  25  43  65  92 127 167 217 272 324 387
#     4  12  25  42  65  92 128 173 218 265 323 387
#     4   9  18  36  62  92 126 162 204 253 312 382
#     4  11  23  41  64  94 129 170 217 263 321 387
#     4  10  21  39  63  94 131 165 206 264 326 384
#     4  12  23  37  64  97 134 170 216 272 325 383
#     4  10  22  39  63  92 132 173 210 263 321 384
#
# _framework density 21.156057000000001
#
# number of rings (size 3 to 8) (size 9 to 14) (size 15 to 20)
#    0.000    1.000    2.308    5.077    1.077    3.077 
#    0.000    2.308    0.000    1.846    0.000    0.000 
#    0.000    0.000    0.000    0.000    0.000    0.000 
#
# Total GULP energy -644966.878012 kJ/mol
# GULP energy per Si atom -12403.209193 kJ/mol
# Density = 2.110790 g / cm^3
# Si number density = 21.156057 Si / 1000 Ang^3
#
#
#
# Elastic Constant Matrix: (Units=GPa)
#
#
# Indices 1 2 3 4 5 6 
#
# 1 86.3554 45.9617 18.0930 0.0000 0.0000 0.0000
# 2 45.9617 123.5442 36.2221 0.0000 0.0000 0.0000
# 3 18.0930 36.2221 118.0237 0.0000 0.0000 0.0000
# 4 0.0000 0.0000 0.0000 30.3310 0.0000 0.0000
# 5 0.0000 0.0000 0.0000 0.0000 28.4333 0.0000
# 6 0.0000 0.0000 0.0000 0.0000 0.0000 -24.9228
#
#
#
# Elastic Compliance Matrix: (Units=1/GPa)
#
#
# Indices 1 2 3 4 5 6 
#
# 1 0.014481 -0.005205 -0.000623 0.000000 0.000000 0.000000
# 2 -0.005205 0.010765 -0.002506 0.000000 0.000000 0.000000
# 3 -0.000623 -0.002506 0.009337 0.000000 0.000000 0.000000
# 4 0.000000 0.000000 0.000000 0.032970 0.000000 0.000000
# 5 0.000000 0.000000 0.000000 0.000000 0.035170 0.000000
# 6 0.000000 0.000000 0.000000 0.000000 0.000000 -0.040124
#
#
# Mechanical properties :
#
#
# Convention : Reuss Voigt Hill
#
# Bulk Modulus (GPa) = 55.81337 58.71963 57.26650
# Shear Modulus (GPa) = 58.65942 21.94473 40.30207
#
# Velocity S-wave (km/s) = 5.27136 3.22417 4.36935
# Velocity P-wave (km/s) = 7.96797 6.45571 7.25137
#
# Compressibility (1/GPa) = 0.01791685
#
# Stress axis : x y z
#
# Youngs Moduli (GPa) = 69.05794 92.89117 107.09583
#
# Poissons Ratio (x) = 0.48346 0.06667
# Poissons Ratio (y) = 0.35942 0.26839
# Poissons Ratio (z) = 0.04299 0.23279
#
# Static dielectric constant tensor:
#      x y z
#    x 3.679720 0.000000 0.000000 
#    y 0.000000 3.833800 0.000000 
#    z 0.000000 0.000000 3.929410 
# 
# 
# High freq. dielectric constant tensor:
#      x y z
#    x 1.824200 0.000000 0.000000 
#    y 0.000000 1.820630 0.000000 
#    z 0.000000 0.000000 1.842790 
# 
# From -- ./inp_files/11211.got.cif
#   From: 2010.06.25/outbox.cif.g09.slc.cpg/sg71_6_cif.got.tgz:11211.got - 2010.06.28 04:59:45.
