data_PCOD8291932
_publ_section_title
;
Structure prediction by ZEFSAII (Michael W. Deem and Ramdas Pophale) SiO2 
 PCOD8291932
Probable space group: I M M M
;
_chemical_formula_sum "Si O2"
_cell_formula_units_Z 68
_cell_length_a 9.039779
_cell_length_b 16.433663
_cell_length_c 22.164047
_cell_angle_alpha 90.000000
_cell_angle_beta 90.000000
_cell_angle_gamma 90.000000
_cell_volume 3292.617275
_symmetry_space_group_name_H-M "I M M M"
_symmetry_group_IT_number 71
_symmetry_cell_setting 'orthorhombic'
loop_
_space_group_symop_operation_xyz
x,y,z
-x,-y,z
x,-y,-z
-x,y,-z
-x,-y,-z
x,y,-z
-x,y,z
x,-y,z
1/2+x,1/2+y,1/2+z
1/2-x,1/2-y,1/2+z
1/2+x,1/2-y,1/2-z
1/2-x,1/2+y,1/2-z
1/2-x,1/2-y,1/2-z
1/2+x,1/2+y,1/2-z
1/2-x,1/2+y,1/2+z
1/2+x,1/2-y,1/2+z
loop_
_atom_site_type_symbol
_atom_site_label
_atom_site_fract_x
_atom_site_fract_y
_atom_site_fract_z
Si Si1 0.828132 0.593132 0.835584
Si Si2 0.333569 0.867433 0.200488
Si Si3 0.175524 0.000000 0.128235
Si Si4 0.339464 0.315564 0.500000
Si Si5 0.668011 0.733631 0.892380
Si Si6 0.707075 0.500000 0.500000
O O1 0.772110 0.500000 0.836828
O O2 0.794177 0.633116 0.770812
O O3 0.740945 0.644687 0.885931
O O4 0.000000 0.597844 0.851524
O O5 0.500000 0.903289 0.191766
O O6 0.212446 0.921388 0.166930
O O7 0.323703 0.777331 0.172861
O O8 0.280319 0.000000 0.067020
O O9 0.000000 0.000000 0.110944
O O10 0.500000 0.272415 0.500000
O O11 0.250715 0.288982 0.440947
O O12 0.373739 0.412251 0.500000
O O13 0.500000 0.722301 0.914076
#
# Coordination Sequence:
#
# PCOD8291932 Si02
#       6
#    16  16   8   8  16   4
#     4  10  21  40  65  89 120 162 203 246 304 369
#     4  10  21  39  60  88 127 164 200 246 302 364
#     4  12  22  35  58  91 126 162 209 251 293 350
#     4  12  24  43  65  88 124 164 205 246 299 365
#     4  11  24  40  61  92 125 158 203 254 305 355
#     4  12  25  40  61  92 127 166 207 252 293 350
#
# _framework density 20.652263999999999
#
# number of rings (size 3 to 8) (size 9 to 14) (size 15 to 20)
#    0.000    1.176    3.529    3.176    0.000    2.353 
#    0.000    2.941    0.000    3.529    0.000    0.000 
#    0.000    0.000    0.000    0.000    0.000    0.000 
#
# Total GULP energy -421289.803983 kJ/mol
# GULP energy per Si atom -12390.876588 kJ/mol
# Density = 2.060526 g / cm^3
# Si number density = 20.652264 Si / 1000 Ang^3
#
#
#
# Elastic Constant Matrix: (Units=GPa)
#
#
# Indices 1 2 3 4 5 6 
#
# 1 103.9854 56.2087 43.8437 0.0000 0.0000 0.0000
# 2 56.2087 117.7672 44.6209 0.0000 0.0000 0.0000
# 3 43.8437 44.6209 74.6848 0.0000 0.0000 0.0000
# 4 0.0000 0.0000 0.0000 27.5417 0.0000 0.0000
# 5 0.0000 0.0000 0.0000 0.0000 25.3898 0.0000
# 6 0.0000 0.0000 0.0000 0.0000 0.0000 20.1731
#
#
#
# Elastic Compliance Matrix: (Units=1/GPa)
#
#
# Indices 1 2 3 4 5 6 
#
# 1 0.014629 -0.004819 -0.005708 0.000000 0.000000 0.000000
# 2 -0.004819 0.012564 -0.004677 0.000000 0.000000 0.000000
# 3 -0.005708 -0.004677 0.019535 0.000000 0.000000 0.000000
# 4 0.000000 0.000000 0.000000 0.036309 0.000000 0.000000
# 5 0.000000 0.000000 0.000000 0.000000 0.039386 0.000000
# 6 0.000000 0.000000 0.000000 0.000000 0.000000 0.049571
#
#
# Mechanical properties :
#
#
# Convention : Reuss Voigt Hill
#
# Bulk Modulus (GPa) = 61.28265 65.08711 63.18488
# Shear Modulus (GPa) = 24.05680 24.73852 24.39766
#
# Velocity S-wave (km/s) = 3.41669 3.46477 3.44081
# Velocity P-wave (km/s) = 6.73075 6.89857 6.81518
#
# Compressibility (1/GPa) = 0.01631783
#
# Stress axis : x y z
#
# Youngs Moduli (GPa) = 68.35934 79.59537 51.18980
#
# Poissons Ratio (x) = 0.38358 0.29222
# Poissons Ratio (y) = 0.32943 0.23942
# Poissons Ratio (z) = 0.39023 0.37228
#
# Static dielectric constant tensor:
#      x y z
#    x 3.578410 0.000000 0.000000 
#    y 0.000000 3.650920 0.000000 
#    z 0.000000 0.000000 3.627160 
# 
# 
# High freq. dielectric constant tensor:
#      x y z
#    x 1.795020 0.000000 0.000000 
#    y 0.000000 1.807850 0.000000 
#    z 0.000000 0.000000 1.803160 
# 
# From -- ./inp_files/12236.got.cif
#   From: 2010.06.25/outbox.cif.g09.slc.cpg/sg71_7_cif.got.tgz:12236.got - 2010.06.28 04:59:45.
