data_PCOD8291335
_publ_section_title
;
Structure prediction by ZEFSAII (Michael W. Deem and Ramdas Pophale) SiO2 
 PCOD8291335
Probable space group: I M M M
;
_chemical_formula_sum "Si O2"
_cell_formula_units_Z 104
_cell_length_a 27.277336
_cell_length_b 8.991494
_cell_length_c 21.346254
_cell_angle_alpha 90.000000
_cell_angle_beta 90.000000
_cell_angle_gamma 90.000000
_cell_volume 5235.467705
_symmetry_space_group_name_H-M "I M M M"
_symmetry_group_IT_number 71
_symmetry_cell_setting 'orthorhombic'
loop_
_space_group_symop_operation_xyz
x,y,z
-x,-y,z
x,-y,-z
-x,y,-z
-x,-y,-z
x,y,-z
-x,y,z
x,-y,z
1/2+x,1/2+y,1/2+z
1/2-x,1/2-y,1/2+z
1/2+x,1/2-y,1/2-z
1/2-x,1/2+y,1/2-z
1/2-x,1/2-y,1/2-z
1/2+x,1/2+y,1/2-z
1/2-x,1/2+y,1/2+z
1/2+x,1/2-y,1/2+z
loop_
_atom_site_type_symbol
_atom_site_label
_atom_site_fract_x
_atom_site_fract_y
_atom_site_fract_z
Si Si1 0.129395 0.325083 0.094998
Si Si2 0.627854 0.172635 0.739463
Si Si3 0.283975 0.322740 0.802229
Si Si4 0.058332 0.334300 0.431552
Si Si5 0.557752 0.664376 0.814069
Si Si6 0.557534 0.323434 0.500000
Si Si7 0.238253 0.675836 0.931838
O O1 0.120345 0.500000 0.085045
O O2 0.132350 0.281925 0.167665
O O3 0.181561 0.271944 0.068037
O O4 0.084646 0.239894 0.061686
O O5 0.661587 0.270039 0.785898
O O6 0.573350 0.218585 0.760591
O O7 0.639267 0.000000 0.749292
O O8 0.278954 0.500000 0.798544
O O9 0.250000 0.250000 0.750000
O O10 0.268492 0.262528 0.871794
O O11 0.077634 0.285074 0.500000
O O12 0.077435 0.500000 0.415317
O O13 0.078950 0.218457 0.381074
O O14 0.000000 0.335050 0.431138
O O15 0.500000 0.662609 0.814987
O O16 0.578791 0.500000 0.800858
O O17 0.562086 0.500000 0.500000
O O18 0.500000 0.275614 0.500000
O O19 0.238898 0.500000 0.926247
O O20 0.260402 0.726532 0.000000
#
# Coordination Sequence:
#
# PCOD8291335 Si02
#       7
#    16  16  16  16  16   8  16
#     4  10  20  38  63  86 110 151 205 247 290 356
#     4  11  23  39  59  86 118 155 202 250 299 358
#     4  11  21  36  60  90 121 153 194 247 309 372
#     4   8  14  27  49  75 101 133 176 225 276 330
#     4  10  21  36  54  79 112 151 194 241 296 354
#     4  11  25  41  57  87 129 163 197 251 316 369
#     4   9  17  34  61  89 117 150 193 245 295 353
#
# _framework density 19.864509000000002
#
# number of rings (size 3 to 8) (size 9 to 14) (size 15 to 20)
#    0.000    2.077    2.308    2.077    0.000    3.692 
#    0.000    5.385    0.000    2.769    0.000    0.000 
#    0.000    0.000    0.000    0.000    0.000    0.000 
#
# Total GULP energy -644442.519279 kJ/mol
# GULP energy per Si atom -12393.125371 kJ/mol
# Density = 1.981930 g / cm^3
# Si number density = 19.864509 Si / 1000 Ang^3
#
#
#
# Elastic Constant Matrix: (Units=GPa)
#
#
# Indices 1 2 3 4 5 6 
#
# 1 61.7292 35.0489 52.2824 0.0000 0.0000 0.0000
# 2 35.0489 67.8469 54.0987 0.0000 0.0000 0.0000
# 3 52.2824 54.0987 167.3868 0.0000 0.0000 0.0000
# 4 0.0000 0.0000 0.0000 28.4606 0.0000 0.0000
# 5 0.0000 0.0000 0.0000 0.0000 34.4854 0.0000
# 6 0.0000 0.0000 0.0000 0.0000 0.0000 29.0161
#
#
#
# Elastic Compliance Matrix: (Units=1/GPa)
#
#
# Indices 1 2 3 4 5 6 
#
# 1 0.025735 -0.009275 -0.005041 0.000000 0.000000 0.000000
# 2 -0.009275 0.023199 -0.004601 0.000000 0.000000 0.000000
# 3 -0.005041 -0.004601 0.009035 0.000000 0.000000 0.000000
# 4 0.000000 0.000000 0.000000 0.035136 0.000000 0.000000
# 5 0.000000 0.000000 0.000000 0.000000 0.028998 0.000000
# 6 0.000000 0.000000 0.000000 0.000000 0.000000 0.034464
#
#
# Mechanical properties :
#
#
# Convention : Reuss Voigt Hill
#
# Bulk Modulus (GPa) = 49.66081 64.42476 57.04279
# Shear Modulus (GPa) = 24.86160 28.76128 26.81144
#
# Velocity S-wave (km/s) = 3.54158 3.80922 3.67783
# Velocity P-wave (km/s) = 6.46357 7.20065 6.84204
#
# Compressibility (1/GPa) = 0.02013660
#
# Stress axis : x y z
#
# Youngs Moduli (GPa) = 38.85699 43.10505 110.67460
#
# Poissons Ratio (x) = 0.39982 0.55786
# Poissons Ratio (y) = 0.36042 0.50918
# Poissons Ratio (z) = 0.19586 0.19831
#
# Static dielectric constant tensor:
#      x y z
#    x 3.606060 0.000000 0.000000 
#    y 0.000000 3.575130 0.000000 
#    z 0.000000 0.000000 3.997780 
# 
# 
# High freq. dielectric constant tensor:
#      x y z
#    x 1.756230 0.000000 0.000000 
#    y 0.000000 1.758650 0.000000 
#    z 0.000000 0.000000 1.791590 
# 
# From -- ./inp_files/56725.got.cif
#   From: 2010.06.25/outbox.cif.g09.slc.cpg/sg71_29_cif.got.tgz:56725.got - 2010.06.28 04:59:45.
