data_PCOD8291683
_publ_section_title
;
Structure prediction by ZEFSAII (Michael W. Deem and Ramdas Pophale) SiO2 
 PCOD8291683
Probable space group: I M M M
;
_chemical_formula_sum "Si O2"
_cell_formula_units_Z 52
_cell_length_a 16.138232
_cell_length_b 7.714636
_cell_length_c 21.000917
_cell_angle_alpha 90.000000
_cell_angle_beta 90.000000
_cell_angle_gamma 90.000000
_cell_volume 2614.626464
_symmetry_space_group_name_H-M "I M M M"
_symmetry_group_IT_number 71
_symmetry_cell_setting 'orthorhombic'
loop_
_space_group_symop_operation_xyz
x,y,z
-x,-y,z
x,-y,-z
-x,y,-z
-x,-y,-z
x,y,-z
-x,y,z
x,-y,z
1/2+x,1/2+y,1/2+z
1/2-x,1/2-y,1/2+z
1/2+x,1/2-y,1/2-z
1/2-x,1/2+y,1/2-z
1/2-x,1/2-y,1/2-z
1/2+x,1/2+y,1/2-z
1/2-x,1/2+y,1/2+z
1/2+x,1/2-y,1/2+z
loop_
_atom_site_type_symbol
_atom_site_label
_atom_site_fract_x
_atom_site_fract_y
_atom_site_fract_z
Si Si1 0.592450 0.000000 0.675942
Si Si2 0.000000 0.194556 0.608816
Si Si3 0.319986 0.300553 0.069880
Si Si4 0.500000 0.000000 0.795631
Si Si5 0.212600 0.194238 0.817682
O O1 0.641582 0.825381 0.657665
O O2 0.500000 0.000000 0.643613
O O3 0.582888 0.000000 0.752504
O O4 0.918877 0.226819 0.566564
O O5 0.000000 0.323011 0.667222
O O6 0.000000 0.000000 0.637283
O O7 0.297393 0.500000 0.083073
O O8 0.282342 0.188950 0.127256
O O9 0.285945 0.243428 0.000000
O O10 0.250000 0.250000 0.750000
O O11 0.176072 0.000000 0.810988
#
# Coordination Sequence:
#
# PCOD8291683 Si02
#       5
#     8   8  16   4  16
#     4  10  24  42  61  90 124 161 216 266 317 369
#     4  10  21  36  58  90 132 173 207 246 305 385
#     4  10  21  39  63  92 131 173 210 256 314 380
#     4  10  22  36  61  88 123 162 206 256 306 372
#     4  12  23  40  65  91 127 170 213 264 320 370
#
# _framework density 19.888119
#
# number of rings (size 3 to 8) (size 9 to 14) (size 15 to 20)
#    0.462    0.923    3.077    2.308    2.154    6.769 
#    0.000    0.769    0.000    1.846    0.000    2.154 
#    0.000    0.000    0.000    0.000    0.000    0.000 
#
# Total GULP energy -322266.184323 kJ/mol
# GULP energy per Si atom -12394.853243 kJ/mol
# Density = 1.984285 g / cm^3
# Si number density = 19.888119 Si / 1000 Ang^3
#
#
#
# Elastic Constant Matrix: (Units=GPa)
#
#
# Indices 1 2 3 4 5 6 
#
# 1 100.4194 45.6419 26.3218 0.0000 0.0000 0.0000
# 2 45.6419 137.0551 23.2983 0.0000 0.0000 0.0000
# 3 26.3218 23.2983 111.5369 0.0000 0.0000 0.0000
# 4 0.0000 0.0000 0.0000 24.6610 0.0000 0.0000
# 5 0.0000 0.0000 0.0000 0.0000 23.2460 0.0000
# 6 0.0000 0.0000 0.0000 0.0000 0.0000 15.3522
#
#
#
# Elastic Compliance Matrix: (Units=1/GPa)
#
#
# Indices 1 2 3 4 5 6 
#
# 1 0.012193 -0.003703 -0.002104 0.000000 0.000000 0.000000
# 2 -0.003703 0.008689 -0.000941 0.000000 0.000000 0.000000
# 3 -0.002104 -0.000941 0.009659 0.000000 0.000000 0.000000
# 4 0.000000 0.000000 0.000000 0.040550 0.000000 0.000000
# 5 0.000000 0.000000 0.000000 0.000000 0.043018 0.000000
# 6 0.000000 0.000000 0.000000 0.000000 0.000000 0.065137
#
#
# Mechanical properties :
#
#
# Convention : Reuss Voigt Hill
#
# Bulk Modulus (GPa) = 58.66826 59.94839 59.30833
# Shear Modulus (GPa) = 25.19861 29.56847 27.38354
#
# Velocity S-wave (km/s) = 3.56338 3.86001 3.71466
# Velocity P-wave (km/s) = 6.81861 7.07633 6.94867
#
# Compressibility (1/GPa) = 0.01704499
#
# Stress axis : x y z
#
# Youngs Moduli (GPa) = 82.01663 115.08246 103.53291
#
# Poissons Ratio (x) = 0.42612 0.21782
# Poissons Ratio (y) = 0.30369 0.09745
# Poissons Ratio (z) = 0.17256 0.10832
#
# Static dielectric constant tensor:
#      x y z
#    x 3.664160 0.000000 0.000000 
#    y 0.000000 3.695280 0.000000 
#    z 0.000000 0.000000 3.413480 
# 
# 
# High freq. dielectric constant tensor:
#      x y z
#    x 1.758240 0.000000 0.000000 
#    y 0.000000 1.783150 0.000000 
#    z 0.000000 0.000000 1.760650 
# 
# From -- ./inp_files/11871.got.cif
#   From: 2010.06.25/outbox.cif.g09.slc.cpg/sg71_6_cif.got.tgz:11871.got - 2010.06.28 04:59:45.
