data_PCOD8291429
_publ_section_title
;
Structure prediction by ZEFSAII (Michael W. Deem and Ramdas Pophale) SiO2 
 PCOD8291429
Probable space group: I M M M
;
_chemical_formula_sum "Si O2"
_cell_formula_units_Z 112
_cell_length_a 14.179141
_cell_length_b 14.578076
_cell_length_c 29.423514
_cell_angle_alpha 90.000000
_cell_angle_beta 90.000000
_cell_angle_gamma 90.000000
_cell_volume 6081.975548
_symmetry_space_group_name_H-M "I M M M"
_symmetry_group_IT_number 71
_symmetry_cell_setting 'orthorhombic'
loop_
_space_group_symop_operation_xyz
x,y,z
-x,-y,z
x,-y,-z
-x,y,-z
-x,-y,-z
x,y,-z
-x,y,z
x,-y,z
1/2+x,1/2+y,1/2+z
1/2-x,1/2-y,1/2+z
1/2+x,1/2-y,1/2-z
1/2-x,1/2+y,1/2-z
1/2-x,1/2-y,1/2-z
1/2+x,1/2+y,1/2-z
1/2-x,1/2+y,1/2+z
1/2+x,1/2-y,1/2+z
loop_
_atom_site_type_symbol
_atom_site_label
_atom_site_fract_x
_atom_site_fract_y
_atom_site_fract_z
Si Si1 0.760319 0.603659 0.618609
Si Si2 0.895498 0.096564 0.553793
Si Si3 0.764867 0.392423 0.276471
Si Si4 0.892331 0.249101 0.880890
Si Si5 0.891065 0.744937 0.776023
Si Si6 0.612503 0.793773 0.051797
Si Si7 0.111866 0.398462 0.050139
O O1 0.733936 0.500000 0.608056
O O2 0.791370 0.617050 0.670680
O O3 0.665663 0.658547 0.607637
O O4 0.845831 0.631955 0.585978
O O5 0.904324 0.100644 0.500000
O O6 0.847547 0.192977 0.568321
O O7 0.000000 0.093317 0.574960
O O8 0.843187 0.000000 0.568315
O O9 0.754650 0.500000 0.262478
O O10 0.850230 0.343683 0.249902
O O11 0.667257 0.338369 0.265108
O O12 0.882613 0.279735 0.828925
O O13 0.849321 0.330079 0.911790
O O14 0.000000 0.227205 0.893690
O O15 0.000000 0.761240 0.761800
O O16 0.500000 0.795568 0.055363
O O17 0.643706 0.815761 0.000000
O O18 0.149781 0.500000 0.061466
O O19 0.000000 0.398751 0.050208
O O20 0.149153 0.368867 0.000000
#
# Coordination Sequence:
#
# PCOD8291429 Si02
#       7
#    16  16  16  16  16  16  16
#     4  10  21  35  50  70  97 130 168 209 251 292
#     4   7  10  20  41  66  88 111 144 189 238 285
#     4   9  19  35  53  76 105 133 165 207 254 306
#     4   9  18  33  53  76 100 127 161 201 245 294
#     4   9  18  33  54  79 104 131 165 206 253 304
#     4   9  18  32  49  69  95 130 171 213 255 297
#     4   8  14  26  45  69  98 130 159 190 235 291
#
# _framework density 18.415068999999999
#
# number of rings (size 3 to 8) (size 9 to 14) (size 15 to 20)
#    0.000    3.286    0.000    1.714    0.000    3.143 
#    0.000    7.143    0.000    5.143    0.000    9.000 
#    0.000    0.000    0.000    0.000    0.000    0.000 
#
# Total GULP energy -693790.429457 kJ/mol
# GULP energy per Si atom -12389.114812 kJ/mol
# Density = 1.837316 g / cm^3
# Si number density = 18.415069 Si / 1000 Ang^3
#
#
#
# Elastic Constant Matrix: (Units=GPa)
#
#
# Indices 1 2 3 4 5 6 
#
# 1 84.0422 51.1453 41.9843 0.0000 0.0000 0.0000
# 2 51.1453 154.3672 70.4675 0.0000 0.0000 0.0000
# 3 41.9843 70.4675 71.0734 0.0000 0.0000 0.0000
# 4 0.0000 0.0000 0.0000 30.9928 0.0000 0.0000
# 5 0.0000 0.0000 0.0000 0.0000 19.3873 0.0000
# 6 0.0000 0.0000 0.0000 0.0000 0.0000 3.6792
#
#
#
# Elastic Compliance Matrix: (Units=1/GPa)
#
#
# Indices 1 2 3 4 5 6 
#
# 1 0.017191 -0.001937 -0.008235 0.000000 0.000000 0.000000
# 2 -0.001937 0.012052 -0.010806 0.000000 0.000000 0.000000
# 3 -0.008235 -0.010806 0.029648 0.000000 0.000000 0.000000
# 4 0.000000 0.000000 0.000000 0.032266 0.000000 0.000000
# 5 0.000000 0.000000 0.000000 0.000000 0.051580 0.000000
# 6 0.000000 0.000000 0.000000 0.000000 0.000000 0.271798
#
#
# Mechanical properties :
#
#
# Convention : Reuss Voigt Hill
#
# Bulk Modulus (GPa) = 59.04206 70.74189 64.89198
# Shear Modulus (GPa) = 10.81932 20.53757 15.67844
#
# Velocity S-wave (km/s) = 2.42652 3.34317 2.92103
# Velocity P-wave (km/s) = 6.32314 7.30760 6.83312
#
# Compressibility (1/GPa) = 0.01693708
#
# Stress axis : x y z
#
# Youngs Moduli (GPa) = 58.16905 82.97086 33.72887
#
# Poissons Ratio (x) = 0.16068 0.27776
# Poissons Ratio (y) = 0.11265 0.36446
# Poissons Ratio (z) = 0.47903 0.89656
#
# Static dielectric constant tensor:
#      x y z
#    x 3.249160 0.000000 0.000000 
#    y 0.000000 3.757380 0.000000 
#    z 0.000000 0.000000 3.316120 
# 
# 
# High freq. dielectric constant tensor:
#      x y z
#    x 1.706720 0.000000 0.000000 
#    y 0.000000 1.719550 0.000000 
#    z 0.000000 0.000000 1.690700 
# 
# From -- ./inp_files/41071.got.cif
#   From: 2010.06.25/outbox.cif.g09.slc.cpg/sg71_21_cif.got.tgz:41071.got - 2010.06.28 04:59:45.
