data_PCOD8291845
_publ_section_title
;
Structure prediction by ZEFSAII (Michael W. Deem and Ramdas Pophale) SiO2 
 PCOD8291845
Probable space group: I M M M
;
_chemical_formula_sum "Si O2"
_cell_formula_units_Z 80
_cell_length_a 9.329875
_cell_length_b 25.133235
_cell_length_c 18.130282
_cell_angle_alpha 90.000000
_cell_angle_beta 90.000000
_cell_angle_gamma 90.000000
_cell_volume 4251.368755
_symmetry_space_group_name_H-M "I M M M"
_symmetry_group_IT_number 71
_symmetry_cell_setting 'orthorhombic'
loop_
_space_group_symop_operation_xyz
x,y,z
-x,-y,z
x,-y,-z
-x,y,-z
-x,-y,-z
x,y,-z
-x,y,z
x,-y,z
1/2+x,1/2+y,1/2+z
1/2-x,1/2-y,1/2+z
1/2+x,1/2-y,1/2-z
1/2-x,1/2+y,1/2-z
1/2-x,1/2-y,1/2-z
1/2+x,1/2+y,1/2-z
1/2-x,1/2+y,1/2+z
1/2+x,1/2-y,1/2+z
loop_
_atom_site_type_symbol
_atom_site_label
_atom_site_fract_x
_atom_site_fract_y
_atom_site_fract_z
Si Si1 0.836085 0.061656 0.584815
Si Si2 0.167715 0.650775 0.160653
Si Si3 0.167348 0.061039 0.916174
Si Si4 0.666761 0.850762 0.831278
Si Si5 0.165246 0.754638 0.413656
O O1 0.806998 0.076778 0.500000
O O2 0.729801 0.094015 0.636722
O O3 0.000000 0.075445 0.605106
O O4 0.804510 0.000000 0.598811
O O5 0.202008 0.659385 0.246175
O O6 0.240968 0.696632 0.113620
O O7 0.000000 0.651699 0.144060
O O8 0.251613 0.097403 0.859170
O O9 0.000000 0.071822 0.906040
O O10 0.204148 0.000000 0.897594
O O11 0.213914 0.074230 0.000000
O O12 0.500000 0.860961 0.845183
O O13 0.720687 0.799020 0.875068
O O14 0.187389 0.747252 0.500000
O O15 0.000000 0.765990 0.393422
#
# Coordination Sequence:
#
# PCOD8291845 Si02
#       5
#    16  16  16  16  16
#     4   9  19  37  59  80 104 140 185 225 263 315
#     4  11  23  36  53  81 114 143 174 218 271 322
#     4   9  19  36  57  82 111 142 179 223 268 314
#     4  10  22  38  55  79 111 145 180 218 264 319
#     4  10  21  38  59  79 102 138 183 225 265 316
#
# _framework density 18.81747
#
# number of rings (size 3 to 8) (size 9 to 14) (size 15 to 20)
#    0.000    2.200    0.000    3.600    0.000    8.400 
#    0.000    6.000    0.000    0.000    0.000    0.000 
#    0.000    0.000    0.000    0.000    0.000    0.000 
#
# Total GULP energy -496174.535260 kJ/mol
# GULP energy per Si atom -12404.363381 kJ/mol
# Density = 1.877464 g / cm^3
# Si number density = 18.817470 Si / 1000 Ang^3
#
#
#
# Elastic Constant Matrix: (Units=GPa)
#
#
# Indices 1 2 3 4 5 6 
#
# 1 75.9646 56.5829 54.8819 0.0000 0.0000 0.0001
# 2 56.5829 110.1215 56.6453 -0.0001 0.0000 0.0002
# 3 54.8819 56.6453 93.9323 -0.0001 0.0000 0.0002
# 4 0.0000 -0.0001 -0.0001 24.4025 0.0000 0.0001
# 5 0.0000 0.0000 0.0000 0.0000 33.6118 -0.0001
# 6 0.0001 0.0002 0.0002 0.0001 -0.0001 144.0060
#
#
#
# Elastic Compliance Matrix: (Units=1/GPa)
#
#
# Indices 1 2 3 4 5 6 
#
# 1 0.027295 -0.008439 -0.010858 0.000000 0.000000 0.000000
# 2 -0.008439 0.015774 -0.004581 0.000000 0.000000 0.000000
# 3 -0.010858 -0.004581 0.019753 0.000000 0.000000 0.000000
# 4 0.000000 0.000000 0.000000 0.040979 0.000000 0.000000
# 5 0.000000 0.000000 0.000000 0.000000 0.029751 0.000000
# 6 0.000000 0.000000 0.000000 0.000000 0.000000 0.006944
#
#
# Mechanical properties :
#
#
# Convention : Reuss Voigt Hill
#
# Bulk Modulus (GPa) = 66.38563 68.47093 67.42828
# Shear Modulus (GPa) = 25.86971 47.86461 36.86716
#
# Velocity S-wave (km/s) = 3.71181 5.04891 4.43109
# Velocity P-wave (km/s) = 7.32976 8.39372 7.87972
#
# Compressibility (1/GPa) = 0.01506350
#
# Stress axis : x y z
#
# Youngs Moduli (GPa) = 36.63683 63.39608 50.62522
#
# Poissons Ratio (x) = 0.53502 0.54971
# Poissons Ratio (y) = 0.30919 0.23194
# Poissons Ratio (z) = 0.39782 0.29045
#
# Static dielectric constant tensor:
#      x y z
#    x 3.389410 0.000000 0.000000 
#    y 0.000000 3.486730 0.000000 
#    z 0.000000 0.000000 3.486570 
# 
# 
# High freq. dielectric constant tensor:
#      x y z
#    x 1.726120 0.000000 0.000000 
#    y 0.000000 1.742180 0.000000 
#    z 0.000000 0.000000 1.736830 
# 
# From -- ./inp_files/8295.got.cif
#   From: 2010.06.25/outbox.cif.g09.slc.cpg/sg71_5_cif.got.tgz:8295.got - 2010.06.28 04:59:45.
