data_PCOD8291049
_publ_section_title
;
Structure prediction by ZEFSAII (Michael W. Deem and Ramdas Pophale) SiO2 
 PCOD8291049
Probable space group: I M M M
;
_chemical_formula_sum "Si O2"
_cell_formula_units_Z 96
_cell_length_a 25.410168
_cell_length_b 21.779709
_cell_length_c 9.202570
_cell_angle_alpha 90.000000
_cell_angle_beta 90.000000
_cell_angle_gamma 90.000000
_cell_volume 5092.942100
_symmetry_space_group_name_H-M "I M M M"
_symmetry_group_IT_number 71
_symmetry_cell_setting 'orthorhombic'
loop_
_space_group_symop_operation_xyz
x,y,z
-x,-y,z
x,-y,-z
-x,y,-z
-x,-y,-z
x,y,-z
-x,y,z
x,-y,z
1/2+x,1/2+y,1/2+z
1/2-x,1/2-y,1/2+z
1/2+x,1/2-y,1/2-z
1/2-x,1/2+y,1/2-z
1/2-x,1/2-y,1/2-z
1/2+x,1/2+y,1/2-z
1/2-x,1/2+y,1/2+z
1/2+x,1/2-y,1/2+z
loop_
_atom_site_type_symbol
_atom_site_label
_atom_site_fract_x
_atom_site_fract_y
_atom_site_fract_z
Si Si1 0.795620 0.500000 0.672080
Si Si2 0.058423 0.380219 0.834888
Si Si3 0.859509 0.302029 0.665424
Si Si4 0.558714 0.569210 0.172499
Si Si5 0.148797 0.840582 0.333530
Si Si6 0.584747 0.000000 0.172815
Si Si7 0.245662 0.370762 0.670858
O O1 0.795382 0.500000 0.500000
O O2 0.855198 0.500000 0.726708
O O3 0.767387 0.561143 0.731041
O O4 0.098532 0.331021 0.772335
O O5 0.056979 0.440708 0.737364
O O6 0.000000 0.351301 0.829978
O O7 0.074626 0.396445 0.000000
O O8 0.870024 0.324293 0.500000
O O9 0.867577 0.229797 0.679983
O O10 0.801127 0.323719 0.711866
O O11 0.500000 0.585947 0.231202
O O12 0.573789 0.500000 0.222371
O O13 0.602076 0.617050 0.233326
O O14 0.557726 0.573066 0.000000
O O15 0.159537 0.858910 0.500000
O O16 0.201704 0.848844 0.245379
O O17 0.578848 0.000000 0.000000
O O18 0.255348 0.371675 0.500000
#
# Coordination Sequence:
#
# PCOD8291049 Si02
#       7
#     8  16  16  16  16   8  16
#     4   9  18  34  56  79 107 143 184 226 267 327
#     4  11  24  39  56  83 117 149 189 241 290 335
#     4  10  21  38  57  78 109 150 192 231 277 335
#     4   8  15  30  51  75 107 141 169 212 277 334
#     4  10  21  34  55  87 111 135 184 237 275 331
#     4  11  20  38  63  84 112 151 195 237 281 335
#     4  10  20  36  55  77 110 148 181 221 279 338
#
# _framework density 18.849616000000001
#
# number of rings (size 3 to 8) (size 9 to 14) (size 15 to 20)
#    0.000    2.167    1.667    2.000    1.167    4.333 
#    0.000    1.667    0.000    0.500    0.000    1.167 
#    0.000    0.000    0.000    0.000    0.000    0.000 
#
# Total GULP energy -595168.329424 kJ/mol
# GULP energy per Si atom -12399.340196 kJ/mol
# Density = 1.880671 g / cm^3
# Si number density = 18.849616 Si / 1000 Ang^3
#
#
#
# Elastic Constant Matrix: (Units=GPa)
#
#
# Indices 1 2 3 4 5 6 
#
# 1 134.3246 55.5288 56.5123 0.0000 0.0000 0.0000
# 2 55.5288 103.6515 36.7030 0.0000 0.0000 0.0000
# 3 56.5123 36.7030 71.8623 0.0000 0.0000 0.0000
# 4 0.0000 0.0000 0.0000 17.6928 0.0000 0.0000
# 5 0.0000 0.0000 0.0000 0.0000 23.0795 0.0000
# 6 0.0000 0.0000 0.0000 0.0000 0.0000 29.5106
#
#
#
# Elastic Compliance Matrix: (Units=1/GPa)
#
#
# Indices 1 2 3 4 5 6 
#
# 1 0.012269 -0.003853 -0.007680 0.000000 0.000000 0.000000
# 2 -0.003853 0.012988 -0.003603 0.000000 0.000000 0.000000
# 3 -0.007680 -0.003603 0.021795 0.000000 0.000000 0.000000
# 4 0.000000 0.000000 0.000000 0.056520 0.000000 0.000000
# 5 0.000000 0.000000 0.000000 0.000000 0.043328 0.000000
# 6 0.000000 0.000000 0.000000 0.000000 0.000000 0.033886
#
#
# Mechanical properties :
#
#
# Convention : Reuss Voigt Hill
#
# Bulk Modulus (GPa) = 59.59870 67.48073 63.53972
# Shear Modulus (GPa) = 23.07841 24.79621 23.93731
#
# Velocity S-wave (km/s) = 3.50286 3.63088 3.56745
# Velocity P-wave (km/s) = 6.93157 7.31129 7.12396
#
# Compressibility (1/GPa) = 0.01677889
#
# Stress axis : x y z
#
# Youngs Moduli (GPa) = 81.50889 76.99494 45.88110
#
# Poissons Ratio (x) = 0.29667 0.35237
# Poissons Ratio (y) = 0.31406 0.16533
# Poissons Ratio (z) = 0.62599 0.27744
#
# Static dielectric constant tensor:
#      x y z
#    x 3.576630 0.000000 0.000000 
#    y 0.000000 3.665980 0.000000 
#    z 0.000000 0.000000 3.213800 
# 
# 
# High freq. dielectric constant tensor:
#      x y z
#    x 1.741030 0.000000 0.000000 
#    y 0.000000 1.738350 0.000000 
#    z 0.000000 0.000000 1.703740 
# 
# From -- ./inp_files/12943.got.cif
#   From: 2010.06.25/outbox.cif.g09.slc.cpg/sg71_7_cif.got.tgz:12943.got - 2010.06.28 04:59:45.
