data_PCOD8291382
_publ_section_title
;
Structure prediction by ZEFSAII (Michael W. Deem and Ramdas Pophale) SiO2 
 PCOD8291382
Probable space group: I M M M
;
_chemical_formula_sum "Si O2"
_cell_formula_units_Z 104
_cell_length_a 13.175437
_cell_length_b 30.766822
_cell_length_c 14.231448
_cell_angle_alpha 90.000000
_cell_angle_beta 90.000000
_cell_angle_gamma 90.000000
_cell_volume 5768.949774
_symmetry_space_group_name_H-M "I M M M"
_symmetry_group_IT_number 71
_symmetry_cell_setting 'orthorhombic'
loop_
_space_group_symop_operation_xyz
x,y,z
-x,-y,z
x,-y,-z
-x,y,-z
-x,-y,-z
x,y,-z
-x,y,z
x,-y,z
1/2+x,1/2+y,1/2+z
1/2-x,1/2-y,1/2+z
1/2+x,1/2-y,1/2-z
1/2-x,1/2+y,1/2-z
1/2-x,1/2-y,1/2-z
1/2+x,1/2+y,1/2-z
1/2-x,1/2+y,1/2+z
1/2+x,1/2-y,1/2+z
loop_
_atom_site_type_symbol
_atom_site_label
_atom_site_fract_x
_atom_site_fract_y
_atom_site_fract_z
Si Si1 0.000000 0.953452 0.889946
Si Si2 0.877552 0.800461 0.241489
Si Si3 0.754309 0.742657 0.893327
Si Si4 0.613716 0.549974 0.105639
Si Si5 0.721218 0.448577 0.391680
Si Si6 0.115448 0.342508 0.895853
Si Si7 0.261367 0.388935 0.234882
O O1 0.893360 0.930800 0.865950
O O2 0.000000 0.000000 0.837840
O O3 0.000000 0.962511 0.000000
O O4 0.815785 0.783017 0.150990
O O5 0.844666 0.771383 0.332241
O O6 0.842439 0.850359 0.250456
O O7 0.000000 0.798155 0.229639
O O8 0.832687 0.703779 0.893644
O O9 0.719750 0.754388 0.000000
O O10 0.500000 0.556063 0.145026
O O11 0.645647 0.500000 0.106118
O O12 0.689875 0.574894 0.170527
O O13 0.620045 0.568662 0.000000
O O14 0.749875 0.441042 0.500000
O O15 0.734692 0.500000 0.367236
O O16 0.782449 0.414446 0.327444
O O17 0.160813 0.373164 0.816629
O O18 0.000000 0.334758 0.868829
O O19 0.127707 0.363330 0.000000
#
# Coordination Sequence:
#
# PCOD8291382 Si02
#       7
#     8  16  16  16  16  16  16
#     4   7  12  24  40  58  83 121 167 199 216 254
#     4  10  21  33  49  80 111 131 163 211 256 300
#     4   9  19  37  56  72  99 139 174 201 242 304
#     4   9  18  31  46  67  98 135 169 197 235 298
#     4   9  18  31  46  66  97 138 177 206 234 283
#     4   9  18  34  56  76  93 122 165 207 250 305
#     4  11  20  30  49  76 104 130 160 207 259 297
#
# _framework density 18.027545
#
# number of rings (size 3 to 8) (size 9 to 14) (size 15 to 20)
#    0.000    2.692    0.000    3.231    2.154    2.462 
#    0.000    0.000    0.000    2.308    0.000    6.462 
#    0.000    0.000    0.000    0.000    0.000    0.000 
#
# Total GULP energy -644222.260653 kJ/mol
# GULP energy per Si atom -12388.889628 kJ/mol
# Density = 1.798651 g / cm^3
# Si number density = 18.027545 Si / 1000 Ang^3
#
#
#
# Elastic Constant Matrix: (Units=GPa)
#
#
# Indices 1 2 3 4 5 6 
#
# 1 50.9298 14.2812 15.0454 0.0001 -0.0006 0.0006
# 2 14.2812 40.9215 27.4343 0.0011 0.0003 -0.0003
# 3 15.0454 27.4343 80.6144 0.0033 -0.0016 0.0019
# 4 0.0001 0.0011 0.0033 6.1966 -0.0014 0.0006
# 5 -0.0006 0.0003 -0.0016 -0.0014 23.5122 -0.0003
# 6 0.0006 -0.0003 0.0019 0.0006 -0.0003 12.9096
#
#
#
# Elastic Compliance Matrix: (Units=1/GPa)
#
#
# Indices 1 2 3 4 5 6 
#
# 1 0.021995 -0.006379 -0.001934 0.000002 0.000000 -0.000001
# 2 -0.006379 0.033511 -0.010214 0.000000 -0.000001 0.000003
# 3 -0.001934 -0.010214 0.016242 -0.000007 0.000001 -0.000003
# 4 0.000002 0.000000 -0.000007 0.161379 0.000010 -0.000007
# 5 0.000000 -0.000001 0.000001 0.000010 0.042531 0.000001
# 6 -0.000001 0.000003 -0.000003 -0.000007 0.000001 0.077462
#
#
# Mechanical properties :
#
#
# Convention : Reuss Voigt Hill
#
# Bulk Modulus (GPa) = 28.82407 31.77638 30.30023
# Shear Modulus (GPa) = 12.44594 16.23735 14.34165
#
# Velocity S-wave (km/s) = 2.63037 3.00442 2.82359
# Velocity P-wave (km/s) = 5.02481 5.44979 5.24161
#
# Compressibility (1/GPa) = 0.03469322
#
# Stress axis : x y z
#
# Youngs Moduli (GPa) = 45.46479 29.84117 61.57062
#
# Poissons Ratio (x) = 0.19037 0.11908
# Poissons Ratio (y) = 0.29004 0.62886
# Poissons Ratio (z) = 0.08793 0.30479
#
# Static dielectric constant tensor:
#      x y z
#    x 3.273340 0.000000 0.000000 
#    y 0.000000 3.336620 0.000000 
#    z 0.000000 0.000000 3.760270 
# 
# 
# High freq. dielectric constant tensor:
#      x y z
#    x 1.664910 0.000000 0.000000 
#    y 0.000000 1.690100 0.000000 
#    z 0.000000 0.000000 1.712230 
# 
# From -- ./inp_files/33287.got.cif
#   From: 2010.06.25/outbox.cif.g09.slc.cpg/sg71_17_cif.got.tgz:33287.got - 2010.06.28 04:59:45.
