data_PCOD8291400
_publ_section_title
;
Structure prediction by ZEFSAII (Michael W. Deem and Ramdas Pophale) SiO2 
 PCOD8291400
Probable space group: I M M M
;
_chemical_formula_sum "Si O2"
_cell_formula_units_Z 104
_cell_length_a 27.452860
_cell_length_b 11.655764
_cell_length_c 18.249268
_cell_angle_alpha 90.000000
_cell_angle_beta 90.000000
_cell_angle_gamma 90.000000
_cell_volume 5839.474817
_symmetry_space_group_name_H-M "I M M M"
_symmetry_group_IT_number 71
_symmetry_cell_setting 'orthorhombic'
loop_
_space_group_symop_operation_xyz
x,y,z
-x,-y,z
x,-y,-z
-x,y,-z
-x,-y,-z
x,y,-z
-x,y,z
x,-y,z
1/2+x,1/2+y,1/2+z
1/2-x,1/2-y,1/2+z
1/2+x,1/2-y,1/2-z
1/2-x,1/2+y,1/2-z
1/2-x,1/2-y,1/2-z
1/2+x,1/2+y,1/2-z
1/2-x,1/2+y,1/2+z
1/2+x,1/2-y,1/2+z
loop_
_atom_site_type_symbol
_atom_site_label
_atom_site_fract_x
_atom_site_fract_y
_atom_site_fract_z
Si Si1 0.944804 0.622215 0.000000
Si Si2 0.411062 0.745619 0.361734
Si Si3 0.215685 0.000000 0.917857
Si Si4 0.100844 0.000000 0.915689
Si Si5 0.843471 0.369501 0.662797
Si Si6 0.814942 0.631627 0.171758
Si Si7 0.739443 0.233329 0.086814
Si Si8 0.054370 0.632013 0.278565
O O1 0.934829 0.696572 0.930177
O O2 0.915607 0.500000 0.000000
O O3 0.000000 0.588299 0.000000
O O4 0.417671 0.609600 0.370682
O O5 0.354800 0.783148 0.362151
O O6 0.440266 0.784791 0.290282
O O7 0.236131 0.116163 0.881913
O O8 0.158420 0.000000 0.915145
O O9 0.235940 0.000000 0.000000
O O10 0.081900 0.000000 0.000000
O O11 0.836993 0.500000 0.634764
O O12 0.816497 0.353250 0.740785
O O13 0.818054 0.280796 0.606051
O O14 0.901483 0.339591 0.665444
O O15 0.826808 0.500000 0.151530
O O16 0.763241 0.664279 0.134501
O O17 0.747060 0.255948 0.000000
O O18 0.060877 0.500000 0.252092
O O19 0.000000 0.649860 0.313170
#
# Coordination Sequence:
#
# PCOD8291400 Si02
#       8
#     8  16   8   8  16  16  16  16
#     4  11  22  33  47  67  93 128 171 219 264 299
#     4  11  20  33  50  71  97 132 172 216 255 304
#     4   9  18  30  46  70  99 138 173 195 232 296
#     4  11  20  34  46  68 102 139 174 207 256 303
#     4   9  18  33  53  76 104 134 170 213 254 305
#     4  10  21  34  50  76 105 137 175 215 257 299
#     4  11  20  32  52  77 106 139 173 207 250 308
#     4   9  18  35  57  76  95 125 167 214 263 309
#
# _framework density 17.809819999999998
#
# number of rings (size 3 to 8) (size 9 to 14) (size 15 to 20)
#    0.000    1.923    3.077    3.231    1.077    1.538 
#    0.000    1.923    0.000    0.462    0.000    2.154 
#    0.000    0.000    0.000    1.385    0.000    0.000 
#
# Total GULP energy -644462.779877 kJ/mol
# GULP energy per Si atom -12393.514998 kJ/mol
# Density = 1.776928 g / cm^3
# Si number density = 17.809820 Si / 1000 Ang^3
#
#
#
# Elastic Constant Matrix: (Units=GPa)
#
#
# Indices 1 2 3 4 5 6 
#
# 1 91.7685 14.0893 21.8111 0.0000 0.0000 0.0000
# 2 14.0893 91.4133 13.8172 0.0000 0.0000 0.0000
# 3 21.8111 13.8172 32.2853 0.0000 0.0000 0.0000
# 4 0.0000 0.0000 0.0000 19.8442 0.0000 0.0000
# 5 0.0000 0.0000 0.0000 0.0000 28.6880 0.0000
# 6 0.0000 0.0000 0.0000 0.0000 0.0000 20.4112
#
#
#
# Elastic Compliance Matrix: (Units=1/GPa)
#
#
# Indices 1 2 3 4 5 6 
#
# 1 0.013026 -0.000724 -0.008490 0.000000 0.000000 0.000000
# 2 -0.000724 0.011736 -0.004533 0.000000 0.000000 0.000000
# 3 -0.008490 -0.004533 0.038650 0.000000 0.000000 0.000000
# 4 0.000000 0.000000 0.000000 0.050393 0.000000 0.000000
# 5 0.000000 0.000000 0.000000 0.000000 0.034858 0.000000
# 6 0.000000 0.000000 0.000000 0.000000 0.000000 0.048993
#
#
# Mechanical properties :
#
#
# Convention : Reuss Voigt Hill
#
# Bulk Modulus (GPa) = 27.84253 34.98916 31.41584
# Shear Modulus (GPa) = 21.08611 24.83864 22.96237
#
# Velocity S-wave (km/s) = 3.44460 3.73857 3.59459
# Velocity P-wave (km/s) = 5.61138 6.19068 5.90813
#
# Compressibility (1/GPa) = 0.03591627
#
# Stress axis : x y z
#
# Youngs Moduli (GPa) = 76.76899 85.20641 25.87340
#
# Poissons Ratio (x) = 0.06172 0.21967
# Poissons Ratio (y) = 0.05561 0.11729
# Poissons Ratio (z) = 0.65178 0.38627
#
# Static dielectric constant tensor:
#      x y z
#    x 3.388580 0.000000 0.000000 
#    y 0.000000 3.486550 0.000000 
#    z 0.000000 0.000000 2.502280 
# 
# 
# High freq. dielectric constant tensor:
#      x y z
#    x 1.687310 0.000000 0.000000 
#    y 0.000000 1.681250 0.000000 
#    z 0.000000 0.000000 1.655120 
# 
# From -- ./inp_files/48912.got.cif
#   From: 2010.06.25/outbox.cif.g09.slc.cpg/sg71_25_cif.got.tgz:48912.got - 2010.06.28 04:59:45.
