data_PCOD8291808
_publ_section_title
;
Structure prediction by ZEFSAII (Michael W. Deem and Ramdas Pophale) SiO2 
 PCOD8291808
Probable space group: I M M M
;
_chemical_formula_sum "Si O2"
_cell_formula_units_Z 112
_cell_length_a 14.045608
_cell_length_b 26.273526
_cell_length_c 14.182038
_cell_angle_alpha 90.000000
_cell_angle_beta 90.000000
_cell_angle_gamma 90.000000
_cell_volume 5233.564112
_symmetry_space_group_name_H-M "I M M M"
_symmetry_group_IT_number 71
_symmetry_cell_setting 'orthorhombic'
loop_
_space_group_symop_operation_xyz
x,y,z
-x,-y,z
x,-y,-z
-x,y,-z
-x,-y,-z
x,y,-z
-x,y,z
x,-y,z
1/2+x,1/2+y,1/2+z
1/2-x,1/2-y,1/2+z
1/2+x,1/2-y,1/2-z
1/2-x,1/2+y,1/2-z
1/2-x,1/2-y,1/2-z
1/2+x,1/2+y,1/2-z
1/2-x,1/2+y,1/2+z
1/2+x,1/2-y,1/2+z
loop_
_atom_site_type_symbol
_atom_site_label
_atom_site_fract_x
_atom_site_fract_y
_atom_site_fract_z
Si Si1 0.607504 0.351893 0.893107
Si Si2 0.728039 0.216780 0.659160
Si Si3 0.776145 0.099824 0.112574
Si Si4 0.105668 0.805615 0.895887
Si Si5 0.391220 0.941750 0.220313
Si Si6 0.390670 0.443964 0.234811
Si Si7 0.109459 0.624205 0.108091
O O1 0.500000 0.338032 0.861972
O O2 0.669932 0.300485 0.882153
O O3 0.649166 0.399972 0.834541
O O4 0.610009 0.370415 0.000000
O O5 0.750000 0.250000 0.750000
O O6 0.662597 0.252752 0.594363
O O7 0.666155 0.165870 0.669438
O O8 0.824698 0.152504 0.151772
O O9 0.668232 0.094777 0.150004
O O10 0.836556 0.056146 0.164764
O O11 0.777891 0.093876 0.000000
O O12 0.000000 0.800781 0.846203
O O13 0.086144 0.825892 0.000000
O O14 0.500000 0.934505 0.189104
O O15 0.378094 0.927325 0.331050
O O16 0.358123 0.000000 0.209416
O O17 0.500000 0.433218 0.256391
O O18 0.375983 0.500000 0.189091
O O19 0.000000 0.640950 0.103372
O O20 0.148842 0.617957 0.000000
#
# Coordination Sequence:
#
# PCOD8291808 Si02
#       7
#    16  16  16  16  16  16  16
#     4  10  22  40  61  87 121 160 201 244 293 354
#     4  12  23  35  56  84 116 155 195 238 290 351
#     4  11  23  39  59  84 117 157 201 250 301 352
#     4  10  21  38  60  83 108 142 186 237 293 349
#     4  10  22  40  61  87 121 160 201 244 293 354
#     4  10  21  37  59  88 120 155 198 249 305 361
#     4  10  21  38  62  91 120 151 194 251 309 360
#
# _framework density 21.400331000000001
#
# number of rings (size 3 to 8) (size 9 to 14) (size 15 to 20)
#    0.000    1.571    0.000    5.143    0.000    6.286 
#    0.000    5.000    0.000    4.286    0.000    0.000 
#    0.000    0.000    0.000    0.000    0.000    0.000 
#
# Total GULP energy -693828.899490 kJ/mol
# GULP energy per Si atom -12389.801777 kJ/mol
# Density = 2.135162 g / cm^3
# Si number density = 21.400331 Si / 1000 Ang^3
#
#
#
# Elastic Constant Matrix: (Units=GPa)
#
#
# Indices 1 2 3 4 5 6 
#
# 1 140.4139 74.8286 39.4456 0.0000 0.0000 0.0000
# 2 74.8286 118.6804 43.4538 -0.0002 0.0000 0.0000
# 3 39.4456 43.4538 105.7682 -0.0003 0.0001 0.0000
# 4 0.0000 -0.0002 -0.0003 26.9836 0.0000 0.0000
# 5 0.0000 0.0000 0.0001 0.0000 27.7001 0.0000
# 6 0.0000 0.0000 0.0000 0.0000 0.0000 36.2625
#
#
#
# Elastic Compliance Matrix: (Units=1/GPa)
#
#
# Indices 1 2 3 4 5 6 
#
# 1 0.010915 -0.006346 -0.001463 0.000000 0.000000 0.000000
# 2 -0.006346 0.013608 -0.003224 0.000000 0.000000 0.000000
# 3 -0.001463 -0.003224 0.011325 0.000000 0.000000 0.000000
# 4 0.000000 0.000000 0.000000 0.037060 0.000000 0.000000
# 5 0.000000 0.000000 0.000000 0.000000 0.036101 0.000000
# 6 0.000000 0.000000 0.000000 0.000000 0.000000 0.027577
#
#
# Mechanical properties :
#
#
# Convention : Reuss Voigt Hill
#
# Bulk Modulus (GPa) = 72.56505 75.59097 74.07801
# Shear Modulus (GPa) = 30.62889 31.99820 31.31354
#
# Velocity S-wave (km/s) = 3.78727 3.87100 3.82936
# Velocity P-wave (km/s) = 7.28742 7.44168 7.36495
#
# Compressibility (1/GPa) = 0.01378074
#
# Stress axis : x y z
#
# Youngs Moduli (GPa) = 91.61880 73.48858 88.30120
#
# Poissons Ratio (x) = 0.46636 0.12922
# Poissons Ratio (y) = 0.58141 0.28467
# Poissons Ratio (z) = 0.13408 0.23691
#
# Static dielectric constant tensor:
#      x y z
#    x 4.280290 0.000000 0.000000 
#    y 0.000000 3.993980 0.000000 
#    z 0.000000 0.000000 3.723610 
# 
# 
# High freq. dielectric constant tensor:
#      x y z
#    x 1.858950 0.000000 0.000000 
#    y 0.000000 1.833860 0.000000 
#    z 0.000000 0.000000 1.827300 
# 
# From -- ./inp_files/34844.got.cif
#   From: 2010.06.25/outbox.cif.g09.slc.cpg/sg71_18_cif.got.tgz:34844.got - 2010.06.28 04:59:45.
