data_PCOD8291771
_publ_section_title
;
Structure prediction by ZEFSAII (Michael W. Deem and Ramdas Pophale) SiO2 
 PCOD8291771
Probable space group: I M M M
;
_chemical_formula_sum "Si O2"
_cell_formula_units_Z 72
_cell_length_a 8.808487
_cell_length_b 15.483435
_cell_length_c 26.665080
_cell_angle_alpha 90.000000
_cell_angle_beta 90.000000
_cell_angle_gamma 90.000000
_cell_volume 3636.733892
_symmetry_space_group_name_H-M "I M M M"
_symmetry_group_IT_number 71
_symmetry_cell_setting 'orthorhombic'
loop_
_space_group_symop_operation_xyz
x,y,z
-x,-y,z
x,-y,-z
-x,y,-z
-x,-y,-z
x,y,-z
-x,y,z
x,-y,z
1/2+x,1/2+y,1/2+z
1/2-x,1/2-y,1/2+z
1/2+x,1/2-y,1/2-z
1/2-x,1/2+y,1/2-z
1/2-x,1/2-y,1/2-z
1/2+x,1/2+y,1/2-z
1/2-x,1/2+y,1/2+z
1/2+x,1/2-y,1/2+z
loop_
_atom_site_type_symbol
_atom_site_label
_atom_site_fract_x
_atom_site_fract_y
_atom_site_fract_z
Si Si1 0.679420 0.500000 0.284436
Si Si2 0.176694 0.500000 0.391399
Si Si3 0.819046 0.500000 0.943419
Si Si4 0.179275 0.662842 0.229777
Si Si5 0.178290 0.333164 0.885909
Si Si6 0.322022 0.177797 0.056377
O O1 0.500000 0.500000 0.277219
O O2 0.718559 0.500000 0.342801
O O3 0.749149 0.415937 0.259333
O O4 0.218396 0.582441 0.424833
O O5 0.000000 0.500000 0.375349
O O6 0.754959 0.585076 0.916090
O O7 0.000000 0.500000 0.941359
O O8 0.757749 0.500000 0.000000
O O9 0.250000 0.750000 0.250000
O O10 0.221819 0.653402 0.171703
O O11 0.000000 0.663405 0.238682
O O12 0.248661 0.245424 0.906000
O O13 0.000000 0.326217 0.893496
O O14 0.500000 0.193390 0.056691
O O15 0.257315 0.189439 0.000000
#
# Coordination Sequence:
#
# PCOD8291771 Si02
#       6
#     8   8   8  16  16  16
#     4  12  25  40  60  88 120 155 198 245 298 357
#     4  10  21  39  61  82 112 155 196 236 287 346
#     4   9  17  32  55  80 106 139 178 218 267 329
#     4  11  23  40  61  86 118 155 197 244 294 349
#     4  10  21  37  58  83 111 146 188 234 283 338
#     4  10  21  37  58  85 116 150 189 234 287 347
#
# _framework density 19.797984
#
# number of rings (size 3 to 8) (size 9 to 14) (size 15 to 20)
#    0.000    1.667    0.000    4.667    0.000   10.667 
#    0.000    0.556    0.000    4.000    0.000    0.000 
#    0.000    0.000    0.000    0.000    0.000    0.000 
#
# Total GULP energy -446557.109298 kJ/mol
# GULP energy per Si atom -12404.364147 kJ/mol
# Density = 1.975292 g / cm^3
# Si number density = 19.797984 Si / 1000 Ang^3
#
#
#
# Elastic Constant Matrix: (Units=GPa)
#
#
# Indices 1 2 3 4 5 6 
#
# 1 46.8423 27.0407 50.7259 0.0000 0.0000 0.0000
# 2 27.0407 122.0670 34.5397 0.0000 0.0000 0.0000
# 3 50.7259 34.5397 114.5414 0.0000 0.0000 0.0000
# 4 0.0000 0.0000 0.0000 45.1133 0.0000 0.0000
# 5 0.0000 0.0000 0.0000 0.0000 29.6479 0.0000
# 6 0.0000 0.0000 0.0000 0.0000 0.0000 25.1600
#
#
#
# Elastic Compliance Matrix: (Units=1/GPa)
#
#
# Indices 1 2 3 4 5 6 
#
# 1 0.043211 -0.004545 -0.017766 0.000000 0.000000 0.000000
# 2 -0.004545 0.009435 -0.000832 0.000000 0.000000 0.000000
# 3 -0.017766 -0.000832 0.016849 0.000000 0.000000 0.000000
# 4 0.000000 0.000000 0.000000 0.022166 0.000000 0.000000
# 5 0.000000 0.000000 0.000000 0.000000 0.033729 0.000000
# 6 0.000000 0.000000 0.000000 0.000000 0.000000 0.039746
#
#
# Mechanical properties :
#
#
# Convention : Reuss Voigt Hill
#
# Bulk Modulus (GPa) = 43.08796 56.45146 49.76971
# Shear Modulus (GPa) = 22.81461 31.39388 27.10424
#
# Velocity S-wave (km/s) = 3.39834 3.98642 3.70407
# Velocity P-wave (km/s) = 6.09995 7.05439 6.59446
#
# Compressibility (1/GPa) = 0.02320834
#
# Stress axis : x y z
#
# Youngs Moduli (GPa) = 23.14238 105.99354 59.35031
#
# Poissons Ratio (x) = 0.48177 1.05440
# Poissons Ratio (y) = 0.10519 0.04938
# Poissons Ratio (z) = 0.41114 0.08819
#
# Static dielectric constant tensor:
#      x y z
#    x 3.464100 0.000000 0.000000 
#    y 0.000000 3.763440 0.000000 
#    z 0.000000 0.000000 3.886020 
# 
# 
# High freq. dielectric constant tensor:
#      x y z
#    x 1.754520 0.000000 0.000000 
#    y 0.000000 1.793250 0.000000 
#    z 0.000000 0.000000 1.791970 
# 
# From -- ./inp_files/6184.got.cif
#   From: 2010.06.25/outbox.cif.g09.slc.cpg/sg71_4_cif.got.tgz:6184.got - 2010.06.28 04:59:45.
