data_PCOD8291692
_publ_section_title
;
Structure prediction by ZEFSAII (Michael W. Deem and Ramdas Pophale) SiO2 
 PCOD8291692
Probable space group: I M M M
;
_chemical_formula_sum "Si O2"
_cell_formula_units_Z 88
_cell_length_a 12.988596
_cell_length_b 14.097745
_cell_length_c 22.786005
_cell_angle_alpha 90.000000
_cell_angle_beta 90.000000
_cell_angle_gamma 90.000000
_cell_volume 4172.343423
_symmetry_space_group_name_H-M "I M M M"
_symmetry_group_IT_number 71
_symmetry_cell_setting 'orthorhombic'
loop_
_space_group_symop_operation_xyz
x,y,z
-x,-y,z
x,-y,-z
-x,y,-z
-x,-y,-z
x,y,-z
-x,y,z
x,-y,z
1/2+x,1/2+y,1/2+z
1/2-x,1/2-y,1/2+z
1/2+x,1/2-y,1/2-z
1/2-x,1/2+y,1/2-z
1/2-x,1/2-y,1/2-z
1/2+x,1/2+y,1/2-z
1/2-x,1/2+y,1/2+z
1/2+x,1/2-y,1/2+z
loop_
_atom_site_type_symbol
_atom_site_label
_atom_site_fract_x
_atom_site_fract_y
_atom_site_fract_z
Si Si1 0.500000 0.889561 0.596870
Si Si2 0.720200 0.104904 0.119314
Si Si3 0.884850 0.107712 0.355287
Si Si4 0.178202 0.832910 0.769682
Si Si5 0.000000 0.293145 0.211093
Si Si6 0.285599 0.791994 0.433556
Si Si7 0.500000 0.110421 0.836774
O O1 0.500000 0.883432 0.667721
O O2 0.601355 0.837462 0.572418
O O3 0.500000 0.000000 0.578081
O O4 0.764517 0.097375 0.185527
O O5 0.784275 0.179211 0.079993
O O6 0.600127 0.135589 0.124389
O O7 0.729726 0.000000 0.090896
O O8 0.864170 0.109086 0.285647
O O9 0.797052 0.163222 0.389614
O O10 0.000000 0.149684 0.367195
O O11 0.880517 0.000000 0.376951
O O12 0.250000 0.750000 0.750000
O O13 0.092615 0.775973 0.805452
O O14 0.000000 0.325977 0.278351
O O15 0.248519 0.808379 0.500000
O O16 0.500000 0.000000 0.818458
#
# Coordination Sequence:
#
# PCOD8291692 Si02
#       7
#     8  16  16  16   8  16   8
#     4  12  26  46  70  97 131 173 224 278 327 391
#     4  11  24  43  67  98 135 173 219 272 330 397
#     4  11  24  42  66  98 134 172 213 265 334 404
#     4  12  20  36  64  93 133 169 204 258 325 396
#     4  12  19  35  62  96 130 166 209 251 318 394
#     4  12  27  46  68  94 128 175 228 280 330 381
#     4  10  21  36  62 100 134 168 209 261 326 396
#
# _framework density 21.091263999999999
#
# number of rings (size 3 to 8) (size 9 to 14) (size 15 to 20)
#    0.000    0.545    6.364    1.636    1.273    2.545 
#    0.000    2.273    0.000    2.727    0.000    0.000 
#    0.000    0.000    0.000    0.000    0.000    0.000 
#
# Total GULP energy -545463.951210 kJ/mol
# GULP energy per Si atom -12396.907982 kJ/mol
# Density = 2.104326 g / cm^3
# Si number density = 21.091264 Si / 1000 Ang^3
#
#
#
# Elastic Constant Matrix: (Units=GPa)
#
#
# Indices 1 2 3 4 5 6 
#
# 1 145.4561 49.4927 23.5572 0.0000 0.0000 0.0000
# 2 49.4927 106.0916 23.7549 0.0000 0.0000 0.0000
# 3 23.5572 23.7549 78.2478 0.0000 0.0000 0.0000
# 4 0.0000 0.0000 0.0000 10.1147 0.0000 0.0000
# 5 0.0000 0.0000 0.0000 0.0000 16.5884 0.0000
# 6 0.0000 0.0000 0.0000 0.0000 0.0000 31.7559
#
#
#
# Elastic Compliance Matrix: (Units=1/GPa)
#
#
# Indices 1 2 3 4 5 6 
#
# 1 0.008317 -0.003561 -0.001423 0.000000 0.000000 0.000000
# 2 -0.003561 0.011638 -0.002461 0.000000 0.000000 0.000000
# 3 -0.001423 -0.002461 0.013955 0.000000 0.000000 0.000000
# 4 0.000000 0.000000 0.000000 0.098866 0.000000 0.000000
# 5 0.000000 0.000000 0.000000 0.000000 0.060283 0.000000
# 6 0.000000 0.000000 0.000000 0.000000 0.000000 0.031490
#
#
# Mechanical properties :
#
#
# Convention : Reuss Voigt Hill
#
# Bulk Modulus (GPa) = 52.57513 58.15612 55.36562
# Shear Modulus (GPa) = 20.34335 27.22452 23.78393
#
# Velocity S-wave (km/s) = 3.10907 3.59666 3.36172
# Velocity P-wave (km/s) = 6.15386 6.69936 6.43239
#
# Compressibility (1/GPa) = 0.01902040
#
# Stress axis : x y z
#
# Youngs Moduli (GPa) = 120.23327 85.92305 71.65697
#
# Poissons Ratio (x) = 0.30601 0.10195
# Poissons Ratio (y) = 0.42821 0.17635
# Poissons Ratio (z) = 0.17106 0.21146
#
# Static dielectric constant tensor:
#      x y z
#    x 3.911120 0.000000 0.000000 
#    y 0.000000 3.833410 0.000000 
#    z 0.000000 0.000000 3.783420 
# 
# 
# High freq. dielectric constant tensor:
#      x y z
#    x 1.843000 0.000000 0.000000 
#    y 0.000000 1.835000 0.000000 
#    z 0.000000 0.000000 1.799030 
# 
# From -- ./inp_files/58755.got.cif
#   From: 2010.06.25/outbox.cif.g09.slc.cpg/sg71_30_cif.got.tgz:58755.got - 2010.06.28 04:59:45.
