data_PCOD8291746
_publ_section_title
;
Structure prediction by ZEFSAII (Michael W. Deem and Ramdas Pophale) SiO2 
 PCOD8291746
Probable space group: I M M M
;
_chemical_formula_sum "Si O2"
_cell_formula_units_Z 88
_cell_length_a 8.985422
_cell_length_b 17.695253
_cell_length_c 29.968201
_cell_angle_alpha 90.000000
_cell_angle_beta 90.000000
_cell_angle_gamma 90.000000
_cell_volume 4764.923449
_symmetry_space_group_name_H-M "I M M M"
_symmetry_group_IT_number 71
_symmetry_cell_setting 'orthorhombic'
loop_
_space_group_symop_operation_xyz
x,y,z
-x,-y,z
x,-y,-z
-x,y,-z
-x,-y,-z
x,y,-z
-x,y,z
x,-y,z
1/2+x,1/2+y,1/2+z
1/2-x,1/2-y,1/2+z
1/2+x,1/2-y,1/2-z
1/2-x,1/2+y,1/2-z
1/2-x,1/2-y,1/2-z
1/2+x,1/2+y,1/2-z
1/2-x,1/2+y,1/2+z
1/2+x,1/2-y,1/2+z
loop_
_atom_site_type_symbol
_atom_site_label
_atom_site_fract_x
_atom_site_fract_y
_atom_site_fract_z
Si Si1 0.172581 0.411424 0.050565
Si Si2 0.829876 0.415290 0.326268
Si Si3 0.823491 0.232673 0.796775
Si Si4 0.337349 0.857456 0.920619
Si Si5 0.670157 0.304870 0.879154
Si Si6 0.672000 0.582014 0.500000
O O1 0.199519 0.500000 0.057415
O O2 0.263951 0.369709 0.089220
O O3 0.000000 0.390852 0.056521
O O4 0.223573 0.388424 0.000000
O O5 0.790021 0.500000 0.309467
O O6 0.716638 0.354568 0.306395
O O7 0.814335 0.414264 0.379592
O O8 0.000000 0.393843 0.312865
O O9 0.750000 0.250000 0.750000
O O10 0.761258 0.292351 0.833270
O O11 0.000000 0.241806 0.794651
O O12 0.500000 0.870904 0.941953
O O13 0.320777 0.771821 0.906149
O O14 0.211875 0.871135 0.956562
O O15 0.500000 0.325670 0.866946
O O16 0.752489 0.500000 0.500000
O O17 0.500000 0.569293 0.500000
#
# Coordination Sequence:
#
# PCOD8291746 Si02
#       6
#    16  16  16  16  16   8
#     4   9  19  36  57  83 116 152 189 232 287 347
#     4   9  18  35  58  82 108 139 177 221 270 325
#     4  11  22  38  60  84 113 146 183 229 283 337
#     4   9  19  34  51  72 101 139 178 215 259 311
#     4  10  21  37  57  82 110 142 186 231 276 332
#     4  11  23  33  43  67 102 137 176 221 261 298
#
# _framework density 18.468294
#
# number of rings (size 3 to 8) (size 9 to 14) (size 15 to 20)
#    0.000    2.273    0.000    4.636    1.273    6.182 
#    0.000    1.818    0.000    5.455    0.000    0.000 
#    0.000    0.000    0.000    0.000    0.000    0.000 
#
# Total GULP energy -545436.910462 kJ/mol
# GULP energy per Si atom -12396.293420 kJ/mol
# Density = 1.842626 g / cm^3
# Si number density = 18.468294 Si / 1000 Ang^3
#
#
#
# Elastic Constant Matrix: (Units=GPa)
#
#
# Indices 1 2 3 4 5 6 
#
# 1 130.7751 45.6140 72.2157 0.0000 0.0000 0.0000
# 2 45.6140 71.1535 49.3804 0.0000 0.0000 0.0000
# 3 72.2157 49.3804 123.2407 0.0000 0.0000 0.0000
# 4 0.0000 0.0000 0.0000 17.5880 0.0000 0.0000
# 5 0.0000 0.0000 0.0000 0.0000 32.6134 0.0000
# 6 0.0000 0.0000 0.0000 0.0000 0.0000 29.7535
#
#
#
# Elastic Compliance Matrix: (Units=1/GPa)
#
#
# Indices 1 2 3 4 5 6 
#
# 1 0.012042 -0.003910 -0.005490 0.000000 0.000000 0.000000
# 2 -0.003910 0.020737 -0.006018 0.000000 0.000000 0.000000
# 3 -0.005490 -0.006018 0.013742 0.000000 0.000000 0.000000
# 4 0.000000 0.000000 0.000000 0.056857 0.000000 0.000000
# 5 0.000000 0.000000 0.000000 0.000000 0.030662 0.000000
# 6 0.000000 0.000000 0.000000 0.000000 0.000000 0.033609
#
#
# Mechanical properties :
#
#
# Convention : Reuss Voigt Hill
#
# Bulk Modulus (GPa) = 63.74944 73.28772 68.51858
# Shear Modulus (GPa) = 24.54428 26.52158 25.53293
#
# Velocity S-wave (km/s) = 3.64949 3.79365 3.72227
# Velocity P-wave (km/s) = 7.23545 7.67842 7.46022
#
# Compressibility (1/GPa) = 0.01568641
#
# Stress axis : x y z
#
# Youngs Moduli (GPa) = 83.04333 48.22303 72.76840
#
# Poissons Ratio (x) = 0.18855 0.39947
# Poissons Ratio (y) = 0.32469 0.43791
# Poissons Ratio (z) = 0.45588 0.29020
#
# Static dielectric constant tensor:
#      x y z
#    x 3.495280 0.000000 0.000000 
#    y 0.000000 3.533900 0.000000 
#    z 0.000000 0.000000 3.277950 
# 
# 
# High freq. dielectric constant tensor:
#      x y z
#    x 1.718190 0.000000 0.000000 
#    y 0.000000 1.714800 0.000000 
#    z 0.000000 0.000000 1.709710 
# 
# From -- ./inp_files/8754.got.cif
#   From: 2010.06.25/outbox.cif.g09.slc.cpg/sg71_5_cif.got.tgz:8754.got - 2010.06.28 04:59:45.
