data_PCOD8291901
_publ_section_title
;
Structure prediction by ZEFSAII (Michael W. Deem and Ramdas Pophale) SiO2 
 PCOD8291901
Probable space group: I M M M
;
_chemical_formula_sum "Si O2"
_cell_formula_units_Z 72
_cell_length_a 26.125491
_cell_length_b 8.847510
_cell_length_c 15.314546
_cell_angle_alpha 90.000000
_cell_angle_beta 90.000000
_cell_angle_gamma 90.000000
_cell_volume 3539.889049
_symmetry_space_group_name_H-M "I M M M"
_symmetry_group_IT_number 71
_symmetry_cell_setting 'orthorhombic'
loop_
_space_group_symop_operation_xyz
x,y,z
-x,-y,z
x,-y,-z
-x,y,-z
-x,-y,-z
x,y,-z
-x,y,z
x,-y,z
1/2+x,1/2+y,1/2+z
1/2-x,1/2-y,1/2+z
1/2+x,1/2-y,1/2-z
1/2-x,1/2+y,1/2-z
1/2-x,1/2-y,1/2-z
1/2+x,1/2+y,1/2-z
1/2-x,1/2+y,1/2+z
1/2+x,1/2-y,1/2+z
loop_
_atom_site_type_symbol
_atom_site_label
_atom_site_fract_x
_atom_site_fract_y
_atom_site_fract_z
Si Si1 0.601321 0.672930 0.830616
Si Si2 0.557703 0.178403 0.000000
Si Si3 0.558502 0.826770 0.335750
Si Si4 0.625816 0.178168 0.500000
Si Si5 0.220055 0.825011 0.328454
Si Si6 0.736491 0.320753 0.500000
O O1 0.588131 0.500000 0.850929
O O2 0.587662 0.768680 0.915073
O O3 0.568238 0.725554 0.748585
O O4 0.660544 0.695263 0.807974
O O5 0.500000 0.243786 0.000000
O O6 0.556610 0.000000 0.000000
O O7 0.500000 0.807216 0.365874
O O8 0.594093 0.772470 0.414947
O O9 0.570358 0.000000 0.311141
O O10 0.678182 0.268484 0.500000
O O11 0.636764 0.000000 0.500000
O O12 0.250000 0.750000 0.250000
O O13 0.233751 0.740720 0.416841
O O14 0.235702 0.000000 0.336927
O O15 0.738270 0.500000 0.500000
#
# Coordination Sequence:
#
# PCOD8291901 Si02
#       6
#    16   8  16   8  16   8
#     4  11  24  40  60  88 120 154 194 242 295 351
#     4  11  24  41  62  88 117 153 198 243 289 348
#     4  10  21  38  61  89 120 156 199 243 289 347
#     4  10  21  39  63  88 119 159 200 245 295 344
#     4  11  24  42  63  89 121 157 200 247 297 355
#     4  12  25  40  61  90 122 157 200 247 298 356
#
# _framework density 20.339621999999999
#
# number of rings (size 3 to 8) (size 9 to 14) (size 15 to 20)
#    0.000    1.222    0.000    5.667    0.000   16.000 
#    0.000    0.000    0.000    2.000    0.000    0.000 
#    0.000    0.000    0.000    0.000    0.000    0.000 
#
# Total GULP energy -446655.817540 kJ/mol
# GULP energy per Si atom -12407.106043 kJ/mol
# Density = 2.029333 g / cm^3
# Si number density = 20.339622 Si / 1000 Ang^3
#
#
#
# Elastic Constant Matrix: (Units=GPa)
#
#
# Indices 1 2 3 4 5 6 
#
# 1 64.2159 30.0404 5.6740 0.0000 0.0000 0.0000
# 2 30.0404 96.3885 32.4279 0.0000 0.0000 0.0000
# 3 5.6740 32.4279 114.1184 0.0000 0.0000 0.0000
# 4 0.0000 0.0000 0.0000 85.0861 0.0000 0.0000
# 5 0.0000 0.0000 0.0000 0.0000 46.0464 0.0000
# 6 0.0000 0.0000 0.0000 0.0000 0.0000 34.3355
#
#
#
# Elastic Compliance Matrix: (Units=1/GPa)
#
#
# Indices 1 2 3 4 5 6 
#
# 1 0.018294 -0.005966 0.000786 0.000000 0.000000 0.000000
# 2 -0.005966 0.013417 -0.003516 0.000000 0.000000 0.000000
# 3 0.000786 -0.003516 0.009723 0.000000 0.000000 0.000000
# 4 0.000000 0.000000 0.000000 0.011753 0.000000 0.000000
# 5 0.000000 0.000000 0.000000 0.000000 0.021717 0.000000
# 6 0.000000 0.000000 0.000000 0.000000 0.000000 0.029124
#
#
# Mechanical properties :
#
#
# Convention : Reuss Voigt Hill
#
# Bulk Modulus (GPa) = 41.59477 45.66749 43.63113
# Shear Modulus (GPa) = 38.62979 46.86564 42.74772
#
# Velocity S-wave (km/s) = 4.36275 4.80537 4.58940
# Velocity P-wave (km/s) = 6.77294 7.30000 7.04140
#
# Compressibility (1/GPa) = 0.02404148
#
# Stress axis : x y z
#
# Youngs Moduli (GPa) = 54.66321 74.53331 102.85057
#
# Poissons Ratio (x) = 0.44465 -0.08081
# Poissons Ratio (y) = 0.32611 0.36161
# Poissons Ratio (z) = -0.04295 0.26205
#
# Static dielectric constant tensor:
#      x y z
#    x 3.939550 0.000000 0.000000 
#    y 0.000000 3.777590 0.000000 
#    z 0.000000 0.000000 7.045640 
# 
# 
# High freq. dielectric constant tensor:
#      x y z
#    x 1.812050 0.000000 0.000000 
#    y 0.000000 1.799080 0.000000 
#    z 0.000000 0.000000 1.810030 
# 
# From -- ./inp_files/6209.got.cif
#   From: 2010.06.25/outbox.cif.g09.slc.cpg/sg71_4_cif.got.tgz:6209.got - 2010.06.28 04:59:45.
