data_PCOD8291531
_publ_section_title
;
Structure prediction by ZEFSAII (Michael W. Deem and Ramdas Pophale) SiO2 
 PCOD8291531
Probable space group: I M M M
;
_chemical_formula_sum "Si O2"
_cell_formula_units_Z 80
_cell_length_a 13.465470
_cell_length_b 15.010117
_cell_length_c 21.002029
_cell_angle_alpha 90.000000
_cell_angle_beta 90.000000
_cell_angle_gamma 90.000000
_cell_volume 4244.893981
_symmetry_space_group_name_H-M "I M M M"
_symmetry_group_IT_number 71
_symmetry_cell_setting 'orthorhombic'
loop_
_space_group_symop_operation_xyz
x,y,z
-x,-y,z
x,-y,-z
-x,y,-z
-x,-y,-z
x,y,-z
-x,y,z
x,-y,z
1/2+x,1/2+y,1/2+z
1/2-x,1/2-y,1/2+z
1/2+x,1/2-y,1/2-z
1/2-x,1/2+y,1/2-z
1/2-x,1/2-y,1/2-z
1/2+x,1/2+y,1/2-z
1/2-x,1/2+y,1/2+z
1/2+x,1/2-y,1/2+z
loop_
_atom_site_type_symbol
_atom_site_label
_atom_site_fract_x
_atom_site_fract_y
_atom_site_fract_z
Si Si1 0.615073 0.100116 0.182961
Si Si2 0.693204 0.100754 0.687104
Si Si3 0.111117 0.292918 0.071830
Si Si4 0.387162 0.600287 0.118509
Si Si5 0.684360 0.220138 0.930636
O O1 0.500000 0.098015 0.198108
O O2 0.667253 0.145547 0.244822
O O3 0.633108 0.161055 0.122140
O O4 0.655002 0.000000 0.168858
O O5 0.631310 0.135323 0.626648
O O6 0.811964 0.110137 0.678008
O O7 0.657888 0.000000 0.693988
O O8 0.196013 0.217370 0.079372
O O9 0.000000 0.252833 0.081169
O O10 0.120070 0.334493 0.000000
O O11 0.500000 0.614517 0.142428
O O12 0.375456 0.500000 0.088519
O O13 0.356302 0.677634 0.069308
O O14 0.657436 0.180782 0.000000
#
# Coordination Sequence:
#
# PCOD8291531 Si02
#       5
#    16  16  16  16  16
#     4  10  21  36  54  76 101 131 170 215 258 297
#     4   9  18  33  51  73 104 137 169 208 252 298
#     4   9  18  32  51  76 103 131 164 203 250 304
#     4   9  18  32  51  77 107 136 166 202 246 301
#     4  10  21  36  53  74 102 135 171 212 256 301
#
# _framework density 18.846171999999999
#
# number of rings (size 3 to 8) (size 9 to 14) (size 15 to 20)
#    0.000    2.600    0.000    1.200    0.000    7.200 
#    0.000   10.000    0.000    1.800    0.000    2.800 
#    0.000    0.000    0.000    0.000    0.000    0.000 
#
# Total GULP energy -495526.550420 kJ/mol
# GULP energy per Si atom -12388.163761 kJ/mol
# Density = 1.880328 g / cm^3
# Si number density = 18.846172 Si / 1000 Ang^3
#
#
#
# Elastic Constant Matrix: (Units=GPa)
#
#
# Indices 1 2 3 4 5 6 
#
# 1 117.5075 15.5734 29.6173 0.0000 0.0000 0.0000
# 2 15.5734 50.0918 33.7995 0.0000 0.0000 0.0000
# 3 29.6173 33.7995 130.3955 0.0000 0.0000 0.0000
# 4 0.0000 0.0000 0.0000 14.9094 0.0000 0.0000
# 5 0.0000 0.0000 0.0000 0.0000 24.0398 0.0000
# 6 0.0000 0.0000 0.0000 0.0000 0.0000 18.5173
#
#
#
# Elastic Compliance Matrix: (Units=1/GPa)
#
#
# Indices 1 2 3 4 5 6 
#
# 1 0.009151 -0.001748 -0.001625 0.000000 0.000000 0.000000
# 2 -0.001748 0.024529 -0.005961 0.000000 0.000000 0.000000
# 3 -0.001625 -0.005961 0.009583 0.000000 0.000000 0.000000
# 4 0.000000 0.000000 0.000000 0.067072 0.000000 0.000000
# 5 0.000000 0.000000 0.000000 0.000000 0.041598 0.000000
# 6 0.000000 0.000000 0.000000 0.000000 0.000000 0.054003
#
#
# Mechanical properties :
#
#
# Convention : Reuss Voigt Hill
#
# Bulk Modulus (GPa) = 40.65991 50.66389 45.66190
# Shear Modulus (GPa) = 21.47723 26.09361 23.78542
#
# Velocity S-wave (km/s) = 3.37947 3.72500 3.55643
# Velocity P-wave (km/s) = 6.07036 6.74107 6.41449
#
# Compressibility (1/GPa) = 0.02459425
#
# Stress axis : x y z
#
# Youngs Moduli (GPa) = 109.27185 40.76785 104.34821
#
# Poissons Ratio (x) = 0.07128 0.16961
# Poissons Ratio (y) = 0.19105 0.62202
# Poissons Ratio (z) = 0.17761 0.24302
#
# Static dielectric constant tensor:
#      x y z
#    x 3.710260 0.000000 0.000000 
#    y 0.000000 3.244580 0.000000 
#    z 0.000000 0.000000 3.418890 
# 
# 
# High freq. dielectric constant tensor:
#      x y z
#    x 1.746710 0.000000 0.000000 
#    y 0.000000 1.695190 0.000000 
#    z 0.000000 0.000000 1.728940 
# 
# From -- ./inp_files/34273.got.cif
#   From: 2010.06.25/outbox.cif.g09.slc.cpg/sg71_18_cif.got.tgz:34273.got - 2010.06.28 04:59:45.
