data_PCOD8291111
_publ_section_title
;
Structure prediction by ZEFSAII (Michael W. Deem and Ramdas Pophale) SiO2 
 PCOD8291111
Probable space group: I M M M
;
_chemical_formula_sum "Si O2"
_cell_formula_units_Z 100
_cell_length_a 13.839212
_cell_length_b 21.820976
_cell_length_c 17.138814
_cell_angle_alpha 90.000000
_cell_angle_beta 90.000000
_cell_angle_gamma 90.000000
_cell_volume 5175.666681
_symmetry_space_group_name_H-M "I M M M"
_symmetry_group_IT_number 71
_symmetry_cell_setting 'orthorhombic'
loop_
_space_group_symop_operation_xyz
x,y,z
-x,-y,z
x,-y,-z
-x,y,-z
-x,-y,-z
x,y,-z
-x,y,z
x,-y,z
1/2+x,1/2+y,1/2+z
1/2-x,1/2-y,1/2+z
1/2+x,1/2-y,1/2-z
1/2-x,1/2+y,1/2-z
1/2-x,1/2-y,1/2-z
1/2+x,1/2+y,1/2-z
1/2-x,1/2+y,1/2+z
1/2+x,1/2-y,1/2+z
loop_
_atom_site_type_symbol
_atom_site_label
_atom_site_fract_x
_atom_site_fract_y
_atom_site_fract_z
Si Si1 0.385429 0.165716 0.086952
Si Si2 0.264987 0.000000 0.500000
Si Si3 0.802234 0.571105 0.299175
Si Si4 0.112830 0.378908 0.000000
Si Si5 0.614245 0.844241 0.670890
Si Si6 0.396622 0.500000 0.125219
Si Si7 0.114121 0.241930 0.285982
Si Si8 0.108584 0.893574 0.252695
O O1 0.500000 0.166103 0.083566
O O2 0.353789 0.102738 0.127822
O O3 0.346359 0.223997 0.136390
O O4 0.341321 0.169344 0.000000
O O5 0.332611 0.057812 0.500000
O O6 0.197100 0.000000 0.426006
O O7 0.829775 0.500000 0.299991
O O8 0.835665 0.599082 0.215879
O O9 0.685965 0.580319 0.309210
O O10 0.141507 0.342202 0.921058
O O11 0.000000 0.393750 0.000000
O O12 0.500000 0.852587 0.682934
O O13 0.649329 0.779990 0.709592
O O14 0.500000 0.500000 0.079548
O O15 0.393515 0.438469 0.174739
O O16 0.150124 0.172201 0.281627
O O17 0.000000 0.241625 0.289653
O O18 0.000000 0.888365 0.215850
#
# Coordination Sequence:
#
# PCOD8291111 Si02
#       8
#    16   4  16   8  16   8  16  16
#     4   9  19  36  56  83 115 141 172 215 266 328
#     4  12  22  36  48  70 116 150 182 218 268 310
#     4  11  21  33  55  80 107 145 181 222 268 313
#     4  10  21  33  51  78 113 150 180 212 255 320
#     4   9  19  34  52  79 111 142 178 219 264 321
#     4  10  21  37  55  78 104 138 184 231 273 314
#     4   8  16  34  59  80 104 140 177 220 272 320
#     4  10  20  36  58  80 102 137 185 228 269 318
#
# _framework density 19.321182
#
# number of rings (size 3 to 8) (size 9 to 14) (size 15 to 20)
#    0.000    2.400    0.800    2.640    1.120    4.160 
#    1.440    0.800    5.280    0.480    0.000    1.120 
#    0.000    0.000    0.000    0.000    0.000    0.000 
#
# Total GULP energy -619706.996132 kJ/mol
# GULP energy per Si atom -12394.139923 kJ/mol
# Density = 1.927721 g / cm^3
# Si number density = 19.321182 Si / 1000 Ang^3
#
#
#
# Elastic Constant Matrix: (Units=GPa)
#
#
# Indices 1 2 3 4 5 6 
#
# 1 33.8471 17.6139 27.3594 0.0000 0.0000 0.0000
# 2 17.6139 152.2783 52.1906 0.0001 0.0000 0.0000
# 3 27.3594 52.1906 133.6128 0.0001 0.0000 0.0000
# 4 0.0000 0.0001 0.0001 6.4855 0.0000 0.0000
# 5 0.0000 0.0000 0.0000 0.0000 23.2743 0.0000
# 6 0.0000 0.0000 0.0000 0.0000 0.0000 37.1168
#
#
#
# Elastic Compliance Matrix: (Units=1/GPa)
#
#
# Indices 1 2 3 4 5 6 
#
# 1 0.035867 -0.001884 -0.006608 0.000000 0.000000 0.000000
# 2 -0.001884 0.007681 -0.002615 0.000000 0.000000 0.000000
# 3 -0.006608 -0.002615 0.009859 0.000000 0.000000 0.000000
# 4 0.000000 0.000000 0.000000 0.154191 0.000000 0.000000
# 5 0.000000 0.000000 0.000000 0.000000 0.042966 0.000000
# 6 0.000000 0.000000 0.000000 0.000000 0.000000 0.026942
#
#
# Mechanical properties :
#
#
# Convention : Reuss Voigt Hill
#
# Bulk Modulus (GPa) = 32.05858 57.11845 44.58852
# Shear Modulus (GPa) = 16.12299 28.21361 22.16830
#
# Velocity S-wave (km/s) = 2.89186 3.82546 3.39094
# Velocity P-wave (km/s) = 5.27057 7.00992 6.20153
#
# Compressibility (1/GPa) = 0.03119289
#
# Stress axis : x y z
#
# Youngs Moduli (GPa) = 27.88101 130.19329 101.43257
#
# Poissons Ratio (x) = 0.24525 0.67032
# Poissons Ratio (y) = 0.05252 0.26520
# Poissons Ratio (z) = 0.18425 0.34039
#
# Static dielectric constant tensor:
#      x y z
#    x 3.798890 0.000000 0.000000 
#    y 0.000000 3.747660 0.000000 
#    z 0.000000 0.000000 3.582130 
# 
# 
# High freq. dielectric constant tensor:
#      x y z
#    x 1.762880 0.000000 0.000000 
#    y 0.000000 1.755550 0.000000 
#    z 0.000000 0.000000 1.724500 
# 
# From -- ./inp_files/44994.got.cif
#   From: 2010.06.25/outbox.cif.g09.slc.cpg/sg71_23_cif.got.tgz:44994.got - 2010.06.28 04:59:45.
