data_PCOD8291509
_publ_section_title
;
Structure prediction by ZEFSAII (Michael W. Deem and Ramdas Pophale) SiO2 
 PCOD8291509
Probable space group: I M M M
;
_chemical_formula_sum "Si O2"
_cell_formula_units_Z 112
_cell_length_a 13.973036
_cell_length_b 15.357963
_cell_length_c 25.221921
_cell_angle_alpha 90.000000
_cell_angle_beta 90.000000
_cell_angle_gamma 90.000000
_cell_volume 5412.557910
_symmetry_space_group_name_H-M "I M M M"
_symmetry_group_IT_number 71
_symmetry_cell_setting 'orthorhombic'
loop_
_space_group_symop_operation_xyz
x,y,z
-x,-y,z
x,-y,-z
-x,y,-z
-x,-y,-z
x,y,-z
-x,y,z
x,-y,z
1/2+x,1/2+y,1/2+z
1/2-x,1/2-y,1/2+z
1/2+x,1/2-y,1/2-z
1/2-x,1/2+y,1/2-z
1/2-x,1/2-y,1/2-z
1/2+x,1/2+y,1/2-z
1/2-x,1/2+y,1/2+z
1/2+x,1/2-y,1/2+z
loop_
_atom_site_type_symbol
_atom_site_label
_atom_site_fract_x
_atom_site_fract_y
_atom_site_fract_z
Si Si1 0.298330 0.841544 0.835016
Si Si2 0.262776 0.400545 0.440679
Si Si3 0.292587 0.098500 0.369547
Si Si4 0.896294 0.598223 0.765759
Si Si5 0.109018 0.154231 0.326819
Si Si6 0.393538 0.239133 0.561003
Si Si7 0.392932 0.600750 0.293816
O O1 0.315626 0.878134 0.894885
O O2 0.343409 0.903214 0.790562
O O3 0.349343 0.750726 0.827141
O O4 0.183150 0.838929 0.825060
O O5 0.218444 0.387182 0.500000
O O6 0.298665 0.500000 0.434021
O O7 0.352303 0.336381 0.432065
O O8 0.332222 0.136665 0.313314
O O9 0.176716 0.098302 0.365890
O O10 0.326171 0.165909 0.413627
O O11 0.326664 0.000000 0.383003
O O12 0.915547 0.500000 0.781838
O O13 0.000000 0.647064 0.762362
O O14 0.116109 0.114634 0.268678
O O15 0.000000 0.152114 0.347911
O O16 0.398136 0.213634 0.500000
O O17 0.500000 0.236519 0.585955
O O18 0.500000 0.626240 0.312611
O O19 0.370859 0.500000 0.306532
#
# Coordination Sequence:
#
# PCOD8291509 Si02
#       7
#    16  16  16  16  16  16  16
#     4  12  21  38  58  86 122 162 207 258 309 366
#     4  10  22  40  63  89 120 161 207 256 308 360
#     4  11  22  40  64  92 128 166 205 251 308 370
#     4  10  21  35  55  87 124 161 201 247 302 368
#     4  11  23  38  59  89 122 161 208 257 311 371
#     4  10  22  41  65  95 130 167 208 251 299 363
#     4  10  21  36  56  87 126 165 206 249 301 373
#
# _framework density 20.692619000000001
#
# number of rings (size 3 to 8) (size 9 to 14) (size 15 to 20)
#    0.000    1.429    2.857    3.000    0.000    2.857 
#    0.000    2.143    0.000    3.000    0.000    6.000 
#    0.000    0.000    0.000    0.000    0.000    0.000 
#
# Total GULP energy -694064.552098 kJ/mol
# GULP energy per Si atom -12394.009859 kJ/mol
# Density = 2.064552 g / cm^3
# Si number density = 20.692619 Si / 1000 Ang^3
#
#
#
# Elastic Constant Matrix: (Units=GPa)
#
#
# Indices 1 2 3 4 5 6 
#
# 1 117.8361 20.8679 38.1878 0.0000 0.0000 0.0000
# 2 20.8679 85.3823 25.4267 0.0000 0.0000 0.0000
# 3 38.1878 25.4267 81.9498 0.0000 0.0000 0.0000
# 4 0.0000 0.0000 0.0000 17.5432 0.0000 0.0000
# 5 0.0000 0.0000 0.0000 0.0000 25.0453 0.0000
# 6 0.0000 0.0000 0.0000 0.0000 0.0000 24.4267
#
#
#
# Elastic Compliance Matrix: (Units=1/GPa)
#
#
# Indices 1 2 3 4 5 6 
#
# 1 0.010102 -0.001176 -0.004343 0.000000 0.000000 0.000000
# 2 -0.001176 0.013041 -0.003498 0.000000 0.000000 0.000000
# 3 -0.004343 -0.003498 0.015312 0.000000 0.000000 0.000000
# 4 0.000000 0.000000 0.000000 0.057002 0.000000 0.000000
# 5 0.000000 0.000000 0.000000 0.000000 0.039928 0.000000
# 6 0.000000 0.000000 0.000000 0.000000 0.000000 0.040939
#
#
# Mechanical properties :
#
#
# Convention : Reuss Voigt Hill
#
# Bulk Modulus (GPa) = 48.96863 50.45925 49.71394
# Shear Modulus (GPa) = 24.85537 26.78212 25.81874
#
# Velocity S-wave (km/s) = 3.46955 3.60152 3.53615
# Velocity P-wave (km/s) = 6.30607 6.46008 6.38354
#
# Compressibility (1/GPa) = 0.02042124
#
# Stress axis : x y z
#
# Youngs Moduli (GPa) = 98.99124 76.68000 65.30974
#
# Poissons Ratio (x) = 0.09016 0.28361
# Poissons Ratio (y) = 0.11639 0.22848
# Poissons Ratio (z) = 0.42988 0.26826
#
# Static dielectric constant tensor:
#      x y z
#    x 4.038780 0.000000 0.000000 
#    y 0.000000 3.703060 0.000000 
#    z 0.000000 0.000000 3.833220 
# 
# 
# High freq. dielectric constant tensor:
#      x y z
#    x 1.800890 0.000000 0.000000 
#    y 0.000000 1.815610 0.000000 
#    z 0.000000 0.000000 1.797460 
# 
# From -- ./inp_files/34869.got.cif
#   From: 2010.06.25/outbox.cif.g09.slc.cpg/sg71_18_cif.got.tgz:34869.got - 2010.06.28 04:59:45.
