data_PCOD8291291
_publ_section_title
;
Structure prediction by ZEFSAII (Michael W. Deem and Ramdas Pophale) SiO2 
 PCOD8291291
Probable space group: I M M M
;
_chemical_formula_sum "Si O2"
_cell_formula_units_Z 104
_cell_length_a 28.335306
_cell_length_b 8.714162
_cell_length_c 21.609786
_cell_angle_alpha 90.000000
_cell_angle_beta 90.000000
_cell_angle_gamma 90.000000
_cell_volume 5335.854795
_symmetry_space_group_name_H-M "I M M M"
_symmetry_group_IT_number 71
_symmetry_cell_setting 'orthorhombic'
loop_
_space_group_symop_operation_xyz
x,y,z
-x,-y,z
x,-y,-z
-x,y,-z
-x,-y,-z
x,y,-z
-x,y,z
x,-y,z
1/2+x,1/2+y,1/2+z
1/2-x,1/2-y,1/2+z
1/2+x,1/2-y,1/2-z
1/2-x,1/2+y,1/2-z
1/2-x,1/2-y,1/2-z
1/2+x,1/2+y,1/2-z
1/2-x,1/2+y,1/2+z
1/2+x,1/2-y,1/2+z
loop_
_atom_site_type_symbol
_atom_site_label
_atom_site_fract_x
_atom_site_fract_y
_atom_site_fract_z
Si Si1 0.821644 0.818944 0.793041
Si Si2 0.919706 0.325011 0.431537
Si Si3 0.500000 0.816542 0.298326
Si Si4 0.282931 0.823400 0.180327
Si Si5 0.677952 0.671827 0.068895
Si Si6 0.587850 0.683408 0.371188
Si Si7 0.055532 0.317334 0.000000
Si Si8 0.500000 0.818407 0.157387
O O1 0.770135 0.756439 0.813415
O O2 0.823778 0.757761 0.722275
O O3 0.863303 0.758659 0.838530
O O4 0.824790 0.000000 0.792974
O O5 0.943311 0.321411 0.500000
O O6 0.903667 0.500000 0.416313
O O7 0.876864 0.208775 0.430337
O O8 0.954498 0.259024 0.379397
O O9 0.545942 0.747941 0.329840
O O10 0.500000 0.759205 0.227537
O O11 0.500000 0.000000 0.305117
O O12 0.294807 0.796099 0.109253
O O13 0.283494 0.000000 0.197761
O O14 0.685575 0.500000 0.094735
O O15 0.698612 0.686158 0.000000
O O16 0.585372 0.500000 0.374682
O O17 0.582598 0.750710 0.440208
O O18 0.059825 0.500000 0.000000
O O19 0.000000 0.268563 0.000000
O O20 0.500000 0.000000 0.155258
#
# Coordination Sequence:
#
# PCOD8291291 Si02
#       8
#    16  16   8  16  16  16   8   8
#     4   9  21  40  61  89 119 148 186 233 285 342
#     4   9  17  32  54  78 105 144 193 235 279 333
#     4  11  23  37  54  84 122 151 191 239 281 339
#     4  10  20  37  62  87 114 151 191 234 286 340
#     4  10  21  36  53  77 112 150 189 233 280 329
#     4  11  23  41  64  88 117 153 193 235 286 346
#     4  11  23  41  65  91 120 154 194 240 290 347
#     4   9  19  33  51  79 112 145 182 235 286 327
#
# _framework density 19.490784000000001
#
# number of rings (size 3 to 8) (size 9 to 14) (size 15 to 20)
#    0.000    2.077    0.769    2.077    2.154    4.000 
#    1.385    1.154    0.000    1.846    0.000    0.000 
#    0.000    0.000    0.000    0.000    0.000    0.000 
#
# Total GULP energy -644526.571300 kJ/mol
# GULP energy per Si atom -12394.741756 kJ/mol
# Density = 1.944642 g / cm^3
# Si number density = 19.490784 Si / 1000 Ang^3
#
#
#
# Elastic Constant Matrix: (Units=GPa)
#
#
# Indices 1 2 3 4 5 6 
#
# 1 106.1233 29.7698 69.0478 0.0000 0.0000 0.0000
# 2 29.7698 46.5549 36.9868 0.0000 0.0000 0.0000
# 3 69.0478 36.9868 148.2517 0.0000 0.0000 0.0000
# 4 0.0000 0.0000 0.0000 29.9510 0.0000 0.0000
# 5 0.0000 0.0000 0.0000 0.0000 68.7805 0.0000
# 6 0.0000 0.0000 0.0000 0.0000 0.0000 21.4693
#
#
#
# Elastic Compliance Matrix: (Units=1/GPa)
#
#
# Indices 1 2 3 4 5 6 
#
# 1 0.014337 -0.004818 -0.005475 0.000000 0.000000 0.000000
# 2 -0.004818 0.028409 -0.004844 0.000000 0.000000 0.000000
# 3 -0.005475 -0.004844 0.010504 0.000000 0.000000 0.000000
# 4 0.000000 0.000000 0.000000 0.033388 0.000000 0.000000
# 5 0.000000 0.000000 0.000000 0.000000 0.014539 0.000000
# 6 0.000000 0.000000 0.000000 0.000000 0.000000 0.046578
#
#
# Mechanical properties :
#
#
# Convention : Reuss Voigt Hill
#
# Bulk Modulus (GPa) = 43.52378 63.61541 53.56960
# Shear Modulus (GPa) = 26.92692 35.04854 30.98773
#
# Velocity S-wave (km/s) = 3.72091 4.24513 3.99164
# Velocity P-wave (km/s) = 6.39055 7.53245 6.98487
#
# Compressibility (1/GPa) = 0.02297594
#
# Stress axis : x y z
#
# Youngs Moduli (GPa) = 69.74947 35.20000 95.20239
#
# Poissons Ratio (x) = 0.16959 0.52128
# Poissons Ratio (y) = 0.33604 0.46114
# Poissons Ratio (z) = 0.38191 0.17050
#
# Static dielectric constant tensor:
#      x y z
#    x 3.655280 0.000000 0.000000 
#    y 0.000000 3.430230 0.000000 
#    z 0.000000 0.000000 3.911170 
# 
# 
# High freq. dielectric constant tensor:
#      x y z
#    x 1.749660 0.000000 0.000000 
#    y 0.000000 1.753100 0.000000 
#    z 0.000000 0.000000 1.771390 
# 
# From -- ./inp_files/56294.got.cif
#   From: 2010.06.25/outbox.cif.g09.slc.cpg/sg71_29_cif.got.tgz:56294.got - 2010.06.28 04:59:45.
