data_PCOD8291438
_publ_section_title
;
Structure prediction by ZEFSAII (Michael W. Deem and Ramdas Pophale) SiO2 
 PCOD8291438
Probable space group: I M M M
;
_chemical_formula_sum "Si O2"
_cell_formula_units_Z 120
_cell_length_a 9.026809
_cell_length_b 26.858652
_cell_length_c 27.868954
_cell_angle_alpha 90.000000
_cell_angle_beta 90.000000
_cell_angle_gamma 90.000000
_cell_volume 6756.769975
_symmetry_space_group_name_H-M "I M M M"
_symmetry_group_IT_number 71
_symmetry_cell_setting 'orthorhombic'
loop_
_space_group_symop_operation_xyz
x,y,z
-x,-y,z
x,-y,-z
-x,y,-z
-x,-y,-z
x,y,-z
-x,y,z
x,-y,z
1/2+x,1/2+y,1/2+z
1/2-x,1/2-y,1/2+z
1/2+x,1/2-y,1/2-z
1/2-x,1/2+y,1/2-z
1/2-x,1/2-y,1/2-z
1/2+x,1/2+y,1/2-z
1/2-x,1/2+y,1/2+z
1/2+x,1/2-y,1/2+z
loop_
_atom_site_type_symbol
_atom_site_label
_atom_site_fract_x
_atom_site_fract_y
_atom_site_fract_z
Si Si1 0.828955 0.818115 0.055700
Si Si2 0.173183 0.348190 0.854696
Si Si3 0.171760 0.898636 0.787180
Si Si4 0.324319 0.904248 0.887804
Si Si5 0.330059 0.055654 0.699448
Si Si6 0.828287 0.200949 0.267439
Si Si7 0.176024 0.500000 0.553949
Si Si8 0.824407 0.294214 0.947642
O O1 0.730182 0.853490 0.088327
O O2 0.774599 0.761778 0.066045
O O3 0.000000 0.825048 0.070456
O O4 0.805378 0.831470 0.000000
O O5 0.207515 0.406246 0.843917
O O6 0.260378 0.313734 0.818137
O O7 0.230159 0.334021 0.908027
O O8 0.000000 0.336059 0.849263
O O9 0.261873 0.910486 0.834714
O O10 0.227493 0.934890 0.745222
O O11 0.199430 0.841677 0.771966
O O12 0.000000 0.909573 0.796296
O O13 0.500000 0.903227 0.884928
O O14 0.266087 0.950888 0.918910
O O15 0.500000 0.062835 0.715814
O O16 0.300883 0.000000 0.680010
O O17 0.750000 0.250000 0.250000
O O18 0.000000 0.211649 0.275026
O O19 0.241074 0.500000 0.500000
O O20 0.000000 0.500000 0.552487
O O21 0.000000 0.294130 0.951285
O O22 0.758706 0.309200 0.000000
#
# Coordination Sequence:
#
# PCOD8291438 Si02
#       8
#    16  16  16  16  16  16   8  16
#     4   9  18  33  51  72 100 132 167 210 257 304
#     4   9  17  31  52  76 101 135 176 210 250 304
#     4  10  22  37  51  73 102 133 169 209 254 305
#     4  11  22  35  54  76  98 128 168 215 263 311
#     4   9  18  33  53  75 102 133 169 215 259 302
#     4  10  21  35  51  72 103 136 168 207 252 304
#     4   9  20  38  55  71  95 129 167 209 260 311
#     4   8  15  29  51  77 104 136 171 205 246 300
#
# _framework density 17.759965999999999
#
# number of rings (size 3 to 8) (size 9 to 14) (size 15 to 20)
#    0.000    2.600    0.000    2.400    2.800    2.667 
#    0.000    1.000    0.000    4.000    0.000    2.800 
#    0.000    0.000    0.000    6.667    0.000    6.933 
#
# Total GULP energy -743947.541621 kJ/mol
# GULP energy per Si atom -12399.125694 kJ/mol
# Density = 1.771954 g / cm^3
# Si number density = 17.759966 Si / 1000 Ang^3
#
#
#
# Elastic Constant Matrix: (Units=GPa)
#
#
# Indices 1 2 3 4 5 6 
#
# 1 58.8603 40.0714 44.2408 0.0000 0.0000 0.0000
# 2 40.0714 130.9905 82.0460 0.0000 0.0000 0.0000
# 3 44.2408 82.0460 140.3594 0.0000 0.0000 0.0000
# 4 0.0000 0.0000 0.0000 21.6538 0.0000 0.0000
# 5 0.0000 0.0000 0.0000 0.0000 22.1747 0.0000
# 6 0.0000 0.0000 0.0000 0.0000 0.0000 21.1287
#
#
#
# Elastic Compliance Matrix: (Units=1/GPa)
#
#
# Indices 1 2 3 4 5 6 
#
# 1 0.023539 -0.004029 -0.005064 0.000000 0.000000 0.000000
# 2 -0.004029 0.012733 -0.006173 0.000000 0.000000 0.000000
# 3 -0.005064 -0.006173 0.012329 0.000000 0.000000 0.000000
# 4 0.000000 0.000000 0.000000 0.046181 0.000000 0.000000
# 5 0.000000 0.000000 0.000000 0.000000 0.045097 0.000000
# 6 0.000000 0.000000 0.000000 0.000000 0.000000 0.047329
#
#
# Mechanical properties :
#
#
# Convention : Reuss Voigt Hill
#
# Bulk Modulus (GPa) = 55.34473 73.65849 64.50161
# Shear Modulus (GPa) = 22.34506 23.91490 23.12998
#
# Velocity S-wave (km/s) = 3.55092 3.67353 3.61275
# Velocity P-wave (km/s) = 6.93126 7.71736 7.33485
#
# Compressibility (1/GPa) = 0.01806857
#
# Stress axis : x y z
#
# Youngs Moduli (GPa) = 42.48358 78.53500 81.10710
#
# Poissons Ratio (x) = 0.31639 0.41076
# Poissons Ratio (y) = 0.17115 0.50070
# Poissons Ratio (z) = 0.21515 0.48482
#
# Static dielectric constant tensor:
#      x y z
#    x 3.177160 0.000000 0.000000 
#    y 0.000000 3.368760 0.000000 
#    z 0.000000 0.000000 3.465950 
# 
# 
# High freq. dielectric constant tensor:
#      x y z
#    x 1.671630 0.000000 0.000000 
#    y 0.000000 1.687360 0.000000 
#    z 0.000000 0.000000 1.684440 
# 
# From -- ./inp_files/63850.got.cif
#   From: 2010.06.25/outbox.cif.g09.slc.cpg/sg71_32_cif.got.tgz:63850.got - 2010.06.28 04:59:45.
