data_PCOD8291272
_publ_section_title
;
Structure prediction by ZEFSAII (Michael W. Deem and Ramdas Pophale) SiO2 
 PCOD8291272
Probable space group: I M M M
;
_chemical_formula_sum "Si O2"
_cell_formula_units_Z 88
_cell_length_a 22.841887
_cell_length_b 25.112759
_cell_length_c 7.777928
_cell_angle_alpha 90.000000
_cell_angle_beta 90.000000
_cell_angle_gamma 90.000000
_cell_volume 4461.596864
_symmetry_space_group_name_H-M "I M M M"
_symmetry_group_IT_number 71
_symmetry_cell_setting 'orthorhombic'
loop_
_space_group_symop_operation_xyz
x,y,z
-x,-y,z
x,-y,-z
-x,y,-z
-x,-y,-z
x,y,-z
-x,y,z
x,-y,z
1/2+x,1/2+y,1/2+z
1/2-x,1/2-y,1/2+z
1/2+x,1/2-y,1/2-z
1/2-x,1/2+y,1/2-z
1/2-x,1/2-y,1/2-z
1/2+x,1/2+y,1/2-z
1/2-x,1/2+y,1/2+z
1/2+x,1/2-y,1/2+z
loop_
_atom_site_type_symbol
_atom_site_label
_atom_site_fract_x
_atom_site_fract_y
_atom_site_fract_z
Si Si1 0.161673 0.814346 0.191505
Si Si2 0.566552 0.387726 0.804638
Si Si3 0.930534 0.000000 0.807520
Si Si4 0.727893 0.880091 0.803016
Si Si5 0.567666 0.850846 0.500000
Si Si6 0.875144 0.297439 0.311780
Si Si7 0.830435 0.562172 0.000000
O O1 0.102186 0.848105 0.184807
O O2 0.212655 0.852401 0.266458
O O3 0.150588 0.761910 0.301494
O O4 0.179220 0.796502 0.000000
O O5 0.500000 0.386030 0.738868
O O6 0.592370 0.447499 0.789137
O O7 0.571998 0.368426 0.000000
O O8 0.000000 0.000000 0.805172
O O9 0.905409 0.000000 0.000000
O O10 0.679842 0.835018 0.794185
O O11 0.708434 0.926418 0.670864
O O12 0.734646 0.902163 0.000000
O O13 0.500000 0.869849 0.500000
O O14 0.578102 0.813170 0.334005
O O15 0.609676 0.902791 0.500000
O O16 0.904864 0.304007 0.500000
O O17 0.848075 0.500000 0.000000
#
# Coordination Sequence:
#
# PCOD8291272 Si02
#       7
#    16  16   8  16   8  16   8
#     4  11  21  35  55  84 115 151 197 241 295 353
#     4  10  21  35  50  71 101 140 187 236 284 341
#     4   9  17  33  53  67  87 129 179 229 281 326
#     4   9  21  38  59  88 119 152 195 247 297 361
#     4  10  22  41  62  92 128 160 203 250 298 365
#     4  10  20  37  60  86 120 158 192 239 299 354
#     4  10  22  41  66  92 121 162 203 250 312 359
#
# _framework density 19.723880000000001
#
# number of rings (size 3 to 8) (size 9 to 14) (size 15 to 20)
#    0.000    2.091    0.909    1.909    2.545    3.818 
#    1.636    0.000    0.000    0.000    0.000    5.091 
#    0.000    0.000    0.000    0.000    0.000    0.000 
#
# Total GULP energy -545453.186532 kJ/mol
# GULP energy per Si atom -12396.663330 kJ/mol
# Density = 1.967899 g / cm^3
# Si number density = 19.723880 Si / 1000 Ang^3
#
#
#
# Elastic Constant Matrix: (Units=GPa)
#
#
# Indices 1 2 3 4 5 6 
#
# 1 63.5416 19.8576 45.8187 0.0000 0.0000 0.0000
# 2 19.8576 82.4154 48.9470 0.0000 0.0000 0.0000
# 3 45.8187 48.9470 110.1038 0.0000 0.0000 0.0000
# 4 0.0000 0.0000 0.0000 24.1004 0.0000 0.0000
# 5 0.0000 0.0000 0.0000 0.0000 16.8055 0.0000
# 6 0.0000 0.0000 0.0000 0.0000 0.0000 1.5682
#
#
#
# Elastic Compliance Matrix: (Units=1/GPa)
#
#
# Indices 1 2 3 4 5 6 
#
# 1 0.022487 0.000190 -0.009442 0.000000 0.000000 0.000000
# 2 0.000190 0.016488 -0.007409 0.000000 0.000000 0.000000
# 3 -0.009442 -0.007409 0.016305 0.000000 0.000000 0.000000
# 4 0.000000 0.000000 0.000000 0.041493 0.000000 0.000000
# 5 0.000000 0.000000 0.000000 0.000000 0.059504 0.000000
# 6 0.000000 0.000000 0.000000 0.000000 0.000000 0.637666
#
#
# Mechanical properties :
#
#
# Convention : Reuss Voigt Hill
#
# Bulk Modulus (GPa) = 45.54190 53.92305 49.73247
# Shear Modulus (GPa) = 5.99100 17.92398 11.95749
#
# Velocity S-wave (km/s) = 1.74472 3.01781 2.46487
# Velocity P-wave (km/s) = 5.21522 6.28818 5.77667
#
# Compressibility (1/GPa) = 0.02195780
#
# Stress axis : x y z
#
# Youngs Moduli (GPa) = 44.47019 60.64991 61.33044
#
# Poissons Ratio (x) = -0.01150 0.57908
# Poissons Ratio (y) = -0.00843 0.45438
# Poissons Ratio (z) = 0.41989 0.44934
#
# Static dielectric constant tensor:
#      x y z
#    x 3.409900 0.000000 0.000000 
#    y 0.000000 3.527450 0.000000 
#    z 0.000000 0.000000 3.962320 
# 
# 
# High freq. dielectric constant tensor:
#      x y z
#    x 1.748610 0.000000 0.000000 
#    y 0.000000 1.757110 0.000000 
#    z 0.000000 0.000000 1.781030 
# 
# From -- ./inp_files/12578.got.cif
#   From: 2010.06.25/outbox.cif.g09.slc.cpg/sg71_7_cif.got.tgz:12578.got - 2010.06.28 04:59:45.
