data_PCOD8291285
_publ_section_title
;
Structure prediction by ZEFSAII (Michael W. Deem and Ramdas Pophale) SiO2 
 PCOD8291285
Probable space group: I M M M
;
_chemical_formula_sum "Si O2"
_cell_formula_units_Z 64
_cell_length_a 24.300894
_cell_length_b 8.725007
_cell_length_c 15.024441
_cell_angle_alpha 90.000000
_cell_angle_beta 90.000000
_cell_angle_gamma 90.000000
_cell_volume 3185.564168
_symmetry_space_group_name_H-M "I M M M"
_symmetry_group_IT_number 71
_symmetry_cell_setting 'orthorhombic'
loop_
_space_group_symop_operation_xyz
x,y,z
-x,-y,z
x,-y,-z
-x,y,-z
-x,-y,-z
x,y,-z
-x,y,z
x,-y,z
1/2+x,1/2+y,1/2+z
1/2-x,1/2-y,1/2+z
1/2+x,1/2-y,1/2-z
1/2-x,1/2+y,1/2-z
1/2-x,1/2-y,1/2-z
1/2+x,1/2+y,1/2-z
1/2-x,1/2+y,1/2+z
1/2+x,1/2-y,1/2+z
loop_
_atom_site_type_symbol
_atom_site_label
_atom_site_fract_x
_atom_site_fract_y
_atom_site_fract_z
Si Si1 0.888395 0.321746 0.341706
Si Si2 0.694096 0.824401 0.000000
Si Si3 0.190167 0.320867 0.000000
Si Si4 0.381888 0.316531 0.348402
Si Si5 0.000000 0.167316 0.856946
Si Si6 0.000000 0.169376 0.353613
O O1 0.895998 0.500000 0.321008
O O2 0.841013 0.289629 0.412507
O O3 0.870147 0.237169 0.251636
O O4 0.945363 0.259442 0.383425
O O5 0.745232 0.710292 0.000000
O O6 0.714710 0.000000 0.000000
O O7 0.165039 0.246883 0.911650
O O8 0.178392 0.500000 0.000000
O O9 0.382312 0.500000 0.349858
O O10 0.442031 0.251749 0.383022
O O11 0.000000 0.152973 0.751506
O O12 0.000000 0.000000 0.901613
O O13 0.000000 0.000000 0.397285
#
# Coordination Sequence:
#
# PCOD8291285 Si02
#       6
#    16   8   8  16   8   8
#     4  10  20  37  61  88 117 150 192 240 288 340
#     4  10  24  43  60  81 113 154 198 244 293 340
#     4  12  26  41  58  83 113 150 200 246 284 340
#     4  10  20  38  62  87 118 152 187 233 291 348
#     4   7  14  30  55  84 111 144 182 218 267 337
#     4   9  17  32  55  86 121 154 187 226 284 349
#
# _framework density 20.090634000000001
#
# number of rings (size 3 to 8) (size 9 to 14) (size 15 to 20)
#    0.000    2.250    0.000    4.500    0.000    4.000 
#    0.000    6.875    0.000    0.000    0.000    0.000 
#    0.000    0.000    0.000    0.000    0.000    0.000 
#
# Total GULP energy -396654.458428 kJ/mol
# GULP energy per Si atom -12395.451826 kJ/mol
# Density = 2.004491 g / cm^3
# Si number density = 20.090634 Si / 1000 Ang^3
#
#
#
# Elastic Constant Matrix: (Units=GPa)
#
#
# Indices 1 2 3 4 5 6 
#
# 1 138.3515 57.0521 55.4661 0.0000 0.0000 0.0000
# 2 57.0521 116.7658 45.0611 0.0000 0.0000 0.0000
# 3 55.4661 45.0611 98.3531 0.0000 0.0000 0.0000
# 4 0.0000 0.0000 0.0000 17.3110 0.0000 0.0000
# 5 0.0000 0.0000 0.0000 0.0000 26.2565 0.0000
# 6 0.0000 0.0000 0.0000 0.0000 0.0000 33.5350
#
#
#
# Elastic Compliance Matrix: (Units=1/GPa)
#
#
# Indices 1 2 3 4 5 6 
#
# 1 0.010346 -0.003406 -0.004274 0.000000 0.000000 0.000000
# 2 -0.003406 0.011525 -0.003360 0.000000 0.000000 0.000000
# 3 -0.004274 -0.003360 0.014117 0.000000 0.000000 0.000000
# 4 0.000000 0.000000 0.000000 0.057767 0.000000 0.000000
# 5 0.000000 0.000000 0.000000 0.000000 0.038086 0.000000
# 6 0.000000 0.000000 0.000000 0.000000 0.000000 0.029820
#
#
# Mechanical properties :
#
#
# Convention : Reuss Voigt Hill
#
# Bulk Modulus (GPa) = 71.89636 74.29211 73.09424
# Shear Modulus (GPa) = 26.54286 28.47992 27.51139
#
# Velocity S-wave (km/s) = 3.63871 3.76915 3.70451
# Velocity P-wave (km/s) = 7.31556 7.48336 7.39994
#
# Compressibility (1/GPa) = 0.01390891
#
# Stress axis : x y z
#
# Youngs Moduli (GPa) = 96.65659 86.77103 70.83605
#
# Poissons Ratio (x) = 0.29550 0.30277
# Poissons Ratio (y) = 0.32917 0.23797
# Poissons Ratio (z) = 0.41314 0.29151
#
# Static dielectric constant tensor:
#      x y z
#    x 3.896000 0.000000 0.000000 
#    y 0.000000 3.657000 0.000000 
#    z 0.000000 0.000000 3.487080 
# 
# 
# High freq. dielectric constant tensor:
#      x y z
#    x 1.791680 0.000000 0.000000 
#    y 0.000000 1.778350 0.000000 
#    z 0.000000 0.000000 1.778360 
# 
# From -- ./inp_files/38809.got.cif
#   From: 2010.06.25/outbox.cif.g09.slc.cpg/sg71_20_cif.got.tgz:38809.got - 2010.06.28 04:59:45.
