data_PCOD8291260
_publ_section_title
;
Structure prediction by ZEFSAII (Michael W. Deem and Ramdas Pophale) SiO2 
 PCOD8291260
Probable space group: I M M M
;
_chemical_formula_sum "Si O2"
_cell_formula_units_Z 72
_cell_length_a 9.305484
_cell_length_b 30.864456
_cell_length_c 13.848402
_cell_angle_alpha 90.000000
_cell_angle_beta 90.000000
_cell_angle_gamma 90.000000
_cell_volume 3977.381556
_symmetry_space_group_name_H-M "I M M M"
_symmetry_group_IT_number 71
_symmetry_cell_setting 'orthorhombic'
loop_
_space_group_symop_operation_xyz
x,y,z
-x,-y,z
x,-y,-z
-x,y,-z
-x,-y,-z
x,y,-z
-x,y,z
x,-y,z
1/2+x,1/2+y,1/2+z
1/2-x,1/2-y,1/2+z
1/2+x,1/2-y,1/2-z
1/2-x,1/2+y,1/2-z
1/2-x,1/2-y,1/2-z
1/2+x,1/2+y,1/2-z
1/2-x,1/2+y,1/2+z
1/2+x,1/2-y,1/2+z
loop_
_atom_site_type_symbol
_atom_site_label
_atom_site_fract_x
_atom_site_fract_y
_atom_site_fract_z
Si Si1 0.164427 0.000000 0.386191
Si Si2 0.000000 0.726797 0.753407
Si Si3 0.265221 0.336932 0.246979
Si Si4 0.831425 0.500000 0.394788
Si Si5 0.332449 0.934434 0.264131
Si Si6 0.000000 0.195699 0.614103
Si Si7 0.000000 0.806615 0.114849
O O1 0.242084 0.043588 0.349569
O O2 0.173420 0.000000 0.500000
O O3 0.000000 0.000000 0.349967
O O4 0.140625 0.698067 0.753050
O O5 0.000000 0.756962 0.848582
O O6 0.000000 0.755939 0.657171
O O7 0.198551 0.384144 0.244376
O O8 0.359948 0.329964 0.151035
O O9 0.359419 0.330900 0.343793
O O10 0.755113 0.500000 0.500000
O O11 0.785375 0.542873 0.336125
O O12 0.000000 0.500000 0.410030
O O13 0.500000 0.942403 0.285837
O O14 0.000000 0.198072 0.500000
O O15 0.000000 0.808206 0.000000
#
# Coordination Sequence:
#
# PCOD8291260 Si02
#       7
#     8   8  16   8  16   8   8
#     4  10  23  39  60  85 114 151 186 225 282 346
#     4  10  20  38  60  83 110 149 194 238 286 334
#     4  10  21  37  59  84 112 149 194 237 279 340
#     4   8  16  32  54  79 106 135 171 218 274 330
#     4  10  20  37  60  83 113 150 185 233 284 326
#     4  10  22  38  56  80 116 153 188 233 286 340
#     4  10  22  38  56  80 118 155 188 235 288 340
#
# _framework density 18.102360999999998
#
# number of rings (size 3 to 8) (size 9 to 14) (size 15 to 20)
#    0.000    2.444    1.111    3.667    3.111    6.222 
#    0.000    0.000    0.000    1.333    0.000    0.000 
#    0.000    0.000    0.000    0.000    0.000    0.000 
#
# Total GULP energy -446342.734156 kJ/mol
# GULP energy per Si atom -12398.409282 kJ/mol
# Density = 1.806116 g / cm^3
# Si number density = 18.102361 Si / 1000 Ang^3
#
#
#
# Elastic Constant Matrix: (Units=GPa)
#
#
# Indices 1 2 3 4 5 6 
#
# 1 108.9403 33.6089 48.0446 0.0001 0.0000 -0.0001
# 2 33.6089 116.7383 40.2948 0.0003 0.0001 -0.0002
# 3 48.0446 40.2948 149.7421 0.0011 0.0004 -0.0007
# 4 0.0001 0.0003 0.0011 10.8834 0.0001 -0.0002
# 5 0.0000 0.0001 0.0004 0.0001 14.6565 0.0000
# 6 -0.0001 -0.0002 -0.0007 -0.0002 0.0000 26.1016
#
#
#
# Elastic Compliance Matrix: (Units=1/GPa)
#
#
# Indices 1 2 3 4 5 6 
#
# 1 0.011175 -0.002182 -0.002998 0.000000 0.000000 0.000000
# 2 -0.002182 0.009869 -0.001956 0.000000 0.000000 0.000000
# 3 -0.002998 -0.001956 0.008166 -0.000001 0.000000 0.000000
# 4 0.000000 0.000000 -0.000001 0.091883 -0.000001 0.000001
# 5 0.000000 0.000000 0.000000 -0.000001 0.068229 0.000000
# 6 0.000000 0.000000 0.000000 0.000001 0.000000 0.038312
#
#
# Mechanical properties :
#
#
# Convention : Reuss Voigt Hill
#
# Bulk Modulus (GPa) = 66.94157 68.81304 67.87731
# Shear Modulus (GPa) = 20.25224 27.22647 23.73936
#
# Velocity S-wave (km/s) = 3.34842 3.88239 3.62525
# Velocity P-wave (km/s) = 7.21172 7.62844 7.42301
#
# Compressibility (1/GPa) = 0.01493840
#
# Stress axis : x y z
#
# Youngs Moduli (GPa) = 89.48660 101.32233 122.45357
#
# Poissons Ratio (x) = 0.22112 0.36714
# Poissons Ratio (y) = 0.19529 0.23947
# Poissons Ratio (z) = 0.26830 0.19815
#
# Static dielectric constant tensor:
#      x y z
#    x 3.576110 0.000000 0.000000 
#    y 0.000000 3.446180 0.000000 
#    z 0.000000 0.000000 3.303890 
# 
# 
# High freq. dielectric constant tensor:
#      x y z
#    x 1.710490 0.000000 0.000000 
#    y 0.000000 1.709070 0.000000 
#    z 0.000000 0.000000 1.690310 
# 
# From -- ./inp_files/31727.got.cif
#   From: 2010.06.25/outbox.cif.g09.slc.cpg/sg71_16_cif.got.tgz:31727.got - 2010.06.28 04:59:45.
