data_PCOD8291740
_publ_section_title
;
Structure prediction by ZEFSAII (Michael W. Deem and Ramdas Pophale) SiO2 
 PCOD8291740
Probable space group: I M M M
;
_chemical_formula_sum "Si O2"
_cell_formula_units_Z 96
_cell_length_a 27.793997
_cell_length_b 9.012411
_cell_length_c 19.982140
_cell_angle_alpha 90.000000
_cell_angle_beta 90.000000
_cell_angle_gamma 90.000000
_cell_volume 5005.344718
_symmetry_space_group_name_H-M "I M M M"
_symmetry_group_IT_number 71
_symmetry_cell_setting 'orthorhombic'
loop_
_space_group_symop_operation_xyz
x,y,z
-x,-y,z
x,-y,-z
-x,y,-z
-x,-y,-z
x,y,-z
-x,y,z
x,-y,z
1/2+x,1/2+y,1/2+z
1/2-x,1/2-y,1/2+z
1/2+x,1/2-y,1/2-z
1/2-x,1/2+y,1/2-z
1/2-x,1/2-y,1/2-z
1/2+x,1/2+y,1/2-z
1/2-x,1/2+y,1/2+z
1/2+x,1/2-y,1/2+z
loop_
_atom_site_type_symbol
_atom_site_label
_atom_site_fract_x
_atom_site_fract_y
_atom_site_fract_z
Si Si1 0.444086 0.172952 0.680487
Si Si2 0.119950 0.171836 0.077593
Si Si3 0.223261 0.673908 0.688925
Si Si4 0.888513 0.328085 0.311388
Si Si5 0.218648 0.326703 0.077874
Si Si6 0.446106 0.674924 0.924352
O O1 0.500000 0.206392 0.690323
O O2 0.425610 0.265955 0.617393
O O3 0.416628 0.230524 0.746341
O O4 0.433950 0.000000 0.667283
O O5 0.167291 0.261294 0.099703
O O6 0.128428 0.000000 0.094250
O O7 0.108523 0.197297 0.000000
O O8 0.234789 0.500000 0.688377
O O9 0.250000 0.750000 0.750000
O O10 0.167264 0.706406 0.698414
O O11 0.239774 0.745120 0.619010
O O12 0.899048 0.500000 0.322002
O O13 0.906712 0.246346 0.377041
O O14 0.218591 0.500000 0.095294
O O15 0.228978 0.296653 0.000000
O O16 0.500000 0.726797 0.904260
O O17 0.442088 0.500000 0.918126
O O18 0.434786 0.725601 0.000000
#
# Coordination Sequence:
#
# PCOD8291740 Si02
#       6
#    16  16  16  16  16  16
#     4  10  21  37  57  81 111 147 187 231 277 329
#     4  10  21  37  58  84 113 145 183 229 279 331
#     4  11  23  38  58  84 114 147 186 233 281 332
#     4  10  22  38  56  81 111 143 182 228 274 322
#     4  10  21  38  60  84 112 148 188 229 277 335
#     4   9  19  36  57  82 112 145 182 224 269 320
#
# _framework density 19.179499
#
# number of rings (size 3 to 8) (size 9 to 14) (size 15 to 20)
#    0.000    2.000    0.000    3.500    0.000    8.000 
#    0.000    5.833    0.000    0.000    0.000    0.000 
#    0.000    0.000    0.000    0.000    0.000    0.000 
#
# Total GULP energy -595453.689867 kJ/mol
# GULP energy per Si atom -12405.285206 kJ/mol
# Density = 1.913585 g / cm^3
# Si number density = 19.179499 Si / 1000 Ang^3
#
#
#
# Elastic Constant Matrix: (Units=GPa)
#
#
# Indices 1 2 3 4 5 6 
#
# 1 115.1127 65.5592 69.8868 0.0000 0.0000 0.0000
# 2 65.5592 93.7109 60.2629 0.0000 0.0000 0.0000
# 3 69.8868 60.2629 109.3544 0.0000 0.0000 0.0000
# 4 0.0000 0.0000 0.0000 36.7392 0.0000 0.0000
# 5 0.0000 0.0000 0.0000 0.0000 42.9402 0.0000
# 6 0.0000 0.0000 0.0000 0.0000 0.0000 34.8277
#
#
#
# Elastic Compliance Matrix: (Units=1/GPa)
#
#
# Indices 1 2 3 4 5 6 
#
# 1 0.017135 -0.007660 -0.006730 0.000000 0.000000 0.000000
# 2 -0.007660 0.019953 -0.006100 0.000000 0.000000 0.000000
# 3 -0.006730 -0.006100 0.016807 0.000000 0.000000 0.000000
# 4 0.000000 0.000000 0.000000 0.027219 0.000000 0.000000
# 5 0.000000 0.000000 0.000000 0.000000 0.023288 0.000000
# 6 0.000000 0.000000 0.000000 0.000000 0.000000 0.028713
#
#
# Mechanical properties :
#
#
# Convention : Reuss Voigt Hill
#
# Bulk Modulus (GPa) = 77.42616 78.84395 78.13506
# Shear Modulus (GPa) = 28.02685 31.06603 29.54644
#
# Velocity S-wave (km/s) = 3.82683 4.02898 3.92921
# Velocity P-wave (km/s) = 7.74487 7.92725 7.83659
#
# Compressibility (1/GPa) = 0.01291553
#
# Stress axis : x y z
#
# Youngs Moduli (GPa) = 58.35861 50.11803 59.49867
#
# Poissons Ratio (x) = 0.38391 0.40041
# Poissons Ratio (y) = 0.44703 0.36295
# Poissons Ratio (z) = 0.39274 0.30573
#
# Static dielectric constant tensor:
#      x y z
#    x 3.567080 0.000000 0.000000 
#    y 0.000000 3.503700 0.000000 
#    z 0.000000 0.000000 3.601460 
# 
# 
# High freq. dielectric constant tensor:
#      x y z
#    x 1.749130 0.000000 0.000000 
#    y 0.000000 1.748410 0.000000 
#    z 0.000000 0.000000 1.755860 
# 
# From -- ./inp_files/10910.got.cif
#   From: 2010.06.25/outbox.cif.g09.slc.cpg/sg71_6_cif.got.tgz:10910.got - 2010.06.28 04:59:45.
