data_PCOD8291398
_publ_section_title
;
Structure prediction by ZEFSAII (Michael W. Deem and Ramdas Pophale) SiO2 
 PCOD8291398
Probable space group: I M M M
;
_chemical_formula_sum "Si O2"
_cell_formula_units_Z 104
_cell_length_a 29.918524
_cell_length_b 19.776821
_cell_length_c 9.399291
_cell_angle_alpha 90.000000
_cell_angle_beta 90.000000
_cell_angle_gamma 90.000000
_cell_volume 5561.497451
_symmetry_space_group_name_H-M "I M M M"
_symmetry_group_IT_number 71
_symmetry_cell_setting 'orthorhombic'
loop_
_space_group_symop_operation_xyz
x,y,z
-x,-y,z
x,-y,-z
-x,y,-z
-x,-y,-z
x,y,-z
-x,y,z
x,-y,z
1/2+x,1/2+y,1/2+z
1/2-x,1/2-y,1/2+z
1/2+x,1/2-y,1/2-z
1/2-x,1/2+y,1/2-z
1/2-x,1/2-y,1/2-z
1/2+x,1/2+y,1/2-z
1/2-x,1/2+y,1/2+z
1/2+x,1/2-y,1/2+z
loop_
_atom_site_type_symbol
_atom_site_label
_atom_site_fract_x
_atom_site_fract_y
_atom_site_fract_z
Si Si1 0.549581 0.076876 0.831055
Si Si2 0.779766 0.578301 0.337015
Si Si3 0.365078 0.155198 0.165931
Si Si4 0.552849 0.500000 0.841066
Si Si5 0.378316 0.692353 0.835653
Si Si6 0.052152 0.128611 0.836303
Si Si7 0.808453 0.922875 0.665466
O O1 0.500000 0.098217 0.773711
O O2 0.588321 0.126291 0.767875
O O3 0.560276 0.000000 0.783829
O O4 0.548753 0.081811 0.000000
O O5 0.770936 0.599596 0.500000
O O6 0.791559 0.500000 0.324208
O O7 0.821790 0.618086 0.268957
O O8 0.735905 0.597047 0.249366
O O9 0.357337 0.234519 0.193810
O O10 0.366522 0.138114 0.000000
O O11 0.500000 0.500000 0.854641
O O12 0.568980 0.435563 0.753716
O O13 0.574604 0.500000 0.000000
O O14 0.421918 0.690853 0.734538
O O15 0.345377 0.631949 0.789095
O O16 0.392870 0.684712 0.000000
O O17 0.000000 0.142215 0.819560
O O18 0.065318 0.117668 0.000000
O O19 0.797370 0.916218 0.500000
O O20 0.824296 0.000000 0.702089
#
# Coordination Sequence:
#
# PCOD8291398 Si02
#       7
#    16  16  16   8  16  16  16
#     4   8  13  22  39  65  97 131 162 196 247 306
#     4   9  17  31  53  77  99 127 163 206 260 318
#     4   9  17  29  45  70 102 130 164 210 254 302
#     4   9  17  31  53  77  97 123 165 213 257 301
#     4  10  21  34  50  73 100 135 174 211 256 306
#     4  10  21  36  52  73 103 136 171 213 258 302
#     4   9  19  35  51  69  96 128 164 209 256 303
#
# _framework density 18.699999999999999
#
# number of rings (size 3 to 8) (size 9 to 14) (size 15 to 20)
#    0.000    2.846    0.000    1.615    1.077    5.538 
#    0.000    2.308    0.000    0.000    0.000    0.000 
#    0.000    0.000    0.000   10.615    0.000    9.538 
#
# Total GULP energy -644574.365693 kJ/mol
# GULP energy per Si atom -12395.660879 kJ/mol
# Density = 1.865744 g / cm^3
# Si number density = 18.700000 Si / 1000 Ang^3
#
#
#
# Elastic Constant Matrix: (Units=GPa)
#
#
# Indices 1 2 3 4 5 6 
#
# 1 109.4015 69.5263 44.3635 0.0000 0.0000 0.0000
# 2 69.5263 98.8653 33.3448 0.0000 0.0000 0.0000
# 3 44.3635 33.3448 63.8673 0.0000 0.0000 0.0000
# 4 0.0000 0.0000 0.0000 12.7751 0.0000 0.0000
# 5 0.0000 0.0000 0.0000 0.0000 24.9347 0.0000
# 6 0.0000 0.0000 0.0000 0.0000 0.0000 25.4711
#
#
#
# Elastic Compliance Matrix: (Units=1/GPa)
#
#
# Indices 1 2 3 4 5 6 
#
# 1 0.019159 -0.010905 -0.007615 0.000000 0.000000 0.000000
# 2 -0.010905 0.018484 -0.002075 0.000000 0.000000 0.000000
# 3 -0.007615 -0.002075 0.022030 0.000000 0.000000 0.000000
# 4 0.000000 0.000000 0.000000 0.078277 0.000000 0.000000
# 5 0.000000 0.000000 0.000000 0.000000 0.040105 0.000000
# 6 0.000000 0.000000 0.000000 0.000000 0.000000 0.039260
#
#
# Mechanical properties :
#
#
# Convention : Reuss Voigt Hill
#
# Bulk Modulus (GPa) = 54.10473 62.95593 58.53033
# Shear Modulus (GPa) = 18.89174 20.96280 19.92727
#
# Velocity S-wave (km/s) = 3.18190 3.35177 3.26794
# Velocity P-wave (km/s) = 6.51883 6.97987 6.75328
#
# Compressibility (1/GPa) = 0.01848267
#
# Stress axis : x y z
#
# Youngs Moduli (GPa) = 52.19530 54.10192 45.39210
#
# Poissons Ratio (x) = 0.58999 0.34564
# Poissons Ratio (y) = 0.56919 0.09420
# Poissons Ratio (z) = 0.39745 0.11228
#
# Static dielectric constant tensor:
#      x y z
#    x 3.574520 0.000000 0.000000 
#    y 0.000000 3.423200 0.000000 
#    z 0.000000 0.000000 3.139370 
# 
# 
# High freq. dielectric constant tensor:
#      x y z
#    x 1.731960 0.000000 0.000000 
#    y 0.000000 1.722050 0.000000 
#    z 0.000000 0.000000 1.685290 
# 
# From -- ./inp_files/15006.got.cif
#   From: 2010.06.25/outbox.cif.g09.slc.cpg/sg71_8_cif.got.tgz:15006.got - 2010.06.28 04:59:45.
