data_PCOD8291391
_publ_section_title
;
Structure prediction by ZEFSAII (Michael W. Deem and Ramdas Pophale) SiO2 
 PCOD8291391
Probable space group: I M M M
;
_chemical_formula_sum "Si O2"
_cell_formula_units_Z 104
_cell_length_a 17.516428
_cell_length_b 26.640885
_cell_length_c 13.605006
_cell_angle_alpha 90.000000
_cell_angle_beta 90.000000
_cell_angle_gamma 90.000000
_cell_volume 6348.818823
_symmetry_space_group_name_H-M "I M M M"
_symmetry_group_IT_number 71
_symmetry_cell_setting 'orthorhombic'
loop_
_space_group_symop_operation_xyz
x,y,z
-x,-y,z
x,-y,-z
-x,y,-z
-x,-y,-z
x,y,-z
-x,y,z
x,-y,z
1/2+x,1/2+y,1/2+z
1/2-x,1/2-y,1/2+z
1/2+x,1/2-y,1/2-z
1/2-x,1/2+y,1/2-z
1/2-x,1/2-y,1/2-z
1/2+x,1/2+y,1/2-z
1/2-x,1/2+y,1/2+z
1/2+x,1/2-y,1/2+z
loop_
_atom_site_type_symbol
_atom_site_label
_atom_site_fract_x
_atom_site_fract_y
_atom_site_fract_z
Si Si1 0.140683 0.387122 0.798943
Si Si2 0.500000 0.059148 0.389647
Si Si3 0.410981 0.268085 0.798307
Si Si4 0.086194 0.869100 0.613721
Si Si5 0.088413 0.288128 0.110000
Si Si6 0.219625 0.941965 0.613792
Si Si7 0.090391 0.665183 0.388220
O O1 0.074602 0.424511 0.831535
O O2 0.138579 0.336350 0.863145
O O3 0.220610 0.414334 0.816011
O O4 0.131790 0.374461 0.683317
O O5 0.500000 0.082364 0.500000
O O6 0.500000 0.000000 0.396363
O O7 0.500000 0.273414 0.819640
O O8 0.375301 0.321440 0.829783
O O9 0.392842 0.257806 0.683334
O O10 0.380060 0.221408 0.863026
O O11 0.086086 0.854291 0.500000
O O12 0.136694 0.918169 0.633773
O O13 0.000000 0.881152 0.649918
O O14 0.000000 0.304348 0.122673
O O15 0.106958 0.269855 0.000000
O O16 0.244371 0.935470 0.500000
O O17 0.214717 0.000000 0.643171
O O18 0.111750 0.651756 0.500000
O O19 0.000000 0.662081 0.368891
#
# Coordination Sequence:
#
# PCOD8291391 Si02
#       7
#    16   8  16  16  16  16  16
#     4  11  18  30  45  67  95 128 161 193 232 272
#     4  11  20  28  43  65  89 123 166 202 226 263
#     4   8  14  25  44  71  94 119 155 190 229 275
#     4   9  17  31  51  71  92 119 152 191 235 287
#     4   9  15  24  41  66  99 133 159 183 218 269
#     4  10  21  34  48  68  93 121 153 195 245 286
#     4   9  16  28  47  70  97 128 163 195 224 267
#
# _framework density 16.381
#
# number of rings (size 3 to 8) (size 9 to 14) (size 15 to 20)
#    0.000    2.538    1.538    3.231    0.000    3.385 
#    0.000    4.615    0.000    5.077    0.000    0.000 
#    0.000    0.000    0.000    7.385    0.000    0.308 
#
# Total GULP energy -644686.048203 kJ/mol
# GULP energy per Si atom -12397.808619 kJ/mol
# Density = 1.634372 g / cm^3
# Si number density = 16.381000 Si / 1000 Ang^3
#
#
#
# Elastic Constant Matrix: (Units=GPa)
#
#
# Indices 1 2 3 4 5 6 
#
# 1 66.3718 44.1247 34.3271 0.0000 0.0000 0.0000
# 2 44.1247 99.1462 48.5148 0.0000 0.0000 0.0000
# 3 34.3271 48.5148 115.0368 -0.0001 0.0000 0.0000
# 4 0.0000 0.0000 -0.0001 22.3094 0.0000 0.0000
# 5 0.0000 0.0000 0.0000 0.0000 14.8582 0.0000
# 6 0.0000 0.0000 0.0000 0.0000 0.0000 15.1499
#
#
#
# Elastic Compliance Matrix: (Units=1/GPa)
#
#
# Indices 1 2 3 4 5 6 
#
# 1 0.022243 -0.008381 -0.003103 0.000000 0.000000 0.000000
# 2 -0.008381 0.015867 -0.004191 0.000000 0.000000 0.000000
# 3 -0.003103 -0.004191 0.011386 0.000000 0.000000 0.000000
# 4 0.000000 0.000000 0.000000 0.044824 0.000000 0.000000
# 5 0.000000 0.000000 0.000000 0.000000 0.067303 0.000000
# 6 0.000000 0.000000 0.000000 0.000000 0.000000 0.066007
#
#
# Mechanical properties :
#
#
# Convention : Reuss Voigt Hill
#
# Bulk Modulus (GPa) = 55.10538 59.38757 57.24648
# Shear Modulus (GPa) = 18.86595 20.70271 19.78433
#
# Velocity S-wave (km/s) = 3.39735 3.55889 3.47906
# Velocity P-wave (km/s) = 7.00729 7.29522 7.15270
#
# Compressibility (1/GPa) = 0.01814705
#
# Stress axis : x y z
#
# Youngs Moduli (GPa) = 44.95765 63.02560 87.82661
#
# Poissons Ratio (x) = 0.52821 0.27252
# Poissons Ratio (y) = 0.37679 0.36804
# Poissons Ratio (z) = 0.13950 0.26411
#
# Static dielectric constant tensor:
#      x y z
#    x 2.865050 0.000000 0.000000 
#    y 0.000000 3.059330 0.000000 
#    z 0.000000 0.000000 3.104750 
# 
# 
# High freq. dielectric constant tensor:
#      x y z
#    x 1.602560 0.000000 0.000000 
#    y 0.000000 1.622290 0.000000 
#    z 0.000000 0.000000 1.618760 
# 
# From -- ./inp_files/36896.got.cif
#   From: 2010.06.25/outbox.cif.g09.slc.cpg/sg71_19_cif.got.tgz:36896.got - 2010.06.28 04:59:45.
