data_PCOD8291039
_publ_section_title
;
Structure prediction by ZEFSAII (Michael W. Deem and Ramdas Pophale) SiO2 
 PCOD8291039
Probable space group: I M M M
;
_chemical_formula_sum "Si O2"
_cell_formula_units_Z 88
_cell_length_a 7.757460
_cell_length_b 28.726795
_cell_length_c 21.446078
_cell_angle_alpha 90.000000
_cell_angle_beta 90.000000
_cell_angle_gamma 90.000000
_cell_volume 4779.193354
_symmetry_space_group_name_H-M "I M M M"
_symmetry_group_IT_number 71
_symmetry_cell_setting 'orthorhombic'
loop_
_space_group_symop_operation_xyz
x,y,z
-x,-y,z
x,-y,-z
-x,y,-z
-x,-y,-z
x,y,-z
-x,y,z
x,-y,z
1/2+x,1/2+y,1/2+z
1/2-x,1/2-y,1/2+z
1/2+x,1/2-y,1/2-z
1/2-x,1/2+y,1/2-z
1/2-x,1/2-y,1/2-z
1/2+x,1/2+y,1/2-z
1/2-x,1/2+y,1/2+z
1/2+x,1/2-y,1/2+z
loop_
_atom_site_type_symbol
_atom_site_label
_atom_site_fract_x
_atom_site_fract_y
_atom_site_fract_z
Si Si1 0.197786 0.893910 0.376676
Si Si2 0.807835 0.302516 0.574243
Si Si3 0.000000 0.132099 0.073945
Si Si4 0.798033 0.554258 0.000000
Si Si5 0.691609 0.052986 0.259285
Si Si6 0.500000 0.445512 0.670563
Si Si7 0.796253 0.799589 0.431047
O O1 0.212926 0.923494 0.439360
O O2 0.306795 0.916274 0.321348
O O3 0.271490 0.841540 0.387547
O O4 0.000000 0.893014 0.355307
O O5 0.811456 0.299886 0.500000
O O6 0.669435 0.340168 0.597147
O O7 0.751162 0.251024 0.598412
O O8 0.000000 0.315829 0.598888
O O9 0.000000 0.081698 0.105378
O O10 0.000000 0.124880 0.000000
O O11 0.754787 0.500000 0.000000
O O12 0.000000 0.564125 0.000000
O O13 0.500000 0.056855 0.229890
O O14 0.830340 0.069732 0.208660
O O15 0.734287 0.000000 0.278854
O O16 0.500000 0.500000 0.654366
O O17 0.712750 0.804745 0.500000
O O18 0.000000 0.804342 0.437841
#
# Coordination Sequence:
#
# PCOD8291039 Si02
#       7
#    16  16   8   8  16   8  16
#     4  11  19  31  51  75 102 141 192 241 286 322
#     4   8  15  30  51  78 114 147 171 207 254 314
#     4  10  20  35  60  94 115 133 168 206 263 337
#     4  11  23  33  39  63 109 149 187 242 299 334
#     4  10  21  38  57  76 101 143 194 231 265 321
#     4  10  22  41  62  83 110 140 173 217 266 324
#     4   8  14  27  46  72 107 142 181 224 271 316
#
# _framework density 18.413148
#
# number of rings (size 3 to 8) (size 9 to 14) (size 15 to 20)
#    0.000    2.455    1.818    2.455    0.000    3.818 
#    3.273    0.000    0.000    1.091    0.000    5.091 
#    0.000    0.000    0.000    0.000    0.000    0.000 
#
# Total GULP energy -545451.920395 kJ/mol
# GULP energy per Si atom -12396.634554 kJ/mol
# Density = 1.837124 g / cm^3
# Si number density = 18.413148 Si / 1000 Ang^3
#
#
#
# Elastic Constant Matrix: (Units=GPa)
#
#
# Indices 1 2 3 4 5 6 
#
# 1 96.6495 41.3532 29.4255 0.0000 0.0000 0.0000
# 2 41.3532 109.3552 49.3341 0.0000 0.0000 0.0000
# 3 29.4255 49.3341 58.1762 0.0003 0.0000 0.0000
# 4 0.0000 0.0000 0.0003 14.2936 0.0000 0.0000
# 5 0.0000 0.0000 0.0000 0.0000 9.5199 0.0000
# 6 0.0000 0.0000 0.0000 0.0000 0.0000 19.8004
#
#
#
# Elastic Compliance Matrix: (Units=1/GPa)
#
#
# Indices 1 2 3 4 5 6 
#
# 1 0.012856 -0.003123 -0.003855 0.000000 0.000000 0.000000
# 2 -0.003123 0.015569 -0.011623 0.000000 0.000000 0.000000
# 3 -0.003855 -0.011623 0.028995 -0.000001 0.000000 0.000000
# 4 0.000000 0.000000 -0.000001 0.069961 0.000000 0.000000
# 5 0.000000 0.000000 0.000000 0.000000 0.105043 0.000000
# 6 0.000000 0.000000 0.000000 0.000000 0.000000 0.050504
#
#
# Mechanical properties :
#
#
# Convention : Reuss Voigt Hill
#
# Bulk Modulus (GPa) = 49.45683 56.04517 52.75100
# Shear Modulus (GPa) = 15.29659 18.32733 16.81196
#
# Velocity S-wave (km/s) = 2.88539 3.15832 3.02493
# Velocity P-wave (km/s) = 6.16591 6.61843 6.39617
#
# Compressibility (1/GPa) = 0.02021966
#
# Stress axis : x y z
#
# Youngs Moduli (GPa) = 77.78259 64.22990 34.48815
#
# Poissons Ratio (x) = 0.20057 0.13294
# Poissons Ratio (y) = 0.24290 0.40087
# Poissons Ratio (z) = 0.29982 0.74656
#
# Static dielectric constant tensor:
#      x y z
#    x 3.516250 0.000000 0.000000 
#    y 0.000000 3.520340 0.000000 
#    z 0.000000 0.000000 2.893890 
# 
# 
# High freq. dielectric constant tensor:
#      x y z
#    x 1.720090 0.000000 0.000000 
#    y 0.000000 1.715880 0.000000 
#    z 0.000000 0.000000 1.660790 
# 
# From -- ./inp_files/42563.got.cif
#   From: 2010.06.25/outbox.cif.g09.slc.cpg/sg71_22_cif.got.tgz:42563.got - 2010.06.28 04:59:45.
