data_PCOD8291097
_publ_section_title
;
Structure prediction by ZEFSAII (Michael W. Deem and Ramdas Pophale) SiO2 
 PCOD8291097
Probable space group: I M M M
;
_chemical_formula_sum "Si O2"
_cell_formula_units_Z 104
_cell_length_a 8.980059
_cell_length_b 20.723353
_cell_length_c 29.483075
_cell_angle_alpha 90.000000
_cell_angle_beta 90.000000
_cell_angle_gamma 90.000000
_cell_volume 5486.709822
_symmetry_space_group_name_H-M "I M M M"
_symmetry_group_IT_number 71
_symmetry_cell_setting 'orthorhombic'
loop_
_space_group_symop_operation_xyz
x,y,z
-x,-y,z
x,-y,-z
-x,y,-z
-x,-y,-z
x,y,-z
-x,y,z
x,-y,z
1/2+x,1/2+y,1/2+z
1/2-x,1/2-y,1/2+z
1/2+x,1/2-y,1/2-z
1/2-x,1/2+y,1/2-z
1/2-x,1/2-y,1/2-z
1/2+x,1/2+y,1/2-z
1/2-x,1/2+y,1/2+z
1/2+x,1/2-y,1/2+z
loop_
_atom_site_type_symbol
_atom_site_label
_atom_site_fract_x
_atom_site_fract_y
_atom_site_fract_z
Si Si1 0.326608 0.281901 0.125119
Si Si2 0.666878 0.500000 0.946290
Si Si3 0.825873 0.638004 0.629904
Si Si4 0.323194 0.074044 0.220976
Si Si5 0.675561 0.870165 0.552471
Si Si6 0.674053 0.312294 0.772908
Si Si7 0.165998 0.924364 0.050388
O O1 0.500000 0.282428 0.111362
O O2 0.260884 0.209976 0.131139
O O3 0.235057 0.313631 0.084359
O O4 0.300151 0.315900 0.173212
O O5 0.500000 0.500000 0.925914
O O6 0.752431 0.436530 0.929455
O O7 0.662340 0.500000 0.000000
O O8 0.764122 0.594778 0.671179
O O9 0.788254 0.606146 0.582361
O O10 0.000000 0.642596 0.635496
O O11 0.500000 0.082339 0.225415
O O12 0.243877 0.120664 0.256513
O O13 0.275683 0.000000 0.229900
O O14 0.719371 0.855942 0.500000
O O15 0.500000 0.876431 0.557669
O O16 0.500000 0.308443 0.761001
O O17 0.750000 0.250000 0.750000
O O18 0.000000 0.907259 0.067760
O O19 0.190221 0.000000 0.049470
O O20 0.189539 0.896106 0.000000
#
# Coordination Sequence:
#
# PCOD8291097 Si02
#       7
#    16   8  16  16  16  16  16
#     4  10  22  39  58  82 113 151 192 231 280 342
#     4   9  17  33  59  85 111 149 191 231 283 341
#     4  10  20  36  57  81 110 146 190 234 279 335
#     4  10  21  39  62  88 119 152 190 240 294 345
#     4  10  21  37  58  86 118 150 190 238 286 341
#     4  11  22  40  64  87 117 155 196 240 288 347
#     4   9  19  35  52  74 109 148 185 230 282 332
#
# _framework density 18.954892999999998
#
# number of rings (size 3 to 8) (size 9 to 14) (size 15 to 20)
#    0.000    2.077    1.538    2.077    0.000    6.462 
#    1.385    3.846    0.000    0.000    0.000    0.000 
#    0.000    0.000    0.000    0.000    0.000    0.000 
#
# Total GULP energy -644771.643858 kJ/mol
# GULP energy per Si atom -12399.454690 kJ/mol
# Density = 1.891175 g / cm^3
# Si number density = 18.954893 Si / 1000 Ang^3
#
#
#
# Elastic Constant Matrix: (Units=GPa)
#
#
# Indices 1 2 3 4 5 6 
#
# 1 62.2593 43.1144 37.0501 0.0000 0.0000 0.0000
# 2 43.1144 111.0642 55.6144 0.0000 0.0000 0.0000
# 3 37.0501 55.6144 97.8429 0.0000 0.0000 0.0000
# 4 0.0000 0.0000 0.0000 35.0305 0.0000 0.0000
# 5 0.0000 0.0000 0.0000 0.0000 33.5537 0.0000
# 6 0.0000 0.0000 0.0000 0.0000 0.0000 31.4843
#
#
#
# Elastic Compliance Matrix: (Units=1/GPa)
#
#
# Indices 1 2 3 4 5 6 
#
# 1 0.023749 -0.006592 -0.005246 0.000000 0.000000 0.000000
# 2 -0.006592 0.014416 -0.005698 0.000000 0.000000 0.000000
# 3 -0.005246 -0.005698 0.015446 0.000000 0.000000 0.000000
# 4 0.000000 0.000000 0.000000 0.028547 0.000000 0.000000
# 5 0.000000 0.000000 0.000000 0.000000 0.029803 0.000000
# 6 0.000000 0.000000 0.000000 0.000000 0.000000 0.031762
#
#
# Mechanical properties :
#
#
# Convention : Reuss Voigt Hill
#
# Bulk Modulus (GPa) = 53.94202 60.30270 57.12236
# Shear Modulus (GPa) = 27.03095 29.03954 28.03524
#
# Velocity S-wave (km/s) = 3.78043 3.91837 3.85001
# Velocity P-wave (km/s) = 6.89749 7.23563 7.06858
#
# Compressibility (1/GPa) = 0.01853842
#
# Stress axis : x y z
#
# Youngs Moduli (GPa) = 42.10748 69.36719 64.74347
#
# Poissons Ratio (x) = 0.45729 0.33963
# Poissons Ratio (y) = 0.27759 0.36890
# Poissons Ratio (z) = 0.22089 0.39524
#
# Static dielectric constant tensor:
#      x y z
#    x 3.463320 0.000000 0.000000 
#    y 0.000000 3.574550 0.000000 
#    z 0.000000 0.000000 3.723740 
# 
# 
# High freq. dielectric constant tensor:
#      x y z
#    x 1.732940 0.000000 0.000000 
#    y 0.000000 1.741530 0.000000 
#    z 0.000000 0.000000 1.733810 
# 
# From -- ./inp_files/16969.got.cif
#   From: 2010.06.25/outbox.cif.g09.slc.cpg/sg71_9_cif.got.tgz:16969.got - 2010.06.28 04:59:45.
