data_PCOD8291488
_publ_section_title
;
Structure prediction by ZEFSAII (Michael W. Deem and Ramdas Pophale) SiO2 
 PCOD8291488
Probable space group: I M M M
;
_chemical_formula_sum "Si O2"
_cell_formula_units_Z 88
_cell_length_a 19.201466
_cell_length_b 24.888417
_cell_length_c 8.991998
_cell_angle_alpha 90.000000
_cell_angle_beta 90.000000
_cell_angle_gamma 90.000000
_cell_volume 4297.222727
_symmetry_space_group_name_H-M "I M M M"
_symmetry_group_IT_number 71
_symmetry_cell_setting 'orthorhombic'
loop_
_space_group_symop_operation_xyz
x,y,z
-x,-y,z
x,-y,-z
-x,y,-z
-x,-y,-z
x,y,-z
-x,y,z
x,-y,z
1/2+x,1/2+y,1/2+z
1/2-x,1/2-y,1/2+z
1/2+x,1/2-y,1/2-z
1/2-x,1/2+y,1/2-z
1/2-x,1/2-y,1/2-z
1/2+x,1/2+y,1/2-z
1/2-x,1/2+y,1/2+z
1/2+x,1/2-y,1/2+z
loop_
_atom_site_type_symbol
_atom_site_label
_atom_site_fract_x
_atom_site_fract_y
_atom_site_fract_z
Si Si1 0.576676 0.261543 0.833879
Si Si2 0.790626 0.700046 0.671798
Si Si3 0.923295 0.135591 0.827536
Si Si4 0.680358 0.087613 0.672030
Si Si5 0.330950 0.441253 0.161003
Si Si6 0.083302 0.500000 0.323059
O O1 0.500000 0.243033 0.779411
O O2 0.627046 0.211229 0.824654
O O3 0.607439 0.308473 0.730954
O O4 0.573414 0.284835 0.000000
O O5 0.764309 0.694351 0.500000
O O6 0.750000 0.750000 0.750000
O O7 0.790193 0.643437 0.757124
O O8 0.867814 0.090460 0.791708
O O9 0.000000 0.124692 0.756063
O O10 0.931400 0.139709 0.000000
O O11 0.657454 0.097140 0.500000
O O12 0.748609 0.051087 0.683952
O O13 0.618383 0.054832 0.755924
O O14 0.364571 0.500000 0.163773
O O15 0.345518 0.413620 0.000000
O O16 0.095386 0.500000 0.500000
O O17 0.000000 0.500000 0.286500
#
# Coordination Sequence:
#
# PCOD8291488 Si02
#       6
#    16  16  16  16  16   8
#     4   9  19  37  58  78 107 150 194 234 282 344
#     4  11  23  38  59  91 126 162 205 257 314 377
#     4  10  21  35  53  82 117 150 189 240 292 343
#     4  11  23  42  65  91 124 161 205 260 316 375
#     4  10  21  38  58  80 109 149 195 239 285 345
#     4  11  25  45  69  97 128 165 212 265 323 392
#
# _framework density 20.478342999999999
#
# number of rings (size 3 to 8) (size 9 to 14) (size 15 to 20)
#    0.000    1.727    0.909    3.000    0.000   10.545 
#    0.000    3.636    0.000    0.000    0.000    0.000 
#    0.000    0.000    0.000    0.000    0.000    0.000 
#
# Total GULP energy -545117.925591 kJ/mol
# GULP energy per Si atom -12389.043763 kJ/mol
# Density = 2.043173 g / cm^3
# Si number density = 20.478343 Si / 1000 Ang^3
#
#
#
# Elastic Constant Matrix: (Units=GPa)
#
#
# Indices 1 2 3 4 5 6 
#
# 1 57.0790 28.0972 27.4027 0.0000 0.0000 0.0000
# 2 28.0972 98.7508 45.0732 0.0000 0.0000 0.0000
# 3 27.4027 45.0732 114.9923 0.0000 0.0000 0.0000
# 4 0.0000 0.0000 0.0000 22.0516 0.0000 0.0000
# 5 0.0000 0.0000 0.0000 0.0000 30.5023 0.0000
# 6 0.0000 0.0000 0.0000 0.0000 0.0000 32.3958
#
#
#
# Elastic Compliance Matrix: (Units=1/GPa)
#
#
# Indices 1 2 3 4 5 6 
#
# 1 0.021352 -0.004571 -0.003297 0.000000 0.000000 0.000000
# 2 -0.004571 0.013311 -0.004128 0.000000 0.000000 0.000000
# 3 -0.003297 -0.004128 0.011100 0.000000 0.000000 0.000000
# 4 0.000000 0.000000 0.000000 0.045348 0.000000 0.000000
# 5 0.000000 0.000000 0.000000 0.000000 0.032784 0.000000
# 6 0.000000 0.000000 0.000000 0.000000 0.000000 0.030868
#
#
# Mechanical properties :
#
#
# Convention : Reuss Voigt Hill
#
# Bulk Modulus (GPa) = 45.93026 52.44092 49.18559
# Shear Modulus (GPa) = 26.87985 28.33987 27.60986
#
# Velocity S-wave (km/s) = 3.62691 3.72411 3.67583
# Velocity P-wave (km/s) = 6.32588 6.64497 6.48738
#
# Compressibility (1/GPa) = 0.02177214
#
# Stress axis : x y z
#
# Youngs Moduli (GPa) = 46.83372 75.12424 90.08969
#
# Poissons Ratio (x) = 0.34336 0.29700
# Poissons Ratio (y) = 0.21405 0.37193
# Poissons Ratio (z) = 0.15440 0.31015
#
# Static dielectric constant tensor:
#      x y z
#    x 3.927760 0.000000 0.000000 
#    y 0.000000 3.604010 0.000000 
#    z 0.000000 0.000000 3.855750 
# 
# 
# High freq. dielectric constant tensor:
#      x y z
#    x 1.807630 0.000000 0.000000 
#    y 0.000000 1.794440 0.000000 
#    z 0.000000 0.000000 1.805520 
# 
# From -- ./inp_files/10500.got.cif
#   From: 2010.06.25/outbox.cif.g09.slc.cpg/sg71_6_cif.got.tgz:10500.got - 2010.06.28 04:59:45.
