data_PCOD8291825
_publ_section_title
;
Structure prediction by ZEFSAII (Michael W. Deem and Ramdas Pophale) SiO2 
 PCOD8291825
Probable space group: I M M M
;
_chemical_formula_sum "Si O2"
_cell_formula_units_Z 56
_cell_length_a 10.480884
_cell_length_b 13.816746
_cell_length_c 18.893161
_cell_angle_alpha 90.000000
_cell_angle_beta 90.000000
_cell_angle_gamma 90.000000
_cell_volume 2735.950991
_symmetry_space_group_name_H-M "I M M M"
_symmetry_group_IT_number 71
_symmetry_cell_setting 'orthorhombic'
loop_
_space_group_symop_operation_xyz
x,y,z
-x,-y,z
x,-y,-z
-x,y,-z
-x,-y,-z
x,y,-z
-x,y,z
x,-y,z
1/2+x,1/2+y,1/2+z
1/2-x,1/2-y,1/2+z
1/2+x,1/2-y,1/2-z
1/2-x,1/2+y,1/2-z
1/2-x,1/2-y,1/2-z
1/2+x,1/2+y,1/2-z
1/2-x,1/2+y,1/2+z
1/2+x,1/2-y,1/2+z
loop_
_atom_site_type_symbol
_atom_site_label
_atom_site_fract_x
_atom_site_fract_y
_atom_site_fract_z
Si Si1 0.290452 0.609582 0.500000
Si Si2 0.000000 0.885246 0.254750
Si Si3 0.647289 0.706837 0.000000
Si Si4 0.721338 0.608804 0.143107
Si Si5 0.000000 0.182708 0.901095
Si Si6 0.000000 0.607384 0.875096
O O1 0.241462 0.500000 0.500000
O O2 0.165972 0.677344 0.500000
O O3 0.375108 0.629897 0.430617
O O4 0.874369 0.850433 0.297574
O O5 0.000000 0.824568 0.183153
O O6 0.000000 0.000000 0.238811
O O7 0.714474 0.665954 0.069733
O O8 0.500000 0.679060 0.000000
O O9 0.677678 0.500000 0.126452
O O10 0.868665 0.613304 0.170883
O O11 0.000000 0.296622 0.924877
O O12 0.000000 0.500000 0.914125
#
# Coordination Sequence:
#
# PCOD8291825 Si02
#       6
#     8   8   8  16   8   8
#     4  11  24  42  62  89 115 155 214 260 296 352
#     4  10  21  38  63  92 121 162 209 250 293 356
#     4  12  22  38  62  89 122 161 199 247 314 364
#     4  10  21  37  60  93 128 161 200 245 300 368
#     4  11  21  41  69  87 116 162 207 254 299 352
#     4  10  21  38  59  92 129 157 197 249 305 365
#
# _framework density 20.468202000000002
#
# number of rings (size 3 to 8) (size 9 to 14) (size 15 to 20)
#    0.000    1.429    4.286    2.143    0.000    2.571 
#    0.000    3.571    0.000    0.000    0.000    0.000 
#    0.000    0.000    0.000    0.000    0.000    0.000 
#
# Total GULP energy -346961.917971 kJ/mol
# GULP energy per Si atom -12391.497070 kJ/mol
# Density = 2.042162 g / cm^3
# Si number density = 20.468202 Si / 1000 Ang^3
#
#
#
# Elastic Constant Matrix: (Units=GPa)
#
#
# Indices 1 2 3 4 5 6 
#
# 1 147.3793 15.7321 48.1025 0.0000 0.0000 0.0000
# 2 15.7321 118.5079 36.7224 0.0000 0.0000 0.0000
# 3 48.1025 36.7224 130.2651 0.0000 0.0000 0.0000
# 4 0.0000 0.0000 0.0000 7.0940 0.0000 0.0000
# 5 0.0000 0.0000 0.0000 0.0000 -0.8422 0.0000
# 6 0.0000 0.0000 0.0000 0.0000 0.0000 28.5016
#
#
#
# Elastic Compliance Matrix: (Units=1/GPa)
#
#
# Indices 1 2 3 4 5 6 
#
# 1 0.007718 -0.000155 -0.002806 0.000000 0.000000 0.000000
# 2 -0.000155 0.009249 -0.002550 0.000000 0.000000 0.000000
# 3 -0.002806 -0.002550 0.009432 0.000000 0.000000 0.000000
# 4 0.000000 0.000000 0.000000 0.140965 0.000000 0.000000
# 5 0.000000 0.000000 0.000000 0.000000 -1.187420 0.000000
# 6 0.000000 0.000000 0.000000 0.000000 0.000000 0.035086
#
#
# Mechanical properties :
#
#
# Convention : Reuss Voigt Hill
#
# Bulk Modulus (GPa) = 65.03679 66.36293 65.69986
# Shear Modulus (GPa) = -5.16090 26.65703 10.74807
#
# Velocity S-wave (km/s) = -1.58962 3.61274 2.29401
# Velocity P-wave (km/s) = 5.33613 7.06367 6.25978
#
# Compressibility (1/GPa) = 0.01537591
#
# Stress axis : x y z
#
# Youngs Moduli (GPa) = 129.57302 108.11930 106.02458
#
# Poissons Ratio (x) = 0.01675 0.29752
# Poissons Ratio (y) = 0.02008 0.27038
# Poissons Ratio (z) = 0.36361 0.27572
#
# Static dielectric constant tensor:
#      x y z
#    x 3.929370 0.000000 0.000000 
#    y 0.000000 3.811990 0.000000 
#    z 0.000000 0.000000 3.319480 
# 
# 
# High freq. dielectric constant tensor:
#      x y z
#    x 1.811120 0.000000 0.000000 
#    y 0.000000 1.805810 0.000000 
#    z 0.000000 0.000000 1.760680 
# 
# From -- ./inp_files/23181.got.cif
#   From: 2010.06.25/outbox.cif.g09.slc.cpg/sg71_12_cif.got.tgz:23181.got - 2010.06.28 04:59:45.
