data_PCOD8291532
_publ_section_title
;
Structure prediction by ZEFSAII (Michael W. Deem and Ramdas Pophale) SiO2 
 PCOD8291532
Probable space group: I M M M
;
_chemical_formula_sum "Si O2"
_cell_formula_units_Z 96
_cell_length_a 9.136984
_cell_length_b 23.726760
_cell_length_c 24.170944
_cell_angle_alpha 90.000000
_cell_angle_beta 90.000000
_cell_angle_gamma 90.000000
_cell_volume 5240.043761
_symmetry_space_group_name_H-M "I M M M"
_symmetry_group_IT_number 71
_symmetry_cell_setting 'orthorhombic'
loop_
_space_group_symop_operation_xyz
x,y,z
-x,-y,z
x,-y,-z
-x,y,-z
-x,-y,-z
x,y,-z
-x,y,z
x,-y,z
1/2+x,1/2+y,1/2+z
1/2-x,1/2-y,1/2+z
1/2+x,1/2-y,1/2-z
1/2-x,1/2+y,1/2-z
1/2-x,1/2-y,1/2-z
1/2+x,1/2+y,1/2-z
1/2-x,1/2+y,1/2+z
1/2+x,1/2-y,1/2+z
loop_
_atom_site_type_symbol
_atom_site_label
_atom_site_fract_x
_atom_site_fract_y
_atom_site_fract_z
Si Si1 0.827327 0.935320 0.735523
Si Si2 0.170173 0.655665 0.437221
Si Si3 0.668176 0.063920 0.848706
Si Si4 0.326889 0.230252 0.436838
Si Si5 0.659358 0.434351 0.939864
Si Si6 0.329746 0.129353 0.641856
O O1 0.770159 0.923061 0.796716
O O2 0.757140 0.886488 0.697420
O O3 0.000000 0.927533 0.734311
O O4 0.785584 0.000000 0.717535
O O5 0.209094 0.638598 0.500000
O O6 0.217983 0.603896 0.398702
O O7 0.258498 0.710654 0.418612
O O8 0.000000 0.669739 0.430743
O O9 0.500000 0.074850 0.831485
O O10 0.689720 0.000000 0.869325
O O11 0.277494 0.214278 0.500000
O O12 0.500000 0.235167 0.434645
O O13 0.273628 0.185479 0.390254
O O14 0.500000 0.414145 0.915892
O O15 0.654847 0.500000 0.947103
O O16 0.795106 0.420432 0.900841
O O17 0.684635 0.406284 0.000000
O O18 0.500000 0.132153 0.656150
#
# Coordination Sequence:
#
# PCOD8291532 Si02
#       6
#    16  16  16  16  16  16
#     4  10  21  36  53  74 102 136 174 215 258 305
#     4   9  18  33  55  83 110 135 165 201 245 301
#     4   9  18  34  56  81 109 137 164 200 248 301
#     4   9  19  35  52  72 102 138 173 212 257 301
#     4   9  18  31  45  64  93 127 163 208 262 313
#     4  11  21  32  49  72  97 130 175 219 259 305
#
# _framework density 18.320457000000001
#
# number of rings (size 3 to 8) (size 9 to 14) (size 15 to 20)
#    0.000    2.500    0.000    2.500    0.000    6.667 
#    0.000    5.000    0.000    0.000    0.000    4.667 
#    0.000    0.000    0.000    0.000    0.000    0.000 
#
# Total GULP energy -594858.511352 kJ/mol
# GULP energy per Si atom -12392.885653 kJ/mol
# Density = 1.827876 g / cm^3
# Si number density = 18.320457 Si / 1000 Ang^3
#
#
#
# Elastic Constant Matrix: (Units=GPa)
#
#
# Indices 1 2 3 4 5 6 
#
# 1 50.3790 42.3284 44.0889 0.0000 0.0000 0.0000
# 2 42.3284 107.6609 77.0119 0.0000 0.0000 0.0000
# 3 44.0889 77.0119 113.1477 0.0000 0.0000 0.0000
# 4 0.0000 0.0000 0.0000 37.1699 0.0000 0.0000
# 5 0.0000 0.0000 0.0000 0.0000 24.5741 0.0000
# 6 0.0000 0.0000 0.0000 0.0000 0.0000 28.5804
#
#
#
# Elastic Compliance Matrix: (Units=1/GPa)
#
#
# Indices 1 2 3 4 5 6 
#
# 1 0.032839 -0.007323 -0.007811 0.000000 0.000000 0.000000
# 2 -0.007323 0.019735 -0.010578 0.000000 0.000000 0.000000
# 3 -0.007811 -0.010578 0.019082 0.000000 0.000000 0.000000
# 4 0.000000 0.000000 0.000000 0.026903 0.000000 0.000000
# 5 0.000000 0.000000 0.000000 0.000000 0.040693 0.000000
# 6 0.000000 0.000000 0.000000 0.000000 0.000000 0.034989
#
#
# Mechanical properties :
#
#
# Convention : Reuss Voigt Hill
#
# Bulk Modulus (GPa) = 49.43441 66.44957 57.94199
# Shear Modulus (GPa) = 21.51369 25.24876 23.38123
#
# Velocity S-wave (km/s) = 3.43052 3.71640 3.57632
# Velocity P-wave (km/s) = 6.53705 7.40034 6.98205
#
# Compressibility (1/GPa) = 0.02022882
#
# Stress axis : x y z
#
# Youngs Moduli (GPa) = 30.45190 50.67228 52.40613
#
# Poissons Ratio (x) = 0.37109 0.40936
# Poissons Ratio (y) = 0.22301 0.55437
# Poissons Ratio (z) = 0.23787 0.53603
#
# Static dielectric constant tensor:
#      x y z
#    x 3.417360 0.000000 0.000000 
#    y 0.000000 3.340760 0.000000 
#    z 0.000000 0.000000 3.405340 
# 
# 
# High freq. dielectric constant tensor:
#      x y z
#    x 1.708480 0.000000 0.000000 
#    y 0.000000 1.697130 0.000000 
#    z 0.000000 0.000000 1.706230 
# 
# From -- ./inp_files/12810.got.cif
#   From: 2010.06.25/outbox.cif.g09.slc.cpg/sg71_7_cif.got.tgz:12810.got - 2010.06.28 04:59:45.
