data_PCOD8291547
_publ_section_title
;
Structure prediction by ZEFSAII (Michael W. Deem and Ramdas Pophale) SiO2 
 PCOD8291547
Probable space group: I M M M
;
_chemical_formula_sum "Si O2"
_cell_formula_units_Z 120
_cell_length_a 8.964370
_cell_length_b 26.754295
_cell_length_c 27.516342
_cell_angle_alpha 90.000000
_cell_angle_beta 90.000000
_cell_angle_gamma 90.000000
_cell_volume 6599.392875
_symmetry_space_group_name_H-M "I M M M"
_symmetry_group_IT_number 71
_symmetry_cell_setting 'orthorhombic'
loop_
_space_group_symop_operation_xyz
x,y,z
-x,-y,z
x,-y,-z
-x,y,-z
-x,-y,-z
x,y,-z
-x,y,z
x,-y,z
1/2+x,1/2+y,1/2+z
1/2-x,1/2-y,1/2+z
1/2+x,1/2-y,1/2-z
1/2-x,1/2+y,1/2-z
1/2-x,1/2-y,1/2-z
1/2+x,1/2+y,1/2-z
1/2-x,1/2+y,1/2+z
1/2+x,1/2-y,1/2+z
loop_
_atom_site_type_symbol
_atom_site_label
_atom_site_fract_x
_atom_site_fract_y
_atom_site_fract_z
Si Si1 0.825224 0.815645 0.055989
Si Si2 0.324675 0.357796 0.859051
Si Si3 0.172684 0.900510 0.785258
Si Si4 0.322861 0.904207 0.886858
Si Si5 0.327960 0.057320 0.691999
Si Si6 0.830344 0.200552 0.265962
Si Si7 0.177178 0.500000 0.554268
Si Si8 0.672004 0.287009 0.944779
O O1 0.741290 0.853670 0.090822
O O2 0.772550 0.760105 0.069756
O O3 0.000000 0.819759 0.065756
O O4 0.784548 0.827513 0.000000
O O5 0.500000 0.368807 0.852654
O O6 0.236511 0.409714 0.852518
O O7 0.268416 0.319622 0.817348
O O8 0.285624 0.334104 0.911174
O O9 0.264645 0.913821 0.832956
O O10 0.236374 0.932861 0.741057
O O11 0.191345 0.841645 0.774940
O O12 0.000000 0.914667 0.792508
O O13 0.500000 0.900557 0.886031
O O14 0.264752 0.950576 0.918810
O O15 0.500000 0.071089 0.701261
O O16 0.308770 0.000000 0.676489
O O17 0.750000 0.250000 0.250000
O O18 0.000000 0.215732 0.272793
O O19 0.243938 0.500000 0.500000
O O20 0.000000 0.500000 0.552998
O O21 0.500000 0.271571 0.937004
O O22 0.703011 0.303759 0.000000
#
# Coordination Sequence:
#
# PCOD8291547 Si02
#       8
#    16  16  16  16  16  16   8  16
#     4  10  21  36  53  77 109 143 182 227 273 324
#     4   9  19  35  54  80 110 142 181 222 272 326
#     4  10  22  38  53  78 110 141 178 219 272 325
#     4  11  22  36  57  80 104 138 181 229 280 332
#     4  10  21  37  58  82 108 140 182 225 266 323
#     4   9  19  33  49  72 105 139 174 214 257 315
#     4   9  20  38  57  77 101 133 179 233 282 325
#     4   9  18  34  57  84 113 146 184 224 266 320
#
# _framework density 18.183491
#
# number of rings (size 3 to 8) (size 9 to 14) (size 15 to 20)
#    0.000    2.333    0.000    2.800    2.800    5.600 
#    0.000    1.000    0.000    2.800    0.000    2.800 
#    0.000    0.000    0.000    0.000    0.000    0.000 
#
# Total GULP energy -744133.965515 kJ/mol
# GULP energy per Si atom -12402.232759 kJ/mol
# Density = 1.814210 g / cm^3
# Si number density = 18.183491 Si / 1000 Ang^3
#
#
#
# Elastic Constant Matrix: (Units=GPa)
#
#
# Indices 1 2 3 4 5 6 
#
# 1 77.7621 49.4292 36.0212 0.0000 0.0000 0.0000
# 2 49.4292 114.6770 58.7565 0.0000 0.0000 0.0000
# 3 36.0212 58.7565 106.3243 0.0000 0.0000 0.0000
# 4 0.0000 0.0000 0.0000 24.5378 0.0000 0.0000
# 5 0.0000 0.0000 0.0000 0.0000 27.8564 0.0000
# 6 0.0000 0.0000 0.0000 0.0000 0.0000 28.4980
#
#
#
# Elastic Compliance Matrix: (Units=1/GPa)
#
#
# Indices 1 2 3 4 5 6 
#
# 1 0.018196 -0.006535 -0.002553 0.000000 0.000000 0.000000
# 2 -0.006535 0.014511 -0.005805 0.000000 0.000000 0.000000
# 3 -0.002553 -0.005805 0.013478 0.000000 0.000000 0.000000
# 4 0.000000 0.000000 0.000000 0.040753 0.000000 0.000000
# 5 0.000000 0.000000 0.000000 0.000000 0.035898 0.000000
# 6 0.000000 0.000000 0.000000 0.000000 0.000000 0.035090
#
#
# Mechanical properties :
#
#
# Convention : Reuss Voigt Hill
#
# Bulk Modulus (GPa) = 60.97961 65.24191 63.11076
# Shear Modulus (GPa) = 25.88241 26.48221 26.18231
#
# Velocity S-wave (km/s) = 3.77689 3.82040 3.79871
# Velocity P-wave (km/s) = 7.25454 7.44435 7.35006
#
# Compressibility (1/GPa) = 0.01639893
#
# Stress axis : x y z
#
# Youngs Moduli (GPa) = 54.95582 68.91186 74.19326
#
# Poissons Ratio (x) = 0.45033 0.18945
# Poissons Ratio (y) = 0.35913 0.43071
# Poissons Ratio (z) = 0.14032 0.40005
#
# Static dielectric constant tensor:
#      x y z
#    x 3.365730 0.000000 0.000000 
#    y 0.000000 3.346920 0.000000 
#    z 0.000000 0.000000 3.438130 
# 
# 
# High freq. dielectric constant tensor:
#      x y z
#    x 1.705030 0.000000 0.000000 
#    y 0.000000 1.701020 0.000000 
#    z 0.000000 0.000000 1.700460 
# 
# From -- ./inp_files/63851.got.cif
#   From: 2010.06.25/outbox.cif.g09.slc.cpg/sg71_32_cif.got.tgz:63851.got - 2010.06.28 04:59:45.
