data_PCOD8291660
_publ_section_title
;
Structure prediction by ZEFSAII (Michael W. Deem and Ramdas Pophale) SiO2 
 PCOD8291660
Probable space group: I M M M
;
_chemical_formula_sum "Si O2"
_cell_formula_units_Z 96
_cell_length_a 16.698511
_cell_length_b 17.727772
_cell_length_c 17.730500
_cell_angle_alpha 90.000000
_cell_angle_beta 90.000000
_cell_angle_gamma 90.000000
_cell_volume 5248.713740
_symmetry_space_group_name_H-M "I M M M"
_symmetry_group_IT_number 71
_symmetry_cell_setting 'orthorhombic'
loop_
_space_group_symop_operation_xyz
x,y,z
-x,-y,z
x,-y,-z
-x,y,-z
-x,-y,-z
x,y,-z
-x,y,z
x,-y,z
1/2+x,1/2+y,1/2+z
1/2-x,1/2-y,1/2+z
1/2+x,1/2-y,1/2-z
1/2-x,1/2+y,1/2-z
1/2-x,1/2-y,1/2-z
1/2+x,1/2+y,1/2-z
1/2-x,1/2+y,1/2+z
1/2+x,1/2-y,1/2+z
loop_
_atom_site_type_symbol
_atom_site_label
_atom_site_fract_x
_atom_site_fract_y
_atom_site_fract_z
Si Si1 0.408008 0.267134 0.772826
Si Si2 0.588589 0.821662 0.500000
Si Si3 0.311130 0.181518 0.358384
Si Si4 0.409813 0.643108 0.500000
Si Si5 0.328999 0.214637 0.916852
Si Si6 0.812200 0.915358 0.722172
Si Si7 0.279111 0.416475 0.605149
O O1 0.500000 0.262830 0.748217
O O2 0.355821 0.225873 0.709028
O O3 0.396871 0.225602 0.853505
O O4 0.383767 0.354710 0.784595
O O5 0.500000 0.856555 0.500000
O O6 0.630525 0.849862 0.423175
O O7 0.585691 0.732186 0.500000
O O8 0.249701 0.238824 0.395813
O O9 0.263651 0.109149 0.327874
O O10 0.500000 0.609041 0.500000
O O11 0.362836 0.617220 0.425387
O O12 0.299105 0.128625 0.921970
O O13 0.361452 0.238728 0.000000
O O14 0.780582 0.916356 0.805995
O O15 0.840780 0.000000 0.697908
O O16 0.269467 0.500000 0.572347
#
# Coordination Sequence:
#
# PCOD8291660 Si02
#       7
#    16   8  16   8  16  16  16
#     4  11  22  36  58  84 114 147 181 230 280 325
#     4  11  20  31  57  87 115 140 173 230 286 333
#     4  11  18  37  58  83 109 144 189 227 270 329
#     4  11  21  32  47  83 126 151 171 210 275 339
#     4  11  19  35  56  80 107 145 194 232 260 320
#     4  10  21  36  57  81 109 147 188 228 269 326
#     4  11  19  31  51  78 112 151 184 215 261 322
#
# _framework density 18.290196000000002
#
# number of rings (size 3 to 8) (size 9 to 14) (size 15 to 20)
#    0.000    1.167    6.667    1.750    0.000    3.333 
#    0.000    2.083    0.000    4.000    0.000    3.500 
#    0.000    0.000    0.000    0.000    0.000    0.000 
#
# Total GULP energy -595040.251766 kJ/mol
# GULP energy per Si atom -12396.671912 kJ/mol
# Density = 1.824857 g / cm^3
# Si number density = 18.290196 Si / 1000 Ang^3
#
#
#
# Elastic Constant Matrix: (Units=GPa)
#
#
# Indices 1 2 3 4 5 6 
#
# 1 55.2001 13.7738 17.1683 0.0000 0.0000 0.0000
# 2 13.7738 67.3813 16.4427 0.0000 0.0000 0.0000
# 3 17.1683 16.4427 113.3398 0.0001 0.0000 0.0000
# 4 0.0000 0.0000 0.0001 -323.5669 0.0000 0.0000
# 5 0.0000 0.0000 0.0000 0.0000 22.8547 0.0000
# 6 0.0000 0.0000 0.0000 0.0000 0.0000 16.6077
#
#
#
# Elastic Compliance Matrix: (Units=1/GPa)
#
#
# Indices 1 2 3 4 5 6 
#
# 1 0.019747 -0.003428 -0.002494 0.000000 0.000000 0.000000
# 2 -0.003428 0.015981 -0.001799 0.000000 0.000000 0.000000
# 3 -0.002494 -0.001799 0.009462 0.000000 0.000000 0.000000
# 4 0.000000 0.000000 0.000000 -0.003091 0.000000 0.000000
# 5 0.000000 0.000000 0.000000 0.000000 0.043755 0.000000
# 6 0.000000 0.000000 0.000000 0.000000 0.000000 0.060213
#
#
# Mechanical properties :
#
#
# Convention : Reuss Voigt Hill
#
# Bulk Modulus (GPa) = 33.61642 36.74343 35.17993
# Shear Modulus (GPa) = 29.16741 -44.25180 -7.54219
#
# Velocity S-wave (km/s) = 3.99770 -4.92410 -2.03287
# Velocity P-wave (km/s) = 6.30303 3.49232 3.71025
#
# Compressibility (1/GPa) = 0.02974736
#
# Stress axis : x y z
#
# Youngs Moduli (GPa) = 50.64079 62.57554 105.68811
#
# Poissons Ratio (x) = 0.21451 0.26357
# Poissons Ratio (y) = 0.17360 0.19015
# Poissons Ratio (z) = 0.12629 0.11258
#
# Static dielectric constant tensor:
#      x y z
#    x 3.291890 0.000000 0.000000 
#    y 0.000000 3.567560 0.000000 
#    z 0.000000 0.000000 3.631290 
# 
# 
# High freq. dielectric constant tensor:
#      x y z
#    x 1.684270 0.000000 0.000000 
#    y 0.000000 1.693050 0.000000 
#    z 0.000000 0.000000 1.727380 
# 
# From -- ./inp_files/46087.got.cif
#   From: 2010.06.25/outbox.cif.g09.slc.cpg/sg71_24_cif.got.tgz:46087.got - 2010.06.28 04:59:45.
