data_PCOD8291241
_publ_section_title
;
Structure prediction by ZEFSAII (Michael W. Deem and Ramdas Pophale) SiO2 
 PCOD8291241
Probable space group: I M M M
;
_chemical_formula_sum "Si O2"
_cell_formula_units_Z 104
_cell_length_a 32.201300
_cell_length_b 18.838438
_cell_length_c 9.213856
_cell_angle_alpha 90.000000
_cell_angle_beta 90.000000
_cell_angle_gamma 90.000000
_cell_volume 5589.329538
_symmetry_space_group_name_H-M "I M M M"
_symmetry_group_IT_number 71
_symmetry_cell_setting 'orthorhombic'
loop_
_space_group_symop_operation_xyz
x,y,z
-x,-y,z
x,-y,-z
-x,y,-z
-x,-y,-z
x,y,-z
-x,y,z
x,-y,z
1/2+x,1/2+y,1/2+z
1/2-x,1/2-y,1/2+z
1/2+x,1/2-y,1/2-z
1/2-x,1/2+y,1/2-z
1/2-x,1/2-y,1/2-z
1/2+x,1/2+y,1/2-z
1/2-x,1/2+y,1/2+z
1/2+x,1/2-y,1/2+z
loop_
_atom_site_type_symbol
_atom_site_label
_atom_site_fract_x
_atom_site_fract_y
_atom_site_fract_z
Si Si1 0.080299 0.916981 0.668082
Si Si2 0.118427 0.338134 0.829927
Si Si3 0.798872 0.416673 0.832434
Si Si4 0.761946 0.820555 0.833053
Si Si5 0.859305 0.178529 0.165163
Si Si6 0.000000 0.084461 0.163452
Si Si7 0.047500 0.580748 0.670128
O O1 0.073673 0.899912 0.500000
O O2 0.120656 0.877848 0.726987
O O3 0.040435 0.886998 0.753677
O O4 0.086686 0.000000 0.695730
O O5 0.157945 0.383497 0.777046
O O6 0.126885 0.256972 0.787218
O O7 0.077048 0.364542 0.751864
O O8 0.111683 0.347960 0.000000
O O9 0.801275 0.500000 0.809292
O O10 0.761080 0.387482 0.737332
O O11 0.791174 0.395741 0.000000
O O12 0.750000 0.750000 0.750000
O O13 0.810607 0.832450 0.818248
O O14 0.748502 0.812953 0.000000
O O15 0.873333 0.163465 0.000000
O O16 0.000000 0.000000 0.164907
O O17 0.000000 0.114528 0.000000
O O18 0.054798 0.589490 0.500000
O O19 0.057614 0.500000 0.717947
O O20 0.000000 0.599267 0.710551
#
# Coordination Sequence:
#
# PCOD8291241 Si02
#       7
#    16  16  16  16  16   8  16
#     4  10  21  37  58  86 117 148 189 237 283 337
#     4  10  20  37  58  82 113 149 190 232 277 332
#     4  10  21  38  60  87 119 151 187 236 288 334
#     4  11  22  39  61  82 112 151 192 236 285 343
#     4  10  22  39  58  81 112 151 191 232 283 342
#     4   9  17  33  59  85 111 147 186 227 280 335
#     4   9  19  36  56  80 113 150 187 231 282 332
#
# _framework density 18.606884000000001
#
# number of rings (size 3 to 8) (size 9 to 14) (size 15 to 20)
#    0.000    2.077    1.538    2.077    0.000    6.462 
#    1.385    3.846    0.000    0.000    0.000    0.000 
#    0.000    0.000    0.000    0.000    0.000    0.000 
#
# Total GULP energy -644989.169203 kJ/mol
# GULP energy per Si atom -12403.637869 kJ/mol
# Density = 1.856453 g / cm^3
# Si number density = 18.606884 Si / 1000 Ang^3
#
#
#
# Elastic Constant Matrix: (Units=GPa)
#
#
# Indices 1 2 3 4 5 6 
#
# 1 117.0681 58.2772 66.3015 0.0000 0.0000 0.0000
# 2 58.2772 80.4669 58.5988 0.0000 0.0000 0.0000
# 3 66.3015 58.5988 105.6765 0.0000 0.0000 0.0000
# 4 0.0000 0.0000 0.0000 29.9847 0.0000 0.0000
# 5 0.0000 0.0000 0.0000 0.0000 38.9077 0.0000
# 6 0.0000 0.0000 0.0000 0.0000 0.0000 35.9110
#
#
#
# Elastic Compliance Matrix: (Units=1/GPa)
#
#
# Indices 1 2 3 4 5 6 
#
# 1 0.015192 -0.006812 -0.005754 0.000000 0.000000 0.000000
# 2 -0.006812 0.023900 -0.008979 0.000000 0.000000 0.000000
# 3 -0.005754 -0.008979 0.018052 0.000000 0.000000 0.000000
# 4 0.000000 0.000000 0.000000 0.033350 0.000000 0.000000
# 5 0.000000 0.000000 0.000000 0.000000 0.025702 0.000000
# 6 0.000000 0.000000 0.000000 0.000000 0.000000 0.027847
#
#
# Mechanical properties :
#
#
# Convention : Reuss Voigt Hill
#
# Bulk Modulus (GPa) = 71.15644 74.39627 72.77636
# Shear Modulus (GPa) = 26.06655 28.96293 27.51474
#
# Velocity S-wave (km/s) = 3.74693 3.94962 3.84961
# Velocity P-wave (km/s) = 7.55277 7.80188 7.67834
#
# Compressibility (1/GPa) = 0.01405354
#
# Stress axis : x y z
#
# Youngs Moduli (GPa) = 65.82389 41.84131 55.39686
#
# Poissons Ratio (x) = 0.28504 0.31875
# Poissons Ratio (y) = 0.44842 0.49738
# Poissons Ratio (z) = 0.37874 0.37568
#
# Static dielectric constant tensor:
#      x y z
#    x 3.325010 0.000000 0.000000 
#    y 0.000000 3.318100 0.000000 
#    z 0.000000 0.000000 3.541370 
# 
# 
# High freq. dielectric constant tensor:
#      x y z
#    x 1.731240 0.000000 0.000000 
#    y 0.000000 1.715980 0.000000 
#    z 0.000000 0.000000 1.724510 
# 
# From -- ./inp_files/15040.got.cif
#   From: 2010.06.25/outbox.cif.g09.slc.cpg/sg71_8_cif.got.tgz:15040.got - 2010.06.28 04:59:45.
