data_PCOD8291843
_publ_section_title
;
Structure prediction by ZEFSAII (Michael W. Deem and Ramdas Pophale) SiO2 
 PCOD8291843
Probable space group: I M M M
;
_chemical_formula_sum "Si O2"
_cell_formula_units_Z 104
_cell_length_a 26.182923
_cell_length_b 9.170931
_cell_length_c 20.988797
_cell_angle_alpha 90.000000
_cell_angle_beta 90.000000
_cell_angle_gamma 90.000000
_cell_volume 5039.867300
_symmetry_space_group_name_H-M "I M M M"
_symmetry_group_IT_number 71
_symmetry_cell_setting 'orthorhombic'
loop_
_space_group_symop_operation_xyz
x,y,z
-x,-y,z
x,-y,-z
-x,y,-z
-x,-y,-z
x,y,-z
-x,y,z
x,-y,z
1/2+x,1/2+y,1/2+z
1/2-x,1/2-y,1/2+z
1/2+x,1/2-y,1/2-z
1/2-x,1/2+y,1/2-z
1/2-x,1/2-y,1/2-z
1/2+x,1/2+y,1/2-z
1/2-x,1/2+y,1/2+z
1/2+x,1/2-y,1/2+z
loop_
_atom_site_type_symbol
_atom_site_label
_atom_site_fract_x
_atom_site_fract_y
_atom_site_fract_z
Si Si1 0.941816 0.666749 0.107271
Si Si2 0.940252 0.172495 0.500000
Si Si3 0.893692 0.331747 0.761913
Si Si4 0.223581 0.657719 0.400116
Si Si5 0.392135 0.167410 0.878739
Si Si6 0.880559 0.173331 0.000000
Si Si7 0.792544 0.159138 0.783862
Si Si8 0.725538 0.167226 0.500000
O O1 0.926856 0.500000 0.091285
O O2 0.935710 0.695237 0.183196
O O3 0.000000 0.698649 0.089166
O O4 0.907392 0.771023 0.064289
O O5 0.914620 0.235862 0.564141
O O6 0.000000 0.213105 0.500000
O O7 0.931642 0.000000 0.500000
O O8 0.876412 0.500000 0.758590
O O9 0.914918 0.287772 0.691199
O O10 0.845939 0.239122 0.784525
O O11 0.218510 0.500000 0.436194
O O12 0.168644 0.692122 0.368702
O O13 0.271598 0.639963 0.354333
O O14 0.237173 0.796976 0.441945
O O15 0.405461 0.000000 0.895169
O O16 0.822822 0.227772 0.000000
O O17 0.881524 0.000000 0.000000
O O18 0.750000 0.250000 0.750000
O O19 0.799392 0.000000 0.751639
O O20 0.708213 0.000000 0.500000
#
# Coordination Sequence:
#
# PCOD8291843 Si02
#       8
#    16   8  16  16  16   8  16   8
#     4  10  22  41  66  94 124 158 200 255 311 361
#     4  11  26  45  62  86 119 153 198 257 314 365
#     4  10  21  39  62  94 128 159 201 250 299 359
#     4  10  21  38  58  86 124 161 195 240 294 351
#     4  10  21  40  65  91 121 158 201 247 299 363
#     4  12  25  42  63  87 121 165 210 255 302 361
#     4  11  21  35  57  85 120 160 197 235 285 346
#     4  12  25  38  57  87 120 158 202 251 296 352
#
# _framework density 20.635465
#
# number of rings (size 3 to 8) (size 9 to 14) (size 15 to 20)
#    0.000    1.462    1.538    3.692    0.000    9.846 
#    0.000    1.538    0.000    0.000    0.000    0.000 
#    0.000    0.000    0.000    0.000    0.000    0.000 
#
# Total GULP energy -644450.714236 kJ/mol
# GULP energy per Si atom -12393.282966 kJ/mol
# Density = 2.058850 g / cm^3
# Si number density = 20.635465 Si / 1000 Ang^3
#
#
#
# Elastic Constant Matrix: (Units=GPa)
#
#
# Indices 1 2 3 4 5 6 
#
# 1 62.5890 32.3512 25.6465 0.0000 0.0000 0.0000
# 2 32.3512 112.7267 49.1234 0.0000 0.0000 0.0000
# 3 25.6465 49.1234 130.3376 0.0000 0.0000 0.0000
# 4 0.0000 0.0000 0.0000 21.9407 0.0000 0.0000
# 5 0.0000 0.0000 0.0000 0.0000 22.9840 0.0000
# 6 0.0000 0.0000 0.0000 0.0000 0.0000 28.4503
#
#
#
# Elastic Compliance Matrix: (Units=1/GPa)
#
#
# Indices 1 2 3 4 5 6 
#
# 1 0.019201 -0.004623 -0.002036 0.000000 0.000000 0.000000
# 2 -0.004623 0.011728 -0.003510 0.000000 0.000000 0.000000
# 3 -0.002036 -0.003510 0.009396 0.000000 0.000000 0.000000
# 4 0.000000 0.000000 0.000000 0.045577 0.000000 0.000000
# 5 0.000000 0.000000 0.000000 0.000000 0.043509 0.000000
# 6 0.000000 0.000000 0.000000 0.000000 0.000000 0.035149
#
#
# Mechanical properties :
#
#
# Convention : Reuss Voigt Hill
#
# Bulk Modulus (GPa) = 50.03523 57.76617 53.90070
# Shear Modulus (GPa) = 26.10144 27.91048 27.00596
#
# Velocity S-wave (km/s) = 3.56038 3.68169 3.62154
# Velocity P-wave (km/s) = 6.41884 6.79173 6.60792
#
# Compressibility (1/GPa) = 0.01998592
#
# Stress axis : x y z
#
# Youngs Moduli (GPa) = 52.08025 85.26912 106.42881
#
# Poissons Ratio (x) = 0.39423 0.21665
# Poissons Ratio (y) = 0.24079 0.37360
# Poissons Ratio (z) = 0.10602 0.29932
#
# Static dielectric constant tensor:
#      x y z
#    x 3.129450 0.000000 0.000000 
#    y 0.000000 3.716980 0.000000 
#    z 0.000000 0.000000 3.674550 
# 
# 
# High freq. dielectric constant tensor:
#      x y z
#    x 1.800070 0.000000 0.000000 
#    y 0.000000 1.804590 0.000000 
#    z 0.000000 0.000000 1.817540 
# 
# From -- ./inp_files/56329.got.cif
#   From: 2010.06.25/outbox.cif.g09.slc.cpg/sg71_29_cif.got.tgz:56329.got - 2010.06.28 04:59:45.
