data_PCOD8291970
_publ_section_title
;
Structure prediction by ZEFSAII (Michael W. Deem and Ramdas Pophale) SiO2 
 PCOD8291970
Probable space group: I M M M
;
_chemical_formula_sum "Si O2"
_cell_formula_units_Z 72
_cell_length_a 8.571504
_cell_length_b 14.368184
_cell_length_c 29.562448
_cell_angle_alpha 90.000000
_cell_angle_beta 90.000000
_cell_angle_gamma 90.000000
_cell_volume 3640.820831
_symmetry_space_group_name_H-M "I M M M"
_symmetry_group_IT_number 71
_symmetry_cell_setting 'orthorhombic'
loop_
_space_group_symop_operation_xyz
x,y,z
-x,-y,z
x,-y,-z
-x,y,-z
-x,-y,-z
x,y,-z
-x,y,z
x,-y,z
1/2+x,1/2+y,1/2+z
1/2-x,1/2-y,1/2+z
1/2+x,1/2-y,1/2-z
1/2-x,1/2+y,1/2-z
1/2-x,1/2-y,1/2-z
1/2+x,1/2+y,1/2-z
1/2-x,1/2+y,1/2+z
1/2+x,1/2-y,1/2+z
loop_
_atom_site_type_symbol
_atom_site_label
_atom_site_fract_x
_atom_site_fract_y
_atom_site_fract_z
Si Si1 0.185569 0.500000 0.340655
Si Si2 0.181813 0.192846 0.552734
Si Si3 0.324470 0.000000 0.553687
Si Si4 0.683551 0.691184 0.790929
Si Si5 0.815770 0.500000 0.236622
Si Si6 0.317050 0.692579 0.371288
O O1 0.242160 0.500000 0.288577
O O2 0.253848 0.588812 0.366042
O O3 0.000000 0.500000 0.343916
O O4 0.220362 0.204119 0.500000
O O5 0.234528 0.091519 0.570904
O O6 0.278901 0.272797 0.578183
O O7 0.000000 0.205019 0.562879
O O8 0.500000 0.000000 0.573414
O O9 0.327291 0.000000 0.500000
O O10 0.500000 0.687080 0.785903
O O11 0.750000 0.750000 0.750000
O O12 0.752212 0.588300 0.790071
O O13 0.728318 0.738504 0.837721
O O14 0.000000 0.500000 0.234964
O O15 0.500000 0.694849 0.361510
#
# Coordination Sequence:
#
# PCOD8291970 Si02
#       6
#     8  16   8  16   8  16
#     4  11  23  41  65  89 120 161 206 253 305 368
#     4  10  21  39  63  91 125 164 206 253 307 366
#     4   9  17  32  57  88 121 157 197 243 299 361
#     4  12  24  40  62  90 123 160 202 250 302 361
#     4  11  23  40  64  92 124 163 205 254 307 364
#     4  12  25  41  64  92 124 161 206 255 306 366
#
# _framework density 19.775759999999998
#
# number of rings (size 3 to 8) (size 9 to 14) (size 15 to 20)
#    0.000    1.000    2.222    5.667    0.000    4.444 
#    0.000    5.000    0.000    3.333    0.000    0.000 
#    0.000    0.000    0.000    0.000    0.000    0.000 
#
# Total GULP energy -446631.941336 kJ/mol
# GULP energy per Si atom -12406.442815 kJ/mol
# Density = 1.973075 g / cm^3
# Si number density = 19.775760 Si / 1000 Ang^3
#
#
#
# Elastic Constant Matrix: (Units=GPa)
#
#
# Indices 1 2 3 4 5 6 
#
# 1 100.7631 42.6261 23.5771 0.0000 0.0000 0.0000
# 2 42.6261 174.5123 52.6756 0.0000 0.0000 0.0000
# 3 23.5771 52.6756 71.2679 0.0000 0.0000 0.0000
# 4 0.0000 0.0000 0.0000 33.3298 0.0000 0.0000
# 5 0.0000 0.0000 0.0000 0.0000 30.5908 0.0000
# 6 0.0000 0.0000 0.0000 0.0000 0.0000 36.0786
#
#
#
# Elastic Compliance Matrix: (Units=1/GPa)
#
#
# Indices 1 2 3 4 5 6 
#
# 1 0.011328 -0.002105 -0.002191 0.000000 0.000000 0.000000
# 2 -0.002105 0.007767 -0.005044 0.000000 0.000000 0.000000
# 3 -0.002191 -0.005044 0.018485 0.000000 0.000000 0.000000
# 4 0.000000 0.000000 0.000000 0.030003 0.000000 0.000000
# 5 0.000000 0.000000 0.000000 0.000000 0.032690 0.000000
# 6 0.000000 0.000000 0.000000 0.000000 0.000000 0.027717
#
#
# Mechanical properties :
#
#
# Convention : Reuss Voigt Hill
#
# Bulk Modulus (GPa) = 52.91689 64.92234 58.91961
# Shear Modulus (GPa) = 32.68594 35.17747 33.93171
#
# Velocity S-wave (km/s) = 4.06991 4.22218 4.14674
# Velocity P-wave (km/s) = 6.99300 7.52792 7.26539
#
# Compressibility (1/GPa) = 0.01889756
#
# Stress axis : x y z
#
# Youngs Moduli (GPa) = 88.27939 128.74770 54.09839
#
# Poissons Ratio (x) = 0.27107 0.11854
# Poissons Ratio (y) = 0.18587 0.27289
# Poissons Ratio (z) = 0.19344 0.64944
#
# Static dielectric constant tensor:
#      x y z
#    x 3.764650 0.000000 0.000000 
#    y 0.000000 3.793640 0.000000 
#    z 0.000000 0.000000 3.644120 
# 
# 
# High freq. dielectric constant tensor:
#      x y z
#    x 1.790350 0.000000 0.000000 
#    y 0.000000 1.780710 0.000000 
#    z 0.000000 0.000000 1.760350 
# 
# From -- ./inp_files/62901.got.cif
#   From: 2010.06.25/outbox.cif.g09.slc.cpg/sg71_32_cif.got.tgz:62901.got - 2010.06.28 04:59:45.
