data_PCOD8291524
_publ_section_title
;
Structure prediction by ZEFSAII (Michael W. Deem and Ramdas Pophale) SiO2 
 PCOD8291524
Probable space group: I M M M
;
_chemical_formula_sum "Si O2"
_cell_formula_units_Z 96
_cell_length_a 24.761147
_cell_length_b 14.212769
_cell_length_c 14.851339
_cell_angle_alpha 90.000000
_cell_angle_beta 90.000000
_cell_angle_gamma 90.000000
_cell_volume 5226.549495
_symmetry_space_group_name_H-M "I M M M"
_symmetry_group_IT_number 71
_symmetry_cell_setting 'orthorhombic'
loop_
_space_group_symop_operation_xyz
x,y,z
-x,-y,z
x,-y,-z
-x,y,-z
-x,-y,-z
x,y,-z
-x,y,z
x,-y,z
1/2+x,1/2+y,1/2+z
1/2-x,1/2-y,1/2+z
1/2+x,1/2-y,1/2-z
1/2-x,1/2+y,1/2-z
1/2-x,1/2-y,1/2-z
1/2+x,1/2+y,1/2-z
1/2-x,1/2+y,1/2+z
1/2+x,1/2-y,1/2+z
loop_
_atom_site_type_symbol
_atom_site_label
_atom_site_fract_x
_atom_site_fract_y
_atom_site_fract_z
Si Si1 0.151242 0.389496 0.772903
Si Si2 0.288681 0.603449 0.368486
Si Si3 0.909416 0.102455 0.900399
Si Si4 0.939352 0.698457 0.105884
Si Si5 0.768726 0.104841 0.335399
Si Si6 0.184301 0.286188 0.597880
O O1 0.151342 0.500000 0.749010
O O2 0.100355 0.365843 0.835414
O O3 0.205934 0.362498 0.826443
O O4 0.148982 0.331860 0.678341
O O5 0.269885 0.500000 0.399027
O O6 0.346475 0.628066 0.409208
O O7 0.295367 0.607750 0.261970
O O8 0.244587 0.673936 0.405133
O O9 0.937855 0.193476 0.856107
O O10 0.918560 0.000000 0.850513
O O11 0.933541 0.091751 0.000000
O O12 0.000000 0.659604 0.119117
O O13 0.922788 0.694406 0.000000
O O14 0.805800 0.174358 0.393420
O O15 0.771601 0.000000 0.377670
O O16 0.156393 0.304286 0.500000
#
# Coordination Sequence:
#
# PCOD8291524 Si02
#       6
#    16  16  16  16  16  16
#     4  10  21  36  52  72 101 134 170 213 255 296
#     4   9  16  27  45  69  99 134 169 202 236 282
#     4   9  16  26  44  72 104 133 158 190 237 293
#     4  10  21  36  54  75  97 125 166 214 262 309
#     4   9  18  31  47  70 101 135 167 200 241 289
#     4  11  20  30  49  74 103 138 171 203 240 290
#
# _framework density 18.367757999999998
#
# number of rings (size 3 to 8) (size 9 to 14) (size 15 to 20)
#    0.000    2.333    0.000    6.000    0.000    5.333 
#    0.000    4.167    0.000    0.500    0.000    1.167 
#    0.000    0.000    0.000    9.333    0.000    0.167 
#
# Total GULP energy -594687.484873 kJ/mol
# GULP energy per Si atom -12389.322602 kJ/mol
# Density = 1.832595 g / cm^3
# Si number density = 18.367758 Si / 1000 Ang^3
#
#
#
# Elastic Constant Matrix: (Units=GPa)
#
#
# Indices 1 2 3 4 5 6 
#
# 1 52.6799 31.2694 36.0466 0.0000 0.0000 0.0000
# 2 31.2694 77.6088 29.9178 0.0000 0.0000 0.0000
# 3 36.0466 29.9178 81.6622 0.0000 0.0000 0.0000
# 4 0.0000 0.0000 0.0000 5.5921 0.0000 0.0000
# 5 0.0000 0.0000 0.0000 0.0000 21.1430 0.0000
# 6 0.0000 0.0000 0.0000 0.0000 0.0000 16.3297
#
#
#
# Elastic Compliance Matrix: (Units=1/GPa)
#
#
# Indices 1 2 3 4 5 6 
#
# 1 0.031375 -0.008503 -0.010734 0.000000 0.000000 0.000000
# 2 -0.008503 0.017309 -0.002588 0.000000 0.000000 0.000000
# 3 -0.010734 -0.002588 0.017932 0.000000 0.000000 0.000000
# 4 0.000000 0.000000 0.000000 0.178824 0.000000 0.000000
# 5 0.000000 0.000000 0.000000 0.000000 0.047297 0.000000
# 6 0.000000 0.000000 0.000000 0.000000 0.000000 0.061238
#
#
# Mechanical properties :
#
#
# Convention : Reuss Voigt Hill
#
# Bulk Modulus (GPa) = 43.54417 45.15761 44.35089
# Shear Modulus (GPa) = 12.33718 16.26079 14.29898
#
# Velocity S-wave (km/s) = 2.59448 2.97861 2.79316
# Velocity P-wave (km/s) = 5.72131 6.03888 5.88224
#
# Compressibility (1/GPa) = 0.02296519
#
# Stress axis : x y z
#
# Youngs Moduli (GPa) = 31.87296 57.77410 55.76731
#
# Poissons Ratio (x) = 0.49127 0.59859
# Poissons Ratio (y) = 0.27103 0.14431
# Poissons Ratio (z) = 0.34212 0.14951
#
# Static dielectric constant tensor:
#      x y z
#    x 3.093260 0.000000 0.000000 
#    y 0.000000 3.695180 0.000000 
#    z 0.000000 0.000000 3.966390 
# 
# 
# High freq. dielectric constant tensor:
#      x y z
#    x 1.669760 0.000000 0.000000 
#    y 0.000000 1.731710 0.000000 
#    z 0.000000 0.000000 1.683070 
# 
# From -- ./inp_files/41028.got.cif
#   From: 2010.06.25/outbox.cif.g09.slc.cpg/sg71_21_cif.got.tgz:41028.got - 2010.06.28 04:59:45.
