data_PCOD8291491
_publ_section_title
;
Structure prediction by ZEFSAII (Michael W. Deem and Ramdas Pophale) SiO2 
 PCOD8291491
Probable space group: I M M M
;
_chemical_formula_sum "Si O2"
_cell_formula_units_Z 96
_cell_length_a 21.921390
_cell_length_b 24.731927
_cell_length_c 9.033299
_cell_angle_alpha 90.000000
_cell_angle_beta 90.000000
_cell_angle_gamma 90.000000
_cell_volume 4897.477281
_symmetry_space_group_name_H-M "I M M M"
_symmetry_group_IT_number 71
_symmetry_cell_setting 'orthorhombic'
loop_
_space_group_symop_operation_xyz
x,y,z
-x,-y,z
x,-y,-z
-x,y,-z
-x,-y,-z
x,y,-z
-x,y,z
x,-y,z
1/2+x,1/2+y,1/2+z
1/2-x,1/2-y,1/2+z
1/2+x,1/2-y,1/2-z
1/2-x,1/2+y,1/2-z
1/2-x,1/2-y,1/2-z
1/2+x,1/2+y,1/2-z
1/2-x,1/2+y,1/2+z
1/2+x,1/2-y,1/2+z
loop_
_atom_site_type_symbol
_atom_site_label
_atom_site_fract_x
_atom_site_fract_y
_atom_site_fract_z
Si Si1 0.637133 0.439356 0.327800
Si Si2 0.098094 0.441450 0.325192
Si Si3 0.229015 0.405381 0.327504
Si Si4 0.402608 0.336601 0.831467
Si Si5 0.000000 0.762604 0.177296
Si Si6 0.763620 0.196439 0.665962
Si Si7 0.000000 0.355701 0.322957
O O1 0.628595 0.425337 0.500000
O O2 0.614232 0.500000 0.292107
O O3 0.708931 0.436793 0.284773
O O4 0.596012 0.397384 0.235088
O O5 0.091200 0.441008 0.500000
O O6 0.074319 0.500000 0.265313
O O7 0.169216 0.438373 0.279446
O O8 0.058536 0.390653 0.267235
O O9 0.227964 0.391914 0.500000
O O10 0.224052 0.349685 0.241085
O O11 0.441359 0.295401 0.733323
O O12 0.334623 0.315433 0.825131
O O13 0.427375 0.338408 0.000000
O O14 0.000000 0.702093 0.242869
O O15 0.000000 0.759653 0.000000
O O16 0.740359 0.202534 0.500000
O O17 0.750000 0.250000 0.750000
O O18 0.000000 0.345946 0.500000
#
# Coordination Sequence:
#
# PCOD8291491 Si02
#       7
#    16  16  16  16   8  16   8
#     4   9  17  32  56  86 119 151 184 227 280 338
#     4   9  17  31  54  83 113 148 192 237 277 324
#     4   9  17  30  51  81 114 149 189 229 276 332
#     4  10  22  40  60  83 112 148 189 236 285 334
#     4  12  26  43  62  82 110 148 191 239 289 346
#     4  10  21  35  54  80 112 147 186 232 282 336
#     4  10  21  36  56  81 111 148 193 242 285 331
#
# _framework density 19.601928000000001
#
# number of rings (size 3 to 8) (size 9 to 14) (size 15 to 20)
#    0.000    2.333    0.000    2.500    2.333    5.333 
#    0.000    0.417    0.000    6.000    0.000    0.000 
#    0.000    0.000    0.000    0.000    0.000    0.000 
#
# Total GULP energy -594984.728919 kJ/mol
# GULP energy per Si atom -12395.515186 kJ/mol
# Density = 1.955731 g / cm^3
# Si number density = 19.601928 Si / 1000 Ang^3
#
#
#
# Elastic Constant Matrix: (Units=GPa)
#
#
# Indices 1 2 3 4 5 6 
#
# 1 63.7666 45.5960 28.4428 0.0000 0.0000 0.0000
# 2 45.5960 178.9087 64.6670 0.0000 0.0000 0.0000
# 3 28.4428 64.6670 76.2482 0.0000 0.0000 0.0000
# 4 0.0000 0.0000 0.0000 32.5886 0.0000 0.0000
# 5 0.0000 0.0000 0.0000 0.0000 20.7384 0.0000
# 6 0.0000 0.0000 0.0000 0.0000 0.0000 19.6779
#
#
#
# Elastic Compliance Matrix: (Units=1/GPa)
#
#
# Indices 1 2 3 4 5 6 
#
# 1 0.020227 -0.003501 -0.004576 0.000000 0.000000 0.000000
# 2 -0.003501 0.008666 -0.006044 0.000000 0.000000 0.000000
# 3 -0.004576 -0.006044 0.019948 0.000000 0.000000 0.000000
# 4 0.000000 0.000000 0.000000 0.030686 0.000000 0.000000
# 5 0.000000 0.000000 0.000000 0.000000 0.048220 0.000000
# 6 0.000000 0.000000 0.000000 0.000000 0.000000 0.050819
#
#
# Mechanical properties :
#
#
# Convention : Reuss Voigt Hill
#
# Bulk Modulus (GPa) = 48.54574 66.25947 57.40260
# Shear Modulus (GPa) = 23.40026 26.61550 25.00788
#
# Velocity S-wave (km/s) = 3.45885 3.68883 3.57569
# Velocity P-wave (km/s) = 6.38522 7.21243 6.81140
#
# Compressibility (1/GPa) = 0.02059913
#
# Stress axis : x y z
#
# Youngs Moduli (GPa) = 49.43998 115.38932 50.13017
#
# Poissons Ratio (x) = 0.40396 0.22939
# Poissons Ratio (y) = 0.17308 0.30299
# Poissons Ratio (z) = 0.22623 0.69742
#
# Static dielectric constant tensor:
#      x y z
#    x 3.517720 0.000000 0.000000 
#    y 0.000000 3.668860 0.000000 
#    z 0.000000 0.000000 3.530430 
# 
# 
# High freq. dielectric constant tensor:
#      x y z
#    x 1.757490 0.000000 0.000000 
#    y 0.000000 1.778000 0.000000 
#    z 0.000000 0.000000 1.740950 
# 
# From -- ./inp_files/12880.got.cif
#   From: 2010.06.25/outbox.cif.g09.slc.cpg/sg71_7_cif.got.tgz:12880.got - 2010.06.28 04:59:45.
