data_PCOD8291529
_publ_section_title
;
Structure prediction by ZEFSAII (Michael W. Deem and Ramdas Pophale) SiO2 
 PCOD8291529
Probable space group: I M M M
;
_chemical_formula_sum "Si O2"
_cell_formula_units_Z 120
_cell_length_a 18.661494
_cell_length_b 18.541326
_cell_length_c 20.195965
_cell_angle_alpha 90.000000
_cell_angle_beta 90.000000
_cell_angle_gamma 90.000000
_cell_volume 6987.982501
_symmetry_space_group_name_H-M "I M M M"
_symmetry_group_IT_number 71
_symmetry_cell_setting 'orthorhombic'
loop_
_space_group_symop_operation_xyz
x,y,z
-x,-y,z
x,-y,-z
-x,y,-z
-x,-y,-z
x,y,-z
-x,y,z
x,-y,z
1/2+x,1/2+y,1/2+z
1/2-x,1/2-y,1/2+z
1/2+x,1/2-y,1/2-z
1/2-x,1/2+y,1/2-z
1/2-x,1/2-y,1/2-z
1/2+x,1/2+y,1/2-z
1/2-x,1/2+y,1/2+z
1/2+x,1/2-y,1/2+z
loop_
_atom_site_type_symbol
_atom_site_label
_atom_site_fract_x
_atom_site_fract_y
_atom_site_fract_z
Si Si1 0.083936 0.414780 0.744099
Si Si2 0.708145 0.335595 0.804943
Si Si3 0.418648 0.085147 0.500000
Si Si4 0.421917 0.584696 0.229944
Si Si5 0.702509 0.829450 0.179782
Si Si6 0.418496 0.418066 0.380431
Si Si7 0.350078 0.845106 0.626639
Si Si8 0.315030 0.305019 0.574567
O O1 0.101511 0.500000 0.752382
O O2 0.131345 0.380098 0.684209
O O3 0.103073 0.370740 0.810814
O O4 0.000000 0.403828 0.728163
O O5 0.636984 0.381289 0.818235
O O6 0.682895 0.252873 0.803871
O O7 0.741346 0.357884 0.734268
O O8 0.765211 0.357491 0.861428
O O9 0.500000 0.116189 0.500000
O O10 0.376181 0.110639 0.435984
O O11 0.421130 0.000000 0.500000
O O12 0.500000 0.609956 0.204877
O O13 0.415600 0.500000 0.226452
O O14 0.410616 0.610429 0.305366
O O15 0.740780 0.831766 0.108329
O O16 0.500000 0.411421 0.404588
O O17 0.391914 0.500000 0.385793
O O18 0.369713 0.371070 0.428610
O O19 0.355635 0.759187 0.614281
O O20 0.296783 0.279938 0.500000
#
# Coordination Sequence:
#
# PCOD8291529 Si02
#       8
#    16  16   8  16  16  16  16  16
#     4  10  21  36  55  80 108 137 174 224 278 327
#     4   9  17  32  51  73 103 131 170 218 263 309
#     4  11  22  36  52  74 110 148 184 219 250 304
#     4   9  17  29  48  75 103 130 160 202 257 309
#     4   9  19  33  50  75 101 132 172 222 266 309
#     4   9  19  33  47  69 103 137 169 208 253 303
#     4  10  21  36  52  77 107 141 178 215 261 314
#     4  11  21  36  54  74 104 143 181 220 258 308
#
# _framework density 17.172338
#
# number of rings (size 3 to 8) (size 9 to 14) (size 15 to 20)
#    0.000    2.333    2.000    2.400    0.000    6.400 
#    0.000    0.667    0.000    0.400    0.000    1.400 
#    0.000    1.600    0.000    0.000    0.000    0.000 
#
# Total GULP energy -743730.305154 kJ/mol
# GULP energy per Si atom -12395.505086 kJ/mol
# Density = 1.713325 g / cm^3
# Si number density = 17.172338 Si / 1000 Ang^3
#
#
#
# Elastic Constant Matrix: (Units=GPa)
#
#
# Indices 1 2 3 4 5 6 
#
# 1 121.9868 61.5427 41.7906 0.0000 0.0000 0.0000
# 2 61.5427 69.6393 35.0672 0.0000 0.0000 0.0000
# 3 41.7906 35.0672 61.5505 0.0000 0.0000 0.0000
# 4 0.0000 0.0000 0.0000 21.3449 0.0000 0.0000
# 5 0.0000 0.0000 0.0000 0.0000 95.2193 0.0000
# 6 0.0000 0.0000 0.0000 0.0000 0.0000 31.9264
#
#
#
# Elastic Compliance Matrix: (Units=1/GPa)
#
#
# Indices 1 2 3 4 5 6 
#
# 1 0.015398 -0.011700 -0.003789 0.000000 0.000000 0.000000
# 2 -0.011700 0.029027 -0.008594 0.000000 0.000000 0.000000
# 3 -0.003789 -0.008594 0.023715 0.000000 0.000000 0.000000
# 4 0.000000 0.000000 0.000000 0.046850 0.000000 0.000000
# 5 0.000000 0.000000 0.000000 0.000000 0.010502 0.000000
# 6 0.000000 0.000000 0.000000 0.000000 0.000000 0.031322
#
#
# Mechanical properties :
#
#
# Convention : Reuss Voigt Hill
#
# Bulk Modulus (GPa) = 50.06183 58.88642 54.47412
# Shear Modulus (GPa) = 23.62521 37.34985 30.48753
#
# Velocity S-wave (km/s) = 3.71316 4.66875 4.21810
# Velocity P-wave (km/s) = 6.89923 7.96422 7.45078
#
# Compressibility (1/GPa) = 0.01997530
#
# Stress axis : x y z
#
# Youngs Moduli (GPa) = 64.94164 34.45082 42.16666
#
# Poissons Ratio (x) = 0.40308 0.15977
# Poissons Ratio (y) = 0.75983 0.36236
# Poissons Ratio (z) = 0.24607 0.29605
#
# Static dielectric constant tensor:
#      x y z
#    x 3.305150 0.000000 0.000000 
#    y 0.000000 3.219410 0.000000 
#    z 0.000000 0.000000 3.017590 
# 
# 
# High freq. dielectric constant tensor:
#      x y z
#    x 1.660910 0.000000 0.000000 
#    y 0.000000 1.668150 0.000000 
#    z 0.000000 0.000000 1.627940 
# 
# From -- ./inp_files/46479.got.cif
#   From: 2010.06.25/outbox.cif.g09.slc.cpg/sg71_24_cif.got.tgz:46479.got - 2010.06.28 04:59:45.
