data_PCOD8291425
_publ_section_title
;
Structure prediction by ZEFSAII (Michael W. Deem and Ramdas Pophale) SiO2 
 PCOD8291425
Probable space group: I M M M
;
_chemical_formula_sum "Si O2"
_cell_formula_units_Z 96
_cell_length_a 18.793448
_cell_length_b 9.355276
_cell_length_c 31.949855
_cell_angle_alpha 90.000000
_cell_angle_beta 90.000000
_cell_angle_gamma 90.000000
_cell_volume 5617.356189
_symmetry_space_group_name_H-M "I M M M"
_symmetry_group_IT_number 71
_symmetry_cell_setting 'orthorhombic'
loop_
_space_group_symop_operation_xyz
x,y,z
-x,-y,z
x,-y,-z
-x,y,-z
-x,-y,-z
x,y,-z
-x,y,z
x,-y,z
1/2+x,1/2+y,1/2+z
1/2-x,1/2-y,1/2+z
1/2+x,1/2-y,1/2-z
1/2-x,1/2+y,1/2-z
1/2-x,1/2-y,1/2-z
1/2+x,1/2+y,1/2-z
1/2-x,1/2+y,1/2+z
1/2+x,1/2-y,1/2+z
loop_
_atom_site_type_symbol
_atom_site_label
_atom_site_fract_x
_atom_site_fract_y
_atom_site_fract_z
Si Si1 0.649283 0.662367 0.668079
Si Si2 0.418788 0.665980 0.582197
Si Si3 0.712593 0.833623 0.116264
Si Si4 0.921445 0.669984 0.333428
Si Si5 0.708102 0.835563 0.452061
Si Si6 0.918807 0.666722 0.239697
O O1 0.637896 0.500000 0.682098
O O2 0.595027 0.702637 0.630772
O O3 0.729382 0.689440 0.652540
O O4 0.635306 0.758442 0.708249
O O5 0.500000 0.700797 0.570733
O O6 0.400082 0.500000 0.573949
O O7 0.368845 0.762001 0.553094
O O8 0.637478 0.774853 0.133839
O O9 0.732013 0.743015 0.075358
O O10 0.708900 0.000000 0.103383
O O11 0.920069 0.500000 0.331810
O O12 0.904780 0.725736 0.286575
O O13 0.000000 0.723132 0.347733
O O14 0.732138 0.823166 0.500000
O O15 0.702017 0.000000 0.437842
O O16 0.902723 0.500000 0.237437
O O17 0.000000 0.699770 0.226623
#
# Coordination Sequence:
#
# PCOD8291425 Si02
#       6
#    16  16  16  16  16  16
#     4   9  17  28  42  64  95 127 158 192 227 262
#     4   9  18  32  49  69  95 129 166 200 232 266
#     4   9  18  33  52  71  91 119 155 193 234 280
#     4   8  15  30  51  72  93 118 151 193 238 280
#     4  10  21  35  50  70  96 123 151 188 235 283
#     4   9  17  28  43  65  93 126 162 195 228 268
#
# _framework density 17.089888999999999
#
# number of rings (size 3 to 8) (size 9 to 14) (size 15 to 20)
#    0.000    3.000    0.000    3.000    0.000    6.333 
#    0.000    2.500    0.000    2.000    0.000    3.500 
#    0.000    0.000    0.000    0.000    0.000    0.000 
#
# Total GULP energy -595101.494411 kJ/mol
# GULP energy per Si atom -12397.947800 kJ/mol
# Density = 1.705099 g / cm^3
# Si number density = 17.089889 Si / 1000 Ang^3
#
#
#
# Elastic Constant Matrix: (Units=GPa)
#
#
# Indices 1 2 3 4 5 6 
#
# 1 96.3313 43.0416 61.8779 0.0000 0.0000 0.0000
# 2 43.0416 65.1896 48.6226 0.0000 0.0000 0.0000
# 3 61.8779 48.6226 92.5320 0.0000 0.0000 0.0000
# 4 0.0000 0.0000 0.0000 27.1367 0.0000 0.0000
# 5 0.0000 0.0000 0.0000 0.0000 16.4871 0.0000
# 6 0.0000 0.0000 0.0000 0.0000 0.0000 13.3784
#
#
#
# Elastic Compliance Matrix: (Units=1/GPa)
#
#
# Indices 1 2 3 4 5 6 
#
# 1 0.019173 -0.005092 -0.010146 0.000000 0.000000 0.000000
# 2 -0.005092 0.026579 -0.010562 0.000000 0.000000 0.000000
# 3 -0.010146 -0.010562 0.023142 0.000000 0.000000 0.000000
# 4 0.000000 0.000000 0.000000 0.036851 0.000000 0.000000
# 5 0.000000 0.000000 0.000000 0.000000 0.060653 0.000000
# 6 0.000000 0.000000 0.000000 0.000000 0.000000 0.074747
#
#
# Mechanical properties :
#
#
# Convention : Reuss Voigt Hill
#
# Bulk Modulus (GPa) = 57.81835 62.34857 60.08346
# Shear Modulus (GPa) = 16.74996 18.10116 17.42556
#
# Velocity S-wave (km/s) = 3.13407 3.25803 3.19665
# Velocity P-wave (km/s) = 6.85579 7.12144 6.98988
#
# Compressibility (1/GPa) = 0.01729555
#
# Stress axis : x y z
#
# Youngs Moduli (GPa) = 52.15691 37.62341 43.21217
#
# Poissons Ratio (x) = 0.19156 0.43842
# Poissons Ratio (y) = 0.26556 0.45639
# Poissons Ratio (z) = 0.52918 0.39737
#
# Static dielectric constant tensor:
#      x y z
#    x 3.335070 0.000000 0.000000 
#    y 0.000000 3.011270 0.000000 
#    z 0.000000 0.000000 3.052900 
# 
# 
# High freq. dielectric constant tensor:
#      x y z
#    x 1.652440 0.000000 0.000000 
#    y 0.000000 1.640670 0.000000 
#    z 0.000000 0.000000 1.647960 
# 
# From -- ./inp_files/14830.got.cif
#   From: 2010.06.25/outbox.cif.g09.slc.cpg/sg71_8_cif.got.tgz:14830.got - 2010.06.28 04:59:45.
