data_PCOD8291341
_publ_section_title
;
Structure prediction by ZEFSAII (Michael W. Deem and Ramdas Pophale) SiO2 
 PCOD8291341
Probable space group: I M M M
;
_chemical_formula_sum "Si O2"
_cell_formula_units_Z 88
_cell_length_a 9.036669
_cell_length_b 19.880833
_cell_length_c 24.682110
_cell_angle_alpha 90.000000
_cell_angle_beta 90.000000
_cell_angle_gamma 90.000000
_cell_volume 4434.301675
_symmetry_space_group_name_H-M "I M M M"
_symmetry_group_IT_number 71
_symmetry_cell_setting 'orthorhombic'
loop_
_space_group_symop_operation_xyz
x,y,z
-x,-y,z
x,-y,-z
-x,y,-z
-x,-y,-z
x,y,-z
-x,y,z
x,-y,z
1/2+x,1/2+y,1/2+z
1/2-x,1/2-y,1/2+z
1/2+x,1/2-y,1/2-z
1/2-x,1/2+y,1/2-z
1/2-x,1/2-y,1/2-z
1/2+x,1/2+y,1/2-z
1/2-x,1/2+y,1/2+z
1/2+x,1/2-y,1/2+z
loop_
_atom_site_type_symbol
_atom_site_label
_atom_site_fract_x
_atom_site_fract_y
_atom_site_fract_z
Si Si1 0.824325 0.857348 0.393333
Si Si2 0.331276 0.923700 0.205017
Si Si3 0.327569 0.807452 0.714105
Si Si4 0.174853 0.368121 0.500000
Si Si5 0.675233 0.717959 0.000000
Si Si6 0.663180 0.579012 0.398130
Si Si7 0.675310 0.500000 0.062242
O O1 0.746438 0.818313 0.344167
O O2 0.767927 0.819138 0.446653
O O3 0.773783 0.934834 0.402890
O O4 0.000000 0.852333 0.384528
O O5 0.500000 0.920898 0.184902
O O6 0.305793 0.879324 0.257683
O O7 0.232925 0.891800 0.156966
O O8 0.284608 0.000000 0.219602
O O9 0.500000 0.788669 0.707572
O O10 0.250000 0.750000 0.750000
O O11 0.238876 0.293021 0.500000
O O12 0.231180 0.405997 0.447602
O O13 0.000000 0.369918 0.500000
O O14 0.500000 0.717995 0.000000
O O15 0.500000 0.610395 0.406965
O O16 0.652106 0.500000 0.391536
O O17 0.500000 0.500000 0.056431
O O18 0.739211 0.500000 0.000000
#
# Coordination Sequence:
#
# PCOD8291341 Si02
#       7
#    16  16  16   8   8  16   8
#     4  10  20  38  63  91 122 157 201 249 298 355
#     4   9  20  40  62  82 110 152 196 236 286 351
#     4  11  25  42  62  88 121 160 202 250 302 361
#     4  11  22  34  54  82 113 154 197 234 281 347
#     4   9  20  37  58  84 117 156 195 236 285 347
#     4  10  21  37  57  83 113 143 184 243 298 339
#     4   9  16  32  63  97 125 159 203 250 301 362
#
# _framework density 19.845289999999999
#
# number of rings (size 3 to 8) (size 9 to 14) (size 15 to 20)
#    0.000    2.091    0.909    1.636    3.818    3.636 
#    0.000    1.364    0.000    0.545    0.000    0.000 
#    0.000    0.000    0.000    0.000    0.000    0.000 
#
# Total GULP energy -545506.796491 kJ/mol
# GULP energy per Si atom -12397.881738 kJ/mol
# Density = 1.980012 g / cm^3
# Si number density = 19.845290 Si / 1000 Ang^3
#
#
#
# Elastic Constant Matrix: (Units=GPa)
#
#
# Indices 1 2 3 4 5 6 
#
# 1 87.4609 34.9891 55.2540 0.0000 0.0000 0.0000
# 2 34.9891 64.5743 49.4597 0.0000 0.0000 0.0000
# 3 55.2540 49.4597 152.9119 0.0000 0.0000 0.0000
# 4 0.0000 0.0000 0.0000 38.4449 0.0000 0.0000
# 5 0.0000 0.0000 0.0000 0.0000 28.2213 0.0000
# 6 0.0000 0.0000 0.0000 0.0000 0.0000 21.0070
#
#
#
# Elastic Compliance Matrix: (Units=1/GPa)
#
#
# Indices 1 2 3 4 5 6 
#
# 1 0.016270 -0.005733 -0.004025 0.000000 0.000000 0.000000
# 2 -0.005733 0.022606 -0.005240 0.000000 0.000000 0.000000
# 3 -0.004025 -0.005240 0.009689 0.000000 0.000000 0.000000
# 4 0.000000 0.000000 0.000000 0.026011 0.000000 0.000000
# 5 0.000000 0.000000 0.000000 0.000000 0.035434 0.000000
# 6 0.000000 0.000000 0.000000 0.000000 0.000000 0.047603
#
#
# Mechanical properties :
#
#
# Convention : Reuss Voigt Hill
#
# Bulk Modulus (GPa) = 53.85366 64.92807 59.39086
# Shear Modulus (GPa) = 25.79983 28.55093 27.17538
#
# Velocity S-wave (km/s) = 3.60953 3.79710 3.70450
# Velocity P-wave (km/s) = 6.67587 7.21194 6.94908
#
# Compressibility (1/GPa) = 0.01856884
#
# Stress axis : x y z
#
# Youngs Moduli (GPa) = 61.46357 44.23549 103.20950
#
# Poissons Ratio (x) = 0.25360 0.41538
# Poissons Ratio (y) = 0.35237 0.54086
# Poissons Ratio (z) = 0.24737 0.23181
#
# Static dielectric constant tensor:
#      x y z
#    x 3.597110 0.000000 0.000000 
#    y 0.000000 3.824610 0.000000 
#    z 0.000000 0.000000 3.504700 
# 
# 
# High freq. dielectric constant tensor:
#      x y z
#    x 1.756260 0.000000 0.000000 
#    y 0.000000 1.779080 0.000000 
#    z 0.000000 0.000000 1.781560 
# 
# From -- ./inp_files/12614.got.cif
#   From: 2010.06.25/outbox.cif.g09.slc.cpg/sg71_7_cif.got.tgz:12614.got - 2010.06.28 04:59:45.
