data_PCOD8291752
_publ_section_title
;
Structure prediction by ZEFSAII (Michael W. Deem and Ramdas Pophale) SiO2 
 PCOD8291752
Probable space group: I M M M
;
_chemical_formula_sum "Si O2"
_cell_formula_units_Z 88
_cell_length_a 19.812891
_cell_length_b 27.088295
_cell_length_c 7.721501
_cell_angle_alpha 90.000000
_cell_angle_beta 90.000000
_cell_angle_gamma 90.000000
_cell_volume 4144.109790
_symmetry_space_group_name_H-M "I M M M"
_symmetry_group_IT_number 71
_symmetry_cell_setting 'orthorhombic'
loop_
_space_group_symop_operation_xyz
x,y,z
-x,-y,z
x,-y,-z
-x,y,-z
-x,-y,-z
x,y,-z
-x,y,z
x,-y,z
1/2+x,1/2+y,1/2+z
1/2-x,1/2-y,1/2+z
1/2+x,1/2-y,1/2-z
1/2-x,1/2+y,1/2-z
1/2-x,1/2-y,1/2-z
1/2+x,1/2+y,1/2-z
1/2-x,1/2+y,1/2+z
1/2+x,1/2-y,1/2+z
loop_
_atom_site_type_symbol
_atom_site_label
_atom_site_fract_x
_atom_site_fract_y
_atom_site_fract_z
Si Si1 0.575413 0.265640 0.696268
Si Si2 0.803280 0.709000 0.690370
Si Si3 0.924079 0.126004 0.703392
Si Si4 0.670921 0.101930 0.698329
Si Si5 0.309683 0.445562 0.205627
Si Si6 0.080543 0.441193 0.500000
O O1 0.584081 0.246942 0.500000
O O2 0.500000 0.256504 0.765567
O O3 0.624178 0.234916 0.818462
O O4 0.592696 0.323298 0.701049
O O5 0.782504 0.691301 0.500000
O O6 0.750000 0.750000 0.750000
O O7 0.810218 0.660112 0.806094
O O8 0.914328 0.134557 0.500000
O O9 0.871168 0.086818 0.779635
O O10 0.000000 0.107722 0.745289
O O11 0.651513 0.087127 0.500000
O O12 0.737402 0.074255 0.766132
O O13 0.610801 0.085599 0.828049
O O14 0.318856 0.500000 0.282865
O O15 0.313241 0.445770 0.000000
O O16 0.096825 0.500000 0.500000
O O17 0.000000 0.432514 0.500000
#
# Coordination Sequence:
#
# PCOD8291752 Si02
#       6
#    16  16  16  16  16   8
#     4  10  21  37  57  82 116 160 205 249 305 372
#     4  12  24  40  63  94 131 170 215 266 322 393
#     4   9  17  31  53  82 118 160 205 253 303 358
#     4  11  23  43  68  97 132 172 218 276 340 404
#     4   9  18  33  56  85 117 157 204 255 311 371
#     4  11  26  48  72 100 133 173 227 287 355 428
#
# _framework density 21.234957999999999
#
# number of rings (size 3 to 8) (size 9 to 14) (size 15 to 20)
#    0.000    1.727    0.909    3.818    0.000    5.091 
#    1.636    2.727    0.000    0.000    0.000    2.545 
#    0.000    0.000    0.000    0.000    0.000    0.000 
#
# Total GULP energy -545501.873674 kJ/mol
# GULP energy per Si atom -12397.769856 kJ/mol
# Density = 2.118663 g / cm^3
# Si number density = 21.234958 Si / 1000 Ang^3
#
#
#
# Elastic Constant Matrix: (Units=GPa)
#
#
# Indices 1 2 3 4 5 6 
#
# 1 80.5383 40.5941 23.0729 0.0000 0.0000 0.0000
# 2 40.5941 87.2634 16.5891 0.0000 0.0000 0.0000
# 3 23.0729 16.5891 78.9972 0.0000 0.0000 0.0000
# 4 0.0000 0.0000 0.0000 24.3780 0.0000 0.0000
# 5 0.0000 0.0000 0.0000 0.0000 23.3804 0.0000
# 6 0.0000 0.0000 0.0000 0.0000 0.0000 42.8290
#
#
#
# Elastic Compliance Matrix: (Units=1/GPa)
#
#
# Indices 1 2 3 4 5 6 
#
# 1 0.017081 -0.007288 -0.003458 0.000000 0.000000 0.000000
# 2 -0.007288 0.015046 -0.001031 0.000000 0.000000 0.000000
# 3 -0.003458 -0.001031 0.013885 0.000000 0.000000 0.000000
# 4 0.000000 0.000000 0.000000 0.041021 0.000000 0.000000
# 5 0.000000 0.000000 0.000000 0.000000 0.042771 0.000000
# 6 0.000000 0.000000 0.000000 0.000000 0.000000 0.023349
#
#
# Mechanical properties :
#
#
# Convention : Reuss Voigt Hill
#
# Bulk Modulus (GPa) = 44.52967 45.25679 44.89323
# Shear Modulus (GPa) = 27.14544 29.22033 28.18289
#
# Velocity S-wave (km/s) = 3.57926 3.71354 3.64702
# Velocity P-wave (km/s) = 6.17228 6.30443 6.23870
#
# Compressibility (1/GPa) = 0.02245694
#
# Stress axis : x y z
#
# Youngs Moduli (GPa) = 58.54523 66.46276 72.01896
#
# Poissons Ratio (x) = 0.48441 0.24906
# Poissons Ratio (y) = 0.42670 0.07424
# Poissons Ratio (z) = 0.20247 0.06851
#
# Static dielectric constant tensor:
#      x y z
#    x 3.985740 0.000000 0.000000 
#    y 0.000000 3.925450 0.000000 
#    z 0.000000 0.000000 3.649080 
# 
# 
# High freq. dielectric constant tensor:
#      x y z
#    x 1.837780 0.000000 0.000000 
#    y 0.000000 1.832120 0.000000 
#    z 0.000000 0.000000 1.825570 
# 
# From -- ./inp_files/10499.got.cif
#   From: 2010.06.25/outbox.cif.g09.slc.cpg/sg71_6_cif.got.tgz:10499.got - 2010.06.28 04:59:45.
