data_PCOD8291367
_publ_section_title
;
Structure prediction by ZEFSAII (Michael W. Deem and Ramdas Pophale) SiO2 
 PCOD8291367
Probable space group: I M M M
;
_chemical_formula_sum "Si O2"
_cell_formula_units_Z 72
_cell_length_a 13.470844
_cell_length_b 25.757396
_cell_length_c 11.620798
_cell_angle_alpha 90.000000
_cell_angle_beta 90.000000
_cell_angle_gamma 90.000000
_cell_volume 4032.113177
_symmetry_space_group_name_H-M "I M M M"
_symmetry_group_IT_number 71
_symmetry_cell_setting 'orthorhombic'
loop_
_space_group_symop_operation_xyz
x,y,z
-x,-y,z
x,-y,-z
-x,y,-z
-x,-y,-z
x,y,-z
-x,y,z
x,-y,z
1/2+x,1/2+y,1/2+z
1/2-x,1/2-y,1/2+z
1/2+x,1/2-y,1/2-z
1/2-x,1/2+y,1/2-z
1/2-x,1/2-y,1/2-z
1/2+x,1/2+y,1/2-z
1/2-x,1/2+y,1/2+z
1/2+x,1/2-y,1/2+z
loop_
_atom_site_type_symbol
_atom_site_label
_atom_site_fract_x
_atom_site_fract_y
_atom_site_fract_z
Si Si1 0.385008 0.292805 0.695008
Si Si2 0.117005 0.400948 0.262693
Si Si3 0.697802 0.061895 0.000000
Si Si4 0.278656 0.190339 0.630954
Si Si5 0.381724 0.000000 0.628016
Si Si6 0.111880 0.876084 0.000000
O O1 0.500000 0.282432 0.720500
O O2 0.339040 0.243776 0.629502
O O3 0.331297 0.301610 0.817381
O O4 0.369218 0.342395 0.613932
O O5 0.144811 0.410320 0.393991
O O6 0.164291 0.349166 0.213121
O O7 0.159910 0.449326 0.190943
O O8 0.000000 0.395783 0.249392
O O9 0.814921 0.074612 0.000000
O O10 0.680688 0.000000 0.000000
O O11 0.270068 0.169764 0.500000
O O12 0.500000 0.000000 0.629529
O O13 0.338721 0.000000 0.500000
O O14 0.000000 0.898035 0.000000
#
# Coordination Sequence:
#
# PCOD8291367 Si02
#       6
#    16  16   8  16   8   8
#     4  10  21  38  59  83 114 149 187 236 292 345
#     4  11  22  35  54  82 114 151 191 233 286 343
#     4  12  23  39  60  85 115 150 198 250 299 344
#     4  11  22  36  58  86 116 151 194 236 283 347
#     4   9  18  33  51  73 105 145 186 226 271 331
#     4  10  20  40  65  84 110 148 191 241 296 345
#
# _framework density 17.856639999999999
#
# number of rings (size 3 to 8) (size 9 to 14) (size 15 to 20)
#    0.000    1.444    4.444    1.667    0.000    3.333 
#    0.000    0.000    0.000    0.000    0.000    0.000 
#    0.000    7.111    0.000    0.000    0.000    0.000 
#
# Total GULP energy -446477.125348 kJ/mol
# GULP energy per Si atom -12402.142371 kJ/mol
# Density = 1.781600 g / cm^3
# Si number density = 17.856640 Si / 1000 Ang^3
#
#
#
# Elastic Constant Matrix: (Units=GPa)
#
#
# Indices 1 2 3 4 5 6 
#
# 1 90.0898 9.7154 30.1285 0.0001 0.0000 0.0000
# 2 9.7154 33.5023 22.4686 0.0002 0.0000 0.0000
# 3 30.1285 22.4686 134.5251 0.0000 0.0000 0.0000
# 4 0.0001 0.0002 0.0000 17.2543 0.0000 0.0000
# 5 0.0000 0.0000 0.0000 0.0000 17.7694 0.0000
# 6 0.0000 0.0000 0.0000 0.0000 0.0000 23.0456
#
#
#
# Elastic Compliance Matrix: (Units=1/GPa)
#
#
# Indices 1 2 3 4 5 6 
#
# 1 0.012106 -0.001906 -0.002393 0.000000 0.000000 0.000000
# 2 -0.001906 0.033914 -0.005238 0.000000 0.000000 0.000000
# 3 -0.002393 -0.005238 0.008844 0.000000 0.000000 0.000000
# 4 0.000000 0.000000 0.000000 0.057957 0.000000 0.000000
# 5 0.000000 0.000000 0.000000 0.000000 0.056277 0.000000
# 6 0.000000 0.000000 0.000000 0.000000 0.000000 0.043392
#
#
# Mechanical properties :
#
#
# Convention : Reuss Voigt Hill
#
# Bulk Modulus (GPa) = 27.93951 42.52688 35.23320
# Shear Modulus (GPa) = 20.53452 24.66751 22.60102
#
# Velocity S-wave (km/s) = 3.39479 3.72078 3.56152
# Velocity P-wave (km/s) = 5.57196 6.50587 6.05694
#
# Compressibility (1/GPa) = 0.03579160
#
# Stress axis : x y z
#
# Youngs Moduli (GPa) = 82.60494 29.48638 113.06755
#
# Poissons Ratio (x) = 0.05619 0.27056
# Poissons Ratio (y) = 0.15742 0.59220
# Poissons Ratio (z) = 0.19767 0.15444
#
# Static dielectric constant tensor:
#      x y z
#    x 3.237240 0.000000 0.000000 
#    y 0.000000 3.316030 0.000000 
#    z 0.000000 0.000000 3.412040 
# 
# 
# High freq. dielectric constant tensor:
#      x y z
#    x 1.681010 0.000000 0.000000 
#    y 0.000000 1.691720 0.000000 
#    z 0.000000 0.000000 1.701550 
# 
# From -- ./inp_files/6159.got.cif
#   From: 2010.06.25/outbox.cif.g09.slc.cpg/sg71_4_cif.got.tgz:6159.got - 2010.06.28 04:59:45.
