data_PCOD8291800
_publ_section_title
;
Structure prediction by ZEFSAII (Michael W. Deem and Ramdas Pophale) SiO2 
 PCOD8291800
Probable space group: I M M M
;
_chemical_formula_sum "Si O2"
_cell_formula_units_Z 72
_cell_length_a 8.923610
_cell_length_b 13.833911
_cell_length_c 28.981305
_cell_angle_alpha 90.000000
_cell_angle_beta 90.000000
_cell_angle_gamma 90.000000
_cell_volume 3577.696501
_symmetry_space_group_name_H-M "I M M M"
_symmetry_group_IT_number 71
_symmetry_cell_setting 'orthorhombic'
loop_
_space_group_symop_operation_xyz
x,y,z
-x,-y,z
x,-y,-z
-x,y,-z
-x,-y,-z
x,y,-z
-x,y,z
x,-y,z
1/2+x,1/2+y,1/2+z
1/2-x,1/2-y,1/2+z
1/2+x,1/2-y,1/2-z
1/2-x,1/2+y,1/2-z
1/2-x,1/2-y,1/2-z
1/2+x,1/2+y,1/2-z
1/2-x,1/2+y,1/2+z
1/2+x,1/2-y,1/2+z
loop_
_atom_site_type_symbol
_atom_site_label
_atom_site_fract_x
_atom_site_fract_y
_atom_site_fract_z
Si Si1 0.325971 0.203580 0.319356
Si Si2 0.669804 0.114094 0.500000
Si Si3 0.827715 0.890510 0.764735
Si Si4 0.675834 0.710448 0.086530
Si Si5 0.329594 0.609552 0.553479
O O1 0.500000 0.187865 0.329738
O O2 0.277461 0.131953 0.278617
O O3 0.291061 0.315344 0.305842
O O4 0.233663 0.172648 0.364384
O O5 0.500000 0.153740 0.500000
O O6 0.750114 0.149965 0.454116
O O7 0.674317 0.000000 0.500000
O O8 0.000000 0.877417 0.749162
O O9 0.796743 0.000000 0.782099
O O10 0.500000 0.696890 0.083359
O O11 0.719616 0.823088 0.082482
O O12 0.318577 0.638500 0.500000
O O13 0.500000 0.623303 0.570913
O O14 0.276956 0.500000 0.561123
#
# Coordination Sequence:
#
# PCOD8291800 Si02
#       5
#    16   8  16  16  16
#     4  10  21  37  59  87 118 155 196 237 287 351
#     4  11  25  45  66  85 110 151 203 252 296 347
#     4   9  19  38  62  87 116 150 190 240 295 347
#     4  12  24  38  59  88 122 157 194 244 297 346
#     4   9  18  34  57  82 111 151 194 235 283 340
#
# _framework density 20.124680000000001
#
# number of rings (size 3 to 8) (size 9 to 14) (size 15 to 20)
#    0.000    1.889    1.111    3.667    0.000    4.444 
#    0.000    3.333    0.000    0.000    0.000    0.000 
#    0.000    0.000    0.000    0.000    0.000    0.000 
#
# Total GULP energy -446503.802075 kJ/mol
# GULP energy per Si atom -12402.883391 kJ/mol
# Density = 2.007888 g / cm^3
# Si number density = 20.124680 Si / 1000 Ang^3
#
#
#
# Elastic Constant Matrix: (Units=GPa)
#
#
# Indices 1 2 3 4 5 6 
#
# 1 133.1335 28.1989 58.3552 0.0000 0.0000 0.0000
# 2 28.1989 68.3251 19.9763 0.0000 0.0000 0.0000
# 3 58.3552 19.9763 106.6124 0.0000 0.0000 0.0000
# 4 0.0000 0.0000 0.0000 11.6123 0.0000 0.0000
# 5 0.0000 0.0000 0.0000 0.0000 35.7142 0.0000
# 6 0.0000 0.0000 0.0000 0.0000 0.0000 23.7364
#
#
#
# Elastic Compliance Matrix: (Units=1/GPa)
#
#
# Indices 1 2 3 4 5 6 
#
# 1 0.010354 -0.002768 -0.005149 0.000000 0.000000 0.000000
# 2 -0.002768 0.016224 -0.001525 0.000000 0.000000 0.000000
# 3 -0.005149 -0.001525 0.012484 0.000000 0.000000 0.000000
# 4 0.000000 0.000000 0.000000 0.086116 0.000000 0.000000
# 5 0.000000 0.000000 0.000000 0.000000 0.028000 0.000000
# 6 0.000000 0.000000 0.000000 0.000000 0.000000 0.042129
#
#
# Mechanical properties :
#
#
# Convention : Reuss Voigt Hill
#
# Bulk Modulus (GPa) = 49.55716 57.90355 53.73035
# Shear Modulus (GPa) = 22.63288 27.64861 25.14075
#
# Velocity S-wave (km/s) = 3.35719 3.71059 3.53831
# Velocity P-wave (km/s) = 6.30128 6.86971 6.59162
#
# Compressibility (1/GPa) = 0.02017872
#
# Stress axis : x y z
#
# Youngs Moduli (GPa) = 96.57690 61.63647 80.10378
#
# Poissons Ratio (x) = 0.17061 0.41245
# Poissons Ratio (y) = 0.26733 0.12215
# Poissons Ratio (z) = 0.49727 0.09399
#
# Static dielectric constant tensor:
#      x y z
#    x 3.615440 0.000000 0.000000 
#    y 0.000000 3.706340 0.000000 
#    z 0.000000 0.000000 3.528340 
# 
# 
# High freq. dielectric constant tensor:
#      x y z
#    x 1.782860 0.000000 0.000000 
#    y 0.000000 1.788100 0.000000 
#    z 0.000000 0.000000 1.780290 
# 
# From -- ./inp_files/6070.got.cif
#   From: 2010.06.25/outbox.cif.g09.slc.cpg/sg71_4_cif.got.tgz:6070.got - 2010.06.28 04:59:45.
