data_PCOD8291783
_publ_section_title
;
Structure prediction by ZEFSAII (Michael W. Deem and Ramdas Pophale) SiO2 
 PCOD8291783
Probable space group: I M M M
;
_chemical_formula_sum "Si O2"
_cell_formula_units_Z 72
_cell_length_a 26.806850
_cell_length_b 14.528628
_cell_length_c 8.765907
_cell_angle_alpha 90.000000
_cell_angle_beta 90.000000
_cell_angle_gamma 90.000000
_cell_volume 3414.029323
_symmetry_space_group_name_H-M "I M M M"
_symmetry_group_IT_number 71
_symmetry_cell_setting 'orthorhombic'
loop_
_space_group_symop_operation_xyz
x,y,z
-x,-y,z
x,-y,-z
-x,y,-z
-x,-y,-z
x,y,-z
-x,y,z
x,-y,z
1/2+x,1/2+y,1/2+z
1/2-x,1/2-y,1/2+z
1/2+x,1/2-y,1/2-z
1/2-x,1/2+y,1/2-z
1/2-x,1/2-y,1/2-z
1/2+x,1/2+y,1/2-z
1/2-x,1/2+y,1/2+z
1/2+x,1/2-y,1/2+z
loop_
_atom_site_type_symbol
_atom_site_label
_atom_site_fract_x
_atom_site_fract_y
_atom_site_fract_z
Si Si1 0.500000 0.105477 0.319544
Si Si2 0.163925 0.399267 0.171403
Si Si3 0.372341 0.395705 0.321996
Si Si4 0.911616 0.278690 0.322640
Si Si5 0.770317 0.841188 0.674060
O O1 0.500000 0.105700 0.500000
O O2 0.451701 0.159269 0.262599
O O3 0.500000 0.000000 0.258214
O O4 0.140951 0.500000 0.207200
O O5 0.142507 0.323979 0.289264
O O6 0.223513 0.410065 0.182791
O O7 0.148834 0.368056 0.000000
O O8 0.373925 0.373362 0.500000
O O9 0.390016 0.500000 0.287937
O O10 0.410400 0.326347 0.237214
O O11 0.315899 0.384258 0.265731
O O12 0.923959 0.277984 0.500000
O O13 0.787639 0.823754 0.500000
O O14 0.750000 0.750000 0.750000
#
# Coordination Sequence:
#
# PCOD8291783 Si02
#       5
#     8  16  16  16  16
#     4  11  25  47  74  99 128 165 201 246 310 379
#     4  10  21  37  58  85 122 167 210 253 307 372
#     4  11  24  42  64  90 125 171 219 264 313 372
#     4  12  25  41  65  95 127 161 203 260 316 373
#     4  11  21  35  58  88 125 169 215 261 312 367
#
# _framework density 21.089448999999998
#
# number of rings (size 3 to 8) (size 9 to 14) (size 15 to 20)
#    0.000    1.000    2.222    5.000    0.000    7.556 
#    0.000    0.556    0.000    3.333    0.000    0.000 
#    0.000    0.000    0.000    0.000    0.000    0.000 
#
# Total GULP energy -446431.733649 kJ/mol
# GULP energy per Si atom -12400.881490 kJ/mol
# Density = 2.104145 g / cm^3
# Si number density = 21.089449 Si / 1000 Ang^3
#
#
#
# Elastic Constant Matrix: (Units=GPa)
#
#
# Indices 1 2 3 4 5 6 
#
# 1 77.3210 42.5094 29.2394 0.0000 0.0000 0.0000
# 2 42.5094 152.3299 60.6540 0.0000 0.0000 0.0000
# 3 29.2394 60.6540 109.4821 0.0000 0.0000 0.0000
# 4 0.0000 0.0000 0.0000 23.4134 0.0000 0.0000
# 5 0.0000 0.0000 0.0000 0.0000 32.9090 0.0000
# 6 0.0000 0.0000 0.0000 0.0000 0.0000 30.0243
#
#
#
# Elastic Compliance Matrix: (Units=1/GPa)
#
#
# Indices 1 2 3 4 5 6 
#
# 1 0.015703 -0.003480 -0.002266 0.000000 0.000000 0.000000
# 2 -0.003480 0.009194 -0.004164 0.000000 0.000000 0.000000
# 3 -0.002266 -0.004164 0.012046 0.000000 0.000000 0.000000
# 4 0.000000 0.000000 0.000000 0.042711 0.000000 0.000000
# 5 0.000000 0.000000 0.000000 0.000000 0.030387 0.000000
# 6 0.000000 0.000000 0.000000 0.000000 0.000000 0.033306
#
#
# Mechanical properties :
#
#
# Convention : Reuss Voigt Hill
#
# Bulk Modulus (GPa) = 58.40050 67.10428 62.75239
# Shear Modulus (GPa) = 29.60782 31.05137 30.32959
#
# Velocity S-wave (km/s) = 3.75095 3.84130 3.79640
# Velocity P-wave (km/s) = 6.81993 7.18068 7.00263
#
# Compressibility (1/GPa) = 0.01712314
#
# Stress axis : x y z
#
# Youngs Moduli (GPa) = 63.68149 108.76856 83.01501
#
# Poissons Ratio (x) = 0.37850 0.18811
# Poissons Ratio (y) = 0.22160 0.34568
# Poissons Ratio (z) = 0.14430 0.45292
#
# Static dielectric constant tensor:
#      x y z
#    x 3.865700 0.000000 0.000000 
#    y 0.000000 3.938030 0.000000 
#    z 0.000000 0.000000 3.849260 
# 
# 
# High freq. dielectric constant tensor:
#      x y z
#    x 1.810350 0.000000 0.000000 
#    y 0.000000 1.842040 0.000000 
#    z 0.000000 0.000000 1.829400 
# 
# From -- ./inp_files/6011.got.cif
#   From: 2010.06.25/outbox.cif.g09.slc.cpg/sg71_4_cif.got.tgz:6011.got - 2010.06.28 04:59:45.
