data_PCOD8291558
_publ_section_title
;
Structure prediction by ZEFSAII (Michael W. Deem and Ramdas Pophale) SiO2 
 PCOD8291558
Probable space group: I M M M
;
_chemical_formula_sum "Si O2"
_cell_formula_units_Z 96
_cell_length_a 18.790267
_cell_length_b 9.277299
_cell_length_c 30.244691
_cell_angle_alpha 90.000000
_cell_angle_beta 90.000000
_cell_angle_gamma 90.000000
_cell_volume 5272.343008
_symmetry_space_group_name_H-M "I M M M"
_symmetry_group_IT_number 71
_symmetry_cell_setting 'orthorhombic'
loop_
_space_group_symop_operation_xyz
x,y,z
-x,-y,z
x,-y,-z
-x,y,-z
-x,-y,-z
x,y,-z
-x,y,z
x,-y,z
1/2+x,1/2+y,1/2+z
1/2-x,1/2-y,1/2+z
1/2+x,1/2-y,1/2-z
1/2-x,1/2+y,1/2-z
1/2-x,1/2-y,1/2-z
1/2+x,1/2+y,1/2-z
1/2-x,1/2+y,1/2+z
1/2+x,1/2-y,1/2+z
loop_
_atom_site_type_symbol
_atom_site_label
_atom_site_fract_x
_atom_site_fract_y
_atom_site_fract_z
Si Si1 0.082456 0.166628 0.879799
Si Si2 0.329631 0.332357 0.705036
Si Si3 0.331357 0.167424 0.448704
Si Si4 0.079513 0.671207 0.376376
Si Si5 0.188806 0.332401 0.449286
Si Si6 0.165674 0.331448 0.707949
O O1 0.126199 0.220182 0.837242
O O2 0.104381 0.261622 0.921780
O O3 0.000000 0.191969 0.869856
O O4 0.099179 0.000000 0.890289
O O5 0.341774 0.500000 0.714210
O O6 0.247262 0.295868 0.696121
O O7 0.358673 0.248058 0.747602
O O8 0.348470 0.192597 0.500000
O O9 0.257838 0.243162 0.435176
O O10 0.325196 0.000000 0.436928
O O11 0.076542 0.500000 0.375227
O O12 0.123285 0.721905 0.419435
O O13 0.117733 0.728225 0.332108
O O14 0.000000 0.736307 0.379154
O O15 0.167487 0.303828 0.500000
O O16 0.206062 0.500000 0.440610
O O17 0.154089 0.500000 0.715493
#
# Coordination Sequence:
#
# PCOD8291558 Si02
#       6
#    16  16  16  16  16  16
#     4  10  21  36  54  76 102 133 167 204 249 299
#     4   9  18  33  51  71  97 128 165 209 250 289
#     4  10  21  36  54  76 102 132 166 206 250 295
#     4   9  17  29  47  74 106 135 165 206 253 298
#     4   9  17  31  53  77 100 131 171 211 249 292
#     4   9  17  30  49  71  96 130 169 206 246 293
#
# _framework density 18.208224000000001
#
# number of rings (size 3 to 8) (size 9 to 14) (size 15 to 20)
#    0.000    2.667    0.000    1.500    0.000    6.000 
#    0.000    7.500    0.000    1.500    0.000    2.333 
#    0.000    0.000    0.000    0.000    0.000    0.000 
#
# Total GULP energy -595325.634041 kJ/mol
# GULP energy per Si atom -12402.617376 kJ/mol
# Density = 1.816678 g / cm^3
# Si number density = 18.208224 Si / 1000 Ang^3
#
#
#
# Elastic Constant Matrix: (Units=GPa)
#
#
# Indices 1 2 3 4 5 6 
#
# 1 104.1817 39.2543 69.4993 0.0000 0.0000 0.0000
# 2 39.2543 52.7979 46.6255 0.0000 0.0000 0.0000
# 3 69.4993 46.6255 118.3239 0.0000 0.0000 0.0000
# 4 0.0000 0.0000 0.0000 30.0425 0.0000 0.0000
# 5 0.0000 0.0000 0.0000 0.0000 21.3190 0.0000
# 6 0.0000 0.0000 0.0000 0.0000 0.0000 13.0280
#
#
#
# Elastic Compliance Matrix: (Units=1/GPa)
#
#
# Indices 1 2 3 4 5 6 
#
# 1 0.016872 -0.005817 -0.007618 0.000000 0.000000 0.000000
# 2 -0.005817 0.031054 -0.008820 0.000000 0.000000 0.000000
# 3 -0.007618 -0.008820 0.016402 0.000000 0.000000 0.000000
# 4 0.000000 0.000000 0.000000 0.033286 0.000000 0.000000
# 5 0.000000 0.000000 0.000000 0.000000 0.046907 0.000000
# 6 0.000000 0.000000 0.000000 0.000000 0.000000 0.076758
#
#
# Mechanical properties :
#
#
# Convention : Reuss Voigt Hill
#
# Bulk Modulus (GPa) = 50.46016 65.11797 57.78907
# Shear Modulus (GPa) = 18.35576 20.87287 19.61431
#
# Velocity S-wave (km/s) = 3.17851 3.38944 3.28567
# Velocity P-wave (km/s) = 6.42211 7.15251 6.79713
#
# Compressibility (1/GPa) = 0.01981761
#
# Stress axis : x y z
#
# Youngs Moduli (GPa) = 59.26875 32.20208 60.96970
#
# Poissons Ratio (x) = 0.18731 0.46447
# Poissons Ratio (y) = 0.34475 0.53777
# Poissons Ratio (z) = 0.45152 0.28403
#
# Static dielectric constant tensor:
#      x y z
#    x 3.408380 0.000000 0.000000 
#    y 0.000000 3.160530 0.000000 
#    z 0.000000 0.000000 3.480180 
# 
# 
# High freq. dielectric constant tensor:
#      x y z
#    x 1.702390 0.000000 0.000000 
#    y 0.000000 1.680500 0.000000 
#    z 0.000000 0.000000 1.715580 
# 
# From -- ./inp_files/10914.got.cif
#   From: 2010.06.25/outbox.cif.g09.slc.cpg/sg71_6_cif.got.tgz:10914.got - 2010.06.28 04:59:45.
