data_PCOD8291871
_publ_section_title
;
Structure prediction by ZEFSAII (Michael W. Deem and Ramdas Pophale) SiO2 
 PCOD8291871
Probable space group: I M M M
;
_chemical_formula_sum "Si O2"
_cell_formula_units_Z 96
_cell_length_a 23.400465
_cell_length_b 12.854076
_cell_length_c 17.084475
_cell_angle_alpha 90.000000
_cell_angle_beta 90.000000
_cell_angle_gamma 90.000000
_cell_volume 5138.862394
_symmetry_space_group_name_H-M "I M M M"
_symmetry_group_IT_number 71
_symmetry_cell_setting 'orthorhombic'
loop_
_space_group_symop_operation_xyz
x,y,z
-x,-y,z
x,-y,-z
-x,y,-z
-x,-y,-z
x,y,-z
-x,y,z
x,-y,z
1/2+x,1/2+y,1/2+z
1/2-x,1/2-y,1/2+z
1/2+x,1/2-y,1/2-z
1/2-x,1/2+y,1/2-z
1/2-x,1/2-y,1/2-z
1/2+x,1/2+y,1/2-z
1/2-x,1/2+y,1/2+z
1/2+x,1/2-y,1/2+z
loop_
_atom_site_type_symbol
_atom_site_label
_atom_site_fract_x
_atom_site_fract_y
_atom_site_fract_z
Si Si1 0.857482 0.261906 0.627777
Si Si2 0.159010 0.379915 0.788813
Si Si3 0.567737 0.123572 0.000000
Si Si4 0.431878 0.383005 0.500000
Si Si5 0.437271 0.385870 0.206372
Si Si6 0.063516 0.252920 0.142189
Si Si7 0.256269 0.618656 0.086775
O O1 0.837145 0.317864 0.707423
O O2 0.896413 0.338424 0.575495
O O3 0.895987 0.161964 0.642956
O O4 0.803273 0.210476 0.585709
O O5 0.156101 0.500000 0.766886
O O6 0.102755 0.351666 0.838937
O O7 0.212388 0.353247 0.844187
O O8 0.500000 0.159552 0.000000
O O9 0.569083 0.000000 0.000000
O O10 0.405785 0.500000 0.500000
O O11 0.500000 0.391342 0.500000
O O12 0.409636 0.318370 0.574261
O O13 0.500000 0.390532 0.168318
O O14 0.414904 0.500000 0.228913
O O15 0.439100 0.319405 0.283614
O O16 0.000000 0.293572 0.119867
O O17 0.279729 0.500000 0.100658
O O18 0.227636 0.622811 0.000000
#
# Coordination Sequence:
#
# PCOD8291871 Si02
#       7
#    16  16   8   8  16  16  16
#     4  11  20  38  59  83 111 147 192 236 283 341
#     4  10  22  37  57  83 112 151 195 237 283 340
#     4  11  24  40  60  87 120 156 193 237 288 341
#     4   9  16  28  48  73 102 138 178 219 270 328
#     4   9  17  30  50  78 110 141 175 222 279 339
#     4   9  18  31  50  77 110 147 187 230 279 338
#     4  10  21  38  60  85 112 145 187 236 294 349
#
# _framework density 18.681177999999999
#
# number of rings (size 3 to 8) (size 9 to 14) (size 15 to 20)
#    0.000    2.167    0.833    2.500    1.167    3.000 
#    0.000    0.000    0.000    7.500    0.000    0.000 
#    0.000    0.000    0.000    0.000    0.000    0.000 
#
# Total GULP energy -594777.935755 kJ/mol
# GULP energy per Si atom -12391.206995 kJ/mol
# Density = 1.863866 g / cm^3
# Si number density = 18.681178 Si / 1000 Ang^3
#
#
#
# Elastic Constant Matrix: (Units=GPa)
#
#
# Indices 1 2 3 4 5 6 
#
# 1 85.5788 51.4901 47.7428 0.0000 0.0000 0.0000
# 2 51.4901 72.3956 15.6157 0.0000 0.0000 0.0000
# 3 47.7428 15.6157 84.7933 0.0000 0.0000 0.0000
# 4 0.0000 0.0000 0.0000 46.6267 0.0000 0.0000
# 5 0.0000 0.0000 0.0000 0.0000 31.1768 0.0000
# 6 0.0000 0.0000 0.0000 0.0000 0.0000 30.3261
#
#
#
# Elastic Compliance Matrix: (Units=1/GPa)
#
#
# Indices 1 2 3 4 5 6 
#
# 1 0.030795 -0.018913 -0.013856 0.000000 0.000000 0.000000
# 2 -0.018913 0.026001 0.005861 0.000000 0.000000 0.000000
# 3 -0.013856 0.005861 0.018516 0.000000 0.000000 0.000000
# 4 0.000000 0.000000 0.000000 0.021447 0.000000 0.000000
# 5 0.000000 0.000000 0.000000 0.000000 0.032075 0.000000
# 6 0.000000 0.000000 0.000000 0.000000 0.000000 0.032975
#
#
# Mechanical properties :
#
#
# Convention : Reuss Voigt Hill
#
# Bulk Modulus (GPa) = 46.52435 52.49611 49.51023
# Shear Modulus (GPa) = 22.44276 30.15386 26.29831
#
# Velocity S-wave (km/s) = 3.46982 4.02198 3.75606
# Velocity P-wave (km/s) = 6.40401 7.05199 6.73579
#
# Compressibility (1/GPa) = 0.02149412
#
# Stress axis : x y z
#
# Youngs Moduli (GPa) = 32.47325 38.46060 54.00879
#
# Poissons Ratio (x) = 0.72742 0.74833
# Poissons Ratio (y) = 0.61418 -0.31654
# Poissons Ratio (z) = 0.44994 -0.22541
#
# Static dielectric constant tensor:
#      x y z
#    x 3.865370 0.000000 0.000000 
#    y 0.000000 3.460910 0.000000 
#    z 0.000000 0.000000 3.647310 
# 
# 
# High freq. dielectric constant tensor:
#      x y z
#    x 1.710780 0.000000 0.000000 
#    y 0.000000 1.728590 0.000000 
#    z 0.000000 0.000000 1.731050 
# 
# From -- ./inp_files/48075.got.cif
#   From: 2010.06.25/outbox.cif.g09.slc.cpg/sg71_25_cif.got.tgz:48075.got - 2010.06.28 04:59:45.
