data_PCOD8291888
_publ_section_title
;
Structure prediction by ZEFSAII (Michael W. Deem and Ramdas Pophale) SiO2 
 PCOD8291888
Probable space group: I M M M
;
_chemical_formula_sum "Si O2"
_cell_formula_units_Z 88
_cell_length_a 21.499958
_cell_length_b 18.538667
_cell_length_c 11.462935
_cell_angle_alpha 90.000000
_cell_angle_beta 90.000000
_cell_angle_gamma 90.000000
_cell_volume 4568.903073
_symmetry_space_group_name_H-M "I M M M"
_symmetry_group_IT_number 71
_symmetry_cell_setting 'orthorhombic'
loop_
_space_group_symop_operation_xyz
x,y,z
-x,-y,z
x,-y,-z
-x,y,-z
-x,-y,-z
x,y,-z
-x,y,z
x,-y,z
1/2+x,1/2+y,1/2+z
1/2-x,1/2-y,1/2+z
1/2+x,1/2-y,1/2-z
1/2-x,1/2+y,1/2-z
1/2-x,1/2-y,1/2-z
1/2+x,1/2+y,1/2-z
1/2-x,1/2+y,1/2+z
1/2+x,1/2-y,1/2+z
loop_
_atom_site_type_symbol
_atom_site_label
_atom_site_fract_x
_atom_site_fract_y
_atom_site_fract_z
Si Si1 0.875711 0.850782 0.785234
Si Si2 0.500000 0.415335 0.633560
Si Si3 0.166140 0.584703 0.500000
Si Si4 0.776655 0.083291 0.634197
Si Si5 0.428313 0.206991 0.636359
Si Si6 0.303740 0.413912 0.500000
Si Si7 0.145180 0.415725 0.755249
O O1 0.836738 0.868429 0.668280
O O2 0.886406 0.765026 0.794548
O O3 0.835492 0.882692 0.887752
O O4 0.941953 0.889740 0.790422
O O5 0.500000 0.500000 0.622415
O O6 0.500000 0.382558 0.500000
O O7 0.175830 0.500000 0.500000
O O8 0.234653 0.617901 0.500000
O O9 0.131606 0.606766 0.380064
O O10 0.760314 0.098911 0.500000
O O11 0.716203 0.103532 0.710939
O O12 0.794378 0.000000 0.654970
O O13 0.421314 0.221878 0.500000
O O14 0.500000 0.213564 0.675008
O O15 0.403315 0.127613 0.665888
O O16 0.308767 0.500000 0.500000
O O17 0.132406 0.500000 0.777695
#
# Coordination Sequence:
#
# PCOD8291888 Si02
#       7
#    16   8   8  16  16   8  16
#     4  12  21  36  56  87 122 156 193 242 293 342
#     4  11  20  30  53  85 114 152 200 240 283 341
#     4   9  18  36  62  96 122 141 182 246 299 343
#     4  10  21  38  60  89 123 157 196 241 287 348
#     4  11  24  42  60  84 121 156 195 249 296 341
#     4  11  18  31  60  92 121 151 187 236 292 348
#     4  10  21  40  66  91 116 150 193 242 298 355
#
# _framework density 19.260641
#
# number of rings (size 3 to 8) (size 9 to 14) (size 15 to 20)
#    0.000    1.364    4.545    2.182    0.000    2.182 
#    1.636    1.818    0.000    3.273    0.000    0.000 
#    0.000    0.000    0.000    0.000    0.000    0.000 
#
# Total GULP energy -545555.156421 kJ/mol
# GULP energy per Si atom -12398.980828 kJ/mol
# Density = 1.921680 g / cm^3
# Si number density = 19.260641 Si / 1000 Ang^3
#
#
#
# Elastic Constant Matrix: (Units=GPa)
#
#
# Indices 1 2 3 4 5 6 
#
# 1 63.5888 41.7007 26.1588 0.0000 0.0000 0.0000
# 2 41.7007 92.4720 31.3630 0.0000 0.0000 0.0000
# 3 26.1588 31.3630 77.1599 0.0000 0.0000 0.0000
# 4 0.0000 0.0000 0.0000 26.7411 0.0000 0.0000
# 5 0.0000 0.0000 0.0000 0.0000 31.6762 0.0000
# 6 0.0000 0.0000 0.0000 0.0000 0.0000 46.0299
#
#
#
# Elastic Compliance Matrix: (Units=1/GPa)
#
#
# Indices 1 2 3 4 5 6 
#
# 1 0.023467 -0.009145 -0.004239 0.000000 0.000000 0.000000
# 2 -0.009145 0.016107 -0.003447 0.000000 0.000000 0.000000
# 3 -0.004239 -0.003447 0.015798 0.000000 0.000000 0.000000
# 4 0.000000 0.000000 0.000000 0.037396 0.000000 0.000000
# 5 0.000000 0.000000 0.000000 0.000000 0.031569 0.000000
# 6 0.000000 0.000000 0.000000 0.000000 0.000000 0.021725
#
#
# Mechanical properties :
#
#
# Convention : Reuss Voigt Hill
#
# Bulk Modulus (GPa) = 46.05861 47.96287 47.01074
# Shear Modulus (GPa) = 26.74377 29.82266 28.28321
#
# Velocity S-wave (km/s) = 3.73033 3.93921 3.83619
# Velocity P-wave (km/s) = 6.52066 6.75617 6.63946
#
# Compressibility (1/GPa) = 0.02171147
#
# Stress axis : x y z
#
# Youngs Moduli (GPa) = 42.61336 62.08483 63.29892
#
# Poissons Ratio (x) = 0.56776 0.26830
# Poissons Ratio (y) = 0.38969 0.21817
# Poissons Ratio (z) = 0.18062 0.21399
#
# Static dielectric constant tensor:
#      x y z
#    x 3.364850 0.000000 0.000000 
#    y 0.000000 3.433850 0.000000 
#    z 0.000000 0.000000 3.446930 
# 
# 
# High freq. dielectric constant tensor:
#      x y z
#    x 1.744830 0.000000 0.000000 
#    y 0.000000 1.740760 0.000000 
#    z 0.000000 0.000000 1.741960 
# 
# From -- ./inp_files/23981.got.cif
#   From: 2010.06.25/outbox.cif.g09.slc.cpg/sg71_12_cif.got.tgz:23981.got - 2010.06.28 04:59:45.
