data_PCOD8291678
_publ_section_title
;
Structure prediction by ZEFSAII (Michael W. Deem and Ramdas Pophale) SiO2 
 PCOD8291678
Probable space group: I M M M
;
_chemical_formula_sum "Si O2"
_cell_formula_units_Z 104
_cell_length_a 8.785503
_cell_length_b 27.619263
_cell_length_c 21.790850
_cell_angle_alpha 90.000000
_cell_angle_beta 90.000000
_cell_angle_gamma 90.000000
_cell_volume 5287.530532
_symmetry_space_group_name_H-M "I M M M"
_symmetry_group_IT_number 71
_symmetry_cell_setting 'orthorhombic'
loop_
_space_group_symop_operation_xyz
x,y,z
-x,-y,z
x,-y,-z
-x,y,-z
-x,-y,-z
x,y,-z
-x,y,z
x,-y,z
1/2+x,1/2+y,1/2+z
1/2-x,1/2-y,1/2+z
1/2+x,1/2-y,1/2-z
1/2-x,1/2+y,1/2-z
1/2-x,1/2-y,1/2-z
1/2+x,1/2+y,1/2-z
1/2-x,1/2+y,1/2+z
1/2+x,1/2-y,1/2+z
loop_
_atom_site_type_symbol
_atom_site_label
_atom_site_fract_x
_atom_site_fract_y
_atom_site_fract_z
Si Si1 0.823062 0.771829 0.878638
Si Si2 0.678127 0.635356 0.700136
Si Si3 0.820102 0.903584 0.000000
Si Si4 0.834405 0.500000 0.927424
Si Si5 0.323803 0.055792 0.878611
Si Si6 0.678065 0.171306 0.676658
Si Si7 0.677999 0.797997 0.000000
Si Si8 0.681695 0.896612 0.568146
O O1 0.777445 0.821365 0.845497
O O2 0.783566 0.727821 0.832785
O O3 0.725640 0.767201 0.940486
O O4 0.000000 0.770245 0.896711
O O5 0.500000 0.624825 0.698783
O O6 0.765306 0.587356 0.678584
O O7 0.726220 0.649833 0.768021
O O8 0.766300 0.932002 0.940206
O O9 0.762067 0.849095 0.000000
O O10 0.000000 0.901668 0.000000
O O11 0.750449 0.449326 0.909946
O O12 0.000000 0.500000 0.895058
O O13 0.856361 0.500000 0.000000
O O14 0.500000 0.067102 0.890463
O O15 0.296633 0.000000 0.861235
O O16 0.500000 0.163043 0.689678
O O17 0.734224 0.144242 0.615284
O O18 0.500000 0.807483 0.000000
O O19 0.742172 0.882905 0.500000
O O20 0.500000 0.900909 0.566326
#
# Coordination Sequence:
#
# PCOD8291678 Si02
#       8
#    16  16   8   8  16  16   8  16
#     4  10  22  39  60  85 116 157 200 249 305 363
#     4  11  23  40  60  82 117 162 204 247 301 364
#     4  12  23  39  64  95 130 164 201 245 307 374
#     4   7  10  20  40  68 103 135 167 212 269 328
#     4  11  24  42  65  93 124 160 208 260 303 353
#     4  10  21  36  58  86 116 153 200 248 299 358
#     4  12  24  37  61  92 122 160 203 256 308 359
#     4   8  14  26  47  76 107 141 182 232 285 339
#
# _framework density 19.668917
#
# number of rings (size 3 to 8) (size 9 to 14) (size 15 to 20)
#    0.000    1.923    1.538    3.923    1.077    3.385 
#    1.385    0.000    0.000    0.000    0.000    0.000 
#    0.000    1.846    0.000    0.000    0.000    0.000 
#
# Total GULP energy -644753.708815 kJ/mol
# GULP energy per Si atom -12399.109785 kJ/mol
# Density = 1.962415 g / cm^3
# Si number density = 19.668917 Si / 1000 Ang^3
#
#
#
# Elastic Constant Matrix: (Units=GPa)
#
#
# Indices 1 2 3 4 5 6 
#
# 1 77.8524 47.4712 45.2757 0.0000 0.0000 0.0000
# 2 47.4712 113.4850 44.9009 0.0000 0.0000 0.0000
# 3 45.2757 44.9009 113.8689 0.0002 0.0000 0.0000
# 4 0.0000 0.0000 0.0002 16.2092 0.0000 0.0000
# 5 0.0000 0.0000 0.0000 0.0000 30.8796 0.0000
# 6 0.0000 0.0000 0.0000 0.0000 0.0000 21.0317
#
#
#
# Elastic Compliance Matrix: (Units=1/GPa)
#
#
# Indices 1 2 3 4 5 6 
#
# 1 0.019727 -0.006100 -0.005438 0.000000 0.000000 0.000000
# 2 -0.006100 0.012327 -0.002435 0.000000 0.000000 0.000000
# 3 -0.005438 -0.002435 0.011905 0.000000 0.000000 0.000000
# 4 0.000000 0.000000 0.000000 0.061693 0.000000 0.000000
# 5 0.000000 0.000000 0.000000 0.000000 0.032384 0.000000
# 6 0.000000 0.000000 0.000000 0.000000 0.000000 0.047547
#
#
# Mechanical properties :
#
#
# Convention : Reuss Voigt Hill
#
# Bulk Modulus (GPa) = 62.45634 64.50021 63.47827
# Shear Modulus (GPa) = 22.84480 24.79467 23.81974
#
# Velocity S-wave (km/s) = 3.41173 3.55435 3.48377
# Velocity P-wave (km/s) = 6.88060 7.05044 6.96603
#
# Compressibility (1/GPa) = 0.01601118
#
# Stress axis : x y z
#
# Youngs Moduli (GPa) = 50.69139 81.12258 84.00077
#
# Poissons Ratio (x) = 0.49487 0.45682
# Poissons Ratio (y) = 0.30923 0.20456
# Poissons Ratio (z) = 0.27568 0.19755
#
# Static dielectric constant tensor:
#      x y z
#    x 3.364000 0.000000 0.000000 
#    y 0.000000 3.918510 0.000000 
#    z 0.000000 0.000000 3.575650 
# 
# 
# High freq. dielectric constant tensor:
#      x y z
#    x 1.739120 0.000000 0.000000 
#    y 0.000000 1.780940 0.000000 
#    z 0.000000 0.000000 1.761610 
# 
# From -- ./inp_files/50990.got.cif
#   From: 2010.06.25/outbox.cif.g09.slc.cpg/sg71_26_cif.got.tgz:50990.got - 2010.06.28 04:59:45.
