data_PCOD8291575
_publ_section_title
;
Structure prediction by ZEFSAII (Michael W. Deem and Ramdas Pophale) SiO2 
 PCOD8291575
Probable space group: I M M M
;
_chemical_formula_sum "Si O2"
_cell_formula_units_Z 72
_cell_length_a 28.927292
_cell_length_b 15.085941
_cell_length_c 8.911125
_cell_angle_alpha 90.000000
_cell_angle_beta 90.000000
_cell_angle_gamma 90.000000
_cell_volume 3888.774141
_symmetry_space_group_name_H-M "I M M M"
_symmetry_group_IT_number 71
_symmetry_cell_setting 'orthorhombic'
loop_
_space_group_symop_operation_xyz
x,y,z
-x,-y,z
x,-y,-z
-x,y,-z
-x,-y,-z
x,y,-z
-x,y,z
x,-y,z
1/2+x,1/2+y,1/2+z
1/2-x,1/2-y,1/2+z
1/2+x,1/2-y,1/2-z
1/2-x,1/2+y,1/2-z
1/2-x,1/2-y,1/2-z
1/2+x,1/2+y,1/2-z
1/2-x,1/2+y,1/2+z
1/2+x,1/2-y,1/2+z
loop_
_atom_site_type_symbol
_atom_site_label
_atom_site_fract_x
_atom_site_fract_y
_atom_site_fract_z
Si Si1 0.295797 0.398537 0.326850
Si Si2 0.355769 0.743807 0.174222
Si Si3 0.300686 0.102398 0.324585
Si Si4 0.054793 0.500000 0.165166
Si Si5 0.448648 0.824942 0.172782
O O1 0.284897 0.377031 0.500000
O O2 0.311056 0.500000 0.305526
O O3 0.337826 0.338706 0.269714
O O4 0.251082 0.376023 0.228699
O O5 0.334985 0.836307 0.231330
O O6 0.411490 0.746652 0.198205
O O7 0.343119 0.731185 0.000000
O O8 0.304087 0.124796 0.500000
O O9 0.313382 0.000000 0.291461
O O10 0.071682 0.411498 0.246012
O O11 0.000000 0.500000 0.159383
O O12 0.077138 0.500000 0.000000
O O13 0.500000 0.796739 0.232209
O O14 0.452094 0.850874 0.000000
#
# Coordination Sequence:
#
# PCOD8291575 Si02
#       5
#    16  16  16   8  16
#     4  10  21  38  58  78 103 136 174 218 265 315
#     4  11  22  34  54  80 106 139 177 219 262 310
#     4  10  21  36  54  78 110 144 175 212 256 308
#     4   9  17  29  47  71  99 133 171 211 255 301
#     4   9  19  35  52  72 102 140 178 214 256 307
#
# _framework density 18.514831999999998
#
# number of rings (size 3 to 8) (size 9 to 14) (size 15 to 20)
#    0.000    2.111    0.000    3.000    1.556    5.778 
#    0.000    0.000    0.000    0.667    0.000    4.667 
#    0.000    0.000    0.000    0.000    0.000    0.000 
#
# Total GULP energy -446389.957416 kJ/mol
# GULP energy per Si atom -12399.721039 kJ/mol
# Density = 1.847269 g / cm^3
# Si number density = 18.514832 Si / 1000 Ang^3
#
#
#
# Elastic Constant Matrix: (Units=GPa)
#
#
# Indices 1 2 3 4 5 6 
#
# 1 77.6023 40.8398 19.7917 0.0000 0.0000 0.0000
# 2 40.8398 70.9610 24.4111 0.0000 0.0000 0.0000
# 3 19.7917 24.4111 64.0113 0.0000 0.0000 0.0000
# 4 0.0000 0.0000 0.0000 32.1097 0.0000 0.0000
# 5 0.0000 0.0000 0.0000 0.0000 22.6749 0.0000
# 6 0.0000 0.0000 0.0000 0.0000 0.0000 24.7038
#
#
#
# Elastic Compliance Matrix: (Units=1/GPa)
#
#
# Indices 1 2 3 4 5 6 
#
# 1 0.018690 -0.010093 -0.001930 0.000000 0.000000 0.000000
# 2 -0.010093 0.021670 -0.005144 0.000000 0.000000 0.000000
# 3 -0.001930 -0.005144 0.018180 0.000000 0.000000 0.000000
# 4 0.000000 0.000000 0.000000 0.031143 0.000000 0.000000
# 5 0.000000 0.000000 0.000000 0.000000 0.044102 0.000000
# 6 0.000000 0.000000 0.000000 0.000000 0.000000 0.040480
#
#
# Mechanical properties :
#
#
# Convention : Reuss Voigt Hill
#
# Bulk Modulus (GPa) = 41.30772 42.51776 41.91274
# Shear Modulus (GPa) = 23.07698 24.39984 23.73841
#
# Velocity S-wave (km/s) = 3.53428 3.63416 3.58457
# Velocity P-wave (km/s) = 6.24611 6.37366 6.31021
#
# Compressibility (1/GPa) = 0.02420855
#
# Stress axis : x y z
#
# Youngs Moduli (GPa) = 53.50510 46.14641 55.00414
#
# Poissons Ratio (x) = 0.46573 0.10615
# Poissons Ratio (y) = 0.54000 0.28292
# Poissons Ratio (z) = 0.10326 0.23736
#
# Static dielectric constant tensor:
#      x y z
#    x 3.475660 0.000000 0.000000 
#    y 0.000000 3.255200 0.000000 
#    z 0.000000 0.000000 3.562600 
# 
# 
# High freq. dielectric constant tensor:
#      x y z
#    x 1.716040 0.000000 0.000000 
#    y 0.000000 1.696890 0.000000 
#    z 0.000000 0.000000 1.731070 
# 
# From -- ./inp_files/6096.got.cif
#   From: 2010.06.25/outbox.cif.g09.slc.cpg/sg71_4_cif.got.tgz:6096.got - 2010.06.28 04:59:45.
