data_PCOD8291720
_publ_section_title
;
Structure prediction by ZEFSAII (Michael W. Deem and Ramdas Pophale) SiO2 
 PCOD8291720
Probable space group: I M M M
;
_chemical_formula_sum "Si O2"
_cell_formula_units_Z 120
_cell_length_a 27.239309
_cell_length_b 8.905020
_cell_length_c 26.924456
_cell_angle_alpha 90.000000
_cell_angle_beta 90.000000
_cell_angle_gamma 90.000000
_cell_volume 6530.973518
_symmetry_space_group_name_H-M "I M M M"
_symmetry_group_IT_number 71
_symmetry_cell_setting 'orthorhombic'
loop_
_space_group_symop_operation_xyz
x,y,z
-x,-y,z
x,-y,-z
-x,y,-z
-x,-y,-z
x,y,-z
-x,y,z
x,-y,z
1/2+x,1/2+y,1/2+z
1/2-x,1/2-y,1/2+z
1/2+x,1/2-y,1/2-z
1/2-x,1/2+y,1/2-z
1/2-x,1/2-y,1/2-z
1/2+x,1/2+y,1/2-z
1/2-x,1/2+y,1/2+z
1/2+x,1/2-y,1/2+z
loop_
_atom_site_type_symbol
_atom_site_label
_atom_site_fract_x
_atom_site_fract_y
_atom_site_fract_z
Si Si1 0.442656 0.673593 0.204162
Si Si2 0.942987 0.323454 0.000000
Si Si3 0.112854 0.177209 0.909395
Si Si4 0.730895 0.674019 0.799295
Si Si5 0.359140 0.823415 0.851691
Si Si6 0.713734 0.828501 0.601256
Si Si7 0.554272 0.321901 0.314984
Si Si8 0.183771 0.174364 0.443382
O O1 0.500000 0.697471 0.193808
O O2 0.428048 0.500000 0.196979
O O3 0.413293 0.774882 0.165160
O O4 0.429205 0.729530 0.259984
O O5 0.918674 0.255076 0.048530
O O6 0.934283 0.500000 0.000000
O O7 0.000000 0.280435 0.000000
O O8 0.169618 0.220408 0.913967
O O9 0.092647 0.235472 0.856160
O O10 0.107237 0.000000 0.915314
O O11 0.720786 0.500000 0.789223
O O12 0.750000 0.750000 0.750000
O O13 0.679845 0.747219 0.815191
O O14 0.771738 0.697802 0.841569
O O15 0.351525 0.771713 0.908489
O O16 0.352938 0.000000 0.848330
O O17 0.759428 0.784795 0.566280
O O18 0.697535 0.000000 0.592120
O O19 0.500000 0.257033 0.327292
O O20 0.551223 0.500000 0.315189
O O21 0.170210 0.211226 0.500000
O O22 0.175533 0.000000 0.430228
#
# Coordination Sequence:
#
# PCOD8291720 Si02
#       8
#    16   8  16  16  16  16  16  16
#     4   9  18  35  59  84 112 150 191 229 272 326
#     4  11  25  43  59  75 101 143 189 235 290 343
#     4  11  22  35  56  84 108 137 179 231 285 336
#     4  10  21  37  56  79 112 151 190 230 274 327
#     4  11  22  35  54  84 118 151 186 226 280 338
#     4   9  20  36  53  79 112 145 179 221 274 328
#     4   8  16  32  53  77 104 136 177 225 275 323
#     4   9  19  38  62  82 105 145 190 232 278 330
#
# _framework density 18.373984
#
# number of rings (size 3 to 8) (size 9 to 14) (size 15 to 20)
#    0.000    2.333    0.000    4.200    2.800    4.267 
#    0.000    0.667    0.000    2.000    0.000    2.800 
#    0.000    0.000    0.000    0.000    0.000    0.000 
#
# Total GULP energy -744095.063915 kJ/mol
# GULP energy per Si atom -12401.584399 kJ/mol
# Density = 1.833216 g / cm^3
# Si number density = 18.373984 Si / 1000 Ang^3
#
#
#
# Elastic Constant Matrix: (Units=GPa)
#
#
# Indices 1 2 3 4 5 6 
#
# 1 94.9924 50.9382 59.5817 0.0000 0.0000 0.0000
# 2 50.9382 96.6580 55.9140 0.0000 0.0000 0.0000
# 3 59.5817 55.9140 117.4300 0.0000 0.0000 0.0000
# 4 0.0000 0.0000 0.0000 23.8544 0.0000 0.0000
# 5 0.0000 0.0000 0.0000 0.0000 23.7799 0.0000
# 6 0.0000 0.0000 0.0000 0.0000 0.0000 25.3893
#
#
#
# Elastic Compliance Matrix: (Units=1/GPa)
#
#
# Indices 1 2 3 4 5 6 
#
# 1 0.017395 -0.005605 -0.006157 0.000000 0.000000 0.000000
# 2 -0.005605 0.016085 -0.004815 0.000000 0.000000 0.000000
# 3 -0.006157 -0.004815 0.013932 0.000000 0.000000 0.000000
# 4 0.000000 0.000000 0.000000 0.041921 0.000000 0.000000
# 5 0.000000 0.000000 0.000000 0.000000 0.042052 0.000000
# 6 0.000000 0.000000 0.000000 0.000000 0.000000 0.039387
#
#
# Mechanical properties :
#
#
# Convention : Reuss Voigt Hill
#
# Bulk Modulus (GPa) = 70.13635 71.32757 70.73196
# Shear Modulus (GPa) = 23.96038 24.11449 24.03743
#
# Velocity S-wave (km/s) = 3.61506 3.62667 3.62087
# Velocity P-wave (km/s) = 7.46186 7.51273 7.48734
#
# Compressibility (1/GPa) = 0.01425794
#
# Stress axis : x y z
#
# Youngs Moduli (GPa) = 57.48917 62.16989 71.77699
#
# Poissons Ratio (x) = 0.34848 0.44191
# Poissons Ratio (y) = 0.32225 0.34559
# Poissons Ratio (z) = 0.35394 0.29933
#
# Static dielectric constant tensor:
#      x y z
#    x 3.318070 0.000000 0.000000 
#    y 0.000000 3.248460 0.000000 
#    z 0.000000 0.000000 3.503590 
# 
# 
# High freq. dielectric constant tensor:
#      x y z
#    x 1.706720 0.000000 0.000000 
#    y 0.000000 1.701800 0.000000 
#    z 0.000000 0.000000 1.715650 
# 
# From -- ./inp_files/67172.got.cif
#   From: 2010.06.25/outbox.cif.g09.slc.cpg/sg71_34_cif.got.tgz:67172.got - 2010.06.28 04:59:45.
