data_PCOD8291132
_publ_section_title
;
Structure prediction by ZEFSAII (Michael W. Deem and Ramdas Pophale) SiO2 
 PCOD8291132
Probable space group: I M M M
;
_chemical_formula_sum "Si O2"
_cell_formula_units_Z 120
_cell_length_a 27.687180
_cell_length_b 27.384868
_cell_length_c 8.131317
_cell_angle_alpha 90.000000
_cell_angle_beta 90.000000
_cell_angle_gamma 90.000000
_cell_volume 6165.243989
_symmetry_space_group_name_H-M "I M M M"
_symmetry_group_IT_number 71
_symmetry_cell_setting 'orthorhombic'
loop_
_space_group_symop_operation_xyz
x,y,z
-x,-y,z
x,-y,-z
-x,y,-z
-x,-y,-z
x,y,-z
-x,y,z
x,-y,z
1/2+x,1/2+y,1/2+z
1/2-x,1/2-y,1/2+z
1/2+x,1/2-y,1/2-z
1/2-x,1/2+y,1/2-z
1/2-x,1/2-y,1/2-z
1/2+x,1/2+y,1/2-z
1/2-x,1/2+y,1/2+z
1/2+x,1/2-y,1/2+z
loop_
_atom_site_type_symbol
_atom_site_label
_atom_site_fract_x
_atom_site_fract_y
_atom_site_fract_z
Si Si1 0.144130 0.641691 0.189754
Si Si2 0.298882 0.945409 0.811382
Si Si3 0.945790 0.942486 0.500000
Si Si4 0.605246 0.602111 0.315478
Si Si5 0.554695 0.803629 0.805598
Si Si6 0.107385 0.206413 0.310519
Si Si7 0.303584 0.443876 0.811257
Si Si8 0.803697 0.739476 0.193813
O O1 0.157299 0.592036 0.284205
O O2 0.088478 0.655169 0.225379
O O3 0.179648 0.685261 0.248339
O O4 0.151089 0.630857 0.000000
O O5 0.251987 0.927726 0.710007
O O6 0.315016 0.000000 0.755440
O O7 0.283620 0.945865 0.000000
O O8 0.921941 0.925983 0.670568
O O9 0.000000 0.922034 0.500000
O O10 0.943606 0.000000 0.500000
O O11 0.588097 0.586537 0.500000
O O12 0.595676 0.659656 0.299362
O O13 0.662206 0.590294 0.298656
O O14 0.500000 0.811644 0.743974
O O15 0.572416 0.749978 0.750024
O O16 0.558883 0.808319 0.000000
O O17 0.098137 0.192756 0.500000
O O18 0.162940 0.221625 0.286974
O O19 0.309738 0.500000 0.754913
O O20 0.318979 0.437055 0.000000
O O21 0.750000 0.750000 0.250000
O O22 0.809935 0.746291 0.000000
#
# Coordination Sequence:
#
# PCOD8291132 Si02
#       8
#    16  16   8  16  16  16  16  16
#     4  10  21  36  55  82 116 154 196 240 293 355
#     4  10  21  36  56  85 119 157 202 248 293 349
#     4  11  26  48  68  88 118 156 200 256 316 370
#     4  12  24  40  64  92 121 156 200 253 307 367
#     4   9  19  37  62  87 113 150 193 240 295 357
#     4  10  20  37  57  86 119 153 195 245 297 354
#     4  10  20  36  58  84 116 155 198 244 296 352
#     4  10  21  35  52  78 115 158 200 239 287 351
#
# _framework density 19.463949
#
# number of rings (size 3 to 8) (size 9 to 14) (size 15 to 20)
#    0.000    1.800    1.333    2.400    1.867    5.600 
#    0.000    0.667    0.000    0.400    0.000    2.800 
#    0.000    0.000    0.000    0.000    0.000    0.000 
#
# Total GULP energy -744104.702475 kJ/mol
# GULP energy per Si atom -12401.745041 kJ/mol
# Density = 1.941965 g / cm^3
# Si number density = 19.463949 Si / 1000 Ang^3
#
#
#
# Elastic Constant Matrix: (Units=GPa)
#
#
# Indices 1 2 3 4 5 6 
#
# 1 121.7961 47.2658 28.0792 0.0000 0.0000 0.0000
# 2 47.2658 88.0790 31.5423 0.0000 0.0000 0.0000
# 3 28.0792 31.5423 88.8391 0.0000 0.0000 0.0000
# 4 0.0000 0.0000 0.0000 26.0697 0.0000 0.0000
# 5 0.0000 0.0000 0.0000 0.0000 23.3694 0.0000
# 6 0.0000 0.0000 0.0000 0.0000 0.0000 21.3141
#
#
#
# Elastic Compliance Matrix: (Units=1/GPa)
#
#
# Indices 1 2 3 4 5 6 
#
# 1 0.010545 -0.005116 -0.001517 0.000000 0.000000 0.000000
# 2 -0.005116 0.015489 -0.003882 0.000000 0.000000 0.000000
# 3 -0.001517 -0.003882 0.013114 0.000000 0.000000 0.000000
# 4 0.000000 0.000000 0.000000 0.038359 0.000000 0.000000
# 5 0.000000 0.000000 0.000000 0.000000 0.042791 0.000000
# 6 0.000000 0.000000 0.000000 0.000000 0.000000 0.046917
#
#
# Mechanical properties :
#
#
# Convention : Reuss Voigt Hill
#
# Bulk Modulus (GPa) = 55.19155 56.94320 56.06738
# Shear Modulus (GPa) = 25.73536 26.93910 26.33723
#
# Velocity S-wave (km/s) = 3.64016 3.72432 3.68248
# Velocity P-wave (km/s) = 6.78860 6.91472 6.85195
#
# Compressibility (1/GPa) = 0.01811871
#
# Stress axis : x y z
#
# Youngs Moduli (GPa) = 94.82786 64.56141 76.25348
#
# Poissons Ratio (x) = 0.33029 0.11565
# Poissons Ratio (y) = 0.48512 0.29605
# Poissons Ratio (z) = 0.14382 0.25066
#
# Static dielectric constant tensor:
#      x y z
#    x 3.544250 0.000000 0.000000 
#    y 0.000000 3.673870 0.000000 
#    z 0.000000 0.000000 3.646930 
# 
# 
# High freq. dielectric constant tensor:
#      x y z
#    x 1.744640 0.000000 0.000000 
#    y 0.000000 1.751040 0.000000 
#    z 0.000000 0.000000 1.764890 
# 
# From -- ./inp_files/15596.got.cif
#   From: 2010.06.25/outbox.cif.g09.slc.cpg/sg71_8_cif.got.tgz:15596.got - 2010.06.28 04:59:45.
