data_PCOD8291210
_publ_section_title
;
Structure prediction by ZEFSAII (Michael W. Deem and Ramdas Pophale) SiO2 
 PCOD8291210
Probable space group: I M M M
;
_chemical_formula_sum "Si O2"
_cell_formula_units_Z 88
_cell_length_a 17.199198
_cell_length_b 13.797117
_cell_length_c 18.242233
_cell_angle_alpha 90.000000
_cell_angle_beta 90.000000
_cell_angle_gamma 90.000000
_cell_volume 4328.869981
_symmetry_space_group_name_H-M "I M M M"
_symmetry_group_IT_number 71
_symmetry_cell_setting 'orthorhombic'
loop_
_space_group_symop_operation_xyz
x,y,z
-x,-y,z
x,-y,-z
-x,y,-z
-x,-y,-z
x,y,-z
-x,y,z
x,-y,z
1/2+x,1/2+y,1/2+z
1/2-x,1/2-y,1/2+z
1/2+x,1/2-y,1/2-z
1/2-x,1/2+y,1/2-z
1/2-x,1/2-y,1/2-z
1/2+x,1/2+y,1/2-z
1/2-x,1/2+y,1/2+z
1/2+x,1/2-y,1/2+z
loop_
_atom_site_type_symbol
_atom_site_label
_atom_site_fract_x
_atom_site_fract_y
_atom_site_fract_z
Si Si1 0.683045 0.110480 0.655600
Si Si2 0.591290 0.891207 0.194738
Si Si3 0.590123 0.741549 0.418585
Si Si4 0.910061 0.106274 0.209267
Si Si5 0.088353 0.114756 0.500000
Si Si6 0.652562 0.698978 0.148487
O O1 0.626269 0.117807 0.724549
O O2 0.636401 0.157119 0.587713
O O3 0.759676 0.173862 0.670644
O O4 0.705560 0.000000 0.636741
O O5 0.500000 0.866468 0.198440
O O6 0.636345 0.814556 0.142825
O O7 0.604604 0.000000 0.163635
O O8 0.603231 0.698505 0.500000
O O9 0.500000 0.762676 0.403769
O O10 0.625741 0.667840 0.358082
O O11 0.901756 0.158129 0.287161
O O12 0.000000 0.092613 0.192576
O O13 0.869428 0.000000 0.211274
O O14 0.132815 0.151781 0.571169
O O15 0.000000 0.153697 0.500000
O O16 0.089998 0.000000 0.500000
#
# Coordination Sequence:
#
# PCOD8291210 Si02
#       6
#    16  16  16  16   8  16
#     4  11  23  38  60  91 125 161 200 251 307 360
#     4  10  21  39  65  93 120 156 203 249 298 363
#     4  10  22  39  59  87 123 161 205 251 297 358
#     4  10  20  36  61  88 117 158 203 245 296 360
#     4  11  24  40  61  89 122 160 203 254 305 355
#     4  12  23  40  61  89 122 158 200 254 306 358
#
# _framework density 20.32863
#
# number of rings (size 3 to 8) (size 9 to 14) (size 15 to 20)
#    0.000    1.364    1.818    4.364    1.273    3.273 
#    0.000    3.182    0.000    1.636    0.000    0.000 
#    0.000    0.000    0.000    0.000    0.000    0.000 
#
# Total GULP energy -545604.834839 kJ/mol
# GULP energy per Si atom -12400.109883 kJ/mol
# Density = 2.028236 g / cm^3
# Si number density = 20.328630 Si / 1000 Ang^3
#
#
#
# Elastic Constant Matrix: (Units=GPa)
#
#
# Indices 1 2 3 4 5 6 
#
# 1 71.0567 51.8299 17.1363 0.0000 0.0000 0.0000
# 2 51.8299 148.4208 48.7029 0.0000 0.0000 0.0000
# 3 17.1363 48.7029 116.1506 0.0000 0.0000 0.0000
# 4 0.0000 0.0000 0.0000 17.3170 0.0000 0.0000
# 5 0.0000 0.0000 0.0000 0.0000 15.8960 0.0000
# 6 0.0000 0.0000 0.0000 0.0000 0.0000 32.6948
#
#
#
# Elastic Compliance Matrix: (Units=1/GPa)
#
#
# Indices 1 2 3 4 5 6 
#
# 1 0.018883 -0.006586 -0.000024 0.000000 0.000000 0.000000
# 2 -0.006586 0.010110 -0.003267 0.000000 0.000000 0.000000
# 3 -0.000024 -0.003267 0.009983 0.000000 0.000000 0.000000
# 4 0.000000 0.000000 0.000000 0.057747 0.000000 0.000000
# 5 0.000000 0.000000 0.000000 0.000000 0.062909 0.000000
# 6 0.000000 0.000000 0.000000 0.000000 0.000000 0.030586
#
#
# Mechanical properties :
#
#
# Convention : Reuss Voigt Hill
#
# Bulk Modulus (GPa) = 52.02832 63.44068 57.73450
# Shear Modulus (GPa) = 23.10748 27.71217 25.40983
#
# Velocity S-wave (km/s) = 3.37515 3.69617 3.53930
# Velocity P-wave (km/s) = 6.39046 7.03498 6.72045
#
# Compressibility (1/GPa) = 0.01922030
#
# Stress axis : x y z
#
# Youngs Moduli (GPa) = 52.95703 98.91456 100.16893
#
# Poissons Ratio (x) = 0.65147 0.00243
# Poissons Ratio (y) = 0.34879 0.32729
# Poissons Ratio (z) = 0.00129 0.32319
#
# Static dielectric constant tensor:
#      x y z
#    x 3.656240 0.000000 0.000000 
#    y 0.000000 4.178180 0.000000 
#    z 0.000000 0.000000 3.493770 
# 
# 
# High freq. dielectric constant tensor:
#      x y z
#    x 1.793450 0.000000 0.000000 
#    y 0.000000 1.804970 0.000000 
#    z 0.000000 0.000000 1.776900 
# 
# From -- ./inp_files/45862.got.cif
#   From: 2010.06.25/outbox.cif.g09.slc.cpg/sg71_23_cif.got.tgz:45862.got - 2010.06.28 04:59:45.
