data_PCOD8291175
_publ_section_title
;
Structure prediction by ZEFSAII (Michael W. Deem and Ramdas Pophale) SiO2 
 PCOD8291175
Probable space group: I M M M
;
_chemical_formula_sum "Si O2"
_cell_formula_units_Z 88
_cell_length_a 8.813350
_cell_length_b 25.109561
_cell_length_c 20.624529
_cell_angle_alpha 90.000000
_cell_angle_beta 90.000000
_cell_angle_gamma 90.000000
_cell_volume 4564.194850
_symmetry_space_group_name_H-M "I M M M"
_symmetry_group_IT_number 71
_symmetry_cell_setting 'orthorhombic'
loop_
_space_group_symop_operation_xyz
x,y,z
-x,-y,z
x,-y,-z
-x,y,-z
-x,-y,-z
x,y,-z
-x,y,z
x,-y,z
1/2+x,1/2+y,1/2+z
1/2-x,1/2-y,1/2+z
1/2+x,1/2-y,1/2-z
1/2-x,1/2+y,1/2-z
1/2-x,1/2-y,1/2-z
1/2+x,1/2+y,1/2-z
1/2-x,1/2+y,1/2+z
1/2+x,1/2-y,1/2+z
loop_
_atom_site_type_symbol
_atom_site_label
_atom_site_fract_x
_atom_site_fract_y
_atom_site_fract_z
Si Si1 0.672809 0.686483 0.312691
Si Si2 0.822865 0.604759 0.925986
Si Si3 0.674082 0.192310 0.321984
Si Si4 0.320931 0.500000 0.132537
Si Si5 0.320296 0.500000 0.280812
Si Si6 0.832644 0.938063 0.000000
Si Si7 0.822907 0.589077 0.632321
O O1 0.500000 0.666915 0.320735
O O2 0.692704 0.745859 0.340779
O O3 0.714894 0.680542 0.237358
O O4 0.786048 0.650381 0.353891
O O5 0.776325 0.655670 0.882426
O O6 0.736569 0.552354 0.903383
O O7 0.000000 0.592747 0.919581
O O8 0.777927 0.618120 0.000000
O O9 0.500000 0.180597 0.301370
O O10 0.500000 0.500000 0.129675
O O11 0.263668 0.500000 0.206710
O O12 0.500000 0.500000 0.286719
O O13 0.258560 0.552844 0.314485
O O14 0.735560 0.922374 0.938637
O O15 0.000000 0.910408 0.000000
O O16 0.859834 0.000000 0.000000
O O17 0.000000 0.577582 0.635817
#
# Coordination Sequence:
#
# PCOD8291175 Si02
#       7
#    16  16  16   8   8   8  16
#     4  10  20  36  59  87 117 151 192 240 292 344
#     4  10  21  38  59  82 112 148 189 233 280 339
#     4   9  19  37  60  86 114 149 194 242 291 341
#     4  11  24  38  56  85 116 147 186 232 283 340
#     4  11  23  39  59  85 116 149 191 240 287 339
#     4  11  23  41  63  83 114 156 196 237 288 347
#     4  12  24  38  59  87 119 153 192 238 287 346
#
# _framework density 19.28051
#
# number of rings (size 3 to 8) (size 9 to 14) (size 15 to 20)
#    0.000    1.545    0.909    4.364    0.000    7.636 
#    1.636    0.000    0.000    0.000    0.000    0.000 
#    0.000    0.000    0.000    0.000    0.000    0.000 
#
# Total GULP energy -545736.897115 kJ/mol
# GULP energy per Si atom -12403.111298 kJ/mol
# Density = 1.923663 g / cm^3
# Si number density = 19.280510 Si / 1000 Ang^3
#
#
#
# Elastic Constant Matrix: (Units=GPa)
#
#
# Indices 1 2 3 4 5 6 
#
# 1 81.2563 36.6494 38.9052 0.0004 0.0000 0.0000
# 2 36.6494 119.2670 65.7110 0.0002 0.0000 0.0000
# 3 38.9052 65.7110 130.0061 0.0020 0.0000 0.0000
# 4 0.0004 0.0002 0.0020 74.3262 -0.0001 0.0000
# 5 0.0000 0.0000 0.0000 -0.0001 33.3909 0.0000
# 6 0.0000 0.0000 0.0000 0.0000 0.0000 27.7351
#
#
#
# Elastic Compliance Matrix: (Units=1/GPa)
#
#
# Indices 1 2 3 4 5 6 
#
# 1 0.015092 -0.002979 -0.003011 0.000000 0.000000 0.000000
# 2 -0.002979 0.012209 -0.005279 0.000000 0.000000 0.000000
# 3 -0.003011 -0.005279 0.011261 0.000000 0.000000 0.000000
# 4 0.000000 0.000000 0.000000 0.013454 0.000000 0.000000
# 5 0.000000 0.000000 0.000000 0.000000 0.029948 0.000000
# 6 0.000000 0.000000 0.000000 0.000000 0.000000 0.036055
#
#
# Mechanical properties :
#
#
# Convention : Reuss Voigt Hill
#
# Bulk Modulus (GPa) = 62.40620 68.11784 65.26202
# Shear Modulus (GPa) = 34.27037 39.70803 36.98920
#
# Velocity S-wave (km/s) = 4.22057 4.54308 4.38479
# Velocity P-wave (km/s) = 7.49591 7.93260 7.71734
#
# Compressibility (1/GPa) = 0.01602405
#
# Stress axis : x y z
#
# Youngs Moduli (GPa) = 66.26119 81.90953 88.79924
#
# Poissons Ratio (x) = 0.24399 0.26735
# Poissons Ratio (y) = 0.19738 0.46880
# Poissons Ratio (z) = 0.19949 0.43243
#
# Static dielectric constant tensor:
#      x y z
#    x 3.632900 0.000000 0.000000 
#    y 0.000000 3.778360 0.000000 
#    z 0.000000 0.000000 3.659580 
# 
# 
# High freq. dielectric constant tensor:
#      x y z
#    x 1.757550 0.000000 0.000000 
#    y 0.000000 1.757850 0.000000 
#    z 0.000000 0.000000 1.750550 
# 
# From -- ./inp_files/50576.got.cif
#   From: 2010.06.25/outbox.cif.g09.slc.cpg/sg71_26_cif.got.tgz:50576.got - 2010.06.28 04:59:45.
