data_PCOD8291560
_publ_section_title
;
Structure prediction by ZEFSAII (Michael W. Deem and Ramdas Pophale) SiO2 
 PCOD8291560
Probable space group: I M M M
;
_chemical_formula_sum "Si O2"
_cell_formula_units_Z 96
_cell_length_a 13.251346
_cell_length_b 15.266349
_cell_length_c 24.164050
_cell_angle_alpha 90.000000
_cell_angle_beta 90.000000
_cell_angle_gamma 90.000000
_cell_volume 4888.379407
_symmetry_space_group_name_H-M "I M M M"
_symmetry_group_IT_number 71
_symmetry_cell_setting 'orthorhombic'
loop_
_space_group_symop_operation_xyz
x,y,z
-x,-y,z
x,-y,-z
-x,y,-z
-x,-y,-z
x,y,-z
-x,y,z
x,-y,z
1/2+x,1/2+y,1/2+z
1/2-x,1/2-y,1/2+z
1/2+x,1/2-y,1/2-z
1/2-x,1/2+y,1/2-z
1/2-x,1/2-y,1/2-z
1/2+x,1/2+y,1/2-z
1/2-x,1/2+y,1/2+z
1/2+x,1/2-y,1/2+z
loop_
_atom_site_type_symbol
_atom_site_label
_atom_site_fract_x
_atom_site_fract_y
_atom_site_fract_z
Si Si1 0.802175 0.102401 0.221964
Si Si2 0.616012 0.360393 0.061906
Si Si3 0.109166 0.599310 0.339588
Si Si4 0.287579 0.824839 0.061964
Si Si5 0.384911 0.266494 0.360792
Si Si6 0.240740 0.403326 0.841325
O O1 0.690833 0.137851 0.203371
O O2 0.880999 0.165298 0.190661
O O3 0.810917 0.115698 0.287730
O O4 0.819336 0.000000 0.205073
O O5 0.500000 0.376669 0.078315
O O6 0.639068 0.257997 0.063158
O O7 0.687467 0.408608 0.105384
O O8 0.637336 0.397190 0.000000
O O9 0.090901 0.500000 0.324055
O O10 0.154842 0.603479 0.401440
O O11 0.000000 0.648147 0.334580
O O12 0.178118 0.802939 0.087315
O O13 0.271674 0.860837 0.000000
O O14 0.500000 0.256894 0.379815
O O15 0.345241 0.169942 0.344857
O O16 0.190051 0.500000 0.834855
#
# Coordination Sequence:
#
# PCOD8291560 Si02
#       6
#    16  16  16  16  16  16
#     4   9  19  36  55  77 107 139 172 212 258 309
#     4   9  18  33  53  76 102 133 169 212 264 317
#     4   9  17  29  48  76 107 136 166 206 259 314
#     4   9  18  33  51  72 101 136 174 215 258 307
#     4  10  21  36  54  76 103 138 178 219 260 300
#     4  10  21  36  54  78 107 138 174 215 259 310
#
# _framework density 19.63841
#
# number of rings (size 3 to 8) (size 9 to 14) (size 15 to 20)
#    0.000    2.667    0.000    1.000    0.000    4.333 
#    0.000    5.000    0.000    0.000    0.000    9.333 
#    0.000    0.000    0.000    0.000    0.000    0.000 
#
# Total GULP energy -594888.819913 kJ/mol
# GULP energy per Si atom -12393.517082 kJ/mol
# Density = 1.959371 g / cm^3
# Si number density = 19.638410 Si / 1000 Ang^3
#
#
#
# Elastic Constant Matrix: (Units=GPa)
#
#
# Indices 1 2 3 4 5 6 
#
# 1 97.9605 27.3375 25.8920 0.0000 0.0000 0.0000
# 2 27.3375 52.5750 15.0550 0.0000 0.0000 0.0000
# 3 25.8920 15.0550 109.2999 0.0000 0.0000 0.0000
# 4 0.0000 0.0000 0.0000 22.9278 0.0000 0.0000
# 5 0.0000 0.0000 0.0000 0.0000 15.0075 0.0000
# 6 0.0000 0.0000 0.0000 0.0000 0.0000 12.9580
#
#
#
# Elastic Compliance Matrix: (Units=1/GPa)
#
#
# Indices 1 2 3 4 5 6 
#
# 1 0.012401 -0.005837 -0.002134 0.000000 0.000000 0.000000
# 2 -0.005837 0.022549 -0.001723 0.000000 0.000000 0.000000
# 3 -0.002134 -0.001723 0.009892 0.000000 0.000000 0.000000
# 4 0.000000 0.000000 0.000000 0.043615 0.000000 0.000000
# 5 0.000000 0.000000 0.000000 0.000000 0.066633 0.000000
# 6 0.000000 0.000000 0.000000 0.000000 0.000000 0.077172
#
#
# Mechanical properties :
#
#
# Convention : Reuss Voigt Hill
#
# Bulk Modulus (GPa) = 39.28651 44.04492 41.66572
# Shear Modulus (GPa) = 19.22076 22.94875 21.08475
#
# Velocity S-wave (km/s) = 3.13187 3.42214 3.28021
# Velocity P-wave (km/s) = 5.75556 6.17182 5.96732
#
# Compressibility (1/GPa) = 0.02545403
#
# Stress axis : x y z
#
# Youngs Moduli (GPa) = 80.63782 44.34776 101.09257
#
# Poissons Ratio (x) = 0.25887 0.21570
# Poissons Ratio (y) = 0.47070 0.17420
# Poissons Ratio (z) = 0.17205 0.07642
#
# Static dielectric constant tensor:
#      x y z
#    x 3.653100 0.000000 0.000000 
#    y 0.000000 3.481780 0.000000 
#    z 0.000000 0.000000 3.723010 
# 
# 
# High freq. dielectric constant tensor:
#      x y z
#    x 1.746550 0.000000 0.000000 
#    y 0.000000 1.759770 0.000000 
#    z 0.000000 0.000000 1.767730 
# 
# From -- ./inp_files/24193.got.cif
#   From: 2010.06.25/outbox.cif.g09.slc.cpg/sg71_13_cif.got.tgz:24193.got - 2010.06.28 04:59:45.
