data_PCOD8291030
_publ_section_title
;
Structure prediction by ZEFSAII (Michael W. Deem and Ramdas Pophale) SiO2 
 PCOD8291030
Probable space group: I M M M
;
_chemical_formula_sum "Si O2"
_cell_formula_units_Z 72
_cell_length_a 8.770368
_cell_length_b 22.525041
_cell_length_c 18.925123
_cell_angle_alpha 90.000000
_cell_angle_beta 90.000000
_cell_angle_gamma 90.000000
_cell_volume 3738.712909
_symmetry_space_group_name_H-M "I M M M"
_symmetry_group_IT_number 71
_symmetry_cell_setting 'orthorhombic'
loop_
_space_group_symop_operation_xyz
x,y,z
-x,-y,z
x,-y,-z
-x,y,-z
-x,-y,-z
x,y,-z
-x,y,z
x,-y,z
1/2+x,1/2+y,1/2+z
1/2-x,1/2-y,1/2+z
1/2+x,1/2-y,1/2-z
1/2-x,1/2+y,1/2-z
1/2-x,1/2-y,1/2-z
1/2+x,1/2+y,1/2-z
1/2-x,1/2+y,1/2+z
1/2+x,1/2-y,1/2+z
loop_
_atom_site_type_symbol
_atom_site_label
_atom_site_fract_x
_atom_site_fract_y
_atom_site_fract_z
Si Si1 0.820567 0.390129 0.171378
Si Si2 0.325142 0.432224 0.687939
Si Si3 0.824349 0.831182 0.918961
Si Si4 0.178887 0.233520 0.675205
Si Si5 0.181383 0.500000 0.920559
O O1 0.783462 0.406736 0.251711
O O2 0.738944 0.329767 0.148311
O O3 0.758569 0.441751 0.119895
O O4 0.000000 0.381217 0.163777
O O5 0.500000 0.426269 0.713451
O O6 0.282161 0.500000 0.670893
O O7 0.296275 0.394868 0.617100
O O8 0.719794 0.781693 0.883413
O O9 0.000000 0.811547 0.911119
O O10 0.775399 0.837645 0.000000
O O11 0.250000 0.250000 0.750000
O O12 0.000000 0.230431 0.685833
O O13 0.000000 0.500000 0.920670
O O14 0.246884 0.500000 0.000000
#
# Coordination Sequence:
#
# PCOD8291030 Si02
#       5
#    16  16  16  16   8
#     4  11  21  36  61  90 117 155 202 248 298 354
#     4  10  20  35  59  89 121 158 199 245 295 352
#     4  10  22  40  61  88 123 162 201 244 298 357
#     4  12  24  39  61  89 120 157 203 250 302 357
#     4   9  20  38  59  87 122 157 196 242 294 352
#
# _framework density 19.257964000000001
#
# number of rings (size 3 to 8) (size 9 to 14) (size 15 to 20)
#    0.000    1.444    3.333    2.667    0.000    1.778 
#    0.000    4.444    0.000    4.667    0.000    3.111 
#    0.000    0.000    0.000    0.000    0.000    0.000 
#
# Total GULP energy -446578.974202 kJ/mol
# GULP energy per Si atom -12404.971506 kJ/mol
# Density = 1.921413 g / cm^3
# Si number density = 19.257964 Si / 1000 Ang^3
#
#
#
# Elastic Constant Matrix: (Units=GPa)
#
#
# Indices 1 2 3 4 5 6 
#
# 1 87.0869 41.4656 28.1068 0.0000 0.0000 0.0000
# 2 41.4656 144.6448 41.5401 0.0000 0.0000 0.0000
# 3 28.1068 41.5401 118.5538 0.0000 0.0000 0.0000
# 4 0.0000 0.0000 0.0000 34.1662 0.0000 0.0000
# 5 0.0000 0.0000 0.0000 0.0000 23.8168 0.0000
# 6 0.0000 0.0000 0.0000 0.0000 0.0000 30.1507
#
#
#
# Elastic Compliance Matrix: (Units=1/GPa)
#
#
# Indices 1 2 3 4 5 6 
#
# 1 0.013748 -0.003341 -0.002089 0.000000 0.000000 0.000000
# 2 -0.003341 0.008499 -0.002186 0.000000 0.000000 0.000000
# 3 -0.002089 -0.002186 0.009696 0.000000 0.000000 0.000000
# 4 0.000000 0.000000 0.000000 0.029269 0.000000 0.000000
# 5 0.000000 0.000000 0.000000 0.000000 0.041987 0.000000
# 6 0.000000 0.000000 0.000000 0.000000 0.000000 0.033167
#
#
# Mechanical properties :
#
#
# Convention : Reuss Voigt Hill
#
# Bulk Modulus (GPa) = 59.83905 63.61229 61.72567
# Shear Modulus (GPa) = 31.81320 33.57159 32.69240
#
# Velocity S-wave (km/s) = 4.06883 4.17976 4.12467
# Velocity P-wave (km/s) = 7.29477 7.50981 7.40307
#
# Compressibility (1/GPa) = 0.01671149
#
# Stress axis : x y z
#
# Youngs Moduli (GPa) = 72.73893 117.65962 103.13481
#
# Poissons Ratio (x) = 0.39314 0.21541
# Poissons Ratio (y) = 0.24304 0.22544
# Poissons Ratio (z) = 0.15192 0.25719
#
# Static dielectric constant tensor:
#      x y z
#    x 3.422310 0.000000 0.000000 
#    y 0.000000 3.884480 0.000000 
#    z 0.000000 0.000000 3.505500 
# 
# 
# High freq. dielectric constant tensor:
#      x y z
#    x 1.738880 0.000000 0.000000 
#    y 0.000000 1.768240 0.000000 
#    z 0.000000 0.000000 1.742980 
# 
# From -- ./inp_files/7920.got.cif
#   From: 2010.06.25/outbox.cif.g09.slc.cpg/sg71_4_cif.got.tgz:7920.got - 2010.06.28 04:59:45.
