data_PCOD8291140
_publ_section_title
;
Structure prediction by ZEFSAII (Michael W. Deem and Ramdas Pophale) SiO2 
 PCOD8291140
Probable space group: I M M M
;
_chemical_formula_sum "Si O2"
_cell_formula_units_Z 80
_cell_length_a 16.617567
_cell_length_b 28.451903
_cell_length_c 8.200486
_cell_angle_alpha 90.000000
_cell_angle_beta 90.000000
_cell_angle_gamma 90.000000
_cell_volume 3877.201297
_symmetry_space_group_name_H-M "I M M M"
_symmetry_group_IT_number 71
_symmetry_cell_setting 'orthorhombic'
loop_
_space_group_symop_operation_xyz
x,y,z
-x,-y,z
x,-y,-z
-x,y,-z
-x,-y,-z
x,y,-z
-x,y,z
x,-y,z
1/2+x,1/2+y,1/2+z
1/2-x,1/2-y,1/2+z
1/2+x,1/2-y,1/2-z
1/2-x,1/2+y,1/2-z
1/2-x,1/2-y,1/2-z
1/2+x,1/2+y,1/2-z
1/2-x,1/2+y,1/2+z
1/2+x,1/2-y,1/2+z
loop_
_atom_site_type_symbol
_atom_site_label
_atom_site_fract_x
_atom_site_fract_y
_atom_site_fract_z
Si Si1 0.500000 0.671476 0.186116
Si Si2 0.841182 0.213190 0.188560
Si Si3 0.187340 0.500000 0.193691
Si Si4 0.681390 0.183067 0.688938
Si Si5 0.500000 0.571895 0.310257
Si Si6 0.372991 0.500000 0.194607
Si Si7 0.592102 0.091411 0.694656
O O1 0.574043 0.690134 0.287616
O O2 0.500000 0.615779 0.190605
O O3 0.500000 0.689208 0.000000
O O4 0.777030 0.179703 0.280448
O O5 0.844841 0.266244 0.262954
O O6 0.816828 0.215452 0.000000
O O7 0.280102 0.500000 0.252800
O O8 0.141458 0.546284 0.261022
O O9 0.184902 0.500000 0.000000
O O10 0.660836 0.181728 0.500000
O O11 0.633632 0.138887 0.767405
O O12 0.500000 0.586032 0.500000
O O13 0.417969 0.544722 0.269459
O O14 0.380611 0.500000 0.000000
O O15 0.594706 0.091582 0.500000
O O16 0.500000 0.088857 0.756886
#
# Coordination Sequence:
#
# PCOD8291140 Si02
#       7
#     8  16   8  16   8   8  16
#     4  12  25  39  60  86 117 153 193 242 296 358
#     4  10  21  37  56  83 118 153 194 241 288 345
#     4   9  18  30  50  83 117 148 190 237 282 335
#     4   9  19  35  58  83 114 155 197 237 286 345
#     4  11  23  40  59  84 116 154 197 243 291 348
#     4  10  20  36  58  86 119 158 197 240 285 342
#     4   9  17  30  52  81 113 150 190 237 286 333
#
# _framework density 20.63344
#
# number of rings (size 3 to 8) (size 9 to 14) (size 15 to 20)
#    0.000    2.200    0.000    3.600    4.200    2.000 
#    0.000    0.000    0.000    0.000    0.000    0.000 
#    0.000    4.800    0.000    0.000    0.000    0.000 
#
# Total GULP energy -495881.907214 kJ/mol
# GULP energy per Si atom -12397.047680 kJ/mol
# Density = 2.058648 g / cm^3
# Si number density = 20.633440 Si / 1000 Ang^3
#
#
#
# Elastic Constant Matrix: (Units=GPa)
#
#
# Indices 1 2 3 4 5 6 
#
# 1 184.2814 92.6641 0.1734 0.0019 -0.0037 -0.0045
# 2 92.6641 149.3419 7.2711 0.0044 -0.0069 -0.0009
# 3 0.1734 7.2711 34.6513 0.0192 -0.0041 -0.0552
# 4 0.0019 0.0044 0.0192 19.5048 -0.0094 -0.0047
# 5 -0.0037 -0.0069 -0.0041 -0.0094 -1.1921 0.0449
# 6 -0.0045 -0.0009 -0.0552 -0.0047 0.0449 103.1916
#
#
#
# Elastic Compliance Matrix: (Units=1/GPa)
#
#
# Indices 1 2 3 4 5 6 
#
# 1 0.007922 -0.004964 0.001002 -0.000001 0.000001 0.000001
# 2 -0.004964 0.009876 -0.002047 0.000000 -0.000035 -0.000001
# 3 0.001002 -0.002047 0.029284 -0.000028 -0.000091 0.000016
# 4 -0.000001 0.000000 -0.000028 0.051269 -0.000406 0.000003
# 5 0.000001 -0.000035 -0.000091 -0.000406 -0.838864 0.000365
# 6 0.000001 -0.000001 0.000016 0.000003 0.000365 0.009691
#
#
# Mechanical properties :
#
#
# Convention : Reuss Voigt Hill
#
# Bulk Modulus (GPa) = 28.52085 63.16577 45.84331
# Shear Modulus (GPa) = -7.07097 42.17859 17.55381
#
# Velocity S-wave (km/s) = -1.85321 4.52617 2.91992
# Velocity P-wave (km/s) = 3.04524 7.61543 5.79949
#
# Compressibility (1/GPa) = 0.03506207
#
# Stress axis : x y z
#
# Youngs Moduli (GPa) = 126.23613 101.25729 34.14877
#
# Poissons Ratio (x) = 0.50265 -0.03422
# Poissons Ratio (y) = 0.62664 0.06992
# Poissons Ratio (z) = -0.12649 0.20732
#
# Static dielectric constant tensor:
#      x y z
#    x 3.842660 0.000000 0.000000 
#    y 0.000000 4.032000 -0.000020 
#    z 0.000000 -0.000020 3.313140 
# 
# 
# High freq. dielectric constant tensor:
#      x y z
#    x 1.814630 0.000000 0.000000 
#    y 0.000000 1.815920 0.000000 
#    z 0.000000 0.000000 1.772150 
# 
# From -- ./inp_files/8476.got.cif
#   From: 2010.06.25/outbox.cif.g09.slc.cpg/sg71_5_cif.got.tgz:8476.got - 2010.06.28 04:59:45.
