data_PCOD8291768
_publ_section_title
;
Structure prediction by ZEFSAII (Michael W. Deem and Ramdas Pophale) SiO2 
 PCOD8291768
Probable space group: I M M M
;
_chemical_formula_sum "Si O2"
_cell_formula_units_Z 96
_cell_length_a 30.484312
_cell_length_b 18.778515
_cell_length_c 8.849167
_cell_angle_alpha 90.000000
_cell_angle_beta 90.000000
_cell_angle_gamma 90.000000
_cell_volume 5065.706624
_symmetry_space_group_name_H-M "I M M M"
_symmetry_group_IT_number 71
_symmetry_cell_setting 'orthorhombic'
loop_
_space_group_symop_operation_xyz
x,y,z
-x,-y,z
x,-y,-z
-x,y,-z
-x,-y,-z
x,y,-z
-x,y,z
x,-y,z
1/2+x,1/2+y,1/2+z
1/2-x,1/2-y,1/2+z
1/2+x,1/2-y,1/2-z
1/2-x,1/2+y,1/2-z
1/2-x,1/2-y,1/2-z
1/2+x,1/2+y,1/2-z
1/2-x,1/2+y,1/2+z
1/2+x,1/2-y,1/2+z
loop_
_atom_site_type_symbol
_atom_site_label
_atom_site_fract_x
_atom_site_fract_y
_atom_site_fract_z
Si Si1 0.050679 0.418260 0.674426
Si Si2 0.123259 0.673989 0.822877
Si Si3 0.451527 0.420352 0.179646
Si Si4 0.703466 0.582030 0.323244
Si Si5 0.706352 0.081719 0.325959
Si Si6 0.627835 0.672872 0.179148
O O1 0.062844 0.405044 0.500000
O O2 0.060022 0.500000 0.718771
O O3 0.079116 0.367050 0.778999
O O4 0.000000 0.399548 0.703334
O O5 0.165010 0.627642 0.773484
O O6 0.126802 0.747309 0.735591
O O7 0.122770 0.688946 0.000000
O O8 0.500000 0.395984 0.234674
O O9 0.441501 0.500000 0.239612
O O10 0.415140 0.367016 0.245476
O O11 0.450021 0.420437 0.000000
O O12 0.697687 0.594723 0.500000
O O13 0.694324 0.500000 0.278021
O O14 0.752499 0.604025 0.276158
O O15 0.670771 0.632683 0.234879
O O16 0.718674 0.095811 0.500000
O O17 0.693386 0.000000 0.298721
O O18 0.627819 0.672308 0.000000
#
# Coordination Sequence:
#
# PCOD8291768 Si02
#       6
#    16  16  16  16  16  16
#     4   9  19  37  60  84 110 143 185 230 273 323
#     4  11  23  37  54  80 114 148 182 225 277 328
#     4   8  15  30  53  79 103 130 172 223 266 307
#     4  10  21  37  58  83 109 138 176 225 277 327
#     4   9  19  37  59  80 103 136 180 226 271 324
#     4  11  22  35  54  80 111 148 184 220 269 328
#
# _framework density 18.950959999999998
#
# number of rings (size 3 to 8) (size 9 to 14) (size 15 to 20)
#    0.000    2.333    0.000    3.500    0.000    5.667 
#    0.000    4.167    0.000    1.500    0.000    5.833 
#    0.000    0.000    0.000    0.000    0.000    0.000 
#
# Total GULP energy -595283.222362 kJ/mol
# GULP energy per Si atom -12401.733799 kJ/mol
# Density = 1.890783 g / cm^3
# Si number density = 18.950960 Si / 1000 Ang^3
#
#
#
# Elastic Constant Matrix: (Units=GPa)
#
#
# Indices 1 2 3 4 5 6 
#
# 1 131.4685 82.2190 41.3684 0.0000 0.0000 0.0000
# 2 82.2190 117.0297 38.6076 0.0000 0.0000 0.0000
# 3 41.3684 38.6076 56.2376 0.0000 0.0000 0.0000
# 4 0.0000 0.0000 0.0000 31.9858 0.0000 0.0000
# 5 0.0000 0.0000 0.0000 0.0000 27.9010 0.0000
# 6 0.0000 0.0000 0.0000 0.0000 0.0000 8.6325
#
#
#
# Elastic Compliance Matrix: (Units=1/GPa)
#
#
# Indices 1 2 3 4 5 6 
#
# 1 0.014484 -0.008611 -0.004743 0.000000 0.000000 0.000000
# 2 -0.008611 0.016166 -0.004764 0.000000 0.000000 0.000000
# 3 -0.004743 -0.004764 0.024541 0.000000 0.000000 0.000000
# 4 0.000000 0.000000 0.000000 0.031264 0.000000 0.000000
# 5 0.000000 0.000000 0.000000 0.000000 0.035841 0.000000
# 6 0.000000 0.000000 0.000000 0.000000 0.000000 0.115841
#
#
# Mechanical properties :
#
#
# Convention : Reuss Voigt Hill
#
# Bulk Modulus (GPa) = 52.75517 69.90287 61.32902
# Shear Modulus (GPa) = 17.81314 23.20657 20.50986
#
# Velocity S-wave (km/s) = 3.06920 3.50317 3.29334
# Velocity P-wave (km/s) = 6.36067 7.30268 6.84790
#
# Compressibility (1/GPa) = 0.01895549
#
# Stress axis : x y z
#
# Youngs Moduli (GPa) = 69.04111 61.85762 40.74817
#
# Poissons Ratio (x) = 0.53266 0.19326
# Poissons Ratio (y) = 0.59452 0.19412
# Poissons Ratio (z) = 0.32745 0.29468
#
# Static dielectric constant tensor:
#      x y z
#    x 3.654740 0.000000 0.000000 
#    y 0.000000 3.542590 0.000000 
#    z 0.000000 0.000000 3.296600 
# 
# 
# High freq. dielectric constant tensor:
#      x y z
#    x 1.749450 0.000000 0.000000 
#    y 0.000000 1.736290 0.000000 
#    z 0.000000 0.000000 1.722210 
# 
# From -- ./inp_files/14889.got.cif
#   From: 2010.06.25/outbox.cif.g09.slc.cpg/sg71_8_cif.got.tgz:14889.got - 2010.06.28 04:59:45.
