data_PCOD8291410
_publ_section_title
;
Structure prediction by ZEFSAII (Michael W. Deem and Ramdas Pophale) SiO2 
 PCOD8291410
Probable space group: I M M M
;
_chemical_formula_sum "Si O2"
_cell_formula_units_Z 88
_cell_length_a 11.733404
_cell_length_b 29.168925
_cell_length_c 13.638253
_cell_angle_alpha 90.000000
_cell_angle_beta 90.000000
_cell_angle_gamma 90.000000
_cell_volume 4667.702744
_symmetry_space_group_name_H-M "I M M M"
_symmetry_group_IT_number 71
_symmetry_cell_setting 'orthorhombic'
loop_
_space_group_symop_operation_xyz
x,y,z
-x,-y,z
x,-y,-z
-x,y,-z
-x,-y,-z
x,y,-z
-x,y,z
x,-y,z
1/2+x,1/2+y,1/2+z
1/2-x,1/2-y,1/2+z
1/2+x,1/2-y,1/2-z
1/2-x,1/2+y,1/2-z
1/2-x,1/2-y,1/2-z
1/2+x,1/2+y,1/2-z
1/2-x,1/2+y,1/2+z
1/2+x,1/2-y,1/2+z
loop_
_atom_site_type_symbol
_atom_site_label
_atom_site_fract_x
_atom_site_fract_y
_atom_site_fract_z
Si Si1 0.000000 0.651251 0.118685
Si Si2 0.134797 0.946328 0.713324
Si Si3 0.367773 0.447374 0.000000
Si Si4 0.000000 0.242086 0.116189
Si Si5 0.276718 0.865864 0.267097
Si Si6 0.259062 0.707029 0.385094
Si Si7 0.127962 0.798796 0.614673
O O1 0.890735 0.627065 0.168609
O O2 0.000000 0.704799 0.148883
O O3 0.000000 0.644140 0.000000
O O4 0.176370 0.929058 0.604184
O O5 0.219673 0.913530 0.774960
O O6 0.000000 0.937283 0.732033
O O7 0.160525 0.000000 0.732684
O O8 0.338277 0.500000 0.000000
O O9 0.500000 0.438599 0.000000
O O10 0.888619 0.214759 0.153240
O O11 0.000000 0.242632 0.000000
O O12 0.300151 0.835089 0.170950
O O13 0.182274 0.842075 0.333821
O O14 0.252816 0.696259 0.500000
O O15 0.193894 0.753015 0.357117
O O16 0.134188 0.808899 0.500000
O O17 0.000000 0.792191 0.652007
#
# Coordination Sequence:
#
# PCOD8291410 Si02
#       7
#     8  16   8   8  16  16  16
#     4  11  24  38  52  79 114 149 183 215 269 333
#     4   9  19  35  55  80 108 137 175 224 277 326
#     4   7  12  26  48  71  97 129 159 198 257 317
#     4   9  18  36  54  72 112 154 178 214 268 320
#     4  12  23  34  58  78 106 147 188 222 271 328
#     4  10  22  37  54  79 111 147 186 227 267 315
#     4  10  21  34  52  81 112 140 181 232 269 313
#
# _framework density 18.852958000000001
#
# number of rings (size 3 to 8) (size 9 to 14) (size 15 to 20)
#    0.000    2.091    1.818    2.727    6.364    0.000 
#    0.000    0.455    0.000    1.091    0.000    1.273 
#    0.000    1.455    0.000    0.000    0.000    0.000 
#
# Total GULP energy -545189.233492 kJ/mol
# GULP energy per Si atom -12390.664398 kJ/mol
# Density = 1.881005 g / cm^3
# Si number density = 18.852958 Si / 1000 Ang^3
#
#
#
# Elastic Constant Matrix: (Units=GPa)
#
#
# Indices 1 2 3 4 5 6 
#
# 1 116.0311 42.0116 35.7541 -0.0001 0.0000 0.0000
# 2 42.0116 98.8898 30.8507 -0.0001 0.0000 0.0000
# 3 35.7541 30.8507 31.3665 -0.0003 0.0005 -0.0003
# 4 -0.0001 -0.0001 -0.0003 15.3385 0.0000 0.0000
# 5 0.0000 0.0000 0.0005 0.0000 22.0373 0.0000
# 6 0.0000 0.0000 -0.0003 0.0000 0.0000 21.5563
#
#
#
# Elastic Compliance Matrix: (Units=1/GPa)
#
#
# Indices 1 2 3 4 5 6 
#
# 1 0.013406 -0.001339 -0.013965 0.000000 0.000000 0.000000
# 2 -0.001339 0.014722 -0.012954 0.000000 0.000000 0.000000
# 3 -0.013965 -0.012954 0.060540 0.000001 -0.000001 0.000001
# 4 0.000000 0.000000 0.000001 0.065195 0.000000 0.000000
# 5 0.000000 0.000000 -0.000001 0.000000 0.045378 0.000000
# 6 0.000000 0.000000 0.000001 0.000000 0.000000 0.046390
#
#
# Mechanical properties :
#
#
# Convention : Reuss Voigt Hill
#
# Bulk Modulus (GPa) = 31.10069 51.50225 41.30147
# Shear Modulus (GPa) = 15.98131 20.96449 18.47290
#
# Velocity S-wave (km/s) = 2.91466 3.33828 3.13364
# Velocity P-wave (km/s) = 5.27818 6.49892 5.92010
#
# Compressibility (1/GPa) = 0.03215362
#
# Stress axis : x y z
#
# Youngs Moduli (GPa) = 74.59199 67.92386 16.51787
#
# Poissons Ratio (x) = 0.09094 0.23067
# Poissons Ratio (y) = 0.09987 0.21398
# Poissons Ratio (z) = 1.04166 0.87990
#
# Static dielectric constant tensor:
#      x y z
#    x 3.663070 0.000000 0.000000 
#    y 0.000000 3.271200 0.000000 
#    z 0.000000 0.000000 3.421590 
# 
# 
# High freq. dielectric constant tensor:
#      x y z
#    x 1.726730 0.000000 0.000000 
#    y 0.000000 1.714550 0.000000 
#    z 0.000000 0.000000 1.717890 
# 
# From -- ./inp_files/33020.got.cif
#   From: 2010.06.25/outbox.cif.g09.slc.cpg/sg71_17_cif.got.tgz:33020.got - 2010.06.28 04:59:45.
