data_PCOD8291395
_publ_section_title
;
Structure prediction by ZEFSAII (Michael W. Deem and Ramdas Pophale) SiO2 
 PCOD8291395
Probable space group: I M M M
;
_chemical_formula_sum "Si O2"
_cell_formula_units_Z 104
_cell_length_a 23.839922
_cell_length_b 17.722337
_cell_length_c 13.999764
_cell_angle_alpha 90.000000
_cell_angle_beta 90.000000
_cell_angle_gamma 90.000000
_cell_volume 5914.888135
_symmetry_space_group_name_H-M "I M M M"
_symmetry_group_IT_number 71
_symmetry_cell_setting 'orthorhombic'
loop_
_space_group_symop_operation_xyz
x,y,z
-x,-y,z
x,-y,-z
-x,y,-z
-x,-y,-z
x,y,-z
-x,y,z
x,-y,z
1/2+x,1/2+y,1/2+z
1/2-x,1/2-y,1/2+z
1/2+x,1/2-y,1/2-z
1/2-x,1/2+y,1/2-z
1/2-x,1/2-y,1/2-z
1/2+x,1/2+y,1/2-z
1/2-x,1/2+y,1/2+z
1/2+x,1/2-y,1/2+z
loop_
_atom_site_type_symbol
_atom_site_label
_atom_site_fract_x
_atom_site_fract_y
_atom_site_fract_z
Si Si1 0.064507 0.911441 0.891143
Si Si2 0.275079 0.588616 0.110051
Si Si3 0.619174 0.359282 0.790875
Si Si4 0.851016 0.589413 0.105056
Si Si5 0.065949 0.000000 0.393880
Si Si6 0.935312 0.722724 0.392066
Si Si7 0.436138 0.086109 0.236739
O O1 0.106918 0.865653 0.822459
O O2 0.000000 0.889694 0.868383
O O3 0.073183 0.000000 0.873990
O O4 0.079416 0.889882 0.000000
O O5 0.284754 0.500000 0.125245
O O6 0.315231 0.632587 0.183701
O O7 0.211735 0.612834 0.136603
O O8 0.288258 0.610240 0.000000
O O9 0.584580 0.424561 0.842255
O O10 0.600015 0.277718 0.825556
O O11 0.854344 0.500000 0.098846
O O12 0.896551 0.619530 0.180003
O O13 0.864547 0.623155 0.000000
O O14 0.092226 0.000000 0.500000
O O15 0.000000 0.000000 0.398103
O O16 0.912849 0.727352 0.500000
O O17 0.927280 0.636811 0.356865
O O18 0.000000 0.747162 0.386691
O O19 0.500000 0.091234 0.274026
O O20 0.420364 0.000000 0.209765
#
# Coordination Sequence:
#
# PCOD8291395 Si02
#       7
#    16  16  16  16   8  16  16
#     4   9  17  29  44  62  87 126 178 223 250 278
#     4   9  16  27  45  72 104 137 169 197 235 292
#     4  12  19  29  47  69 100 138 173 205 243 288
#     4   8  15  29  51  78 104 127 156 200 250 301
#     4  11  20  26  39  67  99 131 169 209 240 275
#     4  10  21  34  48  71 103 132 160 206 262 305
#     4   9  18  34  55  75  94 123 164 208 258 319
#
# _framework density 17.582750999999998
#
# number of rings (size 3 to 8) (size 9 to 14) (size 15 to 20)
#    0.000    2.385    1.538    4.154    0.000    1.846 
#    0.000    4.615    0.000    1.846    0.000    2.154 
#    0.000    0.000    0.000    0.000    0.000    0.000 
#
# Total GULP energy -644701.083023 kJ/mol
# GULP energy per Si atom -12398.097750 kJ/mol
# Density = 1.754273 g / cm^3
# Si number density = 17.582751 Si / 1000 Ang^3
#
#
#
# Elastic Constant Matrix: (Units=GPa)
#
#
# Indices 1 2 3 4 5 6 
#
# 1 83.4099 27.5119 53.3371 0.0000 0.0000 0.0000
# 2 27.5119 62.3417 35.2624 0.0000 0.0000 0.0000
# 3 53.3371 35.2624 118.5162 0.0000 0.0000 0.0000
# 4 0.0000 0.0000 0.0000 21.8096 0.0000 0.0000
# 5 0.0000 0.0000 0.0000 0.0000 28.6517 0.0000
# 6 0.0000 0.0000 0.0000 0.0000 0.0000 15.7468
#
#
#
# Elastic Compliance Matrix: (Units=1/GPa)
#
#
# Indices 1 2 3 4 5 6 
#
# 1 0.017608 -0.003954 -0.006748 0.000000 0.000000 0.000000
# 2 -0.003954 0.020174 -0.004223 0.000000 0.000000 0.000000
# 3 -0.006748 -0.004223 0.012731 0.000000 0.000000 0.000000
# 4 0.000000 0.000000 0.000000 0.045851 0.000000 0.000000
# 5 0.000000 0.000000 0.000000 0.000000 0.034902 0.000000
# 6 0.000000 0.000000 0.000000 0.000000 0.000000 0.063505
#
#
# Mechanical properties :
#
#
# Convention : Reuss Voigt Hill
#
# Bulk Modulus (GPa) = 48.39421 55.16564 51.77992
# Shear Modulus (GPa) = 21.59736 23.11867 22.35802
#
# Velocity S-wave (km/s) = 3.50855 3.63002 3.56980
# Velocity P-wave (km/s) = 6.63300 7.00088 6.81942
#
# Compressibility (1/GPa) = 0.02066363
#
# Stress axis : x y z
#
# Youngs Moduli (GPa) = 56.79179 49.56824 78.54792
#
# Poissons Ratio (x) = 0.19598 0.53004
# Poissons Ratio (y) = 0.22454 0.33172
# Poissons Ratio (z) = 0.38323 0.20933
#
# Static dielectric constant tensor:
#      x y z
#    x 3.308860 0.000000 0.000000 
#    y 0.000000 2.983250 0.000000 
#    z 0.000000 0.000000 3.475690 
# 
# 
# High freq. dielectric constant tensor:
#      x y z
#    x 1.669920 0.000000 0.000000 
#    y 0.000000 1.651040 0.000000 
#    z 0.000000 0.000000 1.676240 
# 
# From -- ./inp_files/39268.got.cif
#   From: 2010.06.25/outbox.cif.g09.slc.cpg/sg71_20_cif.got.tgz:39268.got - 2010.06.28 04:59:45.
