data_PCOD8291787
_publ_section_title
;
Structure prediction by ZEFSAII (Michael W. Deem and Ramdas Pophale) SiO2 
 PCOD8291787
Probable space group: I M M M
;
_chemical_formula_sum "Si O2"
_cell_formula_units_Z 64
_cell_length_a 14.694291
_cell_length_b 8.637911
_cell_length_c 25.467038
_cell_angle_alpha 90.000000
_cell_angle_beta 90.000000
_cell_angle_gamma 90.000000
_cell_volume 3232.479636
_symmetry_space_group_name_H-M "I M M M"
_symmetry_group_IT_number 71
_symmetry_cell_setting 'orthorhombic'
loop_
_space_group_symop_operation_xyz
x,y,z
-x,-y,z
x,-y,-z
-x,y,-z
-x,-y,-z
x,y,-z
-x,y,z
x,-y,z
1/2+x,1/2+y,1/2+z
1/2-x,1/2-y,1/2+z
1/2+x,1/2-y,1/2-z
1/2-x,1/2+y,1/2-z
1/2-x,1/2-y,1/2-z
1/2+x,1/2+y,1/2-z
1/2-x,1/2+y,1/2+z
1/2+x,1/2-y,1/2+z
loop_
_atom_site_type_symbol
_atom_site_label
_atom_site_fract_x
_atom_site_fract_y
_atom_site_fract_z
Si Si1 0.000000 0.180545 0.328503
Si Si2 0.895821 0.816780 0.500000
Si Si3 0.664653 0.181829 0.108112
Si Si4 0.000000 0.677045 0.782142
Si Si5 0.352969 0.179911 0.369011
Si Si6 0.500000 0.324195 0.561838
O O1 0.911519 0.256272 0.353120
O O2 0.000000 0.206777 0.266347
O O3 0.000000 0.000000 0.341583
O O4 0.843295 0.756384 0.449185
O O5 0.000000 0.756039 0.500000
O O6 0.893564 0.000000 0.500000
O O7 0.760464 0.223989 0.134407
O O8 0.654697 0.000000 0.102143
O O9 0.089880 0.710500 0.816226
O O10 0.000000 0.500000 0.762150
O O11 0.410134 0.236587 0.418921
O O12 0.330349 0.000000 0.376217
O O13 0.500000 0.500000 0.583257
O O14 0.500000 0.320469 0.500000
#
# Coordination Sequence:
#
# PCOD8291787 Si02
#       6
#     8   8  16   8  16   8
#     4  12  25  42  65  92 123 162 208 257 312 370
#     4  11  23  41  65  90 124 165 206 254 308 367
#     4  12  25  41  64  93 127 164 207 255 308 369
#     4   9  21  43  67  91 121 161 207 258 311 361
#     4  10  22  41  64  90 124 163 207 255 307 368
#     4  10  21  37  58  87 124 161 206 255 303 365
#
# _framework density 19.799042
#
# number of rings (size 3 to 8) (size 9 to 14) (size 15 to 20)
#    0.000    1.250    1.250    5.625    1.750    5.500 
#    0.000    0.000    0.000    0.000    0.000    0.000 
#    0.000    0.000    0.000    0.000    0.000    0.000 
#
# Total GULP energy -397009.647053 kJ/mol
# GULP energy per Si atom -12406.551470 kJ/mol
# Density = 1.975398 g / cm^3
# Si number density = 19.799042 Si / 1000 Ang^3
#
#
#
# Elastic Constant Matrix: (Units=GPa)
#
#
# Indices 1 2 3 4 5 6 
#
# 1 147.0272 39.1320 43.9170 0.0000 0.0000 0.0000
# 2 39.1320 111.6898 39.3952 0.0000 0.0000 0.0000
# 3 43.9170 39.3952 109.0032 0.0000 0.0000 0.0000
# 4 0.0000 0.0000 0.0000 34.0487 0.0000 0.0000
# 5 0.0000 0.0000 0.0000 0.0000 -12.1686 0.0000
# 6 0.0000 0.0000 0.0000 0.0000 0.0000 46.1640
#
#
#
# Elastic Compliance Matrix: (Units=1/GPa)
#
#
# Indices 1 2 3 4 5 6 
#
# 1 0.008079 -0.001928 -0.002558 0.000000 0.000000 0.000000
# 2 -0.001928 0.010722 -0.003098 0.000000 0.000000 0.000000
# 3 -0.002558 -0.003098 0.011324 0.000000 0.000000 0.000000
# 4 0.000000 0.000000 0.000000 0.029370 0.000000 0.000000
# 5 0.000000 0.000000 0.000000 0.000000 -0.082179 0.000000
# 6 0.000000 0.000000 0.000000 0.000000 0.000000 0.021662
#
#
# Mechanical properties :
#
#
# Convention : Reuss Voigt Hill
#
# Bulk Modulus (GPa) = 66.86218 68.06761 67.46490
# Shear Modulus (GPa) = 261.34581 29.96055 145.65318
#
# Velocity S-wave (km/s) = 11.50156 3.89425 8.58635
# Velocity P-wave (km/s) = 14.49913 7.39419 11.50867
#
# Compressibility (1/GPa) = 0.01495614
#
# Stress axis : x y z
#
# Youngs Moduli (GPa) = 123.78150 93.26869 88.30533
#
# Poissons Ratio (x) = 0.17984 0.22589
# Poissons Ratio (y) = 0.23868 0.27358
# Poissons Ratio (z) = 0.31663 0.28895
#
# Static dielectric constant tensor:
#      x y z
#    x 3.372960 0.000000 0.000000 
#    y 0.000000 3.800390 0.000000 
#    z 0.000000 0.000000 3.540540 
# 
# 
# High freq. dielectric constant tensor:
#      x y z
#    x 1.781850 0.000000 0.000000 
#    y 0.000000 1.788280 0.000000 
#    z 0.000000 0.000000 1.773360 
# 
# From -- ./inp_files/31252.got.cif
#   From: 2010.06.25/outbox.cif.g09.slc.cpg/sg71_16_cif.got.tgz:31252.got - 2010.06.28 04:59:45.
