data_PCOD8291001
_publ_section_title
;
Structure prediction by ZEFSAII (Michael W. Deem and Ramdas Pophale) SiO2 
 PCOD8291001
Probable space group: I M M M
;
_chemical_formula_sum "Si O2"
_cell_formula_units_Z 104
_cell_length_a 14.123238
_cell_length_b 18.160869
_cell_length_c 21.120345
_cell_angle_alpha 90.000000
_cell_angle_beta 90.000000
_cell_angle_gamma 90.000000
_cell_volume 5417.163101
_symmetry_space_group_name_H-M "I M M M"
_symmetry_group_IT_number 71
_symmetry_cell_setting 'orthorhombic'
loop_
_space_group_symop_operation_xyz
x,y,z
-x,-y,z
x,-y,-z
-x,y,-z
-x,-y,-z
x,y,-z
-x,y,z
x,-y,z
1/2+x,1/2+y,1/2+z
1/2-x,1/2-y,1/2+z
1/2+x,1/2-y,1/2-z
1/2-x,1/2+y,1/2-z
1/2-x,1/2-y,1/2-z
1/2+x,1/2+y,1/2-z
1/2-x,1/2+y,1/2+z
1/2+x,1/2-y,1/2+z
loop_
_atom_site_type_symbol
_atom_site_label
_atom_site_fract_x
_atom_site_fract_y
_atom_site_fract_z
Si Si1 0.107522 0.170214 0.427087
Si Si2 0.270047 0.835620 0.748427
Si Si3 0.105505 0.412623 0.000000
Si Si4 0.892962 0.912931 0.815350
Si Si5 0.222548 0.413404 0.879238
Si Si6 0.234369 0.915708 0.070547
Si Si7 0.390119 0.172987 0.130963
O O1 0.132506 0.189160 0.500000
O O2 0.170122 0.103611 0.400188
O O3 0.125701 0.240900 0.382814
O O4 0.000000 0.143252 0.421438
O O5 0.250000 0.750000 0.750000
O O6 0.171120 0.877666 0.760720
O O7 0.308873 0.865847 0.681724
O O8 0.350394 0.851496 0.800637
O O9 0.156550 0.385036 0.936410
O O10 0.106078 0.500000 0.000000
O O11 0.000000 0.380177 0.000000
O O12 0.848784 0.888516 0.882756
O O13 0.000000 0.882108 0.810830
O O14 0.892460 0.000000 0.806597
O O15 0.211699 0.500000 0.865038
O O16 0.331837 0.871441 0.078375
O O17 0.259172 0.000000 0.084773
O O18 0.195165 0.903977 0.000000
O O19 0.500000 0.151322 0.126204
#
# Coordination Sequence:
#
# PCOD8291001 Si02
#       7
#    16  16   8  16  16  16  16
#     4  10  20  35  58  87 118 152 190 232 289 353
#     4  11  22  37  58  82 113 153 191 238 281 342
#     4   9  20  40  63  85 111 145 187 236 290 344
#     4   9  19  36  57  83 116 152 190 234 285 337
#     4  11  22  38  61  86 114 150 191 239 294 344
#     4   9  18  33  55  83 114 151 195 240 283 332
#     4  10  21  37  56  81 116 156 192 235 289 343
#
# _framework density 19.198239999999998
#
# number of rings (size 3 to 8) (size 9 to 14) (size 15 to 20)
#    0.000    2.077    2.308    0.923    0.000    4.308 
#    0.000    3.077    0.000    0.000    0.000    0.000 
#    0.000    0.000    0.000    0.000    0.000    0.000 
#
# Total GULP energy -644825.742628 kJ/mol
# GULP energy per Si atom -12400.495051 kJ/mol
# Density = 1.915454 g / cm^3
# Si number density = 19.198240 Si / 1000 Ang^3
#
#
#
# Elastic Constant Matrix: (Units=GPa)
#
#
# Indices 1 2 3 4 5 6 
#
# 1 104.8329 26.3911 34.9806 0.0000 0.0000 0.0000
# 2 26.3911 53.6818 30.9299 0.0000 0.0000 0.0000
# 3 34.9806 30.9299 122.6656 0.0000 0.0000 0.0000
# 4 0.0000 0.0000 0.0000 29.3692 0.0000 0.0000
# 5 0.0000 0.0000 0.0000 0.0000 20.2120 0.0000
# 6 0.0000 0.0000 0.0000 0.0000 0.0000 27.3380
#
#
#
# Elastic Compliance Matrix: (Units=1/GPa)
#
#
# Indices 1 2 3 4 5 6 
#
# 1 0.011347 -0.004345 -0.002140 0.000000 0.000000 0.000000
# 2 -0.004345 0.023459 -0.004676 0.000000 0.000000 0.000000
# 3 -0.002140 -0.004676 0.009942 0.000000 0.000000 0.000000
# 4 0.000000 0.000000 0.000000 0.034049 0.000000 0.000000
# 5 0.000000 0.000000 0.000000 0.000000 0.049476 0.000000
# 6 0.000000 0.000000 0.000000 0.000000 0.000000 0.036579
#
#
# Mechanical properties :
#
#
# Convention : Reuss Voigt Hill
#
# Bulk Modulus (GPa) = 44.59414 51.75371 48.17393
# Shear Modulus (GPa) = 25.68729 27.97576 26.83153
#
# Velocity S-wave (km/s) = 3.66184 3.82148 3.74251
# Velocity P-wave (km/s) = 6.41541 6.81818 6.61986
#
# Compressibility (1/GPa) = 0.02242447
#
# Stress axis : x y z
#
# Youngs Moduli (GPa) = 88.12878 42.62826 100.58772
#
# Poissons Ratio (x) = 0.18523 0.21528
# Poissons Ratio (y) = 0.38295 0.47034
# Poissons Ratio (z) = 0.18861 0.19932
#
# Static dielectric constant tensor:
#      x y z
#    x 3.576780 0.000000 0.000000 
#    y 0.000000 3.340880 0.000000 
#    z 0.000000 0.000000 3.716740 
# 
# 
# High freq. dielectric constant tensor:
#      x y z
#    x 1.741470 0.000000 0.000000 
#    y 0.000000 1.732630 0.000000 
#    z 0.000000 0.000000 1.759610 
# 
# From -- ./inp_files/53205.got.cif
#   From: 2010.06.25/outbox.cif.g09.slc.cpg/sg71_27_cif.got.tgz:53205.got - 2010.06.28 04:59:45.
