data_PCOD8291171
_publ_section_title
;
Structure prediction by ZEFSAII (Michael W. Deem and Ramdas Pophale) SiO2 
 PCOD8291171
Probable space group: I M M M
;
_chemical_formula_sum "Si O2"
_cell_formula_units_Z 64
_cell_length_a 7.965678
_cell_length_b 22.172115
_cell_length_c 18.260437
_cell_angle_alpha 90.000000
_cell_angle_beta 90.000000
_cell_angle_gamma 90.000000
_cell_volume 3225.084039
_symmetry_space_group_name_H-M "I M M M"
_symmetry_group_IT_number 71
_symmetry_cell_setting 'orthorhombic'
loop_
_space_group_symop_operation_xyz
x,y,z
-x,-y,z
x,-y,-z
-x,y,-z
-x,-y,-z
x,y,-z
-x,y,z
x,-y,z
1/2+x,1/2+y,1/2+z
1/2-x,1/2-y,1/2+z
1/2+x,1/2-y,1/2-z
1/2-x,1/2+y,1/2-z
1/2-x,1/2-y,1/2-z
1/2+x,1/2+y,1/2-z
1/2-x,1/2+y,1/2+z
1/2+x,1/2-y,1/2+z
loop_
_atom_site_type_symbol
_atom_site_label
_atom_site_fract_x
_atom_site_fract_y
_atom_site_fract_z
Si Si1 0.813693 0.143210 0.414713
Si Si2 0.000000 0.432685 0.087344
Si Si3 0.196892 0.369032 0.585913
Si Si4 0.808789 0.246044 0.167361
Si Si5 0.698651 0.000000 0.080509
O O1 0.782790 0.152755 0.500000
O O2 0.669016 0.099505 0.382767
O O3 0.805431 0.208892 0.379105
O O4 0.000000 0.115863 0.399659
O O5 0.000000 0.500000 0.119608
O O6 0.000000 0.434078 0.000000
O O7 0.244138 0.362351 0.500000
O O8 0.294386 0.321127 0.635242
O O9 0.251875 0.435920 0.616984
O O10 0.000000 0.358711 0.596898
O O11 0.750000 0.250000 0.250000
O O12 0.000000 0.267361 0.161343
O O13 0.500000 0.000000 0.072844
O O14 0.778853 0.000000 0.000000
#
# Coordination Sequence:
#
# PCOD8291171 Si02
#       5
#    16   8  16  16   8
#     4  10  20  36  59  86 116 148 187 234 283 336
#     4   9  18  34  58  88 118 147 184 230 280 336
#     4   9  17  32  56  84 111 143 183 224 273 331
#     4  12  24  37  54  77 110 147 190 239 287 341
#     4   7  12  26  51  81 111 141 176 217 260 322
#
# _framework density 19.844443999999999
#
# number of rings (size 3 to 8) (size 9 to 14) (size 15 to 20)
#    0.000    2.250    1.250    4.500    0.000    4.000 
#    0.000    3.125    2.750    2.250    0.000    0.000 
#    0.000    0.000    0.000    0.000    0.000    0.000 
#
# Total GULP energy -396568.477239 kJ/mol
# GULP energy per Si atom -12392.764914 kJ/mol
# Density = 1.979928 g / cm^3
# Si number density = 19.844444 Si / 1000 Ang^3
#
#
#
# Elastic Constant Matrix: (Units=GPa)
#
#
# Indices 1 2 3 4 5 6 
#
# 1 114.1242 49.8822 33.0718 0.0000 0.0000 0.0000
# 2 49.8822 154.4598 41.6289 0.0000 0.0000 0.0000
# 3 33.0718 41.6289 54.6622 0.0000 0.0000 0.0000
# 4 0.0000 0.0000 0.0000 5.6916 0.0000 0.0000
# 5 0.0000 0.0000 0.0000 0.0000 21.3069 0.0000
# 6 0.0000 0.0000 0.0000 0.0000 0.0000 28.7963
#
#
#
# Elastic Compliance Matrix: (Units=1/GPa)
#
#
# Indices 1 2 3 4 5 6 
#
# 1 0.011217 -0.002257 -0.005068 0.000000 0.000000 0.000000
# 2 -0.002257 0.008600 -0.005184 0.000000 0.000000 0.000000
# 3 -0.005068 -0.005184 0.025309 0.000000 0.000000 0.000000
# 4 0.000000 0.000000 0.000000 0.175698 0.000000 0.000000
# 5 0.000000 0.000000 0.000000 0.000000 0.046933 0.000000
# 6 0.000000 0.000000 0.000000 0.000000 0.000000 0.034727
#
#
# Mechanical properties :
#
#
# Convention : Reuss Voigt Hill
#
# Bulk Modulus (GPa) = 49.73130 63.60133 56.66632
# Shear Modulus (GPa) = 14.96088 24.40316 19.68202
#
# Velocity S-wave (km/s) = 2.74872 3.51054 3.15273
# Velocity P-wave (km/s) = 5.93202 6.96788 6.47072
#
# Compressibility (1/GPa) = 0.02010806
#
# Stress axis : x y z
#
# Youngs Moduli (GPa) = 89.14684 116.27637 39.51215
#
# Poissons Ratio (x) = 0.26240 0.20025
# Poissons Ratio (y) = 0.20118 0.20484
# Poissons Ratio (z) = 0.45181 0.60281
#
# Static dielectric constant tensor:
#      x y z
#    x 3.654020 0.000000 0.000000 
#    y 0.000000 3.900830 0.000000 
#    z 0.000000 0.000000 2.833480 
# 
# 
# High freq. dielectric constant tensor:
#      x y z
#    x 1.774280 0.000000 0.000000 
#    y 0.000000 1.782860 0.000000 
#    z 0.000000 0.000000 1.728680 
# 
# From -- ./inp_files/41888.got.cif
#   From: 2010.06.25/outbox.cif.g09.slc.cpg/sg71_21_cif.got.tgz:41888.got - 2010.06.28 04:59:45.
