data_PCOD8291213
_publ_section_title
;
Structure prediction by ZEFSAII (Michael W. Deem and Ramdas Pophale) SiO2 
 PCOD8291213
Probable space group: I M M M
;
_chemical_formula_sum "Si O2"
_cell_formula_units_Z 44
_cell_length_a 12.251523
_cell_length_b 10.281132
_cell_length_c 18.241739
_cell_angle_alpha 90.000000
_cell_angle_beta 90.000000
_cell_angle_gamma 90.000000
_cell_volume 2297.720783
_symmetry_space_group_name_H-M "I M M M"
_symmetry_group_IT_number 71
_symmetry_cell_setting 'orthorhombic'
loop_
_space_group_symop_operation_xyz
x,y,z
-x,-y,z
x,-y,-z
-x,y,-z
-x,-y,-z
x,y,-z
-x,y,z
x,-y,z
1/2+x,1/2+y,1/2+z
1/2-x,1/2-y,1/2+z
1/2+x,1/2-y,1/2-z
1/2-x,1/2+y,1/2-z
1/2-x,1/2-y,1/2-z
1/2+x,1/2+y,1/2-z
1/2-x,1/2+y,1/2+z
1/2+x,1/2-y,1/2+z
loop_
_atom_site_type_symbol
_atom_site_label
_atom_site_fract_x
_atom_site_fract_y
_atom_site_fract_z
Si Si1 0.000000 0.000000 0.300275
Si Si2 0.000000 0.857189 0.840587
Si Si3 0.682337 0.500000 0.919426
Si Si4 0.286943 0.276312 0.416823
Si Si5 0.376604 0.000000 0.086577
O O1 0.000000 0.128239 0.248258
O O2 0.102793 0.000000 0.351907
O O3 0.108286 0.783769 0.865157
O O4 0.000000 0.000000 0.877996
O O5 0.755191 0.626961 0.912650
O O6 0.623893 0.500000 0.000000
O O7 0.317320 0.316570 0.500000
O O8 0.189750 0.371049 0.387919
O O9 0.500000 0.000000 0.120737
O O10 0.389278 0.000000 0.000000
#
# Coordination Sequence:
#
# PCOD8291213 Si02
#       5
#     4   8   8  16   8
#     4  10  23  40  59  86 122 168 196 238 293 374
#     4  10  21  38  58  89 115 161 196 240 296 353
#     4  10  23  39  60  90 120 158 198 249 304 349
#     4  10  20  36  61  89 120 154 199 253 298 350
#     4   9  17  29  50  84 117 149 193 242 289 340
#
# _framework density 19.149412000000002
#
# number of rings (size 3 to 8) (size 9 to 14) (size 15 to 20)
#    0.545    1.636    1.818    0.818    2.545    2.909 
#    0.000    2.727    0.000    0.000    0.000    0.000 
#    0.000    0.000    0.000    0.000    0.000    0.000 
#
# Total GULP energy -272665.479042 kJ/mol
# GULP energy per Si atom -12393.885411 kJ/mol
# Density = 1.910583 g / cm^3
# Si number density = 19.149412 Si / 1000 Ang^3
#
#
#
# Elastic Constant Matrix: (Units=GPa)
#
#
# Indices 1 2 3 4 5 6 
#
# 1 158.2419 56.4281 73.0790 0.0000 0.0000 0.0000
# 2 56.4281 135.8211 35.7743 0.0000 0.0000 0.0000
# 3 73.0790 35.7743 122.0828 0.0000 0.0000 0.0000
# 4 0.0000 0.0000 0.0000 32.7968 0.0000 0.0000
# 5 0.0000 0.0000 0.0000 0.0000 30.1666 0.0000
# 6 0.0000 0.0000 0.0000 0.0000 0.0000 25.4645
#
#
#
# Elastic Compliance Matrix: (Units=1/GPa)
#
#
# Indices 1 2 3 4 5 6 
#
# 1 0.009550 -0.002668 -0.004935 0.000000 0.000000 0.000000
# 2 -0.002668 0.008724 -0.000959 0.000000 0.000000 0.000000
# 3 -0.004935 -0.000959 0.011426 0.000000 0.000000 0.000000
# 4 0.000000 0.000000 0.000000 0.030491 0.000000 0.000000
# 5 0.000000 0.000000 0.000000 0.000000 0.033149 0.000000
# 6 0.000000 0.000000 0.000000 0.000000 0.000000 0.039270
#
#
# Mechanical properties :
#
#
# Convention : Reuss Voigt Hill
#
# Bulk Modulus (GPa) = 79.51753 82.96764 81.24258
# Shear Modulus (GPa) = 32.48322 34.40988 33.44655
#
# Velocity S-wave (km/s) = 4.12309 4.24360 4.18378
# Velocity P-wave (km/s) = 8.01757 8.21166 8.11520
#
# Compressibility (1/GPa) = 0.01257584
#
# Stress axis : x y z
#
# Youngs Moduli (GPa) = 104.71553 114.63081 87.51784
#
# Poissons Ratio (x) = 0.30580 0.43188
# Poissons Ratio (y) = 0.27935 0.08397
# Poissons Ratio (z) = 0.51674 0.10998
#
# Static dielectric constant tensor:
#      x y z
#    x 3.459340 0.000000 0.000000 
#    y 0.000000 3.347940 0.000000 
#    z 0.000000 0.000000 3.365520 
# 
# 
# High freq. dielectric constant tensor:
#      x y z
#    x 1.744350 0.000000 0.000000 
#    y 0.000000 1.746760 0.000000 
#    z 0.000000 0.000000 1.720870 
# 
# From -- ./inp_files/42738.got.cif
#   From: 2010.06.25/outbox.cif.g09.slc.cpg/sg71_22_cif.got.tgz:42738.got - 2010.06.28 04:59:45.
