data_PCOD8291627
_publ_section_title
;
Structure prediction by ZEFSAII (Michael W. Deem and Ramdas Pophale) SiO2 
 PCOD8291627
Probable space group: I M M M
;
_chemical_formula_sum "Si O2"
_cell_formula_units_Z 88
_cell_length_a 18.717016
_cell_length_b 24.445199
_cell_length_c 9.253638
_cell_angle_alpha 90.000000
_cell_angle_beta 90.000000
_cell_angle_gamma 90.000000
_cell_volume 4233.920457
_symmetry_space_group_name_H-M "I M M M"
_symmetry_group_IT_number 71
_symmetry_cell_setting 'orthorhombic'
loop_
_space_group_symop_operation_xyz
x,y,z
-x,-y,z
x,-y,-z
-x,y,-z
-x,-y,-z
x,y,-z
-x,y,z
x,-y,z
1/2+x,1/2+y,1/2+z
1/2-x,1/2-y,1/2+z
1/2+x,1/2-y,1/2-z
1/2-x,1/2+y,1/2-z
1/2-x,1/2-y,1/2-z
1/2+x,1/2+y,1/2-z
1/2-x,1/2+y,1/2+z
1/2+x,1/2-y,1/2+z
loop_
_atom_site_type_symbol
_atom_site_label
_atom_site_fract_x
_atom_site_fract_y
_atom_site_fract_z
Si Si1 0.919359 0.737952 0.167166
Si Si2 0.360967 0.936875 0.831392
Si Si3 0.638088 0.337498 0.165989
Si Si4 0.083506 0.062292 0.833907
Si Si5 0.500000 0.064707 0.338856
Si Si6 0.201215 0.346050 0.834387
O O1 0.911633 0.794252 0.253298
O O2 0.860269 0.694948 0.222651
O O3 0.000000 0.715051 0.191858
O O4 0.905709 0.751457 0.000000
O O5 0.431233 0.915763 0.748582
O O6 0.297790 0.900124 0.766346
O O7 0.343487 0.000000 0.799806
O O8 0.371767 0.926323 0.000000
O O9 0.628236 0.397638 0.232258
O O10 0.720850 0.319101 0.181475
O O11 0.614466 0.339432 0.000000
O O12 0.000000 0.072674 0.809222
O O13 0.103525 0.000000 0.792741
O O14 0.103990 0.073700 0.000000
O O15 0.500000 0.091056 0.500000
O O16 0.500000 0.000000 0.350490
O O17 0.186158 0.363143 0.000000
#
# Coordination Sequence:
#
# PCOD8291627 Si02
#       6
#    16  16  16  16   8  16
#     4  10  22  41  64  86 109 145 196 246 289 346
#     4  10  21  36  55  83 117 151 192 242 292 340
#     4  11  23  38  58  87 122 155 188 235 296 356
#     4   9  19  37  61  88 118 155 199 241 282 339
#     4   9  17  31  53  77 105 147 191 231 280 337
#     4  10  23  40  58  84 117 154 197 241 289 351
#
# _framework density 20.784520000000001
#
# number of rings (size 3 to 8) (size 9 to 14) (size 15 to 20)
#    0.000    2.091    0.000    3.000    1.273    8.364 
#    0.000    4.545    0.000    0.000    0.000    0.000 
#    0.000    0.000    0.000    0.000    0.000    0.000 
#
# Total GULP energy -545706.866677 kJ/mol
# GULP energy per Si atom -12402.428788 kJ/mol
# Density = 2.073721 g / cm^3
# Si number density = 20.784520 Si / 1000 Ang^3
#
#
#
# Elastic Constant Matrix: (Units=GPa)
#
#
# Indices 1 2 3 4 5 6 
#
# 1 79.6479 32.9010 32.1710 0.0000 0.0000 0.0000
# 2 32.9010 91.5186 48.9259 0.0000 0.0000 0.0000
# 3 32.1710 48.9259 97.9422 0.0000 0.0000 0.0000
# 4 0.0000 0.0000 0.0000 31.8030 0.0000 0.0000
# 5 0.0000 0.0000 0.0000 0.0000 30.2519 0.0000
# 6 0.0000 0.0000 0.0000 0.0000 0.0000 33.8979
#
#
#
# Elastic Compliance Matrix: (Units=1/GPa)
#
#
# Indices 1 2 3 4 5 6 
#
# 1 0.015418 -0.003869 -0.003132 0.000000 0.000000 0.000000
# 2 -0.003869 0.015879 -0.006661 0.000000 0.000000 0.000000
# 3 -0.003132 -0.006661 0.014566 0.000000 0.000000 0.000000
# 4 0.000000 0.000000 0.000000 0.031444 0.000000 0.000000
# 5 0.000000 0.000000 0.000000 0.000000 0.033056 0.000000
# 6 0.000000 0.000000 0.000000 0.000000 0.000000 0.029500
#
#
# Mechanical properties :
#
#
# Convention : Reuss Voigt Hill
#
# Bulk Modulus (GPa) = 53.93805 55.23383 54.58594
# Shear Modulus (GPa) = 28.84062 29.53128 29.18595
#
# Velocity S-wave (km/s) = 3.72909 3.77348 3.75135
# Velocity P-wave (km/s) = 6.67450 6.75409 6.71441
#
# Compressibility (1/GPa) = 0.01853979
#
# Stress axis : x y z
#
# Youngs Moduli (GPa) = 64.85784 62.97783 68.65106
#
# Poissons Ratio (x) = 0.24363 0.21501
# Poissons Ratio (y) = 0.25091 0.45730
# Poissons Ratio (z) = 0.20313 0.41951
#
# Static dielectric constant tensor:
#      x y z
#    x 3.717270 0.000000 0.000000 
#    y 0.000000 3.612480 0.000000 
#    z 0.000000 0.000000 3.705800 
# 
# 
# High freq. dielectric constant tensor:
#      x y z
#    x 1.813260 0.000000 0.000000 
#    y 0.000000 1.809970 0.000000 
#    z 0.000000 0.000000 1.810990 
# 
# From -- ./inp_files/10471.got.cif
#   From: 2010.06.25/outbox.cif.g09.slc.cpg/sg71_6_cif.got.tgz:10471.got - 2010.06.28 04:59:45.
