data_PCOD8291915
_publ_section_title
;
Structure prediction by ZEFSAII (Michael W. Deem and Ramdas Pophale) SiO2 
 PCOD8291915
Probable space group: I M M M
;
_chemical_formula_sum "Si O2"
_cell_formula_units_Z 64
_cell_length_a 8.854576
_cell_length_b 11.037059
_cell_length_c 35.077997
_cell_angle_alpha 90.000000
_cell_angle_beta 90.000000
_cell_angle_gamma 90.000000
_cell_volume 3428.119249
_symmetry_space_group_name_H-M "I M M M"
_symmetry_group_IT_number 71
_symmetry_cell_setting 'orthorhombic'
loop_
_space_group_symop_operation_xyz
x,y,z
-x,-y,z
x,-y,-z
-x,y,-z
-x,-y,-z
x,y,-z
-x,y,z
x,-y,z
1/2+x,1/2+y,1/2+z
1/2-x,1/2-y,1/2+z
1/2+x,1/2-y,1/2-z
1/2-x,1/2+y,1/2-z
1/2-x,1/2-y,1/2-z
1/2+x,1/2+y,1/2-z
1/2-x,1/2+y,1/2+z
1/2+x,1/2-y,1/2+z
loop_
_atom_site_type_symbol
_atom_site_label
_atom_site_fract_x
_atom_site_fract_y
_atom_site_fract_z
Si Si1 0.165872 0.359987 0.000000
Si Si2 0.177709 0.000000 0.955806
Si Si3 0.177683 0.639146 0.773397
Si Si4 0.170345 0.861179 0.352115
Si Si5 0.178604 0.258570 0.569935
O O1 0.258045 0.328612 0.037572
O O2 0.136514 0.500000 0.000000
O O3 0.000000 0.293779 0.000000
O O4 0.248964 0.888345 0.934305
O O5 0.000000 0.000000 0.950843
O O6 0.225947 0.000000 0.000000
O O7 0.232080 0.500000 0.762142
O O8 0.250000 0.750000 0.750000
O O9 0.218395 0.664524 0.817192
O O10 0.000000 0.647116 0.767755
O O11 0.227648 0.786539 0.388412
O O12 0.000000 0.823348 0.340209
O O13 0.174463 0.000000 0.364668
O O14 0.000000 0.264061 0.565562
#
# Coordination Sequence:
#
# PCOD8291915 Si02
#       5
#     8   8  16  16  16
#     4  11  23  36  53  80 113 147 183 229 282 335
#     4  11  23  39  57  77 110 152 192 236 288 342
#     4  10  21  38  62  91 121 156 195 236 287 347
#     4   9  19  37  60  86 116 148 184 232 285 336
#     4  11  22  37  59  83 109 145 191 236 283 336
#
# _framework density 18.669128000000001
#
# number of rings (size 3 to 8) (size 9 to 14) (size 15 to 20)
#    0.000    1.750    1.250    3.000    0.000    6.000 
#    2.250    2.500    0.000    0.000    0.000    0.000 
#    0.000    0.000    0.000    0.000    0.000    0.000 
#
# Total GULP energy -396721.410093 kJ/mol
# GULP energy per Si atom -12397.544065 kJ/mol
# Density = 1.862664 g / cm^3
# Si number density = 18.669128 Si / 1000 Ang^3
#
#
#
# Elastic Constant Matrix: (Units=GPa)
#
#
# Indices 1 2 3 4 5 6 
#
# 1 80.2835 52.4244 54.6869 0.0000 0.0000 0.0000
# 2 52.4244 131.3083 81.7345 0.0000 0.0000 0.0000
# 3 54.6869 81.7345 126.2830 0.0000 0.0000 0.0000
# 4 0.0000 0.0000 0.0000 40.5179 0.0000 0.0000
# 5 0.0000 0.0000 0.0000 0.0000 31.9113 0.0000
# 6 0.0000 0.0000 0.0000 0.0000 0.0000 30.0557
#
#
#
# Elastic Compliance Matrix: (Units=1/GPa)
#
#
# Indices 1 2 3 4 5 6 
#
# 1 0.018903 -0.004105 -0.005529 0.000000 0.000000 0.000000
# 2 -0.004105 0.013646 -0.007054 0.000000 0.000000 0.000000
# 3 -0.005529 -0.007054 0.014878 0.000000 0.000000 0.000000
# 4 0.000000 0.000000 0.000000 0.024680 0.000000 0.000000
# 5 0.000000 0.000000 0.000000 0.000000 0.031337 0.000000
# 6 0.000000 0.000000 0.000000 0.000000 0.000000 0.033272
#
#
# Mechanical properties :
#
#
# Convention : Reuss Voigt Hill
#
# Bulk Modulus (GPa) = 71.17158 79.50738 75.33948
# Shear Modulus (GPa) = 28.60817 30.43224 29.52020
#
# Velocity S-wave (km/s) = 3.91881 4.04181 3.98078
# Velocity P-wave (km/s) = 7.66038 8.02880 7.84676
#
# Compressibility (1/GPa) = 0.01405055
#
# Stress axis : x y z
#
# Youngs Moduli (GPa) = 52.90277 73.28350 67.21120
#
# Poissons Ratio (x) = 0.30086 0.37158
# Poissons Ratio (y) = 0.21719 0.47411
# Poissons Ratio (z) = 0.29248 0.51694
#
# Static dielectric constant tensor:
#      x y z
#    x 3.550660 0.000000 0.000000 
#    y 0.000000 3.597260 0.000000 
#    z 0.000000 0.000000 3.411490 
# 
# 
# High freq. dielectric constant tensor:
#      x y z
#    x 1.735090 0.000000 0.000000 
#    y 0.000000 1.733260 0.000000 
#    z 0.000000 0.000000 1.721830 
# 
# From -- ./inp_files/3731.got.cif
#   From: 2010.06.25/outbox.cif.g09.slc.cpg/sg71_2_cif.got.tgz:3731.got - 2010.06.28 04:59:45.
