data_PCOD8291143
_publ_section_title
;
Structure prediction by ZEFSAII (Michael W. Deem and Ramdas Pophale) SiO2 
 PCOD8291143
Probable space group: I M M M
;
_chemical_formula_sum "Si O2"
_cell_formula_units_Z 104
_cell_length_a 27.047020
_cell_length_b 11.631316
_cell_length_c 17.293870
_cell_angle_alpha 90.000000
_cell_angle_beta 90.000000
_cell_angle_gamma 90.000000
_cell_volume 5440.520699
_symmetry_space_group_name_H-M "I M M M"
_symmetry_group_IT_number 71
_symmetry_cell_setting 'orthorhombic'
loop_
_space_group_symop_operation_xyz
x,y,z
-x,-y,z
x,-y,-z
-x,y,-z
-x,-y,-z
x,y,-z
-x,y,z
x,-y,z
1/2+x,1/2+y,1/2+z
1/2-x,1/2-y,1/2+z
1/2+x,1/2-y,1/2-z
1/2-x,1/2+y,1/2-z
1/2-x,1/2-y,1/2-z
1/2+x,1/2+y,1/2-z
1/2-x,1/2+y,1/2+z
1/2+x,1/2-y,1/2+z
loop_
_atom_site_type_symbol
_atom_site_label
_atom_site_fract_x
_atom_site_fract_y
_atom_site_fract_z
Si Si1 0.352401 0.866381 0.913773
Si Si2 0.443440 0.867001 0.184566
Si Si3 0.326432 0.367475 0.589626
Si Si4 0.596320 0.787109 0.340863
Si Si5 0.738736 0.500000 0.913528
Si Si6 0.146108 0.500000 0.914021
Si Si7 0.765047 0.759370 0.660877
Si Si8 0.000000 0.372143 0.911413
O O1 0.409825 0.846237 0.890870
O O2 0.316002 0.808234 0.852291
O O3 0.339535 0.000000 0.913008
O O4 0.344672 0.815665 0.000000
O O5 0.500000 0.828672 0.167684
O O6 0.419106 0.790195 0.251583
O O7 0.442045 0.000000 0.210456
O O8 0.339351 0.347192 0.500000
O O9 0.315348 0.500000 0.608150
O O10 0.373937 0.329523 0.640359
O O11 0.277904 0.294029 0.608338
O O12 0.632361 0.890087 0.364027
O O13 0.546779 0.795745 0.390308
O O14 0.796495 0.500000 0.925925
O O15 0.723078 0.389493 0.863830
O O16 0.714255 0.500000 0.000000
O O17 0.120564 0.500000 0.000000
O O18 0.750000 0.750000 0.750000
O O19 0.000000 0.500000 0.869867
O O20 0.000000 0.397628 0.000000
#
# Coordination Sequence:
#
# PCOD8291143 Si02
#       8
#    16  16  16  16   8   8  16   8
#     4  10  22  39  61  87 121 162 201 241 296 365
#     4  10  20  36  58  88 119 150 191 251 310 356
#     4  11  24  41  60  81 118 167 205 238 289 362
#     4  12  20  34  54  83 117 149 196 245 296 356
#     4  11  24  40  61  92 126 163 204 252 309 364
#     4  11  20  31  54  83 118 153 190 239 296 354
#     4  12  25  39  63  92 126 157 199 252 304 364
#     4  11  20  28  47  79 114 150 193 245 303 353
#
# _framework density 19.115818000000001
#
# number of rings (size 3 to 8) (size 9 to 14) (size 15 to 20)
#    0.000    1.000    3.846    4.154    2.154    1.538 
#    0.000    1.923    0.000    1.385    0.000    0.000 
#    0.000    1.846    0.000    0.000    0.000    0.000 
#
# Total GULP energy -644830.200104 kJ/mol
# GULP energy per Si atom -12400.580771 kJ/mol
# Density = 1.907231 g / cm^3
# Si number density = 19.115818 Si / 1000 Ang^3
#
#
#
# Elastic Constant Matrix: (Units=GPa)
#
#
# Indices 1 2 3 4 5 6 
#
# 1 107.8462 31.4646 33.4181 0.0000 0.0000 0.0000
# 2 31.4646 85.9022 35.8872 0.0000 0.0000 0.0000
# 3 33.4181 35.8872 113.8165 0.0000 0.0000 0.0000
# 4 0.0000 0.0000 0.0000 27.9197 0.0000 0.0000
# 5 0.0000 0.0000 0.0000 0.0000 33.6401 0.0000
# 6 0.0000 0.0000 0.0000 0.0000 0.0000 19.1643
#
#
#
# Elastic Compliance Matrix: (Units=1/GPa)
#
#
# Indices 1 2 3 4 5 6 
#
# 1 0.010850 -0.003044 -0.002226 0.000000 0.000000 0.000000
# 2 -0.003044 0.014261 -0.003603 0.000000 0.000000 0.000000
# 3 -0.002226 -0.003603 0.010576 0.000000 0.000000 0.000000
# 4 0.000000 0.000000 0.000000 0.035817 0.000000 0.000000
# 5 0.000000 0.000000 0.000000 0.000000 0.029726 0.000000
# 6 0.000000 0.000000 0.000000 0.000000 0.000000 0.052180
#
#
# Mechanical properties :
#
#
# Convention : Reuss Voigt Hill
#
# Bulk Modulus (GPa) = 55.73784 56.56717 56.15251
# Shear Modulus (GPa) = 28.22660 29.93116 29.07888
#
# Velocity S-wave (km/s) = 3.84684 3.96129 3.90448
# Velocity P-wave (km/s) = 6.99658 7.11185 7.05445
#
# Compressibility (1/GPa) = 0.01794113
#
# Stress axis : x y z
#
# Youngs Moduli (GPa) = 92.16224 70.11921 94.55696
#
# Poissons Ratio (x) = 0.21347 0.21048
# Poissons Ratio (y) = 0.28058 0.34067
# Poissons Ratio (z) = 0.20514 0.25263
#
# Static dielectric constant tensor:
#      x y z
#    x 3.591960 0.000000 0.000000 
#    y 0.000000 3.430800 0.000000 
#    z 0.000000 0.000000 3.565970 
# 
# 
# High freq. dielectric constant tensor:
#      x y z
#    x 1.747670 0.000000 0.000000 
#    y 0.000000 1.715540 0.000000 
#    z 0.000000 0.000000 1.748150 
# 
# From -- ./inp_files/48875.got.cif
#   From: 2010.06.25/outbox.cif.g09.slc.cpg/sg71_25_cif.got.tgz:48875.got - 2010.06.28 04:59:45.
