data_PCOD8291544
_publ_section_title
;
Structure prediction by ZEFSAII (Michael W. Deem and Ramdas Pophale) SiO2 
 PCOD8291544
Probable space group: I M M M
;
_chemical_formula_sum "Si O2"
_cell_formula_units_Z 104
_cell_length_a 28.928436
_cell_length_b 20.601118
_cell_length_c 9.202191
_cell_angle_alpha 90.000000
_cell_angle_beta 90.000000
_cell_angle_gamma 90.000000
_cell_volume 5484.120481
_symmetry_space_group_name_H-M "I M M M"
_symmetry_group_IT_number 71
_symmetry_cell_setting 'orthorhombic'
loop_
_space_group_symop_operation_xyz
x,y,z
-x,-y,z
x,-y,-z
-x,y,-z
-x,-y,-z
x,y,-z
-x,y,z
x,-y,z
1/2+x,1/2+y,1/2+z
1/2-x,1/2-y,1/2+z
1/2+x,1/2-y,1/2-z
1/2-x,1/2+y,1/2-z
1/2-x,1/2-y,1/2-z
1/2+x,1/2+y,1/2-z
1/2-x,1/2+y,1/2+z
1/2+x,1/2-y,1/2+z
loop_
_atom_site_type_symbol
_atom_site_label
_atom_site_fract_x
_atom_site_fract_y
_atom_site_fract_z
Si Si1 0.054272 0.229502 0.662059
Si Si2 0.945455 0.000000 0.673177
Si Si3 0.800271 0.821305 0.169009
Si Si4 0.102291 0.120507 0.170436
Si Si5 0.948382 0.377355 0.669126
Si Si6 0.365717 0.072385 0.666050
Si Si7 0.707888 0.826225 0.670730
O O1 0.072876 0.211494 0.500000
O O2 0.076578 0.186313 0.786988
O O3 0.066456 0.303363 0.699812
O O4 0.000000 0.217860 0.664016
O O5 0.919348 0.937729 0.737191
O O6 0.940290 0.000000 0.500000
O O7 0.000000 0.000000 0.716585
O O8 0.843664 0.867622 0.207089
O O9 0.756329 0.846076 0.257452
O O10 0.809467 0.746050 0.212411
O O11 0.788380 0.825650 0.000000
O O12 0.095027 0.106537 0.000000
O O13 0.946275 0.392962 0.500000
O O14 0.914076 0.425076 0.750835
O O15 0.000000 0.389963 0.728151
O O16 0.375621 0.090677 0.500000
O O17 0.329438 0.123215 0.733448
O O18 0.345262 0.000000 0.681585
O O19 0.714519 0.834646 0.500000
#
# Coordination Sequence:
#
# PCOD8291544 Si02
#       7
#    16   8  16  16  16  16  16
#     4   9  18  33  53  78 108 140 177 223 271 319
#     4  11  25  43  59  77 109 153 197 237 278 333
#     4   9  19  35  56  82 109 136 172 223 278 325
#     4  11  22  36  56  83 113 144 180 227 281 333
#     4   9  19  35  54  78 108 142 182 226 267 314
#     4  10  21  36  53  76 108 143 179 221 269 320
#     4   9  18  35  57  80 108 142 179 220 268 326
#
# _framework density 18.963844000000002
#
# number of rings (size 3 to 8) (size 9 to 14) (size 15 to 20)
#    0.000    2.385    0.000    3.000    0.000    7.385 
#    1.385    6.154    0.000    0.000    0.000    0.000 
#    0.000    0.000    0.000    0.000    0.000    0.000 
#
# Total GULP energy -644770.590694 kJ/mol
# GULP energy per Si atom -12399.434436 kJ/mol
# Density = 1.892068 g / cm^3
# Si number density = 18.963844 Si / 1000 Ang^3
#
#
#
# Elastic Constant Matrix: (Units=GPa)
#
#
# Indices 1 2 3 4 5 6 
#
# 1 115.0425 65.7102 48.7179 0.0000 0.0000 0.0000
# 2 65.7102 78.5418 39.2782 0.0000 0.0000 0.0000
# 3 48.7179 39.2782 56.9741 0.0000 0.0000 0.0000
# 4 0.0000 0.0000 0.0000 26.0624 0.0000 0.0000
# 5 0.0000 0.0000 0.0000 0.0000 34.3047 0.0000
# 6 0.0000 0.0000 0.0000 0.0000 0.0000 28.8886
#
#
#
# Elastic Compliance Matrix: (Units=1/GPa)
#
#
# Indices 1 2 3 4 5 6 
#
# 1 0.018750 -0.011704 -0.007964 0.000000 0.000000 0.000000
# 2 -0.011704 0.026737 -0.008425 0.000000 0.000000 0.000000
# 3 -0.007964 -0.008425 0.030170 0.000000 0.000000 0.000000
# 4 0.000000 0.000000 0.000000 0.038370 0.000000 0.000000
# 5 0.000000 0.000000 0.000000 0.000000 0.029151 0.000000
# 6 0.000000 0.000000 0.000000 0.000000 0.000000 0.034616
#
#
# Mechanical properties :
#
#
# Convention : Reuss Voigt Hill
#
# Bulk Modulus (GPa) = 51.35755 61.99679 56.67717
# Shear Modulus (GPa) = 20.79261 24.30793 22.55027
#
# Velocity S-wave (km/s) = 3.31484 3.58411 3.45210
# Velocity P-wave (km/s) = 6.46463 7.06335 6.77061
#
# Compressibility (1/GPa) = 0.01947133
#
# Stress axis : x y z
#
# Youngs Moduli (GPa) = 53.33238 37.40111 33.14543
#
# Poissons Ratio (x) = 0.43775 0.26398
# Poissons Ratio (y) = 0.62421 0.27924
# Poissons Ratio (z) = 0.42476 0.31509
#
# Static dielectric constant tensor:
#      x y z
#    x 3.513150 0.000000 0.000000 
#    y 0.000000 3.488790 0.000000 
#    z 0.000000 0.000000 3.428650 
# 
# 
# High freq. dielectric constant tensor:
#      x y z
#    x 1.738190 0.000000 0.000000 
#    y 0.000000 1.733280 0.000000 
#    z 0.000000 0.000000 1.732330 
# 
# From -- ./inp_files/15029.got.cif
#   From: 2010.06.25/outbox.cif.g09.slc.cpg/sg71_8_cif.got.tgz:15029.got - 2010.06.28 04:59:45.
