data_PCOD8291119
_publ_section_title
;
Structure prediction by ZEFSAII (Michael W. Deem and Ramdas Pophale) SiO2 
 PCOD8291119
Probable space group: I M M M
;
_chemical_formula_sum "Si O2"
_cell_formula_units_Z 112
_cell_length_a 25.694949
_cell_length_b 14.586811
_cell_length_c 14.515444
_cell_angle_alpha 90.000000
_cell_angle_beta 90.000000
_cell_angle_gamma 90.000000
_cell_volume 5440.495313
_symmetry_space_group_name_H-M "I M M M"
_symmetry_group_IT_number 71
_symmetry_cell_setting 'orthorhombic'
loop_
_space_group_symop_operation_xyz
x,y,z
-x,-y,z
x,-y,-z
-x,y,-z
-x,-y,-z
x,y,-z
-x,y,z
x,-y,z
1/2+x,1/2+y,1/2+z
1/2-x,1/2-y,1/2+z
1/2+x,1/2-y,1/2-z
1/2-x,1/2+y,1/2-z
1/2-x,1/2-y,1/2-z
1/2+x,1/2+y,1/2-z
1/2-x,1/2+y,1/2+z
1/2+x,1/2-y,1/2+z
loop_
_atom_site_type_symbol
_atom_site_label
_atom_site_fract_x
_atom_site_fract_y
_atom_site_fract_z
Si Si1 0.241171 0.213046 0.606431
Si Si2 0.837951 0.400863 0.891545
Si Si3 0.942822 0.308637 0.103502
Si Si4 0.154443 0.104443 0.713692
Si Si5 0.710756 0.398040 0.603510
Si Si6 0.938318 0.398635 0.603701
Si Si7 0.558338 0.279371 0.212571
O O1 0.231883 0.188314 0.500000
O O2 0.296094 0.172800 0.644726
O O3 0.194924 0.170228 0.663731
O O4 0.244066 0.322935 0.622368
O O5 0.824842 0.500000 0.847745
O O6 0.897424 0.377670 0.866049
O O7 0.832557 0.406043 0.000000
O O8 0.942404 0.225965 0.176369
O O9 0.000000 0.357665 0.108663
O O10 0.933096 0.270243 0.000000
O O11 0.163745 0.112145 0.823704
O O12 0.096685 0.137812 0.686564
O O13 0.161010 0.000000 0.679222
O O14 0.687950 0.381882 0.500000
O O15 0.735681 0.500000 0.611810
O O16 0.918382 0.377686 0.500000
O O17 0.917525 0.500000 0.635029
O O18 0.919576 0.316672 0.670641
O O19 0.000000 0.401365 0.605183
O O20 0.500000 0.300924 0.175072
#
# Coordination Sequence:
#
# PCOD8291119 Si02
#       7
#    16  16  16  16  16  16  16
#     4  10  20  36  58  82 111 143 177 223 276 329
#     4   9  17  29  47  73 106 145 183 214 252 310
#     4   9  18  32  50  75 110 149 184 221 269 323
#     4  11  23  37  56  82 111 146 186 226 272 326
#     4   9  19  37  60  84 110 141 178 221 269 322
#     4   8  15  31  55  78  99 129 174 227 280 331
#     4  10  21  36  54  77 106 143 188 234 278 325
#
# _framework density 20.586361
#
# number of rings (size 3 to 8) (size 9 to 14) (size 15 to 20)
#    0.000    2.571    0.000    2.143    0.000    4.286 
#    0.000    3.571    0.000    1.714    0.000    7.000 
#    0.000    0.000    0.000    0.000    0.000    0.000 
#
# Total GULP energy -693874.936894 kJ/mol
# GULP energy per Si atom -12390.623873 kJ/mol
# Density = 2.053951 g / cm^3
# Si number density = 20.586361 Si / 1000 Ang^3
#
#
#
# Elastic Constant Matrix: (Units=GPa)
#
#
# Indices 1 2 3 4 5 6 
#
# 1 115.1915 65.8043 30.2166 0.0000 0.0000 0.0000
# 2 65.8043 130.1784 36.1870 0.0000 0.0000 0.0000
# 3 30.2166 36.1870 71.4873 0.0000 0.0000 0.0000
# 4 0.0000 0.0000 0.0000 22.3283 0.0000 0.0000
# 5 0.0000 0.0000 0.0000 0.0000 17.1378 0.0000
# 6 0.0000 0.0000 0.0000 0.0000 0.0000 28.2747
#
#
#
# Elastic Compliance Matrix: (Units=1/GPa)
#
#
# Indices 1 2 3 4 5 6 
#
# 1 0.012561 -0.005672 -0.002438 0.000000 0.000000 0.000000
# 2 -0.005672 0.011501 -0.003424 0.000000 0.000000 0.000000
# 3 -0.002438 -0.003424 0.016753 0.000000 0.000000 0.000000
# 4 0.000000 0.000000 0.000000 0.044786 0.000000 0.000000
# 5 0.000000 0.000000 0.000000 0.000000 0.058351 0.000000
# 6 0.000000 0.000000 0.000000 0.000000 0.000000 0.035367
#
#
# Mechanical properties :
#
#
# Convention : Reuss Voigt Hill
#
# Bulk Modulus (GPa) = 56.35233 64.58591 60.46912
# Shear Modulus (GPa) = 24.00367 25.85812 24.93090
#
# Velocity S-wave (km/s) = 3.41838 3.54797 3.48377
# Velocity P-wave (km/s) = 6.55846 6.94445 6.75421
#
# Compressibility (1/GPa) = 0.01774550
#
# Stress axis : x y z
#
# Youngs Moduli (GPa) = 79.61315 86.95191 59.69247
#
# Poissons Ratio (x) = 0.49315 0.14555
# Poissons Ratio (y) = 0.45153 0.20441
# Poissons Ratio (z) = 0.19412 0.29775
#
# Static dielectric constant tensor:
#      x y z
#    x 3.575520 0.000000 0.000000 
#    y 0.000000 3.893800 0.000000 
#    z 0.000000 0.000000 3.827680 
# 
# 
# High freq. dielectric constant tensor:
#      x y z
#    x 1.780170 0.000000 0.000000 
#    y 0.000000 1.792310 0.000000 
#    z 0.000000 0.000000 1.801320 
# 
# From -- ./inp_files/39253.got.cif
#   From: 2010.06.25/outbox.cif.g09.slc.cpg/sg71_20_cif.got.tgz:39253.got - 2010.06.28 04:59:45.
