data_PCOD8291273
_publ_section_title
;
Structure prediction by ZEFSAII (Michael W. Deem and Ramdas Pophale) SiO2 
 PCOD8291273
Probable space group: I M M M
;
_chemical_formula_sum "Si O2"
_cell_formula_units_Z 104
_cell_length_a 31.633495
_cell_length_b 18.869129
_cell_length_c 8.816713
_cell_angle_alpha 90.000000
_cell_angle_beta 90.000000
_cell_angle_gamma 90.000000
_cell_volume 5262.665112
_symmetry_space_group_name_H-M "I M M M"
_symmetry_group_IT_number 71
_symmetry_cell_setting 'orthorhombic'
loop_
_space_group_symop_operation_xyz
x,y,z
-x,-y,z
x,-y,-z
-x,y,-z
-x,-y,-z
x,y,-z
-x,y,z
x,-y,z
1/2+x,1/2+y,1/2+z
1/2-x,1/2-y,1/2+z
1/2+x,1/2-y,1/2-z
1/2-x,1/2+y,1/2-z
1/2-x,1/2-y,1/2-z
1/2+x,1/2+y,1/2-z
1/2-x,1/2+y,1/2+z
1/2+x,1/2-y,1/2+z
loop_
_atom_site_type_symbol
_atom_site_label
_atom_site_fract_x
_atom_site_fract_y
_atom_site_fract_z
Si Si1 0.086224 0.852512 0.679021
Si Si2 0.744583 0.327012 0.819071
Si Si3 0.952513 0.291795 0.672880
Si Si4 0.586141 0.078431 0.678999
Si Si5 0.669230 0.582723 0.679127
Si Si6 0.179768 0.578316 0.819968
Si Si7 0.500000 0.579577 0.179704
O O1 0.092908 0.866726 0.500000
O O2 0.081961 0.768488 0.714121
O O3 0.123820 0.887674 0.772104
O O4 0.042733 0.885438 0.741759
O O5 0.750000 0.250000 0.750000
O O6 0.703636 0.368865 0.761983
O O7 0.785717 0.367778 0.756479
O O8 0.742403 0.322354 0.000000
O O9 0.946705 0.314235 0.500000
O O10 0.946710 0.362682 0.769142
O O11 0.000000 0.262274 0.701149
O O12 0.586373 0.076220 0.500000
O O13 0.633047 0.098904 0.739190
O O14 0.573360 0.000000 0.740038
O O15 0.674400 0.591356 0.500000
O O16 0.673708 0.500000 0.727376
O O17 0.191711 0.500000 0.760962
O O18 0.180378 0.579363 0.000000
O O19 0.500000 0.500000 0.237991
O O20 0.500000 0.586720 0.000000
#
# Coordination Sequence:
#
# PCOD8291273 Si02
#       7
#    16  16  16  16  16  16   8
#     4  10  20  37  60  87 116 151 196 242 294 356
#     4  11  23  39  61  90 122 156 196 240 292 352
#     4  10  21  37  56  82 118 153 189 239 294 349
#     4   9  19  36  58  84 112 146 192 239 284 342
#     4  11  25  43  61  86 122 160 200 248 297 347
#     4   8  16  34  59  83 108 143 187 233 279 331
#     4   9  16  30  57  87 112 143 190 242 287 343
#
# _framework density 19.761851
#
# number of rings (size 3 to 8) (size 9 to 14) (size 15 to 20)
#    0.000    2.231    0.769    2.769    2.154    4.000 
#    0.000    2.692    0.000    3.231    0.000    0.000 
#    0.000    0.000    0.000    0.000    0.000    0.000 
#
# Total GULP energy -644593.363201 kJ/mol
# GULP energy per Si atom -12396.026215 kJ/mol
# Density = 1.971687 g / cm^3
# Si number density = 19.761851 Si / 1000 Ang^3
#
#
#
# Elastic Constant Matrix: (Units=GPa)
#
#
# Indices 1 2 3 4 5 6 
#
# 1 87.2116 57.3434 27.6878 0.0000 0.0000 0.0000
# 2 57.3434 140.8871 37.6830 0.0000 0.0000 0.0000
# 3 27.6878 37.6830 48.1725 0.0000 0.0000 0.0000
# 4 0.0000 0.0000 0.0000 30.6328 0.0000 0.0000
# 5 0.0000 0.0000 0.0000 0.0000 25.4111 0.0000
# 6 0.0000 0.0000 0.0000 0.0000 0.0000 42.7791
#
#
#
# Elastic Compliance Matrix: (Units=1/GPa)
#
#
# Indices 1 2 3 4 5 6 
#
# 1 0.016703 -0.005350 -0.005415 0.000000 0.000000 0.000000
# 2 -0.005350 0.010690 -0.005287 0.000000 0.000000 0.000000
# 3 -0.005415 -0.005287 0.028007 0.000000 0.000000 0.000000
# 4 0.000000 0.000000 0.000000 0.032645 0.000000 0.000000
# 5 0.000000 0.000000 0.000000 0.000000 0.039353 0.000000
# 6 0.000000 0.000000 0.000000 0.000000 0.000000 0.023376
#
#
# Mechanical properties :
#
#
# Convention : Reuss Voigt Hill
#
# Bulk Modulus (GPa) = 42.92727 57.96662 50.44695
# Shear Modulus (GPa) = 26.22700 30.00175 28.11438
#
# Velocity S-wave (km/s) = 3.64696 3.90059 3.77591
# Velocity P-wave (km/s) = 6.28516 7.04857 6.67779
#
# Compressibility (1/GPa) = 0.02329521
#
# Stress axis : x y z
#
# Youngs Moduli (GPa) = 59.86788 93.54940 35.70540
#
# Poissons Ratio (x) = 0.50050 0.19336
# Poissons Ratio (y) = 0.32030 0.18877
# Poissons Ratio (z) = 0.32421 0.49458
#
# Static dielectric constant tensor:
#      x y z
#    x 3.830440 0.000000 0.000000 
#    y 0.000000 3.796960 0.000000 
#    z 0.000000 0.000000 3.260750 
# 
# 
# High freq. dielectric constant tensor:
#      x y z
#    x 1.778780 0.000000 0.000000 
#    y 0.000000 1.785850 0.000000 
#    z 0.000000 0.000000 1.739510 
# 
# From -- ./inp_files/16941.got.cif
#   From: 2010.06.25/outbox.cif.g09.slc.cpg/sg71_9_cif.got.tgz:16941.got - 2010.06.28 04:59:45.
