data_PCOD8291214
_publ_section_title
;
Structure prediction by ZEFSAII (Michael W. Deem and Ramdas Pophale) SiO2 
 PCOD8291214
Probable space group: I M M M
;
_chemical_formula_sum "Si O2"
_cell_formula_units_Z 104
_cell_length_a 21.142313
_cell_length_b 14.142075
_cell_length_c 16.712379
_cell_angle_alpha 90.000000
_cell_angle_beta 90.000000
_cell_angle_gamma 90.000000
_cell_volume 4996.937415
_symmetry_space_group_name_H-M "I M M M"
_symmetry_group_IT_number 71
_symmetry_cell_setting 'orthorhombic'
loop_
_space_group_symop_operation_xyz
x,y,z
-x,-y,z
x,-y,-z
-x,y,-z
-x,-y,-z
x,y,-z
-x,y,z
x,-y,z
1/2+x,1/2+y,1/2+z
1/2-x,1/2-y,1/2+z
1/2+x,1/2-y,1/2-z
1/2-x,1/2+y,1/2-z
1/2-x,1/2-y,1/2-z
1/2+x,1/2+y,1/2-z
1/2-x,1/2+y,1/2+z
1/2+x,1/2-y,1/2+z
loop_
_atom_site_type_symbol
_atom_site_label
_atom_site_fract_x
_atom_site_fract_y
_atom_site_fract_z
Si Si1 0.929650 0.251139 0.634377
Si Si2 0.769311 0.895035 0.635801
Si Si3 0.697335 0.801792 0.087262
Si Si4 0.572832 0.602855 0.000000
Si Si5 0.628005 0.106965 0.593287
Si Si6 0.069974 0.222100 0.821943
Si Si7 0.808600 0.892665 0.183661
O O1 0.874345 0.327839 0.615773
O O2 0.911274 0.159707 0.581257
O O3 0.927484 0.226927 0.726858
O O4 0.000000 0.289353 0.610870
O O5 0.796993 0.812547 0.580519
O O6 0.693717 0.882591 0.640910
O O7 0.802020 0.883160 0.721731
O O8 0.784157 0.000000 0.600741
O O9 0.748202 0.840446 0.148194
O O10 0.709077 0.846005 0.000000
O O11 0.607908 0.500000 0.000000
O O12 0.500000 0.581120 0.000000
O O13 0.637248 0.134554 0.500000
O O14 0.578437 0.176147 0.636176
O O15 0.601892 0.000000 0.600602
O O16 0.126105 0.152266 0.849370
O O17 0.000000 0.184268 0.847167
O O18 0.808107 0.000000 0.154384
#
# Coordination Sequence:
#
# PCOD8291214 Si02
#       7
#    16  16  16   8  16  16  16
#     4  10  21  37  58  89 126 165 202 242 298 371
#     4  10  20  36  61  91 121 154 192 244 309 370
#     4  12  22  36  61  88 121 161 199 249 301 360
#     4   9  18  34  56  88 131 169 204 249 301 361
#     4  10  21  39  64  96 129 157 197 258 324 384
#     4  11  23  40  63  89 124 168 209 254 310 372
#     4  11  24  41  61  86 120 161 209 258 302 360
#
# _framework density 20.812747999999999
#
# number of rings (size 3 to 8) (size 9 to 14) (size 15 to 20)
#    0.000    1.462    3.846    1.846    0.000    3.385 
#    0.000    2.308    0.000    1.385    0.000    3.231 
#    0.000    0.000    0.000    0.000    0.000    0.000 
#
# Total GULP energy -644456.036193 kJ/mol
# GULP energy per Si atom -12393.385311 kJ/mol
# Density = 2.076538 g / cm^3
# Si number density = 20.812748 Si / 1000 Ang^3
#
#
#
# Elastic Constant Matrix: (Units=GPa)
#
#
# Indices 1 2 3 4 5 6 
#
# 1 153.5906 47.4583 32.3152 0.0000 0.0000 0.0000
# 2 47.4583 86.2890 36.0713 0.0000 0.0000 0.0000
# 3 32.3152 36.0713 60.7014 0.0000 0.0000 0.0000
# 4 0.0000 0.0000 0.0000 23.1015 0.0000 0.0000
# 5 0.0000 0.0000 0.0000 0.0000 25.0562 0.0000
# 6 0.0000 0.0000 0.0000 0.0000 0.0000 11.8922
#
#
#
# Elastic Compliance Matrix: (Units=1/GPa)
#
#
# Indices 1 2 3 4 5 6 
#
# 1 0.008060 -0.003511 -0.002204 0.000000 0.000000 0.000000
# 2 -0.003511 0.016949 -0.008203 0.000000 0.000000 0.000000
# 3 -0.002204 -0.008203 0.022522 0.000000 0.000000 0.000000
# 4 0.000000 0.000000 0.000000 0.043287 0.000000 0.000000
# 5 0.000000 0.000000 0.000000 0.000000 0.039910 0.000000
# 6 0.000000 0.000000 0.000000 0.000000 0.000000 0.084089
#
#
# Mechanical properties :
#
#
# Convention : Reuss Voigt Hill
#
# Bulk Modulus (GPa) = 50.77550 59.14116 54.95833
# Shear Modulus (GPa) = 20.06280 24.32572 22.19426
#
# Velocity S-wave (km/s) = 3.10815 3.42247 3.26909
# Velocity P-wave (km/s) = 6.10984 6.64042 6.38065
#
# Compressibility (1/GPa) = 0.01969454
#
# Stress axis : x y z
#
# Youngs Moduli (GPa) = 124.07707 59.00026 44.40156
#
# Poissons Ratio (x) = 0.20717 0.09786
# Poissons Ratio (y) = 0.43568 0.36421
# Poissons Ratio (z) = 0.27347 0.48395
#
# Static dielectric constant tensor:
#      x y z
#    x 4.100450 0.000000 0.000000 
#    y 0.000000 3.705870 0.000000 
#    z 0.000000 0.000000 3.580300 
# 
# 
# High freq. dielectric constant tensor:
#      x y z
#    x 1.834740 0.000000 0.000000 
#    y 0.000000 1.783960 0.000000 
#    z 0.000000 0.000000 1.808960 
# 
# From -- ./inp_files/47315.got.cif
#   From: 2010.06.25/outbox.cif.g09.slc.cpg/sg71_24_cif.got.tgz:47315.got - 2010.06.28 04:59:45.
