data_PCOD8291900
_publ_section_title
;
Structure prediction by ZEFSAII (Michael W. Deem and Ramdas Pophale) SiO2 
 PCOD8291900
Probable space group: I M M M
;
_chemical_formula_sum "Si O2"
_cell_formula_units_Z 64
_cell_length_a 21.951107
_cell_length_b 16.536052
_cell_length_c 9.014663
_cell_angle_alpha 90.000000
_cell_angle_beta 90.000000
_cell_angle_gamma 90.000000
_cell_volume 3272.184265
_symmetry_space_group_name_H-M "I M M M"
_symmetry_group_IT_number 71
_symmetry_cell_setting 'orthorhombic'
loop_
_space_group_symop_operation_xyz
x,y,z
-x,-y,z
x,-y,-z
-x,y,-z
-x,-y,-z
x,y,-z
-x,y,z
x,-y,z
1/2+x,1/2+y,1/2+z
1/2-x,1/2-y,1/2+z
1/2+x,1/2-y,1/2-z
1/2-x,1/2+y,1/2-z
1/2-x,1/2-y,1/2-z
1/2+x,1/2+y,1/2-z
1/2-x,1/2+y,1/2+z
1/2+x,1/2-y,1/2+z
loop_
_atom_site_type_symbol
_atom_site_label
_atom_site_fract_x
_atom_site_fract_y
_atom_site_fract_z
Si Si1 0.071143 0.000000 0.164917
Si Si2 0.000000 0.592053 0.824714
Si Si3 0.245002 0.335408 0.327145
Si Si4 0.889178 0.677960 0.330219
Si Si5 0.361268 0.636452 0.174110
O O1 0.088156 0.920483 0.256328
O O2 0.000000 0.000000 0.147485
O O3 0.101038 0.000000 0.000000
O O4 0.060385 0.637558 0.771687
O O5 0.000000 0.500000 0.764400
O O6 0.000000 0.593395 0.000000
O O7 0.260255 0.326285 0.500000
O O8 0.250000 0.250000 0.250000
O O9 0.175790 0.368079 0.306137
O O10 0.296375 0.389871 0.247875
O O11 0.910602 0.669962 0.500000
O O12 0.880718 0.771979 0.288164
O O13 0.355852 0.621999 0.000000
#
# Coordination Sequence:
#
# PCOD8291900 Si02
#       5
#     8   8  16  16  16
#     4  11  25  41  57  85 123 160 201 244 289 343
#     4  11  25  41  57  84 117 150 193 243 292 345
#     4   9  17  33  58  88 117 148 191 240 289 346
#     4   9  20  38  62  88 114 152 194 235 291 355
#     4  10  21  38  61  89 119 155 196 240 294 350
#
# _framework density 19.558800000000002
#
# number of rings (size 3 to 8) (size 9 to 14) (size 15 to 20)
#    0.000    2.250    0.000    3.750    1.750    8.000 
#    2.250    0.000    0.000    0.000    0.000    0.000 
#    0.000    0.000    0.000    0.000    0.000    0.000 
#
# Total GULP energy -396663.498780 kJ/mol
# GULP energy per Si atom -12395.734337 kJ/mol
# Density = 1.951428 g / cm^3
# Si number density = 19.558800 Si / 1000 Ang^3
#
#
#
# Elastic Constant Matrix: (Units=GPa)
#
#
# Indices 1 2 3 4 5 6 
#
# 1 127.1700 49.6281 68.5706 0.0000 0.0000 0.0000
# 2 49.6281 77.2877 49.5548 0.0000 0.0000 0.0000
# 3 68.5706 49.5548 130.1760 0.0000 0.0000 0.0000
# 4 0.0000 0.0000 0.0000 26.9508 0.0000 0.0000
# 5 0.0000 0.0000 0.0000 0.0000 38.7504 0.0000
# 6 0.0000 0.0000 0.0000 0.0000 0.0000 23.3074
#
#
#
# Elastic Compliance Matrix: (Units=1/GPa)
#
#
# Indices 1 2 3 4 5 6 
#
# 1 0.012258 -0.004936 -0.004578 0.000000 0.000000 0.000000
# 2 -0.004936 0.019104 -0.004672 0.000000 0.000000 0.000000
# 3 -0.004578 -0.004672 0.011872 0.000000 0.000000 0.000000
# 4 0.000000 0.000000 0.000000 0.037105 0.000000 0.000000
# 5 0.000000 0.000000 0.000000 0.000000 0.025806 0.000000
# 6 0.000000 0.000000 0.000000 0.000000 0.000000 0.042905
#
#
# Mechanical properties :
#
#
# Convention : Reuss Voigt Hill
#
# Bulk Modulus (GPa) = 67.28804 74.46007 70.87406
# Shear Modulus (GPa) = 27.41577 28.92705 28.17141
#
# Velocity S-wave (km/s) = 3.74800 3.84992 3.79930
# Velocity P-wave (km/s) = 7.29436 7.61019 7.45395
#
# Compressibility (1/GPa) = 0.01486148
#
# Stress axis : x y z
#
# Youngs Moduli (GPa) = 81.57753 52.34511 84.23114
#
# Poissons Ratio (x) = 0.25837 0.38562
# Poissons Ratio (y) = 0.40266 0.39356
# Poissons Ratio (z) = 0.37347 0.24458
#
# Static dielectric constant tensor:
#      x y z
#    x 3.897780 0.000000 0.000000 
#    y 0.000000 3.366920 0.000000 
#    z 0.000000 0.000000 3.736670 
# 
# 
# High freq. dielectric constant tensor:
#      x y z
#    x 1.776080 0.000000 0.000000 
#    y 0.000000 1.735960 0.000000 
#    z 0.000000 0.000000 1.774700 
# 
# From -- ./inp_files/9552.got.cif
#   From: 2010.06.25/outbox.cif.g09.slc.cpg/sg71_5_cif.got.tgz:9552.got - 2010.06.28 04:59:45.
