data_PCOD8291371
_publ_section_title
;
Structure prediction by ZEFSAII (Michael W. Deem and Ramdas Pophale) SiO2 
 PCOD8291371
Probable space group: I M M M
;
_chemical_formula_sum "Si O2"
_cell_formula_units_Z 112
_cell_length_a 13.765337
_cell_length_b 29.838712
_cell_length_c 15.558579
_cell_angle_alpha 90.000000
_cell_angle_beta 90.000000
_cell_angle_gamma 90.000000
_cell_volume 6390.529592
_symmetry_space_group_name_H-M "I M M M"
_symmetry_group_IT_number 71
_symmetry_cell_setting 'orthorhombic'
loop_
_space_group_symop_operation_xyz
x,y,z
-x,-y,z
x,-y,-z
-x,y,-z
-x,-y,-z
x,y,-z
-x,y,z
x,-y,z
1/2+x,1/2+y,1/2+z
1/2-x,1/2-y,1/2+z
1/2+x,1/2-y,1/2-z
1/2-x,1/2+y,1/2-z
1/2-x,1/2-y,1/2-z
1/2+x,1/2+y,1/2-z
1/2-x,1/2+y,1/2+z
1/2+x,1/2-y,1/2+z
loop_
_atom_site_type_symbol
_atom_site_label
_atom_site_fract_x
_atom_site_fract_y
_atom_site_fract_z
Si Si1 0.114799 0.550718 0.902881
Si Si2 0.390680 0.947066 0.096074
Si Si3 0.706959 0.101849 0.753698
Si Si4 0.884244 0.831027 0.500000
Si Si5 0.392982 0.721940 0.280083
Si Si6 0.886774 0.269903 0.500000
Si Si7 0.689199 0.802035 0.826626
Si Si8 0.392966 0.366402 0.823221
O O1 0.151102 0.500000 0.882908
O O2 0.156170 0.585127 0.833167
O O3 0.000000 0.552291 0.895598
O O4 0.146936 0.564366 0.000000
O O5 0.500000 0.930730 0.119803
O O6 0.313256 0.929968 0.165397
O O7 0.387417 0.000000 0.098027
O O8 0.363101 0.930029 0.000000
O O9 0.670114 0.150877 0.780109
O O10 0.822623 0.103124 0.735043
O O11 0.839206 0.780293 0.500000
O O12 0.849349 0.860540 0.418846
O O13 0.000000 0.827319 0.500000
O O14 0.500000 0.726133 0.326006
O O15 0.365699 0.768036 0.235225
O O16 0.304180 0.708455 0.342592
O O17 0.400690 0.684525 0.207534
O O18 0.857414 0.300396 0.580226
O O19 0.000000 0.262802 0.500000
O O20 0.500000 0.389041 0.821810
#
# Coordination Sequence:
#
# PCOD8291371 Si02
#       8
#    16  16  16   8  16   8  16  16
#     4   9  19  36  55  74  99 134 172 202 240 312
#     4   9  19  36  56  78 105 137 171 206 251 313
#     4  11  21  31  52  80 107 132 164 213 268 303
#     4   9  16  30  52  71  92 135 183 216 250 294
#     4   9  17  34  50  65  97 139 173 205 251 305
#     4  11  20  32  51  71  98 134 176 221 257 295
#     4  10  21  31  47  78 100 130 173 216 257 305
#     4   9  18  32  51  74  99 132 176 216 252 296
#
# _framework density 17.525933999999999
#
# number of rings (size 3 to 8) (size 9 to 14) (size 15 to 20)
#    0.000    2.429    1.429    2.143    2.000    3.429 
#    0.000    0.357    0.000    2.143    0.000    2.000 
#    0.000    0.000    0.000    0.000    0.000    0.000 
#
# Total GULP energy -693930.893613 kJ/mol
# GULP energy per Si atom -12391.623100 kJ/mol
# Density = 1.748604 g / cm^3
# Si number density = 17.525934 Si / 1000 Ang^3
#
#
#
# Elastic Constant Matrix: (Units=GPa)
#
#
# Indices 1 2 3 4 5 6 
#
# 1 83.5447 36.3296 46.0401 0.0002 -0.0001 0.0000
# 2 36.3296 63.8803 49.1182 0.0001 -0.0001 0.0000
# 3 46.0401 49.1182 117.7195 0.0001 -0.0008 -0.0003
# 4 0.0002 0.0001 0.0001 22.1137 -0.0001 -0.0001
# 5 -0.0001 -0.0001 -0.0008 -0.0001 23.0375 0.0001
# 6 0.0000 0.0000 -0.0003 -0.0001 0.0001 23.1443
#
#
#
# Elastic Compliance Matrix: (Units=1/GPa)
#
#
# Indices 1 2 3 4 5 6 
#
# 1 0.017012 -0.006713 -0.003852 0.000000 0.000000 0.000000
# 2 -0.006713 0.025698 -0.008097 0.000000 0.000000 0.000000
# 3 -0.003852 -0.008097 0.013380 0.000000 0.000000 0.000000
# 4 0.000000 0.000000 0.000000 0.045221 0.000000 0.000000
# 5 0.000000 0.000000 0.000000 0.000000 0.043407 0.000000
# 6 0.000000 0.000000 0.000000 0.000000 0.000000 0.043207
#
#
# Mechanical properties :
#
#
# Convention : Reuss Voigt Hill
#
# Bulk Modulus (GPa) = 53.29016 58.68001 55.98509
# Shear Modulus (GPa) = 21.59791 22.56954 22.08373
#
# Velocity S-wave (km/s) = 3.51428 3.59246 3.55358
# Velocity P-wave (km/s) = 6.85123 7.12476 6.98933
#
# Compressibility (1/GPa) = 0.01876519
#
# Stress axis : x y z
#
# Youngs Moduli (GPa) = 58.78330 38.91403 74.73887
#
# Poissons Ratio (x) = 0.26121 0.28793
# Poissons Ratio (y) = 0.39459 0.60516
# Poissons Ratio (z) = 0.22646 0.31509
#
# Static dielectric constant tensor:
#      x y z
#    x 3.423470 0.000000 0.000000 
#    y 0.000000 3.153950 0.000000 
#    z 0.000000 0.000000 3.575870 
# 
# 
# High freq. dielectric constant tensor:
#      x y z
#    x 1.665710 0.000000 0.000000 
#    y 0.000000 1.664300 0.000000 
#    z 0.000000 0.000000 1.673220 
# 
# From -- ./inp_files/35175.got.cif
#   From: 2010.06.25/outbox.cif.g09.slc.cpg/sg71_18_cif.got.tgz:35175.got - 2010.06.28 04:59:45.
