data_PCOD8291144
_publ_section_title
;
Structure prediction by ZEFSAII (Michael W. Deem and Ramdas Pophale) SiO2 
 PCOD8291144
Probable space group: I M M M
;
_chemical_formula_sum "Si O2"
_cell_formula_units_Z 64
_cell_length_a 23.944418
_cell_length_b 8.646895
_cell_length_c 15.588050
_cell_angle_alpha 90.000000
_cell_angle_beta 90.000000
_cell_angle_gamma 90.000000
_cell_volume 3227.425759
_symmetry_space_group_name_H-M "I M M M"
_symmetry_group_IT_number 71
_symmetry_cell_setting 'orthorhombic'
loop_
_space_group_symop_operation_xyz
x,y,z
-x,-y,z
x,-y,-z
-x,y,-z
-x,-y,-z
x,y,-z
-x,y,z
x,-y,z
1/2+x,1/2+y,1/2+z
1/2-x,1/2-y,1/2+z
1/2+x,1/2-y,1/2-z
1/2-x,1/2+y,1/2-z
1/2-x,1/2-y,1/2-z
1/2+x,1/2+y,1/2-z
1/2-x,1/2+y,1/2+z
1/2+x,1/2-y,1/2+z
loop_
_atom_site_type_symbol
_atom_site_label
_atom_site_fract_x
_atom_site_fract_y
_atom_site_fract_z
Si Si1 0.225852 0.682334 0.663165
Si Si2 0.615605 0.318135 0.099252
Si Si3 0.500000 0.316464 0.629874
Si Si4 0.287441 0.818098 0.500000
Si Si5 0.000000 0.816572 0.324190
Si Si6 0.916778 0.681701 0.000000
O O1 0.231590 0.500000 0.664848
O O2 0.250000 0.750000 0.750000
O O3 0.161188 0.729390 0.655611
O O4 0.260319 0.748248 0.584139
O O5 0.621217 0.500000 0.116992
O O6 0.554898 0.255119 0.127129
O O7 0.625365 0.278965 0.000000
O O8 0.500000 0.500000 0.624267
O O9 0.500000 0.255635 0.726980
O O10 0.444395 0.253221 0.584791
O O11 0.352245 0.774530 0.500000
O O12 0.276654 0.000000 0.500000
O O13 0.000000 0.000000 0.326622
O O14 0.927228 0.500000 0.000000
#
# Coordination Sequence:
#
# PCOD8291144 Si02
#       6
#    16  16   8   8   8   8
#     4  12  26  43  65  94 129 168 212 261 316 377
#     4  10  20  39  65  91 125 163 205 254 308 371
#     4  10  20  36  58  88 123 158 205 250 297 366
#     4  11  24  44  67  95 127 166 211 260 318 379
#     4   9  20  36  60  94 121 158 205 250 304 367
#     4  10  22  39  60  84 119 159 203 250 309 366
#
# _framework density 19.830045999999999
#
# number of rings (size 3 to 8) (size 9 to 14) (size 15 to 20)
#    0.000    1.500    1.250    4.500    3.500    3.500 
#    0.000    1.875    0.000    1.500    0.000    0.000 
#    0.000    0.000    0.000    0.000    0.000    0.000 
#
# Total GULP energy -396942.215531 kJ/mol
# GULP energy per Si atom -12404.444235 kJ/mol
# Density = 1.978491 g / cm^3
# Si number density = 19.830046 Si / 1000 Ang^3
#
#
#
# Elastic Constant Matrix: (Units=GPa)
#
#
# Indices 1 2 3 4 5 6 
#
# 1 178.1739 65.8920 76.8407 0.0000 0.0000 0.0000
# 2 65.8920 99.0465 55.9074 0.0000 0.0000 0.0000
# 3 76.8407 55.9074 149.1304 0.0000 0.0000 0.0000
# 4 0.0000 0.0000 0.0000 25.1669 0.0000 0.0000
# 5 0.0000 0.0000 0.0000 0.0000 110.7339 0.0000
# 6 0.0000 0.0000 0.0000 0.0000 0.0000 30.9188
#
#
#
# Elastic Compliance Matrix: (Units=1/GPa)
#
#
# Indices 1 2 3 4 5 6 
#
# 1 0.008267 -0.003926 -0.002788 0.000000 0.000000 0.000000
# 2 -0.003926 0.014671 -0.003477 0.000000 0.000000 0.000000
# 3 -0.002788 -0.003477 0.009445 0.000000 0.000000 0.000000
# 4 0.000000 0.000000 0.000000 0.039735 0.000000 0.000000
# 5 0.000000 0.000000 0.000000 0.000000 0.009031 0.000000
# 6 0.000000 0.000000 0.000000 0.000000 0.000000 0.032343
#
#
# Mechanical properties :
#
#
# Convention : Reuss Voigt Hill
#
# Bulk Modulus (GPa) = 83.32310 91.51456 87.41883
# Shear Modulus (GPa) = 36.26539 48.54464 42.40501
#
# Velocity S-wave (km/s) = 4.28110 4.95313 4.62932
# Velocity P-wave (km/s) = 8.15763 8.88600 8.52959
#
# Compressibility (1/GPa) = 0.01200147
#
# Stress axis : x y z
#
# Youngs Moduli (GPa) = 120.96859 68.16311 105.87189
#
# Poissons Ratio (x) = 0.26761 0.29513
# Poissons Ratio (y) = 0.47492 0.36812
# Poissons Ratio (z) = 0.33722 0.23700
#
# Static dielectric constant tensor:
#      x y z
#    x 3.859670 0.000000 0.000000 
#    y 0.000000 3.561310 0.000000 
#    z 0.000000 0.000000 3.682290 
# 
# 
# High freq. dielectric constant tensor:
#      x y z
#    x 1.791800 0.000000 0.000000 
#    y 0.000000 1.765860 0.000000 
#    z 0.000000 0.000000 1.784350 
# 
# From -- ./inp_files/38804.got.cif
#   From: 2010.06.25/outbox.cif.g09.slc.cpg/sg71_20_cif.got.tgz:38804.got - 2010.06.28 04:59:45.
