data_PCOD8291896
_publ_section_title
;
Structure prediction by ZEFSAII (Michael W. Deem and Ramdas Pophale) SiO2 
 PCOD8291896
Probable space group: I M M M
;
_chemical_formula_sum "Si O2"
_cell_formula_units_Z 96
_cell_length_a 20.178695
_cell_length_b 27.718901
_cell_length_c 8.484298
_cell_angle_alpha 90.000000
_cell_angle_beta 90.000000
_cell_angle_gamma 90.000000
_cell_volume 4745.532997
_symmetry_space_group_name_H-M "I M M M"
_symmetry_group_IT_number 71
_symmetry_cell_setting 'orthorhombic'
loop_
_space_group_symop_operation_xyz
x,y,z
-x,-y,z
x,-y,-z
-x,y,-z
-x,-y,-z
x,y,-z
-x,y,z
x,-y,z
1/2+x,1/2+y,1/2+z
1/2-x,1/2-y,1/2+z
1/2+x,1/2-y,1/2-z
1/2-x,1/2+y,1/2-z
1/2-x,1/2-y,1/2-z
1/2+x,1/2+y,1/2-z
1/2-x,1/2+y,1/2+z
1/2+x,1/2-y,1/2+z
loop_
_atom_site_type_symbol
_atom_site_label
_atom_site_fract_x
_atom_site_fract_y
_atom_site_fract_z
Si Si1 0.189128 0.220325 0.683786
Si Si2 0.575661 0.218830 0.683406
Si Si3 0.689433 0.944151 0.682456
Si Si4 0.305962 0.616423 0.315758
Si Si5 0.073297 0.053744 0.812923
Si Si6 0.423633 0.116782 0.816747
O O1 0.182745 0.229856 0.500000
O O2 0.250000 0.250000 0.750000
O O3 0.121064 0.236370 0.766903
O O4 0.203100 0.164623 0.716640
O O5 0.584512 0.207831 0.500000
O O6 0.500000 0.232652 0.724586
O O7 0.598756 0.171259 0.777094
O O8 0.707698 0.937256 0.500000
O O9 0.743420 0.918007 0.790440
O O10 0.617724 0.921407 0.716036
O O11 0.687382 0.000000 0.730341
O O12 0.312270 0.628838 0.500000
O O13 0.371650 0.590234 0.247934
O O14 0.000000 0.071228 0.759535
O O15 0.087032 0.000000 0.745883
O O16 0.077586 0.051864 0.000000
O O17 0.500000 0.109584 0.768897
O O18 0.411281 0.107230 0.000000
#
# Coordination Sequence:
#
# PCOD8291896 Si02
#       6
#    16  16  16  16  16  16
#     4  12  25  41  60  83 115 152 193 240 290 345
#     4  10  21  39  63  89 118 152 191 235 285 343
#     4  11  24  40  58  82 115 154 194 237 286 341
#     4  11  22  37  59  86 115 149 191 238 289 342
#     4   8  15  30  54  84 115 146 182 225 272 323
#     4  10  21  38  61  88 117 149 187 233 286 343
#
# _framework density 20.229551000000001
#
# number of rings (size 3 to 8) (size 9 to 14) (size 15 to 20)
#    0.000    1.667    0.000    5.500    0.000    5.000 
#    0.000    3.333    0.000    1.500    0.000    5.833 
#    0.000    0.000    0.000    0.000    0.000    0.000 
#
# Total GULP energy -595438.442320 kJ/mol
# GULP energy per Si atom -12404.967548 kJ/mol
# Density = 2.018351 g / cm^3
# Si number density = 20.229551 Si / 1000 Ang^3
#
#
#
# Elastic Constant Matrix: (Units=GPa)
#
#
# Indices 1 2 3 4 5 6 
#
# 1 119.2408 61.4143 26.0869 0.0000 0.0000 0.0000
# 2 61.4143 115.5346 18.0169 0.0000 0.0000 0.0000
# 3 26.0869 18.0169 55.1977 0.0000 0.0000 0.0000
# 4 0.0000 0.0000 0.0000 31.0198 0.0000 0.0000
# 5 0.0000 0.0000 0.0000 0.0000 26.7324 0.0000
# 6 0.0000 0.0000 0.0000 0.0000 0.0000 44.0213
#
#
#
# Elastic Compliance Matrix: (Units=1/GPa)
#
#
# Indices 1 2 3 4 5 6 
#
# 1 0.012286 -0.005927 -0.003872 0.000000 0.000000 0.000000
# 2 -0.005927 0.011979 -0.001109 0.000000 0.000000 0.000000
# 3 -0.003872 -0.001109 0.020309 0.000000 0.000000 0.000000
# 4 0.000000 0.000000 0.000000 0.032237 0.000000 0.000000
# 5 0.000000 0.000000 0.000000 0.000000 0.037408 0.000000
# 6 0.000000 0.000000 0.000000 0.000000 0.000000 0.022716
#
#
# Mechanical properties :
#
#
# Convention : Reuss Voigt Hill
#
# Bulk Modulus (GPa) = 43.94061 55.66774 49.80417
# Shear Modulus (GPa) = 30.05947 32.65171 31.35559
#
# Velocity S-wave (km/s) = 3.85894 4.02190 3.94126
# Velocity P-wave (km/s) = 6.45162 7.01037 6.73679
#
# Compressibility (1/GPa) = 0.02275799
#
# Stress axis : x y z
#
# Youngs Moduli (GPa) = 81.39210 83.47947 49.24045
#
# Poissons Ratio (x) = 0.49479 0.19065
# Poissons Ratio (y) = 0.48242 0.05460
# Poissons Ratio (z) = 0.31514 0.09256
#
# Static dielectric constant tensor:
#      x y z
#    x 3.878340 0.000000 0.000000 
#    y 0.000000 2.695690 0.000000 
#    z 0.000000 0.000000 3.504550 
# 
# 
# High freq. dielectric constant tensor:
#      x y z
#    x 1.803350 0.000000 0.000000 
#    y 0.000000 1.790030 0.000000 
#    z 0.000000 0.000000 1.782620 
# 
# From -- ./inp_files/10965.got.cif
#   From: 2010.06.25/outbox.cif.g09.slc.cpg/sg71_6_cif.got.tgz:10965.got - 2010.06.28 04:59:45.
