data_PCOD8291729
_publ_section_title
;
Structure prediction by ZEFSAII (Michael W. Deem and Ramdas Pophale) SiO2 
 PCOD8291729
Probable space group: I M M M
;
_chemical_formula_sum "Si O2"
_cell_formula_units_Z 72
_cell_length_a 17.579213
_cell_length_b 7.562433
_cell_length_c 27.115528
_cell_angle_alpha 90.000000
_cell_angle_beta 90.000000
_cell_angle_gamma 90.000000
_cell_volume 3604.782233
_symmetry_space_group_name_H-M "I M M M"
_symmetry_group_IT_number 71
_symmetry_cell_setting 'orthorhombic'
loop_
_space_group_symop_operation_xyz
x,y,z
-x,-y,z
x,-y,-z
-x,y,-z
-x,-y,-z
x,y,-z
-x,y,z
x,-y,z
1/2+x,1/2+y,1/2+z
1/2-x,1/2-y,1/2+z
1/2+x,1/2-y,1/2-z
1/2-x,1/2+y,1/2-z
1/2-x,1/2-y,1/2-z
1/2+x,1/2+y,1/2-z
1/2-x,1/2+y,1/2+z
1/2+x,1/2-y,1/2+z
loop_
_atom_site_type_symbol
_atom_site_label
_atom_site_fract_x
_atom_site_fract_y
_atom_site_fract_z
Si Si1 0.908305 0.500000 0.191164
Si Si2 0.000000 0.791627 0.053967
Si Si3 0.359050 0.290723 0.381116
Si Si4 0.413310 0.301934 0.125623
Si Si5 0.785635 0.291275 0.555326
Si Si6 0.589892 0.000000 0.197270
O O1 0.871584 0.322584 0.168229
O O2 0.878775 0.500000 0.247404
O O3 0.000000 0.500000 0.186519
O O4 0.925469 0.729643 0.082341
O O5 0.000000 0.000000 0.048556
O O6 0.000000 0.703096 0.000000
O O7 0.361840 0.500000 0.368388
O O8 0.281556 0.233134 0.407941
O O9 0.500000 0.251398 0.111881
O O10 0.408418 0.500000 0.146745
O O11 0.364520 0.285199 0.075858
O O12 0.380597 0.172738 0.167979
O O13 0.772078 0.216374 0.500000
O O14 0.790069 0.500000 0.553080
O O15 0.500000 0.000000 0.199900
#
# Coordination Sequence:
#
# PCOD8291729 Si02
#       6
#     8   8  16  16  16   8
#     4  11  22  38  62  89 115 155 204 251 298 344
#     4   9  16  31  55  79 112 157 197 234 283 341
#     4  10  21  37  56  83 121 158 197 243 291 347
#     4  10  21  39  63  88 117 153 194 242 299 362
#     4  10  21  38  62  88 121 160 195 238 297 354
#     4   9  20  40  63  86 115 150 198 252 300 349
#
# _framework density 19.973468
#
# number of rings (size 3 to 8) (size 9 to 14) (size 15 to 20)
#    0.000    2.111    2.222    0.667    1.556    4.444 
#    0.000    7.778    0.000    0.000    0.000    0.000 
#    0.000    0.000    0.000    0.000    0.000    0.000 
#
# Total GULP energy -446364.471176 kJ/mol
# GULP energy per Si atom -12399.013088 kJ/mol
# Density = 1.992801 g / cm^3
# Si number density = 19.973468 Si / 1000 Ang^3
#
#
#
# Elastic Constant Matrix: (Units=GPa)
#
#
# Indices 1 2 3 4 5 6 
#
# 1 104.1634 30.4489 54.2580 0.0000 0.0000 0.0000
# 2 30.4489 90.3230 57.7843 0.0000 0.0000 0.0000
# 3 54.2580 57.7843 135.0346 0.0000 0.0000 0.0000
# 4 0.0000 0.0000 0.0000 14.8848 0.0000 0.0000
# 5 0.0000 0.0000 0.0000 0.0000 27.1517 0.0000
# 6 0.0000 0.0000 0.0000 0.0000 0.0000 19.5712
#
#
#
# Elastic Compliance Matrix: (Units=1/GPa)
#
#
# Indices 1 2 3 4 5 6 
#
# 1 0.012260 -0.001351 -0.004348 0.000000 0.000000 0.000000
# 2 -0.001351 0.015394 -0.006044 0.000000 0.000000 0.000000
# 3 -0.004348 -0.006044 0.011739 0.000000 0.000000 0.000000
# 4 0.000000 0.000000 0.000000 0.067183 0.000000 0.000000
# 5 0.000000 0.000000 0.000000 0.000000 0.036830 0.000000
# 6 0.000000 0.000000 0.000000 0.000000 0.000000 0.051096
#
#
# Mechanical properties :
#
#
# Convention : Reuss Voigt Hill
#
# Bulk Modulus (GPa) = 62.87083 68.27816 65.57449
# Shear Modulus (GPa) = 22.39233 24.79018 23.59126
#
# Velocity S-wave (km/s) = 3.35192 3.52683 3.44049
# Velocity P-wave (km/s) = 6.82100 7.13045 6.97744
#
# Compressibility (1/GPa) = 0.01590563
#
# Stress axis : x y z
#
# Youngs Moduli (GPa) = 81.56501 64.96106 85.18585
#
# Poissons Ratio (x) = 0.08779 0.37038
# Poissons Ratio (y) = 0.11023 0.51489
# Poissons Ratio (z) = 0.35464 0.39265
#
# Static dielectric constant tensor:
#      x y z
#    x 5.969310 0.000000 0.000000 
#    y 0.000000 3.599610 0.000000 
#    z 0.000000 0.000000 3.758780 
# 
# 
# High freq. dielectric constant tensor:
#      x y z
#    x 1.774370 0.000000 0.000000 
#    y 0.000000 1.782010 0.000000 
#    z 0.000000 0.000000 1.768270 
# 
# From -- ./inp_files/65180.got.cif
#   From: 2010.06.25/outbox.cif.g09.slc.cpg/sg71_33_cif.got.tgz:65180.got - 2010.06.28 04:59:45.
