data_PCOD8291945
_publ_section_title
;
Structure prediction by ZEFSAII (Michael W. Deem and Ramdas Pophale) SiO2 
 PCOD8291945
Probable space group: I M M M
;
_chemical_formula_sum "Si O2"
_cell_formula_units_Z 88
_cell_length_a 11.249233
_cell_length_b 29.045168
_cell_length_c 13.510093
_cell_angle_alpha 90.000000
_cell_angle_beta 90.000000
_cell_angle_gamma 90.000000
_cell_volume 4414.231887
_symmetry_space_group_name_H-M "I M M M"
_symmetry_group_IT_number 71
_symmetry_cell_setting 'orthorhombic'
loop_
_space_group_symop_operation_xyz
x,y,z
-x,-y,z
x,-y,-z
-x,y,-z
-x,-y,-z
x,y,-z
-x,y,z
x,-y,z
1/2+x,1/2+y,1/2+z
1/2-x,1/2-y,1/2+z
1/2+x,1/2-y,1/2-z
1/2-x,1/2+y,1/2-z
1/2-x,1/2-y,1/2-z
1/2+x,1/2+y,1/2-z
1/2-x,1/2+y,1/2+z
1/2+x,1/2-y,1/2+z
loop_
_atom_site_type_symbol
_atom_site_label
_atom_site_fract_x
_atom_site_fract_y
_atom_site_fract_z
Si Si1 0.863578 0.446461 0.612846
Si Si2 0.628810 0.000000 0.615656
Si Si3 0.000000 0.105385 0.619738
Si Si4 0.767309 0.261549 0.384715
Si Si5 0.500000 0.708243 0.884048
Si Si6 0.251007 0.911207 0.298799
Si Si7 0.359930 0.815735 0.282755
O O1 0.825628 0.437499 0.500000
O O2 0.849936 0.500000 0.640275
O O3 0.774863 0.416813 0.681202
O O4 0.000000 0.430652 0.629333
O O5 0.689096 0.952954 0.645682
O O6 0.500000 0.000000 0.666928
O O7 0.618555 0.000000 0.500000
O O8 0.885490 0.082894 0.670094
O O9 0.000000 0.099597 0.500000
O O10 0.000000 0.157401 0.658670
O O11 0.763332 0.275061 0.500000
O O12 0.883840 0.234280 0.348170
O O13 0.657702 0.227825 0.357513
O O14 0.780903 0.307426 0.317783
O O15 0.500000 0.705008 0.000000
O O16 0.307220 0.862196 0.332880
O O17 0.500000 0.821826 0.260861
#
# Coordination Sequence:
#
# PCOD8291945 Si02
#       7
#    16   8   8  16   8  16  16
#     4   9  18  36  63  90 118 155 199 247 306 369
#     4  11  24  41  62  90 125 161 199 256 322 374
#     4  11  24  41  63  89 120 170 218 253 304 372
#     4  10  21  39  61  87 123 162 198 246 305 366
#     4   9  16  36  63  81 113 163 203 243 297 358
#     4  12  23  40  63  90 126 163 209 262 307 365
#     4  11  23  36  60  94 123 156 205 256 309 368
#
# _framework density 19.935517999999998
#
# number of rings (size 3 to 8) (size 9 to 14) (size 15 to 20)
#    0.000    1.545    3.636    2.727    0.000    2.182 
#    0.000    1.364    0.000    1.091    0.000    0.000 
#    0.000    0.000    0.000    0.000    0.000    0.000 
#
# Total GULP energy -545364.306844 kJ/mol
# GULP energy per Si atom -12394.643337 kJ/mol
# Density = 1.989014 g / cm^3
# Si number density = 19.935518 Si / 1000 Ang^3
#
#
#
# Elastic Constant Matrix: (Units=GPa)
#
#
# Indices 1 2 3 4 5 6 
#
# 1 116.4906 47.0071 37.2816 0.0001 -0.0001 -0.0001
# 2 47.0071 100.7749 21.8184 0.0003 0.0000 0.0002
# 3 37.2816 21.8184 89.0531 0.0018 0.0002 -0.0003
# 4 0.0001 0.0003 0.0018 12.9005 -0.0002 -0.0003
# 5 -0.0001 0.0000 0.0002 -0.0002 32.0765 0.0001
# 6 -0.0001 0.0002 -0.0003 -0.0003 0.0001 24.4938
#
#
#
# Elastic Compliance Matrix: (Units=1/GPa)
#
#
# Indices 1 2 3 4 5 6 
#
# 1 0.011648 -0.004623 -0.003744 0.000001 0.000000 0.000000
# 2 -0.004623 0.012314 -0.001082 0.000000 0.000000 0.000000
# 3 -0.003744 -0.001082 0.013062 -0.000002 0.000000 0.000000
# 4 0.000001 0.000000 -0.000002 0.077517 0.000001 0.000001
# 5 0.000000 0.000000 0.000000 0.000001 0.031175 0.000000
# 6 0.000000 0.000000 0.000000 0.000001 0.000000 0.040827
#
#
# Mechanical properties :
#
#
# Convention : Reuss Voigt Hill
#
# Bulk Modulus (GPa) = 55.16661 57.61476 56.39069
# Shear Modulus (GPa) = 23.64288 27.24158 25.44223
#
# Velocity S-wave (km/s) = 3.44752 3.70061 3.57631
# Velocity P-wave (km/s) = 6.60150 6.87187 6.73804
#
# Compressibility (1/GPa) = 0.01812691
#
# Stress axis : x y z
#
# Youngs Moduli (GPa) = 85.85223 81.21122 76.56050
#
# Poissons Ratio (x) = 0.37541 0.28662
# Poissons Ratio (y) = 0.39687 0.08281
# Poissons Ratio (z) = 0.32141 0.08784
#
# Static dielectric constant tensor:
#      x y z
#    x 3.529320 -0.000020 0.000000 
#    y -0.000020 5.248930 0.000070 
#    z 0.000000 0.000070 3.624560 
# 
# 
# High freq. dielectric constant tensor:
#      x y z
#    x 1.765260 0.000000 0.000000 
#    y 0.000000 1.778620 0.000000 
#    z 0.000000 0.000000 1.777540 
# 
# From -- ./inp_files/33028.got.cif
#   From: 2010.06.25/outbox.cif.g09.slc.cpg/sg71_17_cif.got.tgz:33028.got - 2010.06.28 04:59:45.
