data_PCOD8291274
_publ_section_title
;
Structure prediction by ZEFSAII (Michael W. Deem and Ramdas Pophale) SiO2 
 PCOD8291274
Probable space group: I M M M
;
_chemical_formula_sum "Si O2"
_cell_formula_units_Z 104
_cell_length_a 23.062579
_cell_length_b 24.867911
_cell_length_c 8.907529
_cell_angle_alpha 90.000000
_cell_angle_beta 90.000000
_cell_angle_gamma 90.000000
_cell_volume 5108.629660
_symmetry_space_group_name_H-M "I M M M"
_symmetry_group_IT_number 71
_symmetry_cell_setting 'orthorhombic'
loop_
_space_group_symop_operation_xyz
x,y,z
-x,-y,z
x,-y,-z
-x,y,-z
-x,-y,-z
x,y,-z
-x,y,z
x,-y,z
1/2+x,1/2+y,1/2+z
1/2-x,1/2-y,1/2+z
1/2+x,1/2-y,1/2-z
1/2-x,1/2+y,1/2-z
1/2-x,1/2-y,1/2-z
1/2+x,1/2+y,1/2-z
1/2-x,1/2+y,1/2+z
1/2+x,1/2-y,1/2+z
loop_
_atom_site_type_symbol
_atom_site_label
_atom_site_fract_x
_atom_site_fract_y
_atom_site_fract_z
Si Si1 0.431738 0.000000 0.178307
Si Si2 0.150751 0.587316 0.177716
Si Si3 0.000000 0.750175 0.172335
Si Si4 0.597494 0.439801 0.173882
Si Si5 0.500000 0.369964 0.678190
Si Si6 0.201229 0.784843 0.676958
Si Si7 0.220806 0.904021 0.677302
Si Si8 0.619696 0.207761 0.673989
O O1 0.398049 0.052290 0.239823
O O2 0.500000 0.000000 0.229086
O O3 0.428048 0.000000 0.000000
O O4 0.216656 0.572250 0.232247
O O5 0.142923 0.649641 0.223288
O O6 0.142457 0.578504 0.000000
O O7 0.052261 0.710645 0.211410
O O8 0.000000 0.809506 0.248681
O O9 0.000000 0.766237 0.000000
O O10 0.573872 0.500000 0.197984
O O11 0.558256 0.399225 0.266963
O O12 0.665207 0.439271 0.226450
O O13 0.593611 0.422551 0.000000
O O14 0.500000 0.371966 0.500000
O O15 0.207109 0.784490 0.500000
O O16 0.250000 0.750000 0.750000
O O17 0.207902 0.844749 0.741671
O O18 0.141980 0.757599 0.727902
O O19 0.226223 0.900946 0.500000
O O20 0.634903 0.217950 0.500000
#
# Coordination Sequence:
#
# PCOD8291274 Si02
#       8
#     8  16   8  16   8  16  16  16
#     4  11  27  47  63  85 123 160 195 248 307 359
#     4  10  21  39  66  92 116 150 198 248 293 351
#     4   9  20  36  58  86 119 154 187 232 289 344
#     4  10  21  37  60  83 110 150 197 243 291 338
#     4  11  22  38  57  82 119 157 192 234 287 340
#     4  11  20  34  55  83 120 157 192 233 288 349
#     4   9  19  36  58  89 120 150 193 246 292 340
#     4  10  20  37  60  88 119 152 195 242 288 349
#
# _framework density 20.357710000000001
#
# number of rings (size 3 to 8) (size 9 to 14) (size 15 to 20)
#    0.000    1.923    1.538    2.077    2.154    2.462 
#    0.000    2.692    0.000    0.000    0.000    0.000 
#    0.000    0.000    0.000    0.000    0.000    0.000 
#
# Total GULP energy -644417.670196 kJ/mol
# GULP energy per Si atom -12392.647504 kJ/mol
# Density = 2.031137 g / cm^3
# Si number density = 20.357710 Si / 1000 Ang^3
#
#
#
# Elastic Constant Matrix: (Units=GPa)
#
#
# Indices 1 2 3 4 5 6 
#
# 1 149.8031 32.2217 28.2366 0.0000 0.0000 0.0000
# 2 32.2217 77.3403 21.5880 0.0000 0.0000 0.0000
# 3 28.2366 21.5880 48.8657 0.0000 0.0000 0.0000
# 4 0.0000 0.0000 0.0000 27.4076 0.0000 0.0000
# 5 0.0000 0.0000 0.0000 0.0000 29.5946 0.0000
# 6 0.0000 0.0000 0.0000 0.0000 0.0000 19.3925
#
#
#
# Elastic Compliance Matrix: (Units=1/GPa)
#
#
# Indices 1 2 3 4 5 6 
#
# 1 0.007829 -0.002280 -0.003516 0.000000 0.000000 0.000000
# 2 -0.002280 0.015413 -0.005492 0.000000 0.000000 0.000000
# 3 -0.003516 -0.005492 0.024922 0.000000 0.000000 0.000000
# 4 0.000000 0.000000 0.000000 0.036486 0.000000 0.000000
# 5 0.000000 0.000000 0.000000 0.000000 0.033790 0.000000
# 6 0.000000 0.000000 0.000000 0.000000 0.000000 0.051566
#
#
# Mechanical properties :
#
#
# Convention : Reuss Voigt Hill
#
# Bulk Modulus (GPa) = 39.08153 48.90018 43.99086
# Shear Modulus (GPa) = 24.86187 28.20981 26.53584
#
# Velocity S-wave (km/s) = 3.49843 3.72655 3.61429
# Velocity P-wave (km/s) = 5.96303 6.52601 6.25086
#
# Compressibility (1/GPa) = 0.02558754
#
# Stress axis : x y z
#
# Youngs Moduli (GPa) = 127.73562 64.88184 40.12479
#
# Poissons Ratio (x) = 0.14793 0.14110
# Poissons Ratio (y) = 0.29124 0.22035
# Poissons Ratio (z) = 0.44917 0.35630
#
# Static dielectric constant tensor:
#      x y z
#    x 3.737150 0.000000 0.000000 
#    y 0.000000 3.604920 0.000000 
#    z 0.000000 0.000000 2.922510 
# 
# 
# High freq. dielectric constant tensor:
#      x y z
#    x 1.817160 0.000000 0.000000 
#    y 0.000000 1.802370 0.000000 
#    z 0.000000 0.000000 1.756720 
# 
# From -- ./inp_files/11215.got.cif
#   From: 2010.06.25/outbox.cif.g09.slc.cpg/sg71_6_cif.got.tgz:11215.got - 2010.06.28 04:59:45.
