data_PCOD8291505
_publ_section_title
;
Structure prediction by ZEFSAII (Michael W. Deem and Ramdas Pophale) SiO2 
 PCOD8291505
Probable space group: I M M M
;
_chemical_formula_sum "Si O2"
_cell_formula_units_Z 88
_cell_length_a 12.510928
_cell_length_b 27.383022
_cell_length_c 13.801235
_cell_angle_alpha 90.000000
_cell_angle_beta 90.000000
_cell_angle_gamma 90.000000
_cell_volume 4728.123925
_symmetry_space_group_name_H-M "I M M M"
_symmetry_group_IT_number 71
_symmetry_cell_setting 'orthorhombic'
loop_
_space_group_symop_operation_xyz
x,y,z
-x,-y,z
x,-y,-z
-x,y,-z
-x,-y,-z
x,y,-z
-x,y,z
x,-y,z
1/2+x,1/2+y,1/2+z
1/2-x,1/2-y,1/2+z
1/2+x,1/2-y,1/2-z
1/2-x,1/2+y,1/2-z
1/2-x,1/2-y,1/2-z
1/2+x,1/2+y,1/2-z
1/2-x,1/2+y,1/2+z
1/2+x,1/2-y,1/2+z
loop_
_atom_site_type_symbol
_atom_site_label
_atom_site_fract_x
_atom_site_fract_y
_atom_site_fract_z
Si Si1 0.760192 0.744116 0.389224
Si Si2 0.119276 0.942293 0.609858
Si Si3 0.274005 0.909212 0.773883
Si Si4 0.126788 0.500000 0.613174
Si Si5 0.378405 0.809333 0.267021
Si Si6 0.616178 0.348339 0.389258
O O1 0.796667 0.751172 0.500000
O O2 0.707352 0.794100 0.349767
O O3 0.861704 0.726005 0.326674
O O4 0.669544 0.703821 0.374830
O O5 0.140607 0.924846 0.500000
O O6 0.217651 0.922688 0.673071
O O7 0.000000 0.923945 0.642562
O O8 0.120631 0.000000 0.616701
O O9 0.332293 0.953208 0.828102
O O10 0.359527 0.866011 0.758061
O O11 0.180045 0.892301 0.843248
O O12 0.165254 0.500000 0.500000
O O13 0.000000 0.500000 0.616121
O O14 0.500000 0.803220 0.303129
O O15 0.606143 0.362275 0.500000
O O16 0.500000 0.345079 0.340013
#
# Coordination Sequence:
#
# PCOD8291505 Si02
#       6
#    16  16  16   8  16  16
#     4   9  19  36  56  78 109 145 179 219 269 327
#     4   9  18  34  56  79 104 141 186 229 276 323
#     4  11  20  35  55  79 110 144 183 229 272 321
#     4  11  24  40  56  75 104 144 186 227 274 328
#     4  10  21  35  55  83 111 143 184 227 274 326
#     4   9  17  30  51  79 109 139 171 213 270 330
#
# _framework density 18.612033
#
# number of rings (size 3 to 8) (size 9 to 14) (size 15 to 20)
#    0.000    2.273    0.909    2.727    0.000    2.909 
#    0.000    0.909    0.000    4.364    0.000    0.000 
#    0.000    0.000    0.000    0.000    0.000    0.000 
#
# Total GULP energy -545378.750350 kJ/mol
# GULP energy per Si atom -12394.971599 kJ/mol
# Density = 1.856967 g / cm^3
# Si number density = 18.612033 Si / 1000 Ang^3
#
#
#
# Elastic Constant Matrix: (Units=GPa)
#
#
# Indices 1 2 3 4 5 6 
#
# 1 71.3588 14.4354 23.3682 0.0004 -0.0003 -0.0001
# 2 14.4354 81.3079 31.6647 0.0003 -0.0002 0.0000
# 3 23.3682 31.6647 92.7425 0.0009 -0.0011 -0.0005
# 4 0.0004 0.0003 0.0009 22.1771 -0.0003 -0.0001
# 5 -0.0003 -0.0002 -0.0011 -0.0003 25.8832 0.0000
# 6 -0.0001 0.0000 -0.0005 -0.0001 0.0000 8.8976
#
#
#
# Elastic Compliance Matrix: (Units=1/GPa)
#
#
# Indices 1 2 3 4 5 6 
#
# 1 0.015413 -0.001412 -0.003402 0.000000 0.000000 0.000000
# 2 -0.001412 0.014314 -0.004532 0.000000 0.000000 0.000000
# 3 -0.003402 -0.004532 0.013187 0.000000 0.000000 0.000001
# 4 0.000000 0.000000 0.000000 0.045092 0.000001 0.000001
# 5 0.000000 0.000000 0.000000 0.000001 0.038635 0.000000
# 6 0.000000 0.000000 0.000001 0.000001 0.000000 0.112390
#
#
# Mechanical properties :
#
#
# Convention : Reuss Voigt Hill
#
# Bulk Modulus (GPa) = 41.28050 42.70511 41.99280
# Shear Modulus (GPa) = 18.81141 23.12097 20.96619
#
# Velocity S-wave (km/s) = 3.18262 3.52839 3.35996
# Velocity P-wave (km/s) = 5.97771 6.29239 6.13707
#
# Compressibility (1/GPa) = 0.02422451
#
# Stress axis : x y z
#
# Youngs Moduli (GPa) = 64.87937 69.86000 75.83307
#
# Poissons Ratio (x) = 0.09862 0.25796
# Poissons Ratio (y) = 0.09159 0.34364
# Poissons Ratio (z) = 0.22070 0.31658
#
# Static dielectric constant tensor:
#      x y z
#    x 3.590920 0.000000 0.000000 
#    y 0.000000 3.320600 0.000000 
#    z 0.000000 0.000000 3.656280 
# 
# 
# High freq. dielectric constant tensor:
#      x y z
#    x 1.719820 0.000000 0.000000 
#    y 0.000000 1.718200 0.000000 
#    z 0.000000 0.000000 1.723270 
# 
# From -- ./inp_files/32970.got.cif
#   From: 2010.06.25/outbox.cif.g09.slc.cpg/sg71_17_cif.got.tgz:32970.got - 2010.06.28 04:59:45.
