data_PCOD8291971
_publ_section_title
;
Structure prediction by ZEFSAII (Michael W. Deem and Ramdas Pophale) SiO2 
 PCOD8291971
Probable space group: I M M M
;
_chemical_formula_sum "Si O2"
_cell_formula_units_Z 72
_cell_length_a 7.967132
_cell_length_b 14.845098
_cell_length_c 30.251743
_cell_angle_alpha 90.000000
_cell_angle_beta 90.000000
_cell_angle_gamma 90.000000
_cell_volume 3577.960023
_symmetry_space_group_name_H-M "I M M M"
_symmetry_group_IT_number 71
_symmetry_cell_setting 'orthorhombic'
loop_
_space_group_symop_operation_xyz
x,y,z
-x,-y,z
x,-y,-z
-x,y,-z
-x,-y,-z
x,y,-z
-x,y,z
x,-y,z
1/2+x,1/2+y,1/2+z
1/2-x,1/2-y,1/2+z
1/2+x,1/2-y,1/2-z
1/2-x,1/2+y,1/2-z
1/2-x,1/2-y,1/2-z
1/2+x,1/2+y,1/2-z
1/2-x,1/2+y,1/2+z
1/2+x,1/2-y,1/2+z
loop_
_atom_site_type_symbol
_atom_site_label
_atom_site_fract_x
_atom_site_fract_y
_atom_site_fract_z
Si Si1 0.807857 0.500000 0.168690
Si Si2 0.311636 0.782805 0.949547
Si Si3 0.193946 0.000000 0.765825
Si Si4 0.802144 0.693271 0.292943
Si Si5 0.000000 0.098305 0.947845
Si Si6 0.196019 0.317709 0.129179
O O1 0.799672 0.500000 0.221195
O O2 0.724862 0.590372 0.148978
O O3 0.000000 0.500000 0.154671
O O4 0.500000 0.824176 0.945876
O O5 0.294505 0.698223 0.916777
O O6 0.171220 0.853184 0.932716
O O7 0.276180 0.752002 0.000000
O O8 0.238492 0.090329 0.792552
O O9 0.000000 0.000000 0.753142
O O10 0.750000 0.750000 0.250000
O O11 0.722651 0.737266 0.336274
O O12 0.000000 0.694266 0.297053
O O13 0.000000 0.000000 0.925544
O O14 0.000000 0.089473 0.000000
O O15 0.000000 0.326529 0.118848
#
# Coordination Sequence:
#
# PCOD8291971 Si02
#       6
#     8  16   8  16   8  16
#     4  10  22  38  63  91 120 158 206 257 306 370
#     4  10  21  39  63  91 125 165 209 258 314 372
#     4  12  24  40  62  89 120 163 206 251 309 368
#     4  12  24  40  61  88 123 160 202 252 305 367
#     4   9  18  36  62  89 119 159 203 252 308 367
#     4  11  22  40  64  92 123 161 208 258 313 370
#
# _framework density 20.123197999999999
#
# number of rings (size 3 to 8) (size 9 to 14) (size 15 to 20)
#    0.000    1.222    3.333    3.667    0.000    1.333 
#    2.000    2.778    0.000    3.333    0.000    0.000 
#    0.000    0.000    0.000    0.000    0.000    0.000 
#
# Total GULP energy -446364.965618 kJ/mol
# GULP energy per Si atom -12399.026823 kJ/mol
# Density = 2.007740 g / cm^3
# Si number density = 20.123198 Si / 1000 Ang^3
#
#
#
# Elastic Constant Matrix: (Units=GPa)
#
#
# Indices 1 2 3 4 5 6 
#
# 1 110.3951 28.4123 20.7175 0.0000 0.0000 0.0000
# 2 28.4123 153.3957 57.3817 0.0000 0.0000 0.0000
# 3 20.7175 57.3817 109.2133 0.0000 0.0000 0.0000
# 4 0.0000 0.0000 0.0000 23.2797 0.0000 0.0000
# 5 0.0000 0.0000 0.0000 0.0000 31.1979 0.0000
# 6 0.0000 0.0000 0.0000 0.0000 0.0000 20.8150
#
#
#
# Elastic Compliance Matrix: (Units=1/GPa)
#
#
# Indices 1 2 3 4 5 6 
#
# 1 0.009618 -0.001368 -0.001106 0.000000 0.000000 0.000000
# 2 -0.001368 0.008308 -0.004106 0.000000 0.000000 0.000000
# 3 -0.001106 -0.004106 0.011523 0.000000 0.000000 0.000000
# 4 0.000000 0.000000 0.000000 0.042956 0.000000 0.000000
# 5 0.000000 0.000000 0.000000 0.000000 0.032053 0.000000
# 6 0.000000 0.000000 0.000000 0.000000 0.000000 0.048042
#
#
# Mechanical properties :
#
#
# Convention : Reuss Voigt Hill
#
# Bulk Modulus (GPa) = 61.38445 65.11412 63.24928
# Shear Modulus (GPa) = 29.22430 32.82468 31.02449
#
# Velocity S-wave (km/s) = 3.81500 4.04318 3.93074
# Velocity P-wave (km/s) = 7.06938 7.36372 7.21805
#
# Compressibility (1/GPa) = 0.01629077
#
# Stress axis : x y z
#
# Youngs Moduli (GPa) = 103.97245 120.36145 86.78002
#
# Poissons Ratio (x) = 0.16463 0.09597
# Poissons Ratio (y) = 0.14221 0.35630
# Poissons Ratio (z) = 0.11498 0.49418
#
# Static dielectric constant tensor:
#      x y z
#    x 3.777180 0.000000 0.000000 
#    y 0.000000 3.941070 0.000000 
#    z 0.000000 0.000000 3.599720 
# 
# 
# High freq. dielectric constant tensor:
#      x y z
#    x 1.799290 0.000000 0.000000 
#    y 0.000000 1.779820 0.000000 
#    z 0.000000 0.000000 1.778770 
# 
# From -- ./inp_files/62898.got.cif
#   From: 2010.06.25/outbox.cif.g09.slc.cpg/sg71_32_cif.got.tgz:62898.got - 2010.06.28 04:59:45.
