data_PCOD8291553
_publ_section_title
;
Structure prediction by ZEFSAII (Michael W. Deem and Ramdas Pophale) SiO2 
 PCOD8291553
Probable space group: I M M M
;
_chemical_formula_sum "Si O2"
_cell_formula_units_Z 96
_cell_length_a 25.484269
_cell_length_b 13.700493
_cell_length_c 15.074271
_cell_angle_alpha 90.000000
_cell_angle_beta 90.000000
_cell_angle_gamma 90.000000
_cell_volume 5263.137236
_symmetry_space_group_name_H-M "I M M M"
_symmetry_group_IT_number 71
_symmetry_cell_setting 'orthorhombic'
loop_
_space_group_symop_operation_xyz
x,y,z
-x,-y,z
x,-y,-z
-x,y,-z
-x,-y,-z
x,y,-z
-x,y,z
x,-y,z
1/2+x,1/2+y,1/2+z
1/2-x,1/2-y,1/2+z
1/2+x,1/2-y,1/2-z
1/2-x,1/2+y,1/2-z
1/2-x,1/2-y,1/2-z
1/2+x,1/2+y,1/2-z
1/2-x,1/2+y,1/2+z
1/2+x,1/2-y,1/2+z
loop_
_atom_site_type_symbol
_atom_site_label
_atom_site_fract_x
_atom_site_fract_y
_atom_site_fract_z
Si Si1 0.500000 0.394572 0.100049
Si Si2 0.940382 0.115287 0.000000
Si Si3 0.626597 0.614325 0.667945
Si Si4 0.257268 0.385967 0.712279
Si Si5 0.841450 0.611473 0.603689
Si Si6 0.895259 0.205762 0.651890
Si Si7 0.710826 0.384350 0.097681
O O1 0.500000 0.500000 0.152805
O O2 0.549563 0.328238 0.117397
O O3 0.500000 0.425436 0.000000
O O4 0.906346 0.150156 0.083577
O O5 0.000000 0.159196 0.000000
O O6 0.944710 0.000000 0.000000
O O7 0.616891 0.500000 0.689183
O O8 0.688903 0.634282 0.658470
O O9 0.605126 0.682615 0.744711
O O10 0.247208 0.500000 0.718677
O O11 0.208888 0.342917 0.655860
O O12 0.258431 0.342597 0.814269
O O13 0.828962 0.620701 0.500000
O O14 0.854243 0.500000 0.629618
O O15 0.890444 0.678030 0.633226
O O16 0.849025 0.150742 0.599774
O O17 0.709834 0.500000 0.107084
O O18 0.734752 0.354663 0.000000
#
# Coordination Sequence:
#
# PCOD8291553 Si02
#       7
#     8   8  16  16  16  16  16
#     4  11  22  34  53  80 106 130 158 196 249 317
#     4   9  18  30  48  76 113 151 177 200 246 311
#     4   9  18  31  50  78 109 141 175 212 257 315
#     4   8  16  30  49  73  99 133 177 218 259 308
#     4  10  21  36  54  73  98 135 180 227 270 310
#     4  11  21  34  51  73 103 136 173 213 259 311
#     4   9  16  28  47  73 107 140 168 205 259 322
#
# _framework density 18.240071
#
# number of rings (size 3 to 8) (size 9 to 14) (size 15 to 20)
#    0.000    2.500    0.000    4.000    2.333    4.000 
#    0.000    0.417    1.833    1.500    0.000    0.000 
#    0.000    0.667    0.000    0.000    0.000    0.000 
#
# Total GULP energy -594754.745746 kJ/mol
# GULP energy per Si atom -12390.723870 kJ/mol
# Density = 1.819856 g / cm^3
# Si number density = 18.240071 Si / 1000 Ang^3
#
#
#
# Elastic Constant Matrix: (Units=GPa)
#
#
# Indices 1 2 3 4 5 6 
#
# 1 107.1431 48.7879 51.5520 0.0000 0.0000 0.0000
# 2 48.7879 64.5368 44.2651 0.0000 0.0000 0.0000
# 3 51.5520 44.2651 129.2306 0.0000 0.0000 0.0000
# 4 0.0000 0.0000 0.0000 -67.6881 0.0000 0.0000
# 5 0.0000 0.0000 0.0000 0.0000 15.5111 0.0000
# 6 0.0000 0.0000 0.0000 0.0000 0.0000 23.0354
#
#
#
# Elastic Compliance Matrix: (Units=1/GPa)
#
#
# Indices 1 2 3 4 5 6 
#
# 1 0.014936 -0.009417 -0.002733 0.000000 0.000000 0.000000
# 2 -0.009417 0.026191 -0.005214 0.000000 0.000000 0.000000
# 3 -0.002733 -0.005214 0.010614 0.000000 0.000000 0.000000
# 4 0.000000 0.000000 0.000000 -0.014774 0.000000 0.000000
# 5 0.000000 0.000000 0.000000 0.000000 0.064470 0.000000
# 6 0.000000 0.000000 0.000000 0.000000 0.000000 0.043412
#
#
# Mechanical properties :
#
#
# Convention : Reuss Voigt Hill
#
# Bulk Modulus (GPa) = 58.77920 65.56895 62.17408
# Shear Modulus (GPa) = 26.99083 4.59203 15.79143
#
# Velocity S-wave (km/s) = 3.85093 1.58840 2.94556
# Velocity P-wave (km/s) = 7.21583 6.27613 6.76232
#
# Compressibility (1/GPa) = 0.01701282
#
# Stress axis : x y z
#
# Youngs Moduli (GPa) = 66.95136 38.18177 94.21260
#
# Poissons Ratio (x) = 0.35956 0.25745
# Poissons Ratio (y) = 0.63048 0.49126
# Poissons Ratio (z) = 0.18296 0.19909
#
# Static dielectric constant tensor:
#      x y z
#    x 3.324140 0.000000 0.000000 
#    y 0.000000 3.253650 0.000000 
#    z 0.000000 0.000000 3.849930 
# 
# 
# High freq. dielectric constant tensor:
#      x y z
#    x 1.680580 0.000000 0.000000 
#    y 0.000000 1.692860 0.000000 
#    z 0.000000 0.000000 1.716360 
# 
# From -- ./inp_files/40297.got.cif
#   From: 2010.06.25/outbox.cif.g09.slc.cpg/sg71_21_cif.got.tgz:40297.got - 2010.06.28 04:59:45.
