data_PCOD8291440
_publ_section_title
;
Structure prediction by ZEFSAII (Michael W. Deem and Ramdas Pophale) SiO2 
 PCOD8291440
Probable space group: I M M M
;
_chemical_formula_sum "Si O2"
_cell_formula_units_Z 96
_cell_length_a 23.943100
_cell_length_b 17.367231
_cell_length_c 13.191030
_cell_angle_alpha 90.000000
_cell_angle_beta 90.000000
_cell_angle_gamma 90.000000
_cell_volume 5485.164648
_symmetry_space_group_name_H-M "I M M M"
_symmetry_group_IT_number 71
_symmetry_cell_setting 'orthorhombic'
loop_
_space_group_symop_operation_xyz
x,y,z
-x,-y,z
x,-y,-z
-x,y,-z
-x,-y,-z
x,y,-z
-x,y,z
x,-y,z
1/2+x,1/2+y,1/2+z
1/2-x,1/2-y,1/2+z
1/2+x,1/2-y,1/2-z
1/2-x,1/2+y,1/2-z
1/2-x,1/2-y,1/2-z
1/2+x,1/2+y,1/2-z
1/2-x,1/2+y,1/2+z
1/2+x,1/2-y,1/2+z
loop_
_atom_site_type_symbol
_atom_site_label
_atom_site_fract_x
_atom_site_fract_y
_atom_site_fract_z
Si Si1 0.338240 0.174271 0.114804
Si Si2 0.063832 0.411341 0.711840
Si Si3 0.274335 0.588973 0.616638
Si Si4 0.936251 0.704448 0.114826
Si Si5 0.359653 0.689855 0.258475
Si Si6 0.436123 0.411246 0.884056
O O1 0.397386 0.131882 0.130970
O O2 0.289473 0.113117 0.135278
O O3 0.329698 0.245591 0.190351
O O4 0.336465 0.205352 0.000000
O O5 0.081110 0.500000 0.720408
O O6 0.072713 0.373771 0.822142
O O7 0.000000 0.401852 0.674722
O O8 0.291738 0.602917 0.500000
O O9 0.280602 0.500000 0.646435
O O10 0.313086 0.638304 0.689586
O O11 0.897500 0.772774 0.154678
O O12 0.000000 0.733146 0.122846
O O13 0.919337 0.685159 0.000000
O O14 0.397969 0.638774 0.187416
O O15 0.500000 0.385323 0.868934
O O16 0.428872 0.500000 0.854058
O O17 0.417901 0.397715 0.000000
#
# Coordination Sequence:
#
# PCOD8291440 Si02
#       6
#    16  16  16  16  16  16
#     4  10  21  35  51  73 102 132 161 200 250 297
#     4   9  18  32  51  75 100 129 167 205 242 290
#     4  10  21  36  53  72  95 127 166 205 247 295
#     4   9  18  31  47  70 100 130 159 198 247 291
#     4  11  19  32  52  75  97 127 167 207 241 288
#     4   9  18  32  50  74 104 135 165 200 245 294
#
# _framework density 17.501753999999998
#
# number of rings (size 3 to 8) (size 9 to 14) (size 15 to 20)
#    0.000    2.333    0.000    3.500    0.000    2.333 
#    0.000    2.500    0.000    1.000    0.000    7.000 
#    0.000    0.000    0.000    0.000    0.000    0.000 
#
# Total GULP energy -595277.436448 kJ/mol
# GULP energy per Si atom -12401.613259 kJ/mol
# Density = 1.746192 g / cm^3
# Si number density = 17.501754 Si / 1000 Ang^3
#
#
#
# Elastic Constant Matrix: (Units=GPa)
#
#
# Indices 1 2 3 4 5 6 
#
# 1 79.2345 54.6044 47.4632 0.0000 0.0000 0.0000
# 2 54.6044 110.4016 54.0178 0.0000 0.0000 0.0000
# 3 47.4632 54.0178 90.3345 0.0000 0.0000 0.0000
# 4 0.0000 0.0000 0.0000 23.2457 0.0000 0.0000
# 5 0.0000 0.0000 0.0000 0.0000 12.1427 0.0000
# 6 0.0000 0.0000 0.0000 0.0000 0.0000 34.1763
#
#
#
# Elastic Compliance Matrix: (Units=1/GPa)
#
#
# Indices 1 2 3 4 5 6 
#
# 1 0.021982 -0.007380 -0.007136 0.000000 0.000000 0.000000
# 2 -0.007380 0.015282 -0.005260 0.000000 0.000000 0.000000
# 3 -0.007136 -0.005260 0.017965 0.000000 0.000000 0.000000
# 4 0.000000 0.000000 0.000000 0.043019 0.000000 0.000000
# 5 0.000000 0.000000 0.000000 0.000000 0.082354 0.000000
# 6 0.000000 0.000000 0.000000 0.000000 0.000000 0.029260
#
#
# Mechanical properties :
#
#
# Convention : Reuss Voigt Hill
#
# Bulk Modulus (GPa) = 63.79763 65.79346 64.79555
# Shear Modulus (GPa) = 19.63549 22.17196 20.90373
#
# Velocity S-wave (km/s) = 3.35313 3.56313 3.45973
# Velocity P-wave (km/s) = 7.17793 7.38932 7.28439
#
# Compressibility (1/GPa) = 0.01567456
#
# Stress axis : x y z
#
# Youngs Moduli (GPa) = 45.49223 65.43606 55.66351
#
# Poissons Ratio (x) = 0.48295 0.39723
# Poissons Ratio (y) = 0.33576 0.29282
# Poissons Ratio (z) = 0.32464 0.34423
#
# Static dielectric constant tensor:
#      x y z
#    x 3.239320 0.000000 0.000000 
#    y 0.000000 3.309730 0.000000 
#    z 0.000000 0.000000 3.272340 
# 
# 
# High freq. dielectric constant tensor:
#      x y z
#    x 1.676540 0.000000 0.000000 
#    y 0.000000 1.681320 0.000000 
#    z 0.000000 0.000000 1.677740 
# 
# From -- ./inp_files/24204.got.cif
#   From: 2010.06.25/outbox.cif.g09.slc.cpg/sg71_13_cif.got.tgz:24204.got - 2010.06.28 04:59:45.
