data_PCOD8291770
_publ_section_title
;
Structure prediction by ZEFSAII (Michael W. Deem and Ramdas Pophale) SiO2 
 PCOD8291770
Probable space group: I M M M
;
_chemical_formula_sum "Si O2"
_cell_formula_units_Z 80
_cell_length_a 18.388901
_cell_length_b 25.259790
_cell_length_c 8.763771
_cell_angle_alpha 90.000000
_cell_angle_beta 90.000000
_cell_angle_gamma 90.000000
_cell_volume 4070.769680
_symmetry_space_group_name_H-M "I M M M"
_symmetry_group_IT_number 71
_symmetry_cell_setting 'orthorhombic'
loop_
_space_group_symop_operation_xyz
x,y,z
-x,-y,z
x,-y,-z
-x,y,-z
-x,-y,-z
x,y,-z
-x,y,z
x,-y,z
1/2+x,1/2+y,1/2+z
1/2-x,1/2-y,1/2+z
1/2+x,1/2-y,1/2-z
1/2-x,1/2+y,1/2-z
1/2-x,1/2-y,1/2-z
1/2+x,1/2+y,1/2-z
1/2-x,1/2+y,1/2+z
1/2+x,1/2-y,1/2+z
loop_
_atom_site_type_symbol
_atom_site_label
_atom_site_fract_x
_atom_site_fract_y
_atom_site_fract_z
Si Si1 0.812298 0.439660 0.822558
Si Si2 0.584131 0.345296 0.823454
Si Si3 0.329180 0.251617 0.320066
Si Si4 0.418775 0.151339 0.681030
Si Si5 0.160127 0.939176 0.822010
O O1 0.836276 0.500000 0.790832
O O2 0.877802 0.402137 0.767700
O O3 0.741662 0.423836 0.726437
O O4 0.793762 0.430579 0.000000
O O5 0.500000 0.333864 0.792005
O O6 0.631544 0.305682 0.723491
O O7 0.602348 0.404787 0.771602
O O8 0.604002 0.338050 0.000000
O O9 0.321521 0.247977 0.500000
O O10 0.250000 0.250000 0.250000
O O11 0.375810 0.202309 0.255368
O O12 0.423449 0.154331 0.500000
O O13 0.500000 0.150703 0.751357
O O14 0.143996 0.000000 0.780930
O O15 0.150853 0.927815 0.000000
#
# Coordination Sequence:
#
# PCOD8291770 Si02
#       5
#    16  16  16  16  16
#     4   9  17  31  54  82 111 144 182 225 271 322
#     4  11  24  40  58  82 113 147 185 232 285 339
#     4  11  22  37  59  83 110 147 190 235 282 335
#     4   9  18  32  51  78 110 142 179 224 273 323
#     4  10  21  37  58  83 111 145 185 228 275 333
#
# _framework density 19.652303
#
# number of rings (size 3 to 8) (size 9 to 14) (size 15 to 20)
#    0.000    2.000    0.000    3.600    0.000    6.000 
#    0.000    5.000    0.000    3.000    0.000    2.800 
#    0.000    0.000    0.000    0.000    0.000    0.000 
#
# Total GULP energy -496163.157790 kJ/mol
# GULP energy per Si atom -12404.078945 kJ/mol
# Density = 1.960757 g / cm^3
# Si number density = 19.652303 Si / 1000 Ang^3
#
#
#
# Elastic Constant Matrix: (Units=GPa)
#
#
# Indices 1 2 3 4 5 6 
#
# 1 114.9127 56.4281 38.8196 0.0000 0.0000 0.0000
# 2 56.4281 108.6138 26.8794 0.0000 0.0000 0.0000
# 3 38.8196 26.8794 49.9119 0.0000 0.0000 0.0000
# 4 0.0000 0.0000 0.0000 25.2834 0.0000 0.0000
# 5 0.0000 0.0000 0.0000 0.0000 26.3960 0.0000
# 6 0.0000 0.0000 0.0000 0.0000 0.0000 36.2347
#
#
#
# Elastic Compliance Matrix: (Units=1/GPa)
#
#
# Indices 1 2 3 4 5 6 
#
# 1 0.014022 -0.005291 -0.008056 0.000000 0.000000 0.000000
# 2 -0.005291 0.012619 -0.002681 0.000000 0.000000 0.000000
# 3 -0.008056 -0.002681 0.027745 0.000000 0.000000 0.000000
# 4 0.000000 0.000000 0.000000 0.039552 0.000000 0.000000
# 5 0.000000 0.000000 0.000000 0.000000 0.037885 0.000000
# 6 0.000000 0.000000 0.000000 0.000000 0.000000 0.027598
#
#
# Mechanical properties :
#
#
# Convention : Reuss Voigt Hill
#
# Bulk Modulus (GPa) = 44.78311 57.52140 51.15225
# Shear Modulus (GPa) = 25.13574 27.67023 26.40298
#
# Velocity S-wave (km/s) = 3.58022 3.75639 3.66936
# Velocity P-wave (km/s) = 6.31885 6.93881 6.63607
#
# Compressibility (1/GPa) = 0.02232985
#
# Stress axis : x y z
#
# Youngs Moduli (GPa) = 71.31621 79.24409 36.04265
#
# Poissons Ratio (x) = 0.41929 0.29037
# Poissons Ratio (y) = 0.37734 0.09662
# Poissons Ratio (z) = 0.57455 0.21243
#
# Static dielectric constant tensor:
#      x y z
#    x 3.692480 0.000000 0.000000 
#    y 0.000000 3.801800 0.000000 
#    z 0.000000 0.000000 3.407840 
# 
# 
# High freq. dielectric constant tensor:
#      x y z
#    x 1.769620 0.000000 0.000000 
#    y 0.000000 1.780050 0.000000 
#    z 0.000000 0.000000 1.748570 
# 
# From -- ./inp_files/8314.got.cif
#   From: 2010.06.25/outbox.cif.g09.slc.cpg/sg71_5_cif.got.tgz:8314.got - 2010.06.28 04:59:45.
