data_PCOD8291460
_publ_section_title
;
Structure prediction by ZEFSAII (Michael W. Deem and Ramdas Pophale) SiO2 
 PCOD8291460
Probable space group: I M M M
;
_chemical_formula_sum "Si O2"
_cell_formula_units_Z 120
_cell_length_a 27.022753
_cell_length_b 9.137766
_cell_length_c 26.879497
_cell_angle_alpha 90.000000
_cell_angle_beta 90.000000
_cell_angle_gamma 90.000000
_cell_volume 6637.289511
_symmetry_space_group_name_H-M "I M M M"
_symmetry_group_IT_number 71
_symmetry_cell_setting 'orthorhombic'
loop_
_space_group_symop_operation_xyz
x,y,z
-x,-y,z
x,-y,-z
-x,y,-z
-x,-y,-z
x,y,-z
-x,y,z
x,-y,z
1/2+x,1/2+y,1/2+z
1/2-x,1/2-y,1/2+z
1/2+x,1/2-y,1/2-z
1/2-x,1/2+y,1/2-z
1/2-x,1/2-y,1/2-z
1/2+x,1/2+y,1/2-z
1/2-x,1/2+y,1/2+z
1/2+x,1/2-y,1/2+z
loop_
_atom_site_type_symbol
_atom_site_label
_atom_site_fract_x
_atom_site_fract_y
_atom_site_fract_z
Si Si1 0.442279 0.829894 0.210470
Si Si2 0.943626 0.672598 0.000000
Si Si3 0.108732 0.168717 0.911277
Si Si4 0.737705 0.670945 0.800808
Si Si5 0.364050 0.671572 0.853581
Si Si6 0.719233 0.333150 0.610274
Si Si7 0.556954 0.331770 0.310056
Si Si8 0.181156 0.330509 0.556701
O O1 0.500000 0.800996 0.200754
O O2 0.412904 0.748199 0.167167
O O3 0.426252 0.766865 0.263886
O O4 0.428892 0.000000 0.209453
O O5 0.917883 0.731237 0.950894
O O6 0.939323 0.500000 0.000000
O O7 0.000000 0.726187 0.000000
O O8 0.167081 0.197789 0.915909
O O9 0.090407 0.214140 0.856568
O O10 0.095407 0.000000 0.922104
O O11 0.746020 0.500000 0.793684
O O12 0.750000 0.750000 0.750000
O O13 0.681738 0.707954 0.817207
O O14 0.775333 0.727815 0.842563
O O15 0.373510 0.500000 0.857935
O O16 0.354030 0.733752 0.908552
O O17 0.721902 0.500000 0.629765
O O18 0.761417 0.301519 0.569609
O O19 0.500000 0.303518 0.324417
O O20 0.565955 0.500000 0.294937
O O21 0.172186 0.282096 0.500000
O O22 0.167670 0.500000 0.564808
#
# Coordination Sequence:
#
# PCOD8291460 Si02
#       8
#    16   8  16  16  16  16  16  16
#     4  10  21  36  56  83 113 145 180 220 268 321
#     4  11  25  41  55  75 105 141 183 235 290 337
#     4  10  21  36  58  81 104 137 181 230 278 332
#     4  10  21  35  52  76 110 147 183 220 264 317
#     4  10  21  36  55  80 110 145 184 222 266 319
#     4   9  19  34  53  80 110 139 178 222 268 320
#     4   9  18  33  52  76 106 140 179 223 271 323
#     4   9  18  34  57  81 109 143 178 219 268 323
#
# _framework density 18.07967
#
# number of rings (size 3 to 8) (size 9 to 14) (size 15 to 20)
#    0.000    2.333    0.000    1.800    2.800    4.800 
#    0.000    1.333    0.000    0.400    0.000    2.800 
#    0.000    0.000    0.000    0.000    0.000    0.000 
#
# Total GULP energy -744246.444606 kJ/mol
# GULP energy per Si atom -12404.107410 kJ/mol
# Density = 1.803852 g / cm^3
# Si number density = 18.079670 Si / 1000 Ang^3
#
#
#
# Elastic Constant Matrix: (Units=GPa)
#
#
# Indices 1 2 3 4 5 6 
#
# 1 85.1566 50.7507 60.6283 0.0000 0.0000 0.0000
# 2 50.7507 94.9201 72.4843 0.0000 0.0000 0.0000
# 3 60.6283 72.4843 136.5039 0.0000 0.0000 0.0000
# 4 0.0000 0.0000 0.0000 36.3722 0.0000 0.0000
# 5 0.0000 0.0000 0.0000 0.0000 24.5372 0.0000
# 6 0.0000 0.0000 0.0000 0.0000 0.0000 26.7130
#
#
#
# Elastic Compliance Matrix: (Units=1/GPa)
#
#
# Indices 1 2 3 4 5 6 
#
# 1 0.019184 -0.006309 -0.005171 0.000000 0.000000 0.000000
# 2 -0.006309 0.019795 -0.007710 0.000000 0.000000 0.000000
# 3 -0.005171 -0.007710 0.013716 0.000000 0.000000 0.000000
# 4 0.000000 0.000000 0.000000 0.027494 0.000000 0.000000
# 5 0.000000 0.000000 0.000000 0.000000 0.040754 0.000000
# 6 0.000000 0.000000 0.000000 0.000000 0.000000 0.037435
#
#
# Mechanical properties :
#
#
# Convention : Reuss Voigt Hill
#
# Bulk Modulus (GPa) = 69.84184 76.03413 72.93798
# Shear Modulus (GPa) = 24.81032 26.37232 25.59132
#
# Velocity S-wave (km/s) = 3.70845 3.82340 3.76636
# Velocity P-wave (km/s) = 7.55319 7.85096 7.70351
#
# Compressibility (1/GPa) = 0.01431806
#
# Stress axis : x y z
#
# Youngs Moduli (GPa) = 52.12630 50.51677 72.90652
#
# Poissons Ratio (x) = 0.31869 0.37698
# Poissons Ratio (y) = 0.32884 0.56207
# Poissons Ratio (z) = 0.26953 0.38946
#
# Static dielectric constant tensor:
#      x y z
#    x 3.351260 0.000000 0.000000 
#    y 0.000000 3.386350 0.000000 
#    z 0.000000 0.000000 3.348980 
# 
# 
# High freq. dielectric constant tensor:
#      x y z
#    x 1.695450 0.000000 0.000000 
#    y 0.000000 1.703500 0.000000 
#    z 0.000000 0.000000 1.697610 
# 
# From -- ./inp_files/67169.got.cif
#   From: 2010.06.25/outbox.cif.g09.slc.cpg/sg71_34_cif.got.tgz:67169.got - 2010.06.28 04:59:45.
