data_PCOD8291473
_publ_section_title
;
Structure prediction by ZEFSAII (Michael W. Deem and Ramdas Pophale) SiO2 
 PCOD8291473
Probable space group: I M M M
;
_chemical_formula_sum "Si O2"
_cell_formula_units_Z 104
_cell_length_a 8.881689
_cell_length_b 27.554753
_cell_length_c 22.802099
_cell_angle_alpha 90.000000
_cell_angle_beta 90.000000
_cell_angle_gamma 90.000000
_cell_volume 5580.420317
_symmetry_space_group_name_H-M "I M M M"
_symmetry_group_IT_number 71
_symmetry_cell_setting 'orthorhombic'
loop_
_space_group_symop_operation_xyz
x,y,z
-x,-y,z
x,-y,-z
-x,y,-z
-x,-y,-z
x,y,-z
-x,y,z
x,-y,z
1/2+x,1/2+y,1/2+z
1/2-x,1/2-y,1/2+z
1/2+x,1/2-y,1/2-z
1/2-x,1/2+y,1/2-z
1/2-x,1/2-y,1/2-z
1/2+x,1/2+y,1/2-z
1/2-x,1/2+y,1/2+z
1/2+x,1/2-y,1/2+z
loop_
_atom_site_type_symbol
_atom_site_label
_atom_site_fract_x
_atom_site_fract_y
_atom_site_fract_z
Si Si1 0.172320 0.737244 0.933581
Si Si2 0.178311 0.803122 0.257980
Si Si3 0.674958 0.906562 0.065610
Si Si4 0.823166 0.944284 0.567122
Si Si5 0.324008 0.815832 0.857977
Si Si6 0.172870 0.357344 0.133296
Si Si7 0.330138 0.500000 0.569856
O O1 0.276816 0.764920 0.887044
O O2 0.186260 0.680081 0.920698
O O3 0.000000 0.754582 0.925514
O O4 0.228150 0.746590 0.000000
O O5 0.250000 0.750000 0.250000
O O6 0.226708 0.830246 0.198666
O O7 0.239240 0.834742 0.311693
O O8 0.000000 0.797885 0.263897
O O9 0.500000 0.917611 0.066940
O O10 0.717394 0.857093 0.096410
O O11 0.754528 0.952039 0.097034
O O12 0.736508 0.900520 0.000000
O O13 0.772693 0.933899 0.500000
O O14 0.739435 0.908733 0.612408
O O15 0.000000 0.935322 0.573540
O O16 0.783002 0.000000 0.583527
O O17 0.500000 0.813267 0.842012
O O18 0.000000 0.365223 0.151948
O O19 0.500000 0.500000 0.590211
O O20 0.307267 0.500000 0.500000
#
# Coordination Sequence:
#
# PCOD8291473 Si02
#       7
#    16  16  16  16  16  16   8
#     4  10  21  35  52  79 116 152 184 226 279 334
#     4  12  24  40  60  82 109 148 192 235 280 333
#     4   9  18  33  53  78 109 143 178 219 271 328
#     4   9  19  37  61  90 124 160 197 240 294 353
#     4  11  22  36  56  81 109 146 188 231 278 334
#     4  11  22  37  59  86 116 153 195 239 287 342
#     4   9  17  29  49  77 105 137 177 217 262 317
#
# _framework density 18.636590000000002
#
# number of rings (size 3 to 8) (size 9 to 14) (size 15 to 20)
#    0.000    1.769    1.538    3.923    0.000    4.923 
#    0.000    2.308    1.692    0.000    0.000    0.000 
#    0.000    0.000    0.000    0.000    0.000    0.000 
#
# Total GULP energy -644747.583366 kJ/mol
# GULP energy per Si atom -12398.991988 kJ/mol
# Density = 1.859417 g / cm^3
# Si number density = 18.636590 Si / 1000 Ang^3
#
#
#
# Elastic Constant Matrix: (Units=GPa)
#
#
# Indices 1 2 3 4 5 6 
#
# 1 101.4047 59.3361 51.0134 0.0000 0.0000 0.0000
# 2 59.3361 123.4936 46.1563 0.0000 0.0000 0.0000
# 3 51.0134 46.1563 101.4771 0.0000 0.0000 0.0000
# 4 0.0000 0.0000 0.0000 20.6067 0.0000 0.0000
# 5 0.0000 0.0000 0.0000 0.0000 29.4841 0.0000
# 6 0.0000 0.0000 0.0000 0.0000 0.0000 28.0267
#
#
#
# Elastic Compliance Matrix: (Units=1/GPa)
#
#
# Indices 1 2 3 4 5 6 
#
# 1 0.015867 -0.005594 -0.005432 0.000000 0.000000 0.000000
# 2 -0.005594 0.011728 -0.002522 0.000000 0.000000 0.000000
# 3 -0.005432 -0.002522 0.013733 0.000000 0.000000 0.000000
# 4 0.000000 0.000000 0.000000 0.048528 0.000000 0.000000
# 5 0.000000 0.000000 0.000000 0.000000 0.033917 0.000000
# 6 0.000000 0.000000 0.000000 0.000000 0.000000 0.035680
#
#
# Mechanical properties :
#
#
# Convention : Reuss Voigt Hill
#
# Bulk Modulus (GPa) = 70.26872 71.04300 70.65586
# Shear Modulus (GPa) = 26.13783 26.94813 26.54298
#
# Velocity S-wave (km/s) = 3.74906 3.80673 3.77800
# Velocity P-wave (km/s) = 7.51845 7.58449 7.55155
#
# Compressibility (1/GPa) = 0.01423108
#
# Stress axis : x y z
#
# Youngs Moduli (GPa) = 63.02232 85.26639 72.81870
#
# Poissons Ratio (x) = 0.47694 0.39559
# Poissons Ratio (y) = 0.35252 0.18368
# Poissons Ratio (z) = 0.34237 0.21508
#
# Static dielectric constant tensor:
#      x y z
#    x 3.439400 0.000000 0.000000 
#    y 0.000000 3.465480 0.000000 
#    z 0.000000 0.000000 3.646770 
# 
# 
# High freq. dielectric constant tensor:
#      x y z
#    x 1.727860 0.000000 0.000000 
#    y 0.000000 1.724100 0.000000 
#    z 0.000000 0.000000 1.710850 
# 
# From -- ./inp_files/50895.got.cif
#   From: 2010.06.25/outbox.cif.g09.slc.cpg/sg71_26_cif.got.tgz:50895.got - 2010.06.28 04:59:45.
