data_PCOD8291869
_publ_section_title
;
Structure prediction by ZEFSAII (Michael W. Deem and Ramdas Pophale) SiO2 
 PCOD8291869
Probable space group: I M M M
;
_chemical_formula_sum "Si O2"
_cell_formula_units_Z 74
_cell_length_a 14.396293
_cell_length_b 29.392332
_cell_length_c 8.980984
_cell_angle_alpha 90.000000
_cell_angle_beta 90.000000
_cell_angle_gamma 90.000000
_cell_volume 3800.219169
_symmetry_space_group_name_H-M "I M M M"
_symmetry_group_IT_number 71
_symmetry_cell_setting 'orthorhombic'
loop_
_space_group_symop_operation_xyz
x,y,z
-x,-y,z
x,-y,-z
-x,y,-z
-x,-y,-z
x,y,-z
-x,y,z
x,-y,z
1/2+x,1/2+y,1/2+z
1/2-x,1/2-y,1/2+z
1/2+x,1/2-y,1/2-z
1/2-x,1/2+y,1/2-z
1/2-x,1/2-y,1/2-z
1/2+x,1/2+y,1/2-z
1/2-x,1/2+y,1/2+z
1/2+x,1/2-y,1/2+z
loop_
_atom_site_type_symbol
_atom_site_label
_atom_site_fract_x
_atom_site_fract_y
_atom_site_fract_z
Si Si1 0.000000 0.500000 0.000000
Si Si2 0.393629 0.171570 0.173925
Si Si3 0.391132 0.647419 0.172999
Si Si4 0.610456 0.738367 0.332244
Si Si5 0.814836 0.500000 0.838463
Si Si6 0.757795 0.591008 0.676021
O O1 0.074742 0.500000 0.135128
O O2 0.500000 0.162337 0.221401
O O3 0.351394 0.215518 0.257509
O O4 0.335976 0.127562 0.222583
O O5 0.385736 0.181699 0.000000
O O6 0.500000 0.641050 0.201166
O O7 0.354009 0.694805 0.241190
O O8 0.340639 0.606099 0.256177
O O9 0.365910 0.646938 0.000000
O O10 0.648643 0.734647 0.500000
O O11 0.500000 0.739815 0.328381
O O12 0.786140 0.543485 0.744228
O O13 0.762543 0.500000 0.000000
O O14 0.748334 0.586361 0.500000
#
# Coordination Sequence:
#
# PCOD8291869 Si02
#       6
#     2  16  16  16   8  16
#     4   8  24  44  70  92 118 168 186 232 288 352
#     4   9  19  34  53  80 116 154 192 236 290 350
#     4  10  21  38  60  84 115 157 200 242 296 353
#     4   9  17  31  52  81 114 152 196 244 289 343
#     4  10  23  43  64  90 120 152 193 231 286 346
#     4  11  23  39  61  89 118 152 195 249 297 349
#
# _framework density 19.472560000000001
#
# number of rings (size 3 to 8) (size 9 to 14) (size 15 to 20)
#    0.324    1.946    0.000    2.270    1.514    6.486 
#    0.000    1.081    0.000    3.243    0.000    0.000 
#    0.000    0.000    0.000    0.000    0.000    0.000 
#
# Total GULP energy -458359.880062 kJ/mol
# GULP energy per Si atom -12388.104867 kJ/mol
# Density = 1.942824 g / cm^3
# Si number density = 19.472560 Si / 1000 Ang^3
#
#
#
# Elastic Constant Matrix: (Units=GPa)
#
#
# Indices 1 2 3 4 5 6 
#
# 1 68.0707 62.9941 55.5382 -0.0003 -0.0003 0.0004
# 2 62.9941 173.7637 87.5214 -0.0009 -0.0001 -0.0001
# 3 55.5382 87.5214 130.5971 -0.0003 -0.0040 0.0039
# 4 -0.0003 -0.0009 -0.0003 38.4667 -0.0004 0.0014
# 5 -0.0003 -0.0001 -0.0040 -0.0004 25.2699 -0.0014
# 6 0.0004 -0.0001 0.0039 0.0014 -0.0014 18.3176
#
#
#
# Elastic Compliance Matrix: (Units=1/GPa)
#
#
# Indices 1 2 3 4 5 6 
#
# 1 0.025852 -0.005789 -0.007115 0.000000 -0.000001 0.000001
# 2 -0.005789 0.009983 -0.004229 0.000000 -0.000001 0.000001
# 3 -0.007115 -0.004229 0.013517 0.000000 0.000002 -0.000003
# 4 0.000000 0.000000 0.000000 0.025997 0.000000 -0.000002
# 5 -0.000001 -0.000001 0.000002 0.000000 0.039573 0.000003
# 6 0.000001 0.000001 -0.000003 -0.000002 0.000003 0.054592
#
#
# Mechanical properties :
#
#
# Convention : Reuss Voigt Hill
#
# Bulk Modulus (GPa) = 66.27704 87.17098 76.72401
# Shear Modulus (GPa) = 23.94540 27.50268 25.72404
#
# Velocity S-wave (km/s) = 3.51051 3.76224 3.63856
# Velocity P-wave (km/s) = 7.10926 7.98348 7.55902
#
# Compressibility (1/GPa) = 0.01508818
#
# Stress axis : x y z
#
# Youngs Moduli (GPa) = 38.68114 100.16555 73.98197
#
# Poissons Ratio (x) = 0.57982 0.52636
# Poissons Ratio (y) = 0.22391 0.31286
# Poissons Ratio (z) = 0.27521 0.42359
#
# Static dielectric constant tensor:
#      x y z
#    x 3.512940 0.000000 0.000010 
#    y 0.000000 3.494770 0.000000 
#    z 0.000010 0.000000 3.652830 
# 
# 
# High freq. dielectric constant tensor:
#      x y z
#    x 1.757470 0.000000 0.000000 
#    y 0.000000 1.744340 0.000000 
#    z 0.000000 0.000000 1.771230 
# 
# From -- ./inp_files/6131.got.cif
#   From: 2010.06.25/outbox.cif.g09.slc.cpg/sg71_4_cif.got.tgz:6131.got - 2010.06.28 04:59:45.
