data_PCOD8291201
_publ_section_title
;
Structure prediction by ZEFSAII (Michael W. Deem and Ramdas Pophale) SiO2 
 PCOD8291201
Probable space group: I M M M
;
_chemical_formula_sum "Si O2"
_cell_formula_units_Z 72
_cell_length_a 23.304948
_cell_length_b 8.940870
_cell_length_c 17.576951
_cell_angle_alpha 90.000000
_cell_angle_beta 90.000000
_cell_angle_gamma 90.000000
_cell_volume 3662.447944
_symmetry_space_group_name_H-M "I M M M"
_symmetry_group_IT_number 71
_symmetry_cell_setting 'orthorhombic'
loop_
_space_group_symop_operation_xyz
x,y,z
-x,-y,z
x,-y,-z
-x,y,-z
-x,-y,-z
x,y,-z
-x,y,z
x,-y,z
1/2+x,1/2+y,1/2+z
1/2-x,1/2-y,1/2+z
1/2+x,1/2-y,1/2-z
1/2-x,1/2+y,1/2-z
1/2-x,1/2-y,1/2-z
1/2+x,1/2+y,1/2-z
1/2-x,1/2+y,1/2+z
1/2+x,1/2-y,1/2+z
loop_
_atom_site_type_symbol
_atom_site_label
_atom_site_fract_x
_atom_site_fract_y
_atom_site_fract_z
Si Si1 0.141002 0.326410 0.587547
Si Si2 0.741121 0.173949 0.411221
Si Si3 0.567835 0.829491 0.500000
Si Si4 0.370577 0.675794 0.638552
Si Si5 0.933978 0.173121 0.706808
O O1 0.126147 0.293316 0.500000
O O2 0.152806 0.500000 0.601837
O O3 0.197250 0.236185 0.613328
O O4 0.087103 0.271736 0.636261
O O5 0.728956 0.204709 0.500000
O O6 0.693498 0.259291 0.362333
O O7 0.739133 0.000000 0.391363
O O8 0.500000 0.820559 0.500000
O O9 0.590496 0.749516 0.425360
O O10 0.590226 0.000000 0.500000
O O11 0.368745 0.500000 0.623776
O O12 0.397829 0.716995 0.719205
O O13 0.000000 0.211892 0.722914
O O14 0.925851 0.000000 0.685821
#
# Coordination Sequence:
#
# PCOD8291201 Si02
#       5
#    16  16   8  16  16
#     4  10  22  40  63  90 118 151 195 245 300 359
#     4  10  20  36  60  89 122 156 196 243 293 353
#     4  11  23  37  55  83 119 161 206 245 288 347
#     4  11  22  37  60  87 119 158 199 246 295 346
#     4  10  23  42  61  85 118 156 200 246 296 355
#
# _framework density 19.658982999999999
#
# number of rings (size 3 to 8) (size 9 to 14) (size 15 to 20)
#    0.000    1.667    1.111    3.000    0.000    7.556 
#    0.000    2.222    0.000    0.000    0.000    0.000 
#    0.000    0.000    0.000    0.000    0.000    0.000 
#
# Total GULP energy -446650.751498 kJ/mol
# GULP energy per Si atom -12406.965319 kJ/mol
# Density = 1.961424 g / cm^3
# Si number density = 19.658983 Si / 1000 Ang^3
#
#
#
# Elastic Constant Matrix: (Units=GPa)
#
#
# Indices 1 2 3 4 5 6 
#
# 1 94.2632 47.2192 51.9454 0.0000 0.0000 0.0000
# 2 47.2192 105.5111 57.6862 0.0000 0.0000 0.0000
# 3 51.9454 57.6862 96.9113 0.0000 0.0000 0.0000
# 4 0.0000 0.0000 0.0000 25.5953 0.0000 0.0000
# 5 0.0000 0.0000 0.0000 0.0000 51.6113 0.0000
# 6 0.0000 0.0000 0.0000 0.0000 0.0000 38.9326
#
#
#
# Elastic Compliance Matrix: (Units=1/GPa)
#
#
# Indices 1 2 3 4 5 6 
#
# 1 0.015952 -0.003653 -0.006376 0.000000 0.000000 0.000000
# 2 -0.003653 0.014887 -0.006903 0.000000 0.000000 0.000000
# 3 -0.006376 -0.006903 0.017845 0.000000 0.000000 0.000000
# 4 0.000000 0.000000 0.000000 0.039070 0.000000 0.000000
# 5 0.000000 0.000000 0.000000 0.000000 0.019376 0.000000
# 6 0.000000 0.000000 0.000000 0.000000 0.000000 0.025685
#
#
# Mechanical properties :
#
#
# Convention : Reuss Voigt Hill
#
# Bulk Modulus (GPa) = 67.47768 67.82081 67.64925
# Shear Modulus (GPa) = 29.13421 32.55017 30.84219
#
# Velocity S-wave (km/s) = 3.85383 4.07349 3.96518
# Velocity P-wave (km/s) = 7.36215 7.52981 7.44645
#
# Compressibility (1/GPa) = 0.01481971
#
# Stress axis : x y z
#
# Youngs Moduli (GPa) = 62.68750 67.17399 56.03663
#
# Poissons Ratio (x) = 0.24539 0.35729
# Poissons Ratio (y) = 0.22900 0.38683
# Poissons Ratio (z) = 0.39970 0.46372
#
# Static dielectric constant tensor:
#      x y z
#    x 3.627510 0.000000 0.000000 
#    y 0.000000 3.679390 0.000000 
#    z 0.000000 0.000000 3.555220 
# 
# 
# High freq. dielectric constant tensor:
#      x y z
#    x 1.776880 0.000000 0.000000 
#    y 0.000000 1.777430 0.000000 
#    z 0.000000 0.000000 1.761310 
# 
# From -- ./inp_files/42068.got.cif
#   From: 2010.06.25/outbox.cif.g09.slc.cpg/sg71_22_cif.got.tgz:42068.got - 2010.06.28 04:59:45.
