data_PCOD8291101
_publ_section_title
;
Structure prediction by ZEFSAII (Michael W. Deem and Ramdas Pophale) SiO2 
 PCOD8291101
Probable space group: I M M M
;
_chemical_formula_sum "Si O2"
_cell_formula_units_Z 60
_cell_length_a 19.565992
_cell_length_b 16.877781
_cell_length_c 9.698172
_cell_angle_alpha 90.000000
_cell_angle_beta 90.000000
_cell_angle_gamma 90.000000
_cell_volume 3202.632460
_symmetry_space_group_name_H-M "I M M M"
_symmetry_group_IT_number 71
_symmetry_cell_setting 'orthorhombic'
loop_
_space_group_symop_operation_xyz
x,y,z
-x,-y,z
x,-y,-z
-x,y,-z
-x,-y,-z
x,y,-z
-x,y,z
x,-y,z
1/2+x,1/2+y,1/2+z
1/2-x,1/2-y,1/2+z
1/2+x,1/2-y,1/2-z
1/2-x,1/2+y,1/2-z
1/2-x,1/2-y,1/2-z
1/2+x,1/2+y,1/2-z
1/2-x,1/2+y,1/2+z
1/2+x,1/2-y,1/2+z
loop_
_atom_site_type_symbol
_atom_site_label
_atom_site_fract_x
_atom_site_fract_y
_atom_site_fract_z
Si Si1 0.773938 0.636014 0.500000
Si Si2 0.075993 0.000000 0.729951
Si Si3 0.688539 0.906800 0.292778
Si Si4 0.165881 0.000000 0.000000
Si Si5 0.222233 0.815316 0.500000
Si Si6 0.424995 0.906947 0.500000
Si Si7 0.422844 0.371619 0.000000
O O1 0.819432 0.617535 0.634190
O O2 0.708598 0.580162 0.500000
O O3 0.748569 0.726455 0.500000
O O4 0.087617 0.923129 0.636752
O O5 0.000000 0.000000 0.790249
O O6 0.124440 0.000000 0.860065
O O7 0.751563 0.860987 0.363889
O O8 0.617528 0.881386 0.364889
O O9 0.703302 0.000000 0.310046
O O10 0.139211 0.808499 0.500000
O O11 0.500000 0.865677 0.500000
O O12 0.435214 0.000000 0.500000
O O13 0.500000 0.333907 0.000000
#
# Coordination Sequence:
#
# PCOD8291101 Si02
#       7
#     8   8  16   4   8   8   8
#     4  12  23  35  52  86 118 148 182 244 294 342
#     4   9  19  33  55  83 107 144 188 228 276 347
#     4  10  20  36  57  82 114 146 188 236 286 342
#     4  12  21  34  56  76 121 152 182 222 296 342
#     4  11  22  35  57  81 114 151 196 236 284 344
#     4   8  16  33  58  80 101 140 191 232 270 330
#     4   9  19  35  55  79 108 144 193 234 275 331
#
# _framework density 18.734589
#
# number of rings (size 3 to 8) (size 9 to 14) (size 15 to 20)
#    0.000    2.000    1.333    4.600    3.733    0.000 
#    0.000    2.000    0.000   12.800    0.000    0.000 
#    0.000    0.000    0.000    0.000    0.000    0.000 
#
# Total GULP energy -371900.118952 kJ/mol
# GULP energy per Si atom -12396.670632 kJ/mol
# Density = 1.869195 g / cm^3
# Si number density = 18.734589 Si / 1000 Ang^3
#
#
#
# Elastic Constant Matrix: (Units=GPa)
#
#
# Indices 1 2 3 4 5 6 
#
# 1 148.2944 41.7464 70.1499 0.0000 0.0000 0.0000
# 2 41.7464 102.6488 34.5127 0.0000 0.0000 0.0000
# 3 70.1499 34.5127 173.3892 0.0000 0.0000 0.0000
# 4 0.0000 0.0000 0.0000 -36.5668 0.0000 0.0000
# 5 0.0000 0.0000 0.0000 0.0000 5.6186 0.0000
# 6 0.0000 0.0000 0.0000 0.0000 0.0000 4.8993
#
#
#
# Elastic Compliance Matrix: (Units=1/GPa)
#
#
# Indices 1 2 3 4 5 6 
#
# 1 0.008940 -0.002593 -0.003101 0.000000 0.000000 0.000000
# 2 -0.002593 0.011193 -0.001179 0.000000 0.000000 0.000000
# 3 -0.003101 -0.001179 0.007257 0.000000 0.000000 0.000000
# 4 0.000000 0.000000 0.000000 -0.027347 0.000000 0.000000
# 5 0.000000 0.000000 0.000000 0.000000 0.177981 0.000000
# 6 0.000000 0.000000 0.000000 0.000000 0.000000 0.204113
#
#
# Mechanical properties :
#
#
# Convention : Reuss Voigt Hill
#
# Bulk Modulus (GPa) = 73.29278 79.68339 76.48808
# Shear Modulus (GPa) = 12.48658 13.31843 12.90251
#
# Velocity S-wave (km/s) = 2.58446 2.66916 2.62716
# Velocity P-wave (km/s) = 6.93632 7.21972 7.07944
#
# Compressibility (1/GPa) = 0.01364391
#
# Stress axis : x y z
#
# Youngs Moduli (GPa) = 111.85383 89.34194 137.80676
#
# Poissons Ratio (x) = 0.23169 0.42732
# Poissons Ratio (y) = 0.29008 0.16243
# Poissons Ratio (z) = 0.34684 0.10531
#
# Static dielectric constant tensor:
#      x y z
#    x 3.593770 0.000000 0.000000 
#    y 0.000000 3.218060 0.000000 
#    z 0.000000 0.000000 3.624810 
# 
# 
# High freq. dielectric constant tensor:
#      x y z
#    x 1.722950 0.000000 0.000000 
#    y 0.000000 1.702300 0.000000 
#    z 0.000000 0.000000 1.738990 
# 
# From -- ./inp_files/9616.got.cif
#   From: 2010.06.25/outbox.cif.g09.slc.cpg/sg71_5_cif.got.tgz:9616.got - 2010.06.28 04:59:45.
