data_PCOD8291966
_publ_section_title
;
Structure prediction by ZEFSAII (Michael W. Deem and Ramdas Pophale) SiO2 
 PCOD8291966
Probable space group: I M M M
;
_chemical_formula_sum "Si O2"
_cell_formula_units_Z 104
_cell_length_a 8.704873
_cell_length_b 32.480342
_cell_length_c 18.782718
_cell_angle_alpha 90.000000
_cell_angle_beta 90.000000
_cell_angle_gamma 90.000000
_cell_volume 5310.574074
_symmetry_space_group_name_H-M "I M M M"
_symmetry_group_IT_number 71
_symmetry_cell_setting 'orthorhombic'
loop_
_space_group_symop_operation_xyz
x,y,z
-x,-y,z
x,-y,-z
-x,y,-z
-x,-y,-z
x,y,-z
-x,y,z
x,-y,z
1/2+x,1/2+y,1/2+z
1/2-x,1/2-y,1/2+z
1/2+x,1/2-y,1/2-z
1/2-x,1/2+y,1/2-z
1/2-x,1/2-y,1/2-z
1/2+x,1/2+y,1/2-z
1/2-x,1/2+y,1/2+z
1/2+x,1/2-y,1/2+z
loop_
_atom_site_type_symbol
_atom_site_label
_atom_site_fract_x
_atom_site_fract_y
_atom_site_fract_z
Si Si1 0.827473 0.000000 0.915461
Si Si2 0.820894 0.047288 0.581856
Si Si3 0.180409 0.266181 0.322352
Si Si4 0.674931 0.916761 0.084265
Si Si5 0.819358 0.380553 0.829439
Si Si6 0.319872 0.198851 0.418409
Si Si7 0.821015 0.854126 0.816442
O O1 0.734114 0.960703 0.887827
O O2 0.000000 0.000000 0.883521
O O3 0.835666 0.000000 0.000000
O O4 0.775136 0.055867 0.500000
O O5 0.723275 0.076805 0.632559
O O6 0.000000 0.056233 0.593570
O O7 0.782559 0.000000 0.601529
O O8 0.250000 0.250000 0.250000
O O9 0.235002 0.238789 0.388341
O O10 0.229140 0.312862 0.332894
O O11 0.000000 0.263520 0.316307
O O12 0.500000 0.910492 0.110231
O O13 0.787281 0.882941 0.116637
O O14 0.687168 0.913406 0.000000
O O15 0.766183 0.342195 0.877787
O O16 0.733418 0.377090 0.754691
O O17 0.000000 0.379539 0.815597
O O18 0.271654 0.193390 0.500000
O O19 0.500000 0.206025 0.409305
O O20 0.000000 0.844042 0.810846
#
# Coordination Sequence:
#
# PCOD8291966 Si02
#       7
#     8  16  16  16  16  16  16
#     4   9  17  33  59  89 121 157 196 241 296 357
#     4   9  19  37  60  86 120 162 205 250 301 357
#     4  12  24  41  64  88 118 159 201 244 299 359
#     4  10  21  39  63  91 123 159 202 252 302 357
#     4  11  22  38  61  89 123 160 201 250 302 359
#     4  10  22  40  63  92 124 159 200 248 299 353
#     4  12  25  41  63  89 120 161 202 248 306 363
#
# _framework density 19.583570999999999
#
# number of rings (size 3 to 8) (size 9 to 14) (size 15 to 20)
#    0.000    1.462    1.538    4.846    0.000    4.615 
#    1.385    0.769    0.000    0.000    0.000    0.000 
#    0.000    0.000    0.000    0.000    0.000    0.000 
#
# Total GULP energy -645047.787183 kJ/mol
# GULP energy per Si atom -12404.765138 kJ/mol
# Density = 1.953900 g / cm^3
# Si number density = 19.583571 Si / 1000 Ang^3
#
#
#
# Elastic Constant Matrix: (Units=GPa)
#
#
# Indices 1 2 3 4 5 6 
#
# 1 63.6672 11.8935 36.5942 0.0000 0.0000 0.0000
# 2 11.8935 111.7058 40.0891 0.0000 0.0000 0.0000
# 3 36.5942 40.0891 66.2945 0.0002 0.0000 0.0000
# 4 0.0000 0.0000 0.0002 33.6360 0.0000 0.0000
# 5 0.0000 0.0000 0.0000 0.0000 26.0231 0.0000
# 6 0.0000 0.0000 0.0000 0.0000 0.0000 38.0828
#
#
#
# Elastic Compliance Matrix: (Units=1/GPa)
#
#
# Indices 1 2 3 4 5 6 
#
# 1 0.023658 0.002769 -0.014733 0.000000 0.000000 0.000000
# 2 0.002769 0.011757 -0.008638 0.000000 0.000000 0.000000
# 3 -0.014733 -0.008638 0.028440 0.000000 0.000000 0.000000
# 4 0.000000 0.000000 0.000000 0.029730 0.000000 0.000000
# 5 0.000000 0.000000 0.000000 0.000000 0.038427 0.000000
# 6 0.000000 0.000000 0.000000 0.000000 0.000000 0.026259
#
#
# Mechanical properties :
#
#
# Convention : Reuss Voigt Hill
#
# Bulk Modulus (GPa) = 44.14973 46.53567 45.34270
# Shear Modulus (GPa) = 24.15148 29.75443 26.95296
#
# Velocity S-wave (km/s) = 3.51558 3.90212 3.71388
# Velocity P-wave (km/s) = 6.25078 6.64201 6.44936
#
# Compressibility (1/GPa) = 0.02265020
#
# Stress axis : x y z
#
# Youngs Moduli (GPa) = 42.26957 85.05327 35.16132
#
# Poissons Ratio (x) = -0.23548 0.51804
# Poissons Ratio (y) = -0.11703 0.30372
# Poissons Ratio (z) = 0.62276 0.73469
#
# Static dielectric constant tensor:
#      x y z
#    x 3.709070 0.000000 0.000000 
#    y 0.000000 3.653500 0.000000 
#    z 0.000000 0.000000 3.501410 
# 
# 
# High freq. dielectric constant tensor:
#      x y z
#    x 1.771070 0.000000 0.000000 
#    y 0.000000 1.775960 0.000000 
#    z 0.000000 0.000000 1.756360 
# 
# From -- ./inp_files/15037.got.cif
#   From: 2010.06.25/outbox.cif.g09.slc.cpg/sg71_8_cif.got.tgz:15037.got - 2010.06.28 04:59:45.
