data_PCOD8291944
_publ_section_title
;
Structure prediction by ZEFSAII (Michael W. Deem and Ramdas Pophale) SiO2 
 PCOD8291944
Probable space group: I M M M
;
_chemical_formula_sum "Si O2"
_cell_formula_units_Z 76
_cell_length_a 29.018310
_cell_length_b 7.938593
_cell_length_c 16.676514
_cell_angle_alpha 90.000000
_cell_angle_beta 90.000000
_cell_angle_gamma 90.000000
_cell_volume 3841.677687
_symmetry_space_group_name_H-M "I M M M"
_symmetry_group_IT_number 71
_symmetry_cell_setting 'orthorhombic'
loop_
_space_group_symop_operation_xyz
x,y,z
-x,-y,z
x,-y,-z
-x,y,-z
-x,-y,-z
x,y,-z
-x,y,z
x,-y,z
1/2+x,1/2+y,1/2+z
1/2-x,1/2-y,1/2+z
1/2+x,1/2-y,1/2-z
1/2-x,1/2+y,1/2-z
1/2-x,1/2-y,1/2-z
1/2+x,1/2+y,1/2-z
1/2-x,1/2+y,1/2+z
1/2+x,1/2-y,1/2+z
loop_
_atom_site_type_symbol
_atom_site_label
_atom_site_fract_x
_atom_site_fract_y
_atom_site_fract_z
Si Si1 0.672613 0.500000 0.500000
Si Si2 0.602762 0.195576 0.500000
Si Si3 0.500000 0.189855 0.914347
Si Si4 0.681559 0.307723 0.904743
Si Si5 0.911890 0.808483 0.324083
Si Si6 0.239146 0.500000 0.411756
Si Si7 0.552071 0.803578 0.336060
O O1 0.644815 0.326009 0.500000
O O2 0.705065 0.500000 0.419838
O O3 0.571326 0.234553 0.576212
O O4 0.620405 0.000000 0.500000
O O5 0.455137 0.217975 0.862058
O O6 0.500000 0.000000 0.939293
O O7 0.500000 0.291350 0.000000
O O8 0.694469 0.500000 0.878023
O O9 0.635812 0.239755 0.860146
O O10 0.721114 0.176700 0.873467
O O11 0.673847 0.304824 0.000000
O O12 0.914430 0.785775 0.228020
O O13 0.915641 0.000000 0.349200
O O14 0.216288 0.500000 0.500000
O O15 0.500000 0.731491 0.330695
O O16 0.552020 0.000000 0.317287
#
# Coordination Sequence:
#
# PCOD8291944 Si02
#       7
#     4   8   8  16  16   8  16
#     4  10  22  40  65 102 114 145 198 264 316 386
#     4  10  23  42  66  92 118 158 197 258 315 375
#     4  11  23  35  49  76 119 172 211 247 284 344
#     4   9  18  33  54  84 115 157 204 237 284 352
#     4  11  22  34  53  84 121 161 205 248 296 350
#     4   8  18  34  58  88 112 147 186 251 304 353
#     4  10  21  39  61  87 121 162 205 245 300 363
#
# _framework density 19.783023
#
# number of rings (size 3 to 8) (size 9 to 14) (size 15 to 20)
#    0.316    1.789    1.053    1.895    4.421    3.789 
#    0.000    0.526    0.000    1.263    0.000    0.000 
#    0.000    0.000    0.000    0.000    0.000    0.000 
#
# Total GULP energy -470889.846509 kJ/mol
# GULP energy per Si atom -12391.838066 kJ/mol
# Density = 1.973800 g / cm^3
# Si number density = 19.783023 Si / 1000 Ang^3
#
#
#
# Elastic Constant Matrix: (Units=GPa)
#
#
# Indices 1 2 3 4 5 6 
#
# 1 104.3785 49.8267 21.2061 0.0000 0.0000 0.0000
# 2 49.8267 87.8252 12.6943 0.0000 0.0000 0.0000
# 3 21.2061 12.6943 83.1376 0.0000 0.0000 0.0000
# 4 0.0000 0.0000 0.0000 20.3901 0.0000 0.0000
# 5 0.0000 0.0000 0.0000 0.0000 4.5928 0.0000
# 6 0.0000 0.0000 0.0000 0.0000 0.0000 28.0969
#
#
#
# Elastic Compliance Matrix: (Units=1/GPa)
#
#
# Indices 1 2 3 4 5 6 
#
# 1 0.013569 -0.007360 -0.002337 0.000000 0.000000 0.000000
# 2 -0.007360 0.015636 -0.000510 0.000000 0.000000 0.000000
# 3 -0.002337 -0.000510 0.012702 0.000000 0.000000 0.000000
# 4 0.000000 0.000000 0.000000 0.049043 0.000000 0.000000
# 5 0.000000 0.000000 0.000000 0.000000 0.217731 0.000000
# 6 0.000000 0.000000 0.000000 0.000000 0.000000 0.035591
#
#
# Mechanical properties :
#
#
# Convention : Reuss Voigt Hill
#
# Bulk Modulus (GPa) = 46.52925 49.19949 47.86437
# Shear Modulus (GPa) = 13.44624 23.39026 18.41825
#
# Velocity S-wave (km/s) = 2.60991 3.44225 3.05456
# Velocity P-wave (km/s) = 5.71428 6.38140 6.05703
#
# Compressibility (1/GPa) = 0.02149186
#
# Stress axis : x y z
#
# Youngs Moduli (GPa) = 73.69774 63.95584 78.72598
#
# Poissons Ratio (x) = 0.47074 0.18400
# Poissons Ratio (y) = 0.54244 0.04015
# Poissons Ratio (z) = 0.17225 0.03262
#
# Static dielectric constant tensor:
#      x y z
#    x 3.465400 0.000000 0.000000 
#    y 0.000000 3.725290 0.000000 
#    z 0.000000 0.000000 3.481690 
# 
# 
# High freq. dielectric constant tensor:
#      x y z
#    x 1.755180 0.000000 0.000000 
#    y 0.000000 1.779450 0.000000 
#    z 0.000000 0.000000 1.757470 
# 
# From -- ./inp_files/48648.got.cif
#   From: 2010.06.25/outbox.cif.g09.slc.cpg/sg71_25_cif.got.tgz:48648.got - 2010.06.28 04:59:45.
