data_PCOD8291463
_publ_section_title
;
Structure prediction by ZEFSAII (Michael W. Deem and Ramdas Pophale) SiO2 
 PCOD8291463
Probable space group: I M M M
;
_chemical_formula_sum "Si O2"
_cell_formula_units_Z 96
_cell_length_a 23.500237
_cell_length_b 23.527277
_cell_length_c 9.306227
_cell_angle_alpha 90.000000
_cell_angle_beta 90.000000
_cell_angle_gamma 90.000000
_cell_volume 5145.381132
_symmetry_space_group_name_H-M "I M M M"
_symmetry_group_IT_number 71
_symmetry_cell_setting 'orthorhombic'
loop_
_space_group_symop_operation_xyz
x,y,z
-x,-y,z
x,-y,-z
-x,y,-z
-x,-y,-z
x,y,-z
-x,y,z
x,-y,z
1/2+x,1/2+y,1/2+z
1/2-x,1/2-y,1/2+z
1/2+x,1/2-y,1/2-z
1/2-x,1/2+y,1/2-z
1/2-x,1/2-y,1/2-z
1/2+x,1/2+y,1/2-z
1/2-x,1/2+y,1/2+z
1/2+x,1/2-y,1/2+z
loop_
_atom_site_type_symbol
_atom_site_label
_atom_site_fract_x
_atom_site_fract_y
_atom_site_fract_z
Si Si1 0.864131 0.840885 0.331711
Si Si2 0.839018 0.565461 0.337304
Si Si3 0.565612 0.565668 0.333209
Si Si4 0.867974 0.268777 0.163651
Si Si5 0.064502 0.381729 0.834590
Si Si6 0.232011 0.651255 0.166527
O O1 0.876958 0.841833 0.500000
O O2 0.893533 0.895675 0.262669
O O3 0.888013 0.782839 0.264280
O O4 0.797401 0.839546 0.296464
O O5 0.843808 0.587758 0.500000
O O6 0.822527 0.500000 0.332093
O O7 0.899296 0.574938 0.260313
O O8 0.788316 0.597977 0.258638
O O9 0.578000 0.577870 0.500000
O O10 0.500000 0.579745 0.297236
O O11 0.578702 0.500000 0.296686
O O12 0.914281 0.317625 0.187281
O O13 0.805398 0.293023 0.206189
O O14 0.867734 0.246838 0.000000
O O15 0.000000 0.385599 0.781534
O O16 0.070881 0.399963 0.000000
O O17 0.221882 0.636250 0.000000
#
# Coordination Sequence:
#
# PCOD8291463 Si02
#       6
#    16  16  16  16  16  16
#     4  11  22  34  54  85 112 135 169 213 262 315
#     4  10  21  35  52  77 107 138 175 221 268 310
#     4   9  20  40  61  78 101 137 178 216 255 304
#     4   9  18  34  54  76 106 142 177 214 255 304
#     4   9  19  36  56  77 103 139 181 220 260 309
#     4   9  20  37  54  75 106 142 177 214 258 309
#
# _framework density 18.657509999999998
#
# number of rings (size 3 to 8) (size 9 to 14) (size 15 to 20)
#    0.000    2.500    0.000    3.000    0.000    8.000 
#    0.000    7.500    0.000    0.000    0.000    0.000 
#    0.000    0.000    0.000    0.000    0.000    0.000 
#
# Total GULP energy -595264.929158 kJ/mol
# GULP energy per Si atom -12401.352691 kJ/mol
# Density = 1.861504 g / cm^3
# Si number density = 18.657510 Si / 1000 Ang^3
#
#
#
# Elastic Constant Matrix: (Units=GPa)
#
#
# Indices 1 2 3 4 5 6 
#
# 1 31.6279 9.4969 21.2870 0.0000 0.0000 0.0000
# 2 9.4969 84.9210 48.2520 0.0000 0.0000 0.0000
# 3 21.2870 48.2520 85.1525 0.0000 0.0000 0.0000
# 4 0.0000 0.0000 0.0000 35.0287 0.0000 0.0000
# 5 0.0000 0.0000 0.0000 0.0000 25.0397 0.0000
# 6 0.0000 0.0000 0.0000 0.0000 0.0000 19.3738
#
#
#
# Elastic Compliance Matrix: (Units=1/GPa)
#
#
# Indices 1 2 3 4 5 6 
#
# 1 0.038179 0.001701 -0.010508 0.000000 0.000000 0.000000
# 2 0.001701 0.017443 -0.010310 0.000000 0.000000 0.000000
# 3 -0.010508 -0.010310 0.020213 0.000000 0.000000 0.000000
# 4 0.000000 0.000000 0.000000 0.028548 0.000000 0.000000
# 5 0.000000 0.000000 0.000000 0.000000 0.039937 0.000000
# 6 0.000000 0.000000 0.000000 0.000000 0.000000 0.051616
#
#
# Mechanical properties :
#
#
# Convention : Reuss Voigt Hill
#
# Bulk Modulus (GPa) = 26.59451 39.97479 33.28465
# Shear Modulus (GPa) = 20.26724 24.06612 22.16668
#
# Velocity S-wave (km/s) = 3.29945 3.59540 3.45060
# Velocity P-wave (km/s) = 5.36658 6.22157 5.80982
#
# Compressibility (1/GPa) = 0.03760175
#
# Stress axis : x y z
#
# Youngs Moduli (GPa) = 26.19212 57.32861 49.47428
#
# Poissons Ratio (x) = -0.09752 0.51989
# Poissons Ratio (y) = -0.04456 0.51006
# Poissons Ratio (z) = 0.27523 0.59103
#
# Static dielectric constant tensor:
#      x y z
#    x 3.447100 0.000000 0.000000 
#    y 0.000000 3.260030 0.000000 
#    z 0.000000 0.000000 3.439130 
# 
# 
# High freq. dielectric constant tensor:
#      x y z
#    x 1.722490 0.000000 0.000000 
#    y 0.000000 1.722440 0.000000 
#    z 0.000000 0.000000 1.725820 
# 
# From -- ./inp_files/12817.got.cif
#   From: 2010.06.25/outbox.cif.g09.slc.cpg/sg71_7_cif.got.tgz:12817.got - 2010.06.28 04:59:45.
