data_PCOD8291222
_publ_section_title
;
Structure prediction by ZEFSAII (Michael W. Deem and Ramdas Pophale) SiO2 
 PCOD8291222
Probable space group: I M M M
;
_chemical_formula_sum "Si O2"
_cell_formula_units_Z 104
_cell_length_a 21.091484
_cell_length_b 8.650741
_cell_length_c 28.166745
_cell_angle_alpha 90.000000
_cell_angle_beta 90.000000
_cell_angle_gamma 90.000000
_cell_volume 5139.218818
_symmetry_space_group_name_H-M "I M M M"
_symmetry_group_IT_number 71
_symmetry_cell_setting 'orthorhombic'
loop_
_space_group_symop_operation_xyz
x,y,z
-x,-y,z
x,-y,-z
-x,y,-z
-x,-y,-z
x,y,-z
-x,y,z
x,-y,z
1/2+x,1/2+y,1/2+z
1/2-x,1/2-y,1/2+z
1/2+x,1/2-y,1/2-z
1/2-x,1/2+y,1/2-z
1/2-x,1/2-y,1/2-z
1/2+x,1/2+y,1/2-z
1/2-x,1/2+y,1/2+z
1/2+x,1/2-y,1/2+z
loop_
_atom_site_type_symbol
_atom_site_label
_atom_site_fract_x
_atom_site_fract_y
_atom_site_fract_z
Si Si1 0.812786 0.678236 0.553492
Si Si2 0.931103 0.679440 0.607437
Si Si3 0.000000 0.682859 0.054886
Si Si4 0.900154 0.819580 0.874705
Si Si5 0.237233 0.679331 0.864244
Si Si6 0.154698 0.316444 0.307760
Si Si7 0.569781 0.176807 0.721773
O O1 0.794074 0.718332 0.500000
O O2 0.796105 0.500000 0.566254
O O3 0.888162 0.706044 0.560648
O O4 0.775098 0.792886 0.587314
O O5 0.941826 0.500000 0.616857
O O6 0.894009 0.747900 0.652734
O O7 0.000000 0.760238 0.601027
O O8 0.063425 0.740617 0.081401
O O9 0.000000 0.500000 0.056572
O O10 0.000000 0.741086 0.000000
O O11 0.828164 0.767088 0.870426
O O12 0.933224 0.780243 0.825014
O O13 0.903655 0.000000 0.884244
O O14 0.223773 0.500000 0.856450
O O15 0.276543 0.741047 0.818277
O O16 0.162278 0.500000 0.311047
O O17 0.125420 0.265379 0.257155
O O18 0.500000 0.188378 0.746337
O O19 0.583880 0.000000 0.707077
#
# Coordination Sequence:
#
# PCOD8291222 Si02
#       7
#    16  16   8  16  16  16  16
#     4   9  18  33  53  78 109 145 188 241 297 355
#     4   8  13  24  46  77 111 144 187 237 283 335
#     4  11  25  47  73  99 127 157 195 245 300 363
#     4  12  25  42  65  92 123 157 192 238 294 355
#     4  11  23  39  59  82 114 156 200 250 300 354
#     4   9  18  34  56  85 118 157 201 244 293 347
#     4  10  20  36  62  92 125 161 199 245 295 350
#
# _framework density 20.236537999999999
#
# number of rings (size 3 to 8) (size 9 to 14) (size 15 to 20)
#    0.000    2.077    0.769    4.385    0.000    4.923 
#    0.000    1.538    0.000   11.077    0.000    4.308 
#    0.000    0.000    0.000    0.000    0.000    0.000 
#
# Total GULP energy -644565.312249 kJ/mol
# GULP energy per Si atom -12395.486774 kJ/mol
# Density = 2.019048 g / cm^3
# Si number density = 20.236538 Si / 1000 Ang^3
#
#
#
# Elastic Constant Matrix: (Units=GPa)
#
#
# Indices 1 2 3 4 5 6 
#
# 1 132.0440 24.1139 44.6175 0.0000 0.0000 0.0000
# 2 24.1139 68.9134 33.6273 0.0000 0.0000 0.0000
# 3 44.6175 33.6273 119.4180 0.0000 0.0000 0.0000
# 4 0.0000 0.0000 0.0000 24.8047 0.0000 0.0000
# 5 0.0000 0.0000 0.0000 0.0000 23.3545 0.0000
# 6 0.0000 0.0000 0.0000 0.0000 0.0000 24.0517
#
#
#
# Elastic Compliance Matrix: (Units=1/GPa)
#
#
# Indices 1 2 3 4 5 6 
#
# 1 0.008839 -0.001717 -0.002819 0.000000 0.000000 0.000000
# 2 -0.001717 0.017156 -0.004189 0.000000 0.000000 0.000000
# 3 -0.002819 -0.004189 0.010607 0.000000 0.000000 0.000000
# 4 0.000000 0.000000 0.000000 0.040315 0.000000 0.000000
# 5 0.000000 0.000000 0.000000 0.000000 0.042818 0.000000
# 6 0.000000 0.000000 0.000000 0.000000 0.000000 0.041577
#
#
# Mechanical properties :
#
#
# Convention : Reuss Voigt Hill
#
# Bulk Modulus (GPa) = 52.21712 58.34365 55.28039
# Shear Modulus (GPa) = 27.00538 28.97661 27.99099
#
# Velocity S-wave (km/s) = 3.65703 3.78814 3.72316
# Velocity P-wave (km/s) = 6.60993 6.93014 6.77193
#
# Compressibility (1/GPa) = 0.01915081
#
# Stress axis : x y z
#
# Youngs Moduli (GPa) = 113.12961 58.28789 94.27825
#
# Poissons Ratio (x) = 0.10011 0.26577
# Poissons Ratio (y) = 0.19430 0.39497
# Poissons Ratio (z) = 0.31891 0.24419
#
# Static dielectric constant tensor:
#      x y z
#    x 3.964620 0.000000 0.000000 
#    y 0.000000 3.396330 0.000000 
#    z 0.000000 0.000000 3.660940 
# 
# 
# High freq. dielectric constant tensor:
#      x y z
#    x 1.804220 0.000000 0.000000 
#    y 0.000000 1.761960 0.000000 
#    z 0.000000 0.000000 1.784420 
# 
# From -- ./inp_files/70731.got.cif
#   From: 2010.06.25/outbox.cif.g09.slc.cpg/sg71_36_cif.got.tgz:70731.got - 2010.06.28 04:59:45.
