data_PCOD8291198
_publ_section_title
;
Structure prediction by ZEFSAII (Michael W. Deem and Ramdas Pophale) SiO2 
 PCOD8291198
Probable space group: I M M M
;
_chemical_formula_sum "Si O2"
_cell_formula_units_Z 104
_cell_length_a 28.488451
_cell_length_b 8.263821
_cell_length_c 21.661424
_cell_angle_alpha 90.000000
_cell_angle_beta 90.000000
_cell_angle_gamma 90.000000
_cell_volume 5099.607379
_symmetry_space_group_name_H-M "I M M M"
_symmetry_group_IT_number 71
_symmetry_cell_setting 'orthorhombic'
loop_
_space_group_symop_operation_xyz
x,y,z
-x,-y,z
x,-y,-z
-x,y,-z
-x,-y,-z
x,y,-z
-x,y,z
x,-y,z
1/2+x,1/2+y,1/2+z
1/2-x,1/2-y,1/2+z
1/2+x,1/2-y,1/2-z
1/2-x,1/2+y,1/2-z
1/2-x,1/2-y,1/2-z
1/2+x,1/2+y,1/2-z
1/2-x,1/2+y,1/2+z
1/2+x,1/2-y,1/2+z
loop_
_atom_site_type_symbol
_atom_site_label
_atom_site_fract_x
_atom_site_fract_y
_atom_site_fract_z
Si Si1 0.948085 0.000000 0.073143
Si Si2 0.363794 0.191471 0.202886
Si Si3 0.317442 0.184061 0.673178
Si Si4 0.702435 0.687163 0.000000
Si Si5 0.391922 0.817404 0.428153
Si Si6 0.775691 0.312990 0.373035
Si Si7 0.902222 0.193475 0.500000
Si Si8 0.052407 0.190779 0.625979
O O1 0.924487 0.830975 0.095255
O O2 0.000000 0.000000 0.101822
O O3 0.949985 0.000000 0.000000
O O4 0.351223 0.250110 0.272325
O O5 0.322534 0.259259 0.158586
O O6 0.413832 0.262370 0.182688
O O7 0.367266 0.000000 0.200076
O O8 0.343351 0.199754 0.607903
O O9 0.269218 0.283269 0.670314
O O10 0.303574 0.000000 0.688126
O O11 0.732100 0.733860 0.939767
O O12 0.694184 0.500000 0.000000
O O13 0.650503 0.767217 0.000000
O O14 0.380368 0.796211 0.500000
O O15 0.413559 0.000000 0.416069
O O16 0.782863 0.500000 0.383178
O O17 0.928199 0.261045 0.438920
O O18 0.902325 0.000000 0.500000
O O19 0.000000 0.260692 0.637979
O O20 0.050146 0.000000 0.621302
#
# Coordination Sequence:
#
# PCOD8291198 Si02
#       8
#     8  16  16   8  16  16   8  16
#     4   9  18  34  58  86 116 148 184 233 294 356
#     4  10  22  40  58  80 117 157 195 241 293 356
#     4  10  22  39  59  82 113 156 198 235 292 360
#     4  11  21  36  59  85 118 162 198 240 298 355
#     4   9  19  36  58  85 116 149 191 244 298 356
#     4  11  23  37  57  87 118 151 195 246 295 348
#     4   9  17  33  58  85 115 153 195 245 300 346
#     4  10  20  36  60  88 116 151 200 252 299 352
#
# _framework density 20.393726000000001
#
# number of rings (size 3 to 8) (size 9 to 14) (size 15 to 20)
#    0.000    2.077    1.538    1.385    2.154    2.769 
#    0.000    2.692    0.000    3.692    0.000    0.000 
#    0.000    0.000    0.000    0.000    0.000    0.000 
#
# Total GULP energy -644660.105223 kJ/mol
# GULP energy per Si atom -12397.309716 kJ/mol
# Density = 2.034731 g / cm^3
# Si number density = 20.393726 Si / 1000 Ang^3
#
#
#
# Elastic Constant Matrix: (Units=GPa)
#
#
# Indices 1 2 3 4 5 6 
#
# 1 135.8633 32.3198 54.0604 0.0000 0.0000 0.0000
# 2 32.3198 67.6866 18.6981 0.0000 0.0000 0.0000
# 3 54.0604 18.6981 108.5336 0.0000 0.0000 0.0000
# 4 0.0000 0.0000 0.0000 22.1758 0.0000 0.0000
# 5 0.0000 0.0000 0.0000 0.0000 60.9387 0.0000
# 6 0.0000 0.0000 0.0000 0.0000 0.0000 29.5345
#
#
#
# Elastic Compliance Matrix: (Units=1/GPa)
#
#
# Indices 1 2 3 4 5 6 
#
# 1 0.009928 -0.003543 -0.004335 0.000000 0.000000 0.000000
# 2 -0.003543 0.016777 -0.001125 0.000000 0.000000 0.000000
# 3 -0.004335 -0.001125 0.011567 0.000000 0.000000 0.000000
# 4 0.000000 0.000000 0.000000 0.045094 0.000000 0.000000
# 5 0.000000 0.000000 0.000000 0.000000 0.016410 0.000000
# 6 0.000000 0.000000 0.000000 0.000000 0.000000 0.033859
#
#
# Mechanical properties :
#
#
# Convention : Reuss Voigt Hill
#
# Bulk Modulus (GPa) = 49.34648 58.02667 53.68657
# Shear Modulus (GPa) = 31.56650 36.33014 33.94832
#
# Velocity S-wave (km/s) = 3.93855 4.22529 4.08443
# Velocity P-wave (km/s) = 6.70315 7.23319 6.97321
#
# Compressibility (1/GPa) = 0.02026487
#
# Stress axis : x y z
#
# Youngs Moduli (GPa) = 100.72540 59.60654 86.45480
#
# Poissons Ratio (x) = 0.21119 0.37476
# Poissons Ratio (y) = 0.35688 0.09730
# Poissons Ratio (z) = 0.43662 0.06708
#
# Static dielectric constant tensor:
#      x y z
#    x 3.765110 0.000000 0.000000 
#    y 0.000000 3.610370 0.000000 
#    z 0.000000 0.000000 -0.087870 
# 
# 
# High freq. dielectric constant tensor:
#      x y z
#    x 1.790000 0.000000 0.000000 
#    y 0.000000 1.785310 0.000000 
#    z 0.000000 0.000000 1.793190 
# 
# From -- ./inp_files/56327.got.cif
#   From: 2010.06.25/outbox.cif.g09.slc.cpg/sg71_29_cif.got.tgz:56327.got - 2010.06.28 04:59:45.
