data_PCOD8291313
_publ_section_title
;
Structure prediction by ZEFSAII (Michael W. Deem and Ramdas Pophale) SiO2 
 PCOD8291313
Probable space group: I M M M
;
_chemical_formula_sum "Si O2"
_cell_formula_units_Z 68
_cell_length_a 24.351796
_cell_length_b 17.280401
_cell_length_c 7.740716
_cell_angle_alpha 90.000000
_cell_angle_beta 90.000000
_cell_angle_gamma 90.000000
_cell_volume 3257.361411
_symmetry_space_group_name_H-M "I M M M"
_symmetry_group_IT_number 71
_symmetry_cell_setting 'orthorhombic'
loop_
_space_group_symop_operation_xyz
x,y,z
-x,-y,z
x,-y,-z
-x,y,-z
-x,-y,-z
x,y,-z
-x,y,z
x,-y,z
1/2+x,1/2+y,1/2+z
1/2-x,1/2-y,1/2+z
1/2+x,1/2-y,1/2-z
1/2-x,1/2+y,1/2-z
1/2-x,1/2-y,1/2-z
1/2+x,1/2+y,1/2-z
1/2-x,1/2+y,1/2+z
1/2+x,1/2-y,1/2+z
loop_
_atom_site_type_symbol
_atom_site_label
_atom_site_fract_x
_atom_site_fract_y
_atom_site_fract_z
Si Si1 0.000000 0.180394 0.500000
Si Si2 0.698880 0.160062 0.298141
Si Si3 0.500000 0.201362 0.688426
Si Si4 0.613276 0.591325 0.000000
Si Si5 0.181528 0.835170 0.804105
Si Si6 0.410334 0.086828 0.199911
O O1 0.000000 0.232641 0.330132
O O2 0.946833 0.127351 0.500000
O O3 0.710672 0.155025 0.500000
O O4 0.755089 0.138039 0.201878
O O5 0.678110 0.245586 0.246223
O O6 0.653688 0.098902 0.238499
O O7 0.500000 0.241552 0.500000
O O8 0.553816 0.148009 0.696129
O O9 0.644807 0.615988 0.826628
O O10 0.607374 0.500000 0.000000
O O11 0.159685 0.847151 0.000000
O O12 0.425919 0.000000 0.257415
O O13 0.423523 0.099003 0.000000
#
# Coordination Sequence:
#
# PCOD8291313 Si02
#       6
#     4  16   8   8  16  16
#     4  12  27  50  75  94 126 162 218 290 325 392
#     4  10  20  37  64  98 133 177 226 268 314 380
#     4  12  25  44  70  97 123 173 224 271 325 385
#     4  12  27  46  70  99 131 171 215 268 342 401
#     4  10  22  41  67  98 132 172 221 273 322 381
#     4  11  23  38  59  93 138 179 216 266 325 383
#
# _framework density 20.875793000000002
#
# number of rings (size 3 to 8) (size 9 to 14) (size 15 to 20)
#    0.000    1.176    2.353    3.353    3.294    7.529 
#    0.000    0.000    0.000    2.118    0.000    0.000 
#    0.000    0.000    0.000    0.000    0.000    0.000 
#
# Total GULP energy -421759.408280 kJ/mol
# GULP energy per Si atom -12404.688479 kJ/mol
# Density = 2.082828 g / cm^3
# Si number density = 20.875793 Si / 1000 Ang^3
#
#
#
# Elastic Constant Matrix: (Units=GPa)
#
#
# Indices 1 2 3 4 5 6 
#
# 1 123.9398 58.0389 51.8163 0.0000 0.0000 0.0000
# 2 58.0389 110.2825 68.2484 0.0000 0.0000 0.0000
# 3 51.8163 68.2484 132.7795 0.0000 0.0000 0.0000
# 4 0.0000 0.0000 0.0000 18.1497 0.0000 0.0000
# 5 0.0000 0.0000 0.0000 0.0000 28.0677 0.0000
# 6 0.0000 0.0000 0.0000 0.0000 0.0000 14.0445
#
#
#
# Elastic Compliance Matrix: (Units=1/GPa)
#
#
# Indices 1 2 3 4 5 6 
#
# 1 0.011037 -0.004609 -0.001938 0.000000 0.000000 0.000000
# 2 -0.004609 0.015222 -0.006025 0.000000 0.000000 0.000000
# 3 -0.001938 -0.006025 0.011385 0.000000 0.000000 0.000000
# 4 0.000000 0.000000 0.000000 0.055097 0.000000 0.000000
# 5 0.000000 0.000000 0.000000 0.000000 0.035628 0.000000
# 6 0.000000 0.000000 0.000000 0.000000 0.000000 0.071202
#
#
# Mechanical properties :
#
#
# Convention : Reuss Voigt Hill
#
# Bulk Modulus (GPa) = 80.00926 80.35658 80.18292
# Shear Modulus (GPa) = 21.84520 24.64559 23.24539
#
# Velocity S-wave (km/s) = 3.23838 3.43969 3.34055
# Velocity P-wave (km/s) = 7.23825 7.37235 7.30561
#
# Compressibility (1/GPa) = 0.01249855
#
# Stress axis : x y z
#
# Youngs Moduli (GPa) = 90.60368 65.69358 87.83743
#
# Poissons Ratio (x) = 0.30279 0.17023
# Poissons Ratio (y) = 0.41761 0.52926
# Poissons Ratio (z) = 0.17559 0.39583
#
# Static dielectric constant tensor:
#      x y z
#    x 3.845460 0.000000 0.000000 
#    y 0.000000 3.725020 0.000000 
#    z 0.000000 0.000000 3.843730 
# 
# 
# High freq. dielectric constant tensor:
#      x y z
#    x 1.824250 0.000000 0.000000 
#    y 0.000000 1.798270 0.000000 
#    z 0.000000 0.000000 1.830880 
# 
# From -- ./inp_files/9682.got.cif
#   From: 2010.06.25/outbox.cif.g09.slc.cpg/sg71_5_cif.got.tgz:9682.got - 2010.06.28 04:59:45.
