data_PCOD8291598
_publ_section_title
;
Structure prediction by ZEFSAII (Michael W. Deem and Ramdas Pophale) SiO2 
 PCOD8291598
Probable space group: I M M M
;
_chemical_formula_sum "Si O2"
_cell_formula_units_Z 96
_cell_length_a 20.312440
_cell_length_b 8.995528
_cell_length_c 27.705464
_cell_angle_alpha 90.000000
_cell_angle_beta 90.000000
_cell_angle_gamma 90.000000
_cell_volume 5062.373489
_symmetry_space_group_name_H-M "I M M M"
_symmetry_group_IT_number 71
_symmetry_cell_setting 'orthorhombic'
loop_
_space_group_symop_operation_xyz
x,y,z
-x,-y,z
x,-y,-z
-x,y,-z
-x,-y,-z
x,y,-z
-x,y,z
x,-y,z
1/2+x,1/2+y,1/2+z
1/2-x,1/2-y,1/2+z
1/2+x,1/2-y,1/2-z
1/2-x,1/2+y,1/2-z
1/2-x,1/2-y,1/2-z
1/2+x,1/2+y,1/2-z
1/2-x,1/2+y,1/2+z
1/2+x,1/2-y,1/2+z
loop_
_atom_site_type_symbol
_atom_site_label
_atom_site_fract_x
_atom_site_fract_y
_atom_site_fract_z
Si Si1 0.075895 0.327811 0.782090
Si Si2 0.427643 0.676726 0.054080
Si Si3 0.305775 0.675859 0.114016
Si Si4 0.075994 0.328451 0.106974
Si Si5 0.690314 0.325301 0.555414
Si Si6 0.311404 0.324920 0.775168
O O1 0.091629 0.500000 0.772315
O O2 0.091911 0.288673 0.837529
O O3 0.120155 0.227400 0.747683
O O4 0.000000 0.292282 0.770377
O O5 0.500000 0.732888 0.070988
O O6 0.426549 0.500000 0.054888
O O7 0.371778 0.740750 0.089193
O O8 0.413104 0.734191 0.000000
O O9 0.300412 0.500000 0.107810
O O10 0.242665 0.746260 0.089359
O O11 0.309403 0.723805 0.169335
O O12 0.093373 0.500000 0.097188
O O13 0.117929 0.225522 0.071602
O O14 0.000000 0.296852 0.095513
O O15 0.702030 0.278427 0.500000
O O16 0.696489 0.500000 0.562249
O O17 0.305515 0.500000 0.769032
O O18 0.250000 0.250000 0.750000
#
# Coordination Sequence:
#
# PCOD8291598 Si02
#       6
#    16  16  16  16  16  16
#     4   9  19  37  59  82 110 143 179 221 269 322
#     4   8  14  27  50  78 103 127 160 206 257 303
#     4  10  21  36  55  78 104 139 182 223 261 309
#     4   9  19  37  60  83 106 137 180 224 263 312
#     4  11  24  38  53  78 111 143 176 219 271 325
#     4  11  23  36  53  79 109 142 182 227 272 319
#
# _framework density 18.963436999999999
#
# number of rings (size 3 to 8) (size 9 to 14) (size 15 to 20)
#    0.000    2.333    0.000    4.000    0.000    9.667 
#    0.000    5.000    0.000    0.500    0.000    2.333 
#    0.000    0.000    0.000    0.000    0.000    0.000 
#
# Total GULP energy -595255.590897 kJ/mol
# GULP energy per Si atom -12401.158144 kJ/mol
# Density = 1.892028 g / cm^3
# Si number density = 18.963437 Si / 1000 Ang^3
#
#
#
# Elastic Constant Matrix: (Units=GPa)
#
#
# Indices 1 2 3 4 5 6 
#
# 1 119.1761 32.4017 66.4517 0.0000 0.0000 0.0000
# 2 32.4017 36.5431 43.9910 0.0000 0.0000 0.0000
# 3 66.4517 43.9910 115.4446 0.0000 0.0000 0.0000
# 4 0.0000 0.0000 0.0000 28.2623 0.0000 0.0000
# 5 0.0000 0.0000 0.0000 0.0000 42.7890 0.0000
# 6 0.0000 0.0000 0.0000 0.0000 0.0000 27.9988
#
#
#
# Elastic Compliance Matrix: (Units=1/GPa)
#
#
# Indices 1 2 3 4 5 6 
#
# 1 0.012757 -0.004566 -0.005603 0.000000 0.000000 0.000000
# 2 -0.004566 0.052191 -0.017259 0.000000 0.000000 0.000000
# 3 -0.005603 -0.017259 0.018464 0.000000 0.000000 0.000000
# 4 0.000000 0.000000 0.000000 0.035383 0.000000 0.000000
# 5 0.000000 0.000000 0.000000 0.000000 0.023370 0.000000
# 6 0.000000 0.000000 0.000000 0.000000 0.000000 0.035716
#
#
# Mechanical properties :
#
#
# Convention : Reuss Voigt Hill
#
# Bulk Modulus (GPa) = 35.02057 61.87252 48.44655
# Shear Modulus (GPa) = 20.63941 28.36464 24.50203
#
# Velocity S-wave (km/s) = 3.30264 3.87169 3.59843
# Velocity P-wave (km/s) = 5.74898 7.25843 6.54735
#
# Compressibility (1/GPa) = 0.02855465
#
# Stress axis : x y z
#
# Youngs Moduli (GPa) = 78.39138 19.16057 54.15900
#
# Poissons Ratio (x) = 0.08749 0.30345
# Poissons Ratio (y) = 0.35793 0.93475
# Poissons Ratio (z) = 0.43923 0.33070
#
# Static dielectric constant tensor:
#      x y z
#    x 3.680410 0.000000 0.000000 
#    y 0.000000 3.231250 0.000000 
#    z 0.000000 0.000000 3.596820 
# 
# 
# High freq. dielectric constant tensor:
#      x y z
#    x 1.754030 0.000000 0.000000 
#    y 0.000000 1.714310 0.000000 
#    z 0.000000 0.000000 1.741040 
# 
# From -- ./inp_files/10947.got.cif
#   From: 2010.06.25/outbox.cif.g09.slc.cpg/sg71_6_cif.got.tgz:10947.got - 2010.06.28 04:59:45.
