data_PCOD8291640
_publ_section_title
;
Structure prediction by ZEFSAII (Michael W. Deem and Ramdas Pophale) SiO2 
 PCOD8291640
Probable space group: I M M M
;
_chemical_formula_sum "Si O2"
_cell_formula_units_Z 104
_cell_length_a 27.009520
_cell_length_b 9.335838
_cell_length_c 21.303530
_cell_angle_alpha 90.000000
_cell_angle_beta 90.000000
_cell_angle_gamma 90.000000
_cell_volume 5371.823630
_symmetry_space_group_name_H-M "I M M M"
_symmetry_group_IT_number 71
_symmetry_cell_setting 'orthorhombic'
loop_
_space_group_symop_operation_xyz
x,y,z
-x,-y,z
x,-y,-z
-x,y,-z
-x,-y,-z
x,y,-z
-x,y,z
x,-y,z
1/2+x,1/2+y,1/2+z
1/2-x,1/2-y,1/2+z
1/2+x,1/2-y,1/2-z
1/2-x,1/2+y,1/2-z
1/2-x,1/2-y,1/2-z
1/2+x,1/2+y,1/2-z
1/2-x,1/2+y,1/2+z
1/2+x,1/2-y,1/2+z
loop_
_atom_site_type_symbol
_atom_site_label
_atom_site_fract_x
_atom_site_fract_y
_atom_site_fract_z
Si Si1 0.940598 0.340722 0.000000
Si Si2 0.280858 0.168993 0.303081
Si Si3 0.444633 0.341913 0.389297
Si Si4 0.123838 0.839539 0.227287
Si Si5 0.277889 0.666738 0.072116
Si Si6 0.875828 0.339207 0.426382
Si Si7 0.443314 0.667465 0.156493
O O1 0.918618 0.264504 0.061472
O O2 0.920034 0.500000 0.000000
O O3 0.000000 0.330206 0.000000
O O4 0.250000 0.250000 0.250000
O O5 0.336344 0.224158 0.294516
O O6 0.263240 0.203871 0.374768
O O7 0.278254 0.000000 0.290424
O O8 0.500000 0.289183 0.375368
O O9 0.444412 0.500000 0.419583
O O10 0.417947 0.342400 0.324132
O O11 0.095370 0.789452 0.289321
O O12 0.146962 0.000000 0.235615
O O13 0.291782 0.500000 0.075198
O O14 0.326270 0.754204 0.092603
O O15 0.260560 0.705945 0.000000
O O16 0.881172 0.345195 0.500000
O O17 0.872463 0.500000 0.398447
O O18 0.925048 0.259020 0.402646
O O19 0.500000 0.708919 0.173527
O O20 0.439973 0.500000 0.140762
#
# Coordination Sequence:
#
# PCOD8291640 Si02
#       7
#     8  16  16  16  16  16  16
#     4   9  17  29  47  73 103 135 173 217 261 305
#     4  11  23  38  58  83 112 145 184 229 281 337
#     4   9  17  32  54  76 102 139 180 219 263 319
#     4  10  21  37  56  80 109 140 180 228 278 326
#     4   9  19  38  61  82 108 146 190 231 275 332
#     4  10  21  36  56  84 115 145 179 223 277 332
#     4  10  21  37  57  81 110 147 190 231 271 322
#
# _framework density 19.360277
#
# number of rings (size 3 to 8) (size 9 to 14) (size 15 to 20)
#    0.000    2.231    0.000    2.538    0.000   10.462 
#    1.385    1.538    0.000    2.769    0.000    0.000 
#    0.000    0.000    0.000    0.000    0.000    0.000 
#
# Total GULP energy -644574.665059 kJ/mol
# GULP energy per Si atom -12395.666636 kJ/mol
# Density = 1.931621 g / cm^3
# Si number density = 19.360277 Si / 1000 Ang^3
#
#
#
# Elastic Constant Matrix: (Units=GPa)
#
#
# Indices 1 2 3 4 5 6 
#
# 1 102.8354 53.1786 44.9102 0.0000 0.0000 0.0000
# 2 53.1786 97.0326 42.1018 0.0000 0.0000 0.0000
# 3 44.9102 42.1018 70.6359 0.0000 0.0000 0.0000
# 4 0.0000 0.0000 0.0000 24.5540 0.0000 0.0000
# 5 0.0000 0.0000 0.0000 0.0000 26.1869 0.0000
# 6 0.0000 0.0000 0.0000 0.0000 0.0000 31.1883
#
#
#
# Elastic Compliance Matrix: (Units=1/GPa)
#
#
# Indices 1 2 3 4 5 6 
#
# 1 0.015483 -0.005684 -0.006456 0.000000 0.000000 0.000000
# 2 -0.005684 0.015988 -0.005915 0.000000 0.000000 0.000000
# 3 -0.006456 -0.005915 0.021788 0.000000 0.000000 0.000000
# 4 0.000000 0.000000 0.000000 0.040727 0.000000 0.000000
# 5 0.000000 0.000000 0.000000 0.000000 0.038187 0.000000
# 6 0.000000 0.000000 0.000000 0.000000 0.000000 0.032063
#
#
# Mechanical properties :
#
#
# Convention : Reuss Voigt Hill
#
# Bulk Modulus (GPa) = 58.31858 61.20948 59.76403
# Shear Modulus (GPa) = 24.26445 25.07338 24.66892
#
# Velocity S-wave (km/s) = 3.54405 3.60265 3.57347
# Velocity P-wave (km/s) = 6.85093 6.99929 6.92551
#
# Compressibility (1/GPa) = 0.01714719
#
# Stress axis : x y z
#
# Youngs Moduli (GPa) = 64.58560 62.54823 45.89755
#
# Poissons Ratio (x) = 0.35554 0.29632
# Poissons Ratio (y) = 0.36712 0.27149
# Poissons Ratio (z) = 0.41698 0.36999
#
# Static dielectric constant tensor:
#      x y z
#    x 3.209050 0.000000 0.000000 
#    y 0.000000 4.034340 0.000000 
#    z 0.000000 0.000000 3.692870 
# 
# 
# High freq. dielectric constant tensor:
#      x y z
#    x 1.737570 0.000000 0.000000 
#    y 0.000000 1.754630 0.000000 
#    z 0.000000 0.000000 1.763410 
# 
# From -- ./inp_files/11080.got.cif
#   From: 2010.06.25/outbox.cif.g09.slc.cpg/sg71_6_cif.got.tgz:11080.got - 2010.06.28 04:59:45.
