data_PCOD8291757
_publ_section_title
;
Structure prediction by ZEFSAII (Michael W. Deem and Ramdas Pophale) SiO2 
 PCOD8291757
Probable space group: I M M M
;
_chemical_formula_sum "Si O2"
_cell_formula_units_Z 96
_cell_length_a 24.238669
_cell_length_b 8.937869
_cell_length_c 22.615976
_cell_angle_alpha 90.000000
_cell_angle_beta 90.000000
_cell_angle_gamma 90.000000
_cell_volume 4899.571364
_symmetry_space_group_name_H-M "I M M M"
_symmetry_group_IT_number 71
_symmetry_cell_setting 'orthorhombic'
loop_
_space_group_symop_operation_xyz
x,y,z
-x,-y,z
x,-y,-z
-x,y,-z
-x,-y,-z
x,y,-z
-x,y,z
x,-y,z
1/2+x,1/2+y,1/2+z
1/2-x,1/2-y,1/2+z
1/2+x,1/2-y,1/2-z
1/2-x,1/2+y,1/2-z
1/2-x,1/2-y,1/2-z
1/2+x,1/2+y,1/2-z
1/2-x,1/2+y,1/2+z
1/2+x,1/2-y,1/2+z
loop_
_atom_site_type_symbol
_atom_site_label
_atom_site_fract_x
_atom_site_fract_y
_atom_site_fract_z
Si Si1 0.500000 0.676764 0.218606
Si Si2 0.803822 0.823309 0.891670
Si Si3 0.393744 0.173331 0.170028
Si Si4 0.804925 0.672773 0.228798
Si Si5 0.095263 0.329318 0.934848
Si Si6 0.684773 0.822215 0.933733
Si Si7 0.000000 0.677482 0.847499
O O1 0.500000 0.500000 0.225361
O O2 0.552686 0.727440 0.180838
O O3 0.500000 0.747421 0.283667
O O4 0.824277 0.748708 0.831231
O O5 0.850288 0.773921 0.937994
O O6 0.744028 0.761125 0.911594
O O7 0.801767 0.000000 0.884366
O O8 0.352748 0.196884 0.224181
O O9 0.363726 0.231309 0.110174
O O10 0.411051 0.000000 0.164174
O O11 0.792221 0.500000 0.218501
O O12 0.750000 0.750000 0.250000
O O13 0.112250 0.500000 0.920553
O O14 0.053128 0.270754 0.884989
O O15 0.067578 0.319619 0.000000
O O16 0.687759 0.000000 0.933362
O O17 0.672646 0.762204 0.000000
O O18 0.000000 0.500000 0.838355
#
# Coordination Sequence:
#
# PCOD8291757 Si02
#       7
#     8  16  16  16  16  16   8
#     4  12  26  41  60  88 116 147 187 244 301 348
#     4  11  21  35  55  86 122 157 194 236 290 347
#     4  10  21  40  62  85 114 152 194 234 284 348
#     4  11  21  35  57  87 119 153 193 239 291 344
#     4  10  21  37  57  83 115 155 202 245 287 340
#     4   9  18  35  59  85 113 147 190 235 279 337
#     4  10  21  40  62  81 109 154 199 243 289 344
#
# _framework density 19.59355
#
# number of rings (size 3 to 8) (size 9 to 14) (size 15 to 20)
#    0.000    1.667    1.667    3.500    0.000    8.000 
#    0.000    0.417    0.000    6.500    0.000    0.000 
#    0.000    0.000    0.000    0.000    0.000    0.000 
#
# Total GULP energy -595226.301029 kJ/mol
# GULP energy per Si atom -12400.547938 kJ/mol
# Density = 1.954895 g / cm^3
# Si number density = 19.593550 Si / 1000 Ang^3
#
#
#
# Elastic Constant Matrix: (Units=GPa)
#
#
# Indices 1 2 3 4 5 6 
#
# 1 134.5842 50.5076 60.2567 0.0000 0.0000 0.0000
# 2 50.5076 68.7974 38.1088 0.0000 0.0000 0.0000
# 3 60.2567 38.1088 146.8748 0.0000 0.0000 0.0000
# 4 0.0000 0.0000 0.0000 23.0770 0.0000 0.0000
# 5 0.0000 0.0000 0.0000 0.0000 27.6074 0.0000
# 6 0.0000 0.0000 0.0000 0.0000 0.0000 32.2869
#
#
#
# Elastic Compliance Matrix: (Units=1/GPa)
#
#
# Indices 1 2 3 4 5 6 
#
# 1 0.011208 -0.006635 -0.002877 0.000000 0.000000 0.000000
# 2 -0.006635 0.020903 -0.002701 0.000000 0.000000 0.000000
# 3 -0.002877 -0.002701 0.008690 0.000000 0.000000 0.000000
# 4 0.000000 0.000000 0.000000 0.043333 0.000000 0.000000
# 5 0.000000 0.000000 0.000000 0.000000 0.036222 0.000000
# 6 0.000000 0.000000 0.000000 0.000000 0.000000 0.030972
#
#
# Mechanical properties :
#
#
# Convention : Reuss Voigt Hill
#
# Bulk Modulus (GPa) = 61.07105 72.00030 66.53567
# Shear Modulus (GPa) = 27.59176 30.01982 28.80579
#
# Velocity S-wave (km/s) = 3.75668 3.91849 3.83844
# Velocity P-wave (km/s) = 7.07485 7.56964 7.32642
#
# Compressibility (1/GPa) = 0.01637437
#
# Stress axis : x y z
#
# Youngs Moduli (GPa) = 89.21929 47.84002 115.07916
#
# Poissons Ratio (x) = 0.31742 0.33105
# Poissons Ratio (y) = 0.59198 0.31088
# Poissons Ratio (z) = 0.25666 0.12924
#
# Static dielectric constant tensor:
#      x y z
#    x 3.568580 0.000000 0.000000 
#    y 0.000000 3.376420 0.000000 
#    z 0.000000 0.000000 3.786930 
# 
# 
# High freq. dielectric constant tensor:
#      x y z
#    x 1.764860 0.000000 0.000000 
#    y 0.000000 1.740400 0.000000 
#    z 0.000000 0.000000 1.774920 
# 
# From -- ./inp_files/61568.got.cif
#   From: 2010.06.25/outbox.cif.g09.slc.cpg/sg71_31_cif.got.tgz:61568.got - 2010.06.28 04:59:45.
