data_PCOD8291417
_publ_section_title
;
Structure prediction by ZEFSAII (Michael W. Deem and Ramdas Pophale) SiO2 
 PCOD8291417
Probable space group: I M M M
;
_chemical_formula_sum "Si O2"
_cell_formula_units_Z 80
_cell_length_a 26.922767
_cell_length_b 13.891733
_cell_length_c 12.269291
_cell_angle_alpha 90.000000
_cell_angle_beta 90.000000
_cell_angle_gamma 90.000000
_cell_volume 4588.762571
_symmetry_space_group_name_H-M "I M M M"
_symmetry_group_IT_number 71
_symmetry_cell_setting 'orthorhombic'
loop_
_space_group_symop_operation_xyz
x,y,z
-x,-y,z
x,-y,-z
-x,y,-z
-x,-y,-z
x,y,-z
-x,y,z
x,-y,z
1/2+x,1/2+y,1/2+z
1/2-x,1/2-y,1/2+z
1/2+x,1/2-y,1/2-z
1/2-x,1/2+y,1/2-z
1/2-x,1/2-y,1/2-z
1/2+x,1/2+y,1/2-z
1/2-x,1/2+y,1/2+z
1/2+x,1/2-y,1/2+z
loop_
_atom_site_type_symbol
_atom_site_label
_atom_site_fract_x
_atom_site_fract_y
_atom_site_fract_z
Si Si1 0.942836 0.609140 0.372809
Si Si2 0.129134 0.291645 0.783004
Si Si3 0.257345 0.105009 0.500000
Si Si4 0.375338 0.894280 0.500000
Si Si5 0.673714 0.389384 0.372865
Si Si6 0.232696 0.387370 0.768804
O O1 0.934286 0.625320 0.500000
O O2 0.926753 0.500000 0.340757
O O3 0.910376 0.689378 0.311629
O O4 0.000000 0.625602 0.341744
O O5 0.135114 0.177565 0.807350
O O6 0.181739 0.333720 0.742582
O O7 0.107078 0.340003 0.891657
O O8 0.316517 0.099113 0.500000
O O9 0.243516 0.154640 0.383721
O O10 0.232081 0.000000 0.500000
O O11 0.399725 0.000000 0.500000
O O12 0.674076 0.361061 0.500000
O O13 0.657864 0.500000 0.354611
O O14 0.729275 0.369909 0.329110
O O15 0.220630 0.500000 0.785329
#
# Coordination Sequence:
#
# PCOD8291417 Si02
#       6
#    16  16   8   8  16  16
#     4   9  19  36  57  82 110 133 154 193 255 319
#     4  11  18  32  52  75 101 138 176 209 251 308
#     4   7  12  24  40  60  89 124 157 196 247 293
#     4   9  16  26  46  73  98 124 161 206 253 300
#     4  10  21  35  47  67 103 143 181 220 255 289
#     4   9  17  29  47  71 100 133 170 212 257 305
#
# _framework density 17.433893999999999
#
# number of rings (size 3 to 8) (size 9 to 14) (size 15 to 20)
#    0.000    2.600    1.000    4.200    0.000    0.800 
#    1.800    2.500    0.000    2.400    0.000    2.800 
#    0.000    0.000    0.000    0.000    0.000    0.000 
#
# Total GULP energy -495672.753945 kJ/mol
# GULP energy per Si atom -12391.818849 kJ/mol
# Density = 1.739421 g / cm^3
# Si number density = 17.433894 Si / 1000 Ang^3
#
#
#
# Elastic Constant Matrix: (Units=GPa)
#
#
# Indices 1 2 3 4 5 6 
#
# 1 59.5866 49.1609 51.1411 0.0000 0.0000 0.0000
# 2 49.1609 94.4254 51.3023 0.0000 0.0000 0.0000
# 3 51.1411 51.3023 84.6757 0.0000 0.0000 0.0000
# 4 0.0000 0.0000 0.0000 25.8035 0.0000 0.0000
# 5 0.0000 0.0000 0.0000 0.0000 30.3150 0.0000
# 6 0.0000 0.0000 0.0000 0.0000 0.0000 20.7794
#
#
#
# Elastic Compliance Matrix: (Units=1/GPa)
#
#
# Indices 1 2 3 4 5 6 
#
# 1 0.042583 -0.012219 -0.018315 0.000000 0.000000 0.000000
# 2 -0.012219 0.019293 -0.004309 0.000000 0.000000 0.000000
# 3 -0.018315 -0.004309 0.025482 0.000000 0.000000 0.000000
# 4 0.000000 0.000000 0.000000 0.038754 0.000000 0.000000
# 5 0.000000 0.000000 0.000000 0.000000 0.032987 0.000000
# 6 0.000000 0.000000 0.000000 0.000000 0.000000 0.048125
#
#
# Mechanical properties :
#
#
# Convention : Reuss Voigt Hill
#
# Bulk Modulus (GPa) = 56.58952 60.21069 58.40011
# Shear Modulus (GPa) = 17.68015 21.18513 19.43264
#
# Velocity S-wave (km/s) = 3.18799 3.48971 3.34226
# Velocity P-wave (km/s) = 6.78830 7.13085 6.96168
#
# Compressibility (1/GPa) = 0.01767112
#
# Stress axis : x y z
#
# Youngs Moduli (GPa) = 23.48354 51.83136 39.24267
#
# Poissons Ratio (x) = 0.63334 0.71875
# Poissons Ratio (y) = 0.28695 0.16911
# Poissons Ratio (z) = 0.43011 0.22336
#
# Static dielectric constant tensor:
#      x y z
#    x 2.745540 0.000000 0.000000 
#    y 0.000000 3.330360 0.000000 
#    z 0.000000 0.000000 3.555500 
# 
# 
# High freq. dielectric constant tensor:
#      x y z
#    x 1.615450 0.000000 0.000000 
#    y 0.000000 1.669620 0.000000 
#    z 0.000000 0.000000 1.687850 
# 
# From -- ./inp_files/28521.got.cif
#   From: 2010.06.25/outbox.cif.g09.slc.cpg/sg71_15_cif.got.tgz:28521.got - 2010.06.28 04:59:45.
