data_PCOD8291459
_publ_section_title
;
Structure prediction by ZEFSAII (Michael W. Deem and Ramdas Pophale) SiO2 
 PCOD8291459
Probable space group: I M M M
;
_chemical_formula_sum "Si O2"
_cell_formula_units_Z 64
_cell_length_a 10.678202
_cell_length_b 22.601590
_cell_length_c 13.030334
_cell_angle_alpha 90.000000
_cell_angle_beta 90.000000
_cell_angle_gamma 90.000000
_cell_volume 3144.797405
_symmetry_space_group_name_H-M "I M M M"
_symmetry_group_IT_number 71
_symmetry_cell_setting 'orthorhombic'
loop_
_space_group_symop_operation_xyz
x,y,z
-x,-y,z
x,-y,-z
-x,y,-z
-x,-y,-z
x,y,-z
-x,y,z
x,-y,z
1/2+x,1/2+y,1/2+z
1/2-x,1/2-y,1/2+z
1/2+x,1/2-y,1/2-z
1/2-x,1/2+y,1/2-z
1/2-x,1/2-y,1/2-z
1/2+x,1/2+y,1/2-z
1/2-x,1/2+y,1/2+z
1/2+x,1/2-y,1/2+z
loop_
_atom_site_type_symbol
_atom_site_label
_atom_site_fract_x
_atom_site_fract_y
_atom_site_fract_z
Si Si1 0.235161 0.182858 0.385071
Si Si2 0.364476 0.294353 0.325304
Si Si3 0.859642 0.376406 0.613109
Si Si4 0.144145 0.434454 0.178918
O O1 0.183990 0.195819 0.500000
O O2 0.352455 0.225189 0.355404
O O3 0.131498 0.196063 0.298157
O O4 0.278152 0.114588 0.382178
O O5 0.500000 0.316598 0.366759
O O6 0.246155 0.326369 0.376318
O O7 0.846511 0.405119 0.500000
O O8 0.838803 0.426478 0.698378
O O9 0.000000 0.348591 0.626106
O O10 0.194862 0.500000 0.150973
O O11 0.000000 0.429002 0.146479
#
# Coordination Sequence:
#
# PCOD8291459 Si02
#       4
#    16  16  16  16
#     4  10  21  35  52  76 107 140 173 214 265 315
#     4  10  21  36  55  81 110 138 173 217 262 314
#     4   9  18  33  54  81 112 142 172 213 266 318
#     4   9  18  32  50  75 107 141 179 221 261 306
#
# _framework density 20.351071999999998
#
# number of rings (size 3 to 8) (size 9 to 14) (size 15 to 20)
#    0.000    2.500    0.000    1.500    0.000   11.000 
#    0.000    3.750    0.000   12.000    0.000   14.000 
#    0.000    0.000    0.000    0.000    0.000    0.000 
#
# Total GULP energy -396435.052630 kJ/mol
# GULP energy per Si atom -12388.595395 kJ/mol
# Density = 2.030475 g / cm^3
# Si number density = 20.351072 Si / 1000 Ang^3
#
#
#
# Elastic Constant Matrix: (Units=GPa)
#
#
# Indices 1 2 3 4 5 6 
#
# 1 91.0121 24.1532 -1.0018 0.0000 0.0000 0.0000
# 2 24.1532 112.9464 8.6653 0.0000 0.0000 0.0000
# 3 -1.0018 8.6653 106.9591 0.0001 0.0000 0.0000
# 4 0.0000 0.0000 0.0001 13.7620 0.0000 0.0000
# 5 0.0000 0.0000 0.0000 0.0000 9.7985 0.0000
# 6 0.0000 0.0000 0.0000 0.0000 0.0000 14.4599
#
#
#
# Elastic Compliance Matrix: (Units=1/GPa)
#
#
# Indices 1 2 3 4 5 6 
#
# 1 0.011659 -0.002517 0.000313 0.000000 0.000000 0.000000
# 2 -0.002517 0.009453 -0.000789 0.000000 0.000000 0.000000
# 3 0.000313 -0.000789 0.009416 0.000000 0.000000 0.000000
# 4 0.000000 0.000000 0.000000 0.072664 0.000000 0.000000
# 5 0.000000 0.000000 0.000000 0.000000 0.102057 0.000000
# 6 0.000000 0.000000 0.000000 0.000000 0.000000 0.069157
#
#
# Mechanical properties :
#
#
# Convention : Reuss Voigt Hill
#
# Bulk Modulus (GPa) = 40.74832 41.61679 41.18256
# Shear Modulus (GPa) = 17.32665 26.21079 21.76872
#
# Velocity S-wave (km/s) = 2.92102 3.59267 3.27411
# Velocity P-wave (km/s) = 5.60737 6.14032 5.87989
#
# Compressibility (1/GPa) = 0.02454089
#
# Stress axis : x y z
#
# Youngs Moduli (GPa) = 85.77038 105.79064 106.19934
#
# Poissons Ratio (x) = 0.26630 -0.03325
# Poissons Ratio (y) = 0.21591 0.08383
# Poissons Ratio (z) = -0.02686 0.08351
#
# Static dielectric constant tensor:
#      x y z
#    x 3.376250 0.000000 0.000000 
#    y 0.000000 3.525070 0.000000 
#    z 0.000000 0.000000 3.850170 
# 
# 
# High freq. dielectric constant tensor:
#      x y z
#    x 1.764780 0.000000 0.000000 
#    y 0.000000 1.772500 0.000000 
#    z 0.000000 0.000000 1.807830 
# 
# From -- ./inp_files/19613.got.cif
#   From: 2010.06.25/outbox.cif.g09.slc.cpg/sg71_10_cif.got.tgz:19613.got - 2010.06.28 04:59:45.
