data_PCOD8291957
_publ_section_title
;
Structure prediction by ZEFSAII (Michael W. Deem and Ramdas Pophale) SiO2 
 PCOD8291957
Probable space group: I M M M
;
_chemical_formula_sum "Si O2"
_cell_formula_units_Z 72
_cell_length_a 9.137349
_cell_length_b 17.417684
_cell_length_c 22.195743
_cell_angle_alpha 90.000000
_cell_angle_beta 90.000000
_cell_angle_gamma 90.000000
_cell_volume 3532.484848
_symmetry_space_group_name_H-M "I M M M"
_symmetry_group_IT_number 71
_symmetry_cell_setting 'orthorhombic'
loop_
_space_group_symop_operation_xyz
x,y,z
-x,-y,z
x,-y,-z
-x,y,-z
-x,-y,-z
x,y,-z
-x,y,z
x,-y,z
1/2+x,1/2+y,1/2+z
1/2-x,1/2-y,1/2+z
1/2+x,1/2-y,1/2-z
1/2-x,1/2+y,1/2-z
1/2-x,1/2-y,1/2-z
1/2+x,1/2+y,1/2-z
1/2-x,1/2+y,1/2+z
1/2+x,1/2-y,1/2+z
loop_
_atom_site_type_symbol
_atom_site_label
_atom_site_fract_x
_atom_site_fract_y
_atom_site_fract_z
Si Si1 0.837120 0.590408 0.567085
Si Si2 0.171135 0.180442 0.837249
Si Si3 0.169414 0.654376 0.116019
Si Si4 0.326420 0.411043 0.000000
Si Si5 0.830856 0.585705 0.759334
O O1 0.812160 0.623187 0.500000
O O2 0.821715 0.500000 0.566586
O O3 0.712370 0.622880 0.609570
O O4 0.000000 0.613748 0.589868
O O5 0.224419 0.264595 0.857016
O O6 0.244785 0.152306 0.775451
O O7 0.000000 0.179357 0.825775
O O8 0.193159 0.592718 0.169016
O O9 0.000000 0.658883 0.095934
O O10 0.265148 0.630899 0.058947
O O11 0.277119 0.500000 0.000000
O O12 0.500000 0.403042 0.000000
O O13 0.778914 0.500000 0.740079
O O14 0.000000 0.597170 0.743033
#
# Coordination Sequence:
#
# PCOD8291957 Si02
#       5
#    16  16  16   8  16
#     4   9  19  36  56  78 109 154 204 246 290 353
#     4  11  23  36  56  88 123 154 192 245 302 352
#     4  10  23  42  63  88 121 161 202 242 292 358
#     4  11  25  43  65  95 124 153 196 249 301 348
#     4  10  21  39  63  87 114 157 207 246 290 356
#
# _framework density 20.382252999999999
#
# number of rings (size 3 to 8) (size 9 to 14) (size 15 to 20)
#    0.000    1.889    0.000    3.667    1.556    8.444 
#    0.000    1.111    0.000    0.000    0.000    0.000 
#    0.000    0.000    0.000    0.000    0.000    0.000 
#
# Total GULP energy -446425.744953 kJ/mol
# GULP energy per Si atom -12400.715138 kJ/mol
# Density = 2.033586 g / cm^3
# Si number density = 20.382253 Si / 1000 Ang^3
#
#
#
# Elastic Constant Matrix: (Units=GPa)
#
#
# Indices 1 2 3 4 5 6 
#
# 1 70.0110 52.8497 49.7687 0.0000 0.0000 0.0000
# 2 52.8497 103.4878 54.6487 0.0000 0.0000 0.0000
# 3 49.7687 54.6487 120.9191 0.0000 0.0000 0.0000
# 4 0.0000 0.0000 0.0000 11.6006 0.0000 0.0000
# 5 0.0000 0.0000 0.0000 0.0000 26.5927 0.0000
# 6 0.0000 0.0000 0.0000 0.0000 0.0000 31.0901
#
#
#
# Elastic Compliance Matrix: (Units=1/GPa)
#
#
# Indices 1 2 3 4 5 6 
#
# 1 0.026434 -0.010185 -0.006277 0.000000 0.000000 0.000000
# 2 -0.010185 0.016616 -0.003318 0.000000 0.000000 0.000000
# 3 -0.006277 -0.003318 0.012353 0.000000 0.000000 0.000000
# 4 0.000000 0.000000 0.000000 0.086202 0.000000 0.000000
# 5 0.000000 0.000000 0.000000 0.000000 0.037604 0.000000
# 6 0.000000 0.000000 0.000000 0.000000 0.000000 0.032165
#
#
# Mechanical properties :
#
#
# Convention : Reuss Voigt Hill
#
# Bulk Modulus (GPa) = 63.11438 67.66132 65.38785
# Shear Modulus (GPa) = 19.51498 23.00008 21.25753
#
# Velocity S-wave (km/s) = 3.09762 3.36287 3.23297
# Velocity P-wave (km/s) = 6.62014 6.95318 6.78871
#
# Compressibility (1/GPa) = 0.01584425
#
# Stress axis : x y z
#
# Youngs Moduli (GPa) = 37.83054 60.18259 80.95296
#
# Poissons Ratio (x) = 0.61294 0.50813
# Poissons Ratio (y) = 0.38529 0.26858
# Poissons Ratio (z) = 0.23746 0.19967
#
# Static dielectric constant tensor:
#      x y z
#    x 3.660760 0.000000 0.000000 
#    y 0.000000 3.820260 0.000000 
#    z 0.000000 0.000000 3.803340 
# 
# 
# High freq. dielectric constant tensor:
#      x y z
#    x 1.784350 0.000000 0.000000 
#    y 0.000000 1.803160 0.000000 
#    z 0.000000 0.000000 1.809310 
# 
# From -- ./inp_files/57303.got.cif
#   From: 2010.06.25/outbox.cif.g09.slc.cpg/sg71_29_cif.got.tgz:57303.got - 2010.06.28 04:59:45.
