data_PCOD8291490
_publ_section_title
;
Structure prediction by ZEFSAII (Michael W. Deem and Ramdas Pophale) SiO2 
 PCOD8291490
Probable space group: I M M M
;
_chemical_formula_sum "Si O2"
_cell_formula_units_Z 104
_cell_length_a 18.662684
_cell_length_b 15.036545
_cell_length_c 19.499056
_cell_angle_alpha 90.000000
_cell_angle_beta 90.000000
_cell_angle_gamma 90.000000
_cell_volume 5471.869704
_symmetry_space_group_name_H-M "I M M M"
_symmetry_group_IT_number 71
_symmetry_cell_setting 'orthorhombic'
loop_
_space_group_symop_operation_xyz
x,y,z
-x,-y,z
x,-y,-z
-x,y,-z
-x,-y,-z
x,y,-z
-x,y,z
x,-y,z
1/2+x,1/2+y,1/2+z
1/2-x,1/2-y,1/2+z
1/2+x,1/2-y,1/2-z
1/2-x,1/2+y,1/2-z
1/2-x,1/2-y,1/2-z
1/2+x,1/2+y,1/2-z
1/2-x,1/2+y,1/2+z
1/2+x,1/2-y,1/2+z
loop_
_atom_site_type_symbol
_atom_site_label
_atom_site_fract_x
_atom_site_fract_y
_atom_site_fract_z
Si Si1 0.914969 0.097749 0.354521
Si Si2 0.186587 0.899396 0.078408
Si Si3 0.163987 0.598896 0.363769
Si Si4 0.083724 0.265218 0.270112
Si Si5 0.916454 0.257978 0.888478
Si Si6 0.417073 0.135399 0.000000
Si Si7 0.417335 0.656086 0.000000
Si Si8 0.915199 0.398927 0.000000
O O1 0.889420 0.169299 0.298127
O O2 0.881825 0.117491 0.430249
O O3 0.000000 0.102353 0.360257
O O4 0.889259 0.000000 0.330423
O O5 0.255066 0.867927 0.122437
O O6 0.121170 0.832845 0.089407
O O7 0.162580 0.000000 0.098383
O O8 0.211511 0.896940 0.000000
O O9 0.166049 0.500000 0.332996
O O10 0.128286 0.659975 0.307456
O O11 0.118498 0.595024 0.433009
O O12 0.100641 0.276126 0.190476
O O13 0.000000 0.278852 0.286392
O O14 0.889818 0.343168 0.932841
O O15 0.000000 0.241506 0.901481
O O16 0.500000 0.109066 0.000000
O O17 0.405523 0.239959 0.000000
O O18 0.500000 0.628950 0.000000
O O19 0.882541 0.500000 0.000000
O O20 0.000000 0.407694 0.000000
#
# Coordination Sequence:
#
# PCOD8291490 Si02
#       8
#    16  16  16  16  16   8   8   8
#     4   9  16  27  44  68 101 141 183 229 279 326
#     4  10  21  38  60  86 114 148 193 241 291 348
#     4  11  22  36  54  80 116 157 194 231 281 340
#     4  10  21  35  53  83 118 150 190 237 284 343
#     4  10  21  38  62  89 113 144 188 238 298 357
#     4  11  19  30  51  78 108 148 197 238 273 321
#     4   9  15  25  44  68  95 135 186 231 266 310
#     4   9  18  35  60  87 111 137 176 228 287 350
#
# _framework density 19.0063
#
# number of rings (size 3 to 8) (size 9 to 14) (size 15 to 20)
#    0.000    2.077    3.077    0.923    0.000    4.615 
#    0.000    3.846    0.000    0.923    0.000    0.000 
#    0.000    0.000    0.000    0.000    0.000    0.000 
#
# Total GULP energy -644656.922401 kJ/mol
# GULP energy per Si atom -12397.248508 kJ/mol
# Density = 1.896304 g / cm^3
# Si number density = 19.006300 Si / 1000 Ang^3
#
#
#
# Elastic Constant Matrix: (Units=GPa)
#
#
# Indices 1 2 3 4 5 6 
#
# 1 47.8802 51.2082 33.2700 0.0000 0.0000 0.0000
# 2 51.2082 137.6489 79.7798 0.0000 0.0000 0.0000
# 3 33.2700 79.7798 132.0660 0.0000 0.0000 0.0000
# 4 0.0000 0.0000 0.0000 18.8866 0.0000 0.0000
# 5 0.0000 0.0000 0.0000 0.0000 24.0855 0.0000
# 6 0.0000 0.0000 0.0000 0.0000 0.0000 23.3191
#
#
#
# Elastic Compliance Matrix: (Units=1/GPa)
#
#
# Indices 1 2 3 4 5 6 
#
# 1 0.034868 -0.012126 -0.001459 0.000000 0.000000 0.000000
# 2 -0.012126 0.015396 -0.006246 0.000000 0.000000 0.000000
# 3 -0.001459 -0.006246 0.011712 0.000000 0.000000 0.000000
# 4 0.000000 0.000000 0.000000 0.052948 0.000000 0.000000
# 5 0.000000 0.000000 0.000000 0.000000 0.041519 0.000000
# 6 0.000000 0.000000 0.000000 0.000000 0.000000 0.042883
#
#
# Mechanical properties :
#
#
# Convention : Reuss Voigt Hill
#
# Bulk Modulus (GPa) = 44.81219 71.79013 58.30116
# Shear Modulus (GPa) = 20.29006 23.48071 21.88539
#
# Velocity S-wave (km/s) = 3.27087 3.51866 3.39703
# Velocity P-wave (km/s) = 6.15577 7.37304 6.79173
#
# Compressibility (1/GPa) = 0.02231536
#
# Stress axis : x y z
#
# Youngs Moduli (GPa) = 28.67945 64.95162 85.37936
#
# Poissons Ratio (x) = 0.78762 0.12453
# Poissons Ratio (y) = 0.34778 0.53326
# Poissons Ratio (z) = 0.04183 0.40567
#
# Static dielectric constant tensor:
#      x y z
#    x 3.136520 0.000000 0.000000 
#    y 0.000000 3.654030 0.000000 
#    z 0.000000 0.000000 3.685540 
# 
# 
# High freq. dielectric constant tensor:
#      x y z
#    x 1.699190 0.000000 0.000000 
#    y 0.000000 1.749670 0.000000 
#    z 0.000000 0.000000 1.739730 
# 
# From -- ./inp_files/47356.got.cif
#   From: 2010.06.25/outbox.cif.g09.slc.cpg/sg71_24_cif.got.tgz:47356.got - 2010.06.28 04:59:45.
