data_PCOD8291124
_publ_section_title
;
Structure prediction by ZEFSAII (Michael W. Deem and Ramdas Pophale) SiO2 
 PCOD8291124
Probable space group: I M M M
;
_chemical_formula_sum "Si O2"
_cell_formula_units_Z 64
_cell_length_a 10.395048
_cell_length_b 17.714212
_cell_length_c 17.107313
_cell_angle_alpha 90.000000
_cell_angle_beta 90.000000
_cell_angle_gamma 90.000000
_cell_volume 3150.142053
_symmetry_space_group_name_H-M "I M M M"
_symmetry_group_IT_number 71
_symmetry_cell_setting 'orthorhombic'
loop_
_space_group_symop_operation_xyz
x,y,z
-x,-y,z
x,-y,-z
-x,y,-z
-x,-y,-z
x,y,-z
-x,y,z
x,-y,z
1/2+x,1/2+y,1/2+z
1/2-x,1/2-y,1/2+z
1/2+x,1/2-y,1/2-z
1/2-x,1/2+y,1/2-z
1/2-x,1/2-y,1/2-z
1/2+x,1/2+y,1/2-z
1/2-x,1/2+y,1/2+z
1/2+x,1/2-y,1/2+z
loop_
_atom_site_type_symbol
_atom_site_label
_atom_site_fract_x
_atom_site_fract_y
_atom_site_fract_z
Si Si1 0.356673 0.326013 0.336866
Si Si2 0.355820 0.167798 0.410203
Si Si3 0.854253 0.913251 0.320558
Si Si4 0.638857 0.917651 0.908869
O O1 0.500000 0.352362 0.361949
O O2 0.343414 0.236486 0.348571
O O3 0.328701 0.354328 0.249426
O O4 0.252401 0.360777 0.393469
O O5 0.332522 0.194179 0.500000
O O6 0.500000 0.133196 0.402478
O O7 0.248745 0.105502 0.388232
O O8 0.000000 0.902390 0.352541
O O9 0.834325 0.000000 0.293109
O O10 0.500000 0.888590 0.875621
O O11 0.669248 0.000000 0.871783
O O12 0.625838 0.926643 0.000000
#
# Coordination Sequence:
#
# PCOD8291124 Si02
#       4
#    16  16  16  16
#     4  10  20  36  58  83 112 144 182 231 284 336
#     4  10  22  39  59  85 115 148 189 234 280 334
#     4  10  22  39  59  85 115 148 189 234 280 334
#     4   9  18  31  47  73 111 151 189 228 272 328
#
# _framework density 20.316544
#
# number of rings (size 3 to 8) (size 9 to 14) (size 15 to 20)
#    0.000    2.250    0.000    3.000    0.000    6.500 
#    0.000    3.750    0.000    0.000    0.000    0.000 
#    0.000    0.000    0.000    0.000    0.000    0.000 
#
# Total GULP energy -396530.734557 kJ/mol
# GULP energy per Si atom -12391.585455 kJ/mol
# Density = 2.027030 g / cm^3
# Si number density = 20.316544 Si / 1000 Ang^3
#
#
#
# Elastic Constant Matrix: (Units=GPa)
#
#
# Indices 1 2 3 4 5 6 
#
# 1 145.7668 55.3331 45.3288 0.0000 0.0000 0.0000
# 2 55.3331 68.3267 35.4215 0.0000 0.0000 0.0000
# 3 45.3288 35.4215 66.8995 0.0000 0.0000 0.0000
# 4 0.0000 0.0000 0.0000 21.7683 0.0000 0.0000
# 5 0.0000 0.0000 0.0000 0.0000 32.8684 0.0000
# 6 0.0000 0.0000 0.0000 0.0000 0.0000 -1.1126
#
#
#
# Elastic Compliance Matrix: (Units=1/GPa)
#
#
# Indices 1 2 3 4 5 6 
#
# 1 0.010499 -0.006636 -0.003600 0.000000 0.000000 0.000000
# 2 -0.006636 0.024367 -0.008405 0.000000 0.000000 0.000000
# 3 -0.003600 -0.008405 0.021838 0.000000 0.000000 0.000000
# 4 0.000000 0.000000 0.000000 0.045938 0.000000 0.000000
# 5 0.000000 0.000000 0.000000 0.000000 0.030424 0.000000
# 6 0.000000 0.000000 0.000000 0.000000 0.000000 -0.898797
#
#
# Mechanical properties :
#
#
# Convention : Reuss Voigt Hill
#
# Bulk Modulus (GPa) = 51.49195 61.46221 56.47708
# Shear Modulus (GPa) = -6.92545 20.36546 6.72001
#
# Velocity S-wave (km/s) = -1.84829 3.16952 1.82067
# Velocity P-wave (km/s) = 4.56563 6.61154 5.68143
#
# Compressibility (1/GPa) = 0.01942051
#
# Stress axis : x y z
#
# Youngs Moduli (GPa) = 95.24928 41.03907 45.79272
#
# Poissons Ratio (x) = 0.27233 0.16486
# Poissons Ratio (y) = 0.63206 0.38491
# Poissons Ratio (z) = 0.34290 0.34495
#
# Static dielectric constant tensor:
#      x y z
#    x 4.009460 0.000000 0.000000 
#    y 0.000000 3.527000 0.000000 
#    z 0.000000 0.000000 3.325150 
# 
# 
# High freq. dielectric constant tensor:
#      x y z
#    x 1.816350 0.000000 0.000000 
#    y 0.000000 1.778760 0.000000 
#    z 0.000000 0.000000 1.769030 
# 
# From -- ./inp_files/7474.got.cif
#   From: 2010.06.25/outbox.cif.g09.slc.cpg/sg71_4_cif.got.tgz:7474.got - 2010.06.28 04:59:45.
