data_PCOD8291156
_publ_section_title
;
Structure prediction by ZEFSAII (Michael W. Deem and Ramdas Pophale) SiO2 
 PCOD8291156
Probable space group: I M M M
;
_chemical_formula_sum "Si O2"
_cell_formula_units_Z 104
_cell_length_a 27.736422
_cell_length_b 8.930572
_cell_length_c 21.875881
_cell_angle_alpha 90.000000
_cell_angle_beta 90.000000
_cell_angle_gamma 90.000000
_cell_volume 5418.701963
_symmetry_space_group_name_H-M "I M M M"
_symmetry_group_IT_number 71
_symmetry_cell_setting 'orthorhombic'
loop_
_space_group_symop_operation_xyz
x,y,z
-x,-y,z
x,-y,-z
-x,y,-z
-x,-y,-z
x,y,-z
-x,y,z
x,-y,z
1/2+x,1/2+y,1/2+z
1/2-x,1/2-y,1/2+z
1/2+x,1/2-y,1/2-z
1/2-x,1/2+y,1/2-z
1/2-x,1/2-y,1/2-z
1/2+x,1/2+y,1/2-z
1/2-x,1/2+y,1/2+z
1/2+x,1/2-y,1/2+z
loop_
_atom_site_type_symbol
_atom_site_label
_atom_site_fract_x
_atom_site_fract_y
_atom_site_fract_z
Si Si1 0.000000 0.168335 0.072681
Si Si2 0.359304 0.176750 0.202428
Si Si3 0.325822 0.177141 0.666879
Si Si4 0.703760 0.677793 0.000000
Si Si5 0.404490 0.824841 0.430614
Si Si6 0.769176 0.322041 0.376393
Si Si7 0.907117 0.177006 0.500000
Si Si8 0.054696 0.325167 0.620545
O O1 0.047985 0.248076 0.097533
O O2 0.000000 0.000000 0.097017
O O3 0.000000 0.178639 0.000000
O O4 0.352530 0.233807 0.271624
O O5 0.316210 0.235582 0.159670
O O6 0.410154 0.233458 0.174612
O O7 0.358324 0.000000 0.203069
O O8 0.358903 0.222054 0.609632
O O9 0.276513 0.267936 0.662188
O O10 0.315049 0.000000 0.668555
O O11 0.731430 0.743505 0.058061
O O12 0.648282 0.731674 0.000000
O O13 0.708750 0.500000 0.000000
O O14 0.394124 0.771865 0.500000
O O15 0.414174 0.000000 0.427549
O O16 0.768259 0.500000 0.384254
O O17 0.934451 0.237523 0.441137
O O18 0.910082 0.000000 0.500000
O O19 0.063416 0.500000 0.607337
O O20 0.000000 0.293538 0.641490
#
# Coordination Sequence:
#
# PCOD8291156 Si02
#       8
#     8  16  16   8  16  16   8  16
#     4   9  17  31  53  77 103 137 175 220 271 326
#     4   9  19  37  57  81 113 150 192 234 279 333
#     4  10  21  37  57  83 115 150 189 233 280 337
#     4  11  23  38  58  85 114 151 193 236 291 348
#     4   9  18  33  53  78 108 142 180 225 274 327
#     4  11  22  37  59  84 113 148 187 235 287 339
#     4  11  22  36  57  86 118 150 189 239 293 348
#     4  10  20  36  59  84 114 153 196 241 288 342
#
# _framework density 19.192788
#
# number of rings (size 3 to 8) (size 9 to 14) (size 15 to 20)
#    0.000    2.077    1.538    1.846    1.077    3.385 
#    1.385    1.538    0.000    0.000    0.000    0.000 
#    0.000    0.000    0.000    0.000    0.000    0.000 
#
# Total GULP energy -644907.387818 kJ/mol
# GULP energy per Si atom -12402.065150 kJ/mol
# Density = 1.914910 g / cm^3
# Si number density = 19.192788 Si / 1000 Ang^3
#
#
#
# Elastic Constant Matrix: (Units=GPa)
#
#
# Indices 1 2 3 4 5 6 
#
# 1 146.5953 38.2118 66.8599 0.0000 0.0000 0.0000
# 2 38.2118 49.9521 29.2500 0.0000 0.0000 0.0000
# 3 66.8599 29.2500 129.4935 0.0000 0.0000 0.0000
# 4 0.0000 0.0000 0.0000 14.0348 0.0000 0.0000
# 5 0.0000 0.0000 0.0000 0.0000 21.0682 0.0000
# 6 0.0000 0.0000 0.0000 0.0000 0.0000 29.1450
#
#
#
# Elastic Compliance Matrix: (Units=1/GPa)
#
#
# Indices 1 2 3 4 5 6 
#
# 1 0.010025 -0.005345 -0.003969 0.000000 0.000000 0.000000
# 2 -0.005345 0.025920 -0.003095 0.000000 0.000000 0.000000
# 3 -0.003969 -0.003095 0.010471 0.000000 0.000000 0.000000
# 4 0.000000 0.000000 0.000000 0.071252 0.000000 0.000000
# 5 0.000000 0.000000 0.000000 0.000000 0.047465 0.000000
# 6 0.000000 0.000000 0.000000 0.000000 0.000000 0.034311
#
#
# Mechanical properties :
#
#
# Convention : Reuss Voigt Hill
#
# Bulk Modulus (GPa) = 46.30009 66.07603 56.18806
# Shear Modulus (GPa) = 21.60199 25.63087 23.61643
#
# Velocity S-wave (km/s) = 3.35853 3.65834 3.51163
# Velocity P-wave (km/s) = 6.26224 7.23511 6.76618
#
# Compressibility (1/GPa) = 0.02159823
#
# Stress axis : x y z
#
# Youngs Moduli (GPa) = 99.75342 38.57998 95.50482
#
# Poissons Ratio (x) = 0.20620 0.37903
# Poissons Ratio (y) = 0.53315 0.29562
# Poissons Ratio (z) = 0.39589 0.11942
#
# Static dielectric constant tensor:
#      x y z
#    x 3.688580 0.000000 0.000000 
#    y 0.000000 3.307810 0.000000 
#    z 0.000000 0.000000 3.632900 
# 
# 
# High freq. dielectric constant tensor:
#      x y z
#    x 1.756880 0.000000 0.000000 
#    y 0.000000 1.727940 0.000000 
#    z 0.000000 0.000000 1.742720 
# 
# From -- ./inp_files/56328.got.cif
#   From: 2010.06.25/outbox.cif.g09.slc.cpg/sg71_29_cif.got.tgz:56328.got - 2010.06.28 04:59:45.
