data_PCOD8291894
_publ_section_title
;
Structure prediction by ZEFSAII (Michael W. Deem and Ramdas Pophale) SiO2 
 PCOD8291894
Probable space group: I M M M
;
_chemical_formula_sum "Si O2"
_cell_formula_units_Z 72
_cell_length_a 8.579564
_cell_length_b 28.697914
_cell_length_c 14.693386
_cell_angle_alpha 90.000000
_cell_angle_beta 90.000000
_cell_angle_gamma 90.000000
_cell_volume 3617.740701
_symmetry_space_group_name_H-M "I M M M"
_symmetry_group_IT_number 71
_symmetry_cell_setting 'orthorhombic'
loop_
_space_group_symop_operation_xyz
x,y,z
-x,-y,z
x,-y,-z
-x,y,-z
-x,-y,-z
x,y,-z
-x,y,z
x,-y,z
1/2+x,1/2+y,1/2+z
1/2-x,1/2-y,1/2+z
1/2+x,1/2-y,1/2-z
1/2-x,1/2+y,1/2-z
1/2-x,1/2-y,1/2-z
1/2+x,1/2+y,1/2-z
1/2-x,1/2+y,1/2+z
1/2+x,1/2-y,1/2+z
loop_
_atom_site_type_symbol
_atom_site_label
_atom_site_fract_x
_atom_site_fract_y
_atom_site_fract_z
Si Si1 0.172255 0.050934 0.607102
Si Si2 0.680097 0.204692 0.000000
Si Si3 0.682795 0.194502 0.500000
Si Si4 0.821477 0.637446 0.827455
Si Si5 0.316940 0.552912 0.500000
Si Si6 0.818488 0.866383 0.866858
O O1 0.173759 0.047466 0.500000
O O2 0.309949 0.084516 0.638725
O O3 0.000000 0.068248 0.639802
O O4 0.205154 0.000000 0.649401
O O5 0.720804 0.175030 0.088546
O O6 0.500000 0.218513 0.000000
O O7 0.779477 0.251553 0.000000
O O8 0.500000 0.185397 0.500000
O O9 0.748344 0.170757 0.592799
O O10 0.713740 0.639544 0.739118
O O11 0.000000 0.649687 0.803670
O O12 0.242010 0.500000 0.500000
O O13 0.500000 0.546043 0.500000
O O14 0.267205 0.583291 0.589824
O O15 0.000000 0.858493 0.887576
#
# Coordination Sequence:
#
# PCOD8291894 Si02
#       6
#    16   8   8  16   8  16
#     4   9  18  33  53  77 109 151 195 235 278 335
#     4  11  23  41  64  87 110 144 190 243 296 348
#     4  10  23  41  59  81 114 153 192 238 292 355
#     4  11  22  37  57  85 118 153 194 242 293 345
#     4   8  16  34  60  87 113 146 189 232 276 329
#     4  10  21  38  61  87 118 154 189 235 292 348
#
# _framework density 19.901924000000001
#
# number of rings (size 3 to 8) (size 9 to 14) (size 15 to 20)
#    0.000    2.111    1.111    3.667    0.000    4.000 
#    0.000    3.333    0.000   11.333    0.000    0.000 
#    0.000    0.000    0.000    0.000    0.000    0.000 
#
# Total GULP energy -446162.833096 kJ/mol
# GULP energy per Si atom -12393.412030 kJ/mol
# Density = 1.985663 g / cm^3
# Si number density = 19.901924 Si / 1000 Ang^3
#
#
#
# Elastic Constant Matrix: (Units=GPa)
#
#
# Indices 1 2 3 4 5 6 
#
# 1 32.9509 7.5188 13.2528 0.0002 0.0000 0.0000
# 2 7.5188 129.6911 56.5159 0.0004 0.0000 0.0000
# 3 13.2528 56.5159 119.9736 0.0009 0.0001 0.0000
# 4 0.0002 0.0004 0.0009 8.9196 0.0001 0.0000
# 5 0.0000 0.0000 0.0001 0.0001 28.7387 0.0000
# 6 0.0000 0.0000 0.0000 0.0000 0.0000 27.4173
#
#
#
# Elastic Compliance Matrix: (Units=1/GPa)
#
#
# Indices 1 2 3 4 5 6 
#
# 1 0.031775 -0.000393 -0.003325 0.000000 0.000000 0.000000
# 2 -0.000393 0.009707 -0.004529 0.000000 0.000000 0.000000
# 3 -0.003325 -0.004529 0.010836 -0.000001 0.000000 0.000000
# 4 0.000000 0.000000 -0.000001 0.112112 0.000000 0.000000
# 5 0.000000 0.000000 0.000000 0.000000 0.034796 0.000000
# 6 0.000000 0.000000 0.000000 0.000000 0.000000 0.036473
#
#
# Mechanical properties :
#
#
# Convention : Reuss Voigt Hill
#
# Bulk Modulus (GPa) = 27.91452 48.57673 38.24562
# Shear Modulus (GPa) = 18.92964 26.70367 22.81665
#
# Velocity S-wave (km/s) = 3.08741 3.66698 3.38961
# Velocity P-wave (km/s) = 5.17358 6.51076 5.88031
#
# Compressibility (1/GPa) = 0.03582365
#
# Stress axis : x y z
#
# Youngs Moduli (GPa) = 31.47114 103.01649 92.28446
#
# Poissons Ratio (x) = 0.04052 0.30682
# Poissons Ratio (y) = 0.01238 0.41799
# Poissons Ratio (z) = 0.10463 0.46659
#
# Static dielectric constant tensor:
#      x y z
#    x 3.415910 0.000000 0.000000 
#    y 0.000000 3.820680 0.000000 
#    z 0.000000 0.000000 3.822130 
# 
# 
# High freq. dielectric constant tensor:
#      x y z
#    x 1.757810 0.000000 0.000000 
#    y 0.000000 1.778190 0.000000 
#    z 0.000000 0.000000 1.774900 
# 
# From -- ./inp_files/31464.got.cif
#   From: 2010.06.25/outbox.cif.g09.slc.cpg/sg71_16_cif.got.tgz:31464.got - 2010.06.28 04:59:45.
