data_PCOD8291589
_publ_section_title
;
Structure prediction by ZEFSAII (Michael W. Deem and Ramdas Pophale) SiO2 
 PCOD8291589
Probable space group: I M M M
;
_chemical_formula_sum "Si O2"
_cell_formula_units_Z 104
_cell_length_a 19.472399
_cell_length_b 31.941483
_cell_length_c 8.149545
_cell_angle_alpha 90.000000
_cell_angle_beta 90.000000
_cell_angle_gamma 90.000000
_cell_volume 5068.832009
_symmetry_space_group_name_H-M "I M M M"
_symmetry_group_IT_number 71
_symmetry_cell_setting 'orthorhombic'
loop_
_space_group_symop_operation_xyz
x,y,z
-x,-y,z
x,-y,-z
-x,y,-z
-x,-y,-z
x,y,-z
-x,y,z
x,-y,z
1/2+x,1/2+y,1/2+z
1/2-x,1/2-y,1/2+z
1/2+x,1/2-y,1/2-z
1/2-x,1/2+y,1/2-z
1/2-x,1/2-y,1/2-z
1/2+x,1/2+y,1/2-z
1/2-x,1/2+y,1/2+z
1/2+x,1/2-y,1/2+z
loop_
_atom_site_type_symbol
_atom_site_label
_atom_site_fract_x
_atom_site_fract_y
_atom_site_fract_z
Si Si1 0.787963 0.546183 0.190698
Si Si2 0.787211 0.291065 0.189686
Si Si3 0.209364 0.128000 0.303154
Si Si4 0.578037 0.401308 0.686659
Si Si5 0.577415 0.084458 0.807015
Si Si6 0.924352 0.320670 0.693854
Si Si7 0.419559 0.454990 0.000000
O O1 0.770143 0.500000 0.266696
O O2 0.743186 0.584559 0.265127
O O3 0.868807 0.554610 0.216902
O O4 0.772002 0.544889 0.000000
O O5 0.750000 0.250000 0.250000
O O6 0.754194 0.333319 0.264852
O O7 0.867849 0.289401 0.232137
O O8 0.775609 0.293395 0.000000
O O9 0.202145 0.127799 0.500000
O O10 0.134588 0.134817 0.215747
O O11 0.582519 0.419497 0.500000
O O12 0.500000 0.385363 0.719694
O O13 0.602078 0.433809 0.828385
O O14 0.500000 0.069860 0.763377
O O15 0.588647 0.132022 0.744338
O O16 0.589970 0.081732 0.000000
O O17 0.919996 0.319200 0.500000
O O18 0.000000 0.305657 0.752138
O O19 0.382621 0.500000 0.000000
O O20 0.500000 0.460208 0.000000
#
# Coordination Sequence:
#
# PCOD8291589 Si02
#       7
#    16  16  16  16  16  16   8
#     4  10  21  36  54  80 115 153 196 243 288 343
#     4  11  23  39  62  91 121 155 197 244 297 360
#     4  10  21  39  59  84 116 157 196 242 306 366
#     4  10  21  37  60  88 115 153 204 250 303 370
#     4   9  18  33  54  80 112 153 197 242 289 338
#     4   9  18  35  60  87 117 155 198 243 294 350
#     4   9  18  34  56  82 118 158 195 249 305 351
#
# _framework density 20.517545999999999
#
# number of rings (size 3 to 8) (size 9 to 14) (size 15 to 20)
#    0.000    2.231    2.308    1.385    0.000    4.000 
#    0.000    5.385    0.000    0.923    0.000    0.000 
#    0.000    0.000    0.000    0.000    0.000    0.000 
#
# Total GULP energy -644336.280340 kJ/mol
# GULP energy per Si atom -12391.082314 kJ/mol
# Density = 2.047085 g / cm^3
# Si number density = 20.517546 Si / 1000 Ang^3
#
#
#
# Elastic Constant Matrix: (Units=GPa)
#
#
# Indices 1 2 3 4 5 6 
#
# 1 139.6249 73.2009 23.8826 0.0015 0.0007 0.0009
# 2 73.2009 125.6703 25.2693 0.0002 0.0016 0.0003
# 3 23.8826 25.2693 58.3717 0.0062 0.0366 0.0008
# 4 0.0015 0.0002 0.0062 20.3964 0.0046 0.0005
# 5 0.0007 0.0016 0.0366 0.0046 33.5890 0.0014
# 6 0.0009 0.0003 0.0008 0.0005 0.0014 27.2544
#
#
#
# Elastic Compliance Matrix: (Units=1/GPa)
#
#
# Indices 1 2 3 4 5 6 
#
# 1 0.010481 -0.005743 -0.001802 0.000000 0.000002 0.000000
# 2 -0.005743 0.011862 -0.002786 0.000001 0.000003 0.000000
# 3 -0.001802 -0.002786 0.019075 -0.000006 -0.000021 0.000000
# 4 0.000000 0.000001 -0.000006 0.049028 -0.000007 -0.000001
# 5 0.000002 0.000003 -0.000021 -0.000007 0.029772 -0.000002
# 6 0.000000 0.000000 0.000000 -0.000001 -0.000002 0.036691
#
#
# Mechanical properties :
#
#
# Convention : Reuss Voigt Hill
#
# Bulk Modulus (GPa) = 48.17613 63.15251 55.66432
# Shear Modulus (GPa) = 27.10176 29.66891 28.38534
#
# Velocity S-wave (km/s) = 3.63837 3.80679 3.72353
# Velocity P-wave (km/s) = 6.41730 7.08299 6.75835
#
# Compressibility (1/GPa) = 0.02075717
#
# Stress axis : x y z
#
# Youngs Moduli (GPa) = 95.41079 84.29967 52.42481
#
# Poissons Ratio (x) = 0.48410 0.09448
# Poissons Ratio (y) = 0.54791 0.14604
# Poissons Ratio (z) = 0.17196 0.23483
#
# Static dielectric constant tensor:
#      x y z
#    x 4.137160 -0.000020 -0.000030 
#    y -0.000020 3.608480 0.000000 
#    z -0.000030 0.000000 3.538840 
# 
# 
# High freq. dielectric constant tensor:
#      x y z
#    x 1.823090 0.000000 0.000000 
#    y 0.000000 1.766830 0.000000 
#    z 0.000000 0.000000 1.789030 
# 
# From -- ./inp_files/11120.got.cif
#   From: 2010.06.25/outbox.cif.g09.slc.cpg/sg71_6_cif.got.tgz:11120.got - 2010.06.28 04:59:45.
