data_PCOD8291502
_publ_section_title
;
Structure prediction by ZEFSAII (Michael W. Deem and Ramdas Pophale) SiO2 
 PCOD8291502
Probable space group: I M M M
;
_chemical_formula_sum "Si O2"
_cell_formula_units_Z 88
_cell_length_a 13.005522
_cell_length_b 16.872856
_cell_length_c 21.119957
_cell_angle_alpha 90.000000
_cell_angle_beta 90.000000
_cell_angle_gamma 90.000000
_cell_volume 4634.569698
_symmetry_space_group_name_H-M "I M M M"
_symmetry_group_IT_number 71
_symmetry_cell_setting 'orthorhombic'
loop_
_space_group_symop_operation_xyz
x,y,z
-x,-y,z
x,-y,-z
-x,y,-z
-x,-y,-z
x,y,-z
-x,y,z
x,-y,z
1/2+x,1/2+y,1/2+z
1/2-x,1/2-y,1/2+z
1/2+x,1/2-y,1/2-z
1/2-x,1/2+y,1/2-z
1/2-x,1/2-y,1/2-z
1/2+x,1/2+y,1/2-z
1/2-x,1/2+y,1/2+z
1/2+x,1/2-y,1/2+z
loop_
_atom_site_type_symbol
_atom_site_label
_atom_site_fract_x
_atom_site_fract_y
_atom_site_fract_z
Si Si1 0.704148 0.591114 0.925514
Si Si2 0.748270 0.168815 0.886315
Si Si3 0.384350 0.699574 0.171724
Si Si4 0.881318 0.910357 0.787013
Si Si5 0.388169 0.193496 0.427219
Si Si6 0.620985 0.093700 0.000000
O O1 0.693338 0.500000 0.907057
O O2 0.618074 0.642091 0.889700
O O3 0.815154 0.623186 0.901130
O O4 0.689210 0.605713 0.000000
O O5 0.684353 0.222722 0.837311
O O6 0.807875 0.101253 0.847546
O O7 0.834826 0.221617 0.919895
O O8 0.672667 0.130234 0.937548
O O9 0.500000 0.728743 0.181714
O O10 0.345773 0.650022 0.232328
O O11 0.000000 0.895233 0.806137
O O12 0.866918 0.000000 0.762327
O O13 0.407145 0.176867 0.500000
O O14 0.500000 0.191719 0.392419
O O15 0.500000 0.115140 0.000000
O O16 0.638529 0.000000 0.000000
#
# Coordination Sequence:
#
# PCOD8291502 Si02
#       6
#    16  16  16  16  16   8
#     4   9  18  31  48  75 109 146 188 232 280 331
#     4  11  20  37  57  82 109 148 185 229 276 336
#     4  10  21  35  55  80 110 147 189 234 278 329
#     4  10  21  37  57  82 111 145 185 231 283 334
#     4   9  17  30  49  74 104 139 176 221 273 322
#     4  11  24  40  59  85 116 147 183 229 281 335
#
# _framework density 18.987739999999999
#
# number of rings (size 3 to 8) (size 9 to 14) (size 15 to 20)
#    0.000    2.091    0.909    2.727    1.273    1.818 
#    0.000    2.727    0.000    3.273    0.000    0.000 
#    0.000    0.000    0.000    0.000    0.000    0.000 
#
# Total GULP energy -545479.596665 kJ/mol
# GULP energy per Si atom -12397.263561 kJ/mol
# Density = 1.894452 g / cm^3
# Si number density = 18.987740 Si / 1000 Ang^3
#
#
#
# Elastic Constant Matrix: (Units=GPa)
#
#
# Indices 1 2 3 4 5 6 
#
# 1 84.0877 27.9848 40.3267 0.0000 0.0000 0.0000
# 2 27.9848 84.6170 31.8572 0.0000 0.0000 0.0000
# 3 40.3267 31.8572 76.1122 0.0000 0.0000 0.0000
# 4 0.0000 0.0000 0.0000 30.7853 0.0000 0.0000
# 5 0.0000 0.0000 0.0000 0.0000 28.1594 0.0000
# 6 0.0000 0.0000 0.0000 0.0000 0.0000 23.6347
#
#
#
# Elastic Compliance Matrix: (Units=1/GPa)
#
#
# Indices 1 2 3 4 5 6 
#
# 1 0.016396 -0.002554 -0.007618 0.000000 0.000000 0.000000
# 2 -0.002554 0.014427 -0.004685 0.000000 0.000000 0.000000
# 3 -0.007618 -0.004685 0.019136 0.000000 0.000000 0.000000
# 4 0.000000 0.000000 0.000000 0.032483 0.000000 0.000000
# 5 0.000000 0.000000 0.000000 0.000000 0.035512 0.000000
# 6 0.000000 0.000000 0.000000 0.000000 0.000000 0.042311
#
#
# Mechanical properties :
#
#
# Convention : Reuss Voigt Hill
#
# Bulk Modulus (GPa) = 49.39839 49.46158 49.42998
# Shear Modulus (GPa) = 25.41607 26.15912 25.78760
#
# Velocity S-wave (km/s) = 3.66259 3.71574 3.68926
# Velocity P-wave (km/s) = 6.63012 6.67194 6.65106
#
# Compressibility (1/GPa) = 0.02024358
#
# Stress axis : x y z
#
# Youngs Moduli (GPa) = 60.99112 69.31654 52.25872
#
# Poissons Ratio (x) = 0.17707 0.39810
# Poissons Ratio (y) = 0.15580 0.24483
# Poissons Ratio (z) = 0.46462 0.32474
#
# Static dielectric constant tensor:
#      x y z
#    x 3.864610 0.000000 0.000000 
#    y 0.000000 3.427420 0.000000 
#    z 0.000000 0.000000 3.352770 
# 
# 
# High freq. dielectric constant tensor:
#      x y z
#    x 1.743530 0.000000 0.000000 
#    y 0.000000 1.736890 0.000000 
#    z 0.000000 0.000000 1.724630 
# 
# From -- ./inp_files/23960.got.cif
#   From: 2010.06.25/outbox.cif.g09.slc.cpg/sg71_12_cif.got.tgz:23960.got - 2010.06.28 04:59:45.
