data_PCOD8291648
_publ_section_title
;
Structure prediction by ZEFSAII (Michael W. Deem and Ramdas Pophale) SiO2 
 PCOD8291648
Probable space group: I M M M
;
_chemical_formula_sum "Si O2"
_cell_formula_units_Z 72
_cell_length_a 8.884636
_cell_length_b 29.111185
_cell_length_c 13.956020
_cell_angle_alpha 90.000000
_cell_angle_beta 90.000000
_cell_angle_gamma 90.000000
_cell_volume 3609.616864
_symmetry_space_group_name_H-M "I M M M"
_symmetry_group_IT_number 71
_symmetry_cell_setting 'orthorhombic'
loop_
_space_group_symop_operation_xyz
x,y,z
-x,-y,z
x,-y,-z
-x,y,-z
-x,-y,-z
x,y,-z
-x,y,z
x,-y,z
1/2+x,1/2+y,1/2+z
1/2-x,1/2-y,1/2+z
1/2+x,1/2-y,1/2-z
1/2-x,1/2+y,1/2-z
1/2-x,1/2-y,1/2-z
1/2+x,1/2+y,1/2-z
1/2-x,1/2+y,1/2+z
1/2+x,1/2-y,1/2+z
loop_
_atom_site_type_symbol
_atom_site_label
_atom_site_fract_x
_atom_site_fract_y
_atom_site_fract_z
Si Si1 0.321768 0.087989 0.799361
Si Si2 0.331699 0.500000 0.387462
Si Si3 0.678478 0.051304 0.603276
Si Si4 0.824449 0.182089 0.798124
Si Si5 0.174559 0.232967 0.391199
O O1 0.500000 0.086852 0.811255
O O2 0.267265 0.083903 0.688651
O O3 0.259489 0.136559 0.834847
O O4 0.256055 0.045697 0.857910
O O5 0.500000 0.500000 0.342974
O O6 0.341953 0.500000 0.500000
O O7 0.737204 0.069884 0.500000
O O8 0.500000 0.048857 0.602547
O O9 0.741934 0.000000 0.621397
O O10 0.783891 0.193710 0.686779
O O11 0.773464 0.222493 0.868654
O O12 0.000000 0.173985 0.811392
O O13 0.209781 0.215969 0.500000
O O14 0.000000 0.246562 0.379968
#
# Coordination Sequence:
#
# PCOD8291648 Si02
#       5
#    16   8  16  16  16
#     4  11  21  36  59  85 113 149 190 231 275 330
#     4  11  25  43  60  79 108 148 193 241 288 327
#     4   8  14  27  49  77 107 138 175 219 265 315
#     4  10  21  36  56  85 117 148 183 230 284 336
#     4   9  19  38  61  83 111 148 188 231 279 334
#
# _framework density 19.946715000000001
#
# number of rings (size 3 to 8) (size 9 to 14) (size 15 to 20)
#    0.000    2.333    1.111    2.333    0.000    4.000 
#    0.000    0.000    0.000    2.667    0.000    0.000 
#    0.000    0.000    0.000    0.000    0.000    0.000 
#
# Total GULP energy -446238.128013 kJ/mol
# GULP energy per Si atom -12395.503556 kJ/mol
# Density = 1.990132 g / cm^3
# Si number density = 19.946715 Si / 1000 Ang^3
#
#
#
# Elastic Constant Matrix: (Units=GPa)
#
#
# Indices 1 2 3 4 5 6 
#
# 1 87.6559 49.6522 26.2120 -0.0001 0.0000 0.0000
# 2 49.6522 115.3103 17.9113 -0.0001 0.0000 0.0000
# 3 26.2120 17.9113 70.8993 -0.0004 0.0000 0.0001
# 4 -0.0001 -0.0001 -0.0004 11.0040 0.0000 0.0001
# 5 0.0000 0.0000 0.0000 0.0000 23.9356 -0.0001
# 6 0.0000 0.0000 0.0001 0.0001 -0.0001 21.1579
#
#
#
# Elastic Compliance Matrix: (Units=1/GPa)
#
#
# Indices 1 2 3 4 5 6 
#
# 1 0.016326 -0.006341 -0.004434 0.000000 0.000000 0.000000
# 2 -0.006341 0.011489 -0.000558 0.000000 0.000000 0.000000
# 3 -0.004434 -0.000558 0.015885 0.000001 0.000000 0.000000
# 4 0.000000 0.000000 0.000001 0.090876 0.000000 0.000000
# 5 0.000000 0.000000 0.000000 0.000000 0.041779 0.000000
# 6 0.000000 0.000000 0.000000 0.000000 0.000000 0.047264
#
#
# Mechanical properties :
#
#
# Convention : Reuss Voigt Hill
#
# Bulk Modulus (GPa) = 47.54274 51.26851 49.40563
# Shear Modulus (GPa) = 19.73968 23.22550 21.48259
#
# Velocity S-wave (km/s) = 3.14924 3.41600 3.28533
# Velocity P-wave (km/s) = 6.09181 6.42785 6.26209
#
# Compressibility (1/GPa) = 0.02103371
#
# Stress axis : x y z
#
# Youngs Moduli (GPa) = 61.25165 87.03622 62.95338
#
# Poissons Ratio (x) = 0.55192 0.27913
# Poissons Ratio (y) = 0.38841 0.03514
# Poissons Ratio (z) = 0.27158 0.04858
#
# Static dielectric constant tensor:
#      x y z
#    x 3.475230 0.000000 0.000000 
#    y 0.000000 3.470160 0.000000 
#    z 0.000000 0.000000 3.921080 
# 
# 
# High freq. dielectric constant tensor:
#      x y z
#    x 1.763250 0.000000 0.000000 
#    y 0.000000 1.768370 0.000000 
#    z 0.000000 0.000000 1.783140 
# 
# From -- ./inp_files/6017.got.cif
#   From: 2010.06.25/outbox.cif.g09.slc.cpg/sg71_4_cif.got.tgz:6017.got - 2010.06.28 04:59:45.
