data_PCOD8291134
_publ_section_title
;
Structure prediction by ZEFSAII (Michael W. Deem and Ramdas Pophale) SiO2 
 PCOD8291134
Probable space group: I M M M
;
_chemical_formula_sum "Si O2"
_cell_formula_units_Z 120
_cell_length_a 29.798590
_cell_length_b 15.183057
_cell_length_c 13.731965
_cell_angle_alpha 90.000000
_cell_angle_beta 90.000000
_cell_angle_gamma 90.000000
_cell_volume 6212.803603
_symmetry_space_group_name_H-M "I M M M"
_symmetry_group_IT_number 71
_symmetry_cell_setting 'orthorhombic'
loop_
_space_group_symop_operation_xyz
x,y,z
-x,-y,z
x,-y,-z
-x,y,-z
-x,-y,-z
x,y,-z
-x,y,z
x,-y,z
1/2+x,1/2+y,1/2+z
1/2-x,1/2-y,1/2+z
1/2+x,1/2-y,1/2-z
1/2-x,1/2+y,1/2-z
1/2-x,1/2-y,1/2-z
1/2+x,1/2+y,1/2-z
1/2-x,1/2+y,1/2+z
1/2+x,1/2-y,1/2+z
loop_
_atom_site_type_symbol
_atom_site_label
_atom_site_fract_x
_atom_site_fract_y
_atom_site_fract_z
Si Si1 0.374131 0.326861 0.115036
Si Si2 0.049486 0.901467 0.747357
Si Si3 0.791579 0.901410 0.725334
Si Si4 0.109319 0.353097 0.719803
Si Si5 0.681937 0.287319 0.397122
Si Si6 0.189738 0.404854 0.838146
Si Si7 0.447000 0.000000 0.114658
Si Si8 0.417460 0.265507 0.611627
O O1 0.414463 0.379756 0.164635
O O2 0.326049 0.368397 0.143186
O O3 0.376742 0.226868 0.150391
O O4 0.379745 0.332641 0.000000
O O5 0.049451 0.836231 0.840329
O O6 0.000000 0.893775 0.699776
O O7 0.058465 0.000000 0.785839
O O8 0.789644 0.831822 0.813257
O O9 0.741528 0.901745 0.688348
O O10 0.805538 0.000000 0.759328
O O11 0.156068 0.401885 0.745321
O O12 0.074699 0.413970 0.662492
O O13 0.084780 0.321655 0.820125
O O14 0.701332 0.321253 0.500000
O O15 0.681315 0.180710 0.403093
O O16 0.630392 0.315454 0.384574
O O17 0.181038 0.500000 0.890845
O O18 0.500000 0.000000 0.135573
O O19 0.436879 0.000000 0.000000
O O20 0.431454 0.241390 0.500000
#
# Coordination Sequence:
#
# PCOD8291134 Si02
#       8
#    16  16  16  16  16  16   8  16
#     4  11  23  39  60  85 117 157 201 250 305 364
#     4  10  21  37  57  82 113 152 196 242 294 352
#     4  11  22  37  58  86 122 160 202 251 303 360
#     4  10  20  40  63  86 120 158 199 248 310 364
#     4  10  20  36  58  84 117 156 197 240 296 361
#     4  10  20  37  61  84 120 160 198 249 305 365
#     4  11  24  42  67  97 125 159 208 264 320 377
#     4   9  19  36  58  85 115 151 192 238 294 358
#
# _framework density 19.314951000000001
#
# number of rings (size 3 to 8) (size 9 to 14) (size 15 to 20)
#    0.000    1.800    4.667    1.200    0.000    5.067 
#    0.000    5.000    0.000    0.400    0.000    0.000 
#    0.000    0.000    0.000    0.000    0.000    0.000 
#
# Total GULP energy -743475.280858 kJ/mol
# GULP energy per Si atom -12391.254681 kJ/mol
# Density = 1.927099 g / cm^3
# Si number density = 19.314951 Si / 1000 Ang^3
#
#
#
# Elastic Constant Matrix: (Units=GPa)
#
#
# Indices 1 2 3 4 5 6 
#
# 1 116.9245 43.3346 42.4325 0.0000 0.0000 0.0000
# 2 43.3346 112.9606 41.4584 0.0000 0.0000 0.0000
# 3 42.4325 41.4584 133.5796 0.0000 0.0000 0.0000
# 4 0.0000 0.0000 0.0000 10.1139 0.0000 0.0000
# 5 0.0000 0.0000 0.0000 0.0000 8.3104 0.0000
# 6 0.0000 0.0000 0.0000 0.0000 0.0000 27.3861
#
#
#
# Elastic Compliance Matrix: (Units=1/GPa)
#
#
# Indices 1 2 3 4 5 6 
#
# 1 0.010598 -0.003194 -0.002375 0.000000 0.000000 0.000000
# 2 -0.003194 0.010953 -0.002385 0.000000 0.000000 0.000000
# 3 -0.002375 -0.002385 0.008981 0.000000 0.000000 0.000000
# 4 0.000000 0.000000 0.000000 0.098874 0.000000 0.000000
# 5 0.000000 0.000000 0.000000 0.000000 0.120332 0.000000
# 6 0.000000 0.000000 0.000000 0.000000 0.000000 0.036515
#
#
# Mechanical properties :
#
#
# Convention : Reuss Voigt Hill
#
# Bulk Modulus (GPa) = 68.38076 68.65731 68.51903
# Shear Modulus (GPa) = 16.28471 24.91135 20.59803
#
# Velocity S-wave (km/s) = 2.90679 3.59520 3.26917
# Velocity P-wave (km/s) = 6.83709 7.27030 7.05702
#
# Compressibility (1/GPa) = 0.01462400
#
# Stress axis : x y z
#
# Youngs Moduli (GPa) = 94.35474 91.29717 111.34738
#
# Poissons Ratio (x) = 0.29160 0.26449
# Poissons Ratio (y) = 0.30137 0.26555
# Poissons Ratio (z) = 0.22412 0.21774
#
# Static dielectric constant tensor:
#      x y z
#    x 3.557180 0.000000 0.000000 
#    y 0.000000 3.837190 0.000000 
#    z 0.000000 0.000000 3.468020 
# 
# 
# High freq. dielectric constant tensor:
#      x y z
#    x 1.754360 0.000000 0.000000 
#    y 0.000000 1.760050 0.000000 
#    z 0.000000 0.000000 1.737860 
# 
# From -- ./inp_files/41171.got.cif
#   From: 2010.06.25/outbox.cif.g09.slc.cpg/sg71_21_cif.got.tgz:41171.got - 2010.06.28 04:59:45.
