data_PCOD8291340
_publ_section_title
;
Structure prediction by ZEFSAII (Michael W. Deem and Ramdas Pophale) SiO2 
 PCOD8291340
Probable space group: I M M M
;
_chemical_formula_sum "Si O2"
_cell_formula_units_Z 104
_cell_length_a 20.375241
_cell_length_b 29.333541
_cell_length_c 8.974955
_cell_angle_alpha 90.000000
_cell_angle_beta 90.000000
_cell_angle_gamma 90.000000
_cell_volume 5364.132861
_symmetry_space_group_name_H-M "I M M M"
_symmetry_group_IT_number 71
_symmetry_cell_setting 'orthorhombic'
loop_
_space_group_symop_operation_xyz
x,y,z
-x,-y,z
x,-y,-z
-x,y,-z
-x,-y,-z
x,y,-z
-x,y,z
x,-y,z
1/2+x,1/2+y,1/2+z
1/2-x,1/2-y,1/2+z
1/2+x,1/2-y,1/2-z
1/2-x,1/2+y,1/2-z
1/2-x,1/2-y,1/2-z
1/2+x,1/2+y,1/2-z
1/2-x,1/2+y,1/2+z
1/2+x,1/2-y,1/2+z
loop_
_atom_site_type_symbol
_atom_site_label
_atom_site_fract_x
_atom_site_fract_y
_atom_site_fract_z
Si Si1 0.500000 0.677636 0.325897
Si Si2 0.249805 0.798902 0.176433
Si Si3 0.928780 0.500000 0.673155
Si Si4 0.363059 0.632392 0.326056
Si Si5 0.500000 0.774939 0.178195
Si Si6 0.647522 0.073922 0.335372
Si Si7 0.620580 0.825018 0.668634
Si Si8 0.293714 0.552397 0.826001
O O1 0.500000 0.691903 0.500000
O O2 0.436550 0.647678 0.285106
O O3 0.500000 0.722426 0.224678
O O4 0.250000 0.750000 0.250000
O O5 0.186354 0.827751 0.228656
O O6 0.313847 0.823347 0.236047
O O7 0.252177 0.793684 0.000000
O O8 0.938436 0.500000 0.500000
O O9 0.889633 0.455397 0.715445
O O10 0.000000 0.500000 0.752114
O O11 0.354019 0.624703 0.500000
O O12 0.349066 0.583718 0.249998
O O13 0.436466 0.799148 0.245449
O O14 0.500000 0.779283 0.000000
O O15 0.644616 0.051257 0.500000
O O16 0.608312 0.121292 0.340551
O O17 0.723851 0.075811 0.287494
O O18 0.627559 0.804723 0.500000
O O19 0.296334 0.500000 0.766362
O O20 0.308066 0.552952 0.000000
#
# Coordination Sequence:
#
# PCOD8291340 Si02
#       8
#     8  16   8  16   8  16  16  16
#     4  10  22  44  67  89 123 164 204 250 304 377
#     4  11  22  36  58  90 123 158 204 256 309 368
#     4  11  25  39  55  85 121 158 197 248 305 355
#     4  10  22  39  62  91 122 158 203 253 311 371
#     4  12  26  42  62  90 124 164 206 255 309 373
#     4  10  21  39  61  84 113 156 205 249 299 360
#     4  11  23  40  61  86 118 160 205 252 305 361
#     4  10  20  38  63  91 121 155 200 254 308 365
#
# _framework density 19.388036
#
# number of rings (size 3 to 8) (size 9 to 14) (size 15 to 20)
#    0.000    1.462    2.308    2.769    1.077    5.231 
#    0.000    0.385    0.000    2.308    0.000    0.000 
#    0.000    0.000    0.000    0.000    0.000    0.000 
#
# Total GULP energy -644768.193695 kJ/mol
# GULP energy per Si atom -12399.388340 kJ/mol
# Density = 1.934391 g / cm^3
# Si number density = 19.388036 Si / 1000 Ang^3
#
#
#
# Elastic Constant Matrix: (Units=GPa)
#
#
# Indices 1 2 3 4 5 6 
#
# 1 140.0616 53.7642 48.4769 0.0000 0.0000 0.0000
# 2 53.7642 123.9654 47.9568 0.0000 0.0000 0.0000
# 3 48.4769 47.9568 79.7551 0.0000 0.0000 0.0000
# 4 0.0000 0.0000 0.0000 34.4549 0.0000 0.0000
# 5 0.0000 0.0000 0.0000 0.0000 24.9854 0.0000
# 6 0.0000 0.0000 0.0000 0.0000 0.0000 32.3798
#
#
#
# Elastic Compliance Matrix: (Units=1/GPa)
#
#
# Indices 1 2 3 4 5 6 
#
# 1 0.009594 -0.002483 -0.004339 0.000000 0.000000 0.000000
# 2 -0.002483 0.011154 -0.005198 0.000000 0.000000 0.000000
# 3 -0.004339 -0.005198 0.018301 0.000000 0.000000 0.000000
# 4 0.000000 0.000000 0.000000 0.029023 0.000000 0.000000
# 5 0.000000 0.000000 0.000000 0.000000 0.040023 0.000000
# 6 0.000000 0.000000 0.000000 0.000000 0.000000 0.030883
#
#
# Mechanical properties :
#
#
# Convention : Reuss Voigt Hill
#
# Bulk Modulus (GPa) = 66.61874 71.57535 69.09705
# Shear Modulus (GPa) = 29.75774 31.26964 30.51369
#
# Velocity S-wave (km/s) = 3.92197 4.02036 3.97147
# Velocity P-wave (km/s) = 7.41245 7.65170 7.53303
#
# Compressibility (1/GPa) = 0.01501079
#
# Stress axis : x y z
#
# Youngs Moduli (GPa) = 104.22697 89.65045 54.64078
#
# Poissons Ratio (x) = 0.22257 0.23708
# Poissons Ratio (y) = 0.25875 0.28403
# Poissons Ratio (z) = 0.45223 0.46602
#
# Static dielectric constant tensor:
#      x y z
#    x 3.477050 0.000000 0.000000 
#    y 0.000000 1.417110 0.000000 
#    z 0.000000 0.000000 2.503030 
# 
# 
# High freq. dielectric constant tensor:
#      x y z
#    x 1.754740 0.000000 0.000000 
#    y 0.000000 1.762510 0.000000 
#    z 0.000000 0.000000 1.754470 
# 
# From -- ./inp_files/11204.got.cif
#   From: 2010.06.25/outbox.cif.g09.slc.cpg/sg71_6_cif.got.tgz:11204.got - 2010.06.28 04:59:45.
