data_PCOD8291571
_publ_section_title
;
Structure prediction by ZEFSAII (Michael W. Deem and Ramdas Pophale) SiO2 
 PCOD8291571
Probable space group: I M M M
;
_chemical_formula_sum "Si O2"
_cell_formula_units_Z 72
_cell_length_a 8.916580
_cell_length_b 16.255731
_cell_length_c 27.178850
_cell_angle_alpha 90.000000
_cell_angle_beta 90.000000
_cell_angle_gamma 90.000000
_cell_volume 3939.452707
_symmetry_space_group_name_H-M "I M M M"
_symmetry_group_IT_number 71
_symmetry_cell_setting 'orthorhombic'
loop_
_space_group_symop_operation_xyz
x,y,z
-x,-y,z
x,-y,-z
-x,y,-z
-x,-y,-z
x,y,-z
-x,y,z
x,-y,z
1/2+x,1/2+y,1/2+z
1/2-x,1/2-y,1/2+z
1/2+x,1/2-y,1/2-z
1/2-x,1/2+y,1/2-z
1/2-x,1/2-y,1/2-z
1/2+x,1/2+y,1/2-z
1/2-x,1/2+y,1/2+z
1/2+x,1/2-y,1/2+z
loop_
_atom_site_type_symbol
_atom_site_label
_atom_site_fract_x
_atom_site_fract_y
_atom_site_fract_z
Si Si1 0.324075 0.840904 0.396150
Si Si2 0.827595 0.593030 0.353357
Si Si3 0.822005 0.000000 0.557256
Si Si4 0.669397 0.195215 0.945234
Si Si5 0.175730 0.760632 0.802218
O O1 0.500000 0.859473 0.398456
O O2 0.284731 0.768089 0.433669
O O3 0.275020 0.810609 0.341187
O O4 0.236211 0.921640 0.412670
O O5 0.773669 0.500000 0.346131
O O6 0.806577 0.616880 0.410375
O O7 0.722710 0.649725 0.320543
O O8 0.000000 0.604309 0.336822
O O9 0.766014 0.000000 0.500000
O O10 0.000000 0.000000 0.558362
O O11 0.500000 0.230254 0.939406
O O12 0.700128 0.163274 0.000000
O O13 0.250000 0.750000 0.750000
O O14 0.000000 0.758251 0.795289
#
# Coordination Sequence:
#
# PCOD8291571 Si02
#       5
#    16  16   8  16  16
#     4  10  21  36  54  78 107 140 180 224 269 322
#     4   9  18  33  53  78 108 141 175 214 259 307
#     4  11  23  37  55  81 113 147 183 225 272 325
#     4   9  17  30  50  76 107 143 180 216 256 306
#     4  10  21  38  59  80 104 137 177 222 272 323
#
# _framework density 18.27665
#
# number of rings (size 3 to 8) (size 9 to 14) (size 15 to 20)
#    0.000    2.333    0.000    2.333    0.000    7.556 
#    2.000    2.222    0.000    0.000    0.000    6.222 
#    0.000    0.000    0.000    0.000    0.000    0.000 
#
# Total GULP energy -446330.026206 kJ/mol
# GULP energy per Si atom -12398.056284 kJ/mol
# Density = 1.823505 g / cm^3
# Si number density = 18.276650 Si / 1000 Ang^3
#
#
#
# Elastic Constant Matrix: (Units=GPa)
#
#
# Indices 1 2 3 4 5 6 
#
# 1 64.2860 45.8642 52.5938 0.0000 0.0000 0.0000
# 2 45.8642 125.7350 67.1771 0.0000 0.0000 0.0000
# 3 52.5938 67.1771 156.0032 0.0000 0.0000 0.0000
# 4 0.0000 0.0000 0.0000 14.6173 0.0000 0.0000
# 5 0.0000 0.0000 0.0000 0.0000 28.7018 0.0000
# 6 0.0000 0.0000 0.0000 0.0000 0.0000 29.7921
#
#
#
# Elastic Compliance Matrix: (Units=1/GPa)
#
#
# Indices 1 2 3 4 5 6 
#
# 1 0.024398 -0.005851 -0.005706 0.000000 0.000000 0.000000
# 2 -0.005851 0.011733 -0.003080 0.000000 0.000000 0.000000
# 3 -0.005706 -0.003080 0.009660 0.000000 0.000000 0.000000
# 4 0.000000 0.000000 0.000000 0.068412 0.000000 0.000000
# 5 0.000000 0.000000 0.000000 0.000000 0.034841 0.000000
# 6 0.000000 0.000000 0.000000 0.000000 0.000000 0.033566
#
#
# Mechanical properties :
#
#
# Convention : Reuss Voigt Hill
#
# Bulk Modulus (GPa) = 60.54193 75.25495 67.89844
# Shear Modulus (GPa) = 23.00021 26.64817 24.82419
#
# Velocity S-wave (km/s) = 3.55131 3.82258 3.68944
# Velocity P-wave (km/s) = 7.07198 7.79408 7.44179
#
# Compressibility (1/GPa) = 0.01651748
#
# Stress axis : x y z
#
# Youngs Moduli (GPa) = 40.98702 85.22970 103.52057
#
# Poissons Ratio (x) = 0.49869 0.59066
# Poissons Ratio (y) = 0.23982 0.31882
# Poissons Ratio (z) = 0.23386 0.26249
#
# Static dielectric constant tensor:
#      x y z
#    x 3.426830 0.000000 0.000000 
#    y 0.000000 3.020800 0.000000 
#    z 0.000000 0.000000 3.493750 
# 
# 
# High freq. dielectric constant tensor:
#      x y z
#    x 1.710520 0.000000 0.000000 
#    y 0.000000 1.701810 0.000000 
#    z 0.000000 0.000000 1.712270 
# 
# From -- ./inp_files/6000.got.cif
#   From: 2010.06.25/outbox.cif.g09.slc.cpg/sg71_3_cif.got.tgz:6000.got - 2010.06.28 04:59:45.
