data_PCOD8291183
_publ_section_title
;
Structure prediction by ZEFSAII (Michael W. Deem and Ramdas Pophale) SiO2 
 PCOD8291183
Probable space group: I M M M
;
_chemical_formula_sum "Si O2"
_cell_formula_units_Z 104
_cell_length_a 27.097039
_cell_length_b 8.847242
_cell_length_c 22.265604
_cell_angle_alpha 90.000000
_cell_angle_beta 90.000000
_cell_angle_gamma 90.000000
_cell_volume 5337.823679
_symmetry_space_group_name_H-M "I M M M"
_symmetry_group_IT_number 71
_symmetry_cell_setting 'orthorhombic'
loop_
_space_group_symop_operation_xyz
x,y,z
-x,-y,z
x,-y,-z
-x,y,-z
-x,-y,-z
x,y,-z
-x,y,z
x,-y,z
1/2+x,1/2+y,1/2+z
1/2-x,1/2-y,1/2+z
1/2+x,1/2-y,1/2-z
1/2-x,1/2+y,1/2-z
1/2-x,1/2-y,1/2-z
1/2+x,1/2+y,1/2-z
1/2-x,1/2+y,1/2+z
1/2+x,1/2-y,1/2+z
loop_
_atom_site_type_symbol
_atom_site_label
_atom_site_fract_x
_atom_site_fract_y
_atom_site_fract_z
Si Si1 0.173739 0.679523 0.500000
Si Si2 0.577438 0.322445 0.658895
Si Si3 0.000000 0.320458 0.929391
Si Si4 0.944519 0.673320 0.715451
Si Si5 0.671729 0.168217 0.380211
Si Si6 0.640228 0.178722 0.871829
Si Si7 0.230037 0.831675 0.692677
Si Si8 0.281685 0.178390 0.500000
O O1 0.176643 0.500000 0.500000
O O2 0.144203 0.738430 0.440741
O O3 0.229451 0.738424 0.500000
O O4 0.568947 0.500000 0.653967
O O5 0.548194 0.243439 0.604370
O O6 0.559534 0.269603 0.724008
O O7 0.635207 0.282444 0.653375
O O8 0.000000 0.500000 0.923551
O O9 0.000000 0.272286 0.000000
O O10 0.930919 0.500000 0.731356
O O11 0.909424 0.735195 0.661858
O O12 0.000000 0.686529 0.690595
O O13 0.725589 0.161725 0.352921
O O14 0.682601 0.228567 0.446374
O O15 0.647963 0.000000 0.379601
O O16 0.685890 0.236272 0.833954
O O17 0.642007 0.000000 0.872279
O O18 0.250000 0.750000 0.750000
O O19 0.211002 0.000000 0.708160
O O20 0.270250 0.000000 0.500000
#
# Coordination Sequence:
#
# PCOD8291183 Si02
#       8
#     8  16   8  16  16  16  16   8
#     4  10  20  36  59  88 125 159 196 256 320 365
#     4  12  25  40  62  92 123 153 196 255 309 351
#     4  11  25  45  67  87 115 160 205 242 293 363
#     4  10  21  40  64  86 115 161 210 250 302 372
#     4  10  22  38  57  82 114 154 195 233 281 354
#     4  10  21  37  59  88 120 158 203 253 312 372
#     4  11  22  36  56  83 116 153 194 241 294 355
#     4  10  20  38  60  82 112 155 206 242 280 360
#
# _framework density 19.483597
#
# number of rings (size 3 to 8) (size 9 to 14) (size 15 to 20)
#    0.000    1.462    2.308    3.000    1.077    6.769 
#    0.000    0.385    0.000    2.308    0.000    0.000 
#    0.000    3.077    0.000    0.000    0.000    0.000 
#
# Total GULP energy -644702.880655 kJ/mol
# GULP energy per Si atom -12398.132320 kJ/mol
# Density = 1.943925 g / cm^3
# Si number density = 19.483597 Si / 1000 Ang^3
#
#
#
# Elastic Constant Matrix: (Units=GPa)
#
#
# Indices 1 2 3 4 5 6 
#
# 1 110.7005 18.6979 51.5213 0.0000 0.0000 0.0000
# 2 18.6979 34.4576 21.2016 0.0000 0.0000 0.0000
# 3 51.5213 21.2016 118.6450 0.0000 0.0000 0.0000
# 4 0.0000 0.0000 0.0000 19.4320 0.0000 0.0000
# 5 0.0000 0.0000 0.0000 0.0000 214.4182 0.0000
# 6 0.0000 0.0000 0.0000 0.0000 0.0000 27.0999
#
#
#
# Elastic Compliance Matrix: (Units=1/GPa)
#
#
# Indices 1 2 3 4 5 6 
#
# 1 0.011711 -0.003624 -0.004438 0.000000 0.000000 0.000000
# 2 -0.003624 0.033728 -0.004453 0.000000 0.000000 0.000000
# 3 -0.004438 -0.004453 0.011151 0.000000 0.000000 0.000000
# 4 0.000000 0.000000 0.000000 0.051461 0.000000 0.000000
# 5 0.000000 0.000000 0.000000 0.000000 0.004664 0.000000
# 6 0.000000 0.000000 0.000000 0.000000 0.000000 0.036900
#
#
# Mechanical properties :
#
#
# Convention : Reuss Voigt Hill
#
# Bulk Modulus (GPa) = 31.68607 49.62721 40.65664
# Shear Modulus (GPa) = 27.00274 63.68217 45.34246
#
# Velocity S-wave (km/s) = 3.72684 5.72328 4.82935
# Velocity P-wave (km/s) = 5.90062 8.31873 7.21174
#
# Compressibility (1/GPa) = 0.03155961
#
# Stress axis : x y z
#
# Youngs Moduli (GPa) = 85.39023 29.64906 89.67482
#
# Poissons Ratio (x) = 0.10745 0.39796
# Poissons Ratio (y) = 0.30947 0.39935
# Poissons Ratio (z) = 0.37895 0.13204
#
# Static dielectric constant tensor:
#      x y z
#    x 3.585260 0.000000 0.000000 
#    y 0.000000 3.581330 0.000000 
#    z 0.000000 0.000000 3.891300 
# 
# 
# High freq. dielectric constant tensor:
#      x y z
#    x 1.760560 0.000000 0.000000 
#    y 0.000000 1.751470 0.000000 
#    z 0.000000 0.000000 1.769380 
# 
# From -- ./inp_files/56302.got.cif
#   From: 2010.06.25/outbox.cif.g09.slc.cpg/sg71_29_cif.got.tgz:56302.got - 2010.06.28 04:59:45.
