data_PCOD8291602
_publ_section_title
;
Structure prediction by ZEFSAII (Michael W. Deem and Ramdas Pophale) SiO2 
 PCOD8291602
Probable space group: I M M M
;
_chemical_formula_sum "Si O2"
_cell_formula_units_Z 104
_cell_length_a 28.434435
_cell_length_b 20.219818
_cell_length_c 9.180879
_cell_angle_alpha 90.000000
_cell_angle_beta 90.000000
_cell_angle_gamma 90.000000
_cell_volume 5278.446315
_symmetry_space_group_name_H-M "I M M M"
_symmetry_group_IT_number 71
_symmetry_cell_setting 'orthorhombic'
loop_
_space_group_symop_operation_xyz
x,y,z
-x,-y,z
x,-y,-z
-x,y,-z
-x,-y,-z
x,y,-z
-x,y,z
x,-y,z
1/2+x,1/2+y,1/2+z
1/2-x,1/2-y,1/2+z
1/2+x,1/2-y,1/2-z
1/2-x,1/2+y,1/2-z
1/2-x,1/2-y,1/2-z
1/2+x,1/2+y,1/2-z
1/2-x,1/2+y,1/2+z
1/2+x,1/2-y,1/2+z
loop_
_atom_site_type_symbol
_atom_site_label
_atom_site_fract_x
_atom_site_fract_y
_atom_site_fract_z
Si Si1 0.407984 0.924543 0.328211
Si Si2 0.277355 0.196781 0.163837
Si Si3 0.382439 0.425998 0.327488
Si Si4 0.500000 0.077811 0.838219
Si Si5 0.223486 0.072485 0.827321
Si Si6 0.616670 0.194865 0.166139
Si Si7 0.055248 0.803618 0.827544
O O1 0.410979 0.915146 0.500000
O O2 0.456170 0.899118 0.256078
O O3 0.372679 0.874156 0.252050
O O4 0.395557 0.000000 0.286965
O O5 0.250000 0.250000 0.250000
O O6 0.262983 0.124456 0.228828
O O7 0.330770 0.222020 0.169354
O O8 0.258473 0.196835 0.000000
O O9 0.384850 0.426749 0.500000
O O10 0.395879 0.500000 0.269646
O O11 0.329488 0.407276 0.275732
O O12 0.419793 0.371157 0.270698
O O13 0.500000 0.000000 0.854440
O O14 0.500000 0.110126 0.000000
O O15 0.236269 0.000000 0.762224
O O16 0.223608 0.067248 0.000000
O O17 0.579815 0.242041 0.247149
O O18 0.599550 0.182679 0.000000
O O19 0.000000 0.806158 0.786550
O O20 0.062140 0.793889 0.000000
#
# Coordination Sequence:
#
# PCOD8291602 Si02
#       7
#    16  16  16   8  16  16  16
#     4  10  21  37  57  80 107 142 185 231 277 328
#     4  10  21  36  56  81 108 143 184 225 274 331
#     4   8  14  27  51  83 113 138 169 215 272 333
#     4   9  17  31  53  79 105 135 172 217 270 323
#     4   8  14  27  50  79 108 137 170 211 263 325
#     4  11  24  38  54  79 111 149 190 234 284 334
#     4  10  21  36  55  79 108 145 187 232 282 333
#
# _framework density 19.702767000000001
#
# number of rings (size 3 to 8) (size 9 to 14) (size 15 to 20)
#    0.000    2.538    0.000    3.000    1.077    5.538 
#    0.000    3.077    0.000    0.923    0.000    5.385 
#    0.000    0.000    0.000    0.000    0.000    0.000 
#
# Total GULP energy -644218.055277 kJ/mol
# GULP energy per Si atom -12388.808755 kJ/mol
# Density = 1.965792 g / cm^3
# Si number density = 19.702767 Si / 1000 Ang^3
#
#
#
# Elastic Constant Matrix: (Units=GPa)
#
#
# Indices 1 2 3 4 5 6 
#
# 1 89.7393 49.5128 24.7062 0.0000 0.0000 0.0000
# 2 49.5128 127.4677 39.0447 0.0000 0.0000 0.0000
# 3 24.7062 39.0447 64.4048 0.0000 0.0000 0.0000
# 4 0.0000 0.0000 0.0000 24.8392 0.0000 0.0000
# 5 0.0000 0.0000 0.0000 0.0000 20.9230 0.0000
# 6 0.0000 0.0000 0.0000 0.0000 0.0000 36.6471
#
#
#
# Elastic Compliance Matrix: (Units=1/GPa)
#
#
# Indices 1 2 3 4 5 6 
#
# 1 0.014541 -0.004838 -0.002645 0.000000 0.000000 0.000000
# 2 -0.004838 0.011244 -0.004961 0.000000 0.000000 0.000000
# 3 -0.002645 -0.004961 0.019549 0.000000 0.000000 0.000000
# 4 0.000000 0.000000 0.000000 0.040259 0.000000 0.000000
# 5 0.000000 0.000000 0.000000 0.000000 0.047794 0.000000
# 6 0.000000 0.000000 0.000000 0.000000 0.000000 0.027287
#
#
# Mechanical properties :
#
#
# Convention : Reuss Voigt Hill
#
# Bulk Modulus (GPa) = 48.90855 56.45991 52.68423
# Shear Modulus (GPa) = 25.99070 27.70508 26.84789
#
# Velocity S-wave (km/s) = 3.63594 3.75394 3.69541
# Velocity P-wave (km/s) = 6.51949 6.89256 6.70862
#
# Compressibility (1/GPa) = 0.02044632
#
# Stress axis : x y z
#
# Youngs Moduli (GPa) = 68.77154 88.93765 51.15419
#
# Poissons Ratio (x) = 0.43028 0.13530
# Poissons Ratio (y) = 0.33272 0.25375
# Poissons Ratio (z) = 0.18190 0.44118
#
# Static dielectric constant tensor:
#      x y z
#    x 3.815570 0.000000 0.000000 
#    y 0.000000 3.031360 0.000000 
#    z 0.000000 0.000000 3.295150 
# 
# 
# High freq. dielectric constant tensor:
#      x y z
#    x 1.765820 0.000000 0.000000 
#    y 0.000000 1.777470 0.000000 
#    z 0.000000 0.000000 1.731960 
# 
# From -- ./inp_files/15013.got.cif
#   From: 2010.06.25/outbox.cif.g09.slc.cpg/sg71_8_cif.got.tgz:15013.got - 2010.06.28 04:59:45.
