data_PCOD8291112
_publ_section_title
;
Structure prediction by ZEFSAII (Michael W. Deem and Ramdas Pophale) SiO2 
 PCOD8291112
Probable space group: I M M M
;
_chemical_formula_sum "Si O2"
_cell_formula_units_Z 56
_cell_length_a 15.511086
_cell_length_b 7.612871
_cell_length_c 26.338577
_cell_angle_alpha 90.000000
_cell_angle_beta 90.000000
_cell_angle_gamma 90.000000
_cell_volume 3110.161808
_symmetry_space_group_name_H-M "I M M M"
_symmetry_group_IT_number 71
_symmetry_cell_setting 'orthorhombic'
loop_
_space_group_symop_operation_xyz
x,y,z
-x,-y,z
x,-y,-z
-x,y,-z
-x,-y,-z
x,y,-z
-x,y,z
x,-y,z
1/2+x,1/2+y,1/2+z
1/2-x,1/2-y,1/2+z
1/2+x,1/2-y,1/2-z
1/2-x,1/2+y,1/2-z
1/2-x,1/2-y,1/2-z
1/2+x,1/2+y,1/2-z
1/2-x,1/2+y,1/2+z
1/2+x,1/2-y,1/2+z
loop_
_atom_site_type_symbol
_atom_site_label
_atom_site_fract_x
_atom_site_fract_y
_atom_site_fract_z
Si Si1 0.216285 0.201110 0.695141
Si Si2 0.316783 0.197192 0.403854
Si Si3 0.295441 0.000000 0.944100
Si Si4 0.398805 0.000000 0.845053
Si Si5 0.000000 0.207680 0.058163
O O1 0.250000 0.250000 0.750000
O O2 0.293607 0.235009 0.655060
O O3 0.136005 0.325040 0.681953
O O4 0.184359 0.000000 0.693476
O O5 0.264697 0.329134 0.439516
O O6 0.418262 0.219860 0.411518
O O7 0.289195 0.000000 0.418880
O O8 0.372886 0.000000 0.904167
O O9 0.337010 0.000000 0.000000
O O10 0.500000 0.000000 0.839979
O O11 0.000000 0.000000 0.059161
O O12 0.000000 0.276553 0.000000
#
# Coordination Sequence:
#
# PCOD8291112 Si02
#       5
#    16  16   8   8   8
#     4  10  20  38  62  82 112 149 187 230 280 332
#     4  10  21  35  53  80 110 148 189 228 276 337
#     4  10  20  36  58  80 109 147 188 230 277 330
#     4  10  22  39  59  87 116 144 185 232 277 331
#     4  11  21  33  51  78 115 149 186 233 275 325
#
# _framework density 18.005493000000001
#
# number of rings (size 3 to 8) (size 9 to 14) (size 15 to 20)
#    0.000    1.857    2.857    1.286    0.000    3.714 
#    2.571    0.000    0.000    0.000    0.000    8.000 
#    0.000    0.000    0.000    0.000    0.000    0.000 
#
# Total GULP energy -347247.269103 kJ/mol
# GULP energy per Si atom -12401.688182 kJ/mol
# Density = 1.796451 g / cm^3
# Si number density = 18.005493 Si / 1000 Ang^3
#
#
#
# Elastic Constant Matrix: (Units=GPa)
#
#
# Indices 1 2 3 4 5 6 
#
# 1 140.8005 57.9195 66.3091 0.0000 0.0000 0.0000
# 2 57.9195 142.7535 56.8421 0.0000 0.0000 0.0000
# 3 66.3091 56.8421 139.7060 0.0000 0.0000 0.0000
# 4 0.0000 0.0000 0.0000 20.9345 0.0000 0.0000
# 5 0.0000 0.0000 0.0000 0.0000 14.2401 0.0000
# 6 0.0000 0.0000 0.0000 0.0000 0.0000 21.8961
#
#
#
# Elastic Compliance Matrix: (Units=1/GPa)
#
#
# Indices 1 2 3 4 5 6 
#
# 1 0.009869 -0.002553 -0.003646 0.000000 0.000000 0.000000
# 2 -0.002553 0.009020 -0.002458 0.000000 0.000000 0.000000
# 3 -0.003646 -0.002458 0.009888 0.000000 0.000000 0.000000
# 4 0.000000 0.000000 0.000000 0.047768 0.000000 0.000000
# 5 0.000000 0.000000 0.000000 0.000000 0.070224 0.000000
# 6 0.000000 0.000000 0.000000 0.000000 0.000000 0.045670
#
#
# Mechanical properties :
#
#
# Convention : Reuss Voigt Hill
#
# Bulk Modulus (GPa) = 87.22820 87.26680 87.24750
# Shear Modulus (GPa) = 23.41112 27.56012 25.48562
#
# Velocity S-wave (km/s) = 3.60977 3.91660 3.76631
# Velocity P-wave (km/s) = 8.11939 8.30813 8.21430
#
# Compressibility (1/GPa) = 0.01146418
#
# Stress axis : x y z
#
# Youngs Moduli (GPa) = 101.32555 110.86997 101.12824
#
# Poissons Ratio (x) = 0.28300 0.36868
# Poissons Ratio (y) = 0.25864 0.24860
# Poissons Ratio (z) = 0.36940 0.27255
#
# Static dielectric constant tensor:
#      x y z
#    x 3.097490 0.000000 0.000000 
#    y 0.000000 3.536280 0.000000 
#    z 0.000000 0.000000 3.418640 
# 
# 
# High freq. dielectric constant tensor:
#      x y z
#    x 1.670370 0.000000 0.000000 
#    y 0.000000 1.721790 0.000000 
#    z 0.000000 0.000000 1.703780 
# 
# From -- ./inp_files/11924.got.cif
#   From: 2010.06.25/outbox.cif.g09.slc.cpg/sg71_6_cif.got.tgz:11924.got - 2010.06.28 04:59:45.
