data_PCOD8291355
_publ_section_title
;
Structure prediction by ZEFSAII (Michael W. Deem and Ramdas Pophale) SiO2 
 PCOD8291355
Probable space group: I M M M
;
_chemical_formula_sum "Si O2"
_cell_formula_units_Z 56
_cell_length_a 27.156849
_cell_length_b 13.812340
_cell_length_c 7.576978
_cell_angle_alpha 90.000000
_cell_angle_beta 90.000000
_cell_angle_gamma 90.000000
_cell_volume 2842.121657
_symmetry_space_group_name_H-M "I M M M"
_symmetry_group_IT_number 71
_symmetry_cell_setting 'orthorhombic'
loop_
_space_group_symop_operation_xyz
x,y,z
-x,-y,z
x,-y,-z
-x,y,-z
-x,-y,-z
x,y,-z
-x,y,z
x,-y,z
1/2+x,1/2+y,1/2+z
1/2-x,1/2-y,1/2+z
1/2+x,1/2-y,1/2-z
1/2-x,1/2+y,1/2-z
1/2-x,1/2-y,1/2-z
1/2+x,1/2+y,1/2-z
1/2-x,1/2+y,1/2+z
1/2+x,1/2-y,1/2+z
loop_
_atom_site_type_symbol
_atom_site_label
_atom_site_fract_x
_atom_site_fract_y
_atom_site_fract_z
Si Si1 0.666001 0.114089 0.000000
Si Si2 0.898254 0.705219 0.799993
Si Si3 0.500000 0.110838 0.208843
Si Si4 0.775354 0.113695 0.000000
Si Si5 0.149814 0.110343 0.297247
O O1 0.638444 0.146580 0.175835
O O2 0.720857 0.160203 0.000000
O O3 0.666912 0.000000 0.000000
O O4 0.953302 0.667344 0.781845
O O5 0.896138 0.819110 0.746114
O O6 0.880417 0.690343 0.000000
O O7 0.500000 0.000000 0.277631
O O8 0.500000 0.112558 0.000000
O O9 0.804574 0.144874 0.176302
O O10 0.768547 0.000000 0.000000
O O11 0.166301 0.121515 0.500000
O O12 0.133734 0.000000 0.254501
#
# Coordination Sequence:
#
# PCOD8291355 Si02
#       5
#     8  16   8   8  16
#     4  11  24  41  59  88 127 163 209 260 298 356
#     4  12  24  40  63  94 121 162 207 250 305 370
#     4  11  23  43  68  88 122 163 200 254 308 356
#     4   9  20  38  61  88 123 164 205 252 306 356
#     4  10  20  39  64  89 123 164 203 251 306 361
#
# _framework density 19.703590999999999
#
# number of rings (size 3 to 8) (size 9 to 14) (size 15 to 20)
#    0.000    1.286    4.286    1.286    0.000    5.143 
#    0.000    3.571    0.000    4.286    0.000    0.000 
#    0.000    0.000    0.000    0.000    0.000    0.000 
#
# Total GULP energy -347185.248139 kJ/mol
# GULP energy per Si atom -12399.473148 kJ/mol
# Density = 1.965874 g / cm^3
# Si number density = 19.703591 Si / 1000 Ang^3
#
#
#
# Elastic Constant Matrix: (Units=GPa)
#
#
# Indices 1 2 3 4 5 6 
#
# 1 136.3575 79.9902 56.0313 0.0000 0.0000 0.0000
# 2 79.9902 121.5346 55.2146 0.0000 0.0000 0.0000
# 3 56.0313 55.2146 164.9701 0.0000 0.0000 0.0000
# 4 0.0000 0.0000 0.0000 26.2262 0.0000 0.0000
# 5 0.0000 0.0000 0.0000 0.0000 -229.8702 0.0000
# 6 0.0000 0.0000 0.0000 0.0000 0.0000 30.0295
#
#
#
# Elastic Compliance Matrix: (Units=1/GPa)
#
#
# Indices 1 2 3 4 5 6 
#
# 1 0.012355 -0.007342 -0.001739 0.000000 0.000000 0.000000
# 2 -0.007342 0.014066 -0.002214 0.000000 0.000000 0.000000
# 3 -0.001739 -0.002214 0.007394 0.000000 0.000000 0.000000
# 4 0.000000 0.000000 0.000000 0.038130 0.000000 0.000000
# 5 0.000000 0.000000 0.000000 0.000000 -0.004350 0.000000
# 6 0.000000 0.000000 0.000000 0.000000 0.000000 0.033301
#
#
# Mechanical properties :
#
#
# Convention : Reuss Voigt Hill
#
# Bulk Modulus (GPa) = 89.09024 89.48160 89.28592
# Shear Modulus (GPa) = 39.30005 -19.28116 10.00944
#
# Velocity S-wave (km/s) = 4.47090 -3.13159 2.25633
# Velocity P-wave (km/s) = 8.48324 5.69532 7.22502
#
# Compressibility (1/GPa) = 0.01122457
#
# Stress axis : x y z
#
# Youngs Moduli (GPa) = 80.93868 71.09295 135.25369
#
# Poissons Ratio (x) = 0.52193 0.23523
# Poissons Ratio (y) = 0.59422 0.29949
# Poissons Ratio (z) = 0.14076 0.15742
#
# Static dielectric constant tensor:
#      x y z
#    x 2.878400 0.000000 0.000000 
#    y 0.000000 3.858340 0.000000 
#    z 0.000000 0.000000 3.830860 
# 
# 
# High freq. dielectric constant tensor:
#      x y z
#    x 1.749540 0.000000 0.000000 
#    y 0.000000 1.775800 0.000000 
#    z 0.000000 0.000000 1.790170 
# 
# From -- ./inp_files/11914.got.cif
#   From: 2010.06.25/outbox.cif.g09.slc.cpg/sg71_6_cif.got.tgz:11914.got - 2010.06.28 04:59:45.
