data_PCOD8291456
_publ_section_title
;
Structure prediction by ZEFSAII (Michael W. Deem and Ramdas Pophale) SiO2 
 PCOD8291456
Probable space group: I M M M
;
_chemical_formula_sum "Si O2"
_cell_formula_units_Z 84
_cell_length_a 14.072658
_cell_length_b 16.127855
_cell_length_c 21.096831
_cell_angle_alpha 90.000000
_cell_angle_beta 90.000000
_cell_angle_gamma 90.000000
_cell_volume 4788.174478
_symmetry_space_group_name_H-M "I M M M"
_symmetry_group_IT_number 71
_symmetry_cell_setting 'orthorhombic'
loop_
_space_group_symop_operation_xyz
x,y,z
-x,-y,z
x,-y,-z
-x,y,-z
-x,-y,-z
x,y,-z
-x,y,z
x,-y,z
1/2+x,1/2+y,1/2+z
1/2-x,1/2-y,1/2+z
1/2+x,1/2-y,1/2-z
1/2-x,1/2+y,1/2-z
1/2-x,1/2-y,1/2-z
1/2+x,1/2+y,1/2-z
1/2-x,1/2+y,1/2+z
1/2+x,1/2-y,1/2+z
loop_
_atom_site_type_symbol
_atom_site_label
_atom_site_fract_x
_atom_site_fract_y
_atom_site_fract_z
Si Si1 0.109279 0.808243 0.236712
Si Si2 0.895376 0.500000 0.899167
Si Si3 0.388865 0.664544 0.000000
Si Si4 0.728010 0.908815 0.178568
Si Si5 0.610836 0.761719 0.872677
Si Si6 0.393377 0.127803 0.707881
Si Si7 0.265959 0.500000 0.000000
O O1 0.168683 0.879244 0.202139
O O2 0.130491 0.798392 0.312227
O O3 0.140803 0.722840 0.202249
O O4 0.000000 0.831071 0.225194
O O5 0.887746 0.416065 0.859279
O O6 0.000000 0.500000 0.933084
O O7 0.803856 0.500000 0.941435
O O8 0.360467 0.715510 0.062752
O O9 0.332075 0.579564 0.000000
O O10 0.500000 0.642868 0.000000
O O11 0.675669 0.844403 0.131527
O O12 0.667503 0.922070 0.241830
O O13 0.738050 0.000000 0.146084
O O14 0.500000 0.787811 0.873932
O O15 0.500000 0.128661 0.735077
#
# Coordination Sequence:
#
# PCOD8291456 Si02
#       7
#    16   8   8  16  16  16   4
#     4   9  19  33  51  76 108 142 171 210 261 315
#     4  10  21  35  51  82 113 136 174 220 264 307
#     4  10  23  41  56  76 106 144 183 217 255 308
#     4  11  20  29  53  81 107 132 174 216 266 320
#     4   9  19  36  55  75 105 140 175 217 260 312
#     4   9  17  31  52  74 105 137 166 209 263 315
#     4  12  26  32  60  76 108 146 186 216 256 300
#
# _framework density 17.543220999999999
#
# number of rings (size 3 to 8) (size 9 to 14) (size 15 to 20)
#    0.000    2.286    0.952    4.286    5.333    1.524 
#    0.000    0.476    0.000    1.714    0.000    0.000 
#    0.000    1.524    0.000    0.000    0.000    0.000 
#
# Total GULP energy -520547.761581 kJ/mol
# GULP energy per Si atom -12393.994323 kJ/mol
# Density = 1.750329 g / cm^3
# Si number density = 17.543221 Si / 1000 Ang^3
#
#
#
# Elastic Constant Matrix: (Units=GPa)
#
#
# Indices 1 2 3 4 5 6 
#
# 1 83.4976 63.3334 44.6017 0.0000 0.0000 0.0000
# 2 63.3334 127.7457 56.8572 0.0000 0.0000 0.0000
# 3 44.6017 56.8572 80.4615 0.0000 0.0000 0.0000
# 4 0.0000 0.0000 0.0000 27.6627 0.0000 0.0000
# 5 0.0000 0.0000 0.0000 0.0000 26.0191 0.0000
# 6 0.0000 0.0000 0.0000 0.0000 0.0000 11.3454
#
#
#
# Elastic Compliance Matrix: (Units=1/GPa)
#
#
# Indices 1 2 3 4 5 6 
#
# 1 0.021180 -0.007695 -0.006303 0.000000 0.000000 0.000000
# 2 -0.007695 0.014216 -0.005780 0.000000 0.000000 0.000000
# 3 -0.006303 -0.005780 0.020006 0.000000 0.000000 0.000000
# 4 0.000000 0.000000 0.000000 0.036150 0.000000 0.000000
# 5 0.000000 0.000000 0.000000 0.000000 0.038433 0.000000
# 6 0.000000 0.000000 0.000000 0.000000 0.000000 0.088142
#
#
# Mechanical properties :
#
#
# Convention : Reuss Voigt Hill
#
# Bulk Modulus (GPa) = 63.10575 69.03218 66.06897
# Shear Modulus (GPa) = 19.01398 21.46625 20.24012
#
# Velocity S-wave (km/s) = 3.29574 3.50182 3.40034
# Velocity P-wave (km/s) = 7.10860 7.46897 7.29101
#
# Compressibility (1/GPa) = 0.01584642
#
# Stress axis : x y z
#
# Youngs Moduli (GPa) = 47.21408 70.34511 49.98453
#
# Poissons Ratio (x) = 0.54133 0.31504
# Poissons Ratio (y) = 0.36333 0.28889
# Poissons Ratio (z) = 0.29758 0.40657
#
# Static dielectric constant tensor:
#      x y z
#    x 3.372660 0.000000 0.000000 
#    y 0.000000 3.231840 0.000000 
#    z 0.000000 0.000000 3.114330 
# 
# 
# High freq. dielectric constant tensor:
#      x y z
#    x 1.692480 0.000000 0.000000 
#    y 0.000000 1.674080 0.000000 
#    z 0.000000 0.000000 1.644720 
# 
# From -- ./inp_files/52937.got.cif
#   From: 2010.06.25/outbox.cif.g09.slc.cpg/sg71_27_cif.got.tgz:52937.got - 2010.06.28 04:59:45.
