data_PCOD8291662
_publ_section_title
;
Structure prediction by ZEFSAII (Michael W. Deem and Ramdas Pophale) SiO2 
 PCOD8291662
Probable space group: I M M M
;
_chemical_formula_sum "Si O2"
_cell_formula_units_Z 80
_cell_length_a 9.238251
_cell_length_b 27.431464
_cell_length_c 16.828477
_cell_angle_alpha 90.000000
_cell_angle_beta 90.000000
_cell_angle_gamma 90.000000
_cell_volume 4264.651601
_symmetry_space_group_name_H-M "I M M M"
_symmetry_group_IT_number 71
_symmetry_cell_setting 'orthorhombic'
loop_
_space_group_symop_operation_xyz
x,y,z
-x,-y,z
x,-y,-z
-x,y,-z
-x,-y,-z
x,y,-z
-x,y,z
x,-y,z
1/2+x,1/2+y,1/2+z
1/2-x,1/2-y,1/2+z
1/2+x,1/2-y,1/2-z
1/2-x,1/2+y,1/2-z
1/2-x,1/2-y,1/2-z
1/2+x,1/2+y,1/2-z
1/2-x,1/2+y,1/2+z
1/2+x,1/2-y,1/2+z
loop_
_atom_site_type_symbol
_atom_site_label
_atom_site_fract_x
_atom_site_fract_y
_atom_site_fract_z
Si Si1 0.329060 0.910921 0.175586
Si Si2 0.673024 0.054721 0.500000
Si Si3 0.832104 0.717177 0.092896
Si Si4 0.171481 0.385620 0.850998
Si Si5 0.170581 0.000000 0.093183
Si Si6 0.168161 0.311916 0.408723
O O1 0.500000 0.920816 0.164622
O O2 0.282746 0.909648 0.267792
O O3 0.282593 0.859372 0.138966
O O4 0.240327 0.952556 0.132060
O O5 0.500000 0.055405 0.500000
O O6 0.735138 0.081327 0.578253
O O7 0.733092 0.000000 0.500000
O O8 0.772234 0.669968 0.140249
O O9 0.749853 0.764714 0.125295
O O10 0.000000 0.725900 0.109538
O O11 0.801489 0.708312 0.000000
O O12 0.000000 0.383701 0.858642
O O13 0.000000 0.000000 0.109381
O O14 0.206191 0.000000 0.000000
O O15 0.209859 0.320982 0.500000
O O16 0.000000 0.301792 0.397181
#
# Coordination Sequence:
#
# PCOD8291662 Si02
#       6
#    16   8  16  16   8  16
#     4  10  21  36  57  83 108 137 178 226 269 314
#     4   9  16  26  46  76 110 142 174 221 274 313
#     4   9  16  29  50  75 106 144 181 219 262 313
#     4   9  17  30  49  79 112 139 177 225 269 313
#     4  11  25  43  61  80 107 140 174 215 267 325
#     4   9  18  32  49  72 104 139 177 220 268 322
#
# _framework density 18.758861
#
# number of rings (size 3 to 8) (size 9 to 14) (size 15 to 20)
#    0.000    2.600    1.000    0.900    1.400    3.200 
#    0.000    3.000    0.000    0.000    0.000    0.700 
#    0.000    0.000    0.000    0.000    0.000    0.000 
#
# Total GULP energy -495982.670498 kJ/mol
# GULP energy per Si atom -12399.566762 kJ/mol
# Density = 1.871616 g / cm^3
# Si number density = 18.758861 Si / 1000 Ang^3
#
#
#
# Elastic Constant Matrix: (Units=GPa)
#
#
# Indices 1 2 3 4 5 6 
#
# 1 43.6303 56.7446 42.3396 0.0000 0.0000 0.0000
# 2 56.7446 184.4551 96.2506 0.0001 0.0000 -0.0001
# 3 42.3396 96.2506 130.6337 -0.0004 -0.0004 0.0003
# 4 0.0000 0.0001 -0.0004 30.3787 -0.0002 0.0000
# 5 0.0000 0.0000 -0.0004 -0.0002 15.4961 0.0000
# 6 0.0000 -0.0001 0.0003 0.0000 0.0000 10.5060
#
#
#
# Elastic Compliance Matrix: (Units=1/GPa)
#
#
# Indices 1 2 3 4 5 6 
#
# 1 0.041393 -0.009315 -0.006553 0.000000 0.000000 0.000000
# 2 -0.009315 0.010904 -0.005015 0.000000 0.000000 0.000000
# 3 -0.006553 -0.005015 0.013474 0.000000 0.000000 0.000000
# 4 0.000000 0.000000 0.000000 0.032918 0.000000 0.000000
# 5 0.000000 0.000000 0.000000 0.000000 0.064532 0.000000
# 6 0.000000 0.000000 0.000000 0.000000 0.000000 0.095184
#
#
# Mechanical properties :
#
#
# Convention : Reuss Voigt Hill
#
# Bulk Modulus (GPa) = 41.65631 83.26541 62.46086
# Shear Modulus (GPa) = 16.22471 22.16843 19.19657
#
# Velocity S-wave (km/s) = 2.94412 3.44140 3.20243
# Velocity P-wave (km/s) = 5.81477 7.76367 6.85880
#
# Compressibility (1/GPa) = 0.02400597
#
# Stress axis : x y z
#
# Youngs Moduli (GPa) = 24.15845 91.71245 74.21806
#
# Poissons Ratio (x) = 0.85426 0.48635
# Poissons Ratio (y) = 0.22503 0.37219
# Poissons Ratio (z) = 0.15831 0.45992
#
# Static dielectric constant tensor:
#      x y z
#    x 3.075310 0.000000 0.000000 
#    y 0.000000 3.722340 0.000000 
#    z 0.000000 0.000000 3.586720 
# 
# 
# High freq. dielectric constant tensor:
#      x y z
#    x 1.682610 0.000000 0.000000 
#    y 0.000000 1.744730 0.000000 
#    z 0.000000 0.000000 1.731750 
# 
# From -- ./inp_files/42283.got.cif
#   From: 2010.06.25/outbox.cif.g09.slc.cpg/sg71_22_cif.got.tgz:42283.got - 2010.06.28 04:59:45.
