data_PCOD8291040
_publ_section_title
;
Structure prediction by ZEFSAII (Michael W. Deem and Ramdas Pophale) SiO2 
 PCOD8291040
Probable space group: I M M M
;
_chemical_formula_sum "Si O2"
_cell_formula_units_Z 72
_cell_length_a 19.013873
_cell_length_b 7.957667
_cell_length_c 23.386624
_cell_angle_alpha 90.000000
_cell_angle_beta 90.000000
_cell_angle_gamma 90.000000
_cell_volume 3538.538161
_symmetry_space_group_name_H-M "I M M M"
_symmetry_group_IT_number 71
_symmetry_cell_setting 'orthorhombic'
loop_
_space_group_symop_operation_xyz
x,y,z
-x,-y,z
x,-y,-z
-x,y,-z
-x,-y,-z
x,y,-z
-x,y,z
x,-y,z
1/2+x,1/2+y,1/2+z
1/2-x,1/2-y,1/2+z
1/2+x,1/2-y,1/2-z
1/2-x,1/2+y,1/2-z
1/2-x,1/2-y,1/2-z
1/2+x,1/2+y,1/2-z
1/2-x,1/2+y,1/2+z
1/2+x,1/2-y,1/2+z
loop_
_atom_site_type_symbol
_atom_site_label
_atom_site_fract_x
_atom_site_fract_y
_atom_site_fract_z
Si Si1 0.076923 0.000000 0.566545
Si Si2 0.313034 0.696263 0.435355
Si Si3 0.670944 0.193779 0.755097
Si Si4 0.337636 0.195580 0.115047
Si Si5 0.078061 0.695602 0.845877
O O1 0.115284 0.826141 0.581103
O O2 0.067717 0.000000 0.500000
O O3 0.000000 0.000000 0.596078
O O4 0.306048 0.768134 0.500000
O O5 0.326308 0.500000 0.437469
O O6 0.243197 0.738345 0.399267
O O7 0.379860 0.778714 0.404738
O O8 0.750000 0.250000 0.750000
O O9 0.644701 0.231424 0.818875
O O10 0.620298 0.281102 0.707691
O O11 0.669595 0.000000 0.741176
O O12 0.354272 0.000000 0.098686
O O13 0.069076 0.500000 0.834533
O O14 0.000000 0.777502 0.850306
#
# Coordination Sequence:
#
# PCOD8291040 Si02
#       5
#     8  16  16  16  16
#     4  11  26  44  64  96 129 163 214 266 317 378
#     4  10  21  37  58  86 118 157 207 253 302 368
#     4  10  20  35  61  89 119 157 200 254 312 372
#     4  10  22  41  66  94 127 166 207 258 319 382
#     4  10  22  38  56  84 121 159 201 251 309 370
#
# _framework density 20.347386
#
# number of rings (size 3 to 8) (size 9 to 14) (size 15 to 20)
#    0.000    1.889    2.222    0.667    3.111    4.000 
#    0.000    5.556    0.000    0.000    0.000    0.000 
#    0.000    0.000    0.000    0.000    0.000    0.000 
#
# Total GULP energy -446245.423394 kJ/mol
# GULP energy per Si atom -12395.706205 kJ/mol
# Density = 2.030107 g / cm^3
# Si number density = 20.347386 Si / 1000 Ang^3
#
#
#
# Elastic Constant Matrix: (Units=GPa)
#
#
# Indices 1 2 3 4 5 6 
#
# 1 155.4295 43.7213 54.1850 0.0000 0.0000 0.0000
# 2 43.7213 51.1956 32.0297 0.0000 0.0000 0.0000
# 3 54.1850 32.0297 116.3016 0.0000 0.0000 0.0000
# 4 0.0000 0.0000 0.0000 28.8716 0.0000 0.0000
# 5 0.0000 0.0000 0.0000 0.0000 31.3409 0.0000
# 6 0.0000 0.0000 0.0000 0.0000 0.0000 21.3712
#
#
#
# Elastic Compliance Matrix: (Units=1/GPa)
#
#
# Indices 1 2 3 4 5 6 
#
# 1 0.009041 -0.006144 -0.002520 0.000000 0.000000 0.000000
# 2 -0.006144 0.027775 -0.004787 0.000000 0.000000 0.000000
# 3 -0.002520 -0.004787 0.011091 0.000000 0.000000 0.000000
# 4 0.000000 0.000000 0.000000 0.034636 0.000000 0.000000
# 5 0.000000 0.000000 0.000000 0.000000 0.031907 0.000000
# 6 0.000000 0.000000 0.000000 0.000000 0.000000 0.046792
#
#
# Mechanical properties :
#
#
# Convention : Reuss Voigt Hill
#
# Bulk Modulus (GPa) = 47.60884 64.75543 56.18213
# Shear Modulus (GPa) = 25.62212 29.18281 27.40246
#
# Velocity S-wave (km/s) = 3.55242 3.79123 3.67377
# Velocity P-wave (km/s) = 6.34626 7.14553 6.75772
#
# Compressibility (1/GPa) = 0.02100450
#
# Stress axis : x y z
#
# Youngs Moduli (GPa) = 110.61260 36.00393 90.16635
#
# Poissons Ratio (x) = 0.22121 0.22721
# Poissons Ratio (y) = 0.67962 0.43160
# Poissons Ratio (z) = 0.27873 0.17234
#
# Static dielectric constant tensor:
#      x y z
#    x 3.883220 0.000000 0.000000 
#    y 0.000000 3.569930 0.000000 
#    z 0.000000 0.000000 3.993960 
# 
# 
# High freq. dielectric constant tensor:
#      x y z
#    x 1.793330 0.000000 0.000000 
#    y 0.000000 1.783500 0.000000 
#    z 0.000000 0.000000 1.805910 
# 
# From -- ./inp_files/7967.got.cif
#   From: 2010.06.25/outbox.cif.g09.slc.cpg/sg71_4_cif.got.tgz:7967.got - 2010.06.28 04:59:45.
