data_PCOD8291137
_publ_section_title
;
Structure prediction by ZEFSAII (Michael W. Deem and Ramdas Pophale) SiO2 
 PCOD8291137
Probable space group: I M M M
;
_chemical_formula_sum "Si O2"
_cell_formula_units_Z 80
_cell_length_a 9.763240
_cell_length_b 30.938035
_cell_length_c 12.625179
_cell_angle_alpha 90.000000
_cell_angle_beta 90.000000
_cell_angle_gamma 90.000000
_cell_volume 3813.504261
_symmetry_space_group_name_H-M "I M M M"
_symmetry_group_IT_number 71
_symmetry_cell_setting 'orthorhombic'
loop_
_space_group_symop_operation_xyz
x,y,z
-x,-y,z
x,-y,-z
-x,y,-z
-x,-y,-z
x,y,-z
-x,y,z
x,-y,z
1/2+x,1/2+y,1/2+z
1/2-x,1/2-y,1/2+z
1/2+x,1/2-y,1/2-z
1/2-x,1/2+y,1/2-z
1/2-x,1/2-y,1/2-z
1/2+x,1/2+y,1/2-z
1/2-x,1/2+y,1/2+z
1/2+x,1/2-y,1/2+z
loop_
_atom_site_type_symbol
_atom_site_label
_atom_site_fract_x
_atom_site_fract_y
_atom_site_fract_z
Si Si1 0.342910 0.551408 0.000000
Si Si2 0.650029 0.049170 0.687870
Si Si3 0.652837 0.731752 0.115766
Si Si4 0.264658 0.901768 0.121520
Si Si5 0.840694 0.809817 0.827832
Si Si6 0.000000 0.952828 0.875685
O O1 0.262724 0.567664 0.894850
O O2 0.339322 0.500000 0.000000
O O3 0.500000 0.568756 0.000000
O O4 0.500000 0.049775 0.633068
O O5 0.630664 0.079651 0.792339
O O6 0.687144 0.000000 0.722605
O O7 0.500000 0.752131 0.133240
O O8 0.769466 0.767961 0.122294
O O9 0.675027 0.693614 0.200748
O O10 0.663073 0.710098 0.000000
O O11 0.241983 0.850694 0.129541
O O12 0.129064 0.925920 0.160960
O O13 0.307770 0.912829 0.000000
O O14 0.000000 0.811942 0.863504
O O15 0.000000 0.000000 0.820229
O O16 0.000000 0.958642 0.000000
#
# Coordination Sequence:
#
# PCOD8291137 Si02
#       6
#     8  16  16  16  16   8
#     4   9  19  37  63  89 111 145 199 253 301 359
#     4  10  22  40  61  85 119 161 202 249 305 363
#     4   9  19  36  58  83 114 151 191 240 302 369
#     4  11  22  35  55  86 121 157 201 252 303 360
#     4  10  20  36  58  85 117 153 197 246 300 363
#     4   9  18  32  50  75 113 157 195 244 303 351
#
# _framework density 20.978079000000001
#
# number of rings (size 3 to 8) (size 9 to 14) (size 15 to 20)
#    0.000    2.200    1.000    1.500    1.400    4.800 
#    1.800    1.000    0.000    0.000    0.000    0.000 
#    0.000    0.000    0.000    0.000    0.000    0.000 
#
# Total GULP energy -495701.461727 kJ/mol
# GULP energy per Si atom -12392.536543 kJ/mol
# Density = 2.093033 g / cm^3
# Si number density = 20.978079 Si / 1000 Ang^3
#
#
#
# Elastic Constant Matrix: (Units=GPa)
#
#
# Indices 1 2 3 4 5 6 
#
# 1 94.8596 12.0710 37.4064 0.0001 0.0001 -0.0127
# 2 12.0710 55.5595 19.6772 0.0004 0.0000 -0.0419
# 3 37.4064 19.6772 145.2951 0.0024 0.0004 0.1169
# 4 0.0001 0.0004 0.0024 25.0841 0.0002 0.0250
# 5 0.0001 0.0000 0.0004 0.0002 23.3106 0.0026
# 6 -0.0127 -0.0419 0.1169 0.0250 0.0026 384.5478
#
#
#
# Elastic Compliance Matrix: (Units=1/GPa)
#
#
# Indices 1 2 3 4 5 6 
#
# 1 0.011862 -0.001571 -0.002841 0.000000 0.000000 0.000001
# 2 -0.001571 0.019114 -0.002184 0.000000 0.000000 0.000003
# 3 -0.002841 -0.002184 0.007910 -0.000001 0.000000 -0.000003
# 4 0.000000 0.000000 -0.000001 0.039866 0.000000 -0.000003
# 5 0.000000 0.000000 0.000000 0.000000 0.042899 0.000000
# 6 0.000001 0.000003 -0.000003 -0.000003 0.000000 0.002600
#
#
# Mechanical properties :
#
#
# Convention : Reuss Voigt Hill
#
# Bulk Modulus (GPa) = 38.92101 48.22483 43.57292
# Shear Modulus (GPa) = 34.24478 101.69247 67.96863
#
# Velocity S-wave (km/s) = 4.04469 6.96999 5.69826
# Velocity P-wave (km/s) = 6.35658 9.37083 8.00683
#
# Compressibility (1/GPa) = 0.02569307
#
# Stress axis : x y z
#
# Youngs Moduli (GPa) = 84.30153 52.31885 126.42542
#
# Poissons Ratio (x) = 0.08219 0.35920
# Poissons Ratio (y) = 0.13244 0.27613
# Poissons Ratio (z) = 0.23952 0.11427
#
# Static dielectric constant tensor:
#      x y z
#    x 3.239160 0.000010 0.000000 
#    y 0.000010 3.428190 0.000000 
#    z 0.000000 0.000000 3.858070 
# 
# 
# High freq. dielectric constant tensor:
#      x y z
#    x 1.825540 0.000000 0.000000 
#    y 0.000000 1.786000 0.000000 
#    z 0.000000 0.000000 1.829120 
# 
# From -- ./inp_files/20190.got.cif
#   From: 2010.06.25/outbox.cif.g09.slc.cpg/sg71_11_cif.got.tgz:20190.got - 2010.06.28 04:59:45.
