data_PCOD8291647
_publ_section_title
;
Structure prediction by ZEFSAII (Michael W. Deem and Ramdas Pophale) SiO2 
 PCOD8291647
Probable space group: I M M M
;
_chemical_formula_sum "Si O2"
_cell_formula_units_Z 72
_cell_length_a 9.098749
_cell_length_b 13.933229
_cell_length_c 29.132393
_cell_angle_alpha 90.000000
_cell_angle_beta 90.000000
_cell_angle_gamma 90.000000
_cell_volume 3693.257766
_symmetry_space_group_name_H-M "I M M M"
_symmetry_group_IT_number 71
_symmetry_cell_setting 'orthorhombic'
loop_
_space_group_symop_operation_xyz
x,y,z
-x,-y,z
x,-y,-z
-x,y,-z
-x,-y,-z
x,y,-z
-x,y,z
x,-y,z
1/2+x,1/2+y,1/2+z
1/2-x,1/2-y,1/2+z
1/2+x,1/2-y,1/2-z
1/2-x,1/2+y,1/2-z
1/2-x,1/2-y,1/2-z
1/2+x,1/2+y,1/2-z
1/2-x,1/2+y,1/2+z
1/2+x,1/2-y,1/2+z
loop_
_atom_site_type_symbol
_atom_site_label
_atom_site_fract_x
_atom_site_fract_y
_atom_site_fract_z
Si Si1 0.328794 0.204679 0.318069
Si Si2 0.825253 0.107608 0.500000
Si Si3 0.830940 0.891018 0.763816
Si Si4 0.673443 0.719031 0.089634
Si Si5 0.332788 0.608836 0.553127
O O1 0.500000 0.186256 0.325234
O O2 0.271708 0.132685 0.279197
O O3 0.296222 0.315987 0.304725
O O4 0.245741 0.176817 0.364656
O O5 0.767042 0.160016 0.454287
O O6 0.000000 0.108620 0.500000
O O7 0.762855 0.000000 0.500000
O O8 0.000000 0.879170 0.748273
O O9 0.799242 0.000000 0.780667
O O10 0.500000 0.712340 0.094661
O O11 0.722393 0.828965 0.083497
O O12 0.289887 0.618501 0.500000
O O13 0.500000 0.643324 0.561320
O O14 0.314591 0.500000 0.569688
#
# Coordination Sequence:
#
# PCOD8291647 Si02
#       5
#    16   8  16  16  16
#     4  10  21  36  56  85 116 146 182 228 281 338
#     4   9  20  38  56  75 104 146 193 235 274 319
#     4   9  19  38  61  82 108 145 185 226 276 336
#     4  11  21  35  56  82 111 147 191 237 280 326
#     4   9  18  33  53  76 105 143 182 223 279 337
#
# _framework density 19.494983999999999
#
# number of rings (size 3 to 8) (size 9 to 14) (size 15 to 20)
#    0.000    2.333    1.111    2.000    0.000    3.556 
#    0.000    5.556    0.000    4.667    0.000    0.000 
#    0.000    0.000    0.000    0.000    0.000    0.000 
#
# Total GULP energy -446442.837604 kJ/mol
# GULP energy per Si atom -12401.189933 kJ/mol
# Density = 1.945061 g / cm^3
# Si number density = 19.494984 Si / 1000 Ang^3
#
#
#
# Elastic Constant Matrix: (Units=GPa)
#
#
# Indices 1 2 3 4 5 6 
#
# 1 76.2748 23.6621 47.2433 0.0000 0.0000 0.0000
# 2 23.6621 84.2877 25.6325 0.0000 0.0000 0.0000
# 3 47.2433 25.6325 111.7202 0.0000 0.0000 0.0000
# 4 0.0000 0.0000 0.0000 16.5713 0.0000 0.0000
# 5 0.0000 0.0000 0.0000 0.0000 35.7771 0.0000
# 6 0.0000 0.0000 0.0000 0.0000 0.0000 27.0243
#
#
#
# Elastic Compliance Matrix: (Units=1/GPa)
#
#
# Indices 1 2 3 4 5 6 
#
# 1 0.018450 -0.003017 -0.007110 0.000000 0.000000 0.000000
# 2 -0.003017 0.013247 -0.001763 0.000000 0.000000 0.000000
# 3 -0.007110 -0.001763 0.012362 0.000000 0.000000 0.000000
# 4 0.000000 0.000000 0.000000 0.060345 0.000000 0.000000
# 5 0.000000 0.000000 0.000000 0.000000 0.027951 0.000000
# 6 0.000000 0.000000 0.000000 0.000000 0.000000 0.037004
#
#
# Mechanical properties :
#
#
# Convention : Reuss Voigt Hill
#
# Bulk Modulus (GPa) = 49.31336 51.70650 50.50993
# Shear Modulus (GPa) = 25.01245 27.59086 26.30165
#
# Velocity S-wave (km/s) = 3.58581 3.76610 3.67706
# Velocity P-wave (km/s) = 6.51877 6.74477 6.63273
#
# Compressibility (1/GPa) = 0.02027848
#
# Stress axis : x y z
#
# Youngs Moduli (GPa) = 54.19990 75.48605 80.89276
#
# Poissons Ratio (x) = 0.22777 0.57513
# Poissons Ratio (y) = 0.16354 0.14265
# Poissons Ratio (z) = 0.38535 0.13312
#
# Static dielectric constant tensor:
#      x y z
#    x 3.407220 0.000000 0.000000 
#    y 0.000000 3.577840 0.000000 
#    z 0.000000 0.000000 3.495870 
# 
# 
# High freq. dielectric constant tensor:
#      x y z
#    x 1.749470 0.000000 0.000000 
#    y 0.000000 1.755930 0.000000 
#    z 0.000000 0.000000 1.755110 
# 
# From -- ./inp_files/6088.got.cif
#   From: 2010.06.25/outbox.cif.g09.slc.cpg/sg71_4_cif.got.tgz:6088.got - 2010.06.28 04:59:45.
