data_PCOD8291467
_publ_section_title
;
Structure prediction by ZEFSAII (Michael W. Deem and Ramdas Pophale) SiO2 
 PCOD8291467
Probable space group: I M M M
;
_chemical_formula_sum "Si O2"
_cell_formula_units_Z 88
_cell_length_a 13.177574
_cell_length_b 18.124606
_cell_length_c 19.245907
_cell_angle_alpha 90.000000
_cell_angle_beta 90.000000
_cell_angle_gamma 90.000000
_cell_volume 4596.660418
_symmetry_space_group_name_H-M "I M M M"
_symmetry_group_IT_number 71
_symmetry_cell_setting 'orthorhombic'
loop_
_space_group_symop_operation_xyz
x,y,z
-x,-y,z
x,-y,-z
-x,y,-z
-x,-y,-z
x,y,-z
-x,y,z
x,-y,z
1/2+x,1/2+y,1/2+z
1/2-x,1/2-y,1/2+z
1/2+x,1/2-y,1/2-z
1/2-x,1/2+y,1/2-z
1/2-x,1/2-y,1/2-z
1/2+x,1/2+y,1/2-z
1/2-x,1/2+y,1/2+z
1/2+x,1/2-y,1/2+z
loop_
_atom_site_type_symbol
_atom_site_label
_atom_site_fract_x
_atom_site_fract_y
_atom_site_fract_z
Si Si1 0.303267 0.413771 0.421948
Si Si2 0.611844 0.916891 0.164830
Si Si3 0.500000 0.587679 0.078869
Si Si4 0.884261 0.334283 0.192685
Si Si5 0.806492 0.087777 0.667281
Si Si6 0.613798 0.333292 0.701358
O O1 0.313802 0.383521 0.500000
O O2 0.327371 0.500000 0.418982
O O3 0.190083 0.395365 0.395383
O O4 0.383444 0.371684 0.373836
O O5 0.500000 0.910672 0.131458
O O6 0.621622 0.862005 0.228759
O O7 0.632222 0.000000 0.192463
O O8 0.500000 0.500000 0.079299
O O9 0.397508 0.615894 0.117263
O O10 0.500000 0.618077 0.000000
O O11 0.804062 0.379987 0.144192
O O12 0.846821 0.249959 0.193622
O O13 0.000000 0.342808 0.163564
O O14 0.820399 0.118864 0.745111
O O15 0.803121 0.000000 0.668976
O O16 0.500000 0.332900 0.729972
#
# Coordination Sequence:
#
# PCOD8291467 Si02
#       6
#    16  16   8  16  16  16
#     4  10  21  35  52  77 110 149 192 235 278 329
#     4   9  17  31  53  80 111 145 182 228 279 336
#     4   9  20  38  60  88 115 139 174 228 293 348
#     4  10  21  35  56  84 114 148 187 239 287 330
#     4  11  20  34  60  86 112 146 186 232 282 343
#     4  11  22  36  55  80 111 147 193 237 283 338
#
# _framework density 19.144334000000001
#
# number of rings (size 3 to 8) (size 9 to 14) (size 15 to 20)
#    0.000    1.909    2.727    1.636    0.000    2.909 
#    0.000    3.636    0.000    1.636    0.000    2.545 
#    0.000    0.000    0.000    0.000    0.000    0.000 
#
# Total GULP energy -545483.930537 kJ/mol
# GULP energy per Si atom -12397.362058 kJ/mol
# Density = 1.910076 g / cm^3
# Si number density = 19.144334 Si / 1000 Ang^3
#
#
#
# Elastic Constant Matrix: (Units=GPa)
#
#
# Indices 1 2 3 4 5 6 
#
# 1 115.8627 42.7761 31.2611 0.0000 0.0000 0.0000
# 2 42.7761 82.2072 29.7490 0.0000 0.0000 0.0000
# 3 31.2611 29.7490 90.1412 0.0000 0.0000 0.0000
# 4 0.0000 0.0000 0.0000 6.5747 0.0000 0.0000
# 5 0.0000 0.0000 0.0000 0.0000 24.8594 0.0000
# 6 0.0000 0.0000 0.0000 0.0000 0.0000 31.7229
#
#
#
# Elastic Compliance Matrix: (Units=1/GPa)
#
#
# Indices 1 2 3 4 5 6 
#
# 1 0.011054 -0.004956 -0.002198 0.000000 0.000000 0.000000
# 2 -0.004956 0.016037 -0.003574 0.000000 0.000000 0.000000
# 3 -0.002198 -0.003574 0.013035 0.000000 0.000000 0.000000
# 4 0.000000 0.000000 0.000000 0.152098 0.000000 0.000000
# 5 0.000000 0.000000 0.000000 0.000000 0.040226 0.000000
# 6 0.000000 0.000000 0.000000 0.000000 0.000000 0.031523
#
#
# Mechanical properties :
#
#
# Convention : Reuss Voigt Hill
#
# Bulk Modulus (GPa) = 53.56149 55.08707 54.32428
# Shear Modulus (GPa) = 17.14373 24.92640 21.03507
#
# Velocity S-wave (km/s) = 2.99574 3.61227 3.31835
# Velocity P-wave (km/s) = 6.32490 6.79964 6.56656
#
# Compressibility (1/GPa) = 0.01867013
#
# Stress axis : x y z
#
# Youngs Moduli (GPa) = 90.46664 62.35706 76.71499
#
# Poissons Ratio (x) = 0.30907 0.16860
# Poissons Ratio (y) = 0.44840 0.27415
# Poissons Ratio (z) = 0.19882 0.22284
#
# Static dielectric constant tensor:
#      x y z
#    x 3.956640 0.000000 0.000000 
#    y 0.000000 3.427400 0.000000 
#    z 0.000000 0.000000 3.270720 
# 
# 
# High freq. dielectric constant tensor:
#      x y z
#    x 1.767320 0.000000 0.000000 
#    y 0.000000 1.737330 0.000000 
#    z 0.000000 0.000000 1.703620 
# 
# From -- ./inp_files/53135.got.cif
#   From: 2010.06.25/outbox.cif.g09.slc.cpg/sg71_27_cif.got.tgz:53135.got - 2010.06.28 04:59:45.
