data_PCOD8291358
_publ_section_title
;
Structure prediction by ZEFSAII (Michael W. Deem and Ramdas Pophale) SiO2 
 PCOD8291358
Probable space group: I M M M
;
_chemical_formula_sum "Si O2"
_cell_formula_units_Z 88
_cell_length_a 9.393627
_cell_length_b 21.821766
_cell_length_c 22.044512
_cell_angle_alpha 90.000000
_cell_angle_beta 90.000000
_cell_angle_gamma 90.000000
_cell_volume 4518.805982
_symmetry_space_group_name_H-M "I M M M"
_symmetry_group_IT_number 71
_symmetry_cell_setting 'orthorhombic'
loop_
_space_group_symop_operation_xyz
x,y,z
-x,-y,z
x,-y,-z
-x,y,-z
-x,-y,-z
x,y,-z
-x,y,z
x,-y,z
1/2+x,1/2+y,1/2+z
1/2-x,1/2-y,1/2+z
1/2+x,1/2-y,1/2-z
1/2-x,1/2+y,1/2-z
1/2-x,1/2-y,1/2-z
1/2+x,1/2+y,1/2-z
1/2-x,1/2+y,1/2+z
1/2+x,1/2-y,1/2+z
loop_
_atom_site_type_symbol
_atom_site_label
_atom_site_fract_x
_atom_site_fract_y
_atom_site_fract_z
Si Si1 0.667527 0.429857 0.257310
Si Si2 0.154220 0.566114 0.429838
Si Si3 0.167596 0.155490 0.133483
Si Si4 0.165541 0.239859 0.570837
Si Si5 0.163988 0.106052 0.623139
Si Si6 0.844895 0.500000 0.929835
O O1 0.500000 0.434341 0.266241
O O2 0.729678 0.500000 0.262495
O O3 0.726090 0.380953 0.306918
O O4 0.708640 0.399262 0.193418
O O5 0.138666 0.556316 0.500000
O O6 0.186487 0.500000 0.399115
O O7 0.287151 0.610774 0.420647
O O8 0.000000 0.591247 0.405330
O O9 0.246293 0.219041 0.118631
O O10 0.000000 0.167754 0.135562
O O11 0.215330 0.246060 0.500000
O O12 0.193284 0.172158 0.595229
O O13 0.000000 0.257676 0.575265
O O14 0.258907 0.060216 0.585801
O O15 0.000000 0.087000 0.615367
O O16 0.000000 0.500000 0.897145
O O17 0.871316 0.500000 0.000000
#
# Coordination Sequence:
#
# PCOD8291358 Si02
#       6
#    16  16  16  16  16   8
#     4   9  18  35  59  86 115 146 186 242 291 330
#     4   9  18  33  52  74 103 141 188 243 294 335
#     4  11  22  34  53  81 114 154 191 226 286 353
#     4  10  22  39  58  83 114 148 195 249 288 330
#     4  10  20  39  66  87 108 151 202 239 280 341
#     4  11  23  37  57  91 129 153 176 231 302 349
#
# _framework density 19.474171999999999
#
# number of rings (size 3 to 8) (size 9 to 14) (size 15 to 20)
#    0.000    2.091    0.909    3.000    0.000    6.909 
#    0.000    2.727    0.000    0.000    0.000    0.000 
#    0.000    0.000    0.000    0.000    0.000    0.000 
#
# Total GULP energy -545098.258333 kJ/mol
# GULP energy per Si atom -12388.596780 kJ/mol
# Density = 1.942985 g / cm^3
# Si number density = 19.474172 Si / 1000 Ang^3
#
#
#
# Elastic Constant Matrix: (Units=GPa)
#
#
# Indices 1 2 3 4 5 6 
#
# 1 74.7311 62.5922 37.6169 0.0000 0.0000 0.0000
# 2 62.5922 133.3681 58.8178 0.0000 0.0000 0.0000
# 3 37.6169 58.8178 98.6466 0.0000 0.0000 0.0000
# 4 0.0000 0.0000 0.0000 38.0943 0.0000 0.0000
# 5 0.0000 0.0000 0.0000 0.0000 19.3929 0.0000
# 6 0.0000 0.0000 0.0000 0.0000 0.0000 27.5455
#
#
#
# Elastic Compliance Matrix: (Units=1/GPa)
#
#
# Indices 1 2 3 4 5 6 
#
# 1 0.022739 -0.009291 -0.003131 0.000000 0.000000 0.000000
# 2 -0.009291 0.013969 -0.004786 0.000000 0.000000 0.000000
# 3 -0.003131 -0.004786 0.014185 0.000000 0.000000 0.000000
# 4 0.000000 0.000000 0.000000 0.026251 0.000000 0.000000
# 5 0.000000 0.000000 0.000000 0.000000 0.051565 0.000000
# 6 0.000000 0.000000 0.000000 0.000000 0.000000 0.036304
#
#
# Mechanical properties :
#
#
# Convention : Reuss Voigt Hill
#
# Bulk Modulus (GPa) = 60.69290 69.42218 65.05754
# Shear Modulus (GPa) = 24.39942 26.85446 25.62694
#
# Velocity S-wave (km/s) = 3.54349 3.71749 3.63153
# Velocity P-wave (km/s) = 6.92642 7.35881 7.14588
#
# Compressibility (1/GPa) = 0.01647639
#
# Stress axis : x y z
#
# Youngs Moduli (GPa) = 43.97653 71.58555 70.49652
#
# Poissons Ratio (x) = 0.66510 0.22076
# Poissons Ratio (y) = 0.40859 0.33741
# Poissons Ratio (z) = 0.13771 0.34262
#
# Static dielectric constant tensor:
#      x y z
#    x 3.444490 0.000000 0.000000 
#    y 0.000000 3.813170 0.000000 
#    z 0.000000 0.000000 3.634280 
# 
# 
# High freq. dielectric constant tensor:
#      x y z
#    x 1.739190 0.000000 0.000000 
#    y 0.000000 1.769040 0.000000 
#    z 0.000000 0.000000 1.756480 
# 
# From -- ./inp_files/57530.got.cif
#   From: 2010.06.25/outbox.cif.g09.slc.cpg/sg71_29_cif.got.tgz:57530.got - 2010.06.28 04:59:45.
