data_PCOD8291885
_publ_section_title
;
Structure prediction by ZEFSAII (Michael W. Deem and Ramdas Pophale) SiO2 
 PCOD8291885
Probable space group: I M M M
;
_chemical_formula_sum "Si O2"
_cell_formula_units_Z 64
_cell_length_a 25.686920
_cell_length_b 8.331422
_cell_length_c 14.530181
_cell_angle_alpha 90.000000
_cell_angle_beta 90.000000
_cell_angle_gamma 90.000000
_cell_volume 3109.583263
_symmetry_space_group_name_H-M "I M M M"
_symmetry_group_IT_number 71
_symmetry_cell_setting 'orthorhombic'
loop_
_space_group_symop_operation_xyz
x,y,z
-x,-y,z
x,-y,-z
-x,y,-z
-x,-y,-z
x,y,-z
-x,y,z
x,-y,z
1/2+x,1/2+y,1/2+z
1/2-x,1/2-y,1/2+z
1/2+x,1/2-y,1/2-z
1/2-x,1/2+y,1/2-z
1/2-x,1/2-y,1/2-z
1/2+x,1/2+y,1/2-z
1/2-x,1/2+y,1/2+z
1/2+x,1/2-y,1/2+z
loop_
_atom_site_type_symbol
_atom_site_label
_atom_site_fract_x
_atom_site_fract_y
_atom_site_fract_z
Si Si1 0.057273 0.500000 0.390798
Si Si2 0.384617 0.321104 0.106603
Si Si3 0.108344 0.312678 0.102990
Si Si4 0.193494 0.179031 0.762377
Si Si5 0.000000 0.813933 0.893373
O O1 0.055764 0.500000 0.500000
O O2 0.082640 0.667774 0.356440
O O3 0.000000 0.500000 0.348157
O O4 0.411320 0.500000 0.121538
O O5 0.330799 0.317000 0.160849
O O6 0.371403 0.296687 0.000000
O O7 0.104027 0.500000 0.095177
O O8 0.157872 0.272295 0.165102
O O9 0.054100 0.252274 0.149682
O O10 0.115530 0.238097 0.000000
O O11 0.250000 0.250000 0.750000
O O12 0.198450 0.000000 0.800736
O O13 0.000000 0.000000 0.875238
O O14 0.000000 0.764041 0.000000
#
# Coordination Sequence:
#
# PCOD8291885 Si02
#       5
#     8  16  16  16   8
#     4   9  18  34  60  90 117 151 195 240 289 348
#     4   9  20  39  60  84 118 156 195 240 293 351
#     4  10  21  38  60  87 120 157 196 240 293 352
#     4  11  24  40  60  86 116 152 197 247 296 350
#     4   9  17  33  59  87 118 153 192 241 291 348
#
# _framework density 20.581537000000001
#
# number of rings (size 3 to 8) (size 9 to 14) (size 15 to 20)
#    0.000    2.250    0.000    1.875    3.500    4.500 
#    2.250    5.000    0.000    0.000    0.000    0.000 
#    0.000    0.000    0.000    0.000    0.000    0.000 
#
# Total GULP energy -396526.995121 kJ/mol
# GULP energy per Si atom -12391.468598 kJ/mol
# Density = 2.053469 g / cm^3
# Si number density = 20.581537 Si / 1000 Ang^3
#
#
#
# Elastic Constant Matrix: (Units=GPa)
#
#
# Indices 1 2 3 4 5 6 
#
# 1 172.4755 68.6543 47.1842 0.0000 0.0000 0.0000
# 2 68.6543 145.1024 27.9778 0.0000 0.0000 0.0000
# 3 47.1842 27.9778 58.4011 0.0000 0.0000 0.0000
# 4 0.0000 0.0000 0.0000 24.5758 0.0000 0.0000
# 5 0.0000 0.0000 0.0000 0.0000 23.0186 0.0000
# 6 0.0000 0.0000 0.0000 0.0000 0.0000 37.2358
#
#
#
# Elastic Compliance Matrix: (Units=1/GPa)
#
#
# Indices 1 2 3 4 5 6 
#
# 1 0.008457 -0.002957 -0.005416 0.000000 0.000000 0.000000
# 2 -0.002957 0.008627 -0.001744 0.000000 0.000000 0.000000
# 3 -0.005416 -0.001744 0.022334 0.000000 0.000000 0.000000
# 4 0.000000 0.000000 0.000000 0.040690 0.000000 0.000000
# 5 0.000000 0.000000 0.000000 0.000000 0.043443 0.000000
# 6 0.000000 0.000000 0.000000 0.000000 0.000000 0.026856
#
#
# Mechanical properties :
#
#
# Convention : Reuss Voigt Hill
#
# Bulk Modulus (GPa) = 52.12574 73.73461 62.93017
# Shear Modulus (GPa) = 28.24303 32.44356 30.34329
#
# Velocity S-wave (km/s) = 3.70841 3.97463 3.84382
# Velocity P-wave (km/s) = 6.61195 7.54764 7.09524
#
# Compressibility (1/GPa) = 0.01918438
#
# Stress axis : x y z
#
# Youngs Moduli (GPa) = 118.25182 115.91553 44.77481
#
# Poissons Ratio (x) = 0.34275 0.24249
# Poissons Ratio (y) = 0.34966 0.07808
# Poissons Ratio (z) = 0.64043 0.20214
#
# Static dielectric constant tensor:
#      x y z
#    x 3.400720 0.000000 0.000000 
#    y 0.000000 4.123640 0.000000 
#    z 0.000000 0.000000 3.612810 
# 
# 
# High freq. dielectric constant tensor:
#      x y z
#    x 1.792400 0.000000 0.000000 
#    y 0.000000 1.826090 0.000000 
#    z 0.000000 0.000000 1.796680 
# 
# From -- ./inp_files/11976.got.cif
#   From: 2010.06.25/outbox.cif.g09.slc.cpg/sg71_6_cif.got.tgz:11976.got - 2010.06.28 04:59:45.
