data_PCOD8291735
_publ_section_title
;
Structure prediction by ZEFSAII (Michael W. Deem and Ramdas Pophale) SiO2 
 PCOD8291735
Probable space group: I M M M
;
_chemical_formula_sum "Si O2"
_cell_formula_units_Z 72
_cell_length_a 14.438248
_cell_length_b 30.192139
_cell_length_c 8.857765
_cell_angle_alpha 90.000000
_cell_angle_beta 90.000000
_cell_angle_gamma 90.000000
_cell_volume 3861.291007
_symmetry_space_group_name_H-M "I M M M"
_symmetry_group_IT_number 71
_symmetry_cell_setting 'orthorhombic'
loop_
_space_group_symop_operation_xyz
x,y,z
-x,-y,z
x,-y,-z
-x,y,-z
-x,-y,-z
x,y,-z
-x,y,z
x,-y,z
1/2+x,1/2+y,1/2+z
1/2-x,1/2-y,1/2+z
1/2+x,1/2-y,1/2-z
1/2-x,1/2+y,1/2-z
1/2-x,1/2-y,1/2-z
1/2+x,1/2+y,1/2-z
1/2-x,1/2+y,1/2+z
1/2+x,1/2-y,1/2+z
loop_
_atom_site_type_symbol
_atom_site_label
_atom_site_fract_x
_atom_site_fract_y
_atom_site_fract_z
Si Si1 0.500000 0.052398 0.835290
Si Si2 0.688853 0.211810 0.322715
Si Si3 0.000000 0.734086 0.679923
Si Si4 0.800773 0.450026 0.679835
Si Si5 0.191688 0.873695 0.323984
Si Si6 0.000000 0.834898 0.320550
O O1 0.402590 0.065088 0.753284
O O2 0.500000 0.000000 0.856918
O O3 0.500000 0.075246 0.000000
O O4 0.680006 0.221118 0.500000
O O5 0.750000 0.250000 0.250000
O O6 0.589148 0.209333 0.245199
O O7 0.736297 0.165075 0.289052
O O8 0.000000 0.731130 0.500000
O O9 0.000000 0.784595 0.739048
O O10 0.804809 0.447648 0.500000
O O11 0.777263 0.500000 0.732535
O O12 0.721277 0.418310 0.740860
O O13 0.185727 0.883930 0.500000
O O14 0.091014 0.859878 0.260089
O O15 0.000000 0.832996 0.500000
#
# Coordination Sequence:
#
# PCOD8291735 Si02
#       6
#     8  16   8  16  16   8
#     4   7  12  27  51  74 100 137 172 207 260 321
#     4  11  22  37  57  84 114 147 188 236 285 338
#     4  11  21  38  60  82 114 153 191 235 284 339
#     4   9  18  34  56  82 111 142 182 230 275 327
#     4  10  21  37  57  79 109 145 185 231 278 333
#     4   9  18  37  57  75 103 146 189 225 272 331
#
# _framework density 18.646614
#
# number of rings (size 3 to 8) (size 9 to 14) (size 15 to 20)
#    0.000    2.333    2.222    2.333    0.000    3.111 
#    0.000    3.889    0.000    5.333    0.000    0.000 
#    0.000    0.000    0.000    0.000    0.000    0.000 
#
# Total GULP energy -446247.181587 kJ/mol
# GULP energy per Si atom -12395.755044 kJ/mol
# Density = 1.860417 g / cm^3
# Si number density = 18.646614 Si / 1000 Ang^3
#
#
#
# Elastic Constant Matrix: (Units=GPa)
#
#
# Indices 1 2 3 4 5 6 
#
# 1 171.6724 66.3738 45.5968 0.0019 -0.0009 0.0001
# 2 66.3738 101.5537 41.2169 0.0008 -0.0002 0.0004
# 3 45.5968 41.2169 54.2222 -0.0167 0.0049 -0.0027
# 4 0.0019 0.0008 -0.0167 30.4828 0.0017 0.0000
# 5 -0.0009 -0.0002 0.0049 0.0017 30.6577 -0.0004
# 6 0.0001 0.0004 -0.0027 0.0000 -0.0004 30.3316
#
#
#
# Elastic Compliance Matrix: (Units=1/GPa)
#
#
# Indices 1 2 3 4 5 6 
#
# 1 0.008403 -0.003795 -0.004182 -0.000003 0.000001 0.000000
# 2 -0.003795 0.015954 -0.008936 -0.000005 0.000001 -0.000001
# 3 -0.004182 -0.008936 0.028752 0.000016 -0.000005 0.000003
# 4 -0.000003 -0.000005 0.000016 0.032805 -0.000002 0.000000
# 5 0.000001 0.000001 -0.000005 -0.000002 0.032618 0.000000
# 6 0.000000 -0.000001 0.000003 0.000000 0.000000 0.032969
#
#
# Mechanical properties :
#
#
# Convention : Reuss Voigt Hill
#
# Bulk Modulus (GPa) = 51.85777 70.42480 61.14129
# Shear Modulus (GPa) = 26.07496 29.91182 27.99339
#
# Velocity S-wave (km/s) = 3.74354 4.00952 3.87881
# Velocity P-wave (km/s) = 6.82325 7.69968 7.27468
#
# Compressibility (1/GPa) = 0.01928351
#
# Stress axis : x y z
#
# Youngs Moduli (GPa) = 119.00678 62.67948 34.78026
#
# Poissons Ratio (x) = 0.23786 0.14544
# Poissons Ratio (y) = 0.45161 0.31081
# Poissons Ratio (z) = 0.49763 0.56013
#
# Static dielectric constant tensor:
#      x y z
#    x 3.808430 0.000000 0.000000 
#    y 0.000000 3.340930 -0.000010 
#    z 0.000000 -0.000010 3.163170 
# 
# 
# High freq. dielectric constant tensor:
#      x y z
#    x 1.738430 0.000000 0.000000 
#    y 0.000000 1.713230 0.000000 
#    z 0.000000 0.000000 1.698260 
# 
# From -- ./inp_files/6232.got.cif
#   From: 2010.06.25/outbox.cif.g09.slc.cpg/sg71_4_cif.got.tgz:6232.got - 2010.06.28 04:59:45.
