data_PCOD8291403
_publ_section_title
;
Structure prediction by ZEFSAII (Michael W. Deem and Ramdas Pophale) SiO2 
 PCOD8291403
Probable space group: I M M M
;
_chemical_formula_sum "Si O2"
_cell_formula_units_Z 104
_cell_length_a 7.836868
_cell_length_b 22.097507
_cell_length_c 29.024327
_cell_angle_alpha 90.000000
_cell_angle_beta 90.000000
_cell_angle_gamma 90.000000
_cell_volume 5026.294953
_symmetry_space_group_name_H-M "I M M M"
_symmetry_group_IT_number 71
_symmetry_cell_setting 'orthorhombic'
loop_
_space_group_symop_operation_xyz
x,y,z
-x,-y,z
x,-y,-z
-x,y,-z
-x,-y,-z
x,y,-z
-x,y,z
x,-y,z
1/2+x,1/2+y,1/2+z
1/2-x,1/2-y,1/2+z
1/2+x,1/2-y,1/2-z
1/2-x,1/2+y,1/2-z
1/2-x,1/2-y,1/2-z
1/2+x,1/2+y,1/2-z
1/2-x,1/2+y,1/2+z
1/2+x,1/2-y,1/2+z
loop_
_atom_site_type_symbol
_atom_site_label
_atom_site_fract_x
_atom_site_fract_y
_atom_site_fract_z
Si Si1 0.195057 0.565568 0.355103
Si Si2 0.500000 0.928473 0.446858
Si Si3 0.804442 0.324478 0.298169
Si Si4 0.306764 0.760886 0.948054
Si Si5 0.300422 0.310048 0.199042
Si Si6 0.692562 0.609517 0.551253
Si Si7 0.199940 0.140330 0.602226
O O1 0.280024 0.500000 0.343180
O O2 0.285909 0.621229 0.327542
O O3 0.201516 0.574718 0.410189
O O4 0.000000 0.562538 0.339658
O O5 0.500000 0.905813 0.500000
O O6 0.326892 0.907312 0.421274
O O7 0.500000 0.000000 0.444800
O O8 0.786801 0.339013 0.243927
O O9 0.725155 0.258063 0.309681
O O10 0.000000 0.323320 0.313455
O O11 0.500000 0.780680 0.937069
O O12 0.190416 0.818731 0.938316
O O13 0.250014 0.706420 0.915756
O O14 0.287093 0.737143 0.000000
O O15 0.500000 0.303466 0.208945
O O16 0.265545 0.355962 0.156958
O O17 0.770928 0.597784 0.500000
O O18 0.500000 0.585741 0.553086
O O19 0.000000 0.124318 0.591502
#
# Coordination Sequence:
#
# PCOD8291403 Si02
#       7
#    16   8  16  16  16  16  16
#     4  10  21  37  55  74 101 144 195 237 277 335
#     4  11  26  44  62  88 120 160 211 259 306 368
#     4   9  18  34  56  82 115 148 185 235 293 352
#     4   9  17  31  53  81 112 145 181 227 284 338
#     4   9  18  33  56  88 118 146 184 234 296 362
#     4  10  21  34  50  77 111 145 183 233 288 337
#     4  10  21  38  62  90 122 158 198 246 302 362
#
# _framework density 20.691184
#
# number of rings (size 3 to 8) (size 9 to 14) (size 15 to 20)
#    0.000    2.385    0.000    1.846    2.154    5.846 
#    0.000    3.077    0.000    0.923    0.000    0.000 
#    0.000    0.000    0.000    0.000    0.000    0.000 
#
# Total GULP energy -644482.577468 kJ/mol
# GULP energy per Si atom -12393.895721 kJ/mol
# Density = 2.064409 g / cm^3
# Si number density = 20.691184 Si / 1000 Ang^3
#
#
#
# Elastic Constant Matrix: (Units=GPa)
#
#
# Indices 1 2 3 4 5 6 
#
# 1 49.6608 21.9508 22.0687 0.0000 0.0000 0.0000
# 2 21.9508 98.2889 61.8351 0.0000 0.0000 0.0000
# 3 22.0687 61.8351 115.5764 0.0000 0.0000 0.0000
# 4 0.0000 0.0000 0.0000 25.0200 0.0000 0.0000
# 5 0.0000 0.0000 0.0000 0.0000 27.4480 0.0000
# 6 0.0000 0.0000 0.0000 0.0000 0.0000 19.6788
#
#
#
# Elastic Compliance Matrix: (Units=1/GPa)
#
#
# Indices 1 2 3 4 5 6 
#
# 1 0.022795 -0.003546 -0.002455 0.000000 0.000000 0.000000
# 2 -0.003546 0.015888 -0.007823 0.000000 0.000000 0.000000
# 3 -0.002455 -0.007823 0.013307 0.000000 0.000000 0.000000
# 4 0.000000 0.000000 0.000000 0.039968 0.000000 0.000000
# 5 0.000000 0.000000 0.000000 0.000000 0.036433 0.000000
# 6 0.000000 0.000000 0.000000 0.000000 0.000000 0.050816
#
#
# Mechanical properties :
#
#
# Convention : Reuss Voigt Hill
#
# Bulk Modulus (GPa) = 41.08405 52.80390 46.94398
# Shear Modulus (GPa) = 23.25922 24.94079 24.10000
#
# Velocity S-wave (km/s) = 3.35642 3.47563 3.41654
# Velocity P-wave (km/s) = 5.90928 6.45616 6.18877
#
# Compressibility (1/GPa) = 0.02434035
#
# Stress axis : x y z
#
# Youngs Moduli (GPa) = 43.86893 62.94216 75.15100
#
# Poissons Ratio (x) = 0.22320 0.18453
# Poissons Ratio (y) = 0.15556 0.58791
# Poissons Ratio (z) = 0.10772 0.49240
#
# Static dielectric constant tensor:
#      x y z
#    x 3.510940 0.000000 0.000000 
#    y 0.000000 3.772590 0.000000 
#    z 0.000000 0.000000 3.861790 
# 
# 
# High freq. dielectric constant tensor:
#      x y z
#    x 1.789460 0.000000 0.000000 
#    y 0.000000 1.788000 0.000000 
#    z 0.000000 0.000000 1.815020 
# 
# From -- ./inp_files/63323.got.cif
#   From: 2010.06.25/outbox.cif.g09.slc.cpg/sg71_32_cif.got.tgz:63323.got - 2010.06.28 04:59:45.
