data_PCOD8291028
_publ_section_title
;
Structure prediction by ZEFSAII (Michael W. Deem and Ramdas Pophale) SiO2 
 PCOD8291028
Probable space group: I M M M
;
_chemical_formula_sum "Si O2"
_cell_formula_units_Z 104
_cell_length_a 14.811418
_cell_length_b 18.639482
_cell_length_c 19.056192
_cell_angle_alpha 90.000000
_cell_angle_beta 90.000000
_cell_angle_gamma 90.000000
_cell_volume 5260.979353
_symmetry_space_group_name_H-M "I M M M"
_symmetry_group_IT_number 71
_symmetry_cell_setting 'orthorhombic'
loop_
_space_group_symop_operation_xyz
x,y,z
-x,-y,z
x,-y,-z
-x,y,-z
-x,-y,-z
x,y,-z
-x,y,z
x,-y,z
1/2+x,1/2+y,1/2+z
1/2-x,1/2-y,1/2+z
1/2+x,1/2-y,1/2-z
1/2-x,1/2+y,1/2-z
1/2-x,1/2-y,1/2-z
1/2+x,1/2+y,1/2-z
1/2-x,1/2+y,1/2+z
1/2+x,1/2-y,1/2+z
loop_
_atom_site_type_symbol
_atom_site_label
_atom_site_fract_x
_atom_site_fract_y
_atom_site_fract_z
Si Si1 0.724047 0.844129 0.919594
Si Si2 0.103726 0.635266 0.833598
Si Si3 0.730814 0.714911 0.175336
Si Si4 0.893707 0.500000 0.922392
Si Si5 0.099684 0.418312 0.318893
Si Si6 0.395499 0.418028 0.789395
Si Si7 0.102273 0.081709 0.124060
O O1 0.691418 0.772519 0.879103
O O2 0.669096 0.907927 0.882290
O O3 0.830033 0.863575 0.914445
O O4 0.695038 0.836629 0.000000
O O5 0.170440 0.697959 0.857277
O O6 0.136745 0.568188 0.878535
O O7 0.124307 0.625212 0.751095
O O8 0.000000 0.656024 0.847734
O O9 0.750000 0.750000 0.250000
O O10 0.667350 0.643785 0.176451
O O11 0.000000 0.500000 0.930297
O O12 0.848866 0.500000 0.000000
O O13 0.101601 0.500000 0.294598
O O14 0.000000 0.396077 0.345138
O O15 0.500000 0.402914 0.809487
O O16 0.369315 0.500000 0.813567
O O17 0.381847 0.412544 0.706674
O O18 0.000000 0.104409 0.104746
O O19 0.119817 0.000000 0.099015
#
# Coordination Sequence:
#
# PCOD8291028 Si02
#       7
#    16  16  16   8  16  16  16
#     4  12  26  40  53  82 124 158 196 246 298 348
#     4  10  20  35  59  89 119 151 190 237 286 348
#     4  12  23  37  60  89 114 157 199 241 294 355
#     4   9  18  34  58  90 122 150 184 233 294 348
#     4  10  20  37  62  88 113 150 199 243 287 346
#     4   9  19  37  64  93 115 143 194 253 296 341
#     4   9  18  35  60  88 118 154 195 238 288 351
#
# _framework density 19.768183000000001
#
# number of rings (size 3 to 8) (size 9 to 14) (size 15 to 20)
#    0.000    1.769    3.846    1.385    1.077    5.538 
#    0.000    1.538    0.000    0.000    0.000    1.077 
#    0.000    0.000    0.000    0.000    0.000    0.000 
#
# Total GULP energy -644499.938323 kJ/mol
# GULP energy per Si atom -12394.229583 kJ/mol
# Density = 1.972319 g / cm^3
# Si number density = 19.768183 Si / 1000 Ang^3
#
#
#
# Elastic Constant Matrix: (Units=GPa)
#
#
# Indices 1 2 3 4 5 6 
#
# 1 82.1896 32.8161 20.4287 0.0000 0.0000 0.0000
# 2 32.8161 78.9682 13.5269 0.0000 0.0000 0.0000
# 3 20.4287 13.5269 70.2337 0.0000 0.0000 0.0000
# 4 0.0000 0.0000 0.0000 19.3979 0.0000 0.0000
# 5 0.0000 0.0000 0.0000 0.0000 15.1943 0.0000
# 6 0.0000 0.0000 0.0000 0.0000 0.0000 31.5502
#
#
#
# Elastic Compliance Matrix: (Units=1/GPa)
#
#
# Indices 1 2 3 4 5 6 
#
# 1 0.015308 -0.005790 -0.003338 0.000000 0.000000 0.000000
# 2 -0.005790 0.015285 -0.001260 0.000000 0.000000 0.000000
# 3 -0.003338 -0.001260 0.015452 0.000000 0.000000 0.000000
# 4 0.000000 0.000000 0.000000 0.051552 0.000000 0.000000
# 5 0.000000 0.000000 0.000000 0.000000 0.065814 0.000000
# 6 0.000000 0.000000 0.000000 0.000000 0.000000 0.031696
#
#
# Mechanical properties :
#
#
# Convention : Reuss Voigt Hill
#
# Bulk Modulus (GPa) = 39.57163 40.54830 40.05997
# Shear Modulus (GPa) = 22.29113 24.20314 23.24714
#
# Velocity S-wave (km/s) = 3.36166 3.50286 3.43299
# Velocity P-wave (km/s) = 5.92697 6.07590 6.00189
#
# Compressibility (1/GPa) = 0.02527063
#
# Stress axis : x y z
#
# Youngs Moduli (GPa) = 65.32412 65.42302 64.71815
#
# Poissons Ratio (x) = 0.37879 0.21600
# Poissons Ratio (y) = 0.37821 0.08153
# Poissons Ratio (z) = 0.21802 0.08242
#
# Static dielectric constant tensor:
#      x y z
#    x 3.708070 0.000000 0.000000 
#    y 0.000000 3.772350 0.000000 
#    z 0.000000 0.000000 3.400330 
# 
# 
# High freq. dielectric constant tensor:
#      x y z
#    x 1.773610 0.000000 0.000000 
#    y 0.000000 1.771840 0.000000 
#    z 0.000000 0.000000 1.736160 
# 
# From -- ./inp_files/36684.got.cif
#   From: 2010.06.25/outbox.cif.g09.slc.cpg/sg71_19_cif.got.tgz:36684.got - 2010.06.28 04:59:45.
