data_PCOD8291989
_publ_section_title
;
Structure prediction by ZEFSAII (Michael W. Deem and Ramdas Pophale) SiO2 
 PCOD8291989
Probable space group: I M M M
;
_chemical_formula_sum "Si O2"
_cell_formula_units_Z 104
_cell_length_a 26.997581
_cell_length_b 18.432009
_cell_length_c 11.183878
_cell_angle_alpha 90.000000
_cell_angle_beta 90.000000
_cell_angle_gamma 90.000000
_cell_volume 5565.317523
_symmetry_space_group_name_H-M "I M M M"
_symmetry_group_IT_number 71
_symmetry_cell_setting 'orthorhombic'
loop_
_space_group_symop_operation_xyz
x,y,z
-x,-y,z
x,-y,-z
-x,y,-z
-x,-y,-z
x,y,-z
-x,y,z
x,-y,z
1/2+x,1/2+y,1/2+z
1/2-x,1/2-y,1/2+z
1/2+x,1/2-y,1/2-z
1/2-x,1/2+y,1/2-z
1/2-x,1/2-y,1/2-z
1/2+x,1/2+y,1/2-z
1/2-x,1/2+y,1/2+z
1/2+x,1/2-y,1/2+z
loop_
_atom_site_type_symbol
_atom_site_label
_atom_site_fract_x
_atom_site_fract_y
_atom_site_fract_z
Si Si1 0.444411 0.914886 0.500000
Si Si2 0.187886 0.418156 0.363541
Si Si3 0.557474 0.585263 0.741936
Si Si4 0.618462 0.294701 0.365963
Si Si5 0.593680 0.147477 0.738819
Si Si6 0.000000 0.581828 0.360200
Si Si7 0.733276 0.701285 0.637757
Si Si8 0.941611 0.921025 0.500000
O O1 0.500000 0.880709 0.500000
O O2 0.413527 0.890132 0.612837
O O3 0.448991 0.000000 0.500000
O O4 0.169852 0.418179 0.500000
O O5 0.196605 0.500000 0.317592
O O6 0.145450 0.380214 0.287994
O O7 0.239194 0.375371 0.348316
O O8 0.500000 0.599318 0.715539
O O9 0.569570 0.500000 0.730857
O O10 0.589211 0.630028 0.647664
O O11 0.572910 0.616787 0.874508
O O12 0.610024 0.265664 0.500000
O O13 0.597208 0.234355 0.275194
O O14 0.675563 0.312261 0.343092
O O15 0.548311 0.126813 0.824089
O O16 0.000000 0.500000 0.302575
O O17 0.000000 0.573158 0.500000
O O18 0.743164 0.732049 0.500000
O O19 0.750000 0.750000 0.750000
O O20 0.000000 0.932527 0.500000
O O21 0.916258 0.000000 0.500000
#
# Coordination Sequence:
#
# PCOD8291989 Si02
#       8
#     8  16  16  16  16   8  16   8
#     4  11  22  36  56  81 114 164 207 235 281 355
#     4  10  21  39  66  93 115 149 199 248 298 359
#     4   9  19  37  60  86 118 159 202 243 292 350
#     4  11  24  39  57  86 123 158 194 247 301 349
#     4  12  22  38  58  85 122 157 195 243 295 355
#     4  11  24  41  59  83 120 156 196 254 302 348
#     4  10  21  42  64  85 118 157 195 245 305 360
#     4   7  12  30  56  79 107 145 188 236 284 335
#
# _framework density 18.687163000000002
#
# number of rings (size 3 to 8) (size 9 to 14) (size 15 to 20)
#    0.000    1.769    3.077    2.769    1.077    2.462 
#    4.154    2.308    0.000    0.000    0.000    0.000 
#    0.000    0.000    0.000    0.000    0.000    0.000 
#
# Total GULP energy -644462.341402 kJ/mol
# GULP energy per Si atom -12393.506565 kJ/mol
# Density = 1.864463 g / cm^3
# Si number density = 18.687163 Si / 1000 Ang^3
#
#
#
# Elastic Constant Matrix: (Units=GPa)
#
#
# Indices 1 2 3 4 5 6 
#
# 1 110.5809 64.7043 43.2462 0.0000 0.0000 0.0000
# 2 64.7043 112.7510 45.5542 0.0000 0.0000 0.0000
# 3 43.2462 45.5542 81.8069 0.0000 0.0000 0.0000
# 4 0.0000 0.0000 0.0000 27.1295 0.0000 0.0000
# 5 0.0000 0.0000 0.0000 0.0000 31.8263 0.0000
# 6 0.0000 0.0000 0.0000 0.0000 0.0000 31.3002
#
#
#
# Elastic Compliance Matrix: (Units=1/GPa)
#
#
# Indices 1 2 3 4 5 6 
#
# 1 0.014528 -0.006753 -0.003919 0.000000 0.000000 0.000000
# 2 -0.006753 0.014583 -0.004551 0.000000 0.000000 0.000000
# 3 -0.003919 -0.004551 0.016830 0.000000 0.000000 0.000000
# 4 0.000000 0.000000 0.000000 0.036860 0.000000 0.000000
# 5 0.000000 0.000000 0.000000 0.000000 0.031421 0.000000
# 6 0.000000 0.000000 0.000000 0.000000 0.000000 0.031949
#
#
# Mechanical properties :
#
#
# Convention : Reuss Voigt Hill
#
# Bulk Modulus (GPa) = 64.54043 68.01646 66.27844
# Shear Modulus (GPa) = 27.50564 28.16014 27.83289
#
# Velocity S-wave (km/s) = 3.84070 3.88612 3.86348
# Velocity P-wave (km/s) = 7.36751 7.52412 7.44623
#
# Compressibility (1/GPa) = 0.01549417
#
# Stress axis : x y z
#
# Youngs Moduli (GPa) = 68.83485 68.57181 59.41891
#
# Poissons Ratio (x) = 0.46310 0.23287
# Poissons Ratio (y) = 0.46488 0.27039
# Poissons Ratio (z) = 0.26977 0.31204
#
# Static dielectric constant tensor:
#      x y z
#    x 3.405830 0.000000 0.000000 
#    y 0.000000 3.378330 0.000000 
#    z 0.000000 0.000000 3.688390 
# 
# 
# High freq. dielectric constant tensor:
#      x y z
#    x 1.719930 0.000000 0.000000 
#    y 0.000000 1.717820 0.000000 
#    z 0.000000 0.000000 1.737020 
# 
# From -- ./inp_files/28938.got.cif
#   From: 2010.06.25/outbox.cif.g09.slc.cpg/sg71_15_cif.got.tgz:28938.got - 2010.06.28 04:59:45.
