data_PCOD8291642
_publ_section_title
;
Structure prediction by ZEFSAII (Michael W. Deem and Ramdas Pophale) SiO2 
 PCOD8291642
Probable space group: I M M M
;
_chemical_formula_sum "Si O2"
_cell_formula_units_Z 72
_cell_length_a 9.174824
_cell_length_b 19.679709
_cell_length_c 19.748021
_cell_angle_alpha 90.000000
_cell_angle_beta 90.000000
_cell_angle_gamma 90.000000
_cell_volume 3565.660538
_symmetry_space_group_name_H-M "I M M M"
_symmetry_group_IT_number 71
_symmetry_cell_setting 'orthorhombic'
loop_
_space_group_symop_operation_xyz
x,y,z
-x,-y,z
x,-y,-z
-x,y,-z
-x,-y,-z
x,y,-z
-x,y,z
x,-y,z
1/2+x,1/2+y,1/2+z
1/2-x,1/2-y,1/2+z
1/2+x,1/2-y,1/2-z
1/2-x,1/2+y,1/2-z
1/2-x,1/2-y,1/2-z
1/2+x,1/2+y,1/2-z
1/2-x,1/2+y,1/2+z
1/2+x,1/2-y,1/2+z
loop_
_atom_site_type_symbol
_atom_site_label
_atom_site_fract_x
_atom_site_fract_y
_atom_site_fract_z
Si Si1 0.668196 0.704874 0.079808
Si Si2 0.339323 0.080067 0.000000
Si Si3 0.162747 0.425328 0.919679
Si Si4 0.167647 0.076018 0.868173
Si Si5 0.330665 0.714423 0.688503
O O1 0.500000 0.711510 0.100489
O O2 0.722353 0.630767 0.105195
O O3 0.763397 0.760905 0.117712
O O4 0.692147 0.715456 0.000000
O O5 0.256362 0.102928 0.932770
O O6 0.500000 0.114330 0.000000
O O7 0.353334 0.000000 0.000000
O O8 0.210089 0.500000 0.892417
O O9 0.000000 0.407426 0.893111
O O10 0.160769 0.426820 0.000000
O O11 0.191017 0.132113 0.808935
O O12 0.000000 0.073905 0.890588
O O13 0.217361 0.000000 0.844177
O O14 0.500000 0.733908 0.691734
O O15 0.250000 0.750000 0.750000
#
# Coordination Sequence:
#
# PCOD8291642 Si02
#       5
#    16   8  16  16  16
#     4  10  21  36  56  84 116 151 192 239 290 348
#     4   9  17  29  51  87 123 151 182 229 288 343
#     4   8  14  27  49  77 109 144 184 233 284 332
#     4   9  19  37  60  85 114 150 194 241 292 354
#     4  11  24  41  61  83 114 155 195 241 298 358
#
# _framework density 20.192612
#
# number of rings (size 3 to 8) (size 9 to 14) (size 15 to 20)
#    0.000    2.556    0.000    2.333    1.556    4.889 
#    0.000    3.333    0.000    4.000    0.000    0.000 
#    0.000    0.000    0.000    0.000    0.000    0.000 
#
# Total GULP energy -446196.690837 kJ/mol
# GULP energy per Si atom -12394.352523 kJ/mol
# Density = 2.014665 g / cm^3
# Si number density = 20.192612 Si / 1000 Ang^3
#
#
#
# Elastic Constant Matrix: (Units=GPa)
#
#
# Indices 1 2 3 4 5 6 
#
# 1 125.7403 63.6030 47.2523 0.0000 0.0000 0.0000
# 2 63.6030 133.0210 50.2773 0.0000 0.0000 0.0000
# 3 47.2523 50.2773 65.4617 0.0000 0.0000 0.0000
# 4 0.0000 0.0000 0.0000 24.0683 0.0000 0.0000
# 5 0.0000 0.0000 0.0000 0.0000 31.4010 0.0000
# 6 0.0000 0.0000 0.0000 0.0000 0.0000 27.4786
#
#
#
# Elastic Compliance Matrix: (Units=1/GPa)
#
#
# Indices 1 2 3 4 5 6 
#
# 1 0.011943 -0.003455 -0.005967 0.000000 0.000000 0.000000
# 2 -0.003455 0.011592 -0.006409 0.000000 0.000000 0.000000
# 3 -0.005967 -0.006409 0.024506 0.000000 0.000000 0.000000
# 4 0.000000 0.000000 0.000000 0.041548 0.000000 0.000000
# 5 0.000000 0.000000 0.000000 0.000000 0.031846 0.000000
# 6 0.000000 0.000000 0.000000 0.000000 0.000000 0.036392
#
#
# Mechanical properties :
#
#
# Convention : Reuss Voigt Hill
#
# Bulk Modulus (GPa) = 61.05724 71.83201 66.44463
# Shear Modulus (GPa) = 25.64763 27.46229 26.55496
#
# Velocity S-wave (km/s) = 3.56778 3.69184 3.63034
# Velocity P-wave (km/s) = 6.87569 7.33645 7.10981
#
# Compressibility (1/GPa) = 0.01637807
#
# Stress axis : x y z
#
# Youngs Moduli (GPa) = 83.73110 86.26572 40.80640
#
# Poissons Ratio (x) = 0.29805 0.24350
# Poissons Ratio (y) = 0.28930 0.26154
# Poissons Ratio (z) = 0.49964 0.55290
#
# Static dielectric constant tensor:
#      x y z
#    x 3.853710 0.000000 0.000000 
#    y 0.000000 4.108670 0.000000 
#    z 0.000000 0.000000 3.222390 
# 
# 
# High freq. dielectric constant tensor:
#      x y z
#    x 1.792350 0.000000 0.000000 
#    y 0.000000 1.804050 0.000000 
#    z 0.000000 0.000000 1.742690 
# 
# From -- ./inp_files/50213.got.cif
#   From: 2010.06.25/outbox.cif.g09.slc.cpg/sg71_26_cif.got.tgz:50213.got - 2010.06.28 04:59:45.
