data_PCOD8291658
_publ_section_title
;
Structure prediction by ZEFSAII (Michael W. Deem and Ramdas Pophale) SiO2 
 PCOD8291658
Probable space group: I M M M
;
_chemical_formula_sum "Si O2"
_cell_formula_units_Z 96
_cell_length_a 15.312242
_cell_length_b 19.476177
_cell_length_c 14.962432
_cell_angle_alpha 90.000000
_cell_angle_beta 90.000000
_cell_angle_gamma 90.000000
_cell_volume 4462.155355
_symmetry_space_group_name_H-M "I M M M"
_symmetry_group_IT_number 71
_symmetry_cell_setting 'orthorhombic'
loop_
_space_group_symop_operation_xyz
x,y,z
-x,-y,z
x,-y,-z
-x,y,-z
-x,-y,-z
x,y,-z
-x,y,z
x,-y,z
1/2+x,1/2+y,1/2+z
1/2-x,1/2-y,1/2+z
1/2+x,1/2-y,1/2-z
1/2-x,1/2+y,1/2-z
1/2-x,1/2-y,1/2-z
1/2+x,1/2+y,1/2-z
1/2-x,1/2+y,1/2+z
1/2+x,1/2-y,1/2+z
loop_
_atom_site_type_symbol
_atom_site_label
_atom_site_fract_x
_atom_site_fract_y
_atom_site_fract_z
Si Si1 0.341078 0.716334 0.401888
Si Si2 0.217537 0.422340 0.098370
Si Si3 0.400292 0.577046 0.657857
Si Si4 0.904622 0.880912 0.639009
Si Si5 0.596905 0.170238 0.717836
Si Si6 0.140269 0.729459 0.398564
O O1 0.375498 0.737948 0.500000
O O2 0.344532 0.633548 0.395368
O O3 0.398054 0.753359 0.325469
O O4 0.242887 0.742533 0.390645
O O5 0.199173 0.500000 0.127058
O O6 0.321674 0.410941 0.087320
O O7 0.171106 0.376028 0.172562
O O8 0.177598 0.406890 0.000000
O O9 0.500000 0.581248 0.625190
O O10 0.363506 0.500000 0.639927
O O11 0.391854 0.595263 0.760584
O O12 0.908108 0.799215 0.627187
O O13 0.000000 0.908216 0.604581
O O14 0.500000 0.140290 0.700169
O O15 0.611916 0.173057 0.824860
O O16 0.115279 0.705822 0.500000
#
# Coordination Sequence:
#
# PCOD8291658 Si02
#       6
#    16  16  16  16  16  16
#     4  11  22  38  62  90 124 168 215 260 312 375
#     4  11  25  43  63  93 131 169 213 262 312 375
#     4  10  21  36  56  88 129 169 210 257 309 372
#     4  11  21  38  63  92 128 169 209 257 321 382
#     4  12  24  41  66  93 125 168 215 264 317 372
#     4  11  23  40  64  94 127 160 205 269 324 371
#
# _framework density 21.514265999999999
#
# number of rings (size 3 to 8) (size 9 to 14) (size 15 to 20)
#    0.000    1.000    3.333    4.000    0.000    6.333 
#    0.000    2.500    0.000    1.500    0.000    1.167 
#    0.000    0.000    0.000    0.000    0.000    0.000 
#
# Total GULP energy -594976.700738 kJ/mol
# GULP energy per Si atom -12395.347932 kJ/mol
# Density = 2.146530 g / cm^3
# Si number density = 21.514266 Si / 1000 Ang^3
#
#
#
# Elastic Constant Matrix: (Units=GPa)
#
#
# Indices 1 2 3 4 5 6 
#
# 1 95.2792 29.6301 41.0211 0.0000 -0.0002 0.0000
# 2 29.6301 105.1000 47.5477 0.0000 0.0000 0.0000
# 3 41.0211 47.5477 121.5853 0.0001 0.0001 0.0000
# 4 0.0000 0.0000 0.0001 28.1136 0.0001 0.0000
# 5 -0.0002 0.0000 0.0001 0.0001 531.8183 -0.0002
# 6 0.0000 0.0000 0.0000 0.0000 -0.0002 18.3279
#
#
#
# Elastic Compliance Matrix: (Units=1/GPa)
#
#
# Indices 1 2 3 4 5 6 
#
# 1 0.012610 -0.001981 -0.003480 0.000000 0.000000 0.000000
# 2 -0.001981 0.011871 -0.003974 0.000000 0.000000 0.000000
# 3 -0.003480 -0.003974 0.010953 0.000000 0.000000 0.000000
# 4 0.000000 0.000000 0.000000 0.035570 0.000000 0.000000
# 5 0.000000 0.000000 0.000000 0.000000 0.001880 0.000000
# 6 0.000000 0.000000 0.000000 0.000000 0.000000 0.054562
#
#
# Mechanical properties :
#
#
# Convention : Reuss Voigt Hill
#
# Bulk Modulus (GPa) = 60.37025 62.04025 61.20525
# Shear Modulus (GPa) = 32.93030 129.23632 81.08331
#
# Velocity S-wave (km/s) = 3.91657 7.75890 6.14573
# Velocity P-wave (km/s) = 6.96951 10.44829 8.88090
#
# Compressibility (1/GPa) = 0.01656445
#
# Stress axis : x y z
#
# Youngs Moduli (GPa) = 79.30484 84.23856 91.30074
#
# Poissons Ratio (x) = 0.16685 0.31770
# Poissons Ratio (y) = 0.15708 0.36284
# Poissons Ratio (z) = 0.27596 0.33477
#
# Static dielectric constant tensor:
#      x y z
#    x 3.874140 0.000000 0.000000 
#    y 0.000000 3.810580 0.000000 
#    z 0.000000 0.000000 3.960500 
# 
# 
# High freq. dielectric constant tensor:
#      x y z
#    x 1.837540 0.000000 0.000000 
#    y 0.000000 1.823900 0.000000 
#    z 0.000000 0.000000 1.851470 
# 
# From -- ./inp_files/34519.got.cif
#   From: 2010.06.25/outbox.cif.g09.slc.cpg/sg71_18_cif.got.tgz:34519.got - 2010.06.28 04:59:45.
