data_PCOD8291046
_publ_section_title
;
Structure prediction by ZEFSAII (Michael W. Deem and Ramdas Pophale) SiO2 
 PCOD8291046
Probable space group: I M M M
;
_chemical_formula_sum "Si O2"
_cell_formula_units_Z 120
_cell_length_a 8.792154
_cell_length_b 26.692965
_cell_length_c 27.794228
_cell_angle_alpha 90.000000
_cell_angle_beta 90.000000
_cell_angle_gamma 90.000000
_cell_volume 6522.990097
_symmetry_space_group_name_H-M "I M M M"
_symmetry_group_IT_number 71
_symmetry_cell_setting 'orthorhombic'
loop_
_space_group_symop_operation_xyz
x,y,z
-x,-y,z
x,-y,-z
-x,y,-z
-x,-y,-z
x,y,-z
-x,y,z
x,-y,z
1/2+x,1/2+y,1/2+z
1/2-x,1/2-y,1/2+z
1/2+x,1/2-y,1/2-z
1/2-x,1/2+y,1/2-z
1/2-x,1/2-y,1/2-z
1/2+x,1/2+y,1/2-z
1/2-x,1/2+y,1/2+z
1/2+x,1/2-y,1/2+z
loop_
_atom_site_type_symbol
_atom_site_label
_atom_site_fract_x
_atom_site_fract_y
_atom_site_fract_z
Si Si1 0.178228 0.909131 0.388036
Si Si2 0.678918 0.797848 0.054767
Si Si3 0.180460 0.736822 0.300848
Si Si4 0.178954 0.798625 0.609203
Si Si5 0.671011 0.058630 0.704687
Si Si6 0.320526 0.000000 0.554823
Si Si7 0.178024 0.557308 0.685989
Si Si8 0.178538 0.850594 0.858230
O O1 0.241413 0.854026 0.403091
O O2 0.212547 0.914800 0.331401
O O3 0.263049 0.950066 0.419583
O O4 0.000000 0.915333 0.397075
O O5 0.500000 0.805261 0.063949
O O6 0.726077 0.740665 0.067703
O O7 0.769133 0.836587 0.087984
O O8 0.724677 0.808564 0.000000
O O9 0.250000 0.750000 0.250000
O O10 0.238495 0.778119 0.339366
O O11 0.237164 0.682644 0.318167
O O12 0.000000 0.735093 0.296948
O O13 0.000000 0.803447 0.613118
O O14 0.500000 0.078918 0.696029
O O15 0.723352 0.069723 0.758992
O O16 0.674162 0.000000 0.694007
O O17 0.500000 0.000000 0.557877
O O18 0.262138 0.000000 0.500000
O O19 0.218675 0.500000 0.673753
O O20 0.276556 0.591827 0.650759
O O21 0.000000 0.567148 0.677986
O O22 0.000000 0.842863 0.853419
#
# Coordination Sequence:
#
# PCOD8291046 Si02
#       8
#    16  16  16  16  16   8  16  16
#     4  11  21  34  55  81 106 135 174 227 282 333
#     4   9  18  37  63  83 104 141 185 229 279 334
#     4  10  20  36  54  77 111 149 188 228 276 334
#     4   8  18  34  52  79 110 136 172 224 277 327
#     4   9  18  33  52  74 104 143 181 219 265 315
#     4  11  25  43  57  71  99 141 185 231 282 333
#     4   9  19  36  57  82 112 151 194 231 268 318
#     4  11  22  35  54  83 118 152 184 225 277 331
#
# _framework density 18.396470999999998
#
# number of rings (size 3 to 8) (size 9 to 14) (size 15 to 20)
#    0.000    2.333    0.667    3.800    1.867    2.133 
#    0.000    8.667    0.000    0.400    0.000    2.800 
#    0.000    0.000    0.000    0.000    0.000    0.000 
#
# Total GULP energy -743950.898942 kJ/mol
# GULP energy per Si atom -12399.181649 kJ/mol
# Density = 1.835460 g / cm^3
# Si number density = 18.396471 Si / 1000 Ang^3
#
#
#
# Elastic Constant Matrix: (Units=GPa)
#
#
# Indices 1 2 3 4 5 6 
#
# 1 68.8608 36.3320 40.4916 0.0000 0.0000 0.0000
# 2 36.3320 115.2263 58.2005 0.0000 0.0000 0.0000
# 3 40.4916 58.2005 110.2329 0.0000 0.0000 0.0000
# 4 0.0000 0.0000 0.0000 19.6056 0.0000 0.0000
# 5 0.0000 0.0000 0.0000 0.0000 24.8980 0.0000
# 6 0.0000 0.0000 0.0000 0.0000 0.0000 18.3832
#
#
#
# Elastic Compliance Matrix: (Units=1/GPa)
#
#
# Indices 1 2 3 4 5 6 
#
# 1 0.019478 -0.003447 -0.005335 0.000000 0.000000 0.000000
# 2 -0.003447 0.012445 -0.005304 0.000000 0.000000 0.000000
# 3 -0.005335 -0.005304 0.013832 0.000000 0.000000 0.000000
# 4 0.000000 0.000000 0.000000 0.051006 0.000000 0.000000
# 5 0.000000 0.000000 0.000000 0.000000 0.040164 0.000000
# 6 0.000000 0.000000 0.000000 0.000000 0.000000 0.054398
#
#
# Mechanical properties :
#
#
# Convention : Reuss Voigt Hill
#
# Bulk Modulus (GPa) = 56.87605 62.70757 59.79181
# Shear Modulus (GPa) = 22.18728 23.19707 22.69217
#
# Velocity S-wave (km/s) = 3.47661 3.55484 3.51594
# Velocity P-wave (km/s) = 6.86292 7.14212 7.00391
#
# Compressibility (1/GPa) = 0.01758209
#
# Stress axis : x y z
#
# Youngs Moduli (GPa) = 51.34089 80.35601 72.29667
#
# Poissons Ratio (x) = 0.27698 0.38569
# Poissons Ratio (y) = 0.17697 0.38349
# Poissons Ratio (z) = 0.27389 0.42624
#
# Static dielectric constant tensor:
#      x y z
#    x 3.232350 0.000000 0.000000 
#    y 0.000000 3.549670 0.000000 
#    z 0.000000 0.000000 3.387010 
# 
# 
# High freq. dielectric constant tensor:
#      x y z
#    x 1.701710 0.000000 0.000000 
#    y 0.000000 1.713760 0.000000 
#    z 0.000000 0.000000 1.704930 
# 
# From -- ./inp_files/15597.got.cif
#   From: 2010.06.25/outbox.cif.g09.slc.cpg/sg71_8_cif.got.tgz:15597.got - 2010.06.28 04:59:45.
