data_PCOD8291755
_publ_section_title
;
Structure prediction by ZEFSAII (Michael W. Deem and Ramdas Pophale) SiO2 
 PCOD8291755
Probable space group: I M M M
;
_chemical_formula_sum "Si O2"
_cell_formula_units_Z 80
_cell_length_a 9.116643
_cell_length_b 16.529432
_cell_length_c 27.323418
_cell_angle_alpha 90.000000
_cell_angle_beta 90.000000
_cell_angle_gamma 90.000000
_cell_volume 4117.445931
_symmetry_space_group_name_H-M "I M M M"
_symmetry_group_IT_number 71
_symmetry_cell_setting 'orthorhombic'
loop_
_space_group_symop_operation_xyz
x,y,z
-x,-y,z
x,-y,-z
-x,y,-z
-x,-y,-z
x,y,-z
-x,y,z
x,-y,z
1/2+x,1/2+y,1/2+z
1/2-x,1/2-y,1/2+z
1/2+x,1/2-y,1/2-z
1/2-x,1/2+y,1/2-z
1/2-x,1/2-y,1/2-z
1/2+x,1/2+y,1/2-z
1/2-x,1/2+y,1/2+z
1/2+x,1/2-y,1/2+z
loop_
_atom_site_type_symbol
_atom_site_label
_atom_site_fract_x
_atom_site_fract_y
_atom_site_fract_z
Si Si1 0.839692 0.000000 0.556700
Si Si2 0.832212 0.181176 0.805090
Si Si3 0.326564 0.092720 0.000000
Si Si4 0.167132 0.843911 0.700598
Si Si5 0.833511 0.176799 0.088455
Si Si6 0.169569 0.635166 0.107883
O O1 0.751294 0.080683 0.568896
O O2 0.864350 0.000000 0.500000
O O3 0.000000 0.000000 0.582610
O O4 0.815225 0.123425 0.757006
O O5 0.710314 0.249878 0.799644
O O6 0.808271 0.136139 0.857504
O O7 0.000000 0.217615 0.805863
O O8 0.271316 0.136694 0.048848
O O9 0.500000 0.097830 0.000000
O O10 0.271726 0.000000 0.000000
O O11 0.270563 0.889560 0.661912
O O12 0.000000 0.853371 0.683022
O O13 0.798190 0.271872 0.094345
O O14 0.000000 0.163909 0.070472
O O15 0.000000 0.613997 0.106353
#
# Coordination Sequence:
#
# PCOD8291755 Si02
#       6
#     8  16   8  16  16  16
#     4  11  25  41  57  81 113 149 193 240 283 326
#     4   8  15  28  48  79 112 141 179 224 271 327
#     4  11  25  41  57  80 111 142 177 229 288 335
#     4   9  15  26  49  79 112 145 180 224 273 321
#     4   9  19  36  59  85 110 143 187 227 270 334
#     4  10  21  37  57  83 115 150 189 229 275 332
#
# _framework density 19.429521000000001
#
# number of rings (size 3 to 8) (size 9 to 14) (size 15 to 20)
#    0.000    2.600    0.000    3.000    1.400    6.400 
#    0.000    0.000    2.200    0.000    0.000    0.000 
#    0.000    0.000    0.000    0.000    0.000    0.000 
#
# Total GULP energy -495578.144385 kJ/mol
# GULP energy per Si atom -12389.453610 kJ/mol
# Density = 1.938530 g / cm^3
# Si number density = 19.429521 Si / 1000 Ang^3
#
#
#
# Elastic Constant Matrix: (Units=GPa)
#
#
# Indices 1 2 3 4 5 6 
#
# 1 114.6533 39.7120 61.3877 0.0000 0.0000 0.0000
# 2 39.7120 53.5107 42.5410 0.0000 0.0000 0.0000
# 3 61.3877 42.5410 147.6538 0.0000 0.0000 0.0000
# 4 0.0000 0.0000 0.0000 12.9825 0.0000 0.0000
# 5 0.0000 0.0000 0.0000 0.0000 32.6521 0.0000
# 6 0.0000 0.0000 0.0000 0.0000 0.0000 18.8529
#
#
#
# Elastic Compliance Matrix: (Units=1/GPa)
#
#
# Indices 1 2 3 4 5 6 
#
# 1 0.012925 -0.006900 -0.003385 0.000000 0.000000 0.000000
# 2 -0.006900 0.027924 -0.005176 0.000000 0.000000 0.000000
# 3 -0.003385 -0.005176 0.009671 0.000000 0.000000 0.000000
# 4 0.000000 0.000000 0.000000 0.077027 0.000000 0.000000
# 5 0.000000 0.000000 0.000000 0.000000 0.030626 0.000000
# 6 0.000000 0.000000 0.000000 0.000000 0.000000 0.053042
#
#
# Mechanical properties :
#
#
# Convention : Reuss Voigt Hill
#
# Bulk Modulus (GPa) = 51.03133 67.01102 59.02118
# Shear Modulus (GPa) = 20.10687 24.37597 22.24142
#
# Velocity S-wave (km/s) = 3.22042 3.54585 3.38705
# Velocity P-wave (km/s) = 6.33640 7.16437 6.76307
#
# Compressibility (1/GPa) = 0.01959580
#
# Stress axis : x y z
#
# Youngs Moduli (GPa) = 77.37181 35.81136 103.39680
#
# Poissons Ratio (x) = 0.24711 0.35004
# Poissons Ratio (y) = 0.53390 0.53523
# Poissons Ratio (z) = 0.26193 0.18538
#
# Static dielectric constant tensor:
#      x y z
#    x 3.621120 0.000000 0.000000 
#    y 0.000000 3.098260 0.000000 
#    z 0.000000 0.000000 3.979810 
# 
# 
# High freq. dielectric constant tensor:
#      x y z
#    x 1.766020 0.000000 0.000000 
#    y 0.000000 1.698410 0.000000 
#    z 0.000000 0.000000 1.780500 
# 
# From -- ./inp_files/63061.got.cif
#   From: 2010.06.25/outbox.cif.g09.slc.cpg/sg71_32_cif.got.tgz:63061.got - 2010.06.28 04:59:45.
