data_PCOD8291245
_publ_section_title
;
Structure prediction by ZEFSAII (Michael W. Deem and Ramdas Pophale) SiO2 
 PCOD8291245
Probable space group: I M M M
;
_chemical_formula_sum "Si O2"
_cell_formula_units_Z 72
_cell_length_a 7.916021
_cell_length_b 31.800638
_cell_length_c 14.076332
_cell_angle_alpha 90.000000
_cell_angle_beta 90.000000
_cell_angle_gamma 90.000000
_cell_volume 3543.498654
_symmetry_space_group_name_H-M "I M M M"
_symmetry_group_IT_number 71
_symmetry_cell_setting 'orthorhombic'
loop_
_space_group_symop_operation_xyz
x,y,z
-x,-y,z
x,-y,-z
-x,y,-z
-x,-y,-z
x,y,-z
-x,y,z
x,-y,z
1/2+x,1/2+y,1/2+z
1/2-x,1/2-y,1/2+z
1/2+x,1/2-y,1/2-z
1/2-x,1/2+y,1/2-z
1/2-x,1/2-y,1/2-z
1/2+x,1/2+y,1/2-z
1/2-x,1/2+y,1/2+z
1/2+x,1/2-y,1/2+z
loop_
_atom_site_type_symbol
_atom_site_label
_atom_site_fract_x
_atom_site_fract_y
_atom_site_fract_z
Si Si1 0.500000 0.048249 0.387964
Si Si2 0.697236 0.048061 0.892590
Si Si3 0.313084 0.591501 0.787820
Si Si4 0.200085 0.237186 0.107899
Si Si5 0.193949 0.682982 0.226149
O O1 0.500000 0.052680 0.500000
O O2 0.670268 0.069503 0.350385
O O3 0.500000 0.000000 0.354141
O O4 0.500000 0.052590 0.869656
O O5 0.798891 0.077914 0.822030
O O6 0.754669 0.000000 0.877864
O O7 0.736605 0.062484 0.000000
O O8 0.500000 0.578686 0.825131
O O9 0.301718 0.641660 0.793529
O O10 0.259000 0.281413 0.153214
O O11 0.283101 0.198975 0.165882
O O12 0.000000 0.233081 0.114713
O O13 0.265150 0.234918 0.000000
O O14 0.000000 0.671441 0.208107
#
# Coordination Sequence:
#
# PCOD8291245 Si02
#       5
#     8  16  16  16  16
#     4  11  26  48  69  91 125 165 212 274 331 379
#     4   9  18  35  60  89 122 160 202 249 308 378
#     4  12  24  40  65  95 127 168 212 263 319 378
#     4   9  19  36  59  86 119 161 204 252 310 368
#     4  10  20  37  58  87 123 163 204 253 307 367
#
# _framework density 20.318901
#
# number of rings (size 3 to 8) (size 9 to 14) (size 15 to 20)
#    0.000    1.889    2.222    2.000    0.000    5.778 
#    0.000    2.222    0.000    0.000    0.000    0.000 
#    0.000    0.000    0.000    0.000    0.000    0.000 
#
# Total GULP energy -446479.791745 kJ/mol
# GULP energy per Si atom -12402.216437 kJ/mol
# Density = 2.027265 g / cm^3
# Si number density = 20.318901 Si / 1000 Ang^3
#
#
#
# Elastic Constant Matrix: (Units=GPa)
#
#
# Indices 1 2 3 4 5 6 
#
# 1 109.8984 46.5842 34.0557 0.0001 0.0000 0.0000
# 2 46.5842 111.8247 37.2663 -0.0005 0.0000 0.0000
# 3 34.0557 37.2663 101.1398 -0.0009 0.0000 0.0001
# 4 0.0001 -0.0005 -0.0009 14.0687 0.0000 0.0001
# 5 0.0000 0.0000 0.0000 0.0000 17.8217 -0.0001
# 6 0.0000 0.0000 0.0001 0.0001 -0.0001 5.5025
#
#
#
# Elastic Compliance Matrix: (Units=1/GPa)
#
#
# Indices 1 2 3 4 5 6 
#
# 1 0.011544 -0.004006 -0.002411 0.000000 0.000000 0.000000
# 2 -0.004006 0.011584 -0.002920 0.000000 0.000000 0.000000
# 3 -0.002411 -0.002920 0.011775 0.000001 0.000000 0.000000
# 4 0.000000 0.000000 0.000001 0.071080 0.000000 -0.000001
# 5 0.000000 0.000000 0.000000 0.000000 0.056112 0.000001
# 6 0.000000 0.000000 0.000000 -0.000001 0.000001 0.181736
#
#
# Mechanical properties :
#
#
# Convention : Reuss Voigt Hill
#
# Bulk Modulus (GPa) = 61.61195 62.07503 61.84349
# Shear Modulus (GPa) = 13.59012 21.14235 17.36623
#
# Velocity S-wave (km/s) = 2.58900 3.22922 2.92667
# Velocity P-wave (km/s) = 6.27101 6.67237 6.47480
#
# Compressibility (1/GPa) = 0.01623062
#
# Stress axis : x y z
#
# Youngs Moduli (GPa) = 86.62158 86.32437 84.92573
#
# Poissons Ratio (x) = 0.34578 0.20478
# Poissons Ratio (y) = 0.34697 0.24795
# Poissons Ratio (z) = 0.20887 0.25203
#
# Static dielectric constant tensor:
#      x y z
#    x 3.573120 0.000000 0.000000 
#    y 0.000000 3.656360 0.000000 
#    z 0.000000 0.000000 3.761020 
# 
# 
# High freq. dielectric constant tensor:
#      x y z
#    x 1.791170 0.000000 0.000000 
#    y 0.000000 1.791940 0.000000 
#    z 0.000000 0.000000 1.791710 
# 
# From -- ./inp_files/31676.got.cif
#   From: 2010.06.25/outbox.cif.g09.slc.cpg/sg71_16_cif.got.tgz:31676.got - 2010.06.28 04:59:45.
