data_PCOD8291351
_publ_section_title
;
Structure prediction by ZEFSAII (Michael W. Deem and Ramdas Pophale) SiO2 
 PCOD8291351
Probable space group: I M M M
;
_chemical_formula_sum "Si O2"
_cell_formula_units_Z 88
_cell_length_a 20.088493
_cell_length_b 25.042105
_cell_length_c 9.017994
_cell_angle_alpha 90.000000
_cell_angle_beta 90.000000
_cell_angle_gamma 90.000000
_cell_volume 4536.575387
_symmetry_space_group_name_H-M "I M M M"
_symmetry_group_IT_number 71
_symmetry_cell_setting 'orthorhombic'
loop_
_space_group_symop_operation_xyz
x,y,z
-x,-y,z
x,-y,-z
-x,y,-z
-x,-y,-z
x,y,-z
-x,y,z
x,-y,z
1/2+x,1/2+y,1/2+z
1/2-x,1/2-y,1/2+z
1/2+x,1/2-y,1/2-z
1/2-x,1/2+y,1/2-z
1/2-x,1/2-y,1/2-z
1/2+x,1/2+y,1/2-z
1/2-x,1/2+y,1/2+z
1/2+x,1/2-y,1/2+z
loop_
_atom_site_type_symbol
_atom_site_label
_atom_site_fract_x
_atom_site_fract_y
_atom_site_fract_z
Si Si1 0.610126 0.844841 0.834431
Si Si2 0.000000 0.829830 0.675650
Si Si3 0.000000 0.718300 0.826138
Si Si4 0.921363 0.558903 0.837168
Si Si5 0.875617 0.115816 0.824061
Si Si6 0.422961 0.500000 0.325309
Si Si7 0.757737 0.194093 0.832915
O O1 0.566250 0.814534 0.712251
O O2 0.608284 0.907088 0.796470
O O3 0.686280 0.831234 0.822826
O O4 0.582293 0.834210 0.000000
O O5 0.000000 0.768813 0.721466
O O6 0.064386 0.856533 0.742094
O O7 0.000000 0.835119 0.500000
O O8 0.000000 0.732918 0.000000
O O9 0.891807 0.500000 0.817050
O O10 0.000000 0.558160 0.824395
O O11 0.900912 0.581298 0.000000
O O12 0.809865 0.149181 0.770542
O O13 0.880068 0.052803 0.776618
O O14 0.884132 0.120752 0.000000
O O15 0.500000 0.500000 0.260690
O O16 0.430378 0.500000 0.500000
O O17 0.750000 0.250000 0.750000
O O18 0.779194 0.207859 0.000000
#
# Coordination Sequence:
#
# PCOD8291351 Si02
#       7
#    16   8   8  16  16   8  16
#     4  11  22  37  56  86 120 148 187 246 304 347
#     4  12  24  37  57  89 120 148 186 245 300 348
#     4  12  24  38  58  84 112 154 201 242 288 357
#     4   9  18  34  56  81 110 148 193 233 273 336
#     4  10  20  39  63  88 117 158 203 240 291 365
#     4   9  16  32  64  96 118 149 196 249 291 348
#     4  10  23  40  59  85 118 156 198 244 297 358
#
# _framework density 19.397893
#
# number of rings (size 3 to 8) (size 9 to 14) (size 15 to 20)
#    0.000    1.727    1.818    3.818    0.000    5.455 
#    1.636    1.818    0.000    0.000    0.000    0.000 
#    0.000    0.000    0.000    0.000    0.000    0.000 
#
# Total GULP energy -545188.211825 kJ/mol
# GULP energy per Si atom -12390.641178 kJ/mol
# Density = 1.935374 g / cm^3
# Si number density = 19.397893 Si / 1000 Ang^3
#
#
#
# Elastic Constant Matrix: (Units=GPa)
#
#
# Indices 1 2 3 4 5 6 
#
# 1 89.8092 55.5952 40.7414 0.0000 0.0000 0.0000
# 2 55.5952 147.6712 30.1821 0.0000 0.0000 0.0000
# 3 40.7414 30.1821 35.8420 0.0000 0.0000 0.0000
# 4 0.0000 0.0000 0.0000 31.3644 0.0000 0.0000
# 5 0.0000 0.0000 0.0000 0.0000-1056.8134 0.0000
# 6 0.0000 0.0000 0.0000 0.0000 0.0000 48.7062
#
#
#
# Elastic Compliance Matrix: (Units=1/GPa)
#
#
# Indices 1 2 3 4 5 6 
#
# 1 0.025131 -0.004376 -0.024881 0.000000 0.000000 0.000000
# 2 -0.004376 0.008942 -0.002556 0.000000 0.000000 0.000000
# 3 -0.024881 -0.002556 0.058334 0.000000 0.000000 0.000000
# 4 0.000000 0.000000 0.000000 0.031883 0.000000 0.000000
# 5 0.000000 0.000000 0.000000 0.000000 -0.000946 0.000000
# 6 0.000000 0.000000 0.000000 0.000000 0.000000 0.020531
#
#
# Mechanical properties :
#
#
# Convention : Reuss Voigt Hill
#
# Bulk Modulus (GPa) = 34.74432 58.48443 46.61437
# Shear Modulus (GPa) = 23.03152 -185.56164 -81.26506
#
# Velocity S-wave (km/s) = 3.44949 -9.79124 -6.47956
# Velocity P-wave (km/s) = 5.81512 9.87974 5.64773
#
# Compressibility (1/GPa) = 0.02878169
#
# Stress axis : x y z
#
# Youngs Moduli (GPa) = 39.79205 111.83766 17.14253
#
# Poissons Ratio (x) = 0.48938 0.42652
# Poissons Ratio (y) = 0.17412 0.04381
# Poissons Ratio (z) = 0.99007 0.28581
#
# Static dielectric constant tensor:
#      x y z
#    x 3.405990 0.000000 0.000000 
#    y 0.000000 3.604600 0.000000 
#    z 0.000000 0.000000 3.579450 
# 
# 
# High freq. dielectric constant tensor:
#      x y z
#    x 1.746150 0.000000 0.000000 
#    y 0.000000 1.772760 0.000000 
#    z 0.000000 0.000000 1.742330 
# 
# From -- ./inp_files/10520.got.cif
#   From: 2010.06.25/outbox.cif.g09.slc.cpg/sg71_6_cif.got.tgz:10520.got - 2010.06.28 04:59:45.
