data_PCOD8291299
_publ_section_title
;
Structure prediction by ZEFSAII (Michael W. Deem and Ramdas Pophale) SiO2 
 PCOD8291299
Probable space group: I M M M
;
_chemical_formula_sum "Si O2"
_cell_formula_units_Z 72
_cell_length_a 7.629719
_cell_length_b 24.481330
_cell_length_c 18.085318
_cell_angle_alpha 90.000000
_cell_angle_beta 90.000000
_cell_angle_gamma 90.000000
_cell_volume 3378.078215
_symmetry_space_group_name_H-M "I M M M"
_symmetry_group_IT_number 71
_symmetry_cell_setting 'orthorhombic'
loop_
_space_group_symop_operation_xyz
x,y,z
-x,-y,z
x,-y,-z
-x,y,-z
-x,-y,-z
x,y,-z
-x,y,z
x,-y,z
1/2+x,1/2+y,1/2+z
1/2-x,1/2-y,1/2+z
1/2+x,1/2-y,1/2-z
1/2-x,1/2+y,1/2-z
1/2-x,1/2-y,1/2-z
1/2+x,1/2+y,1/2-z
1/2-x,1/2+y,1/2+z
1/2+x,1/2-y,1/2+z
loop_
_atom_site_type_symbol
_atom_site_label
_atom_site_fract_x
_atom_site_fract_y
_atom_site_fract_z
Si Si1 0.707867 0.254217 0.916327
Si Si2 0.294145 0.438228 0.416425
Si Si3 0.500000 0.436256 0.913346
Si Si4 0.697237 0.841989 0.816096
Si Si5 0.798777 0.364692 0.154612
O O1 0.500000 0.260078 0.908377
O O2 0.787101 0.206641 0.863304
O O3 0.796593 0.311155 0.895945
O O4 0.759949 0.238806 0.000000
O O5 0.233618 0.425410 0.500000
O O6 0.500000 0.429540 0.408381
O O7 0.242039 0.500000 0.395393
O O8 0.196556 0.398320 0.360965
O O9 0.500000 0.500000 0.895027
O O10 0.322860 0.411364 0.879587
O O11 0.500000 0.424042 0.000000
O O12 0.500000 0.823478 0.801691
O O13 0.782821 0.850184 0.735485
O O14 0.000000 0.386248 0.159441
#
# Coordination Sequence:
#
# PCOD8291299 Si02
#       5
#    16  16   8  16  16
#     4  10  20  37  62  90 126 170 212 257 314 382
#     4   9  19  35  54  79 115 161 211 260 310 368
#     4  11  26  48  72  96 125 167 214 264 327 386
#     4  10  22  37  57  90 126 164 208 259 316 372
#     4  11  24  42  66  96 130 166 211 263 323 385
#
# _framework density 21.313894000000001
#
# number of rings (size 3 to 8) (size 9 to 14) (size 15 to 20)
#    0.000    1.889    1.111    2.667    1.556    5.778 
#    0.000    4.444    0.000    0.000    0.000    0.000 
#    0.000    0.000    0.000    0.000    0.000    0.000 
#
# Total GULP energy -446419.074741 kJ/mol
# GULP energy per Si atom -12400.529854 kJ/mol
# Density = 2.126538 g / cm^3
# Si number density = 21.313894 Si / 1000 Ang^3
#
#
#
# Elastic Constant Matrix: (Units=GPa)
#
#
# Indices 1 2 3 4 5 6 
#
# 1 71.5539 37.8731 42.7510 0.0000 0.0000 0.0000
# 2 37.8731 128.4574 72.0505 0.0000 0.0000 0.0000
# 3 42.7510 72.0505 149.3554 -0.0002 0.0001 -0.0001
# 4 0.0000 0.0000 -0.0002 25.9711 0.0001 0.0000
# 5 0.0000 0.0000 0.0001 0.0001 13.6470 0.0000
# 6 0.0000 0.0000 -0.0001 0.0000 0.0000 16.1897
#
#
#
# Elastic Compliance Matrix: (Units=1/GPa)
#
#
# Indices 1 2 3 4 5 6 
#
# 1 0.017812 -0.003279 -0.003517 0.000000 0.000000 0.000000
# 2 -0.003279 0.011276 -0.004501 0.000000 0.000000 0.000000
# 3 -0.003517 -0.004501 0.009873 0.000000 0.000000 0.000000
# 4 0.000000 0.000000 0.000000 0.038504 0.000000 0.000000
# 5 0.000000 0.000000 0.000000 0.000000 0.073276 0.000000
# 6 0.000000 0.000000 0.000000 0.000000 0.000000 0.061768
#
#
# Mechanical properties :
#
#
# Convention : Reuss Voigt Hill
#
# Bulk Modulus (GPa) = 61.09487 72.74623 66.92055
# Shear Modulus (GPa) = 20.78486 24.27434 22.52960
#
# Velocity S-wave (km/s) = 3.12617 3.37842 3.25474
# Velocity P-wave (km/s) = 6.46198 7.03017 6.75205
#
# Compressibility (1/GPa) = 0.01636799
#
# Stress axis : x y z
#
# Youngs Moduli (GPa) = 56.14138 88.68326 101.28231
#
# Poissons Ratio (x) = 0.29080 0.35617
# Poissons Ratio (y) = 0.18409 0.45588
# Poissons Ratio (z) = 0.19743 0.39917
#
# Static dielectric constant tensor:
#      x y z
#    x 3.682630 0.000000 0.000000 
#    y 0.000000 3.798230 0.000000 
#    z 0.000000 0.000000 4.096300 
# 
# 
# High freq. dielectric constant tensor:
#      x y z
#    x 1.824900 0.000000 0.000000 
#    y 0.000000 1.832990 0.000000 
#    z 0.000000 0.000000 1.847540 
# 
# From -- ./inp_files/42059.got.cif
#   From: 2010.06.25/outbox.cif.g09.slc.cpg/sg71_22_cif.got.tgz:42059.got - 2010.06.28 04:59:45.
