data_PCOD8291457
_publ_section_title
;
Structure prediction by ZEFSAII (Michael W. Deem and Ramdas Pophale) SiO2 
 PCOD8291457
Probable space group: I M M M
;
_chemical_formula_sum "Si O2"
_cell_formula_units_Z 104
_cell_length_a 32.372158
_cell_length_b 19.760046
_cell_length_c 9.147142
_cell_angle_alpha 90.000000
_cell_angle_beta 90.000000
_cell_angle_gamma 90.000000
_cell_volume 5851.201088
_symmetry_space_group_name_H-M "I M M M"
_symmetry_group_IT_number 71
_symmetry_cell_setting 'orthorhombic'
loop_
_space_group_symop_operation_xyz
x,y,z
-x,-y,z
x,-y,-z
-x,y,-z
-x,-y,-z
x,y,-z
-x,y,z
x,-y,z
1/2+x,1/2+y,1/2+z
1/2-x,1/2-y,1/2+z
1/2+x,1/2-y,1/2-z
1/2-x,1/2+y,1/2-z
1/2-x,1/2-y,1/2-z
1/2+x,1/2+y,1/2-z
1/2-x,1/2+y,1/2+z
1/2+x,1/2-y,1/2+z
loop_
_atom_site_type_symbol
_atom_site_label
_atom_site_fract_x
_atom_site_fract_y
_atom_site_fract_z
Si Si1 0.132370 0.317505 0.326509
Si Si2 0.772306 0.077514 0.172037
Si Si3 0.046046 0.000000 0.828294
Si Si4 0.166790 0.173916 0.337853
Si Si5 0.074873 0.874823 0.662082
Si Si6 0.187549 0.578399 0.168616
Si Si7 0.954787 0.732426 0.673556
O O1 0.133755 0.329620 0.500000
O O2 0.159742 0.251363 0.285545
O O3 0.150129 0.381281 0.241474
O O4 0.084584 0.310668 0.270472
O O5 0.805764 0.131808 0.224797
O O6 0.729639 0.096515 0.249124
O O7 0.785469 0.000000 0.211339
O O8 0.766314 0.085885 0.000000
O O9 0.069675 0.065552 0.775173
O O10 0.000000 0.000000 0.763954
O O11 0.046330 0.000000 0.000000
O O12 0.187263 0.172656 0.500000
O O13 0.122949 0.138973 0.347662
O O14 0.058520 0.894512 0.500000
O O15 0.050323 0.810020 0.724627
O O16 0.176468 0.500000 0.186229
O O17 0.192422 0.599120 0.000000
O O18 0.952927 0.731728 0.500000
O O19 0.000000 0.705372 0.728863
#
# Coordination Sequence:
#
# PCOD8291457 Si02
#       7
#    16  16   8  16  16  16  16
#     4   9  18  33  54  80 106 131 165 208 254 302
#     4  10  21  35  52  75 102 136 177 214 252 299
#     4  11  23  33  41  61  95 131 169 217 267 305
#     4   9  19  34  51  75 104 133 169 211 256 301
#     4   9  18  32  50  70  92 128 173 212 250 299
#     4  10  21  37  56  77 101 132 168 205 250 303
#     4   8  14  28  52  78 101 126 162 208 251 295
#
# _framework density 17.774128000000001
#
# number of rings (size 3 to 8) (size 9 to 14) (size 15 to 20)
#    0.000    2.692    0.000    3.462    1.077    4.923 
#    0.000    2.308    0.000    1.846    0.000    3.231 
#    0.000    0.000    0.000    0.000    0.000    0.000 
#
# Total GULP energy -644557.406479 kJ/mol
# GULP energy per Si atom -12395.334740 kJ/mol
# Density = 1.773367 g / cm^3
# Si number density = 17.774128 Si / 1000 Ang^3
#
#
#
# Elastic Constant Matrix: (Units=GPa)
#
#
# Indices 1 2 3 4 5 6 
#
# 1 101.4654 51.6283 42.1944 0.0000 0.0000 0.0000
# 2 51.6283 71.4971 37.7318 0.0000 0.0000 0.0000
# 3 42.1944 37.7318 70.7357 0.0000 0.0000 0.0000
# 4 0.0000 0.0000 0.0000 -144.8212 0.0000 0.0000
# 5 0.0000 0.0000 0.0000 0.0000 24.9003 0.0000
# 6 0.0000 0.0000 0.0000 0.0000 0.0000 15.7407
#
#
#
# Elastic Compliance Matrix: (Units=1/GPa)
#
#
# Indices 1 2 3 4 5 6 
#
# 1 0.016726 -0.009482 -0.004919 0.000000 0.000000 0.000000
# 2 -0.009482 0.024841 -0.007595 0.000000 0.000000 0.000000
# 3 -0.004919 -0.007595 0.021123 0.000000 0.000000 0.000000
# 4 0.000000 0.000000 0.000000 -0.006905 0.000000 0.000000
# 5 0.000000 0.000000 0.000000 0.000000 0.040160 0.000000
# 6 0.000000 0.000000 0.000000 0.000000 0.000000 0.063530
#
#
# Mechanical properties :
#
#
# Convention : Reuss Voigt Hill
#
# Bulk Modulus (GPa) = 53.48144 56.31192 54.89668
# Shear Modulus (GPa) = 23.84361 -13.35979 5.24191
#
# Velocity S-wave (km/s) = 3.66659 -2.74458 1.71918
# Velocity P-wave (km/s) = 6.93398 4.65909 5.90708
#
# Compressibility (1/GPa) = 0.01869808
#
# Stress axis : x y z
#
# Youngs Moduli (GPa) = 59.78788 40.25525 47.34184
#
# Poissons Ratio (x) = 0.38168 0.23289
# Poissons Ratio (y) = 0.56688 0.35957
# Poissons Ratio (z) = 0.29412 0.30574
#
# Static dielectric constant tensor:
#      x y z
#    x 3.443690 0.000000 0.000000 
#    y 0.000000 3.116390 0.000000 
#    z 0.000000 0.000000 3.214530 
# 
# 
# High freq. dielectric constant tensor:
#      x y z
#    x 1.689930 0.000000 0.000000 
#    y 0.000000 1.673960 0.000000 
#    z 0.000000 0.000000 1.672930 
# 
# From -- ./inp_files/16992.got.cif
#   From: 2010.06.25/outbox.cif.g09.slc.cpg/sg71_9_cif.got.tgz:16992.got - 2010.06.28 04:59:45.
