data_PCOD8291795
_publ_section_title
;
Structure prediction by ZEFSAII (Michael W. Deem and Ramdas Pophale) SiO2 
 PCOD8291795
Probable space group: I M M M
;
_chemical_formula_sum "Si O2"
_cell_formula_units_Z 88
_cell_length_a 14.235752
_cell_length_b 31.383319
_cell_length_c 11.007142
_cell_angle_alpha 90.000000
_cell_angle_beta 90.000000
_cell_angle_gamma 90.000000
_cell_volume 4917.607405
_symmetry_space_group_name_H-M "I M M M"
_symmetry_group_IT_number 71
_symmetry_cell_setting 'orthorhombic'
loop_
_space_group_symop_operation_xyz
x,y,z
-x,-y,z
x,-y,-z
-x,y,-z
-x,-y,-z
x,y,-z
-x,y,z
x,-y,z
1/2+x,1/2+y,1/2+z
1/2-x,1/2-y,1/2+z
1/2+x,1/2-y,1/2-z
1/2-x,1/2+y,1/2-z
1/2-x,1/2-y,1/2-z
1/2+x,1/2+y,1/2-z
1/2-x,1/2+y,1/2+z
1/2+x,1/2-y,1/2+z
loop_
_atom_site_type_symbol
_atom_site_label
_atom_site_fract_x
_atom_site_fract_y
_atom_site_fract_z
Si Si1 0.837381 0.585077 0.247008
Si Si2 0.797087 0.273539 0.135317
Si Si3 0.105679 0.500000 0.641144
Si Si4 0.500000 0.141050 0.857077
Si Si5 0.692170 0.360445 0.862099
Si Si6 0.000000 0.180144 0.356327
Si Si7 0.500000 0.229653 0.270605
Si Si8 0.893028 0.546543 0.000000
O O1 0.834960 0.541309 0.321973
O O2 0.732167 0.604241 0.232067
O O3 0.906493 0.618679 0.308417
O O4 0.870845 0.576010 0.112487
O O5 0.750000 0.250000 0.250000
O O6 0.765964 0.322152 0.139425
O O7 0.909174 0.271673 0.144021
O O8 0.768983 0.254813 0.000000
O O9 0.091410 0.500000 0.500000
O O10 0.000000 0.500000 0.701538
O O11 0.500000 0.190433 0.822529
O O12 0.500000 0.136284 0.000000
O O13 0.591522 0.345351 0.811049
O O14 0.681757 0.378370 0.000000
O O15 0.000000 0.184680 0.500000
O O16 0.000000 0.227458 0.306288
O O17 0.839912 0.500000 0.000000
O O18 0.000000 0.534761 0.000000
#
# Coordination Sequence:
#
# PCOD8291795 Si02
#       8
#    16  16   8   8  16   8   8   8
#     4  12  21  36  55  84 119 155 191 233 290 352
#     4  11  23  39  59  87 118 155 200 248 302 355
#     4  11  22  37  57  84 125 161 185 226 291 364
#     4  12  25  35  51  87 125 161 198 236 284 352
#     4  10  21  37  59  85 115 152 198 250 299 348
#     4  10  21  39  61  84 115 156 203 250 297 347
#     4  12  22  38  59  86 121 160 198 249 300 345
#     4  11  20  32  54  85 117 149 185 230 288 357
#
# _framework density 17.894881000000002
#
# number of rings (size 3 to 8) (size 9 to 14) (size 15 to 20)
#    0.000    0.909    7.273    1.091    0.000    0.727 
#    1.636    0.000    0.000    0.545    0.000    3.182 
#    0.000    0.000    0.000    0.000    0.000    0.000 
#
# Total GULP energy -545412.749347 kJ/mol
# GULP energy per Si atom -12395.744303 kJ/mol
# Density = 1.785415 g / cm^3
# Si number density = 17.894881 Si / 1000 Ang^3
#
#
#
# Elastic Constant Matrix: (Units=GPa)
#
#
# Indices 1 2 3 4 5 6 
#
# 1 122.9249 60.9997 35.5379 -0.0003 0.0118 0.0001
# 2 60.9997 113.4817 45.2953 0.0006 0.0346 0.0001
# 3 35.5379 45.2953 111.8228 0.0042 0.1499 0.0005
# 4 -0.0003 0.0006 0.0042 32.4875 0.0695 0.0002
# 5 0.0118 0.0346 0.1499 0.0695 458.2912 -0.0180
# 6 0.0001 0.0001 0.0005 0.0002 -0.0180 18.3735
#
#
#
# Elastic Compliance Matrix: (Units=1/GPa)
#
#
# Indices 1 2 3 4 5 6 
#
# 1 0.011261 -0.005517 -0.001344 0.000000 0.000001 0.000000
# 2 -0.005517 0.013214 -0.003599 0.000000 0.000000 0.000000
# 3 -0.001344 -0.003599 0.010828 -0.000001 -0.000003 0.000000
# 4 0.000000 0.000000 -0.000001 0.030781 -0.000005 0.000000
# 5 0.000001 0.000000 -0.000003 -0.000005 0.002182 0.000002
# 6 0.000000 0.000000 0.000000 0.000000 0.000002 0.054426
#
#
# Mechanical properties :
#
#
# Convention : Reuss Voigt Hill
#
# Bulk Modulus (GPa) = 69.52822 70.21056 69.86939
# Shear Modulus (GPa) = 33.69111 115.59022 74.64067
#
# Velocity S-wave (km/s) = 4.34374 8.04576 6.46538
# Velocity P-wave (km/s) = 8.00597 11.20859 9.73982
#
# Compressibility (1/GPa) = 0.01438265
#
# Stress axis : x y z
#
# Youngs Moduli (GPa) = 88.79999 75.67735 92.35418
#
# Poissons Ratio (x) = 0.41749 0.12415
# Poissons Ratio (y) = 0.48988 0.33241
# Poissons Ratio (z) = 0.11937 0.27238
#
# Static dielectric constant tensor:
#      x y z
#    x 3.438760 0.000000 0.000000 
#    y 0.000000 3.517800 0.000000 
#    z 0.000000 0.000000 3.398630 
# 
# 
# High freq. dielectric constant tensor:
#      x y z
#    x 1.677200 0.000000 0.000000 
#    y 0.000000 1.690320 0.000000 
#    z 0.000000 0.000000 1.694770 
# 
# From -- ./inp_files/22404.got.cif
#   From: 2010.06.25/outbox.cif.g09.slc.cpg/sg71_12_cif.got.tgz:22404.got - 2010.06.28 04:59:45.
