data_PCOD8291595
_publ_section_title
;
Structure prediction by ZEFSAII (Michael W. Deem and Ramdas Pophale) SiO2 
 PCOD8291595
Probable space group: I M M M
;
_chemical_formula_sum "Si O2"
_cell_formula_units_Z 104
_cell_length_a 22.609732
_cell_length_b 8.974796
_cell_length_c 27.962565
_cell_angle_alpha 90.000000
_cell_angle_beta 90.000000
_cell_angle_gamma 90.000000
_cell_volume 5674.100280
_symmetry_space_group_name_H-M "I M M M"
_symmetry_group_IT_number 71
_symmetry_cell_setting 'orthorhombic'
loop_
_space_group_symop_operation_xyz
x,y,z
-x,-y,z
x,-y,-z
-x,y,-z
-x,-y,-z
x,y,-z
-x,y,z
x,-y,z
1/2+x,1/2+y,1/2+z
1/2-x,1/2-y,1/2+z
1/2+x,1/2-y,1/2-z
1/2-x,1/2+y,1/2-z
1/2-x,1/2-y,1/2-z
1/2+x,1/2+y,1/2-z
1/2-x,1/2+y,1/2+z
1/2+x,1/2-y,1/2+z
loop_
_atom_site_type_symbol
_atom_site_label
_atom_site_fract_x
_atom_site_fract_y
_atom_site_fract_z
Si Si1 0.933134 0.826609 0.729327
Si Si2 0.239248 0.829952 0.699751
Si Si3 0.929393 0.166231 0.000000
Si Si4 0.371041 0.830224 0.686270
Si Si5 0.569630 0.830320 0.592091
Si Si6 0.566554 0.823313 0.946739
Si Si7 0.631193 0.177186 0.147622
O O1 0.886343 0.772258 0.768661
O O2 0.921789 0.733888 0.681268
O O3 0.000000 0.796025 0.746732
O O4 0.922182 0.000000 0.719226
O O5 0.250000 0.750000 0.750000
O O6 0.302075 0.825683 0.673191
O O7 0.192607 0.748992 0.665202
O O8 0.218368 0.000000 0.708653
O O9 0.903343 0.244365 0.046972
O O10 0.000000 0.175157 0.000000
O O11 0.905481 0.000000 0.000000
O O12 0.404872 0.762001 0.640777
O O13 0.391604 0.000000 0.697310
O O14 0.500000 0.812427 0.593644
O O15 0.589837 0.000000 0.586881
O O16 0.500000 0.762521 0.936045
O O17 0.613506 0.769972 0.906255
O O18 0.564151 0.000000 0.945651
O O19 0.586815 0.769126 0.000000
O O20 0.637145 0.000000 0.151413
#
# Coordination Sequence:
#
# PCOD8291595 Si02
#       7
#    16  16   8  16  16  16  16
#     4  11  23  35  50  77 112 144 173 215 270 322
#     4  11  22  37  56  78 105 141 184 225 265 312
#     4   9  17  29  47  73 103 133 163 199 250 311
#     4  10  21  36  55  76 100 137 181 222 266 317
#     4   9  17  31  52  76 100 129 168 214 261 311
#     4   8  15  30  54  84 113 140 178 229 279 328
#     4  11  21  34  56  82 108 145 185 223 270 325
#
# _framework density 18.328897000000001
#
# number of rings (size 3 to 8) (size 9 to 14) (size 15 to 20)
#    0.000    2.077    1.538    3.000    0.000    4.615 
#    0.000    1.538    1.692    1.846    0.000    5.385 
#    0.000    0.000    0.000    0.000    0.000    0.000 
#
# Total GULP energy -644635.248935 kJ/mol
# GULP energy per Si atom -12396.831710 kJ/mol
# Density = 1.828718 g / cm^3
# Si number density = 18.328897 Si / 1000 Ang^3
#
#
#
# Elastic Constant Matrix: (Units=GPa)
#
#
# Indices 1 2 3 4 5 6 
#
# 1 67.9056 34.9519 40.5793 0.0000 0.0000 0.0000
# 2 34.9519 84.8584 53.6904 0.0000 0.0000 0.0000
# 3 40.5793 53.6904 152.6851 0.0000 0.0000 0.0000
# 4 0.0000 0.0000 0.0000 10.9233 0.0000 0.0000
# 5 0.0000 0.0000 0.0000 0.0000 24.3502 0.0000
# 6 0.0000 0.0000 0.0000 0.0000 0.0000 25.5915
#
#
#
# Elastic Compliance Matrix: (Units=1/GPa)
#
#
# Indices 1 2 3 4 5 6 
#
# 1 0.019748 -0.006191 -0.003072 0.000000 0.000000 0.000000
# 2 -0.006191 0.017097 -0.004367 0.000000 0.000000 0.000000
# 3 -0.003072 -0.004367 0.008901 0.000000 0.000000 0.000000
# 4 0.000000 0.000000 0.000000 0.091547 0.000000 0.000000
# 5 0.000000 0.000000 0.000000 0.000000 0.041067 0.000000
# 6 0.000000 0.000000 0.000000 0.000000 0.000000 0.039075
#
#
# Mechanical properties :
#
#
# Convention : Reuss Voigt Hill
#
# Bulk Modulus (GPa) = 54.08721 62.65469 58.37095
# Shear Modulus (GPa) = 19.93166 23.92152 21.92659
#
# Velocity S-wave (km/s) = 3.30122 3.61657 3.46249
# Velocity P-wave (km/s) = 6.64109 7.19008 6.92103
#
# Compressibility (1/GPa) = 0.01848866
#
# Stress axis : x y z
#
# Youngs Moduli (GPa) = 50.63735 58.48984 112.34301
#
# Poissons Ratio (x) = 0.36208 0.34508
# Poissons Ratio (y) = 0.31347 0.49057
# Poissons Ratio (z) = 0.15554 0.25541
#
# Static dielectric constant tensor:
#      x y z
#    x 3.362500 0.000000 0.000000 
#    y 0.000000 3.319960 0.000000 
#    z 0.000000 0.000000 3.706860 
# 
# 
# High freq. dielectric constant tensor:
#      x y z
#    x 1.696910 0.000000 0.000000 
#    y 0.000000 1.701500 0.000000 
#    z 0.000000 0.000000 1.712280 
# 
# From -- ./inp_files/66805.got.cif
#   From: 2010.06.25/outbox.cif.g09.slc.cpg/sg71_34_cif.got.tgz:66805.got - 2010.06.28 04:59:45.
