data_PCOD8291366
_publ_section_title
;
Structure prediction by ZEFSAII (Michael W. Deem and Ramdas Pophale) SiO2 
 PCOD8291366
Probable space group: I M M M
;
_chemical_formula_sum "Si O2"
_cell_formula_units_Z 104
_cell_length_a 8.710035
_cell_length_b 22.236540
_cell_length_c 26.878151
_cell_angle_alpha 90.000000
_cell_angle_beta 90.000000
_cell_angle_gamma 90.000000
_cell_volume 5205.788284
_symmetry_space_group_name_H-M "I M M M"
_symmetry_group_IT_number 71
_symmetry_cell_setting 'orthorhombic'
loop_
_space_group_symop_operation_xyz
x,y,z
-x,-y,z
x,-y,-z
-x,y,-z
-x,-y,-z
x,y,-z
-x,y,z
x,-y,z
1/2+x,1/2+y,1/2+z
1/2-x,1/2-y,1/2+z
1/2+x,1/2-y,1/2-z
1/2-x,1/2+y,1/2-z
1/2-x,1/2-y,1/2-z
1/2+x,1/2+y,1/2-z
1/2-x,1/2+y,1/2+z
1/2+x,1/2-y,1/2+z
loop_
_atom_site_type_symbol
_atom_site_label
_atom_site_fract_x
_atom_site_fract_y
_atom_site_fract_z
Si Si1 0.683004 0.376265 0.135477
Si Si2 0.317980 0.000000 0.332811
Si Si3 0.674877 0.210613 0.443078
Si Si4 0.182442 0.000000 0.777600
Si Si5 0.682266 0.429429 0.500000
Si Si6 0.680130 0.839225 0.077632
Si Si7 0.832658 0.806983 0.270310
Si Si8 0.170070 0.881961 0.827449
O O1 0.500000 0.383421 0.137744
O O2 0.757068 0.442157 0.137110
O O3 0.731758 0.340083 0.086501
O O4 0.748748 0.338564 0.182682
O O5 0.263425 0.000000 0.275757
O O6 0.500000 0.000000 0.333930
O O7 0.679344 0.189855 0.500000
O O8 0.500000 0.214173 0.423332
O O9 0.749288 0.276290 0.439196
O O10 0.236242 0.053377 0.813513
O O11 0.000000 0.000000 0.767368
O O12 0.731978 0.500000 0.500000
O O13 0.500000 0.423808 0.500000
O O14 0.747830 0.395783 0.451500
O O15 0.500000 0.837174 0.067493
O O16 0.713816 0.847893 0.136049
O O17 0.750000 0.750000 0.250000
O O18 0.843625 0.852529 0.225808
O O19 0.000000 0.786276 0.288550
O O20 0.000000 0.884798 0.852290
#
# Coordination Sequence:
#
# PCOD8291366 Si02
#       8
#    16   8  16   8   8  16  16  16
#     4  11  23  42  67  95 129 170 217 271 329 389
#     4  12  24  40  65  97 133 175 218 263 327 400
#     4  11  24  44  69  96 128 168 216 268 327 395
#     4  10  20  40  64  86 120 168 218 262 310 375
#     4  11  25  45  67  89 119 168 221 268 327 391
#     4  12  25  41  64  95 130 166 212 269 327 385
#     4  10  21  36  57  86 121 160 201 250 306 367
#     4  10  21  38  60  86 120 164 207 250 305 371
#
# _framework density 19.977762999999999
#
# number of rings (size 3 to 8) (size 9 to 14) (size 15 to 20)
#    0.000    1.154    2.308    4.154    1.077    6.462 
#    0.000    0.385    0.000    2.308    0.000    0.000 
#    0.000    0.000    0.000    0.000    0.000    0.000 
#
# Total GULP energy -644745.383677 kJ/mol
# GULP energy per Si atom -12398.949686 kJ/mol
# Density = 1.993229 g / cm^3
# Si number density = 19.977763 Si / 1000 Ang^3
#
#
#
# Elastic Constant Matrix: (Units=GPa)
#
#
# Indices 1 2 3 4 5 6 
#
# 1 106.0264 48.2490 33.7348 0.0000 0.0000 0.0000
# 2 48.2490 137.8739 41.9262 0.0000 0.0000 0.0000
# 3 33.7348 41.9262 98.3175 0.0000 0.0000 0.0000
# 4 0.0000 0.0000 0.0000 19.9096 0.0000 0.0000
# 5 0.0000 0.0000 0.0000 0.0000 33.0867 0.0000
# 6 0.0000 0.0000 0.0000 0.0000 0.0000 32.0366
#
#
#
# Elastic Compliance Matrix: (Units=1/GPa)
#
#
# Indices 1 2 3 4 5 6 
#
# 1 0.011779 -0.003324 -0.002624 0.000000 0.000000 0.000000
# 2 -0.003324 0.009272 -0.002813 0.000000 0.000000 0.000000
# 3 -0.002624 -0.002813 0.012271 0.000000 0.000000 0.000000
# 4 0.000000 0.000000 0.000000 0.050227 0.000000 0.000000
# 5 0.000000 0.000000 0.000000 0.000000 0.030224 0.000000
# 6 0.000000 0.000000 0.000000 0.000000 0.000000 0.031214
#
#
# Mechanical properties :
#
#
# Convention : Reuss Voigt Hill
#
# Bulk Modulus (GPa) = 63.29470 65.55974 64.42722
# Shear Modulus (GPa) = 29.80152 31.56044 30.68098
#
# Velocity S-wave (km/s) = 3.86649 3.97895 3.92312
# Velocity P-wave (km/s) = 7.18918 7.34827 7.26916
#
# Compressibility (1/GPa) = 0.01579911
#
# Stress axis : x y z
#
# Youngs Moduli (GPa) = 84.89495 107.85417 81.49157
#
# Poissons Ratio (x) = 0.35853 0.21385
# Poissons Ratio (y) = 0.28221 0.22926
# Poissons Ratio (z) = 0.22278 0.30342
#
# Static dielectric constant tensor:
#      x y z
#    x 3.716470 0.000000 0.000000 
#    y 0.000000 3.680350 0.000000 
#    z 0.000000 0.000000 3.587710 
# 
# 
# High freq. dielectric constant tensor:
#      x y z
#    x 1.779860 0.000000 0.000000 
#    y 0.000000 1.790230 0.000000 
#    z 0.000000 0.000000 1.782050 
# 
# From -- ./inp_files/63387.got.cif
#   From: 2010.06.25/outbox.cif.g09.slc.cpg/sg71_32_cif.got.tgz:63387.got - 2010.06.28 04:59:45.
