data_PCOD8291629
_publ_section_title
;
Structure prediction by ZEFSAII (Michael W. Deem and Ramdas Pophale) SiO2 
 PCOD8291629
Probable space group: I M M M
;
_chemical_formula_sum "Si O2"
_cell_formula_units_Z 88
_cell_length_a 8.877891
_cell_length_b 22.539458
_cell_length_c 22.028548
_cell_angle_alpha 90.000000
_cell_angle_beta 90.000000
_cell_angle_gamma 90.000000
_cell_volume 4407.975265
_symmetry_space_group_name_H-M "I M M M"
_symmetry_group_IT_number 71
_symmetry_cell_setting 'orthorhombic'
loop_
_space_group_symop_operation_xyz
x,y,z
-x,-y,z
x,-y,-z
-x,y,-z
-x,-y,-z
x,y,-z
-x,y,z
x,-y,z
1/2+x,1/2+y,1/2+z
1/2-x,1/2-y,1/2+z
1/2+x,1/2-y,1/2-z
1/2-x,1/2+y,1/2-z
1/2-x,1/2-y,1/2-z
1/2+x,1/2+y,1/2-z
1/2-x,1/2+y,1/2+z
1/2+x,1/2-y,1/2+z
loop_
_atom_site_type_symbol
_atom_site_label
_atom_site_fract_x
_atom_site_fract_y
_atom_site_fract_z
Si Si1 0.677331 0.120050 0.349298
Si Si2 0.167434 0.000000 0.645558
Si Si3 0.668788 0.500000 0.710783
Si Si4 0.178497 0.163997 0.096349
Si Si5 0.677424 0.880834 0.790150
Si Si6 0.671722 0.283865 0.067611
Si Si7 0.322230 0.567275 0.500000
O O1 0.500000 0.114106 0.355687
O O2 0.723842 0.131601 0.279349
O O3 0.735913 0.174992 0.387178
O O4 0.747116 0.059251 0.375812
O O5 0.159108 0.000000 0.717407
O O6 0.000000 0.000000 0.617160
O O7 0.500000 0.500000 0.682421
O O8 0.761292 0.444056 0.687629
O O9 0.240712 0.165296 0.165372
O O10 0.252053 0.219833 0.063513
O O11 0.000000 0.171725 0.096844
O O12 0.227769 0.104430 0.059844
O O13 0.500000 0.877704 0.799216
O O14 0.500000 0.278691 0.090754
O O15 0.676763 0.311394 0.000000
O O16 0.252298 0.500000 0.500000
O O17 0.500000 0.561493 0.500000
#
# Coordination Sequence:
#
# PCOD8291629 Si02
#       7
#    16   8   8  16  16  16   8
#     4  10  21  38  62  89 121 158 197 241 293 355
#     4   9  17  33  58  88 122 154 189 235 290 346
#     4   9  17  31  53  81 115 157 197 232 283 351
#     4  11  22  38  62  87 117 158 202 247 295 353
#     4  10  21  36  55  86 122 155 192 244 300 349
#     4  11  24  42  63  85 115 154 197 247 302 356
#     4   9  20  38  59  87 121 156 200 251 290 336
#
# _framework density 19.963813999999999
#
# number of rings (size 3 to 8) (size 9 to 14) (size 15 to 20)
#    0.000    1.909    0.909    2.727    1.273    6.182 
#    0.000    0.455    0.000    4.909    0.000    0.000 
#    0.000    0.000    0.000    0.000    0.000    0.000 
#
# Total GULP energy -545565.699414 kJ/mol
# GULP energy per Si atom -12399.220441 kJ/mol
# Density = 1.991838 g / cm^3
# Si number density = 19.963814 Si / 1000 Ang^3
#
#
#
# Elastic Constant Matrix: (Units=GPa)
#
#
# Indices 1 2 3 4 5 6 
#
# 1 80.3849 28.5278 34.7637 0.0000 0.0000 0.0000
# 2 28.5278 106.9134 44.0288 0.0000 0.0000 0.0000
# 3 34.7637 44.0288 86.4331 0.0000 0.0000 0.0000
# 4 0.0000 0.0000 0.0000 26.8627 0.0000 0.0000
# 5 0.0000 0.0000 0.0000 0.0000 24.5455 0.0000
# 6 0.0000 0.0000 0.0000 0.0000 0.0000 39.0672
#
#
#
# Elastic Compliance Matrix: (Units=1/GPa)
#
#
# Indices 1 2 3 4 5 6 
#
# 1 0.015381 -0.001970 -0.005183 0.000000 0.000000 0.000000
# 2 -0.001970 0.012089 -0.005366 0.000000 0.000000 0.000000
# 3 -0.005183 -0.005366 0.016387 0.000000 0.000000 0.000000
# 4 0.000000 0.000000 0.000000 0.037226 0.000000 0.000000
# 5 0.000000 0.000000 0.000000 0.000000 0.040741 0.000000
# 6 0.000000 0.000000 0.000000 0.000000 0.000000 0.025597
#
#
# Mechanical properties :
#
#
# Convention : Reuss Voigt Hill
#
# Bulk Modulus (GPa) = 53.13399 54.26355 53.69877
# Shear Modulus (GPa) = 27.97514 29.18916 28.58215
#
# Velocity S-wave (km/s) = 3.74744 3.82789 3.78788
# Velocity P-wave (km/s) = 6.73776 6.83937 6.78875
#
# Compressibility (1/GPa) = 0.01882034
#
# Stress axis : x y z
#
# Youngs Moduli (GPa) = 65.01728 82.72240 61.02228
#
# Poissons Ratio (x) = 0.16293 0.31626
# Poissons Ratio (y) = 0.12806 0.32743
# Poissons Ratio (z) = 0.33697 0.44387
#
# Static dielectric constant tensor:
#      x y z
#    x 3.665750 0.000000 0.000000 
#    y 0.000000 3.571420 0.000000 
#    z 0.000000 0.000000 3.519390 
# 
# 
# High freq. dielectric constant tensor:
#      x y z
#    x 1.783540 0.000000 0.000000 
#    y 0.000000 1.776220 0.000000 
#    z 0.000000 0.000000 1.770110 
# 
# From -- ./inp_files/12636.got.cif
#   From: 2010.06.25/outbox.cif.g09.slc.cpg/sg71_7_cif.got.tgz:12636.got - 2010.06.28 04:59:45.
