data_PCOD8291526
_publ_section_title
;
Structure prediction by ZEFSAII (Michael W. Deem and Ramdas Pophale) SiO2 
 PCOD8291526
Probable space group: I M M M
;
_chemical_formula_sum "Si O2"
_cell_formula_units_Z 56
_cell_length_a 9.024168
_cell_length_b 36.295960
_cell_length_c 9.344917
_cell_angle_alpha 90.000000
_cell_angle_beta 90.000000
_cell_angle_gamma 90.000000
_cell_volume 3060.841971
_symmetry_space_group_name_H-M "I M M M"
_symmetry_group_IT_number 71
_symmetry_cell_setting 'orthorhombic'
loop_
_space_group_symop_operation_xyz
x,y,z
-x,-y,z
x,-y,-z
-x,y,-z
-x,-y,-z
x,y,-z
-x,y,z
x,-y,z
1/2+x,1/2+y,1/2+z
1/2-x,1/2-y,1/2+z
1/2+x,1/2-y,1/2-z
1/2-x,1/2+y,1/2-z
1/2-x,1/2-y,1/2-z
1/2+x,1/2+y,1/2-z
1/2-x,1/2+y,1/2+z
1/2+x,1/2-y,1/2+z
loop_
_atom_site_type_symbol
_atom_site_label
_atom_site_fract_x
_atom_site_fract_y
_atom_site_fract_z
Si Si1 0.828165 0.717431 0.832777
Si Si2 0.674889 0.000000 0.844312
Si Si3 0.827361 0.857163 0.335478
Si Si4 0.169146 0.420398 0.329175
O O1 0.750000 0.750000 0.750000
O O2 0.759072 0.678876 0.781812
O O3 0.000000 0.717078 0.792942
O O4 0.800253 0.723579 0.000000
O O5 0.717016 0.038816 0.768024
O O6 0.500000 0.000000 0.866469
O O7 0.751761 0.000000 0.000000
O O8 0.788701 0.865857 0.500000
O O9 0.779220 0.891440 0.240227
O O10 0.000000 0.849727 0.313143
O O11 0.185419 0.419581 0.500000
O O12 0.000000 0.411264 0.284787
#
# Coordination Sequence:
#
# PCOD8291526 Si02
#       4
#    16   8  16  16
#     4  10  21  37  57  79 102 131 167 206 249 297
#     4   7  12  26  48  73 100 128 162 207 254 297
#     4  10  21  36  52  72 102 138 171 205 248 296
#     4   9  17  31  53  78 101 129 168 212 255 299
#
# _framework density 18.295618999999999
#
# number of rings (size 3 to 8) (size 9 to 14) (size 15 to 20)
#    0.000    2.714    0.000    3.429    0.000    5.143 
#    0.000    1.429    0.000    6.857    0.000    0.000 
#    0.000    0.000    0.000    0.000    0.000    0.000 
#
# Total GULP energy -347052.837134 kJ/mol
# GULP energy per Si atom -12394.744183 kJ/mol
# Density = 1.825398 g / cm^3
# Si number density = 18.295619 Si / 1000 Ang^3
#
#
#
# Elastic Constant Matrix: (Units=GPa)
#
#
# Indices 1 2 3 4 5 6 
#
# 1 91.0781 69.3043 33.2659 0.0010 0.0000 0.0001
# 2 69.3043 177.4084 51.2157 0.0052 0.0007 0.0011
# 3 33.2659 51.2157 37.6399 0.0072 0.0013 0.0024
# 4 0.0010 0.0052 0.0072 24.2737 0.0013 0.0016
# 5 0.0000 0.0007 0.0013 0.0013 28.2888 0.0016
# 6 0.0001 0.0011 0.0024 0.0016 0.0016 33.7742
#
#
#
# Elastic Compliance Matrix: (Units=1/GPa)
#
#
# Indices 1 2 3 4 5 6 
#
# 1 0.017758 -0.003963 -0.010302 0.000003 0.000001 0.000001
# 2 -0.003963 0.010168 -0.010332 0.000001 0.000000 0.000000
# 3 -0.010302 -0.010332 0.049731 -0.000012 -0.000002 -0.000003
# 4 0.000003 0.000001 -0.000012 0.041197 -0.000002 -0.000002
# 5 0.000001 0.000000 -0.000002 -0.000002 0.035350 -0.000002
# 6 0.000001 0.000000 -0.000003 -0.000002 -0.000002 0.029608
#
#
# Mechanical properties :
#
#
# Convention : Reuss Voigt Hill
#
# Bulk Modulus (GPa) = 35.13428 68.18870 51.66149
# Shear Modulus (GPa) = 20.61904 27.42337 24.02121
#
# Velocity S-wave (km/s) = 3.36071 3.87577 3.62739
# Velocity P-wave (km/s) = 5.85701 7.57497 6.77070
#
# Compressibility (1/GPa) = 0.02846223
#
# Stress axis : x y z
#
# Youngs Moduli (GPa) = 56.31277 98.35043 20.10802
#
# Poissons Ratio (x) = 0.38977 0.20715
# Poissons Ratio (y) = 0.22317 0.20776
# Poissons Ratio (z) = 0.58013 1.01620
#
# Static dielectric constant tensor:
#      x y z
#    x 3.283760 0.000000 0.000000 
#    y 0.000000 3.742700 0.000000 
#    z 0.000000 0.000000 3.107450 
# 
# 
# High freq. dielectric constant tensor:
#      x y z
#    x 1.700890 0.000000 0.000000 
#    y 0.000000 1.730690 0.000000 
#    z 0.000000 0.000000 1.680550 
# 
# From -- ./inp_files/13980.got.cif
#   From: 2010.06.25/outbox.cif.g09.slc.cpg/sg71_7_cif.got.tgz:13980.got - 2010.06.28 04:59:45.
