data_PCOD8291320
_publ_section_title
;
Structure prediction by ZEFSAII (Michael W. Deem and Ramdas Pophale) SiO2 
 PCOD8291320
Probable space group: I M M M
;
_chemical_formula_sum "Si O2"
_cell_formula_units_Z 88
_cell_length_a 18.256988
_cell_length_b 8.944332
_cell_length_c 28.372046
_cell_angle_alpha 90.000000
_cell_angle_beta 90.000000
_cell_angle_gamma 90.000000
_cell_volume 4633.057568
_symmetry_space_group_name_H-M "I M M M"
_symmetry_group_IT_number 71
_symmetry_cell_setting 'orthorhombic'
loop_
_space_group_symop_operation_xyz
x,y,z
-x,-y,z
x,-y,-z
-x,y,-z
-x,-y,-z
x,y,-z
-x,y,z
x,-y,z
1/2+x,1/2+y,1/2+z
1/2-x,1/2-y,1/2+z
1/2+x,1/2-y,1/2-z
1/2-x,1/2+y,1/2-z
1/2-x,1/2-y,1/2-z
1/2+x,1/2+y,1/2-z
1/2-x,1/2+y,1/2+z
1/2+x,1/2-y,1/2+z
loop_
_atom_site_type_symbol
_atom_site_label
_atom_site_fract_x
_atom_site_fract_y
_atom_site_fract_z
Si Si1 0.296574 0.325247 0.883859
Si Si2 0.808108 0.675355 0.716337
Si Si3 0.500000 0.324289 0.445388
Si Si4 0.420484 0.175624 0.708431
Si Si5 0.132669 0.324798 0.891065
Si Si6 0.582981 0.829173 0.944594
O O1 0.301579 0.500000 0.873057
O O2 0.309706 0.239918 0.835509
O O3 0.216467 0.286646 0.905791
O O4 0.359325 0.279684 0.920224
O O5 0.792538 0.500000 0.713939
O O6 0.750000 0.750000 0.750000
O O7 0.884939 0.714324 0.741414
O O8 0.500000 0.500000 0.437277
O O9 0.500000 0.280566 0.500000
O O10 0.425673 0.259973 0.423188
O O11 0.500000 0.253263 0.707038
O O12 0.374231 0.231235 0.663191
O O13 0.428615 0.000000 0.703184
O O14 0.116197 0.500000 0.896381
O O15 0.500000 0.786983 0.929279
O O16 0.599646 0.000000 0.930014
O O17 0.591742 0.808156 0.000000
#
# Coordination Sequence:
#
# PCOD8291320 Si02
#       6
#    16  16   8  16  16  16
#     4  11  23  38  59  91 125 156 199 248 294 355
#     4  11  21  35  56  84 118 155 196 243 292 345
#     4  11  25  41  57  85 121 151 191 251 308 353
#     4   9  17  33  57  80 105 145 195 238 276 330
#     4  10  20  38  61  82 110 154 201 239 287 352
#     4   9  20  41  66  89 116 154 198 243 300 368
#
# _framework density 18.993935
#
# number of rings (size 3 to 8) (size 9 to 14) (size 15 to 20)
#    0.000    1.909    2.727    1.909    0.000    4.364 
#    0.000    6.364    0.000    0.000    0.000    0.000 
#    0.000    0.000    0.000    0.000    0.000    0.000 
#
# Total GULP energy -545460.552695 kJ/mol
# GULP energy per Si atom -12396.830743 kJ/mol
# Density = 1.895070 g / cm^3
# Si number density = 18.993935 Si / 1000 Ang^3
#
#
#
# Elastic Constant Matrix: (Units=GPa)
#
#
# Indices 1 2 3 4 5 6 
#
# 1 149.1586 53.6546 59.5301 0.0000 0.0000 0.0000
# 2 53.6546 79.2299 46.8530 0.0000 0.0000 0.0000
# 3 59.5301 46.8530 96.1101 0.0000 0.0000 0.0000
# 4 0.0000 0.0000 0.0000 34.3084 0.0000 0.0000
# 5 0.0000 0.0000 0.0000 0.0000 30.9485 0.0000
# 6 0.0000 0.0000 0.0000 0.0000 0.0000 30.6087
#
#
#
# Elastic Compliance Matrix: (Units=1/GPa)
#
#
# Indices 1 2 3 4 5 6 
#
# 1 0.009850 -0.004303 -0.004003 0.000000 0.000000 0.000000
# 2 -0.004303 0.019614 -0.006896 0.000000 0.000000 0.000000
# 3 -0.004003 -0.006896 0.016246 0.000000 0.000000 0.000000
# 4 0.000000 0.000000 0.000000 0.029147 0.000000 0.000000
# 5 0.000000 0.000000 0.000000 0.000000 0.032312 0.000000
# 6 0.000000 0.000000 0.000000 0.000000 0.000000 0.032670
#
#
# Mechanical properties :
#
#
# Convention : Reuss Voigt Hill
#
# Bulk Modulus (GPa) = 65.33958 71.61934 68.47946
# Shear Modulus (GPa) = 28.51508 30.13719 29.32614
#
# Velocity S-wave (km/s) = 3.87883 3.98763 3.93361
# Velocity P-wave (km/s) = 7.38480 7.68049 7.53410
#
# Compressibility (1/GPa) = 0.01530466
#
# Stress axis : x y z
#
# Youngs Moduli (GPa) = 101.52447 50.98501 61.55275
#
# Poissons Ratio (x) = 0.21939 0.24641
# Poissons Ratio (y) = 0.43686 0.42448
# Poissons Ratio (z) = 0.40643 0.35161
#
# Static dielectric constant tensor:
#      x y z
#    x 3.564100 0.000000 0.000000 
#    y 0.000000 3.695740 0.000000 
#    z 0.000000 0.000000 2.399920 
# 
# 
# High freq. dielectric constant tensor:
#      x y z
#    x 1.754040 0.000000 0.000000 
#    y 0.000000 1.723470 0.000000 
#    z 0.000000 0.000000 1.736860 
# 
# From -- ./inp_files/70366.got.cif
#   From: 2010.06.25/outbox.cif.g09.slc.cpg/sg71_36_cif.got.tgz:70366.got - 2010.06.28 04:59:45.
