data_PCOD8291481
_publ_section_title
;
Structure prediction by ZEFSAII (Michael W. Deem and Ramdas Pophale) SiO2 
 PCOD8291481
Probable space group: I M M M
;
_chemical_formula_sum "Si O2"
_cell_formula_units_Z 72
_cell_length_a 17.399994
_cell_length_b 12.939657
_cell_length_c 16.624102
_cell_angle_alpha 90.000000
_cell_angle_beta 90.000000
_cell_angle_gamma 90.000000
_cell_volume 3742.915803
_symmetry_space_group_name_H-M "I M M M"
_symmetry_group_IT_number 71
_symmetry_cell_setting 'orthorhombic'
loop_
_space_group_symop_operation_xyz
x,y,z
-x,-y,z
x,-y,-z
-x,y,-z
-x,-y,-z
x,y,-z
-x,y,z
x,-y,z
1/2+x,1/2+y,1/2+z
1/2-x,1/2-y,1/2+z
1/2+x,1/2-y,1/2-z
1/2-x,1/2+y,1/2-z
1/2-x,1/2-y,1/2-z
1/2+x,1/2+y,1/2-z
1/2-x,1/2+y,1/2+z
1/2+x,1/2-y,1/2+z
loop_
_atom_site_type_symbol
_atom_site_label
_atom_site_fract_x
_atom_site_fract_y
_atom_site_fract_z
Si Si1 0.191556 0.224879 0.679089
Si Si2 0.337773 0.792081 0.406930
Si Si3 0.913973 0.500000 0.095723
Si Si4 0.589861 0.381559 0.295632
Si Si5 0.912037 0.379973 0.408891
O O1 0.250000 0.250000 0.750000
O O2 0.245670 0.193628 0.604134
O O3 0.132407 0.136781 0.709636
O O4 0.142386 0.324207 0.654585
O O5 0.357544 0.777510 0.500000
O O6 0.374611 0.896437 0.370613
O O7 0.373028 0.692635 0.362533
O O8 0.000000 0.500000 0.128521
O O9 0.909557 0.500000 0.000000
O O10 0.500000 0.356691 0.285741
O O11 0.602696 0.500000 0.322308
O O12 0.896126 0.341592 0.500000
O O13 0.893291 0.500000 0.402146
O O14 0.000000 0.357181 0.385778
#
# Coordination Sequence:
#
# PCOD8291481 Si02
#       5
#    16  16   8  16  16
#     4  10  21  35  53  79 117 152 186 225 280 342
#     4  10  21  37  59  86 112 146 189 240 295 339
#     4   9  18  34  56  80 109 141 180 233 285 335
#     4  10  22  39  57  80 114 155 194 231 274 335
#     4   9  18  35  61  89 114 144 188 243 296 342
#
# _framework density 19.236339999999998
#
# number of rings (size 3 to 8) (size 9 to 14) (size 15 to 20)
#    0.000    2.333    0.000    2.667    1.556    5.333 
#    6.000    1.111    0.000    0.000    0.000    4.667 
#    0.000    0.000    0.000    0.000    0.000    0.000 
#
# Total GULP energy -446229.289987 kJ/mol
# GULP energy per Si atom -12395.258055 kJ/mol
# Density = 1.919256 g / cm^3
# Si number density = 19.236340 Si / 1000 Ang^3
#
#
#
# Elastic Constant Matrix: (Units=GPa)
#
#
# Indices 1 2 3 4 5 6 
#
# 1 137.4275 74.7229 50.1456 0.0000 0.0000 0.0000
# 2 74.7229 133.8595 47.7943 0.0000 0.0000 0.0000
# 3 50.1456 47.7943 57.8605 0.0000 0.0000 0.0000
# 4 0.0000 0.0000 0.0000 33.9728 0.0000 0.0000
# 5 0.0000 0.0000 0.0000 0.0000 31.6945 0.0000
# 6 0.0000 0.0000 0.0000 0.0000 0.0000 29.0094
#
#
#
# Elastic Compliance Matrix: (Units=1/GPa)
#
#
# Indices 1 2 3 4 5 6 
#
# 1 0.012163 -0.004292 -0.006996 0.000000 0.000000 0.000000
# 2 -0.004292 0.012110 -0.006284 0.000000 0.000000 0.000000
# 3 -0.006996 -0.006284 0.028537 0.000000 0.000000 0.000000
# 4 0.000000 0.000000 0.000000 0.029435 0.000000 0.000000
# 5 0.000000 0.000000 0.000000 0.000000 0.031551 0.000000
# 6 0.000000 0.000000 0.000000 0.000000 0.000000 0.034472
#
#
# Mechanical properties :
#
#
# Convention : Reuss Voigt Hill
#
# Bulk Modulus (GPa) = 56.60398 74.94147 65.77273
# Shear Modulus (GPa) = 26.41328 29.36764 27.89046
#
# Velocity S-wave (km/s) = 3.70955 3.91151 3.81187
# Velocity P-wave (km/s) = 6.91644 7.70991 7.32393
#
# Compressibility (1/GPa) = 0.01766660
#
# Stress axis : x y z
#
# Youngs Moduli (GPa) = 82.21798 82.57850 35.04265
#
# Poissons Ratio (x) = 0.35439 0.24516
# Poissons Ratio (y) = 0.35284 0.22019
# Poissons Ratio (z) = 0.57521 0.51889
#
# Static dielectric constant tensor:
#      x y z
#    x 3.984490 0.000000 0.000000 
#    y 0.000000 3.447080 0.000000 
#    z 0.000000 0.000000 3.640590 
# 
# 
# High freq. dielectric constant tensor:
#      x y z
#    x 1.766510 0.000000 0.000000 
#    y 0.000000 1.741540 0.000000 
#    z 0.000000 0.000000 1.737310 
# 
# From -- ./inp_files/23496.got.cif
#   From: 2010.06.25/outbox.cif.g09.slc.cpg/sg71_12_cif.got.tgz:23496.got - 2010.06.28 04:59:45.
