data_PCOD8291492
_publ_section_title
;
Structure prediction by ZEFSAII (Michael W. Deem and Ramdas Pophale) SiO2 
 PCOD8291492
Probable space group: I M M M
;
_chemical_formula_sum "Si O2"
_cell_formula_units_Z 96
_cell_length_a 24.393655
_cell_length_b 20.972678
_cell_length_c 9.049911
_cell_angle_alpha 90.000000
_cell_angle_beta 90.000000
_cell_angle_gamma 90.000000
_cell_volume 4629.936925
_symmetry_space_group_name_H-M "I M M M"
_symmetry_group_IT_number 71
_symmetry_cell_setting 'orthorhombic'
loop_
_space_group_symop_operation_xyz
x,y,z
-x,-y,z
x,-y,-z
-x,y,-z
-x,-y,-z
x,y,-z
-x,y,z
x,-y,z
1/2+x,1/2+y,1/2+z
1/2-x,1/2-y,1/2+z
1/2+x,1/2-y,1/2-z
1/2-x,1/2+y,1/2-z
1/2-x,1/2-y,1/2-z
1/2+x,1/2+y,1/2-z
1/2-x,1/2+y,1/2+z
1/2+x,1/2-y,1/2+z
loop_
_atom_site_type_symbol
_atom_site_label
_atom_site_fract_x
_atom_site_fract_y
_atom_site_fract_z
Si Si1 0.669719 0.428718 0.173638
Si Si2 0.058879 0.425626 0.161388
Si Si3 0.742254 0.318722 0.327933
Si Si4 0.561697 0.397901 0.327047
Si Si5 0.865254 0.345205 0.667057
Si Si6 0.438814 0.732849 0.168897
O O1 0.696001 0.500000 0.201319
O O2 0.700510 0.369051 0.252618
O O3 0.607642 0.435020 0.234031
O O4 0.669237 0.413257 0.000000
O O5 0.059950 0.500000 0.144203
O O6 0.109902 0.407496 0.260636
O O7 0.000000 0.403847 0.229104
O O8 0.065781 0.394059 0.000000
O O9 0.725866 0.308733 0.500000
O O10 0.750000 0.250000 0.250000
O O11 0.800950 0.351224 0.312375
O O12 0.574717 0.405299 0.500000
O O13 0.500000 0.424076 0.292478
O O14 0.565336 0.324740 0.281540
O O15 0.884123 0.345481 0.500000
O O16 0.893449 0.281658 0.733331
O O17 0.500000 0.762710 0.175027
O O18 0.425205 0.711070 0.000000
#
# Coordination Sequence:
#
# PCOD8291492 Si02
#       6
#    16  16  16  16  16  16
#     4  11  25  44  65  89 120 161 208 255 304 361
#     4   9  19  35  53  76 109 148 189 234 284 339
#     4  11  24  42  65  92 123 159 202 254 309 366
#     4  10  21  37  60  91 123 154 190 236 295 361
#     4  10  21  35  54  82 111 143 187 237 289 345
#     4   9  17  31  53  82 118 155 190 234 287 346
#
# _framework density 20.734622999999999
#
# number of rings (size 3 to 8) (size 9 to 14) (size 15 to 20)
#    0.000    2.000    0.000    3.500    0.000    8.000 
#    0.000    7.500    0.000    0.000    0.000    0.000 
#    0.000    0.000    0.000    0.000    0.000    0.000 
#
# Total GULP energy -594710.448199 kJ/mol
# GULP energy per Si atom -12389.801004 kJ/mol
# Density = 2.068743 g / cm^3
# Si number density = 20.734623 Si / 1000 Ang^3
#
#
#
# Elastic Constant Matrix: (Units=GPa)
#
#
# Indices 1 2 3 4 5 6 
#
# 1 93.1030 45.1972 59.3158 0.0000 0.0000 0.0000
# 2 45.1972 93.8568 53.2369 0.0000 0.0000 0.0000
# 3 59.3158 53.2369 100.4444 0.0000 0.0000 0.0000
# 4 0.0000 0.0000 0.0000 30.5735 0.0000 0.0000
# 5 0.0000 0.0000 0.0000 0.0000 29.1833 0.0000
# 6 0.0000 0.0000 0.0000 0.0000 0.0000 29.2508
#
#
#
# Elastic Compliance Matrix: (Units=1/GPa)
#
#
# Indices 1 2 3 4 5 6 
#
# 1 0.018119 -0.003798 -0.008687 0.000000 0.000000 0.000000
# 2 -0.003798 0.016031 -0.006254 0.000000 0.000000 0.000000
# 3 -0.008687 -0.006254 0.018400 0.000000 0.000000 0.000000
# 4 0.000000 0.000000 0.000000 0.032708 0.000000 0.000000
# 5 0.000000 0.000000 0.000000 0.000000 0.034266 0.000000
# 6 0.000000 0.000000 0.000000 0.000000 0.000000 0.034187
#
#
# Mechanical properties :
#
#
# Convention : Reuss Voigt Hill
#
# Bulk Modulus (GPa) = 66.34470 66.98934 66.66702
# Shear Modulus (GPa) = 25.48261 26.44512 25.96387
#
# Velocity S-wave (km/s) = 3.50950 3.57516 3.54248
# Velocity P-wave (km/s) = 6.96338 7.02997 6.99675
#
# Compressibility (1/GPa) = 0.01507279
#
# Stress axis : x y z
#
# Youngs Moduli (GPa) = 55.19102 62.38073 54.34737
#
# Poissons Ratio (x) = 0.23692 0.47211
# Poissons Ratio (y) = 0.20961 0.33987
# Poissons Ratio (z) = 0.47944 0.39011
#
# Static dielectric constant tensor:
#      x y z
#    x 4.000200 0.000000 0.000000 
#    y 0.000000 3.638380 0.000000 
#    z 0.000000 0.000000 3.833820 
# 
# 
# High freq. dielectric constant tensor:
#      x y z
#    x 1.817190 0.000000 0.000000 
#    y 0.000000 1.807170 0.000000 
#    z 0.000000 0.000000 1.810930 
# 
# From -- ./inp_files/12850.got.cif
#   From: 2010.06.25/outbox.cif.g09.slc.cpg/sg71_7_cif.got.tgz:12850.got - 2010.06.28 04:59:45.
