data_PCOD8291418
_publ_section_title
;
Structure prediction by ZEFSAII (Michael W. Deem and Ramdas Pophale) SiO2 
 PCOD8291418
Probable space group: I M M M
;
_chemical_formula_sum "Si O2"
_cell_formula_units_Z 104
_cell_length_a 8.980931
_cell_length_b 25.030195
_cell_length_c 32.800054
_cell_angle_alpha 90.000000
_cell_angle_beta 90.000000
_cell_angle_gamma 90.000000
_cell_volume 7373.270237
_symmetry_space_group_name_H-M "I M M M"
_symmetry_group_IT_number 71
_symmetry_cell_setting 'orthorhombic'
loop_
_space_group_symop_operation_xyz
x,y,z
-x,-y,z
x,-y,-z
-x,y,-z
-x,-y,-z
x,y,-z
-x,y,z
x,-y,z
1/2+x,1/2+y,1/2+z
1/2-x,1/2-y,1/2+z
1/2+x,1/2-y,1/2-z
1/2-x,1/2+y,1/2-z
1/2-x,1/2-y,1/2-z
1/2+x,1/2+y,1/2-z
1/2-x,1/2+y,1/2+z
1/2+x,1/2-y,1/2+z
loop_
_atom_site_type_symbol
_atom_site_label
_atom_site_fract_x
_atom_site_fract_y
_atom_site_fract_z
Si Si1 0.824502 0.608134 0.953630
Si Si2 0.673901 0.722876 0.191902
Si Si3 0.331992 0.500000 0.048389
Si Si4 0.675864 0.828997 0.768062
Si Si5 0.173295 0.847758 0.381444
Si Si6 0.172512 0.443121 0.260162
Si Si7 0.330621 0.939900 0.335624
O O1 0.754387 0.552875 0.936956
O O2 0.763546 0.655087 0.924156
O O3 0.000000 0.603183 0.950062
O O4 0.775741 0.620856 0.000000
O O5 0.500000 0.714501 0.200457
O O6 0.718918 0.785423 0.197416
O O7 0.759773 0.687179 0.224409
O O8 0.715252 0.703855 0.146245
O O9 0.500000 0.500000 0.065919
O O10 0.333810 0.500000 0.000000
O O11 0.500000 0.832354 0.761863
O O12 0.737185 0.888409 0.780699
O O13 0.214698 0.901140 0.357176
O O14 0.000000 0.848606 0.391976
O O15 0.247073 0.500000 0.274886
O O16 0.196975 0.436996 0.212277
O O17 0.000000 0.447441 0.270813
O O18 0.500000 0.922579 0.346148
O O19 0.300672 0.000000 0.351426
#
# Coordination Sequence:
#
# PCOD8291418 Si02
#       7
#    16  16   8  16  16  16  16
#     4  10  21  35  48  59  72  94 126 160 192 233
#     4   9  18  28  38  57  78  99 127 158 191 227
#     4   9  17  31  49  65  79  95 117 149 197 247
#     4   9  15  26  43  56  74 102 129 158 191 224
#     4  11  21  30  41  57  79  99 124 159 197 240
#     4   8  13  22  38  58  75  95 127 162 192 223
#     4   9  17  28  40  54  73  97 128 163 196 231
#
# _framework density 14.105003
#
# number of rings (size 3 to 8) (size 9 to 14) (size 15 to 20)
#    0.000    2.692    1.538    2.077    1.077    2.769 
#    0.000    0.000    0.000    0.462    0.000    0.000 
#    0.000    0.000    0.000    0.000    0.000    0.769 
#
# Total GULP energy -644268.921947 kJ/mol
# GULP energy per Si atom -12389.786961 kJ/mol
# Density = 1.407290 g / cm^3
# Si number density = 14.105003 Si / 1000 Ang^3
#
#
#
# Elastic Constant Matrix: (Units=GPa)
#
#
# Indices 1 2 3 4 5 6 
#
# 1 38.6833 22.7932 22.1907 0.0000 0.0000 0.0000
# 2 22.7932 120.6764 45.8219 0.0000 0.0000 0.0000
# 3 22.1907 45.8219 54.4149 0.0000 0.0000 0.0000
# 4 0.0000 0.0000 0.0000 21.0361 0.0000 0.0000
# 5 0.0000 0.0000 0.0000 0.0000 15.6190 0.0000
# 6 0.0000 0.0000 0.0000 0.0000 0.0000 13.9681
#
#
#
# Elastic Compliance Matrix: (Units=1/GPa)
#
#
# Indices 1 2 3 4 5 6 
#
# 1 0.033981 -0.001700 -0.012426 0.000000 0.000000 0.000000
# 2 -0.001700 0.012267 -0.009636 0.000000 0.000000 0.000000
# 3 -0.012426 -0.009636 0.031559 0.000000 0.000000 0.000000
# 4 0.000000 0.000000 0.000000 0.047537 0.000000 0.000000
# 5 0.000000 0.000000 0.000000 0.000000 0.064025 0.000000
# 6 0.000000 0.000000 0.000000 0.000000 0.000000 0.071592
#
#
# Mechanical properties :
#
#
# Convention : Reuss Voigt Hill
#
# Bulk Modulus (GPa) = 33.02276 43.93181 38.47729
# Shear Modulus (GPa) = 15.69468 18.32255 17.00862
#
# Velocity S-wave (km/s) = 3.33934 3.60809 3.47631
# Velocity P-wave (km/s) = 6.19122 6.96933 6.59177
#
# Compressibility (1/GPa) = 0.03028214
#
# Stress axis : x y z
#
# Youngs Moduli (GPa) = 29.42835 81.52134 31.68629
#
# Poissons Ratio (x) = 0.13858 0.39374
# Poissons Ratio (y) = 0.05003 0.30534
# Poissons Ratio (z) = 0.36568 0.78557
#
# Static dielectric constant tensor:
#      x y z
#    x 2.710940 0.000000 0.000000 
#    y 0.000000 3.103870 0.000000 
#    z 0.000000 0.000000 2.676190 
# 
# 
# High freq. dielectric constant tensor:
#      x y z
#    x 1.533330 0.000000 0.000000 
#    y 0.000000 1.526070 0.000000 
#    z 0.000000 0.000000 1.500910 
# 
# From -- ./inp_files/68568.got.cif
#   From: 2010.06.25/outbox.cif.g09.slc.cpg/sg71_35_cif.got.tgz:68568.got - 2010.06.28 04:59:45.
