data_PCOD8291279
_publ_section_title
;
Structure prediction by ZEFSAII (Michael W. Deem and Ramdas Pophale) SiO2 
 PCOD8291279
Probable space group: I M M M
;
_chemical_formula_sum "Si O2"
_cell_formula_units_Z 112
_cell_length_a 13.919420
_cell_length_b 17.741740
_cell_length_c 22.712358
_cell_angle_alpha 90.000000
_cell_angle_beta 90.000000
_cell_angle_gamma 90.000000
_cell_volume 5608.924251
_symmetry_space_group_name_H-M "I M M M"
_symmetry_group_IT_number 71
_symmetry_cell_setting 'orthorhombic'
loop_
_space_group_symop_operation_xyz
x,y,z
-x,-y,z
x,-y,-z
-x,y,-z
-x,-y,-z
x,y,-z
-x,y,z
x,-y,z
1/2+x,1/2+y,1/2+z
1/2-x,1/2-y,1/2+z
1/2+x,1/2-y,1/2-z
1/2-x,1/2+y,1/2-z
1/2-x,1/2-y,1/2-z
1/2+x,1/2+y,1/2-z
1/2-x,1/2+y,1/2+z
1/2+x,1/2-y,1/2+z
loop_
_atom_site_type_symbol
_atom_site_label
_atom_site_fract_x
_atom_site_fract_y
_atom_site_fract_z
Si Si1 0.609402 0.801563 0.734049
Si Si2 0.389227 0.370380 0.724027
Si Si3 0.239526 0.087498 0.324572
Si Si4 0.282229 0.584134 0.385837
Si Si5 0.389424 0.188205 0.129213
Si Si6 0.604219 0.283847 0.567729
Si Si7 0.720525 0.315647 0.930246
O O1 0.500000 0.827832 0.725443
O O2 0.626665 0.717913 0.707830
O O3 0.674575 0.863416 0.702809
O O4 0.634264 0.793822 0.803024
O O5 0.500000 0.393361 0.716698
O O6 0.358031 0.392282 0.789888
O O7 0.320675 0.417573 0.681027
O O8 0.218607 0.107026 0.393157
O O9 0.267135 0.000000 0.320116
O O10 0.278048 0.500000 0.411196
O O11 0.175266 0.617885 0.391026
O O12 0.357647 0.631557 0.424097
O O13 0.500000 0.166084 0.119563
O O14 0.366355 0.261098 0.089050
O O15 0.589516 0.268170 0.500000
O O16 0.500000 0.274066 0.599696
O O17 0.680407 0.223585 0.591401
O O18 0.715324 0.332318 0.000000
#
# Coordination Sequence:
#
# PCOD8291279 Si02
#       7
#    16  16  16  16  16  16  16
#     4  10  20  37  62  86 112 152 199 246 295 350
#     4  11  22  37  57  81 113 154 196 236 284 346
#     4  12  24  37  57  88 125 157 189 238 299 359
#     4  11  22  34  52  83 121 153 184 229 291 356
#     4  10  20  37  61  85 112 150 199 251 298 344
#     4   9  19  37  60  83 108 146 196 242 283 335
#     4  10  22  40  62  85 113 153 205 253 289 342
#
# _framework density 19.968178999999999
#
# number of rings (size 3 to 8) (size 9 to 14) (size 15 to 20)
#    0.000    1.571    2.857    3.000    0.000    5.143 
#    0.000    2.143    0.000    0.000    0.000    9.000 
#    0.000    0.000    0.000    0.000    0.000    0.000 
#
# Total GULP energy -694359.026405 kJ/mol
# GULP energy per Si atom -12399.268329 kJ/mol
# Density = 1.992273 g / cm^3
# Si number density = 19.968179 Si / 1000 Ang^3
#
#
#
# Elastic Constant Matrix: (Units=GPa)
#
#
# Indices 1 2 3 4 5 6 
#
# 1 105.4430 24.9774 20.8108 0.0000 0.0000 0.0000
# 2 24.9774 101.1523 22.0632 0.0000 0.0000 0.0000
# 3 20.8108 22.0632 78.8272 0.0000 0.0000 0.0000
# 4 0.0000 0.0000 0.0000 18.6892 0.0000 0.0000
# 5 0.0000 0.0000 0.0000 0.0000 21.7344 0.0000
# 6 0.0000 0.0000 0.0000 0.0000 0.0000 15.3202
#
#
#
# Elastic Compliance Matrix: (Units=1/GPa)
#
#
# Indices 1 2 3 4 5 6 
#
# 1 0.010407 -0.002099 -0.002160 0.000000 0.000000 0.000000
# 2 -0.002099 0.010952 -0.002511 0.000000 0.000000 0.000000
# 3 -0.002160 -0.002511 0.013959 0.000000 0.000000 0.000000
# 4 0.000000 0.000000 0.000000 0.053507 0.000000 0.000000
# 5 0.000000 0.000000 0.000000 0.000000 0.046010 0.000000
# 6 0.000000 0.000000 0.000000 0.000000 0.000000 0.065273
#
#
# Mechanical properties :
#
#
# Convention : Reuss Voigt Hill
#
# Bulk Modulus (GPa) = 45.91763 46.79172 46.35467
# Shear Modulus (GPa) = 22.63380 25.65350 24.14365
#
# Velocity S-wave (km/s) = 3.37039 3.58819 3.48099
# Velocity P-wave (km/s) = 6.17992 6.37580 6.27862
#
# Compressibility (1/GPa) = 0.02177813
#
# Stress axis : x y z
#
# Youngs Moduli (GPa) = 96.08658 91.30685 71.63747
#
# Poissons Ratio (x) = 0.19162 0.15475
# Poissons Ratio (y) = 0.20166 0.17991
# Poissons Ratio (z) = 0.20756 0.22930
#
# Static dielectric constant tensor:
#      x y z
#    x 4.107170 0.000000 0.000000 
#    y 0.000000 3.385840 0.000000 
#    z 0.000000 0.000000 3.611130 
# 
# 
# High freq. dielectric constant tensor:
#      x y z
#    x 1.787340 0.000000 0.000000 
#    y 0.000000 1.755380 0.000000 
#    z 0.000000 0.000000 1.779580 
# 
# From -- ./inp_files/59912.got.cif
#   From: 2010.06.25/outbox.cif.g09.slc.cpg/sg71_30_cif.got.tgz:59912.got - 2010.06.28 04:59:45.
