data_PCOD8291159
_publ_section_title
;
Structure prediction by ZEFSAII (Michael W. Deem and Ramdas Pophale) SiO2 
 PCOD8291159
Probable space group: I M M M
;
_chemical_formula_sum "Si O2"
_cell_formula_units_Z 64
_cell_length_a 20.923357
_cell_length_b 8.800704
_cell_length_c 18.225594
_cell_angle_alpha 90.000000
_cell_angle_beta 90.000000
_cell_angle_gamma 90.000000
_cell_volume 3356.065830
_symmetry_space_group_name_H-M "I M M M"
_symmetry_group_IT_number 71
_symmetry_cell_setting 'orthorhombic'
loop_
_space_group_symop_operation_xyz
x,y,z
-x,-y,z
x,-y,-z
-x,y,-z
-x,-y,-z
x,y,-z
-x,y,z
x,-y,z
1/2+x,1/2+y,1/2+z
1/2-x,1/2-y,1/2+z
1/2+x,1/2-y,1/2-z
1/2-x,1/2+y,1/2-z
1/2-x,1/2-y,1/2-z
1/2+x,1/2+y,1/2-z
1/2-x,1/2+y,1/2+z
1/2+x,1/2-y,1/2+z
loop_
_atom_site_type_symbol
_atom_site_label
_atom_site_fract_x
_atom_site_fract_y
_atom_site_fract_z
Si Si1 0.129963 0.676793 0.913807
Si Si2 0.746919 0.321388 0.329494
Si Si3 0.500000 0.671142 0.587145
Si Si4 0.138134 0.177399 0.413142
Si Si5 0.000000 0.824938 0.414211
O O1 0.133225 0.500000 0.894993
O O2 0.185753 0.762268 0.872433
O O3 0.062614 0.741275 0.884424
O O4 0.138211 0.706945 0.000000
O O5 0.741563 0.500000 0.321714
O O6 0.750000 0.250000 0.250000
O O7 0.810280 0.279789 0.373585
O O8 0.500000 0.500000 0.618589
O O9 0.500000 0.669758 0.500000
O O10 0.144995 0.199114 0.500000
O O11 0.068064 0.239114 0.384770
O O12 0.147864 0.000000 0.393044
O O13 0.000000 0.799412 0.500000
O O14 0.000000 0.000000 0.394522
#
# Coordination Sequence:
#
# PCOD8291159 Si02
#       5
#    16  16   8  16   8
#     4  10  20  36  59  85 112 143 180 223 272 325
#     4  12  25  39  54  75 107 145 186 229 275 327
#     4   9  17  31  54  85 116 143 176 220 268 319
#     4   9  17  33  58  85 111 140 176 217 263 318
#     4   7  12  26  52  83 110 137 170 208 252 309
#
# _framework density 19.069948
#
# number of rings (size 3 to 8) (size 9 to 14) (size 15 to 20)
#    0.000    2.250    0.000    5.625    0.000    6.500 
#    0.000    1.875    0.000    3.750    0.000    0.000 
#    0.000    0.000    0.000    0.000    0.000    0.000 
#
# Total GULP energy -396616.211086 kJ/mol
# GULP energy per Si atom -12394.256596 kJ/mol
# Density = 1.902654 g / cm^3
# Si number density = 19.069948 Si / 1000 Ang^3
#
#
#
# Elastic Constant Matrix: (Units=GPa)
#
#
# Indices 1 2 3 4 5 6 
#
# 1 207.4963 86.2299 57.7852 0.0000 0.0000 0.0000
# 2 86.2299 146.1941 53.5092 0.0000 0.0000 0.0000
# 3 57.7852 53.5092 56.0843 0.0000 0.0000 0.0000
# 4 0.0000 0.0000 0.0000 27.4819 0.0000 0.0000
# 5 0.0000 0.0000 0.0000 0.0000 -27.4142 0.0000
# 6 0.0000 0.0000 0.0000 0.0000 0.0000 27.1742
#
#
#
# Elastic Compliance Matrix: (Units=1/GPa)
#
#
# Indices 1 2 3 4 5 6 
#
# 1 0.007257 -0.002372 -0.005214 0.000000 0.000000 0.000000
# 2 -0.002372 0.011286 -0.008324 0.000000 0.000000 0.000000
# 3 -0.005214 -0.008324 0.031144 0.000000 0.000000 0.000000
# 4 0.000000 0.000000 0.000000 0.036388 0.000000 0.000000
# 5 0.000000 0.000000 0.000000 0.000000 -0.036478 0.000000
# 6 0.000000 0.000000 0.000000 0.000000 0.000000 0.036800
#
#
# Mechanical properties :
#
#
# Convention : Reuss Voigt Hill
#
# Bulk Modulus (GPa) = 55.96794 89.42481 72.69638
# Shear Modulus (GPa) = 40.26650 19.59842 29.93246
#
# Velocity S-wave (km/s) = 4.60011 3.20927 3.96613
# Velocity P-wave (km/s) = 7.59125 7.79278 7.69268
#
# Compressibility (1/GPa) = 0.01786737
#
# Stress axis : x y z
#
# Youngs Moduli (GPa) = 137.79410 88.60562 32.10878
#
# Poissons Ratio (x) = 0.21018 0.16742
# Poissons Ratio (y) = 0.32686 0.26727
# Poissons Ratio (z) = 0.71848 0.73753
#
# Static dielectric constant tensor:
#      x y z
#    x 4.052520 0.000000 0.000000 
#    y 0.000000 3.478070 0.000000 
#    z 0.000000 0.000000 3.745750 
# 
# 
# High freq. dielectric constant tensor:
#      x y z
#    x 1.772000 0.000000 0.000000 
#    y 0.000000 1.734120 0.000000 
#    z 0.000000 0.000000 1.707610 
# 
# From -- ./inp_files/46802.got.cif
#   From: 2010.06.25/outbox.cif.g09.slc.cpg/sg71_24_cif.got.tgz:46802.got - 2010.06.28 04:59:45.
