data_PCOD8291687
_publ_section_title
;
Structure prediction by ZEFSAII (Michael W. Deem and Ramdas Pophale) SiO2 
 PCOD8291687
Probable space group: I M M M
;
_chemical_formula_sum "Si O2"
_cell_formula_units_Z 96
_cell_length_a 25.440016
_cell_length_b 21.737805
_cell_length_c 8.882924
_cell_angle_alpha 90.000000
_cell_angle_beta 90.000000
_cell_angle_gamma 90.000000
_cell_volume 4912.346752
_symmetry_space_group_name_H-M "I M M M"
_symmetry_group_IT_number 71
_symmetry_cell_setting 'orthorhombic'
loop_
_space_group_symop_operation_xyz
x,y,z
-x,-y,z
x,-y,-z
-x,y,-z
-x,-y,-z
x,y,-z
-x,y,z
x,-y,z
1/2+x,1/2+y,1/2+z
1/2-x,1/2-y,1/2+z
1/2+x,1/2-y,1/2-z
1/2-x,1/2+y,1/2-z
1/2-x,1/2-y,1/2-z
1/2+x,1/2+y,1/2-z
1/2-x,1/2+y,1/2+z
1/2+x,1/2-y,1/2+z
loop_
_atom_site_type_symbol
_atom_site_label
_atom_site_fract_x
_atom_site_fract_y
_atom_site_fract_z
Si Si1 0.793507 0.500000 0.822303
Si Si2 0.058388 0.381832 0.829398
Si Si3 0.858261 0.302217 0.670741
Si Si4 0.558640 0.569268 0.178561
Si Si5 0.150302 0.841128 0.326630
Si Si6 0.593687 0.000000 0.824157
Si Si7 0.243912 0.377395 0.675671
O O1 0.852215 0.500000 0.763924
O O2 0.763814 0.560035 0.765680
O O3 0.793177 0.500000 0.000000
O O4 0.099304 0.330187 0.782433
O O5 0.060973 0.440237 0.720200
O O6 0.000000 0.353720 0.816273
O O7 0.070732 0.402650 0.000000
O O8 0.870655 0.322903 0.500000
O O9 0.864315 0.229803 0.688005
O O10 0.800614 0.327011 0.716776
O O11 0.500000 0.586447 0.239288
O O12 0.573607 0.500000 0.231927
O O13 0.602093 0.617646 0.237765
O O14 0.557479 0.571876 0.000000
O O15 0.163032 0.858394 0.500000
O O16 0.200416 0.850504 0.222611
O O17 0.605792 0.000000 0.000000
O O18 0.243518 0.392534 0.500000
#
# Coordination Sequence:
#
# PCOD8291687 Si02
#       7
#     8  16  16  16  16   8  16
#     4  12  24  39  63  90 117 156 198 245 296 350
#     4  11  24  40  60  87 118 157 207 255 300 356
#     4  10  22  39  58  82 118 160 201 247 300 354
#     4   8  15  30  53  82 115 147 185 239 294 342
#     4  10  21  36  59  90 117 153 203 246 290 355
#     4  12  23  39  62  89 120 155 197 247 308 363
#     4  11  23  39  58  85 121 158 194 241 298 355
#
# _framework density 19.542594000000001
#
# number of rings (size 3 to 8) (size 9 to 14) (size 15 to 20)
#    0.000    1.667    1.667    3.750    1.167    4.333 
#    0.000    1.667    0.000    0.500    0.000    1.167 
#    0.000    0.000    0.000    0.000    0.000    0.000 
#
# Total GULP energy -595269.287043 kJ/mol
# GULP energy per Si atom -12401.443480 kJ/mol
# Density = 1.949811 g / cm^3
# Si number density = 19.542594 Si / 1000 Ang^3
#
#
#
# Elastic Constant Matrix: (Units=GPa)
#
#
# Indices 1 2 3 4 5 6 
#
# 1 137.0656 58.3637 45.1019 0.0000 0.0000 0.0000
# 2 58.3637 112.1317 41.0933 0.0000 0.0000 0.0000
# 3 45.1019 41.0933 87.3191 0.0000 0.0000 0.0000
# 4 0.0000 0.0000 0.0000 18.3347 0.0000 0.0000
# 5 0.0000 0.0000 0.0000 0.0000 22.2287 0.0000
# 6 0.0000 0.0000 0.0000 0.0000 0.0000 8.9988
#
#
#
# Elastic Compliance Matrix: (Units=1/GPa)
#
#
# Indices 1 2 3 4 5 6 
#
# 1 0.010111 -0.004047 -0.003318 0.000000 0.000000 0.000000
# 2 -0.004047 0.012396 -0.003744 0.000000 0.000000 0.000000
# 3 -0.003318 -0.003744 0.014928 0.000000 0.000000 0.000000
# 4 0.000000 0.000000 0.000000 0.054542 0.000000 0.000000
# 5 0.000000 0.000000 0.000000 0.000000 0.044987 0.000000
# 6 0.000000 0.000000 0.000000 0.000000 0.000000 0.111126
#
#
# Mechanical properties :
#
#
# Convention : Reuss Voigt Hill
#
# Bulk Modulus (GPa) = 65.71034 69.51492 67.61263
# Shear Modulus (GPa) = 18.15682 22.70959 20.43321
#
# Velocity S-wave (km/s) = 3.05140 3.41259 3.23704
# Velocity P-wave (km/s) = 6.79058 7.15373 6.97452
#
# Compressibility (1/GPa) = 0.01521830
#
# Stress axis : x y z
#
# Youngs Moduli (GPa) = 98.90587 80.66947 66.98889
#
# Poissons Ratio (x) = 0.32643 0.22227
# Poissons Ratio (y) = 0.40023 0.25079
# Poissons Ratio (z) = 0.32817 0.30200
#
# Static dielectric constant tensor:
#      x y z
#    x 3.720940 0.000000 0.000000 
#    y 0.000000 3.496710 0.000000 
#    z 0.000000 0.000000 3.461320 
# 
# 
# High freq. dielectric constant tensor:
#      x y z
#    x 1.769990 0.000000 0.000000 
#    y 0.000000 1.764770 0.000000 
#    z 0.000000 0.000000 1.746930 
# 
# From -- ./inp_files/12942.got.cif
#   From: 2010.06.25/outbox.cif.g09.slc.cpg/sg71_7_cif.got.tgz:12942.got - 2010.06.28 04:59:45.
