data_PCOD8291126
_publ_section_title
;
Structure prediction by ZEFSAII (Michael W. Deem and Ramdas Pophale) SiO2 
 PCOD8291126
Probable space group: I M M M
;
_chemical_formula_sum "Si O2"
_cell_formula_units_Z 88
_cell_length_a 9.310044
_cell_length_b 25.160689
_cell_length_c 19.588385
_cell_angle_alpha 90.000000
_cell_angle_beta 90.000000
_cell_angle_gamma 90.000000
_cell_volume 4588.522804
_symmetry_space_group_name_H-M "I M M M"
_symmetry_group_IT_number 71
_symmetry_cell_setting 'orthorhombic'
loop_
_space_group_symop_operation_xyz
x,y,z
-x,-y,z
x,-y,-z
-x,y,-z
-x,-y,-z
x,y,-z
-x,y,z
x,-y,z
1/2+x,1/2+y,1/2+z
1/2-x,1/2-y,1/2+z
1/2+x,1/2-y,1/2-z
1/2-x,1/2+y,1/2-z
1/2-x,1/2-y,1/2-z
1/2+x,1/2+y,1/2-z
1/2-x,1/2+y,1/2+z
1/2+x,1/2-y,1/2+z
loop_
_atom_site_type_symbol
_atom_site_label
_atom_site_fract_x
_atom_site_fract_y
_atom_site_fract_z
Si Si1 0.163206 0.792778 0.204489
Si Si2 0.669392 0.500000 0.421872
Si Si3 0.170683 0.914552 0.189872
Si Si4 0.663964 0.626929 0.920719
Si Si5 0.840567 0.272372 0.075869
Si Si6 0.842094 0.441086 0.818676
O O1 0.250000 0.750000 0.250000
O O2 0.222831 0.853100 0.200120
O O3 0.171883 0.777005 0.125658
O O4 0.000000 0.791996 0.232049
O O5 0.500000 0.500000 0.428270
O O6 0.734315 0.500000 0.500000
O O7 0.715464 0.554259 0.380437
O O8 0.250592 0.944699 0.249950
O O9 0.000000 0.918317 0.198966
O O10 0.500000 0.623489 0.896753
O O11 0.720024 0.685487 0.903571
O O12 0.757516 0.586895 0.878521
O O13 0.682371 0.613311 0.000000
O O14 0.000000 0.298525 0.080873
O O15 0.812542 0.250296 0.000000
O O16 0.864553 0.500000 0.845774
O O17 0.000000 0.414719 0.806481
#
# Coordination Sequence:
#
# PCOD8291126 Si02
#       6
#    16   8  16  16  16  16
#     4  10  21  34  52  81 112 145 185 229 277 331
#     4   9  18  34  59  89 116 145 186 239 293 344
#     4  10  20  36  58  83 113 148 188 234 286 341
#     4  10  21  36  55  80 109 142 181 225 271 322
#     4   9  18  34  54  76 107 145 181 219 267 322
#     4  11  23  37  55  78 106 142 183 226 274 330
#
# _framework density 19.178284000000001
#
# number of rings (size 3 to 8) (size 9 to 14) (size 15 to 20)
#    0.000    2.091    0.909    2.182    0.000    7.636 
#    0.000    5.455    0.000    1.091    0.000    2.545 
#    0.000    0.000    0.000    0.000    0.000    0.000 
#
# Total GULP energy -545173.541098 kJ/mol
# GULP energy per Si atom -12390.307752 kJ/mol
# Density = 1.913463 g / cm^3
# Si number density = 19.178284 Si / 1000 Ang^3
#
#
#
# Elastic Constant Matrix: (Units=GPa)
#
#
# Indices 1 2 3 4 5 6 
#
# 1 73.9235 35.1940 35.8213 0.0000 0.0000 0.0000
# 2 35.1940 109.0136 53.6277 0.0000 0.0000 0.0000
# 3 35.8213 53.6277 59.8966 0.0000 0.0000 -0.0001
# 4 0.0000 0.0000 0.0000 32.0041 0.0000 0.0000
# 5 0.0000 0.0000 0.0000 0.0000 23.4785 0.0000
# 6 0.0000 0.0000 -0.0001 0.0000 0.0000 13.9336
#
#
#
# Elastic Compliance Matrix: (Units=1/GPa)
#
#
# Indices 1 2 3 4 5 6 
#
# 1 0.019106 -0.000978 -0.010551 0.000000 0.000000 0.000000
# 2 -0.000978 0.016444 -0.014138 0.000000 0.000000 0.000000
# 3 -0.010551 -0.014138 0.035664 0.000000 0.000000 0.000000
# 4 0.000000 0.000000 0.000000 0.031246 0.000000 0.000000
# 5 0.000000 0.000000 0.000000 0.000000 0.042592 0.000000
# 6 0.000000 0.000000 0.000000 0.000000 0.000000 0.071769
#
#
# Mechanical properties :
#
#
# Convention : Reuss Voigt Hill
#
# Bulk Modulus (GPa) = 50.30170 54.67996 52.49083
# Shear Modulus (GPa) = 18.19638 21.76261 19.97949
#
# Velocity S-wave (km/s) = 3.08360 3.37226 3.23116
# Velocity P-wave (km/s) = 6.24208 6.61333 6.43039
#
# Compressibility (1/GPa) = 0.01988004
#
# Stress axis : x y z
#
# Youngs Moduli (GPa) = 52.34079 60.81304 28.03978
#
# Poissons Ratio (x) = 0.05946 0.29584
# Poissons Ratio (y) = 0.05118 0.39643
# Poissons Ratio (z) = 0.55223 0.85978
#
# Static dielectric constant tensor:
#      x y z
#    x 3.934410 0.000000 0.000000 
#    y 0.000000 2.182230 0.000000 
#    z 0.000000 0.000000 3.732920 
# 
# 
# High freq. dielectric constant tensor:
#      x y z
#    x 1.737980 0.000000 0.000000 
#    y 0.000000 1.743580 0.000000 
#    z 0.000000 0.000000 1.752470 
# 
# From -- ./inp_files/12567.got.cif
#   From: 2010.06.25/outbox.cif.g09.slc.cpg/sg71_7_cif.got.tgz:12567.got - 2010.06.28 04:59:45.
