data_PCOD8291315
_publ_section_title
;
Structure prediction by ZEFSAII (Michael W. Deem and Ramdas Pophale) SiO2 
 PCOD8291315
Probable space group: I M M M
;
_chemical_formula_sum "Si O2"
_cell_formula_units_Z 112
_cell_length_a 14.026944
_cell_length_b 31.741598
_cell_length_c 13.514919
_cell_angle_alpha 90.000000
_cell_angle_beta 90.000000
_cell_angle_gamma 90.000000
_cell_volume 6017.350338
_symmetry_space_group_name_H-M "I M M M"
_symmetry_group_IT_number 71
_symmetry_cell_setting 'orthorhombic'
loop_
_space_group_symop_operation_xyz
x,y,z
-x,-y,z
x,-y,-z
-x,y,-z
-x,-y,-z
x,y,-z
-x,y,z
x,-y,z
1/2+x,1/2+y,1/2+z
1/2-x,1/2-y,1/2+z
1/2+x,1/2-y,1/2-z
1/2-x,1/2+y,1/2-z
1/2-x,1/2-y,1/2-z
1/2+x,1/2+y,1/2-z
1/2-x,1/2+y,1/2+z
1/2+x,1/2-y,1/2+z
loop_
_atom_site_type_symbol
_atom_site_label
_atom_site_fract_x
_atom_site_fract_y
_atom_site_fract_z
Si Si1 0.390248 0.840109 0.884135
Si Si2 0.242985 0.600972 0.742673
Si Si3 0.608795 0.049509 0.612600
Si Si4 0.108899 0.950788 0.886241
Si Si5 0.889897 0.751956 0.687052
Si Si6 0.392294 0.220899 0.391761
Si Si7 0.717707 0.668358 0.109674
O O1 0.500000 0.847271 0.853177
O O2 0.325236 0.874597 0.831975
O O3 0.356856 0.793453 0.852756
O O4 0.375966 0.845680 0.000000
O O5 0.180130 0.571868 0.812918
O O6 0.319128 0.574142 0.682867
O O7 0.305598 0.632712 0.810470
O O8 0.632646 0.063275 0.500000
O O9 0.500000 0.061768 0.638395
O O10 0.623466 0.000000 0.624726
O O11 0.000000 0.938926 0.858827
O O12 0.126292 0.000000 0.869047
O O13 0.129234 0.938866 0.000000
O O14 0.866491 0.754094 0.805038
O O15 0.833647 0.787750 0.630836
O O16 0.000000 0.759820 0.664163
O O17 0.378650 0.242663 0.500000
O O18 0.500000 0.205132 0.375659
O O19 0.330706 0.178260 0.385014
O O20 0.688283 0.652858 0.000000
#
# Coordination Sequence:
#
# PCOD8291315 Si02
#       7
#    16  16  16  16  16  16  16
#     4  10  21  35  52  77 109 144 182 222 265 322
#     4  12  21  33  57  86 115 138 179 227 286 322
#     4   9  19  36  57  83 116 151 182 213 261 335
#     4   9  20  41  65  85 107 140 182 226 279 344
#     4  10  20  38  56  70  99 149 193 224 266 319
#     4   9  18  33  53  76 101 133 179 231 275 315
#     4  11  23  35  52  78 109 144 185 227 267 319
#
# _framework density 18.612843999999999
#
# number of rings (size 3 to 8) (size 9 to 14) (size 15 to 20)
#    0.000    2.000    1.429    3.429    0.000    2.000 
#    0.000    2.143    0.000    3.000    0.000   11.000 
#    0.000    0.000    0.000    0.000    0.000    0.000 
#
# Total GULP energy -694308.534272 kJ/mol
# GULP energy per Si atom -12398.366683 kJ/mol
# Density = 1.857048 g / cm^3
# Si number density = 18.612844 Si / 1000 Ang^3
#
#
#
# Elastic Constant Matrix: (Units=GPa)
#
#
# Indices 1 2 3 4 5 6 
#
# 1 96.0624 65.1537 70.8565 0.0000 0.0000 -0.0001
# 2 65.1537 91.4261 66.4286 0.0005 -0.0002 -0.0001
# 3 70.8565 66.4286 136.7654 -0.0011 -0.0007 0.0001
# 4 0.0000 0.0005 -0.0011 25.3945 0.0002 0.0000
# 5 0.0000 -0.0002 -0.0007 0.0002 31.3322 0.0002
# 6 -0.0001 -0.0001 0.0001 0.0000 0.0002 22.5539
#
#
#
# Elastic Compliance Matrix: (Units=1/GPa)
#
#
# Indices 1 2 3 4 5 6 
#
# 1 0.023051 -0.011976 -0.006125 0.000000 0.000000 0.000000
# 2 -0.011976 0.023126 -0.005028 -0.000001 0.000000 0.000000
# 3 -0.006125 -0.005028 0.012927 0.000001 0.000000 0.000000
# 4 0.000000 -0.000001 0.000001 0.039379 0.000000 0.000000
# 5 0.000000 0.000000 0.000000 0.000000 0.031916 0.000000
# 6 0.000000 0.000000 0.000000 0.000000 0.000000 0.044338
#
#
# Mechanical properties :
#
#
# Convention : Reuss Voigt Hill
#
# Bulk Modulus (GPa) = 77.85047 81.01463 79.43255
# Shear Modulus (GPa) = 22.19493 23.97712 23.08602
#
# Velocity S-wave (km/s) = 3.45694 3.59305 3.52565
# Velocity P-wave (km/s) = 7.60598 7.79962 7.70341
#
# Compressibility (1/GPa) = 0.01284514
#
# Stress axis : x y z
#
# Youngs Moduli (GPa) = 43.38226 43.24225 77.35634
#
# Poissons Ratio (x) = 0.51789 0.47383
# Poissons Ratio (y) = 0.51956 0.38891
# Poissons Ratio (z) = 0.26573 0.21740
#
# Static dielectric constant tensor:
#      x y z
#    x 3.426910 0.000000 0.000000 
#    y 0.000000 3.206950 0.000000 
#    z 0.000000 0.000000 3.716640 
# 
# 
# High freq. dielectric constant tensor:
#      x y z
#    x 1.721360 0.000000 0.000000 
#    y 0.000000 1.702010 0.000000 
#    z 0.000000 0.000000 1.742300 
# 
# From -- ./inp_files/22679.got.cif
#   From: 2010.06.25/outbox.cif.g09.slc.cpg/sg71_12_cif.got.tgz:22679.got - 2010.06.28 04:59:45.
