data_PCOD8291131
_publ_section_title
;
Structure prediction by ZEFSAII (Michael W. Deem and Ramdas Pophale) SiO2 
 PCOD8291131
Probable space group: I M M M
;
_chemical_formula_sum "Si O2"
_cell_formula_units_Z 120
_cell_length_a 26.114777
_cell_length_b 12.660344
_cell_length_c 18.418448
_cell_angle_alpha 90.000000
_cell_angle_beta 90.000000
_cell_angle_gamma 90.000000
_cell_volume 6089.545225
_symmetry_space_group_name_H-M "I M M M"
_symmetry_group_IT_number 71
_symmetry_cell_setting 'orthorhombic'
loop_
_space_group_symop_operation_xyz
x,y,z
-x,-y,z
x,-y,-z
-x,y,-z
-x,-y,-z
x,y,-z
-x,y,z
x,-y,z
1/2+x,1/2+y,1/2+z
1/2-x,1/2-y,1/2+z
1/2+x,1/2-y,1/2-z
1/2-x,1/2+y,1/2-z
1/2-x,1/2-y,1/2-z
1/2+x,1/2+y,1/2-z
1/2-x,1/2+y,1/2+z
1/2+x,1/2-y,1/2+z
loop_
_atom_site_type_symbol
_atom_site_label
_atom_site_fract_x
_atom_site_fract_y
_atom_site_fract_z
Si Si1 0.416195 0.617964 0.418311
Si Si2 0.193848 0.200964 0.083611
Si Si3 0.208917 0.621008 0.664446
Si Si4 0.443084 0.000000 0.913406
Si Si5 0.659337 0.879275 0.685045
Si Si6 0.882435 0.702242 0.416380
Si Si7 0.943089 0.738917 0.791749
Si Si8 0.059182 0.119894 0.654641
O O1 0.434191 0.641980 0.500000
O O2 0.432462 0.500000 0.395028
O O3 0.354862 0.624998 0.412793
O O4 0.444427 0.702874 0.368844
O O5 0.234465 0.148704 0.138047
O O6 0.177997 0.315342 0.114728
O O7 0.213541 0.212304 0.000000
O O8 0.196204 0.500000 0.642963
O O9 0.200858 0.637465 0.750578
O O10 0.171748 0.701902 0.623345
O O11 0.416171 0.105952 0.883569
O O12 0.500000 0.000000 0.881205
O O13 0.444060 0.000000 0.000000
O O14 0.602094 0.847129 0.711599
O O15 0.656802 0.000000 0.660643
O O16 0.872010 0.682758 0.500000
O O17 0.910116 0.814141 0.405654
O O18 0.930894 0.828221 0.732474
O O19 0.000000 0.688482 0.779378
O O20 0.000000 0.122310 0.632460
O O21 0.079918 0.000000 0.656038
#
# Coordination Sequence:
#
# PCOD8291131 Si02
#       8
#    16  16  16   8  16  16  16  16
#     4   9  18  33  54  84 117 146 185 239 297 353
#     4  10  21  37  60  87 117 155 196 239 292 357
#     4  11  21  37  61  89 119 152 193 245 301 352
#     4   9  18  32  50  76 112 150 189 241 302 352
#     4  10  22  40  61  87 120 155 195 242 294 352
#     4  11  21  34  53  81 113 149 195 248 301 352
#     4  10  20  36  58  84 116 153 196 239 290 354
#     4  10  21  37  55  76 108 154 201 243 292 352
#
# _framework density 19.705905000000001
#
# number of rings (size 3 to 8) (size 9 to 14) (size 15 to 20)
#    0.000    1.933    2.000    2.000    0.000    4.000 
#    0.000    2.000    0.000    1.600    0.000    3.733 
#    0.000    0.000    0.000    0.000    0.000    0.000 
#
# Total GULP energy -744016.235198 kJ/mol
# GULP energy per Si atom -12400.270587 kJ/mol
# Density = 1.966105 g / cm^3
# Si number density = 19.705905 Si / 1000 Ang^3
#
#
#
# Elastic Constant Matrix: (Units=GPa)
#
#
# Indices 1 2 3 4 5 6 
#
# 1 60.8557 9.5285 12.1248 0.0000 0.0000 0.0000
# 2 9.5285 89.9260 17.2164 0.0000 0.0000 0.0000
# 3 12.1248 17.2164 60.0747 0.0000 0.0000 0.0000
# 4 0.0000 0.0000 0.0000 26.9571 0.0000 0.0000
# 5 0.0000 0.0000 0.0000 0.0000 25.6321 0.0000
# 6 0.0000 0.0000 0.0000 0.0000 0.0000 23.6455
#
#
#
# Elastic Compliance Matrix: (Units=1/GPa)
#
#
# Indices 1 2 3 4 5 6 
#
# 1 0.017248 -0.001229 -0.003129 0.000000 0.000000 0.000000
# 2 -0.001229 0.011853 -0.003149 0.000000 0.000000 0.000000
# 3 -0.003129 -0.003149 0.018180 0.000000 0.000000 0.000000
# 4 0.000000 0.000000 0.000000 0.037096 0.000000 0.000000
# 5 0.000000 0.000000 0.000000 0.000000 0.039014 0.000000
# 6 0.000000 0.000000 0.000000 0.000000 0.000000 0.042291
#
#
# Mechanical properties :
#
#
# Convention : Reuss Voigt Hill
#
# Bulk Modulus (GPa) = 30.99037 32.06622 31.52829
# Shear Modulus (GPa) = 26.11627 26.71272 26.41449
#
# Velocity S-wave (km/s) = 3.64442 3.68580 3.66517
# Velocity P-wave (km/s) = 5.78529 5.86696 5.82627
#
# Compressibility (1/GPa) = 0.03226809
#
# Stress axis : x y z
#
# Youngs Moduli (GPa) = 57.97735 84.36464 55.00571
#
# Poissons Ratio (x) = 0.10364 0.17212
# Poissons Ratio (y) = 0.07123 0.17321
# Poissons Ratio (z) = 0.18142 0.26567
#
# Static dielectric constant tensor:
#      x y z
#    x 3.571840 0.000000 0.000000 
#    y 0.000000 3.501960 0.000000 
#    z 0.000000 0.000000 3.523630 
# 
# 
# High freq. dielectric constant tensor:
#      x y z
#    x 1.766730 0.000000 0.000000 
#    y 0.000000 1.758260 0.000000 
#    z 0.000000 0.000000 1.766700 
# 
# From -- ./inp_files/55844.got.cif
#   From: 2010.06.25/outbox.cif.g09.slc.cpg/sg71_28_cif.got.tgz:55844.got - 2010.06.28 04:59:45.
