data_PCOD8291504
_publ_section_title
;
Structure prediction by ZEFSAII (Michael W. Deem and Ramdas Pophale) SiO2 
 PCOD8291504
Probable space group: I M M M
;
_chemical_formula_sum "Si O2"
_cell_formula_units_Z 80
_cell_length_a 17.122853
_cell_length_b 12.980343
_cell_length_c 19.585026
_cell_angle_alpha 90.000000
_cell_angle_beta 90.000000
_cell_angle_gamma 90.000000
_cell_volume 4352.977771
_symmetry_space_group_name_H-M "I M M M"
_symmetry_group_IT_number 71
_symmetry_cell_setting 'orthorhombic'
loop_
_space_group_symop_operation_xyz
x,y,z
-x,-y,z
x,-y,-z
-x,y,-z
-x,-y,-z
x,y,-z
-x,y,z
x,-y,z
1/2+x,1/2+y,1/2+z
1/2-x,1/2-y,1/2+z
1/2+x,1/2-y,1/2-z
1/2-x,1/2+y,1/2-z
1/2-x,1/2-y,1/2-z
1/2+x,1/2+y,1/2-z
1/2-x,1/2+y,1/2+z
1/2+x,1/2-y,1/2+z
loop_
_atom_site_type_symbol
_atom_site_label
_atom_site_fract_x
_atom_site_fract_y
_atom_site_fract_z
Si Si1 0.087078 0.617925 0.279005
Si Si2 0.908753 0.707927 0.000000
Si Si3 0.416045 0.610518 0.921366
Si Si4 0.294671 0.228906 0.123589
Si Si5 0.157431 0.382453 0.863507
Si Si6 0.283323 0.620040 0.500000
O O1 0.093535 0.500000 0.302185
O O2 0.158282 0.676759 0.314967
O O3 0.095805 0.628987 0.197631
O O4 0.000000 0.659771 0.298168
O O5 0.885832 0.641330 0.934184
O O6 0.863845 0.816622 0.000000
O O7 0.000000 0.732693 0.000000
O O8 0.500000 0.643403 0.888770
O O9 0.389652 0.500000 0.888780
O O10 0.352786 0.697034 0.914780
O O11 0.428844 0.592317 0.000000
O O12 0.225297 0.299931 0.152133
O O13 0.265161 0.145486 0.068602
O O14 0.190196 0.500000 0.866479
O O15 0.304108 0.500000 0.500000
#
# Coordination Sequence:
#
# PCOD8291504 Si02
#       6
#    16   8  16  16  16   8
#     4  10  21  36  53  74 104 142 181 220 263 309
#     4  10  21  37  60  84 105 134 172 213 265 321
#     4   9  17  29  47  73 105 139 174 215 262 308
#     4  11  19  34  53  77 104 143 179 214 260 311
#     4  10  21  35  55  83 110 135 168 217 270 319
#     4  10  22  36  52  77 107 136 175 221 257 301
#
# _framework density 18.378225
#
# number of rings (size 3 to 8) (size 9 to 14) (size 15 to 20)
#    0.000    2.000    1.000    3.900    0.000    1.800 
#    0.000    0.000    0.000    3.600    0.000    0.000 
#    0.000    0.000    0.000    0.000    0.000    0.000 
#
# Total GULP energy -495678.455022 kJ/mol
# GULP energy per Si atom -12391.961376 kJ/mol
# Density = 1.833639 g / cm^3
# Si number density = 18.378225 Si / 1000 Ang^3
#
#
#
# Elastic Constant Matrix: (Units=GPa)
#
#
# Indices 1 2 3 4 5 6 
#
# 1 115.5795 47.6608 40.4502 0.0000 0.0000 0.0000
# 2 47.6608 104.7990 37.0055 0.0000 0.0000 0.0000
# 3 40.4502 37.0055 89.8568 0.0000 0.0000 0.0000
# 4 0.0000 0.0000 0.0000 27.3309 0.0000 0.0000
# 5 0.0000 0.0000 0.0000 0.0000 31.5591 0.0000
# 6 0.0000 0.0000 0.0000 0.0000 0.0000 17.7901
#
#
#
# Elastic Compliance Matrix: (Units=1/GPa)
#
#
# Indices 1 2 3 4 5 6 
#
# 1 0.011542 -0.003996 -0.003550 0.000000 0.000000 0.000000
# 2 -0.003996 0.012549 -0.003369 0.000000 0.000000 0.000000
# 3 -0.003550 -0.003369 0.014115 0.000000 0.000000 0.000000
# 4 0.000000 0.000000 0.000000 0.036589 0.000000 0.000000
# 5 0.000000 0.000000 0.000000 0.000000 0.031687 0.000000
# 6 0.000000 0.000000 0.000000 0.000000 0.000000 0.056211
#
#
# Mechanical properties :
#
#
# Convention : Reuss Voigt Hill
#
# Bulk Modulus (GPa) = 61.06782 62.27425 61.67103
# Shear Modulus (GPa) = 26.31843 27.67728 26.99786
#
# Velocity S-wave (km/s) = 3.78834 3.88491 3.83693
# Velocity P-wave (km/s) = 7.24126 7.35403 7.29786
#
# Compressibility (1/GPa) = 0.01637524
#
# Stress axis : x y z
#
# Youngs Moduli (GPa) = 86.63845 79.68809 70.84824
#
# Poissons Ratio (x) = 0.31840 0.25154
# Poissons Ratio (y) = 0.34617 0.23871
# Poissons Ratio (z) = 0.30760 0.26850
#
# Static dielectric constant tensor:
#      x y z
#    x 3.464670 0.000000 0.000000 
#    y 0.000000 3.379500 0.000000 
#    z 0.000000 0.000000 3.213820 
# 
# 
# High freq. dielectric constant tensor:
#      x y z
#    x 1.721120 0.000000 0.000000 
#    y 0.000000 1.713990 0.000000 
#    z 0.000000 0.000000 1.700850 
# 
# From -- ./inp_files/53887.got.cif
#   From: 2010.06.25/outbox.cif.g09.slc.cpg/sg71_27_cif.got.tgz:53887.got - 2010.06.28 04:59:45.
