data_PCOD8291264
_publ_section_title
;
Structure prediction by ZEFSAII (Michael W. Deem and Ramdas Pophale) SiO2 
 PCOD8291264
Probable space group: I M M M
;
_chemical_formula_sum "Si O2"
_cell_formula_units_Z 88
_cell_length_a 17.737889
_cell_length_b 28.506559
_cell_length_c 9.546449
_cell_angle_alpha 90.000000
_cell_angle_beta 90.000000
_cell_angle_gamma 90.000000
_cell_volume 4827.125463
_symmetry_space_group_name_H-M "I M M M"
_symmetry_group_IT_number 71
_symmetry_cell_setting 'orthorhombic'
loop_
_space_group_symop_operation_xyz
x,y,z
-x,-y,z
x,-y,-z
-x,y,-z
-x,-y,-z
x,y,-z
-x,y,z
x,-y,z
1/2+x,1/2+y,1/2+z
1/2-x,1/2-y,1/2+z
1/2+x,1/2-y,1/2-z
1/2-x,1/2+y,1/2-z
1/2-x,1/2-y,1/2-z
1/2+x,1/2+y,1/2-z
1/2-x,1/2+y,1/2+z
1/2+x,1/2-y,1/2+z
loop_
_atom_site_type_symbol
_atom_site_label
_atom_site_fract_x
_atom_site_fract_y
_atom_site_fract_z
Si Si1 0.000000 0.555382 0.840519
Si Si2 0.085582 0.109513 0.663729
Si Si3 0.293032 0.445468 0.338239
Si Si4 0.170293 0.200555 0.338811
Si Si5 0.632204 0.097123 0.160696
Si Si6 0.816049 0.303980 0.340467
O O1 0.925866 0.573121 0.763565
O O2 0.000000 0.500000 0.835974
O O3 0.000000 0.573880 0.000000
O O4 0.096440 0.099176 0.500000
O O5 0.138914 0.074432 0.747067
O O6 0.104243 0.164020 0.698277
O O7 0.000000 0.100314 0.711045
O O8 0.313047 0.436869 0.500000
O O9 0.282967 0.500000 0.303966
O O10 0.215733 0.419557 0.297959
O O11 0.193434 0.196211 0.500000
O O12 0.144326 0.254071 0.303552
O O13 0.243579 0.186700 0.252904
O O14 0.625591 0.153404 0.182262
O O15 0.613633 0.083116 0.000000
O O16 0.787164 0.304077 0.500000
#
# Coordination Sequence:
#
# PCOD8291264 Si02
#       6
#     8  16  16  16  16  16
#     4  11  25  41  57  81 113 147 183 227 280 333
#     4  10  21  36  53  77 111 149 185 223 270 323
#     4  10  21  37  58  82 106 137 181 230 276 323
#     4   9  17  31  52  80 110 142 177 218 267 319
#     4  10  20  37  60  84 110 142 182 225 272 331
#     4   9  17  31  55  84 108 137 177 220 266 319
#
# _framework density 18.230311
#
# number of rings (size 3 to 8) (size 9 to 14) (size 15 to 20)
#    0.000    2.273    1.818    0.818    0.000    4.000 
#    1.636    1.818    0.000    0.000    0.000    0.000 
#    0.000    0.000    0.000    0.000    0.000    0.000 
#
# Total GULP energy -545540.245402 kJ/mol
# GULP energy per Si atom -12398.641941 kJ/mol
# Density = 1.818882 g / cm^3
# Si number density = 18.230311 Si / 1000 Ang^3
#
#
#
# Elastic Constant Matrix: (Units=GPa)
#
#
# Indices 1 2 3 4 5 6 
#
# 1 89.9790 40.2445 49.1456 -0.0002 0.0000 0.0000
# 2 40.2445 102.1751 40.6899 0.0002 0.0000 0.0000
# 3 49.1456 40.6899 70.6691 0.0001 -0.0008 0.0005
# 4 -0.0002 0.0002 0.0001 28.6310 -0.0003 0.0001
# 5 0.0000 0.0000 -0.0008 -0.0003 28.2966 -0.0002
# 6 0.0000 0.0000 0.0005 0.0001 -0.0002 24.6203
#
#
#
# Elastic Compliance Matrix: (Units=1/GPa)
#
#
# Indices 1 2 3 4 5 6 
#
# 1 0.018522 -0.002810 -0.011263 0.000000 0.000000 0.000000
# 2 -0.002810 0.013125 -0.005603 0.000000 0.000000 0.000000
# 3 -0.011263 -0.005603 0.025209 0.000000 0.000001 -0.000001
# 4 0.000000 0.000000 0.000000 0.034927 0.000000 0.000000
# 5 0.000000 0.000000 0.000001 0.000000 0.035340 0.000000
# 6 0.000000 0.000000 -0.000001 0.000000 0.000000 0.040617
#
#
# Mechanical properties :
#
#
# Convention : Reuss Voigt Hill
#
# Bulk Modulus (GPa) = 57.12819 58.10924 57.61872
# Shear Modulus (GPa) = 23.48212 25.15913 24.32062
#
# Velocity S-wave (km/s) = 3.59288 3.71896 3.65646
# Velocity P-wave (km/s) = 6.97256 7.09825 7.03569
#
# Compressibility (1/GPa) = 0.01750449
#
# Stress axis : x y z
#
# Youngs Moduli (GPa) = 53.98896 76.18856 39.66812
#
# Poissons Ratio (x) = 0.21411 0.44678
# Poissons Ratio (y) = 0.15172 0.22226
# Poissons Ratio (z) = 0.60807 0.42689
#
# Static dielectric constant tensor:
#      x y z
#    x 3.118670 0.000000 0.000000 
#    y 0.000000 3.690010 0.000000 
#    z 0.000000 0.000000 3.399950 
# 
# 
# High freq. dielectric constant tensor:
#      x y z
#    x 1.684160 0.000000 0.000000 
#    y 0.000000 1.726440 0.000000 
#    z 0.000000 0.000000 1.705070 
# 
# From -- ./inp_files/8797.got.cif
#   From: 2010.06.25/outbox.cif.g09.slc.cpg/sg71_5_cif.got.tgz:8797.got - 2010.06.28 04:59:45.
