data_PCOD8291811
_publ_section_title
;
Structure prediction by ZEFSAII (Michael W. Deem and Ramdas Pophale) SiO2 
 PCOD8291811
Probable space group: I M M M
;
_chemical_formula_sum "Si O2"
_cell_formula_units_Z 104
_cell_length_a 21.676724
_cell_length_b 27.234806
_cell_length_c 8.900477
_cell_angle_alpha 90.000000
_cell_angle_beta 90.000000
_cell_angle_gamma 90.000000
_cell_volume 5254.497821
_symmetry_space_group_name_H-M "I M M M"
_symmetry_group_IT_number 71
_symmetry_cell_setting 'orthorhombic'
loop_
_space_group_symop_operation_xyz
x,y,z
-x,-y,z
x,-y,-z
-x,y,-z
-x,-y,-z
x,y,-z
-x,y,z
x,-y,z
1/2+x,1/2+y,1/2+z
1/2-x,1/2-y,1/2+z
1/2+x,1/2-y,1/2-z
1/2-x,1/2+y,1/2-z
1/2-x,1/2-y,1/2-z
1/2+x,1/2+y,1/2-z
1/2-x,1/2+y,1/2+z
1/2+x,1/2-y,1/2+z
loop_
_atom_site_type_symbol
_atom_site_label
_atom_site_fract_x
_atom_site_fract_y
_atom_site_fract_z
Si Si1 0.000000 0.092155 0.324235
Si Si2 0.070380 0.401980 0.676187
Si Si3 0.624001 0.443235 0.673488
Si Si4 0.163160 0.667391 0.172123
Si Si5 0.625229 0.275574 0.326008
Si Si6 0.799469 0.137782 0.322410
Si Si7 0.500000 0.707552 0.176188
Si Si8 0.073341 0.500000 0.830814
O O1 0.940435 0.067667 0.252499
O O2 0.000000 0.080942 0.500000
O O3 0.000000 0.149763 0.290863
O O4 0.074375 0.409015 0.500000
O O5 0.110134 0.355496 0.725489
O O6 0.098496 0.451214 0.750154
O O7 0.000000 0.392903 0.728487
O O8 0.618382 0.428078 0.500000
O O9 0.640953 0.500000 0.692597
O O10 0.679236 0.413261 0.750351
O O11 0.164160 0.725876 0.194091
O O12 0.228953 0.646598 0.224109
O O13 0.149219 0.653486 0.000000
O O14 0.618353 0.290163 0.500000
O O15 0.658959 0.318511 0.238395
O O16 0.558572 0.267271 0.253184
O O17 0.808674 0.135603 0.500000
O O18 0.500000 0.719365 0.000000
O O19 0.000000 0.500000 0.822202
O O20 0.098308 0.500000 0.000000
#
# Coordination Sequence:
#
# PCOD8291811 Si02
#       8
#     8  16  16  16  16  16   8   8
#     4  11  22  38  63  94 127 164 205 255 309 364
#     4  10  21  37  59  89 120 152 195 248 301 354
#     4  11  24  41  63  92 125 162 207 258 309 364
#     4  10  24  42  61  89 122 160 204 247 301 366
#     4  11  23  40  64  91 121 160 203 250 304 362
#     4  11  23  42  64  88 120 160 205 250 300 363
#     4  11  23  38  60  93 127 161 202 255 310 364
#     4   9  17  33  59  85 113 153 191 232 291 354
#
# _framework density 19.792566000000001
#
# number of rings (size 3 to 8) (size 9 to 14) (size 15 to 20)
#    0.000    1.462    1.538    3.231    1.077    7.077 
#    1.385    0.000    0.000    0.000    0.000    0.000 
#    0.000    0.000    0.000    0.000    0.000    0.000 
#
# Total GULP energy -645116.552364 kJ/mol
# GULP energy per Si atom -12406.087545 kJ/mol
# Density = 1.974752 g / cm^3
# Si number density = 19.792566 Si / 1000 Ang^3
#
#
#
# Elastic Constant Matrix: (Units=GPa)
#
#
# Indices 1 2 3 4 5 6 
#
# 1 119.4859 48.8800 54.2953 0.0000 0.0000 0.0000
# 2 48.8800 93.0168 44.0445 0.0000 0.0000 0.0000
# 3 54.2953 44.0445 105.7693 0.0000 0.0000 0.0000
# 4 0.0000 0.0000 0.0000 35.3614 0.0000 0.0000
# 5 0.0000 0.0000 0.0000 0.0000 26.7695 0.0000
# 6 0.0000 0.0000 0.0000 0.0000 0.0000 -25.7546
#
#
#
# Elastic Compliance Matrix: (Units=1/GPa)
#
#
# Indices 1 2 3 4 5 6 
#
# 1 0.012140 -0.004271 -0.004453 0.000000 0.000000 0.000000
# 2 -0.004271 0.014894 -0.004010 0.000000 0.000000 0.000000
# 3 -0.004453 -0.004010 0.013410 0.000000 0.000000 0.000000
# 4 0.000000 0.000000 0.000000 0.028279 0.000000 0.000000
# 5 0.000000 0.000000 0.000000 0.000000 0.037356 0.000000
# 6 0.000000 0.000000 0.000000 0.000000 0.000000 -0.038828
#
#
# Mechanical properties :
#
#
# Convention : Reuss Voigt Hill
#
# Bulk Modulus (GPa) = 66.77262 68.07907 67.42584
# Shear Modulus (GPa) = 51.17112 18.67872 34.92492
#
# Velocity S-wave (km/s) = 5.09017 3.07534 4.20521
# Velocity P-wave (km/s) = 8.26776 6.86158 7.59727
#
# Compressibility (1/GPa) = 0.01497620
#
# Stress axis : x y z
#
# Youngs Moduli (GPa) = 82.37240 67.14276 74.56908
#
# Poissons Ratio (x) = 0.28675 0.33209
# Poissons Ratio (y) = 0.35179 0.29900
# Poissons Ratio (z) = 0.36684 0.26922
#
# Static dielectric constant tensor:
#      x y z
#    x 3.678960 0.000000 0.000000 
#    y 0.000000 3.658180 0.000000 
#    z 0.000000 0.000000 3.734060 
# 
# 
# High freq. dielectric constant tensor:
#      x y z
#    x 1.765930 0.000000 0.000000 
#    y 0.000000 1.779660 0.000000 
#    z 0.000000 0.000000 1.785650 
# 
# From -- ./inp_files/11179.got.cif
#   From: 2010.06.25/outbox.cif.g09.slc.cpg/sg71_6_cif.got.tgz:11179.got - 2010.06.28 04:59:45.
