data_PCOD8291413
_publ_section_title
;
Structure prediction by ZEFSAII (Michael W. Deem and Ramdas Pophale) SiO2 
 PCOD8291413
Probable space group: I M M M
;
_chemical_formula_sum "Si O2"
_cell_formula_units_Z 88
_cell_length_a 8.863936
_cell_length_b 20.053443
_cell_length_c 24.521554
_cell_angle_alpha 90.000000
_cell_angle_beta 90.000000
_cell_angle_gamma 90.000000
_cell_volume 4358.765942
_symmetry_space_group_name_H-M "I M M M"
_symmetry_group_IT_number 71
_symmetry_cell_setting 'orthorhombic'
loop_
_space_group_symop_operation_xyz
x,y,z
-x,-y,z
x,-y,-z
-x,y,-z
-x,-y,-z
x,y,-z
-x,y,z
x,-y,z
1/2+x,1/2+y,1/2+z
1/2-x,1/2-y,1/2+z
1/2+x,1/2-y,1/2-z
1/2-x,1/2+y,1/2-z
1/2-x,1/2-y,1/2-z
1/2+x,1/2+y,1/2-z
1/2-x,1/2+y,1/2+z
1/2+x,1/2-y,1/2+z
loop_
_atom_site_type_symbol
_atom_site_label
_atom_site_fract_x
_atom_site_fract_y
_atom_site_fract_z
Si Si1 0.825971 0.867501 0.391610
Si Si2 0.672847 0.074718 0.210305
Si Si3 0.323728 0.806731 0.711778
Si Si4 0.323629 0.348160 0.500000
Si Si5 0.666354 0.714867 0.000000
Si Si6 0.678228 0.575277 0.397468
Si Si7 0.820333 0.500000 0.064269
O O1 0.753866 0.817040 0.346897
O O2 0.810371 0.830178 0.448052
O O3 0.739040 0.936870 0.401119
O O4 0.000000 0.881772 0.376104
O O5 0.500000 0.074393 0.192495
O O6 0.701639 0.121209 0.261532
O O7 0.765053 0.105001 0.159608
O O8 0.728372 0.000000 0.225460
O O9 0.500000 0.789288 0.704486
O O10 0.250000 0.750000 0.750000
O O11 0.500000 0.362211 0.500000
O O12 0.293973 0.270367 0.500000
O O13 0.251295 0.381556 0.446343
O O14 0.500000 0.747934 0.000000
O O15 0.500000 0.578525 0.397952
O O16 0.737540 0.500000 0.404239
O O17 0.000000 0.500000 0.066317
O O18 0.766483 0.500000 0.000000
#
# Coordination Sequence:
#
# PCOD8291413 Si02
#       7
#    16  16  16   8   8  16   8
#     4  11  24  44  67  94 128 168 212 260 319 383
#     4   9  20  39  60  83 115 154 196 245 300 356
#     4  11  25  43  65  92 126 167 213 266 321 382
#     4  10  21  34  55  85 116 153 197 247 300 358
#     4  10  24  42  60  85 123 163 200 249 310 373
#     4   9  18  34  56  83 115 150 192 242 296 354
#     4  11  23  41  69 103 135 169 211 264 325 390
#
# _framework density 20.189201000000001
#
# number of rings (size 3 to 8) (size 9 to 14) (size 15 to 20)
#    0.000    1.909    0.909    1.636    3.818    5.091 
#    0.000    0.000    0.000    2.727    0.000    0.000 
#    0.000    0.000    0.000    0.000    0.000    0.000 
#
# Total GULP energy -545513.382801 kJ/mol
# GULP energy per Si atom -12398.031427 kJ/mol
# Density = 2.014325 g / cm^3
# Si number density = 20.189201 Si / 1000 Ang^3
#
#
#
# Elastic Constant Matrix: (Units=GPa)
#
#
# Indices 1 2 3 4 5 6 
#
# 1 82.5448 38.6686 48.3409 0.0000 0.0000 0.0000
# 2 38.6686 80.3665 44.4862 0.0000 0.0000 0.0000
# 3 48.3409 44.4862 121.7907 0.0000 0.0000 0.0000
# 4 0.0000 0.0000 0.0000 -171.8526 0.0000 0.0000
# 5 0.0000 0.0000 0.0000 0.0000 33.3177 0.0000
# 6 0.0000 0.0000 0.0000 0.0000 0.0000 34.2431
#
#
#
# Elastic Compliance Matrix: (Units=1/GPa)
#
#
# Indices 1 2 3 4 5 6 
#
# 1 0.017708 -0.005803 -0.004909 0.000000 0.000000 0.000000
# 2 -0.005803 0.017498 -0.004088 0.000000 0.000000 0.000000
# 3 -0.004909 -0.004088 0.011653 0.000000 0.000000 0.000000
# 4 0.000000 0.000000 0.000000 -0.005819 0.000000 0.000000
# 5 0.000000 0.000000 0.000000 0.000000 0.030014 0.000000
# 6 0.000000 0.000000 0.000000 0.000000 0.000000 0.029203
#
#
# Mechanical properties :
#
#
# Convention : Reuss Voigt Hill
#
# Bulk Modulus (GPa) = 57.94286 60.85483 59.39885
# Shear Modulus (GPa) = 36.87057 -10.64461 13.11298
#
# Velocity S-wave (km/s) = 4.27810 -2.29867 2.55130
# Velocity P-wave (km/s) = 7.29144 4.81275 6.17769
#
# Compressibility (1/GPa) = 0.01725838
#
# Stress axis : x y z
#
# Youngs Moduli (GPa) = 56.47202 57.14916 85.81810
#
# Poissons Ratio (x) = 0.33163 0.42128
# Poissons Ratio (y) = 0.32770 0.35084
# Poissons Ratio (z) = 0.27722 0.23364
#
# Static dielectric constant tensor:
#      x y z
#    x 3.683510 0.000000 0.000000 
#    y 0.000000 3.693040 0.000000 
#    z 0.000000 0.000000 3.840940 
# 
# 
# High freq. dielectric constant tensor:
#      x y z
#    x 1.783750 0.000000 0.000000 
#    y 0.000000 1.790910 0.000000 
#    z 0.000000 0.000000 1.800040 
# 
# From -- ./inp_files/57613.got.cif
#   From: 2010.06.25/outbox.cif.g09.slc.cpg/sg71_29_cif.got.tgz:57613.got - 2010.06.28 04:59:45.
