data_PCOD8291708
_publ_section_title
;
Structure prediction by ZEFSAII (Michael W. Deem and Ramdas Pophale) SiO2 
 PCOD8291708
Probable space group: I M M M
;
_chemical_formula_sum "Si O2"
_cell_formula_units_Z 72
_cell_length_a 15.483393
_cell_length_b 8.019182
_cell_length_c 29.414047
_cell_angle_alpha 90.000000
_cell_angle_beta 90.000000
_cell_angle_gamma 90.000000
_cell_volume 3652.170039
_symmetry_space_group_name_H-M "I M M M"
_symmetry_group_IT_number 71
_symmetry_cell_setting 'orthorhombic'
loop_
_space_group_symop_operation_xyz
x,y,z
-x,-y,z
x,-y,-z
-x,y,-z
-x,-y,-z
x,y,-z
-x,y,z
x,-y,z
1/2+x,1/2+y,1/2+z
1/2-x,1/2-y,1/2+z
1/2+x,1/2-y,1/2-z
1/2-x,1/2+y,1/2-z
1/2-x,1/2-y,1/2-z
1/2+x,1/2+y,1/2-z
1/2-x,1/2+y,1/2+z
1/2+x,1/2-y,1/2+z
loop_
_atom_site_type_symbol
_atom_site_label
_atom_site_fract_x
_atom_site_fract_y
_atom_site_fract_z
Si Si1 0.207044 0.687397 0.051101
Si Si2 0.098790 0.807481 0.704438
Si Si3 0.904367 0.801399 0.192936
Si Si4 0.259752 0.191611 0.138121
Si Si5 0.093174 0.000000 0.946786
O O1 0.168034 0.500000 0.051636
O O2 0.279111 0.707105 0.090782
O O3 0.137991 0.826436 0.067112
O O4 0.242814 0.726375 0.000000
O O5 0.112958 0.740257 0.755532
O O6 0.158598 0.703007 0.670821
O O7 0.000000 0.780438 0.689467
O O8 0.125221 0.000000 0.700849
O O9 0.827130 0.731570 0.161496
O O10 0.000000 0.738248 0.177129
O O11 0.903280 0.000000 0.192696
O O12 0.243988 0.000000 0.125514
O O13 0.000000 0.000000 0.922151
O O14 0.081200 0.000000 0.000000
#
# Coordination Sequence:
#
# PCOD8291708 Si02
#       5
#    16  16  16  16   8
#     4  10  21  37  55  77 108 146 189 232 276 330
#     4   9  18  34  54  75 105 144 184 227 276 334
#     4   8  16  31  50  75 108 146 183 220 269 327
#     4  11  20  31  53  83 108 143 185 231 280 330
#     4   9  18  34  54  76 105 141 181 227 278 326
#
# _framework density 19.714307999999999
#
# number of rings (size 3 to 8) (size 9 to 14) (size 15 to 20)
#    0.000    2.556    1.111    2.667    0.000    1.778 
#    0.000    3.333    0.000    5.333    0.000    4.667 
#    0.000    0.000    0.000    0.000    0.000    0.000 
#
# Total GULP energy -446037.720483 kJ/mol
# GULP energy per Si atom -12389.936680 kJ/mol
# Density = 1.966944 g / cm^3
# Si number density = 19.714308 Si / 1000 Ang^3
#
#
#
# Elastic Constant Matrix: (Units=GPa)
#
#
# Indices 1 2 3 4 5 6 
#
# 1 78.9425 19.9552 55.8624 0.0000 0.0000 0.0000
# 2 19.9552 78.8335 31.1095 0.0000 0.0000 0.0000
# 3 55.8624 31.1095 128.5130 0.0000 0.0000 0.0000
# 4 0.0000 0.0000 0.0000 25.3080 0.0000 0.0000
# 5 0.0000 0.0000 0.0000 0.0000 13.0090 0.0000
# 6 0.0000 0.0000 0.0000 0.0000 0.0000 19.8630
#
#
#
# Elastic Compliance Matrix: (Units=1/GPa)
#
#
# Indices 1 2 3 4 5 6 
#
# 1 0.018491 -0.001668 -0.007634 0.000000 0.000000 0.000000
# 2 -0.001668 0.014175 -0.002706 0.000000 0.000000 0.000000
# 3 -0.007634 -0.002706 0.011755 0.000000 0.000000 0.000000
# 4 0.000000 0.000000 0.000000 0.039513 0.000000 0.000000
# 5 0.000000 0.000000 0.000000 0.000000 0.076870 0.000000
# 6 0.000000 0.000000 0.000000 0.000000 0.000000 0.050345
#
#
# Mechanical properties :
#
#
# Convention : Reuss Voigt Hill
#
# Bulk Modulus (GPa) = 49.00930 55.57147 52.29039
# Shear Modulus (GPa) = 20.66395 23.59346 22.12870
#
# Velocity S-wave (km/s) = 3.24106 3.46319 3.35396
# Velocity P-wave (km/s) = 6.23856 6.65140 6.44829
#
# Compressibility (1/GPa) = 0.02040429
#
# Stress axis : x y z
#
# Youngs Moduli (GPa) = 54.07977 70.54579 85.07157
#
# Poissons Ratio (x) = 0.11768 0.64944
# Poissons Ratio (y) = 0.09021 0.23023
# Poissons Ratio (z) = 0.41284 0.19092
#
# Static dielectric constant tensor:
#      x y z
#    x 3.509250 0.000000 0.000000 
#    y 0.000000 3.376770 0.000000 
#    z 0.000000 0.000000 3.813370 
# 
# 
# High freq. dielectric constant tensor:
#      x y z
#    x 1.731450 0.000000 0.000000 
#    y 0.000000 1.755650 0.000000 
#    z 0.000000 0.000000 1.782140 
# 
# From -- ./inp_files/69714.got.cif
#   From: 2010.06.25/outbox.cif.g09.slc.cpg/sg71_35_cif.got.tgz:69714.got - 2010.06.28 04:59:45.
