data_PCOD8291103
_publ_section_title
;
Structure prediction by ZEFSAII (Michael W. Deem and Ramdas Pophale) SiO2 
 PCOD8291103
Probable space group: I M M M
;
_chemical_formula_sum "Si O2"
_cell_formula_units_Z 72
_cell_length_a 10.140656
_cell_length_b 13.723662
_cell_length_c 26.761587
_cell_angle_alpha 90.000000
_cell_angle_beta 90.000000
_cell_angle_gamma 90.000000
_cell_volume 3724.328049
_symmetry_space_group_name_H-M "I M M M"
_symmetry_group_IT_number 71
_symmetry_cell_setting 'orthorhombic'
loop_
_space_group_symop_operation_xyz
x,y,z
-x,-y,z
x,-y,-z
-x,y,-z
-x,-y,-z
x,y,-z
-x,y,z
x,-y,z
1/2+x,1/2+y,1/2+z
1/2-x,1/2-y,1/2+z
1/2+x,1/2-y,1/2-z
1/2-x,1/2+y,1/2-z
1/2-x,1/2-y,1/2-z
1/2+x,1/2+y,1/2-z
1/2-x,1/2+y,1/2+z
1/2+x,1/2-y,1/2+z
loop_
_atom_site_type_symbol
_atom_site_label
_atom_site_fract_x
_atom_site_fract_y
_atom_site_fract_z
Si Si1 0.846238 0.763726 0.796314
Si Si2 0.149010 0.612093 0.117257
Si Si3 0.854460 0.772418 0.443236
Si Si4 0.500000 0.615406 0.444984
Si Si5 0.252083 0.386276 0.381598
O O1 0.750000 0.750000 0.750000
O O2 0.830188 0.669709 0.831196
O O3 0.790189 0.859402 0.824894
O O4 0.000000 0.778721 0.780303
O O5 0.178078 0.500000 0.129386
O O6 0.249306 0.648031 0.074939
O O7 0.000000 0.627270 0.097248
O O8 0.820441 0.740147 0.500000
O O9 0.863185 0.677823 0.406266
O O10 0.000000 0.819949 0.441175
O O11 0.500000 0.500000 0.447789
O O12 0.500000 0.661994 0.500000
O O13 0.626105 0.651183 0.415112
O O14 0.218017 0.500000 0.385294
#
# Coordination Sequence:
#
# PCOD8291103 Si02
#       5
#    16  16  16   8  16
#     4  10  21  37  57  82 114 149 189 240 294 347
#     4   9  20  40  62  82 107 144 193 244 287 335
#     4  10  22  37  54  83 121 155 186 227 285 348
#     4   9  16  28  52  84 111 141 183 227 275 328
#     4  10  20  36  57  82 115 152 191 235 280 340
#
# _framework density 19.332346999999999
#
# number of rings (size 3 to 8) (size 9 to 14) (size 15 to 20)
#    0.000    2.333    1.111    0.667    1.556    7.556 
#    0.000    3.333    0.000    0.000    0.000    0.000 
#    0.000    0.000    0.000    0.000    0.000    0.000 
#
# Total GULP energy -446254.872390 kJ/mol
# GULP energy per Si atom -12395.968677 kJ/mol
# Density = 1.928835 g / cm^3
# Si number density = 19.332347 Si / 1000 Ang^3
#
#
#
# Elastic Constant Matrix: (Units=GPa)
#
#
# Indices 1 2 3 4 5 6 
#
# 1 111.3014 36.4432 62.5302 0.0000 0.0000 0.0000
# 2 36.4432 99.8289 23.8290 0.0000 0.0000 0.0000
# 3 62.5302 23.8290 122.6961 0.0000 0.0000 0.0000
# 4 0.0000 0.0000 0.0000 23.0434 0.0000 0.0000
# 5 0.0000 0.0000 0.0000 0.0000 1.1255 0.0000
# 6 0.0000 0.0000 0.0000 0.0000 0.0000 20.4298
#
#
#
# Elastic Compliance Matrix: (Units=1/GPa)
#
#
# Indices 1 2 3 4 5 6 
#
# 1 0.013655 -0.003485 -0.006282 0.000000 0.000000 0.000000
# 2 -0.003485 0.011394 -0.000437 0.000000 0.000000 0.000000
# 3 -0.006282 -0.000437 0.011437 0.000000 0.000000 0.000000
# 4 0.000000 0.000000 0.000000 0.043396 0.000000 0.000000
# 5 0.000000 0.000000 0.000000 0.000000 0.888518 0.000000
# 6 0.000000 0.000000 0.000000 0.000000 0.000000 0.048948
#
#
# Mechanical properties :
#
#
# Convention : Reuss Voigt Hill
#
# Bulk Modulus (GPa) = 62.19969 64.38126 63.29047
# Shear Modulus (GPa) = 4.79333 22.98799 13.89066
#
# Velocity S-wave (km/s) = 1.57633 3.45207 2.68343
# Velocity P-wave (km/s) = 5.96296 7.01881 6.51232
#
# Compressibility (1/GPa) = 0.01607725
#
# Stress axis : x y z
#
# Youngs Moduli (GPa) = 73.23167 87.76780 87.43797
#
# Poissons Ratio (x) = 0.30590 0.54931
# Poissons Ratio (y) = 0.25524 0.03817
# Poissons Ratio (z) = 0.46006 0.03831
#
# Static dielectric constant tensor:
#      x y z
#    x 3.591900 0.000000 0.000000 
#    y 0.000000 3.447690 0.000000 
#    z 0.000000 0.000000 3.482740 
# 
# 
# High freq. dielectric constant tensor:
#      x y z
#    x 1.757940 0.000000 0.000000 
#    y 0.000000 1.745400 0.000000 
#    z 0.000000 0.000000 1.744740 
# 
# From -- ./inp_files/6105.got.cif
#   From: 2010.06.25/outbox.cif.g09.slc.cpg/sg71_4_cif.got.tgz:6105.got - 2010.06.28 04:59:45.
