data_PCOD8291422
_publ_section_title
;
Structure prediction by ZEFSAII (Michael W. Deem and Ramdas Pophale) SiO2 
 PCOD8291422
Probable space group: I M M M
;
_chemical_formula_sum "Si O2"
_cell_formula_units_Z 80
_cell_length_a 17.884952
_cell_length_b 22.939331
_cell_length_c 11.459922
_cell_angle_alpha 90.000000
_cell_angle_beta 90.000000
_cell_angle_gamma 90.000000
_cell_volume 4701.648835
_symmetry_space_group_name_H-M "I M M M"
_symmetry_group_IT_number 71
_symmetry_cell_setting 'orthorhombic'
loop_
_space_group_symop_operation_xyz
x,y,z
-x,-y,z
x,-y,-z
-x,y,-z
-x,-y,-z
x,y,-z
-x,y,z
x,-y,z
1/2+x,1/2+y,1/2+z
1/2-x,1/2-y,1/2+z
1/2+x,1/2-y,1/2-z
1/2-x,1/2+y,1/2-z
1/2-x,1/2-y,1/2-z
1/2+x,1/2+y,1/2-z
1/2-x,1/2+y,1/2+z
1/2+x,1/2-y,1/2+z
loop_
_atom_site_type_symbol
_atom_site_label
_atom_site_fract_x
_atom_site_fract_y
_atom_site_fract_z
Si Si1 0.082043 0.865706 0.361760
Si Si2 0.915368 0.431504 0.500000
Si Si3 0.773614 0.932524 0.362641
Si Si4 0.636662 0.121241 0.235471
Si Si5 0.500000 0.065707 0.362483
Si Si6 0.412388 0.235682 0.866493
O O1 0.075919 0.863159 0.500000
O O2 0.143534 0.912701 0.322234
O O3 0.104672 0.800751 0.319380
O O4 0.000000 0.883423 0.311267
O O5 0.918803 0.500000 0.500000
O O6 0.870755 0.410393 0.612118
O O7 0.000000 0.405507 0.500000
O O8 0.761989 0.921917 0.500000
O O9 0.715991 0.893312 0.291710
O O10 0.762808 0.000000 0.330394
O O11 0.573122 0.099444 0.322594
O O12 0.631510 0.190783 0.216908
O O13 0.500000 0.062635 0.500000
O O14 0.500000 0.000000 0.309742
O O15 0.500000 0.221986 0.858637
O O16 0.385109 0.227607 0.000000
#
# Coordination Sequence:
#
# PCOD8291422 Si02
#       6
#    16   8  16  16   8  16
#     4   8  16  32  55  77  98 126 164 210 259 307
#     4  11  20  30  46  70  97 131 178 220 243 274
#     4  10  21  35  49  72 106 137 166 205 253 305
#     4  12  20  31  49  71 102 137 169 205 252 291
#     4  11  22  33  45  65  99 144 182 201 230 290
#     4   9  16  30  50  76 102 126 164 210 253 292
#
# _framework density 17.015308000000001
#
# number of rings (size 3 to 8) (size 9 to 14) (size 15 to 20)
#    0.000    2.000    3.000    3.600    0.000    2.800 
#    0.000    2.000    0.000    0.000    0.000    0.700 
#    0.000    2.400    0.000    0.000    0.000    0.000 
#
# Total GULP energy -495947.654162 kJ/mol
# GULP energy per Si atom -12398.691354 kJ/mol
# Density = 1.697658 g / cm^3
# Si number density = 17.015308 Si / 1000 Ang^3
#
#
#
# Elastic Constant Matrix: (Units=GPa)
#
#
# Indices 1 2 3 4 5 6 
#
# 1 104.1528 33.1458 30.1491 0.0000 0.0000 0.0000
# 2 33.1458 57.0632 19.0199 0.0000 0.0000 0.0000
# 3 30.1491 19.0199 49.5081 0.0000 0.0000 0.0000
# 4 0.0000 0.0000 0.0000 18.8217 0.0000 0.0000
# 5 0.0000 0.0000 0.0000 0.0000 17.8505 0.0000
# 6 0.0000 0.0000 0.0000 0.0000 0.0000 29.4611
#
#
#
# Elastic Compliance Matrix: (Units=1/GPa)
#
#
# Indices 1 2 3 4 5 6 
#
# 1 0.013081 -0.005669 -0.005788 0.000000 0.000000 0.000000
# 2 -0.005669 0.022555 -0.005213 0.000000 0.000000 0.000000
# 3 -0.005788 -0.005213 0.025726 0.000000 0.000000 0.000000
# 4 0.000000 0.000000 0.000000 0.053130 0.000000 0.000000
# 5 0.000000 0.000000 0.000000 0.000000 0.056021 0.000000
# 6 0.000000 0.000000 0.000000 0.000000 0.000000 0.033943
#
#
# Mechanical properties :
#
#
# Convention : Reuss Voigt Hill
#
# Bulk Modulus (GPa) = 35.68596 41.70598 38.69597
# Shear Modulus (GPa) = 20.23179 21.78729 21.00954
#
# Velocity S-wave (km/s) = 3.45198 3.58222 3.51770
# Velocity P-wave (km/s) = 6.07508 6.45553 6.26819
#
# Compressibility (1/GPa) = 0.02802223
#
# Stress axis : x y z
#
# Youngs Moduli (GPa) = 76.44778 44.33655 38.87104
#
# Poissons Ratio (x) = 0.25134 0.22499
# Poissons Ratio (y) = 0.43338 0.20263
# Poissons Ratio (z) = 0.44248 0.23112
#
# Static dielectric constant tensor:
#      x y z
#    x 3.430330 0.000000 0.000000 
#    y 0.000000 3.359150 0.000000 
#    z 0.000000 0.000000 2.876440 
# 
# 
# High freq. dielectric constant tensor:
#      x y z
#    x 1.646770 0.000000 0.000000 
#    y 0.000000 1.666480 0.000000 
#    z 0.000000 0.000000 1.622380 
# 
# From -- ./inp_files/23839.got.cif
#   From: 2010.06.25/outbox.cif.g09.slc.cpg/sg71_12_cif.got.tgz:23839.got - 2010.06.28 04:59:45.
