data_PCOD8291857
_publ_section_title
;
Structure prediction by ZEFSAII (Michael W. Deem and Ramdas Pophale) SiO2 
 PCOD8291857
Probable space group: I M M M
;
_chemical_formula_sum "Si O2"
_cell_formula_units_Z 88
_cell_length_a 23.876613
_cell_length_b 20.737703
_cell_length_c 8.835900
_cell_angle_alpha 90.000000
_cell_angle_beta 90.000000
_cell_angle_gamma 90.000000
_cell_volume 4375.061505
_symmetry_space_group_name_H-M "I M M M"
_symmetry_group_IT_number 71
_symmetry_cell_setting 'orthorhombic'
loop_
_space_group_symop_operation_xyz
x,y,z
-x,-y,z
x,-y,-z
-x,y,-z
-x,-y,-z
x,y,-z
-x,y,z
x,-y,z
1/2+x,1/2+y,1/2+z
1/2-x,1/2-y,1/2+z
1/2+x,1/2-y,1/2-z
1/2-x,1/2+y,1/2-z
1/2-x,1/2-y,1/2-z
1/2+x,1/2+y,1/2-z
1/2-x,1/2+y,1/2+z
1/2+x,1/2-y,1/2+z
loop_
_atom_site_type_symbol
_atom_site_label
_atom_site_fract_x
_atom_site_fract_y
_atom_site_fract_z
Si Si1 0.000000 0.399408 0.675946
Si Si2 0.283203 0.310426 0.822847
Si Si3 0.279226 0.924385 0.823639
Si Si4 0.388064 0.072115 0.335733
Si Si5 0.914111 0.178747 0.676774
Si Si6 0.000000 0.071075 0.323570
Si Si7 0.500000 0.766736 0.324978
O O1 0.053912 0.430966 0.749664
O O2 0.000000 0.415007 0.500000
O O3 0.000000 0.324691 0.708374
O O4 0.250000 0.250000 0.750000
O O5 0.264755 0.380179 0.763013
O O6 0.349060 0.312497 0.785559
O O7 0.271889 0.306006 0.000000
O O8 0.339930 0.897759 0.769607
O O9 0.268141 0.000000 0.788069
O O10 0.274744 0.910492 0.000000
O O11 0.392756 0.108032 0.500000
O O12 0.368615 0.000000 0.367778
O O13 0.926284 0.193605 0.500000
O O14 0.942628 0.109684 0.719695
O O15 0.943628 0.229032 0.787358
O O16 0.000000 0.059671 0.500000
O O17 0.000000 0.000000 0.243884
O O18 0.500000 0.788243 0.500000
#
# Coordination Sequence:
#
# PCOD8291857 Si02
#       7
#     8  16  16  16  16   8   8
#     4  12  24  36  56  82 113 151 192 238 293 358
#     4  11  24  40  62  89 123 165 212 264 314 373
#     4  10  22  41  63  88 122 163 205 251 308 372
#     4  10  21  38  59  84 115 149 192 244 293 347
#     4   9  20  39  59  84 119 156 195 242 301 364
#     4   8  14  30  60  92 117 144 186 241 299 367
#     4  11  23  38  59  84 114 152 194 241 294 352
#
# _framework density 20.114004000000001
#
# number of rings (size 3 to 8) (size 9 to 14) (size 15 to 20)
#    0.000    1.909    0.000    4.091    2.545    5.455 
#    0.000    1.818    0.000    4.364    0.000    0.000 
#    0.000    0.000    0.000    0.000    0.000    0.000 
#
# Total GULP energy -545223.866987 kJ/mol
# GULP energy per Si atom -12391.451522 kJ/mol
# Density = 2.006822 g / cm^3
# Si number density = 20.114004 Si / 1000 Ang^3
#
#
#
# Elastic Constant Matrix: (Units=GPa)
#
#
# Indices 1 2 3 4 5 6 
#
# 1 155.6013 49.0202 61.4681 0.0000 0.0000 0.0000
# 2 49.0202 93.6376 33.7337 0.0000 0.0000 0.0000
# 3 61.4681 33.7337 105.6601 0.0000 0.0000 0.0000
# 4 0.0000 0.0000 0.0000 29.4040 0.0000 0.0000
# 5 0.0000 0.0000 0.0000 0.0000 33.0017 0.0000
# 6 0.0000 0.0000 0.0000 0.0000 0.0000 19.8287
#
#
#
# Elastic Compliance Matrix: (Units=1/GPa)
#
#
# Indices 1 2 3 4 5 6 
#
# 1 0.009140 -0.003242 -0.004282 0.000000 0.000000 0.000000
# 2 -0.003242 0.013218 -0.002334 0.000000 0.000000 0.000000
# 3 -0.004282 -0.002334 0.012700 0.000000 0.000000 0.000000
# 4 0.000000 0.000000 0.000000 0.034009 0.000000 0.000000
# 5 0.000000 0.000000 0.000000 0.000000 0.030301 0.000000
# 6 0.000000 0.000000 0.000000 0.000000 0.000000 0.050432
#
#
# Mechanical properties :
#
#
# Convention : Reuss Voigt Hill
#
# Bulk Modulus (GPa) = 65.18081 71.48255 68.33168
# Shear Modulus (GPa) = 28.63207 30.49202 29.56204
#
# Velocity S-wave (km/s) = 3.77701 3.89776 3.83786
# Velocity P-wave (km/s) = 7.17615 7.47479 7.32699
#
# Compressibility (1/GPa) = 0.01534194
#
# Stress axis : x y z
#
# Youngs Moduli (GPa) = 109.41458 75.65725 78.73754
#
# Poissons Ratio (x) = 0.24529 0.33714
# Poissons Ratio (y) = 0.35473 0.18376
# Poissons Ratio (z) = 0.46850 0.17657
#
# Static dielectric constant tensor:
#      x y z
#    x 3.984060 0.000000 0.000000 
#    y 0.000000 3.792100 0.000000 
#    z 0.000000 0.000000 3.711390 
# 
# 
# High freq. dielectric constant tensor:
#      x y z
#    x 1.791000 0.000000 0.000000 
#    y 0.000000 1.782470 0.000000 
#    z 0.000000 0.000000 1.786240 
# 
# From -- ./inp_files/12590.got.cif
#   From: 2010.06.25/outbox.cif.g09.slc.cpg/sg71_7_cif.got.tgz:12590.got - 2010.06.28 04:59:45.
