data_PCOD8291145
_publ_section_title
;
Structure prediction by ZEFSAII (Michael W. Deem and Ramdas Pophale) SiO2 
 PCOD8291145
Probable space group: I M M M
;
_chemical_formula_sum "Si O2"
_cell_formula_units_Z 68
_cell_length_a 23.884280
_cell_length_b 7.682633
_cell_length_c 17.974489
_cell_angle_alpha 90.000000
_cell_angle_beta 90.000000
_cell_angle_gamma 90.000000
_cell_volume 3298.213719
_symmetry_space_group_name_H-M "I M M M"
_symmetry_group_IT_number 71
_symmetry_cell_setting 'orthorhombic'
loop_
_space_group_symop_operation_xyz
x,y,z
-x,-y,z
x,-y,-z
-x,y,-z
-x,-y,-z
x,y,-z
-x,y,z
x,-y,z
1/2+x,1/2+y,1/2+z
1/2-x,1/2-y,1/2+z
1/2+x,1/2-y,1/2-z
1/2-x,1/2+y,1/2-z
1/2-x,1/2-y,1/2-z
1/2+x,1/2+y,1/2-z
1/2-x,1/2+y,1/2+z
1/2+x,1/2-y,1/2+z
loop_
_atom_site_type_symbol
_atom_site_label
_atom_site_fract_x
_atom_site_fract_y
_atom_site_fract_z
Si Si1 0.107761 0.500000 0.416964
Si Si2 0.000000 0.500000 0.678747
Si Si3 0.123659 0.796470 0.181893
Si Si4 0.500000 0.703377 0.706419
Si Si5 0.667081 0.698732 0.158752
Si Si6 0.723485 0.292856 0.584896
O O1 0.086716 0.500000 0.500000
O O2 0.142610 0.675858 0.404264
O O3 0.054376 0.500000 0.367968
O O4 0.000000 0.681674 0.720965
O O5 0.058298 0.747828 0.164002
O O6 0.147474 0.724271 0.260875
O O7 0.161980 0.731097 0.113605
O O8 0.130247 0.000000 0.188599
O O9 0.500000 0.500000 0.728687
O O10 0.646043 0.500000 0.148682
O O11 0.733731 0.706388 0.143809
O O12 0.731346 0.225496 0.500000
O O13 0.730061 0.500000 0.587661
#
# Coordination Sequence:
#
# PCOD8291145 Si02
#       6
#     8   4  16   8  16  16
#     4  12  25  40  60  90 124 155 192 241 293 353
#     4  12  23  40  64  86 117 154 198 238 299 340
#     4   9  19  36  60  87 116 155 199 246 292 346
#     4  10  20  39  62  87 116 149 201 253 283 341
#     4  11  22  39  62  86 118 159 199 239 289 351
#     4  10  20  36  58  88 124 156 193 245 300 352
#
# _framework density 20.617221000000001
#
# number of rings (size 3 to 8) (size 9 to 14) (size 15 to 20)
#    0.000    1.647    3.529    1.588    0.000    1.882 
#    4.235    0.588    0.000    5.647    0.000    0.824 
#    0.000    0.000    0.000    0.000    0.000    0.000 
#
# Total GULP energy -421277.589935 kJ/mol
# GULP energy per Si atom -12390.517351 kJ/mol
# Density = 2.057030 g / cm^3
# Si number density = 20.617221 Si / 1000 Ang^3
#
#
#
# Elastic Constant Matrix: (Units=GPa)
#
#
# Indices 1 2 3 4 5 6 
#
# 1 155.8181 15.5806 36.8219 0.0000 0.0000 0.0000
# 2 15.5806 75.9024 10.0604 0.0000 0.0000 0.0000
# 3 36.8219 10.0604 66.1234 0.0000 0.0000 0.0000
# 4 0.0000 0.0000 0.0000 17.0129 0.0000 0.0000
# 5 0.0000 0.0000 0.0000 0.0000 40.6867 0.0000
# 6 0.0000 0.0000 0.0000 0.0000 0.0000 23.7266
#
#
#
# Elastic Compliance Matrix: (Units=1/GPa)
#
#
# Indices 1 2 3 4 5 6 
#
# 1 0.007464 -0.001001 -0.004004 0.000000 0.000000 0.000000
# 2 -0.001001 0.013580 -0.001509 0.000000 0.000000 0.000000
# 3 -0.004004 -0.001509 0.017583 0.000000 0.000000 0.000000
# 4 0.000000 0.000000 0.000000 0.058779 0.000000 0.000000
# 5 0.000000 0.000000 0.000000 0.000000 0.024578 0.000000
# 6 0.000000 0.000000 0.000000 0.000000 0.000000 0.042147
#
#
# Mechanical properties :
#
#
# Convention : Reuss Voigt Hill
#
# Bulk Modulus (GPa) = 39.06441 46.97441 43.01941
# Shear Modulus (GPa) = 26.92634 31.97731 29.45182
#
# Velocity S-wave (km/s) = 3.61780 3.94255 3.78366
# Velocity P-wave (km/s) = 6.03655 6.59988 6.32449
#
# Compressibility (1/GPa) = 0.02559875
#
# Stress axis : x y z
#
# Youngs Moduli (GPa) = 133.97443 73.63595 56.87462
#
# Poissons Ratio (x) = 0.07374 0.22773
# Poissons Ratio (y) = 0.13417 0.08580
# Poissons Ratio (z) = 0.53645 0.11108
#
# Static dielectric constant tensor:
#      x y z
#    x 4.291610 0.000000 0.000000 
#    y 0.000000 4.070010 0.000000 
#    z 0.000000 0.000000 3.678080 
# 
# 
# High freq. dielectric constant tensor:
#      x y z
#    x 1.821340 0.000000 0.000000 
#    y 0.000000 1.798150 0.000000 
#    z 0.000000 0.000000 1.780120 
# 
# From -- ./inp_files/12212.got.cif
#   From: 2010.06.25/outbox.cif.g09.slc.cpg/sg71_7_cif.got.tgz:12212.got - 2010.06.28 04:59:45.
