data_PCOD8291577
_publ_section_title
;
Structure prediction by ZEFSAII (Michael W. Deem and Ramdas Pophale) SiO2 
 PCOD8291577
Probable space group: I M M M
;
_chemical_formula_sum "Si O2"
_cell_formula_units_Z 80
_cell_length_a 28.842541
_cell_length_b 10.446639
_cell_length_c 13.964870
_cell_angle_alpha 90.000000
_cell_angle_beta 90.000000
_cell_angle_gamma 90.000000
_cell_volume 4207.721655
_symmetry_space_group_name_H-M "I M M M"
_symmetry_group_IT_number 71
_symmetry_cell_setting 'orthorhombic'
loop_
_space_group_symop_operation_xyz
x,y,z
-x,-y,z
x,-y,-z
-x,y,-z
-x,-y,-z
x,y,-z
-x,y,z
x,-y,z
1/2+x,1/2+y,1/2+z
1/2-x,1/2-y,1/2+z
1/2+x,1/2-y,1/2-z
1/2-x,1/2+y,1/2-z
1/2-x,1/2-y,1/2-z
1/2+x,1/2+y,1/2-z
1/2-x,1/2+y,1/2+z
1/2+x,1/2-y,1/2+z
loop_
_atom_site_type_symbol
_atom_site_label
_atom_site_fract_x
_atom_site_fract_y
_atom_site_fract_z
Si Si1 0.610353 0.647903 0.105610
Si Si2 0.449133 0.350496 0.277641
Si Si3 0.204441 0.360784 0.192435
Si Si4 0.788423 0.263370 0.392602
Si Si5 0.138818 0.147970 0.889802
O O1 0.617872 0.500000 0.129869
O O2 0.574754 0.708927 0.182208
O O3 0.660070 0.711031 0.112919
O O4 0.588939 0.668311 0.000000
O O5 0.500000 0.287165 0.294871
O O6 0.456320 0.500000 0.261593
O O7 0.415367 0.324854 0.367662
O O8 0.182550 0.500000 0.167435
O O9 0.217577 0.364613 0.305941
O O10 0.250478 0.346811 0.127764
O O11 0.169660 0.243429 0.172961
O O12 0.779581 0.321385 0.500000
O O13 0.151158 0.000000 0.864256
O O14 0.148206 0.177245 0.000000
#
# Coordination Sequence:
#
# PCOD8291577 Si02
#       5
#    16  16  16  16  16
#     4   9  16  28  49  76 107 140 174 219 274 327
#     4   9  17  30  50  77 107 139 181 231 278 326
#     4  11  23  37  57  85 115 147 185 227 269 320
#     4  10  21  36  54  78 110 148 184 219 265 322
#     4  10  21  37  56  79 111 149 186 227 278 331
#
# _framework density 19.012664999999998
#
# number of rings (size 3 to 8) (size 9 to 14) (size 15 to 20)
#    0.000    2.200    2.000    1.200    0.000    6.800 
#    0.000    4.000    0.000    0.600    0.000    1.400 
#    0.000    3.200    0.000    0.000    0.000    0.000 
#
# Total GULP energy -495564.915326 kJ/mol
# GULP energy per Si atom -12389.122883 kJ/mol
# Density = 1.896939 g / cm^3
# Si number density = 19.012665 Si / 1000 Ang^3
#
#
#
# Elastic Constant Matrix: (Units=GPa)
#
#
# Indices 1 2 3 4 5 6 
#
# 1 99.8557 31.8696 28.6888 0.0000 0.0000 0.0000
# 2 31.8696 68.5510 26.2110 0.0000 0.0000 0.0000
# 3 28.6888 26.2110 115.0377 0.0000 0.0000 0.0000
# 4 0.0000 0.0000 0.0000 8.3518 0.0000 0.0000
# 5 0.0000 0.0000 0.0000 0.0000 25.0671 0.0000
# 6 0.0000 0.0000 0.0000 0.0000 0.0000 11.7447
#
#
#
# Elastic Compliance Matrix: (Units=1/GPa)
#
#
# Indices 1 2 3 4 5 6 
#
# 1 0.012129 -0.004910 -0.001906 0.000000 0.000000 0.000000
# 2 -0.004910 0.017968 -0.002869 0.000000 0.000000 0.000000
# 3 -0.001906 -0.002869 0.009822 0.000000 0.000000 0.000000
# 4 0.000000 0.000000 0.000000 0.119734 0.000000 0.000000
# 5 0.000000 0.000000 0.000000 0.000000 0.039893 0.000000
# 6 0.000000 0.000000 0.000000 0.000000 0.000000 0.085145
#
#
# Mechanical properties :
#
#
# Convention : Reuss Voigt Hill
#
# Bulk Modulus (GPa) = 48.66755 50.77590 49.72173
# Shear Modulus (GPa) = 16.08176 22.14439 19.11307
#
# Velocity S-wave (km/s) = 2.91150 3.41650 3.17406
# Velocity P-wave (km/s) = 6.07910 6.50597 6.29615
#
# Compressibility (1/GPa) = 0.02054757
#
# Stress axis : x y z
#
# Youngs Moduli (GPa) = 82.44594 55.65599 101.81305
#
# Poissons Ratio (x) = 0.27328 0.19406
# Poissons Ratio (y) = 0.40482 0.29214
# Poissons Ratio (z) = 0.15715 0.15970
#
# Static dielectric constant tensor:
#      x y z
#    x 3.668440 0.000000 0.000000 
#    y 0.000000 2.974660 0.000000 
#    z 0.000000 0.000000 3.900970 
# 
# 
# High freq. dielectric constant tensor:
#      x y z
#    x 1.735580 0.000000 0.000000 
#    y 0.000000 1.681640 0.000000 
#    z 0.000000 0.000000 1.759610 
# 
# From -- ./inp_files/22161.got.cif
#   From: 2010.06.25/outbox.cif.g09.slc.cpg/sg71_12_cif.got.tgz:22161.got - 2010.06.28 04:59:45.
