data_PCOD8291323
_publ_section_title
;
Structure prediction by ZEFSAII (Michael W. Deem and Ramdas Pophale) SiO2 
 PCOD8291323
Probable space group: I M M M
;
_chemical_formula_sum "Si O2"
_cell_formula_units_Z 68
_cell_length_a 9.660124
_cell_length_b 22.156004
_cell_length_c 16.510284
_cell_angle_alpha 90.000000
_cell_angle_beta 90.000000
_cell_angle_gamma 90.000000
_cell_volume 3533.691891
_symmetry_space_group_name_H-M "I M M M"
_symmetry_group_IT_number 71
_symmetry_cell_setting 'orthorhombic'
loop_
_space_group_symop_operation_xyz
x,y,z
-x,-y,z
x,-y,-z
-x,y,-z
-x,-y,-z
x,y,-z
-x,y,z
x,-y,z
1/2+x,1/2+y,1/2+z
1/2-x,1/2-y,1/2+z
1/2+x,1/2-y,1/2-z
1/2-x,1/2+y,1/2-z
1/2-x,1/2-y,1/2-z
1/2+x,1/2+y,1/2-z
1/2-x,1/2+y,1/2+z
1/2+x,1/2-y,1/2+z
loop_
_atom_site_type_symbol
_atom_site_label
_atom_site_fract_x
_atom_site_fract_y
_atom_site_fract_z
Si Si1 0.158559 0.385108 0.774112
Si Si2 0.840145 0.831756 0.406191
Si Si3 0.345534 0.367609 0.500000
Si Si4 0.660713 0.000000 0.177234
Si Si5 0.658133 0.195165 0.872292
Si Si6 0.226658 0.000000 0.000000
O O1 0.249059 0.378381 0.854870
O O2 0.220924 0.440349 0.721119
O O3 0.169826 0.323859 0.721346
O O4 0.000000 0.396727 0.800045
O O5 0.809942 0.844148 0.500000
O O6 0.795807 0.763904 0.383768
O O7 0.000000 0.842489 0.384644
O O8 0.500000 0.339288 0.500000
O O9 0.261233 0.347217 0.578366
O O10 0.365321 0.439846 0.500000
O O11 0.500000 0.000000 0.192442
O O12 0.682023 0.000000 0.081176
O O13 0.500000 0.185822 0.903580
#
# Coordination Sequence:
#
# PCOD8291323 Si02
#       6
#    16  16   8   8  16   4
#     4  10  21  37  59  88 115 147 194 241 289 341
#     4  10  21  38  60  85 115 152 192 236 292 349
#     4  12  24  35  54  89 126 156 193 237 285 336
#     4  10  21  37  62  89 113 152 199 238 281 343
#     4  10  20  38  61  84 116 155 194 236 284 346
#     4  12  22  40  58  82 125 160 195 230 279 346
#
# _framework density 19.243331000000001
#
# number of rings (size 3 to 8) (size 9 to 14) (size 15 to 20)
#    0.000    1.647    3.529    1.412    0.000    3.294 
#    0.000    1.176    0.000    3.529    0.000    0.000 
#    0.000    0.000    0.000    0.000    0.000    0.000 
#
# Total GULP energy -421581.289170 kJ/mol
# GULP energy per Si atom -12399.449681 kJ/mol
# Density = 1.919953 g / cm^3
# Si number density = 19.243331 Si / 1000 Ang^3
#
#
#
# Elastic Constant Matrix: (Units=GPa)
#
#
# Indices 1 2 3 4 5 6 
#
# 1 81.6831 36.0919 52.3105 0.0000 0.0000 0.0000
# 2 36.0919 86.2721 58.9442 0.0000 0.0000 0.0000
# 3 52.3105 58.9442 126.0507 0.0000 0.0001 0.0000
# 4 0.0000 0.0000 0.0000 31.9340 0.0000 0.0000
# 5 0.0000 0.0000 0.0001 0.0000 22.0099 0.0000
# 6 0.0000 0.0000 0.0000 0.0000 0.0000 21.8017
#
#
#
# Elastic Compliance Matrix: (Units=1/GPa)
#
#
# Indices 1 2 3 4 5 6 
#
# 1 0.017340 -0.003435 -0.005590 0.000000 0.000000 0.000000
# 2 -0.003435 0.017714 -0.006858 0.000000 0.000000 0.000000
# 3 -0.005590 -0.006858 0.013460 0.000000 0.000000 0.000000
# 4 0.000000 0.000000 0.000000 0.031315 0.000000 0.000000
# 5 0.000000 0.000000 0.000000 0.000000 0.045434 0.000000
# 6 0.000000 0.000000 0.000000 0.000000 0.000000 0.045868
#
#
# Mechanical properties :
#
#
# Convention : Reuss Voigt Hill
#
# Bulk Modulus (GPa) = 59.70707 65.41100 62.55904
# Shear Modulus (GPa) = 23.98332 24.92641 24.45487
#
# Velocity S-wave (km/s) = 3.53415 3.60297 3.56873
# Velocity P-wave (km/s) = 6.91002 7.16755 7.03997
#
# Compressibility (1/GPa) = 0.01674844
#
# Stress axis : x y z
#
# Youngs Moduli (GPa) = 57.67050 56.45310 74.29486
#
# Poissons Ratio (x) = 0.19392 0.41528
# Poissons Ratio (y) = 0.19810 0.50950
# Poissons Ratio (z) = 0.32236 0.38715
#
# Static dielectric constant tensor:
#      x y z
#    x 3.313480 0.000000 0.000000 
#    y 0.000000 3.658930 0.000000 
#    z 0.000000 0.000000 3.414810 
# 
# 
# High freq. dielectric constant tensor:
#      x y z
#    x 1.733990 0.000000 0.000000 
#    y 0.000000 1.742180 0.000000 
#    z 0.000000 0.000000 1.746660 
# 
# From -- ./inp_files/8042.got.cif
#   From: 2010.06.25/outbox.cif.g09.slc.cpg/sg71_5_cif.got.tgz:8042.got - 2010.06.28 04:59:45.
