data_PCOD8291856
_publ_section_title
;
Structure prediction by ZEFSAII (Michael W. Deem and Ramdas Pophale) SiO2 
 PCOD8291856
Probable space group: I M M M
;
_chemical_formula_sum "Si O2"
_cell_formula_units_Z 88
_cell_length_a 30.221892
_cell_length_b 16.196242
_cell_length_c 9.054219
_cell_angle_alpha 90.000000
_cell_angle_beta 90.000000
_cell_angle_gamma 90.000000
_cell_volume 4431.868863
_symmetry_space_group_name_H-M "I M M M"
_symmetry_group_IT_number 71
_symmetry_cell_setting 'orthorhombic'
loop_
_space_group_symop_operation_xyz
x,y,z
-x,-y,z
x,-y,-z
-x,y,-z
-x,-y,-z
x,y,-z
-x,y,z
x,-y,z
1/2+x,1/2+y,1/2+z
1/2-x,1/2-y,1/2+z
1/2+x,1/2-y,1/2-z
1/2-x,1/2+y,1/2-z
1/2-x,1/2-y,1/2-z
1/2+x,1/2+y,1/2-z
1/2-x,1/2+y,1/2+z
1/2+x,1/2-y,1/2+z
loop_
_atom_site_type_symbol
_atom_site_label
_atom_site_fract_x
_atom_site_fract_y
_atom_site_fract_z
Si Si1 0.235699 0.000000 0.330976
Si Si2 0.450604 0.902386 0.333907
Si Si3 0.778872 0.677384 0.827092
Si Si4 0.354183 0.500000 0.327668
Si Si5 0.371401 0.819339 0.833597
Si Si6 0.000000 0.907347 0.325313
Si Si7 0.406105 0.362898 0.165552
O O1 0.262066 0.915650 0.298405
O O2 0.218689 0.000000 0.500000
O O3 0.196306 0.000000 0.217162
O O4 0.441839 0.869384 0.500000
O O5 0.500000 0.873965 0.281569
O O6 0.412666 0.870984 0.225870
O O7 0.448417 0.000000 0.333189
O O8 0.750000 0.750000 0.750000
O O9 0.828585 0.674065 0.767967
O O10 0.778983 0.698461 0.000000
O O11 0.358209 0.500000 0.500000
O O12 0.376629 0.418115 0.269317
O O13 0.385333 0.725641 0.835021
O O14 0.360437 0.849521 0.000000
O O15 0.956113 0.860086 0.269742
O O16 0.000000 0.909136 0.500000
O O17 0.000000 0.000000 0.260411
O O18 0.406167 0.400623 0.000000
#
# Coordination Sequence:
#
# PCOD8291856 Si02
#       7
#     8  16  16   8  16   8  16
#     4  10  24  44  67  89 115 161 207 246 304 380
#     4   9  20  40  63  86 119 164 206 246 301 366
#     4  11  24  44  67  92 125 163 209 261 316 381
#     4  12  24  37  59  90 121 151 193 250 304 353
#     4  11  24  38  61  94 126 160 202 256 309 364
#     4   9  16  32  60  84 107 156 211 247 280 340
#     4  10  21  38  59  83 119 164 204 241 294 362
#
# _framework density 19.856183000000001
#
# number of rings (size 3 to 8) (size 9 to 14) (size 15 to 20)
#    0.000    1.727    0.909    3.545    2.545    8.000 
#    0.000    1.818    0.000    0.000    0.000    0.000 
#    0.000    0.000    0.000    0.000    0.000    0.000 
#
# Total GULP energy -545444.901781 kJ/mol
# GULP energy per Si atom -12396.475040 kJ/mol
# Density = 1.981099 g / cm^3
# Si number density = 19.856183 Si / 1000 Ang^3
#
#
#
# Elastic Constant Matrix: (Units=GPa)
#
#
# Indices 1 2 3 4 5 6 
#
# 1 155.9269 49.5337 70.2866 0.0000 0.0000 0.0000
# 2 49.5337 88.7477 48.4461 0.0000 0.0000 0.0000
# 3 70.2866 48.4461 111.3953 0.0000 0.0000 0.0000
# 4 0.0000 0.0000 0.0000 29.3057 0.0000 0.0000
# 5 0.0000 0.0000 0.0000 0.0000 38.5712 0.0000
# 6 0.0000 0.0000 0.0000 0.0000 0.0000 41.0580
#
#
#
# Elastic Compliance Matrix: (Units=1/GPa)
#
#
# Indices 1 2 3 4 5 6 
#
# 1 0.009411 -0.002637 -0.004791 0.000000 0.000000 0.000000
# 2 -0.002637 0.015515 -0.005083 0.000000 0.000000 0.000000
# 3 -0.004791 -0.005083 0.014211 0.000000 0.000000 0.000000
# 4 0.000000 0.000000 0.000000 0.034123 0.000000 0.000000
# 5 0.000000 0.000000 0.000000 0.000000 0.025926 0.000000
# 6 0.000000 0.000000 0.000000 0.000000 0.000000 0.024356
#
#
# Mechanical properties :
#
#
# Convention : Reuss Voigt Hill
#
# Bulk Modulus (GPa) = 70.85596 76.95585 73.90590
# Shear Modulus (GPa) = 32.62256 34.30723 33.46490
#
# Velocity S-wave (km/s) = 4.05772 4.16117 4.10977
# Velocity P-wave (km/s) = 7.59707 7.86943 7.73445
#
# Compressibility (1/GPa) = 0.01411314
#
# Stress axis : x y z
#
# Youngs Moduli (GPa) = 106.26358 64.45463 70.36955
#
# Poissons Ratio (x) = 0.16998 0.33713
# Poissons Ratio (y) = 0.28024 0.35772
# Poissons Ratio (z) = 0.50909 0.32765
#
# Static dielectric constant tensor:
#      x y z
#    x 3.849310 0.000000 0.000000 
#    y 0.000000 3.679400 0.000000 
#    z 0.000000 0.000000 3.829740 
# 
# 
# High freq. dielectric constant tensor:
#      x y z
#    x 1.793520 0.000000 0.000000 
#    y 0.000000 1.779380 0.000000 
#    z 0.000000 0.000000 1.766230 
# 
# From -- ./inp_files/16715.got.cif
#   From: 2010.06.25/outbox.cif.g09.slc.cpg/sg71_9_cif.got.tgz:16715.got - 2010.06.28 04:59:45.
