data_PCOD8291419
_publ_section_title
;
Structure prediction by ZEFSAII (Michael W. Deem and Ramdas Pophale) SiO2 
 PCOD8291419
Probable space group: I M M M
;
_chemical_formula_sum "Si O2"
_cell_formula_units_Z 96
_cell_length_a 9.524296
_cell_length_b 30.160129
_cell_length_c 19.849378
_cell_angle_alpha 90.000000
_cell_angle_beta 90.000000
_cell_angle_gamma 90.000000
_cell_volume 5701.813148
_symmetry_space_group_name_H-M "I M M M"
_symmetry_group_IT_number 71
_symmetry_cell_setting 'orthorhombic'
loop_
_space_group_symop_operation_xyz
x,y,z
-x,-y,z
x,-y,-z
-x,y,-z
-x,-y,-z
x,y,-z
-x,y,z
x,-y,z
1/2+x,1/2+y,1/2+z
1/2-x,1/2-y,1/2+z
1/2+x,1/2-y,1/2-z
1/2-x,1/2+y,1/2-z
1/2-x,1/2-y,1/2-z
1/2+x,1/2+y,1/2-z
1/2-x,1/2+y,1/2+z
1/2+x,1/2-y,1/2+z
loop_
_atom_site_type_symbol
_atom_site_label
_atom_site_fract_x
_atom_site_fract_y
_atom_site_fract_z
Si Si1 0.337619 0.051993 0.678651
Si Si2 0.162437 0.109279 0.578969
Si Si3 0.332894 0.616219 0.425348
Si Si4 0.163159 0.051294 0.190802
Si Si5 0.155176 0.213568 0.080028
Si Si6 0.155089 0.208526 0.419949
O O1 0.500000 0.066164 0.684911
O O2 0.265999 0.075862 0.615877
O O3 0.256142 0.066161 0.746074
O O4 0.322397 0.000000 0.665841
O O5 0.184215 0.101903 0.500000
O O6 0.206372 0.159288 0.600191
O O7 0.000000 0.100231 0.598432
O O8 0.273734 0.604526 0.500000
O O9 0.500000 0.617683 0.428895
O O10 0.281329 0.579277 0.372929
O O11 0.280256 0.665150 0.401995
O O12 0.000000 0.061143 0.206991
O O13 0.186399 0.000000 0.172788
O O14 0.246937 0.253306 0.111703
O O15 0.000000 0.218527 0.111158
O O16 0.147976 0.218014 0.000000
O O17 0.151652 0.212127 0.500000
O O18 0.000000 0.216544 0.390687
#
# Coordination Sequence:
#
# PCOD8291419 Si02
#       6
#    16  16  16  16  16  16
#     4  10  21  35  49  66  91 122 153 187 227 271
#     4   9  18  32  50  72  95 118 147 186 229 269
#     4   8  14  25  43  70  99 121 148 191 234 267
#     4   9  17  30  49  69  89 120 159 192 226 272
#     4   8  13  22  38  61  90 122 150 177 216 266
#     4   8  14  25  41  63  91 118 144 178 219 262
#
# _framework density 16.836749999999999
#
# number of rings (size 3 to 8) (size 9 to 14) (size 15 to 20)
#    0.000    3.333    0.000    2.500    0.000    2.667 
#    0.000    5.833    0.000    2.500    0.000    2.333 
#    0.000    0.000    0.000    0.000    0.000    0.000 
#
# Total GULP energy -594910.421211 kJ/mol
# GULP energy per Si atom -12393.967109 kJ/mol
# Density = 1.679843 g / cm^3
# Si number density = 16.836750 Si / 1000 Ang^3
#
#
#
# Elastic Constant Matrix: (Units=GPa)
#
#
# Indices 1 2 3 4 5 6 
#
# 1 80.2466 54.4549 45.6802 0.0000 0.0000 0.0000
# 2 54.4549 92.6010 54.0904 0.0000 0.0000 0.0000
# 3 45.6802 54.0904 67.5538 -0.0001 -0.0003 0.0000
# 4 0.0000 0.0000 -0.0001 3.7397 0.0000 0.0000
# 5 0.0000 0.0000 -0.0003 0.0000 13.8251 0.0001
# 6 0.0000 0.0000 0.0000 0.0000 0.0001 25.0991
#
#
#
# Elastic Compliance Matrix: (Units=1/GPa)
#
#
# Indices 1 2 3 4 5 6 
#
# 1 0.023325 -0.008460 -0.008998 0.000000 0.000000 0.000000
# 2 -0.008460 0.023357 -0.012981 -0.000001 0.000000 0.000000
# 3 -0.008998 -0.012981 0.031281 0.000001 0.000001 0.000000
# 4 0.000000 -0.000001 0.000001 0.267404 0.000000 0.000000
# 5 0.000000 0.000000 0.000001 0.000000 0.072332 0.000000
# 6 0.000000 0.000000 0.000000 0.000000 0.000000 0.039842
#
#
# Mechanical properties :
#
#
# Convention : Reuss Voigt Hill
#
# Bulk Modulus (GPa) = 58.53334 60.98357 59.75846
# Shear Modulus (GPa) = 9.53990 14.27783 11.90887
#
# Velocity S-wave (km/s) = 2.38294 2.91523 2.66242
# Velocity P-wave (km/s) = 6.51244 6.90149 6.70979
#
# Compressibility (1/GPa) = 0.01708428
#
# Stress axis : x y z
#
# Youngs Moduli (GPa) = 42.87246 42.81456 31.96803
#
# Poissons Ratio (x) = 0.36223 0.28765
# Poissons Ratio (y) = 0.36272 0.41496
# Poissons Ratio (z) = 0.38578 0.55576
#
# Static dielectric constant tensor:
#      x y z
#    x 3.203610 0.000000 0.000000 
#    y 0.000000 3.364390 0.000000 
#    z 0.000000 0.000000 2.889200 
# 
# 
# High freq. dielectric constant tensor:
#      x y z
#    x 1.630930 0.000000 0.000000 
#    y 0.000000 1.657870 0.000000 
#    z 0.000000 0.000000 1.611600 
# 
# From -- ./inp_files/50781.got.cif
#   From: 2010.06.25/outbox.cif.g09.slc.cpg/sg71_26_cif.got.tgz:50781.got - 2010.06.28 04:59:45.
