data_PCOD8291310
_publ_section_title
;
Structure prediction by ZEFSAII (Michael W. Deem and Ramdas Pophale) SiO2 
 PCOD8291310
Probable space group: I M M M
;
_chemical_formula_sum "Si O2"
_cell_formula_units_Z 96
_cell_length_a 20.300804
_cell_length_b 22.150331
_cell_length_c 11.501975
_cell_angle_alpha 90.000000
_cell_angle_beta 90.000000
_cell_angle_gamma 90.000000
_cell_volume 5172.087671
_symmetry_space_group_name_H-M "I M M M"
_symmetry_group_IT_number 71
_symmetry_cell_setting 'orthorhombic'
loop_
_space_group_symop_operation_xyz
x,y,z
-x,-y,z
x,-y,-z
-x,y,-z
-x,-y,-z
x,y,-z
-x,y,z
x,-y,z
1/2+x,1/2+y,1/2+z
1/2-x,1/2-y,1/2+z
1/2+x,1/2-y,1/2-z
1/2-x,1/2+y,1/2-z
1/2-x,1/2-y,1/2-z
1/2+x,1/2+y,1/2-z
1/2-x,1/2+y,1/2+z
1/2+x,1/2-y,1/2+z
loop_
_atom_site_type_symbol
_atom_site_label
_atom_site_fract_x
_atom_site_fract_y
_atom_site_fract_z
Si Si1 0.696036 0.068579 0.000000
Si Si2 0.076515 0.257830 0.715617
Si Si3 0.244970 0.428780 0.249246
Si Si4 0.369964 0.366475 0.861363
Si Si5 0.875326 0.640432 0.862880
Si Si6 0.927320 0.654542 0.500000
Si Si7 0.500000 0.433867 0.862599
Si Si8 0.500000 0.932942 0.638355
O O1 0.740737 0.082424 0.887428
O O2 0.628361 0.104581 0.000000
O O3 0.672547 0.000000 0.000000
O O4 0.122807 0.201406 0.684678
O O5 0.111272 0.290411 0.825326
O O6 0.080866 0.303862 0.610838
O O7 0.000000 0.239652 0.740392
O O8 0.238490 0.500000 0.217772
O O9 0.312987 0.402692 0.202830
O O10 0.189359 0.389462 0.188012
O O11 0.435991 0.399140 0.820644
O O12 0.358725 0.367325 0.000000
O O13 0.936143 0.601195 0.814397
O O14 0.869436 0.639090 0.000000
O O15 0.000000 0.624039 0.500000
O O16 0.500000 0.500000 0.805460
O O17 0.500000 0.438586 0.000000
O O18 0.500000 0.934146 0.500000
O O19 0.500000 0.000000 0.690582
#
# Coordination Sequence:
#
# PCOD8291310 Si02
#       8
#     8  16  16  16  16   8   8   8
#     4  10  22  43  62  87 124 162 205 248 299 365
#     4  11  21  38  62  89 123 160 201 254 305 360
#     4  11  24  42  63  88 124 161 199 250 308 368
#     4  11  22  38  63  92 120 157 202 253 310 362
#     4  11  22  37  58  88 123 161 205 247 298 358
#     4  10  20  37  64  88 115 161 206 255 306 354
#     4   9  18  33  58  91 121 148 192 251 309 363
#     4   9  18  33  54  79 115 160 199 238 288 348
#
# _framework density 18.561170000000001
#
# number of rings (size 3 to 8) (size 9 to 14) (size 15 to 20)
#    0.000    1.500    4.167    1.500    0.000    3.500 
#    1.500    0.000    0.000    0.500    0.000    2.333 
#    0.000    0.000    0.000    0.000    0.000    0.000 
#
# Total GULP energy -595152.802335 kJ/mol
# GULP energy per Si atom -12399.016715 kJ/mol
# Density = 1.851892 g / cm^3
# Si number density = 18.561170 Si / 1000 Ang^3
#
#
#
# Elastic Constant Matrix: (Units=GPa)
#
#
# Indices 1 2 3 4 5 6 
#
# 1 126.7447 50.2391 40.9348 0.0000 0.0000 0.0000
# 2 50.2391 106.4238 42.2502 0.0000 0.0000 0.0000
# 3 40.9348 42.2502 84.3242 0.0000 0.0000 0.0000
# 4 0.0000 0.0000 0.0000 30.0089 0.0000 0.0000
# 5 0.0000 0.0000 0.0000 0.0000 20.7972 0.0000
# 6 0.0000 0.0000 0.0000 0.0000 0.0000 45.1993
#
#
#
# Elastic Compliance Matrix: (Units=1/GPa)
#
#
# Indices 1 2 3 4 5 6 
#
# 1 0.010362 -0.003613 -0.003220 0.000000 0.000000 0.000000
# 2 -0.003613 0.012990 -0.004754 0.000000 0.000000 0.000000
# 3 -0.003220 -0.004754 0.015804 0.000000 0.000000 0.000000
# 4 0.000000 0.000000 0.000000 0.033323 0.000000 0.000000
# 5 0.000000 0.000000 0.000000 0.000000 0.048083 0.000000
# 6 0.000000 0.000000 0.000000 0.000000 0.000000 0.022124
#
#
# Mechanical properties :
#
#
# Convention : Reuss Voigt Hill
#
# Bulk Modulus (GPa) = 62.57441 64.92677 63.75059
# Shear Modulus (GPa) = 29.20756 31.47231 30.33994
#
# Velocity S-wave (km/s) = 3.97115 4.12223 4.04739
# Velocity P-wave (km/s) = 7.40354 7.59690 7.50084
#
# Compressibility (1/GPa) = 0.01598097
#
# Stress axis : x y z
#
# Youngs Moduli (GPa) = 96.50642 76.98483 63.27466
#
# Poissons Ratio (x) = 0.27817 0.20373
# Poissons Ratio (y) = 0.34871 0.30083
# Poissons Ratio (z) = 0.31073 0.36601
#
# Static dielectric constant tensor:
#      x y z
#    x 3.756300 0.000000 0.000000 
#    y 0.000000 3.585650 0.000000 
#    z 0.000000 0.000000 3.364460 
# 
# 
# High freq. dielectric constant tensor:
#      x y z
#    x 1.723800 0.000000 0.000000 
#    y 0.000000 1.728070 0.000000 
#    z 0.000000 0.000000 1.711450 
# 
# From -- ./inp_files/26055.got.cif
#   From: 2010.06.25/outbox.cif.g09.slc.cpg/sg71_14_cif.got.tgz:26055.got - 2010.06.28 04:59:45.
