data_PCOD8291380
_publ_section_title
;
Structure prediction by ZEFSAII (Michael W. Deem and Ramdas Pophale) SiO2 
 PCOD8291380
Probable space group: I M M M
;
_chemical_formula_sum "Si O2"
_cell_formula_units_Z 88
_cell_length_a 9.795126
_cell_length_b 18.595339
_cell_length_c 26.127539
_cell_angle_alpha 90.000000
_cell_angle_beta 90.000000
_cell_angle_gamma 90.000000
_cell_volume 4758.966325
_symmetry_space_group_name_H-M "I M M M"
_symmetry_group_IT_number 71
_symmetry_cell_setting 'orthorhombic'
loop_
_space_group_symop_operation_xyz
x,y,z
-x,-y,z
x,-y,-z
-x,y,-z
-x,-y,-z
x,y,-z
-x,y,z
x,-y,z
1/2+x,1/2+y,1/2+z
1/2-x,1/2-y,1/2+z
1/2+x,1/2-y,1/2-z
1/2-x,1/2+y,1/2-z
1/2-x,1/2-y,1/2-z
1/2+x,1/2+y,1/2-z
1/2-x,1/2+y,1/2+z
1/2+x,1/2-y,1/2+z
loop_
_atom_site_type_symbol
_atom_site_label
_atom_site_fract_x
_atom_site_fract_y
_atom_site_fract_z
Si Si1 0.000000 0.719232 0.198637
Si Si2 0.000000 0.577337 0.154649
Si Si3 0.290054 0.420253 0.112095
Si Si4 0.500000 0.778236 0.812548
Si Si5 0.344262 0.726953 0.941611
Si Si6 0.500000 0.381146 0.191350
Si Si7 0.719592 0.310698 0.353028
Si Si8 0.500000 0.414448 0.686877
O O1 0.137761 0.744797 0.171518
O O2 0.000000 0.633384 0.200900
O O3 0.000000 0.748247 0.254840
O O4 0.871093 0.588310 0.118324
O O5 0.000000 0.500000 0.181747
O O6 0.322416 0.500000 0.088834
O O7 0.337035 0.356704 0.074794
O O8 0.364027 0.417155 0.167923
O O9 0.500000 0.698274 0.836122
O O10 0.365235 0.823271 0.825867
O O11 0.500000 0.753775 0.934893
O O12 0.248395 0.783897 0.910949
O O13 0.295998 0.731979 0.000000
O O14 0.500000 0.388686 0.253605
O O15 0.631560 0.383343 0.344206
O O16 0.500000 0.500000 0.683005
#
# Coordination Sequence:
#
# PCOD8291380 Si02
#       8
#     8   8  16   8  16   8  16   8
#     4  11  20  32  55  84 114 156 200 240 287 349
#     4  10  21  33  49  75 119 158 195 240 279 327
#     4  11  21  35  54  82 124 168 201 238 281 336
#     4  12  20  34  61  91 113 159 208 233 286 339
#     4  11  22  38  62  89 114 146 201 257 299 345
#     4  12  20  37  60  85 126 165 208 233 273 349
#     4  11  21  39  61  83 120 153 193 250 292 353
#     4  11  27  42  59  90 125 161 191 238 304 364
#
# _framework density 18.491410999999999
#
# number of rings (size 3 to 8) (size 9 to 14) (size 15 to 20)
#    0.000    0.909    7.273    1.364    2.545    0.364 
#    0.000    5.455    0.000    2.727    0.000    1.273 
#    0.000    0.000    0.000    0.000    0.000    0.000 
#
# Total GULP energy -545137.177739 kJ/mol
# GULP energy per Si atom -12389.481312 kJ/mol
# Density = 1.844932 g / cm^3
# Si number density = 18.491411 Si / 1000 Ang^3
#
#
#
# Elastic Constant Matrix: (Units=GPa)
#
#
# Indices 1 2 3 4 5 6 
#
# 1 141.0391 35.9476 46.5359 0.0000 0.0000 0.0000
# 2 35.9476 117.1476 34.0619 0.0000 0.0000 0.0000
# 3 46.5359 34.0619 117.8417 0.0000 0.0000 0.0000
# 4 0.0000 0.0000 0.0000 19.6482 0.0000 0.0000
# 5 0.0000 0.0000 0.0000 0.0000 -19.6240 0.0000
# 6 0.0000 0.0000 0.0000 0.0000 0.0000 34.3737
#
#
#
# Elastic Compliance Matrix: (Units=1/GPa)
#
#
# Indices 1 2 3 4 5 6 
#
# 1 0.008478 -0.001778 -0.002834 0.000000 0.000000 0.000000
# 2 -0.001778 0.009692 -0.002100 0.000000 0.000000 0.000000
# 3 -0.002834 -0.002100 0.010212 0.000000 0.000000 0.000000
# 4 0.000000 0.000000 0.000000 0.050895 0.000000 0.000000
# 5 0.000000 0.000000 0.000000 0.000000 -0.050958 0.000000
# 6 0.000000 0.000000 0.000000 0.000000 0.000000 0.029092
#
#
# Mechanical properties :
#
#
# Convention : Reuss Voigt Hill
#
# Bulk Modulus (GPa) = 66.84566 67.67992 67.26279
# Shear Modulus (GPa) = 65.94408 24.17842 45.06125
#
# Velocity S-wave (km/s) = 5.97825 3.61993 4.94183
# Velocity P-wave (km/s) = 9.15864 7.35881 8.30761
#
# Compressibility (1/GPa) = 0.01495983
#
# Stress axis : x y z
#
# Youngs Moduli (GPa) = 117.94546 103.17621 97.92275
#
# Poissons Ratio (x) = 0.18340 0.27755
# Poissons Ratio (y) = 0.20966 0.20559
# Poissons Ratio (z) = 0.33430 0.21662
#
# Static dielectric constant tensor:
#      x y z
#    x 3.583300 0.000000 0.000000 
#    y 0.000000 3.381450 0.000000 
#    z 0.000000 0.000000 3.240910 
# 
# 
# High freq. dielectric constant tensor:
#      x y z
#    x 1.735130 0.000000 0.000000 
#    y 0.000000 1.702780 0.000000 
#    z 0.000000 0.000000 1.691450 
# 
# From -- ./inp_files/57639.got.cif
#   From: 2010.06.25/outbox.cif.g09.slc.cpg/sg71_29_cif.got.tgz:57639.got - 2010.06.28 04:59:45.
