data_PCOD8291762
_publ_section_title
;
Structure prediction by ZEFSAII (Michael W. Deem and Ramdas Pophale) SiO2 
 PCOD8291762
Probable space group: I M M M
;
_chemical_formula_sum "Si O2"
_cell_formula_units_Z 72
_cell_length_a 10.131535
_cell_length_b 11.754159
_cell_length_c 30.823930
_cell_angle_alpha 90.000000
_cell_angle_beta 90.000000
_cell_angle_gamma 90.000000
_cell_volume 3670.750106
_symmetry_space_group_name_H-M "I M M M"
_symmetry_group_IT_number 71
_symmetry_cell_setting 'orthorhombic'
loop_
_space_group_symop_operation_xyz
x,y,z
-x,-y,z
x,-y,-z
-x,y,-z
-x,-y,-z
x,y,-z
-x,y,z
x,-y,z
1/2+x,1/2+y,1/2+z
1/2-x,1/2-y,1/2+z
1/2+x,1/2-y,1/2-z
1/2-x,1/2+y,1/2-z
1/2-x,1/2-y,1/2-z
1/2+x,1/2+y,1/2-z
1/2-x,1/2+y,1/2+z
1/2+x,1/2-y,1/2+z
loop_
_atom_site_type_symbol
_atom_site_label
_atom_site_fract_x
_atom_site_fract_y
_atom_site_fract_z
Si Si1 0.347216 0.500000 0.166844
Si Si2 0.659264 0.500000 0.070251
Si Si3 0.842473 0.766923 0.709049
Si Si4 0.235073 0.247777 0.548943
Si Si5 0.351716 0.123527 0.871408
Si Si6 0.000000 0.871373 0.050852
O O1 0.500000 0.500000 0.156636
O O2 0.284428 0.500000 0.119076
O O3 0.305279 0.392617 0.194403
O O4 0.500000 0.500000 0.064838
O O5 0.721851 0.611400 0.047814
O O6 0.750000 0.750000 0.750000
O O7 0.788900 0.686395 0.670167
O O8 0.000000 0.753135 0.719155
O O9 0.203531 0.291995 0.500000
O O10 0.138897 0.300878 0.584863
O O11 0.375985 0.295304 0.565350
O O12 0.500000 0.102142 0.857192
O O13 0.282351 0.000000 0.879378
O O14 0.000000 0.000000 0.071409
O O15 0.000000 0.886029 0.000000
#
# Coordination Sequence:
#
# PCOD8291762 Si02
#       6
#     8   8  16  16  16   8
#     4   9  18  37  62  82 115 159 191 234 300 364
#     4  11  21  37  59  90 126 159 197 247 301 359
#     4  10  21  39  62  86 116 153 195 244 304 365
#     4  11  22  37  60  86 117 160 205 246 296 356
#     4  10  21  37  57  84 119 154 192 245 304 358
#     4   9  20  39  59  79 111 158 207 253 299 349
#
# _framework density 19.614519999999999
#
# number of rings (size 3 to 8) (size 9 to 14) (size 15 to 20)
#    0.000    1.889    2.222    1.667    1.556    4.000 
#    2.000    2.778    2.444    0.000    0.000    0.000 
#    0.000    0.000    0.000    0.000    0.000    0.000 
#
# Total GULP energy -445995.680879 kJ/mol
# GULP energy per Si atom -12388.768913 kJ/mol
# Density = 1.956988 g / cm^3
# Si number density = 19.614520 Si / 1000 Ang^3
#
#
#
# Elastic Constant Matrix: (Units=GPa)
#
#
# Indices 1 2 3 4 5 6 
#
# 1 64.1134 36.5151 25.8283 0.0000 0.0000 0.0000
# 2 36.5151 165.1594 51.9070 0.0000 0.0000 0.0000
# 3 25.8283 51.9070 150.1025 0.0000 0.0000 0.0000
# 4 0.0000 0.0000 0.0000 19.2866 0.0000 0.0000
# 5 0.0000 0.0000 0.0000 0.0000 28.4853 0.0000
# 6 0.0000 0.0000 0.0000 0.0000 0.0000 24.3134
#
#
#
# Elastic Compliance Matrix: (Units=1/GPa)
#
#
# Indices 1 2 3 4 5 6 
#
# 1 0.018348 -0.003438 -0.001968 0.000000 0.000000 0.000000
# 2 -0.003438 0.007437 -0.001980 0.000000 0.000000 0.000000
# 3 -0.001968 -0.001980 0.007686 0.000000 0.000000 0.000000
# 4 0.000000 0.000000 0.000000 0.051849 0.000000 0.000000
# 5 0.000000 0.000000 0.000000 0.000000 0.035106 0.000000
# 6 0.000000 0.000000 0.000000 0.000000 0.000000 0.041130
#
#
# Mechanical properties :
#
#
# Convention : Reuss Voigt Hill
#
# Bulk Modulus (GPa) = 53.48176 67.54180 60.51178
# Shear Modulus (GPa) = 27.38794 32.09205 29.73999
#
# Velocity S-wave (km/s) = 3.74078 4.04931 3.89810
# Velocity P-wave (km/s) = 6.78111 7.50812 7.15386
#
# Compressibility (1/GPa) = 0.01869796
#
# Stress axis : x y z
#
# Youngs Moduli (GPa) = 54.50067 134.45829 130.11332
#
# Poissons Ratio (x) = 0.46227 0.25610
# Poissons Ratio (y) = 0.18738 0.25766
# Poissons Ratio (z) = 0.10727 0.26627
#
# Static dielectric constant tensor:
#      x y z
#    x 3.366410 0.000000 0.000000 
#    y 0.000000 3.827130 0.000000 
#    z 0.000000 0.000000 3.477800 
# 
# 
# High freq. dielectric constant tensor:
#      x y z
#    x 1.729420 0.000000 0.000000 
#    y 0.000000 1.782980 0.000000 
#    z 0.000000 0.000000 1.765390 
# 
# From -- ./inp_files/64266.got.cif
#   From: 2010.06.25/outbox.cif.g09.slc.cpg/sg71_33_cif.got.tgz:64266.got - 2010.06.28 04:59:45.
