data_PCOD8291969
_publ_section_title
;
Structure prediction by ZEFSAII (Michael W. Deem and Ramdas Pophale) SiO2 
 PCOD8291969
Probable space group: I M M M
;
_chemical_formula_sum "Si O2"
_cell_formula_units_Z 72
_cell_length_a 8.724610
_cell_length_b 29.671519
_cell_length_c 14.275551
_cell_angle_alpha 90.000000
_cell_angle_beta 90.000000
_cell_angle_gamma 90.000000
_cell_volume 3695.546597
_symmetry_space_group_name_H-M "I M M M"
_symmetry_group_IT_number 71
_symmetry_cell_setting 'orthorhombic'
loop_
_space_group_symop_operation_xyz
x,y,z
-x,-y,z
x,-y,-z
-x,y,-z
-x,-y,-z
x,y,-z
-x,y,z
x,-y,z
1/2+x,1/2+y,1/2+z
1/2-x,1/2-y,1/2+z
1/2+x,1/2-y,1/2-z
1/2-x,1/2+y,1/2-z
1/2-x,1/2-y,1/2-z
1/2+x,1/2+y,1/2-z
1/2-x,1/2+y,1/2+z
1/2+x,1/2-y,1/2+z
loop_
_atom_site_type_symbol
_atom_site_label
_atom_site_fract_x
_atom_site_fract_y
_atom_site_fract_z
Si Si1 0.821602 0.552723 0.807949
Si Si2 0.180750 0.872915 0.191030
Si Si3 0.174028 0.256292 0.000000
Si Si4 0.179913 0.660574 0.500000
Si Si5 0.678022 0.207430 0.300254
Si Si6 0.172484 0.946494 0.500000
O O1 0.789052 0.500000 0.795022
O O2 0.732814 0.577724 0.724501
O O3 0.760508 0.570646 0.907888
O O4 0.000000 0.564283 0.802231
O O5 0.251535 0.863301 0.090438
O O6 0.237315 0.837328 0.267765
O O7 0.000000 0.870340 0.182331
O O8 0.285441 0.213639 0.000000
O O9 0.204095 0.287808 0.910959
O O10 0.000000 0.237454 0.000000
O O11 0.000000 0.653511 0.500000
O O12 0.500000 0.204199 0.273204
O O13 0.750000 0.250000 0.250000
O O14 0.000000 0.927054 0.500000
O O15 0.170551 0.000000 0.500000
#
# Coordination Sequence:
#
# PCOD8291969 Si02
#       6
#    16  16   8   8  16   8
#     4  10  21  39  63  91 124 162 206 255 306 361
#     4  12  25  41  62  89 124 161 204 253 305 367
#     4  10  22  39  61  87 122 160 201 250 304 358
#     4  12  24  40  64  88 116 157 206 253 304 368
#     4  11  22  38  60  88 121 159 202 249 299 355
#     4   9  17  32  57  88 121 158 197 239 297 363
#
# _framework density 19.482908999999999
#
# number of rings (size 3 to 8) (size 9 to 14) (size 15 to 20)
#    0.000    1.222    2.222    4.667    0.000    4.444 
#    0.000    3.889    0.000    3.333    0.000    0.000 
#    0.000    0.000    0.000    0.000    0.000    0.000 
#
# Total GULP energy -446594.125678 kJ/mol
# GULP energy per Si atom -12405.392380 kJ/mol
# Density = 1.943857 g / cm^3
# Si number density = 19.482909 Si / 1000 Ang^3
#
#
#
# Elastic Constant Matrix: (Units=GPa)
#
#
# Indices 1 2 3 4 5 6 
#
# 1 175.1914 55.5292 78.5189 0.0000 0.0000 0.0000
# 2 55.5292 78.7853 58.5527 0.0000 0.0000 0.0000
# 3 78.5189 58.5527 161.0438 0.0005 0.0002 0.0000
# 4 0.0000 0.0000 0.0005 9.8642 0.0001 0.0000
# 5 0.0000 0.0000 0.0002 0.0001 32.7935 -0.0002
# 6 0.0000 0.0000 0.0000 0.0000 -0.0002 34.0589
#
#
#
# Elastic Compliance Matrix: (Units=1/GPa)
#
#
# Indices 1 2 3 4 5 6 
#
# 1 0.008048 -0.003777 -0.002551 0.000000 0.000000 0.000000
# 2 -0.003777 0.019165 -0.005126 0.000000 0.000000 0.000000
# 3 -0.002551 -0.005126 0.009317 -0.000001 0.000000 0.000000
# 4 0.000000 0.000000 -0.000001 0.101376 0.000000 0.000000
# 5 0.000000 0.000000 0.000000 0.000000 0.030494 0.000000
# 6 0.000000 0.000000 0.000000 0.000000 0.000000 0.029361
#
#
# Mechanical properties :
#
#
# Convention : Reuss Voigt Hill
#
# Bulk Modulus (GPa) = 73.41213 88.91358 81.16286
# Shear Modulus (GPa) = 22.20144 30.17131 26.18637
#
# Velocity S-wave (km/s) = 3.37936 3.93950 3.67013
# Velocity P-wave (km/s) = 7.27934 8.15038 7.72714
#
# Compressibility (1/GPa) = 0.01362173
#
# Stress axis : x y z
#
# Youngs Moduli (GPa) = 124.24724 52.17926 107.32916
#
# Poissons Ratio (x) = 0.19707 0.27379
# Poissons Ratio (y) = 0.46926 0.55022
# Poissons Ratio (z) = 0.31695 0.26750
#
# Static dielectric constant tensor:
#      x y z
#    x 3.765570 0.000000 0.000000 
#    y 0.000000 3.413430 0.000000 
#    z 0.000000 0.000000 3.942320 
# 
# 
# High freq. dielectric constant tensor:
#      x y z
#    x 1.777020 0.000000 0.000000 
#    y 0.000000 1.745940 0.000000 
#    z 0.000000 0.000000 1.769010 
# 
# From -- ./inp_files/31491.got.cif
#   From: 2010.06.25/outbox.cif.g09.slc.cpg/sg71_16_cif.got.tgz:31491.got - 2010.06.28 04:59:45.
