data_PCOD8291365
_publ_section_title
;
Structure prediction by ZEFSAII (Michael W. Deem and Ramdas Pophale) SiO2 
 PCOD8291365
Probable space group: I M M M
;
_chemical_formula_sum "Si O2"
_cell_formula_units_Z 68
_cell_length_a 9.622586
_cell_length_b 20.509430
_cell_length_c 18.260536
_cell_angle_alpha 90.000000
_cell_angle_beta 90.000000
_cell_angle_gamma 90.000000
_cell_volume 3603.785329
_symmetry_space_group_name_H-M "I M M M"
_symmetry_group_IT_number 71
_symmetry_cell_setting 'orthorhombic'
loop_
_space_group_symop_operation_xyz
x,y,z
-x,-y,z
x,-y,-z
-x,y,-z
-x,-y,-z
x,y,-z
-x,y,z
x,-y,z
1/2+x,1/2+y,1/2+z
1/2-x,1/2-y,1/2+z
1/2+x,1/2-y,1/2-z
1/2-x,1/2+y,1/2-z
1/2-x,1/2-y,1/2-z
1/2+x,1/2+y,1/2-z
1/2-x,1/2+y,1/2+z
1/2+x,1/2-y,1/2+z
loop_
_atom_site_type_symbol
_atom_site_label
_atom_site_fract_x
_atom_site_fract_y
_atom_site_fract_z
Si Si1 0.000000 0.369127 0.743140
Si Si2 0.777224 0.000000 0.585847
Si Si3 0.500000 0.737357 0.120921
Si Si4 0.267479 0.834030 0.132197
Si Si5 0.000000 0.094449 0.418442
Si Si6 0.500000 0.000000 0.329342
Si Si7 0.334975 0.422979 0.500000
Si Si8 0.500000 0.269325 0.706087
O O1 0.139181 0.367400 0.694377
O O2 0.000000 0.437253 0.780448
O O3 0.000000 0.309567 0.802357
O O4 0.860234 0.063916 0.616437
O O5 0.629193 0.000000 0.619372
O O6 0.752156 0.000000 0.500000
O O7 0.362267 0.776980 0.096942
O O8 0.500000 0.671318 0.076893
O O9 0.500000 0.718504 0.206819
O O10 0.133192 0.801399 0.168543
O O11 0.226384 0.887969 0.072022
O O12 0.000000 0.065693 0.500000
O O13 0.294147 0.500000 0.500000
O O14 0.500000 0.414578 0.500000
#
# Coordination Sequence:
#
# PCOD8291365 Si02
#       8
#     8   8   8  16   8   4   8   8
#     4  10  24  39  57  94 123 165 194 260 309 367
#     4   9  21  41  57  83 124 166 195 245 300 354
#     4  10  21  35  64  91 120 158 198 251 310 353
#     4  10  22  41  62  88 124 156 207 249 315 364
#     4   9  20  38  60  85 120 160 203 236 292 361
#     4  12  25  36  64  89 128 148 224 234 300 377
#     4  11  24  43  65  91 125 164 205 260 311 370
#     4  10  20  40  64  84 126 155 199 258 306 357
#
# _framework density 18.869050000000001
#
# number of rings (size 3 to 8) (size 9 to 14) (size 15 to 20)
#    0.000    2.235    1.176    3.706    9.882    1.412 
#    0.000    2.353    2.588    0.000    0.000    0.000 
#    0.000    0.000    0.000    0.000    0.000    0.000 
#
# Total GULP energy -421302.408075 kJ/mol
# GULP energy per Si atom -12391.247296 kJ/mol
# Density = 1.882610 g / cm^3
# Si number density = 18.869050 Si / 1000 Ang^3
#
#
#
# Elastic Constant Matrix: (Units=GPa)
#
#
# Indices 1 2 3 4 5 6 
#
# 1 180.3468 85.8930 58.5204 0.0000 0.0000 0.0000
# 2 85.8930 175.2391 71.8986 0.0000 0.0000 0.0000
# 3 58.5204 71.8986 75.8629 0.0000 0.0000 0.0000
# 4 0.0000 0.0000 0.0000 34.8100 0.0000 0.0000
# 5 0.0000 0.0000 0.0000 0.0000 21.3263 0.0000
# 6 0.0000 0.0000 0.0000 0.0000 0.0000 23.0067
#
#
#
# Elastic Compliance Matrix: (Units=1/GPa)
#
#
# Indices 1 2 3 4 5 6 
#
# 1 0.007902 -0.002245 -0.003967 0.000000 0.000000 0.000000
# 2 -0.002245 0.009975 -0.007722 0.000000 0.000000 0.000000
# 3 -0.003967 -0.007722 0.023561 0.000000 0.000000 0.000000
# 4 0.000000 0.000000 0.000000 0.028727 0.000000 0.000000
# 5 0.000000 0.000000 0.000000 0.000000 0.046890 0.000000
# 6 0.000000 0.000000 0.000000 0.000000 0.000000 0.043466
#
#
# Mechanical properties :
#
#
# Convention : Reuss Voigt Hill
#
# Bulk Modulus (GPa) = 73.70175 96.00808 84.85492
# Shear Modulus (GPa) = 25.91845 30.17104 28.04475
#
# Velocity S-wave (km/s) = 3.71023 4.00305 3.85942
# Velocity P-wave (km/s) = 7.58279 8.50633 8.05780
#
# Compressibility (1/GPa) = 0.01356820
#
# Stress axis : x y z
#
# Youngs Moduli (GPa) = 126.55781 100.24853 42.44371
#
# Poissons Ratio (x) = 0.22507 0.16839
# Poissons Ratio (y) = 0.28414 0.32775
# Poissons Ratio (z) = 0.50210 0.77412
#
# Static dielectric constant tensor:
#      x y z
#    x 3.697020 0.000000 0.000000 
#    y 0.000000 3.579560 0.000000 
#    z 0.000000 0.000000 3.297730 
# 
# 
# High freq. dielectric constant tensor:
#      x y z
#    x 1.752370 0.000000 0.000000 
#    y 0.000000 1.741230 0.000000 
#    z 0.000000 0.000000 1.718360 
# 
# From -- ./inp_files/41978.got.cif
#   From: 2010.06.25/outbox.cif.g09.slc.cpg/sg71_21_cif.got.tgz:41978.got - 2010.06.28 04:59:45.
