data_PCOD8291684
_publ_section_title
;
Structure prediction by ZEFSAII (Michael W. Deem and Ramdas Pophale) SiO2 
 PCOD8291684
Probable space group: I M M M
;
_chemical_formula_sum "Si O2"
_cell_formula_units_Z 68
_cell_length_a 28.246680
_cell_length_b 7.632096
_cell_length_c 15.748893
_cell_angle_alpha 90.000000
_cell_angle_beta 90.000000
_cell_angle_gamma 90.000000
_cell_volume 3395.167983
_symmetry_space_group_name_H-M "I M M M"
_symmetry_group_IT_number 71
_symmetry_cell_setting 'orthorhombic'
loop_
_space_group_symop_operation_xyz
x,y,z
-x,-y,z
x,-y,-z
-x,y,-z
-x,-y,-z
x,y,-z
-x,y,z
x,-y,z
1/2+x,1/2+y,1/2+z
1/2-x,1/2-y,1/2+z
1/2+x,1/2-y,1/2-z
1/2-x,1/2+y,1/2-z
1/2-x,1/2-y,1/2-z
1/2+x,1/2+y,1/2-z
1/2-x,1/2+y,1/2+z
1/2+x,1/2-y,1/2+z
loop_
_atom_site_type_symbol
_atom_site_label
_atom_site_fract_x
_atom_site_fract_y
_atom_site_fract_z
Si Si1 0.553331 0.797501 0.216255
Si Si2 0.052817 0.000000 0.850939
Si Si3 0.132366 0.699004 0.592646
Si Si4 0.373652 0.500000 0.500000
Si Si5 0.703654 0.792889 0.500000
Si Si6 0.731115 0.296920 0.842508
O O1 0.500000 0.781640 0.180046
O O2 0.559490 0.678111 0.298428
O O3 0.589401 0.718409 0.146390
O O4 0.565123 0.000000 0.240475
O O5 0.093516 0.000000 0.918979
O O6 0.000000 0.000000 0.891248
O O7 0.137190 0.792600 0.500000
O O8 0.118342 0.500000 0.577465
O O9 0.181088 0.704148 0.644516
O O10 0.343475 0.321856 0.500000
O O11 0.732647 0.737521 0.584170
O O12 0.691141 0.000000 0.500000
O O13 0.721366 0.500000 0.850609
O O14 0.750000 0.250000 0.750000
#
# Coordination Sequence:
#
# PCOD8291684 Si02
#       6
#    16   8  16   4   8  16
#     4   9  20  39  62  90 126 161 200 253 307 364
#     4  10  23  44  65  94 123 157 208 256 311 376
#     4  10  21  36  59  88 119 158 203 246 298 368
#     4  12  27  40  72  86 124 166 201 262 318 362
#     4  10  26  45  59  93 129 161 207 260 305 371
#     4  11  24  40  60  84 120 162 204 255 309 367
#
# _framework density 20.028464
#
# number of rings (size 3 to 8) (size 9 to 14) (size 15 to 20)
#    0.000    1.882    1.176    0.882    8.235    1.412 
#    0.000    2.353    0.000    5.647    0.000    0.000 
#    0.000    0.000    0.000    0.000    0.000    0.000 
#
# Total GULP energy -421524.450908 kJ/mol
# GULP energy per Si atom -12397.777968 kJ/mol
# Density = 1.998288 g / cm^3
# Si number density = 20.028464 Si / 1000 Ang^3
#
#
#
# Elastic Constant Matrix: (Units=GPa)
#
#
# Indices 1 2 3 4 5 6 
#
# 1 175.9613 42.5366 98.2051 0.0000 0.0000 0.0000
# 2 42.5366 71.6356 30.1150 0.0000 0.0000 0.0000
# 3 98.2051 30.1150 154.4175 0.0000 0.0000 0.0000
# 4 0.0000 0.0000 0.0000 19.4435 0.0000 0.0000
# 5 0.0000 0.0000 0.0000 0.0000 51.1726 0.0000
# 6 0.0000 0.0000 0.0000 0.0000 0.0000 29.6673
#
#
#
# Elastic Compliance Matrix: (Units=1/GPa)
#
#
# Indices 1 2 3 4 5 6 
#
# 1 0.009507 -0.003380 -0.005387 0.000000 0.000000 0.000000
# 2 -0.003380 0.016408 -0.001050 0.000000 0.000000 0.000000
# 3 -0.005387 -0.001050 0.010107 0.000000 0.000000 0.000000
# 4 0.000000 0.000000 0.000000 0.051431 0.000000 0.000000
# 5 0.000000 0.000000 0.000000 0.000000 0.019542 0.000000
# 6 0.000000 0.000000 0.000000 0.000000 0.000000 0.033707
#
#
# Mechanical properties :
#
#
# Convention : Reuss Voigt Hill
#
# Bulk Modulus (GPa) = 61.02424 82.63643 71.83034
# Shear Modulus (GPa) = 30.15719 35.46719 32.81219
#
# Velocity S-wave (km/s) = 3.88457 4.21270 4.05196
# Velocity P-wave (km/s) = 7.11721 8.06297 7.60481
#
# Compressibility (1/GPa) = 0.01638693
#
# Stress axis : x y z
#
# Youngs Moduli (GPa) = 105.19042 60.94488 98.94616
#
# Poissons Ratio (x) = 0.20602 0.53299
# Poissons Ratio (y) = 0.35559 0.10391
# Poissons Ratio (z) = 0.56662 0.06400
#
# Static dielectric constant tensor:
#      x y z
#    x 3.710740 0.000000 0.000000 
#    y 0.000000 3.703490 0.000000 
#    z 0.000000 0.000000 3.785640 
# 
# 
# High freq. dielectric constant tensor:
#      x y z
#    x 1.790600 0.000000 0.000000 
#    y 0.000000 1.786150 0.000000 
#    z 0.000000 0.000000 1.779390 
# 
# From -- ./inp_files/46872.got.cif
#   From: 2010.06.25/outbox.cif.g09.slc.cpg/sg71_24_cif.got.tgz:46872.got - 2010.06.28 04:59:45.
