data_PCOD8291796
_publ_section_title
;
Structure prediction by ZEFSAII (Michael W. Deem and Ramdas Pophale) SiO2 
 PCOD8291796
Probable space group: I M M M
;
_chemical_formula_sum "Si O2"
_cell_formula_units_Z 88
_cell_length_a 22.791024
_cell_length_b 12.392202
_cell_length_c 16.442070
_cell_angle_alpha 90.000000
_cell_angle_beta 90.000000
_cell_angle_gamma 90.000000
_cell_volume 4643.749831
_symmetry_space_group_name_H-M "I M M M"
_symmetry_group_IT_number 71
_symmetry_cell_setting 'orthorhombic'
loop_
_space_group_symop_operation_xyz
x,y,z
-x,-y,z
x,-y,-z
-x,y,-z
-x,-y,-z
x,y,-z
-x,y,z
x,-y,z
1/2+x,1/2+y,1/2+z
1/2-x,1/2-y,1/2+z
1/2+x,1/2-y,1/2-z
1/2-x,1/2+y,1/2-z
1/2-x,1/2-y,1/2-z
1/2+x,1/2+y,1/2-z
1/2-x,1/2+y,1/2+z
1/2+x,1/2-y,1/2+z
loop_
_atom_site_type_symbol
_atom_site_label
_atom_site_fract_x
_atom_site_fract_y
_atom_site_fract_z
Si Si1 0.132225 0.500000 0.903008
Si Si2 0.346690 0.692725 0.139905
Si Si3 0.934433 0.289867 0.096156
Si Si4 0.264445 0.500000 0.904026
Si Si5 0.736558 0.875434 0.093147
Si Si6 0.856792 0.872842 0.818329
Si Si7 0.068233 0.872440 0.500000
O O1 0.100143 0.393620 0.868782
O O2 0.198563 0.500000 0.869716
O O3 0.132257 0.500000 0.000000
O O4 0.295522 0.606041 0.128426
O O5 0.319970 0.810071 0.123120
O O6 0.368518 0.683362 0.231916
O O7 0.401656 0.674827 0.080548
O O8 0.903558 0.178503 0.120584
O O9 0.000000 0.291913 0.132214
O O10 0.936223 0.296117 0.000000
O O11 0.266782 0.500000 0.000000
O O12 0.791834 0.846829 0.149380
O O13 0.719392 0.000000 0.100734
O O14 0.752383 0.844857 0.000000
O O15 0.868434 0.000000 0.813533
O O16 0.000000 0.839730 0.500000
O O17 0.077264 0.000000 0.500000
#
# Coordination Sequence:
#
# PCOD8291796 Si02
#       7
#     8  16  16   8  16  16   8
#     4   9  19  34  59  90 116 148 193 243 291 351
#     4  12  20  39  58  85 120 151 199 247 294 357
#     4  10  21  39  60  83 117 161 202 241 287 344
#     4  11  18  31  60  89 115 148 189 245 308 345
#     4  10  21  37  59  85 120 159 190 236 301 362
#     4  11  23  37  56  88 124 153 197 244 300 350
#     4  11  22  38  61  87 117 159 202 250 300 342
#
# _framework density 18.950202999999998
#
# number of rings (size 3 to 8) (size 9 to 14) (size 15 to 20)
#    0.000    1.364    3.636    2.455    0.000    4.727 
#    1.636    0.909    0.000    1.091    0.000    0.000 
#    0.000    0.000    0.000    0.000    0.000    0.000 
#
# Total GULP energy -545796.092081 kJ/mol
# GULP energy per Si atom -12404.456638 kJ/mol
# Density = 1.890707 g / cm^3
# Si number density = 18.950203 Si / 1000 Ang^3
#
#
#
# Elastic Constant Matrix: (Units=GPa)
#
#
# Indices 1 2 3 4 5 6 
#
# 1 132.5381 55.1591 23.1040 0.0000 0.0000 0.0000
# 2 55.1591 85.8961 32.3264 0.0000 0.0000 0.0000
# 3 23.1040 32.3264 52.1380 0.0000 0.0000 0.0000
# 4 0.0000 0.0000 0.0000 26.7885 0.0000 0.0000
# 5 0.0000 0.0000 0.0000 0.0000 12.3260 0.0000
# 6 0.0000 0.0000 0.0000 0.0000 0.0000 23.5784
#
#
#
# Elastic Compliance Matrix: (Units=1/GPa)
#
#
# Indices 1 2 3 4 5 6 
#
# 1 0.010311 -0.006394 -0.000605 0.000000 0.000000 0.000000
# 2 -0.006394 0.019150 -0.009040 0.000000 0.000000 0.000000
# 3 -0.000605 -0.009040 0.025053 0.000000 0.000000 0.000000
# 4 0.000000 0.000000 0.000000 0.037329 0.000000 0.000000
# 5 0.000000 0.000000 0.000000 0.000000 0.081130 0.000000
# 6 0.000000 0.000000 0.000000 0.000000 0.000000 0.042412
#
#
# Mechanical properties :
#
#
# Convention : Reuss Voigt Hill
#
# Bulk Modulus (GPa) = 44.57005 54.63902 49.60454
# Shear Modulus (GPa) = 19.61232 23.20408 21.40820
#
# Velocity S-wave (km/s) = 3.22054 3.50305 3.36476
# Velocity P-wave (km/s) = 6.11554 6.72736 6.42873
#
# Compressibility (1/GPa) = 0.02243659
#
# Stress axis : x y z
#
# Youngs Moduli (GPa) = 96.97945 52.21919 39.91551
#
# Poissons Ratio (x) = 0.33389 0.02415
# Poissons Ratio (y) = 0.62008 0.36084
# Poissons Ratio (z) = 0.05867 0.47206
#
# Static dielectric constant tensor:
#      x y z
#    x 3.537170 0.000000 0.000000 
#    y 0.000000 3.526050 0.000000 
#    z 0.000000 0.000000 3.481540 
# 
# 
# High freq. dielectric constant tensor:
#      x y z
#    x 1.729840 0.000000 0.000000 
#    y 0.000000 1.742330 0.000000 
#    z 0.000000 0.000000 1.729670 
# 
# From -- ./inp_files/25715.got.cif
#   From: 2010.06.25/outbox.cif.g09.slc.cpg/sg71_13_cif.got.tgz:25715.got - 2010.06.28 04:59:45.
