data_PCOD8291518
_publ_section_title
;
Structure prediction by ZEFSAII (Michael W. Deem and Ramdas Pophale) SiO2 
 PCOD8291518
Probable space group: I M M M
;
_chemical_formula_sum "Si O2"
_cell_formula_units_Z 104
_cell_length_a 30.112539
_cell_length_b 8.900760
_cell_length_c 22.817088
_cell_angle_alpha 90.000000
_cell_angle_beta 90.000000
_cell_angle_gamma 90.000000
_cell_volume 6115.538206
_symmetry_space_group_name_H-M "I M M M"
_symmetry_group_IT_number 71
_symmetry_cell_setting 'orthorhombic'
loop_
_space_group_symop_operation_xyz
x,y,z
-x,-y,z
x,-y,-z
-x,y,-z
-x,-y,-z
x,y,-z
-x,y,z
x,-y,z
1/2+x,1/2+y,1/2+z
1/2-x,1/2-y,1/2+z
1/2+x,1/2-y,1/2-z
1/2-x,1/2+y,1/2-z
1/2-x,1/2-y,1/2-z
1/2+x,1/2+y,1/2-z
1/2-x,1/2+y,1/2+z
1/2+x,1/2-y,1/2+z
loop_
_atom_site_type_symbol
_atom_site_label
_atom_site_fract_x
_atom_site_fract_y
_atom_site_fract_z
Si Si1 0.380298 0.678438 0.433698
Si Si2 0.811481 0.674606 0.430523
Si Si3 0.449265 0.823264 0.216913
Si Si4 0.784411 0.177743 0.064740
Si Si5 0.450155 0.678771 0.000000
Si Si6 0.550802 0.324412 0.661014
Si Si7 0.602777 0.677600 0.887397
O O1 0.386766 0.741493 0.500000
O O2 0.383485 0.500000 0.436225
O O3 0.331663 0.726652 0.406415
O O4 0.418660 0.740878 0.391318
O O5 0.814753 0.705892 0.500000
O O6 0.820640 0.500000 0.417280
O O7 0.762506 0.726559 0.405814
O O8 0.846361 0.774161 0.395056
O O9 0.500000 0.777762 0.202102
O O10 0.436074 0.764533 0.280796
O O11 0.416577 0.747345 0.171197
O O12 0.442488 0.000000 0.214970
O O13 0.782626 0.000000 0.059703
O O14 0.785341 0.247561 0.000000
O O15 0.425246 0.739973 0.942569
O O16 0.450345 0.500000 0.000000
O O17 0.500000 0.743517 0.000000
O O18 0.500000 0.293951 0.642917
O O19 0.559414 0.500000 0.672424
O O20 0.599679 0.500000 0.882788
#
# Coordination Sequence:
#
# PCOD8291518 Si02
#       7
#    16  16  16  16   8  16  16
#     4   8  13  23  43  73 104 128 154 188 228 275
#     4   9  16  27  44  66  94 124 156 192 230 275
#     4  10  21  36  51  66  87 121 163 199 231 273
#     4   7  11  21  39  64  93 126 157 186 223 269
#     4   9  18  30  43  63  91 119 143 175 228 285
#     4   9  17  29  47  72  99 126 156 192 233 275
#     4  11  20  31  48  69  94 121 152 193 239 285
#
# _framework density 17.005863000000002
#
# number of rings (size 3 to 8) (size 9 to 14) (size 15 to 20)
#    0.000    3.000    0.769    3.231    0.000    1.846 
#    0.000    1.538    0.000    4.154    0.000    4.308 
#    0.000    0.000    0.000    0.000    0.000    0.000 
#
# Total GULP energy -644280.210135 kJ/mol
# GULP energy per Si atom -12390.004041 kJ/mol
# Density = 1.696716 g / cm^3
# Si number density = 17.005863 Si / 1000 Ang^3
#
#
#
# Elastic Constant Matrix: (Units=GPa)
#
#
# Indices 1 2 3 4 5 6 
#
# 1 154.6443 30.8480 80.0829 0.0000 0.0000 0.0000
# 2 30.8480 35.9877 29.7921 0.0000 0.0000 0.0000
# 3 80.0829 29.7921 93.7237 0.0000 0.0000 0.0000
# 4 0.0000 0.0000 0.0000 13.7172 0.0000 0.0000
# 5 0.0000 0.0000 0.0000 0.0000 20.8261 0.0000
# 6 0.0000 0.0000 0.0000 0.0000 0.0000 15.4506
#
#
#
# Elastic Compliance Matrix: (Units=1/GPa)
#
#
# Indices 1 2 3 4 5 6 
#
# 1 0.011748 -0.002389 -0.009279 0.000000 0.000000 0.000000
# 2 -0.002389 0.038196 -0.010100 0.000000 0.000000 0.000000
# 3 -0.009279 -0.010100 0.021809 0.000000 0.000000 0.000000
# 4 0.000000 0.000000 0.000000 0.072901 0.000000 0.000000
# 5 0.000000 0.000000 0.000000 0.000000 0.048017 0.000000
# 6 0.000000 0.000000 0.000000 0.000000 0.000000 0.064722
#
#
# Mechanical properties :
#
#
# Convention : Reuss Voigt Hill
#
# Bulk Modulus (GPa) = 35.43964 62.86686 49.15325
# Shear Modulus (GPa) = 16.11160 19.57430 17.84295
#
# Velocity S-wave (km/s) = 3.08135 3.39637 3.24269
# Velocity P-wave (km/s) = 5.79176 7.24075 6.55641
#
# Compressibility (1/GPa) = 0.02821699
#
# Stress axis : x y z
#
# Youngs Moduli (GPa) = 85.12052 26.18046 45.85325
#
# Poissons Ratio (x) = 0.06254 0.42547
# Poissons Ratio (y) = 0.20333 0.46314
# Poissons Ratio (z) = 0.78982 0.26443
#
# Static dielectric constant tensor:
#      x y z
#    x 3.626430 0.000000 0.000000 
#    y 0.000000 2.821110 0.000000 
#    z 0.000000 0.000000 3.038860 
# 
# 
# High freq. dielectric constant tensor:
#      x y z
#    x 1.672740 0.000000 0.000000 
#    y 0.000000 1.621220 0.000000 
#    z 0.000000 0.000000 1.624720 
# 
# From -- ./inp_files/56681.got.cif
#   From: 2010.06.25/outbox.cif.g09.slc.cpg/sg71_29_cif.got.tgz:56681.got - 2010.06.28 04:59:45.
