data_PCOD8291964
_publ_section_title
;
Structure prediction by ZEFSAII (Michael W. Deem and Ramdas Pophale) SiO2 
 PCOD8291964
Probable space group: I M M M
;
_chemical_formula_sum "Si O2"
_cell_formula_units_Z 64
_cell_length_a 26.683647
_cell_length_b 8.873263
_cell_length_c 13.480704
_cell_angle_alpha 90.000000
_cell_angle_beta 90.000000
_cell_angle_gamma 90.000000
_cell_volume 3191.840004
_symmetry_space_group_name_H-M "I M M M"
_symmetry_group_IT_number 71
_symmetry_cell_setting 'orthorhombic'
loop_
_space_group_symop_operation_xyz
x,y,z
-x,-y,z
x,-y,-z
-x,y,-z
-x,-y,-z
x,y,-z
-x,y,z
x,-y,z
1/2+x,1/2+y,1/2+z
1/2-x,1/2-y,1/2+z
1/2+x,1/2-y,1/2-z
1/2-x,1/2+y,1/2-z
1/2-x,1/2-y,1/2-z
1/2+x,1/2+y,1/2-z
1/2-x,1/2+y,1/2+z
1/2+x,1/2-y,1/2+z
loop_
_atom_site_type_symbol
_atom_site_label
_atom_site_fract_x
_atom_site_fract_y
_atom_site_fract_z
Si Si1 0.084471 0.330718 0.500000
Si Si2 0.057194 0.174462 0.293327
Si Si3 0.202488 0.328793 0.500000
Si Si4 0.231689 0.677895 0.847850
Si Si5 0.373764 0.323782 0.611219
O O1 0.062991 0.500000 0.500000
O O2 0.066245 0.253428 0.398766
O O3 0.143518 0.331675 0.500000
O O4 0.090458 0.237039 0.200506
O O5 0.000000 0.200573 0.260923
O O6 0.069230 0.000000 0.310242
O O7 0.223936 0.500000 0.500000
O O8 0.221469 0.230521 0.589566
O O9 0.227620 0.500000 0.842148
O O10 0.250000 0.750000 0.750000
O O11 0.178871 0.739085 0.885419
O O12 0.396792 0.295096 0.500000
O O13 0.364045 0.500000 0.626858
#
# Coordination Sequence:
#
# PCOD8291964 Si02
#       5
#     8  16   8  16  16
#     4  11  24  40  61  90 122 159 205 260 317 372
#     4  10  22  40  63  91 122 161 208 257 310 369
#     4  11  23  40  60  87 121 157 200 248 301 365
#     4  12  24  38  59  88 122 162 204 249 300 363
#     4  10  21  39  63  90 125 164 204 254 308 368
#
# _framework density 20.051131000000002
#
# number of rings (size 3 to 8) (size 9 to 14) (size 15 to 20)
#    0.000    1.250    1.250    4.875    0.000    9.500 
#    0.000    2.500    0.000    0.000    0.000    3.500 
#    0.000    0.000    0.000    0.000    0.000    0.000 
#
# Total GULP energy -396494.541818 kJ/mol
# GULP energy per Si atom -12390.454432 kJ/mol
# Density = 2.000549 g / cm^3
# Si number density = 20.051131 Si / 1000 Ang^3
#
#
#
# Elastic Constant Matrix: (Units=GPa)
#
#
# Indices 1 2 3 4 5 6 
#
# 1 77.5266 33.7724 35.7588 0.0000 0.0000 0.0000
# 2 33.7724 91.4623 49.4459 0.0000 0.0000 0.0000
# 3 35.7588 49.4459 165.9823 0.0000 0.0000 0.0000
# 4 0.0000 0.0000 0.0000 24.0615 0.0000 0.0000
# 5 0.0000 0.0000 0.0000 0.0000 46.5457 0.0000
# 6 0.0000 0.0000 0.0000 0.0000 0.0000 25.8815
#
#
#
# Elastic Compliance Matrix: (Units=1/GPa)
#
#
# Indices 1 2 3 4 5 6 
#
# 1 0.015909 -0.004794 -0.001999 0.000000 0.000000 0.000000
# 2 -0.004794 0.014477 -0.003280 0.000000 0.000000 0.000000
# 3 -0.001999 -0.003280 0.007433 0.000000 0.000000 0.000000
# 4 0.000000 0.000000 0.000000 0.041560 0.000000 0.000000
# 5 0.000000 0.000000 0.000000 0.000000 0.021484 0.000000
# 6 0.000000 0.000000 0.000000 0.000000 0.000000 0.038638
#
#
# Mechanical properties :
#
#
# Convention : Reuss Voigt Hill
#
# Bulk Modulus (GPa) = 56.58446 63.65839 60.12143
# Shear Modulus (GPa) = 30.20473 33.69736 31.95104
#
# Velocity S-wave (km/s) = 3.88543 4.10392 3.99617
# Velocity P-wave (km/s) = 6.95774 7.36704 7.16531
#
# Compressibility (1/GPa) = 0.01767270
#
# Stress axis : x y z
#
# Youngs Moduli (GPa) = 62.85668 69.07691 134.54319
#
# Poissons Ratio (x) = 0.33112 0.26901
# Poissons Ratio (y) = 0.30131 0.44128
# Poissons Ratio (z) = 0.12568 0.22656
#
# Static dielectric constant tensor:
#      x y z
#    x 3.542910 0.000000 0.000000 
#    y 0.000000 3.841970 0.000000 
#    z 0.000000 0.000000 4.036080 
# 
# 
# High freq. dielectric constant tensor:
#      x y z
#    x 1.784740 0.000000 0.000000 
#    y 0.000000 1.780660 0.000000 
#    z 0.000000 0.000000 1.809470 
# 
# From -- ./inp_files/38792.got.cif
#   From: 2010.06.25/outbox.cif.g09.slc.cpg/sg71_20_cif.got.tgz:38792.got - 2010.06.28 04:59:45.
