data_PCOD8291125
_publ_section_title
;
Structure prediction by ZEFSAII (Michael W. Deem and Ramdas Pophale) SiO2 
 PCOD8291125
Probable space group: I M M M
;
_chemical_formula_sum "Si O2"
_cell_formula_units_Z 120
_cell_length_a 22.354343
_cell_length_b 21.575526
_cell_length_c 13.595791
_cell_angle_alpha 90.000000
_cell_angle_beta 90.000000
_cell_angle_gamma 90.000000
_cell_volume 6557.341208
_symmetry_space_group_name_H-M "I M M M"
_symmetry_group_IT_number 71
_symmetry_cell_setting 'orthorhombic'
loop_
_space_group_symop_operation_xyz
x,y,z
-x,-y,z
x,-y,-z
-x,y,-z
-x,-y,-z
x,y,-z
-x,y,z
x,-y,z
1/2+x,1/2+y,1/2+z
1/2-x,1/2-y,1/2+z
1/2+x,1/2-y,1/2-z
1/2-x,1/2+y,1/2-z
1/2-x,1/2-y,1/2-z
1/2+x,1/2+y,1/2-z
1/2-x,1/2+y,1/2+z
1/2+x,1/2-y,1/2+z
loop_
_atom_site_type_symbol
_atom_site_label
_atom_site_fract_x
_atom_site_fract_y
_atom_site_fract_z
Si Si1 0.430734 0.674593 0.297930
Si Si2 0.379678 0.730360 0.887583
Si Si3 0.873760 0.293125 0.889081
Si Si4 0.500000 0.072938 0.889606
Si Si5 0.734717 0.928227 0.774632
Si Si6 0.112503 0.363222 0.301217
Si Si7 0.146310 0.928673 0.887528
Si Si8 0.743306 0.331533 0.888809
O O1 0.500000 0.668594 0.325045
O O2 0.424274 0.692335 0.183013
O O3 0.400699 0.726174 0.366959
O O4 0.398483 0.609734 0.318772
O O5 0.385849 0.803225 0.870336
O O6 0.312128 0.711723 0.859407
O O7 0.396168 0.714456 0.000000
O O8 0.898450 0.344187 0.812779
O O9 0.802104 0.289095 0.875232
O O10 0.890985 0.313397 0.000000
O O11 0.441876 0.094090 0.831562
O O12 0.500000 0.000000 0.893428
O O13 0.500000 0.100596 0.000000
O O14 0.673116 0.901459 0.817211
O O15 0.784904 0.918273 0.857409
O O16 0.754752 0.892985 0.676409
O O17 0.726371 0.000000 0.747295
O O18 0.128000 0.000000 0.873844
O O19 0.139360 0.907186 0.000000
O O20 0.737142 0.355523 0.000000
#
# Coordination Sequence:
#
# PCOD8291125 Si02
#       8
#    16  16  16   8  16  16  16  16
#     4  11  23  37  56  81 111 151 191 229 281 338
#     4  10  21  36  59  87 116 144 180 231 286 340
#     4   9  20  35  56  85 117 144 178 229 280 337
#     4  11  24  42  59  79 113 153 195 238 280 336
#     4  10  20  36  58  83 113 146 184 231 277 330
#     4  10  22  36  58  84 113 149 190 228 280 336
#     4  10  22  38  56  80 110 144 186 236 285 335
#     4   9  18  35  58  86 113 143 177 222 286 340
#
# _framework density 18.3001
#
# number of rings (size 3 to 8) (size 9 to 14) (size 15 to 20)
#    0.000    2.067    1.333    1.200    5.600    4.533 
#    0.000    2.000    0.000    2.000    0.000    0.933 
#    0.000    0.000    0.000    0.000    0.000    0.000 
#
# Total GULP energy -744142.005717 kJ/mol
# GULP energy per Si atom -12402.366762 kJ/mol
# Density = 1.825845 g / cm^3
# Si number density = 18.300100 Si / 1000 Ang^3
#
#
#
# Elastic Constant Matrix: (Units=GPa)
#
#
# Indices 1 2 3 4 5 6 
#
# 1 92.1616 51.3195 29.1173 0.0000 0.0000 0.0000
# 2 51.3195 94.9385 38.5996 0.0000 0.0000 0.0000
# 3 29.1173 38.5996 94.6745 0.0000 0.0000 0.0000
# 4 0.0000 0.0000 0.0000 19.2936 0.0000 0.0000
# 5 0.0000 0.0000 0.0000 0.0000 21.3930 0.0000
# 6 0.0000 0.0000 0.0000 0.0000 0.0000 23.0332
#
#
#
# Elastic Compliance Matrix: (Units=1/GPa)
#
#
# Indices 1 2 3 4 5 6 
#
# 1 0.015734 -0.007837 -0.001644 0.000000 0.000000 0.000000
# 2 -0.007837 0.016529 -0.004329 0.000000 0.000000 0.000000
# 3 -0.001644 -0.004329 0.012833 0.000000 0.000000 0.000000
# 4 0.000000 0.000000 0.000000 0.051831 0.000000 0.000000
# 5 0.000000 0.000000 0.000000 0.000000 0.046744 0.000000
# 6 0.000000 0.000000 0.000000 0.000000 0.000000 0.043416
#
#
# Mechanical properties :
#
#
# Convention : Reuss Voigt Hill
#
# Bulk Modulus (GPa) = 57.21760 57.76081 57.48920
# Shear Modulus (GPa) = 22.67257 23.59317 23.13287
#
# Velocity S-wave (km/s) = 3.52366 3.59449 3.55925
# Velocity P-wave (km/s) = 6.92019 6.98991 6.95514
#
# Compressibility (1/GPa) = 0.01747714
#
# Stress axis : x y z
#
# Youngs Moduli (GPa) = 63.55839 60.49877 77.92380
#
# Poissons Ratio (x) = 0.47410 0.12810
# Poissons Ratio (y) = 0.49808 0.33733
# Poissons Ratio (z) = 0.10448 0.26190
#
# Static dielectric constant tensor:
#      x y z
#    x 3.377170 0.000000 0.000000 
#    y 0.000000 3.270890 0.000000 
#    z 0.000000 0.000000 3.511560 
# 
# 
# High freq. dielectric constant tensor:
#      x y z
#    x 1.710600 0.000000 0.000000 
#    y 0.000000 1.702390 0.000000 
#    z 0.000000 0.000000 1.717480 
# 
# From -- ./inp_files/38437.got.cif
#   From: 2010.06.25/outbox.cif.g09.slc.cpg/sg71_20_cif.got.tgz:38437.got - 2010.06.28 04:59:45.
