data_PCOD8291503
_publ_section_title
;
Structure prediction by ZEFSAII (Michael W. Deem and Ramdas Pophale) SiO2 
 PCOD8291503
Probable space group: I M M M
;
_chemical_formula_sum "Si O2"
_cell_formula_units_Z 72
_cell_length_a 9.848651
_cell_length_b 21.910690
_cell_length_c 17.605887
_cell_angle_alpha 90.000000
_cell_angle_beta 90.000000
_cell_angle_gamma 90.000000
_cell_volume 3799.187366
_symmetry_space_group_name_H-M "I M M M"
_symmetry_group_IT_number 71
_symmetry_cell_setting 'orthorhombic'
loop_
_space_group_symop_operation_xyz
x,y,z
-x,-y,z
x,-y,-z
-x,y,-z
-x,-y,-z
x,y,-z
-x,y,z
x,-y,z
1/2+x,1/2+y,1/2+z
1/2-x,1/2-y,1/2+z
1/2+x,1/2-y,1/2-z
1/2-x,1/2+y,1/2-z
1/2-x,1/2-y,1/2-z
1/2+x,1/2+y,1/2-z
1/2-x,1/2+y,1/2+z
1/2+x,1/2-y,1/2+z
loop_
_atom_site_type_symbol
_atom_site_label
_atom_site_fract_x
_atom_site_fract_y
_atom_site_fract_z
Si Si1 0.845448 0.269302 0.414140
Si Si2 0.339751 0.500000 0.414451
Si Si3 0.657966 0.629900 0.354341
Si Si4 0.343325 0.347428 0.820269
Si Si5 0.651757 0.071946 0.414789
O O1 0.835120 0.243877 0.500000
O O2 0.747303 0.327186 0.407870
O O3 0.796998 0.217038 0.355678
O O4 0.000000 0.289196 0.395433
O O5 0.500000 0.500000 0.420442
O O6 0.277894 0.500000 0.500000
O O7 0.292923 0.439771 0.368314
O O8 0.500000 0.637521 0.376295
O O9 0.685472 0.651165 0.268833
O O10 0.500000 0.360069 0.839009
O O11 0.258235 0.401413 0.856436
O O12 0.688442 0.093176 0.500000
O O13 0.500000 0.094499 0.394061
O O14 0.659944 0.000000 0.408427
#
# Coordination Sequence:
#
# PCOD8291503 Si02
#       5
#    16   8  16  16  16
#     4  10  21  37  55  78 111 146 181 227 280 331
#     4   9  18  34  55  79 108 139 176 226 273 315
#     4  10  21  36  57  83 109 142 185 229 275 329
#     4  10  21  35  55  82 112 144 181 227 278 330
#     4   9  19  35  53  76 109 148 189 230 271 321
#
# _framework density 18.951422000000001
#
# number of rings (size 3 to 8) (size 9 to 14) (size 15 to 20)
#    0.000    2.333    0.000    2.667    1.556    4.889 
#    0.000    1.667    0.000    2.000    0.000    0.000 
#    0.000    0.000    0.000    0.000    0.000    0.000 
#
# Total GULP energy -446429.768751 kJ/mol
# GULP energy per Si atom -12400.826910 kJ/mol
# Density = 1.890829 g / cm^3
# Si number density = 18.951422 Si / 1000 Ang^3
#
#
#
# Elastic Constant Matrix: (Units=GPa)
#
#
# Indices 1 2 3 4 5 6 
#
# 1 54.7934 35.1182 32.8292 0.0000 0.0000 0.0000
# 2 35.1182 101.3338 53.6117 0.0000 0.0000 0.0000
# 3 32.8292 53.6117 93.8396 0.0000 0.0000 0.0000
# 4 0.0000 0.0000 0.0000 37.0135 0.0000 0.0000
# 5 0.0000 0.0000 0.0000 0.0000 24.9299 0.0000
# 6 0.0000 0.0000 0.0000 0.0000 0.0000 35.6741
#
#
#
# Elastic Compliance Matrix: (Units=1/GPa)
#
#
# Indices 1 2 3 4 5 6 
#
# 1 0.025303 -0.005855 -0.005507 0.000000 0.000000 0.000000
# 2 -0.005855 0.015498 -0.006806 0.000000 0.000000 0.000000
# 3 -0.005507 -0.006806 0.016471 0.000000 0.000000 0.000000
# 4 0.000000 0.000000 0.000000 0.027017 0.000000 0.000000
# 5 0.000000 0.000000 0.000000 0.000000 0.040112 0.000000
# 6 0.000000 0.000000 0.000000 0.000000 0.000000 0.028032
#
#
# Mechanical properties :
#
#
# Convention : Reuss Voigt Hill
#
# Bulk Modulus (GPa) = 47.76438 54.78723 51.27580
# Shear Modulus (GPa) = 25.54304 28.08402 26.81353
#
# Velocity S-wave (km/s) = 3.67524 3.85372 3.76554
# Velocity P-wave (km/s) = 6.57786 6.98381 6.78387
#
# Compressibility (1/GPa) = 0.02093611
#
# Stress axis : x y z
#
# Youngs Moduli (GPa) = 39.52177 64.52275 60.71189
#
# Poissons Ratio (x) = 0.37781 0.33432
# Poissons Ratio (y) = 0.23142 0.41320
# Poissons Ratio (z) = 0.21763 0.43914
#
# Static dielectric constant tensor:
#      x y z
#    x 3.384290 0.000000 0.000000 
#    y 0.000000 3.400600 0.000000 
#    z 0.000000 0.000000 3.543550 
# 
# 
# High freq. dielectric constant tensor:
#      x y z
#    x 1.723690 0.000000 0.000000 
#    y 0.000000 1.735520 0.000000 
#    z 0.000000 0.000000 1.743980 
# 
# From -- ./inp_files/47924.got.cif
#   From: 2010.06.25/outbox.cif.g09.slc.cpg/sg71_24_cif.got.tgz:47924.got - 2010.06.28 04:59:45.
