data_PCOD8291877
_publ_section_title
;
Structure prediction by ZEFSAII (Michael W. Deem and Ramdas Pophale) SiO2 
 PCOD8291877
Probable space group: I M M M
;
_chemical_formula_sum "Si O2"
_cell_formula_units_Z 72
_cell_length_a 28.237648
_cell_length_b 8.836343
_cell_length_c 13.940590
_cell_angle_alpha 90.000000
_cell_angle_beta 90.000000
_cell_angle_gamma 90.000000
_cell_volume 3478.421768
_symmetry_space_group_name_H-M "I M M M"
_symmetry_group_IT_number 71
_symmetry_cell_setting 'orthorhombic'
loop_
_space_group_symop_operation_xyz
x,y,z
-x,-y,z
x,-y,-z
-x,y,-z
-x,-y,-z
x,y,-z
-x,y,z
x,-y,z
1/2+x,1/2+y,1/2+z
1/2-x,1/2-y,1/2+z
1/2+x,1/2-y,1/2-z
1/2-x,1/2+y,1/2-z
1/2-x,1/2-y,1/2-z
1/2+x,1/2+y,1/2-z
1/2-x,1/2+y,1/2+z
1/2+x,1/2-y,1/2+z
loop_
_atom_site_type_symbol
_atom_site_label
_atom_site_fract_x
_atom_site_fract_y
_atom_site_fract_z
Si Si1 0.587997 0.823098 0.215252
Si Si2 0.872846 0.176356 0.890098
Si Si3 0.000000 0.179001 0.390374
Si Si4 0.278490 0.832317 0.613690
Si Si5 0.673756 0.324091 0.887964
O O1 0.589486 0.767242 0.325722
O O2 0.546464 0.739319 0.160579
O O3 0.637769 0.783500 0.166875
O O4 0.578188 0.000000 0.211900
O O5 0.819250 0.214822 0.855737
O O6 0.881241 0.000000 0.875348
O O7 0.880846 0.226129 0.000000
O O8 0.000000 0.235323 0.500000
O O9 0.000000 0.000000 0.384453
O O10 0.273761 0.839688 0.500000
O O11 0.226476 0.782866 0.651640
O O12 0.292080 0.000000 0.652099
O O13 0.662177 0.500000 0.867255
O O14 0.668938 0.289054 0.000000
#
# Coordination Sequence:
#
# PCOD8291877 Si02
#       5
#    16  16   8  16  16
#     4  12  25  39  60  89 119 152 192 240 292 348
#     4  10  21  38  60  85 116 156 200 244 289 341
#     4  11  25  47  72  93 118 151 185 230 288 345
#     4   8  15  30  53  81 115 155 197 242 291 340
#     4   9  18  34  56  83 118 159 200 242 290 346
#
# _framework density 20.699043
#
# number of rings (size 3 to 8) (size 9 to 14) (size 15 to 20)
#    0.000    2.111    0.000    5.000    0.000    7.111 
#    0.000    2.778    0.000    3.333    0.000    0.000 
#    0.000    0.000    0.000    0.000    0.000    0.000 
#
# Total GULP energy -446415.925414 kJ/mol
# GULP energy per Si atom -12400.442373 kJ/mol
# Density = 2.065193 g / cm^3
# Si number density = 20.699043 Si / 1000 Ang^3
#
#
#
# Elastic Constant Matrix: (Units=GPa)
#
#
# Indices 1 2 3 4 5 6 
#
# 1 101.3288 37.3960 62.3178 0.0000 0.0000 0.0000
# 2 37.3960 76.0803 36.9983 0.0000 0.0000 0.0000
# 3 62.3178 36.9983 97.0546 0.0000 0.0000 0.0000
# 4 0.0000 0.0000 0.0000 26.8368 0.0000 0.0000
# 5 0.0000 0.0000 0.0000 0.0000 29.2808 0.0000
# 6 0.0000 0.0000 0.0000 0.0000 0.0000 14.6651
#
#
#
# Elastic Compliance Matrix: (Units=1/GPa)
#
#
# Indices 1 2 3 4 5 6 
#
# 1 0.017149 -0.003774 -0.009572 0.000000 0.000000 0.000000
# 2 -0.003774 0.016966 -0.004044 0.000000 0.000000 0.000000
# 3 -0.009572 -0.004044 0.017991 0.000000 0.000000 0.000000
# 4 0.000000 0.000000 0.000000 0.037262 0.000000 0.000000
# 5 0.000000 0.000000 0.000000 0.000000 0.034152 0.000000
# 6 0.000000 0.000000 0.000000 0.000000 0.000000 0.068189
#
#
# Mechanical properties :
#
#
# Convention : Reuss Voigt Hill
#
# Bulk Modulus (GPa) = 57.72092 60.87641 59.29867
# Shear Modulus (GPa) = 21.52708 23.34000 22.43354
#
# Velocity S-wave (km/s) = 3.22841 3.36160 3.29568
# Velocity P-wave (km/s) = 6.46863 6.67392 6.57208
#
# Compressibility (1/GPa) = 0.01732474
#
# Stress axis : x y z
#
# Youngs Moduli (GPa) = 58.31339 58.94191 55.58190
#
# Poissons Ratio (x) = 0.22245 0.53205
# Poissons Ratio (y) = 0.22008 0.22479
# Poissons Ratio (z) = 0.55819 0.23838
#
# Static dielectric constant tensor:
#      x y z
#    x 3.805730 0.000000 0.000000 
#    y 0.000000 3.643480 0.000000 
#    z 0.000000 0.000000 3.887760 
# 
# 
# High freq. dielectric constant tensor:
#      x y z
#    x 1.798300 0.000000 0.000000 
#    y 0.000000 1.805250 0.000000 
#    z 0.000000 0.000000 1.818600 
# 
# From -- ./inp_files/6030.got.cif
#   From: 2010.06.25/outbox.cif.g09.slc.cpg/sg71_4_cif.got.tgz:6030.got - 2010.06.28 04:59:45.
