data_PCOD8291113
_publ_section_title
;
Structure prediction by ZEFSAII (Michael W. Deem and Ramdas Pophale) SiO2 
 PCOD8291113
Probable space group: I M M M
;
_chemical_formula_sum "Si O2"
_cell_formula_units_Z 88
_cell_length_a 9.028039
_cell_length_b 18.685484
_cell_length_c 28.322595
_cell_angle_alpha 90.000000
_cell_angle_beta 90.000000
_cell_angle_gamma 90.000000
_cell_volume 4777.831400
_symmetry_space_group_name_H-M "I M M M"
_symmetry_group_IT_number 71
_symmetry_cell_setting 'orthorhombic'
loop_
_space_group_symop_operation_xyz
x,y,z
-x,-y,z
x,-y,-z
-x,y,-z
-x,-y,-z
x,y,-z
-x,y,z
x,-y,z
1/2+x,1/2+y,1/2+z
1/2-x,1/2-y,1/2+z
1/2+x,1/2-y,1/2-z
1/2-x,1/2+y,1/2-z
1/2-x,1/2-y,1/2-z
1/2+x,1/2+y,1/2-z
1/2-x,1/2+y,1/2+z
1/2+x,1/2-y,1/2+z
loop_
_atom_site_type_symbol
_atom_site_label
_atom_site_fract_x
_atom_site_fract_y
_atom_site_fract_z
Si Si1 0.170455 0.884238 0.000000
Si Si2 0.674587 0.148384 0.780831
Si Si3 0.174859 0.347213 0.084103
Si Si4 0.830542 0.000000 0.077935
Si Si5 0.324837 0.000000 0.552503
Si Si6 0.824909 0.236126 0.500000
Si Si7 0.173320 0.716534 0.183549
Si Si8 0.324472 0.000000 0.822925
O O1 0.282852 0.819012 0.000000
O O2 0.202656 0.930093 0.046807
O O3 0.000000 0.857808 0.000000
O O4 0.500000 0.152429 0.787545
O O5 0.745606 0.207322 0.815103
O O6 0.721329 0.165333 0.726924
O O7 0.735266 0.070172 0.795404
O O8 0.228170 0.429360 0.079921
O O9 0.221586 0.322839 0.136026
O O10 0.000000 0.339169 0.074969
O O11 0.259311 0.299576 0.046494
O O12 0.727076 0.000000 0.123261
O O13 0.000000 0.000000 0.094896
O O14 0.500000 0.000000 0.548642
O O15 0.255481 0.000000 0.500000
O O16 0.000000 0.227547 0.500000
O O17 0.000000 0.732188 0.185050
O O18 0.500000 0.000000 0.822910
#
# Coordination Sequence:
#
# PCOD8291113 Si02
#       8
#     8  16  16   8   8   8  16   8
#     4   9  20  40  59  77 107 144 184 231 272 314
#     4   9  19  36  54  77 112 144 176 219 268 321
#     4  10  20  36  58  81 106 139 184 229 270 318
#     4   9  20  38  59  81 106 142 186 229 272 315
#     4   9  16  31  55  78 102 133 172 222 270 310
#     4  12  25  36  52  82 114 146 179 218 274 336
#     4   9  19  35  57  81 104 140 183 224 267 313
#     4  10  21  34  53  81 116 150 176 216 275 328
#
# _framework density 18.418396999999999
#
# number of rings (size 3 to 8) (size 9 to 14) (size 15 to 20)
#    0.000    2.455    0.909    1.364    2.545    2.909 
#    0.000    5.455    0.000    0.000    0.000    3.818 
#    0.000    0.000    0.000    0.000    0.000    0.000 
#
# Total GULP energy -545627.783680 kJ/mol
# GULP energy per Si atom -12400.631447 kJ/mol
# Density = 1.837648 g / cm^3
# Si number density = 18.418397 Si / 1000 Ang^3
#
#
#
# Elastic Constant Matrix: (Units=GPa)
#
#
# Indices 1 2 3 4 5 6 
#
# 1 36.1770 39.9623 37.7203 0.0000 0.0000 0.0000
# 2 39.9623 174.9518 89.2004 0.0000 0.0000 0.0000
# 3 37.7203 89.2004 138.5379 0.0000 0.0000 0.0000
# 4 0.0000 0.0000 0.0000 26.6874 0.0000 0.0000
# 5 0.0000 0.0000 0.0000 0.0000 24.7539 0.0000
# 6 0.0000 0.0000 0.0000 0.0000 0.0000 22.1996
#
#
#
# Elastic Compliance Matrix: (Units=1/GPa)
#
#
# Indices 1 2 3 4 5 6 
#
# 1 0.041989 -0.005601 -0.007826 0.000000 0.000000 0.000000
# 2 -0.005601 0.009256 -0.004435 0.000000 0.000000 0.000000
# 3 -0.007826 -0.004435 0.012205 0.000000 0.000000 0.000000
# 4 0.000000 0.000000 0.000000 0.037471 0.000000 0.000000
# 5 0.000000 0.000000 0.000000 0.000000 0.040398 0.000000
# 6 0.000000 0.000000 0.000000 0.000000 0.000000 0.045046
#
#
# Mechanical properties :
#
#
# Convention : Reuss Voigt Hill
#
# Bulk Modulus (GPa) = 36.06749 75.93696 56.00223
# Shear Modulus (GPa) = 21.61415 26.91378 24.26396
#
# Velocity S-wave (km/s) = 3.42937 3.82677 3.63351
# Velocity P-wave (km/s) = 5.94185 7.80025 6.93360
#
# Compressibility (1/GPa) = 0.02772580
#
# Stress axis : x y z
#
# Youngs Moduli (GPa) = 23.81592 108.03359 81.93574
#
# Poissons Ratio (x) = 0.60507 0.64125
# Poissons Ratio (y) = 0.13339 0.36338
# Poissons Ratio (z) = 0.18639 0.47913
#
# Static dielectric constant tensor:
#      x y z
#    x 3.160250 0.000000 0.000000 
#    y 0.000000 3.682320 0.000000 
#    z 0.000000 0.000000 3.489090 
# 
# 
# High freq. dielectric constant tensor:
#      x y z
#    x 1.690870 0.000000 0.000000 
#    y 0.000000 1.726230 0.000000 
#    z 0.000000 0.000000 1.720100 
# 
# From -- ./inp_files/68100.got.cif
#   From: 2010.06.25/outbox.cif.g09.slc.cpg/sg71_35_cif.got.tgz:68100.got - 2010.06.28 04:59:45.
