data_PCOD8291303
_publ_section_title
;
Structure prediction by ZEFSAII (Michael W. Deem and Ramdas Pophale) SiO2 
 PCOD8291303
Probable space group: I M M M
;
_chemical_formula_sum "Si O2"
_cell_formula_units_Z 90
_cell_length_a 18.128770
_cell_length_b 21.214374
_cell_length_c 11.977020
_cell_angle_alpha 90.000000
_cell_angle_beta 90.000000
_cell_angle_gamma 90.000000
_cell_volume 4606.248193
_symmetry_space_group_name_H-M "I M M M"
_symmetry_group_IT_number 71
_symmetry_cell_setting 'orthorhombic'
loop_
_space_group_symop_operation_xyz
x,y,z
-x,-y,z
x,-y,-z
-x,y,-z
-x,-y,-z
x,y,-z
-x,y,z
x,-y,z
1/2+x,1/2+y,1/2+z
1/2-x,1/2-y,1/2+z
1/2+x,1/2-y,1/2-z
1/2-x,1/2+y,1/2-z
1/2-x,1/2-y,1/2-z
1/2+x,1/2+y,1/2-z
1/2-x,1/2+y,1/2+z
1/2+x,1/2-y,1/2+z
loop_
_atom_site_type_symbol
_atom_site_label
_atom_site_fract_x
_atom_site_fract_y
_atom_site_fract_z
Si Si1 0.500000 0.261533 0.307286
Si Si2 0.338910 0.752741 0.624862
Si Si3 0.744216 0.351436 0.746677
Si Si4 0.634098 0.430237 0.124002
Si Si5 0.000000 0.000000 0.000000
Si Si6 0.000000 0.656369 0.368124
Si Si7 0.500000 0.410432 0.285742
Si Si8 0.136475 0.570993 0.631838
O O1 0.427279 0.241875 0.374951
O O2 0.500000 0.225142 0.188443
O O3 0.500000 0.335605 0.291959
O O4 0.310090 0.764236 0.500000
O O5 0.312464 0.683781 0.664218
O O6 0.305332 0.804409 0.706467
O O7 0.698312 0.381023 0.847654
O O8 0.785339 0.406303 0.679335
O O9 0.669114 0.500000 0.122620
O O10 0.571168 0.430602 0.216476
O O11 0.603504 0.413038 0.000000
O O12 0.000000 0.055858 0.906276
O O13 0.929108 0.616609 0.328424
O O14 0.000000 0.668131 0.500000
O O15 0.142488 0.571999 0.500000
O O16 0.120444 0.500000 0.674261
#
# Coordination Sequence:
#
# PCOD8291303 Si02
#       8
#     8  16  16  16   2   8   8  16
#     4  12  23  43  63  90 120 166 215 249 317 381
#     4  11  24  40  61  87 123 165 206 268 317 380
#     4  11  22  40  60  91 126 157 212 257 323 386
#     4  11  23  42  65  89 123 164 208 256 308 375
#     4  12  28  48  70  96 140 164 214 280 316 372
#     4  10  21  39  63  93 129 163 213 268 315 379
#     4  12  25  44  65  97 125 168 214 261 317 374
#     4  10  20  37  62  93 127 168 209 266 332 389
#
# _framework density 19.538677
#
# number of rings (size 3 to 8) (size 9 to 14) (size 15 to 20)
#    0.000    1.067    4.444    2.400    1.244    2.489 
#    1.600    0.000    0.000    0.000    0.000    1.244 
#    0.000    0.000    0.000    0.000    0.000    0.000 
#
# Total GULP energy -557502.040960 kJ/mol
# GULP energy per Si atom -12388.934244 kJ/mol
# Density = 1.949421 g / cm^3
# Si number density = 19.538677 Si / 1000 Ang^3
#
#
#
# Elastic Constant Matrix: (Units=GPa)
#
#
# Indices 1 2 3 4 5 6 
#
# 1 104.7610 33.9607 39.4007 0.0000 0.0000 0.0000
# 2 33.9607 125.3755 41.9872 0.0000 0.0000 0.0000
# 3 39.4007 41.9872 88.3019 0.0000 0.0000 0.0000
# 4 0.0000 0.0000 0.0000 33.8530 0.0000 0.0000
# 5 0.0000 0.0000 0.0000 0.0000 12.3450 0.0000
# 6 0.0000 0.0000 0.0000 0.0000 0.0000 27.8907
#
#
#
# Elastic Compliance Matrix: (Units=1/GPa)
#
#
# Indices 1 2 3 4 5 6 
#
# 1 0.011767 -0.001700 -0.004442 0.000000 0.000000 0.000000
# 2 -0.001700 0.009732 -0.003869 0.000000 0.000000 0.000000
# 3 -0.004442 -0.003869 0.015147 0.000000 0.000000 0.000000
# 4 0.000000 0.000000 0.000000 0.029539 0.000000 0.000000
# 5 0.000000 0.000000 0.000000 0.000000 0.081005 0.000000
# 6 0.000000 0.000000 0.000000 0.000000 0.000000 0.035854
#
#
# Mechanical properties :
#
#
# Convention : Reuss Voigt Hill
#
# Bulk Modulus (GPa) = 60.15523 61.01506 60.58514
# Shear Modulus (GPa) = 23.96834 28.35707 26.16270
#
# Velocity S-wave (km/s) = 3.50625 3.81377 3.66323
# Velocity P-wave (km/s) = 6.87359 7.11960 6.99768
#
# Compressibility (1/GPa) = 0.01662366
#
# Stress axis : x y z
#
# Youngs Moduli (GPa) = 84.98103 102.75161 66.02055
#
# Poissons Ratio (x) = 0.17465 0.29329
# Poissons Ratio (y) = 0.14444 0.25545
# Poissons Ratio (z) = 0.37752 0.39757
#
# Static dielectric constant tensor:
#      x y z
#    x 3.631970 0.000000 0.000000 
#    y 0.000000 3.764810 0.000000 
#    z 0.000000 0.000000 3.476700 
# 
# 
# High freq. dielectric constant tensor:
#      x y z
#    x 1.759920 0.000000 0.000000 
#    y 0.000000 1.776090 0.000000 
#    z 0.000000 0.000000 1.758420 
# 
# From -- ./inp_files/24031.got.cif
#   From: 2010.06.25/outbox.cif.g09.slc.cpg/sg71_13_cif.got.tgz:24031.got - 2010.06.28 04:59:45.
