data_PCOD8291809
_publ_section_title
;
Structure prediction by ZEFSAII (Michael W. Deem and Ramdas Pophale) SiO2 
 PCOD8291809
Probable space group: I M M M
;
_chemical_formula_sum "Si O2"
_cell_formula_units_Z 72
_cell_length_a 9.374067
_cell_length_b 13.669397
_cell_length_c 27.423744
_cell_angle_alpha 90.000000
_cell_angle_beta 90.000000
_cell_angle_gamma 90.000000
_cell_volume 3514.019412
_symmetry_space_group_name_H-M "I M M M"
_symmetry_group_IT_number 71
_symmetry_cell_setting 'orthorhombic'
loop_
_space_group_symop_operation_xyz
x,y,z
-x,-y,z
x,-y,-z
-x,y,-z
-x,-y,-z
x,y,-z
-x,y,z
x,-y,z
1/2+x,1/2+y,1/2+z
1/2-x,1/2-y,1/2+z
1/2+x,1/2-y,1/2-z
1/2-x,1/2+y,1/2-z
1/2-x,1/2-y,1/2-z
1/2+x,1/2+y,1/2-z
1/2-x,1/2+y,1/2+z
1/2+x,1/2-y,1/2+z
loop_
_atom_site_type_symbol
_atom_site_label
_atom_site_fract_x
_atom_site_fract_y
_atom_site_fract_z
Si Si1 0.829553 0.746556 0.699067
Si Si2 0.163529 0.614812 0.130032
Si Si3 0.846492 0.786582 0.445543
Si Si4 0.500000 0.614010 0.445272
Si Si5 0.220212 0.385677 0.386403
O O1 0.750000 0.750000 0.750000
O O2 0.769396 0.838573 0.669468
O O3 0.787247 0.645890 0.670577
O O4 0.000000 0.754597 0.706030
O O5 0.171270 0.500000 0.136714
O O6 0.223317 0.645729 0.077246
O O7 0.000000 0.651290 0.135833
O O8 0.796666 0.760408 0.500000
O O9 0.882833 0.685622 0.416394
O O10 0.000000 0.842196 0.445646
O O11 0.500000 0.500000 0.453970
O O12 0.500000 0.662561 0.500000
O O13 0.631083 0.644095 0.411413
O O14 0.180327 0.500000 0.391291
#
# Coordination Sequence:
#
# PCOD8291809 Si02
#       5
#    16  16  16   8  16
#     4  11  25  42  64  92 122 162 208 260 322 378
#     4  10  22  41  64  88 116 155 204 258 313 370
#     4  10  22  37  56  87 124 163 204 249 307 369
#     4   9  18  32  54  88 125 163 205 245 295 358
#     4  10  21  37  59  88 125 163 204 252 301 368
#
# _framework density 20.489357999999999
#
# number of rings (size 3 to 8) (size 9 to 14) (size 15 to 20)
#    0.000    1.889    0.000    4.000    7.778    6.667 
#    0.000    3.333    0.000    0.000    0.000    0.000 
#    0.000    0.000    0.000    0.000    0.000    0.000 
#
# Total GULP energy -445983.899045 kJ/mol
# GULP energy per Si atom -12388.441640 kJ/mol
# Density = 2.044272 g / cm^3
# Si number density = 20.489358 Si / 1000 Ang^3
#
#
#
# Elastic Constant Matrix: (Units=GPa)
#
#
# Indices 1 2 3 4 5 6 
#
# 1 163.6014 38.9684 63.7785 0.0000 0.0000 0.0000
# 2 38.9684 80.6928 21.9642 0.0000 0.0000 0.0000
# 3 63.7785 21.9642 154.6471 0.0000 0.0000 0.0000
# 4 0.0000 0.0000 0.0000 16.7978 0.0000 0.0000
# 5 0.0000 0.0000 0.0000 0.0000 37.9389 0.0000
# 6 0.0000 0.0000 0.0000 0.0000 0.0000 24.6109
#
#
#
# Elastic Compliance Matrix: (Units=1/GPa)
#
#
# Indices 1 2 3 4 5 6 
#
# 1 0.007951 -0.003066 -0.002844 0.000000 0.000000 0.000000
# 2 -0.003066 0.014073 -0.000734 0.000000 0.000000 0.000000
# 3 -0.002844 -0.000734 0.007743 0.000000 0.000000 0.000000
# 4 0.000000 0.000000 0.000000 0.059532 0.000000 0.000000
# 5 0.000000 0.000000 0.000000 0.000000 0.026358 0.000000
# 6 0.000000 0.000000 0.000000 0.000000 0.000000 0.040632
#
#
# Mechanical properties :
#
#
# Convention : Reuss Voigt Hill
#
# Bulk Modulus (GPa) = 60.67998 72.04039 66.36019
# Shear Modulus (GPa) = 28.55978 34.15153 31.35565
#
# Velocity S-wave (km/s) = 3.73753 4.08707 3.91620
# Velocity P-wave (km/s) = 6.95019 7.58343 7.27370
#
# Compressibility (1/GPa) = 0.01647990
#
# Stress axis : x y z
#
# Youngs Moduli (GPa) = 125.76576 71.05743 129.14133
#
# Poissons Ratio (x) = 0.21785 0.36725
# Poissons Ratio (y) = 0.38557 0.09484
# Poissons Ratio (z) = 0.35765 0.05218
#
# Static dielectric constant tensor:
#      x y z
#    x 4.067450 0.000000 0.000000 
#    y 0.000000 3.555830 0.000000 
#    z 0.000000 0.000000 3.950660 
# 
# 
# High freq. dielectric constant tensor:
#      x y z
#    x 1.823980 0.000000 0.000000 
#    y 0.000000 1.784550 0.000000 
#    z 0.000000 0.000000 1.801980 
# 
# From -- ./inp_files/62866.got.cif
#   From: 2010.06.25/outbox.cif.g09.slc.cpg/sg71_32_cif.got.tgz:62866.got - 2010.06.28 04:59:45.
