data_PCOD8291643
_publ_section_title
;
Structure prediction by ZEFSAII (Michael W. Deem and Ramdas Pophale) SiO2 
 PCOD8291643
Probable space group: I M M M
;
_chemical_formula_sum "Si O2"
_cell_formula_units_Z 112
_cell_length_a 24.092050
_cell_length_b 13.589130
_cell_length_c 16.059026
_cell_angle_alpha 90.000000
_cell_angle_beta 90.000000
_cell_angle_gamma 90.000000
_cell_volume 5257.564513
_symmetry_space_group_name_H-M "I M M M"
_symmetry_group_IT_number 71
_symmetry_cell_setting 'orthorhombic'
loop_
_space_group_symop_operation_xyz
x,y,z
-x,-y,z
x,-y,-z
-x,y,-z
-x,-y,-z
x,y,-z
-x,y,z
x,-y,z
1/2+x,1/2+y,1/2+z
1/2-x,1/2-y,1/2+z
1/2+x,1/2-y,1/2-z
1/2-x,1/2+y,1/2-z
1/2-x,1/2-y,1/2-z
1/2+x,1/2+y,1/2-z
1/2-x,1/2+y,1/2+z
1/2+x,1/2-y,1/2+z
loop_
_atom_site_type_symbol
_atom_site_label
_atom_site_fract_x
_atom_site_fract_y
_atom_site_fract_z
Si Si1 0.626227 0.615948 0.092479
Si Si2 0.340810 0.890029 0.629342
Si Si3 0.059925 0.384455 0.596343
Si Si4 0.934605 0.888491 0.244232
Si Si5 0.829299 0.389992 0.676094
Si Si6 0.063939 0.250194 0.093756
Si Si7 0.233791 0.230108 0.407880
O O1 0.621822 0.500000 0.091560
O O2 0.588588 0.656746 0.168670
O O3 0.689789 0.644129 0.111164
O O4 0.607060 0.655439 0.000000
O O5 0.336968 0.895867 0.727111
O O6 0.400567 0.849850 0.601311
O O7 0.294727 0.814730 0.597238
O O8 0.333147 0.000000 0.591736
O O9 0.063553 0.359747 0.500000
O O10 0.061740 0.500000 0.613738
O O11 0.114615 0.338192 0.639179
O O12 0.000000 0.344434 0.631142
O O13 0.914480 0.827167 0.163316
O O14 0.000000 0.886083 0.251119
O O15 0.912943 0.000000 0.231317
O O16 0.819726 0.500000 0.639547
O O17 0.776371 0.322086 0.654081
O O18 0.000000 0.278296 0.110557
O O19 0.070703 0.205904 0.000000
O O20 0.225159 0.273177 0.500000
#
# Coordination Sequence:
#
# PCOD8291643 Si02
#       7
#    16  16  16  16  16  16  16
#     4   9  18  33  55  84 116 152 194 236 279 331
#     4  11  24  41  61  83 109 145 189 238 292 349
#     4   8  14  27  49  77 111 150 186 219 262 324
#     4   9  18  34  58  87 119 155 191 231 283 341
#     4  10  21  36  56  84 117 152 189 233 287 345
#     4  10  22  40  61  85 113 146 189 244 299 348
#     4  11  22  37  58  81 110 148 187 230 280 338
#
# _framework density 21.302638999999999
#
# number of rings (size 3 to 8) (size 9 to 14) (size 15 to 20)
#    0.000    2.286    0.000    3.000    0.000    4.000 
#    0.000    7.857    0.000    2.571    0.000    0.000 
#    0.000    0.000    0.000    0.000    0.000    0.143 
#
# Total GULP energy -694097.954016 kJ/mol
# GULP energy per Si atom -12394.606322 kJ/mol
# Density = 2.125415 g / cm^3
# Si number density = 21.302639 Si / 1000 Ang^3
#
#
#
# Elastic Constant Matrix: (Units=GPa)
#
#
# Indices 1 2 3 4 5 6 
#
# 1 82.6942 50.0715 30.8622 0.0000 0.0000 0.0000
# 2 50.0715 81.0568 39.7794 0.0000 0.0000 0.0000
# 3 30.8622 39.7794 120.8710 0.0000 0.0000 0.0000
# 4 0.0000 0.0000 0.0000 37.1373 0.0000 0.0000
# 5 0.0000 0.0000 0.0000 0.0000 19.4976 0.0000
# 6 0.0000 0.0000 0.0000 0.0000 0.0000 34.5640
#
#
#
# Elastic Compliance Matrix: (Units=1/GPa)
#
#
# Indices 1 2 3 4 5 6 
#
# 1 0.019465 -0.011432 -0.001208 0.000000 0.000000 0.000000
# 2 -0.011432 0.021427 -0.004133 0.000000 0.000000 0.000000
# 3 -0.001208 -0.004133 0.009942 0.000000 0.000000 0.000000
# 4 0.000000 0.000000 0.000000 0.026927 0.000000 0.000000
# 5 0.000000 0.000000 0.000000 0.000000 0.051288 0.000000
# 6 0.000000 0.000000 0.000000 0.000000 0.000000 0.028932
#
#
# Mechanical properties :
#
#
# Convention : Reuss Voigt Hill
#
# Bulk Modulus (GPa) = 57.83903 58.44982 58.14443
# Shear Modulus (GPa) = 25.34343 29.16704 27.25524
#
# Velocity S-wave (km/s) = 3.45292 3.70425 3.58079
# Velocity P-wave (km/s) = 6.56559 6.76703 6.66707
#
# Compressibility (1/GPa) = 0.01728936
#
# Stress axis : x y z
#
# Youngs Moduli (GPa) = 51.37306 46.67001 100.58478
#
# Poissons Ratio (x) = 0.53352 0.12150
# Poissons Ratio (y) = 0.58728 0.41571
# Poissons Ratio (z) = 0.06205 0.19288
#
# Static dielectric constant tensor:
#      x y z
#    x 3.825530 0.000000 0.000000 
#    y 0.000000 3.895870 0.000000 
#    z 0.000000 0.000000 4.080230 
# 
# 
# High freq. dielectric constant tensor:
#      x y z
#    x 1.826790 0.000000 0.000000 
#    y 0.000000 1.829800 0.000000 
#    z 0.000000 0.000000 1.842550 
# 
# From -- ./inp_files/39265.got.cif
#   From: 2010.06.25/outbox.cif.g09.slc.cpg/sg71_20_cif.got.tgz:39265.got - 2010.06.28 04:59:45.
