data_PCOD8291016
_publ_section_title
;
Structure prediction by ZEFSAII (Michael W. Deem and Ramdas Pophale) SiO2 
 PCOD8291016
Probable space group: I M M M
;
_chemical_formula_sum "Si O2"
_cell_formula_units_Z 96
_cell_length_a 21.938654
_cell_length_b 20.724068
_cell_length_c 11.900493
_cell_angle_alpha 90.000000
_cell_angle_beta 90.000000
_cell_angle_gamma 90.000000
_cell_volume 5410.656219
_symmetry_space_group_name_H-M "I M M M"
_symmetry_group_IT_number 71
_symmetry_cell_setting 'orthorhombic'
loop_
_space_group_symop_operation_xyz
x,y,z
-x,-y,z
x,-y,-z
-x,y,-z
-x,-y,-z
x,y,-z
-x,y,z
x,-y,z
1/2+x,1/2+y,1/2+z
1/2-x,1/2-y,1/2+z
1/2+x,1/2-y,1/2-z
1/2-x,1/2+y,1/2-z
1/2-x,1/2-y,1/2-z
1/2+x,1/2+y,1/2-z
1/2-x,1/2+y,1/2+z
1/2+x,1/2-y,1/2+z
loop_
_atom_site_type_symbol
_atom_site_label
_atom_site_fract_x
_atom_site_fract_y
_atom_site_fract_z
Si Si1 0.818949 0.781214 0.626907
Si Si2 0.617232 0.112078 0.725939
Si Si3 0.684586 0.421853 0.500000
Si Si4 0.755656 0.651377 0.691483
Si Si5 0.928192 0.172257 0.000000
Si Si6 0.565576 0.928034 0.500000
Si Si7 0.431871 0.000000 0.867965
Si Si8 0.430794 0.252379 0.270817
O O1 0.820040 0.807427 0.500000
O O2 0.779302 0.715411 0.627906
O O3 0.790963 0.833488 0.709482
O O4 0.888299 0.774131 0.668347
O O5 0.688291 0.120367 0.744290
O O6 0.608770 0.081760 0.605318
O O7 0.576669 0.176035 0.722324
O O8 0.597560 0.065615 0.825891
O O9 0.678554 0.500000 0.500000
O O10 0.722943 0.398507 0.392131
O O11 0.616527 0.390159 0.500000
O O12 0.912446 0.215211 0.890212
O O13 0.000000 0.151259 0.000000
O O14 0.500000 0.888520 0.500000
O O15 0.543361 0.000000 0.500000
O O16 0.500000 0.000000 0.822317
O O17 0.426433 0.000000 0.000000
O O18 0.500000 0.270420 0.240095
#
# Coordination Sequence:
#
# PCOD8291016 Si02
#       8
#    16  16   8  16   8   8   8  16
#     4  10  20  37  60  83 117 153 189 242 291 344
#     4  11  23  35  55  81 113 158 197 243 290 343
#     4  12  24  40  67  91 122 158 197 245 301 372
#     4  10  23  37  57  87 118 151 196 236 294 354
#     4  10  21  41  63  92 122 145 190 257 323 362
#     4  11  21  35  54  74 105 148 198 243 278 326
#     4  11  24  39  53  73 115 164 203 242 285 337
#     4  10  20  35  59  86 115 148 192 247 298 354
#
# _framework density 17.742766
#
# number of rings (size 3 to 8) (size 9 to 14) (size 15 to 20)
#    0.000    1.500    3.333    2.000    3.500    1.833 
#    0.000    0.000    0.000    0.000    0.000    0.000 
#    0.000    2.667    0.000    0.000    0.000    0.000 
#
# Total GULP energy -594952.334577 kJ/mol
# GULP energy per Si atom -12394.840304 kJ/mol
# Density = 1.770238 g / cm^3
# Si number density = 17.742766 Si / 1000 Ang^3
#
#
#
# Elastic Constant Matrix: (Units=GPa)
#
#
# Indices 1 2 3 4 5 6 
#
# 1 83.6957 38.1373 38.2179 0.0000 0.0000 0.0000
# 2 38.1373 94.1530 33.2528 0.0000 0.0000 0.0000
# 3 38.2179 33.2528 100.7699 0.0000 0.0000 0.0000
# 4 0.0000 0.0000 0.0000 42.9834 0.0000 0.0000
# 5 0.0000 0.0000 0.0000 0.0000 22.0154 0.0000
# 6 0.0000 0.0000 0.0000 0.0000 0.0000 13.2103
#
#
#
# Elastic Compliance Matrix: (Units=1/GPa)
#
#
# Indices 1 2 3 4 5 6 
#
# 1 0.016295 -0.005001 -0.004530 0.000000 0.000000 0.000000
# 2 -0.005001 0.013557 -0.002577 0.000000 0.000000 0.000000
# 3 -0.004530 -0.002577 0.012492 0.000000 0.000000 0.000000
# 4 0.000000 0.000000 0.000000 0.023265 0.000000 0.000000
# 5 0.000000 0.000000 0.000000 0.000000 0.045423 0.000000
# 6 0.000000 0.000000 0.000000 0.000000 0.000000 0.075698
#
#
# Mechanical properties :
#
#
# Convention : Reuss Voigt Hill
#
# Bulk Modulus (GPa) = 55.16104 55.31494 55.23799
# Shear Modulus (GPa) = 23.04280 26.90921 24.97600
#
# Velocity S-wave (km/s) = 3.60768 3.89862 3.75597
# Velocity P-wave (km/s) = 6.96496 7.17700 7.07177
#
# Compressibility (1/GPa) = 0.01812874
#
# Stress axis : x y z
#
# Youngs Moduli (GPa) = 61.36795 73.76438 80.05118
#
# Poissons Ratio (x) = 0.36886 0.36263
# Poissons Ratio (y) = 0.30688 0.20629
# Poissons Ratio (z) = 0.27799 0.19009
#
# Static dielectric constant tensor:
#      x y z
#    x 6.065810 0.000000 0.000000 
#    y 0.000000 3.169630 0.000000 
#    z 0.000000 0.000000 3.304040 
# 
# 
# High freq. dielectric constant tensor:
#      x y z
#    x 1.699940 0.000000 0.000000 
#    y 0.000000 1.662660 0.000000 
#    z 0.000000 0.000000 1.694980 
# 
# From -- ./inp_files/26053.got.cif
#   From: 2010.06.25/outbox.cif.g09.slc.cpg/sg71_14_cif.got.tgz:26053.got - 2010.06.28 04:59:45.
