data_PCOD8291022
_publ_section_title
;
Structure prediction by ZEFSAII (Michael W. Deem and Ramdas Pophale) SiO2 
 PCOD8291022
Probable space group: I M M M
;
_chemical_formula_sum "Si O2"
_cell_formula_units_Z 104
_cell_length_a 18.028878
_cell_length_b 32.134079
_cell_length_c 9.024893
_cell_angle_alpha 90.000000
_cell_angle_beta 90.000000
_cell_angle_gamma 90.000000
_cell_volume 5228.494055
_symmetry_space_group_name_H-M "I M M M"
_symmetry_group_IT_number 71
_symmetry_cell_setting 'orthorhombic'
loop_
_space_group_symop_operation_xyz
x,y,z
-x,-y,z
x,-y,-z
-x,y,-z
-x,-y,-z
x,y,-z
-x,y,z
x,-y,z
1/2+x,1/2+y,1/2+z
1/2-x,1/2-y,1/2+z
1/2+x,1/2-y,1/2-z
1/2-x,1/2+y,1/2-z
1/2-x,1/2-y,1/2-z
1/2+x,1/2+y,1/2-z
1/2-x,1/2+y,1/2+z
1/2+x,1/2-y,1/2+z
loop_
_atom_site_type_symbol
_atom_site_label
_atom_site_fract_x
_atom_site_fract_y
_atom_site_fract_z
Si Si1 0.658791 0.787893 0.329370
Si Si2 0.412732 0.000000 0.165870
Si Si3 0.415860 0.144393 0.828032
Si Si4 0.168655 0.952402 0.325163
Si Si5 0.666936 0.926917 0.324857
Si Si6 0.415450 0.619750 0.673799
Si Si7 0.690716 0.694494 0.328570
O O1 0.650375 0.800625 0.500000
O O2 0.593478 0.808677 0.232483
O O3 0.649850 0.738604 0.307611
O O4 0.737082 0.805902 0.273062
O O5 0.388137 0.959538 0.252765
O O6 0.500000 0.000000 0.156851
O O7 0.378941 0.000000 0.000000
O O8 0.500000 0.129388 0.801030
O O9 0.356764 0.117800 0.735401
O O10 0.395362 0.141838 0.000000
O O11 0.159738 0.949270 0.500000
O O12 0.249574 0.936771 0.274939
O O13 0.107460 0.923245 0.251074
O O14 0.157331 0.000000 0.271864
O O15 0.658093 0.929061 0.500000
O O16 0.407136 0.613081 0.500000
O O17 0.500000 0.630048 0.717944
O O18 0.364377 0.658211 0.726794
O O19 0.713920 0.688282 0.500000
#
# Coordination Sequence:
#
# PCOD8291022 Si02
#       7
#    16   8  16  16  16  16  16
#     4  10  20  35  59  88 115 150 197 242 284 340
#     4  11  23  37  55  83 118 153 188 231 289 350
#     4  11  24  39  54  79 118 158 194 238 292 345
#     4  10  22  41  61  84 114 146 186 235 289 347
#     4  11  22  39  61  84 111 148 196 245 286 339
#     4  10  22  39  59  86 117 149 189 236 286 344
#     4   9  19  37  60  85 117 154 189 234 291 344
#
# _framework density 19.891003999999999
#
# number of rings (size 3 to 8) (size 9 to 14) (size 15 to 20)
#    0.000    1.769    0.769    3.000    0.000   10.154 
#    0.000    3.077    0.000    0.000    0.000    0.000 
#    0.000    0.000    0.000    0.000    0.000    0.000 
#
# Total GULP energy -644964.558594 kJ/mol
# GULP energy per Si atom -12403.164588 kJ/mol
# Density = 1.984573 g / cm^3
# Si number density = 19.891004 Si / 1000 Ang^3
#
#
#
# Elastic Constant Matrix: (Units=GPa)
#
#
# Indices 1 2 3 4 5 6 
#
# 1 80.5703 49.8583 33.9305 0.0099 0.0099 0.0070
# 2 49.8583 118.9245 35.6214 0.0197 0.0038 0.0117
# 3 33.9305 35.6214 71.1053 0.0064 0.0013 -0.0126
# 4 0.0099 0.0197 0.0064 28.7255 0.0038 0.0005
# 5 0.0099 0.0038 0.0013 0.0038 32.5654 0.0058
# 6 0.0070 0.0117 -0.0126 0.0005 0.0058 33.6623
#
#
#
# Elastic Compliance Matrix: (Units=1/GPa)
#
#
# Indices 1 2 3 4 5 6 
#
# 1 0.018623 -0.006054 -0.005854 -0.000001 -0.000005 -0.000004
# 2 -0.006054 0.011861 -0.003053 -0.000005 0.000001 -0.000004
# 3 -0.005854 -0.003053 0.018387 0.000000 0.000001 0.000009
# 4 -0.000001 -0.000005 0.000000 0.034812 -0.000004 -0.000001
# 5 -0.000005 0.000001 0.000001 -0.000004 0.030707 -0.000005
# 6 -0.000004 -0.000004 0.000009 -0.000001 -0.000005 0.029707
#
#
# Mechanical properties :
#
#
# Convention : Reuss Voigt Hill
#
# Bulk Modulus (GPa) = 52.77389 56.60227 54.68808
# Shear Modulus (GPa) = 27.72597 29.06996 28.39797
#
# Velocity S-wave (km/s) = 3.73754 3.82706 3.78256
# Velocity P-wave (km/s) = 6.72419 6.93156 6.82866
#
# Compressibility (1/GPa) = 0.01894876
#
# Stress axis : x y z
#
# Youngs Moduli (GPa) = 53.69648 84.30683 54.38770
#
# Poissons Ratio (x) = 0.51042 0.31837
# Poissons Ratio (y) = 0.32509 0.16605
# Poissons Ratio (z) = 0.31432 0.25740
#
# Static dielectric constant tensor:
#      x y z
#    x 3.546970 -0.000020 0.000000 
#    y -0.000020 3.785420 -0.000080 
#    z 0.000000 -0.000080 3.622250 
# 
# 
# High freq. dielectric constant tensor:
#      x y z
#    x 1.769380 0.000000 0.000000 
#    y 0.000000 1.789440 0.000000 
#    z 0.000000 0.000000 1.777510 
# 
# From -- ./inp_files/11559.got.cif
#   From: 2010.06.25/outbox.cif.g09.slc.cpg/sg71_6_cif.got.tgz:11559.got - 2010.06.28 04:59:45.
