data_PCOD8291613
_publ_section_title
;
Structure prediction by ZEFSAII (Michael W. Deem and Ramdas Pophale) SiO2 
 PCOD8291613
Probable space group: I M M M
;
_chemical_formula_sum "Si O2"
_cell_formula_units_Z 104
_cell_length_a 21.971081
_cell_length_b 8.847022
_cell_length_c 27.059018
_cell_angle_alpha 90.000000
_cell_angle_beta 90.000000
_cell_angle_gamma 90.000000
_cell_volume 5259.695037
_symmetry_space_group_name_H-M "I M M M"
_symmetry_group_IT_number 71
_symmetry_cell_setting 'orthorhombic'
loop_
_space_group_symop_operation_xyz
x,y,z
-x,-y,z
x,-y,-z
-x,y,-z
-x,-y,-z
x,y,-z
-x,y,z
x,-y,z
1/2+x,1/2+y,1/2+z
1/2-x,1/2-y,1/2+z
1/2+x,1/2-y,1/2-z
1/2-x,1/2+y,1/2-z
1/2-x,1/2-y,1/2-z
1/2+x,1/2+y,1/2-z
1/2-x,1/2+y,1/2+z
1/2+x,1/2-y,1/2+z
loop_
_atom_site_type_symbol
_atom_site_label
_atom_site_fract_x
_atom_site_fract_y
_atom_site_fract_z
Si Si1 0.569130 0.328464 0.371191
Si Si2 0.668916 0.323503 0.444966
Si Si3 0.628161 0.168165 0.058580
Si Si4 0.000000 0.322124 0.446571
Si Si5 0.929303 0.678188 0.230911
Si Si6 0.808565 0.820869 0.277023
Si Si7 0.727022 0.327212 0.113123
O O1 0.500000 0.312289 0.386889
O O2 0.585302 0.500000 0.354703
O O3 0.604053 0.282643 0.421201
O O4 0.585041 0.218588 0.325855
O O5 0.675182 0.248923 0.500000
O O6 0.678620 0.500000 0.451399
O O7 0.715676 0.268107 0.403875
O O8 0.562547 0.217795 0.082124
O O9 0.674654 0.296654 0.073538
O O10 0.647747 0.000000 0.077370
O O11 0.622006 0.163798 0.000000
O O12 0.000000 0.500000 0.455574
O O13 0.000000 0.239633 0.500000
O O14 0.923381 0.500000 0.238348
O O15 0.875480 0.756221 0.262715
O O16 0.000000 0.729475 0.244245
O O17 0.750000 0.750000 0.250000
O O18 0.797970 0.777467 0.333873
O O19 0.809067 0.000000 0.267731
O O20 0.746601 0.500000 0.112316
#
# Coordination Sequence:
#
# PCOD8291613 Si02
#       7
#    16  16  16   8  16  16  16
#     4   9  18  34  58  86 115 149 186 226 279 338
#     4  10  21  36  55  81 113 150 191 232 274 327
#     4   9  17  32  55  79 104 137 177 218 260 312
#     4   7  12  26  49  75  99 127 167 211 251 293
#     4  10  21  38  61  89 119 151 191 239 290 349
#     4  11  24  41  61  84 112 148 191 240 292 347
#     4  11  24  38  52  77 109 142 180 226 281 331
#
# _framework density 19.773008000000001
#
# number of rings (size 3 to 8) (size 9 to 14) (size 15 to 20)
#    0.000    2.231    0.000    3.692    0.000    9.231 
#    1.385    1.923    0.000    1.385    0.000    3.231 
#    0.000    0.000    0.000    0.000    0.000    0.000 
#
# Total GULP energy -644228.424083 kJ/mol
# GULP energy per Si atom -12389.008155 kJ/mol
# Density = 1.972800 g / cm^3
# Si number density = 19.773008 Si / 1000 Ang^3
#
#
#
# Elastic Constant Matrix: (Units=GPa)
#
#
# Indices 1 2 3 4 5 6 
#
# 1 142.4553 48.7282 63.5437 0.0000 0.0000 0.0000
# 2 48.7282 47.5831 45.5083 0.0000 0.0000 0.0000
# 3 63.5437 45.5083 93.6463 0.0000 0.0000 0.0000
# 4 0.0000 0.0000 0.0000 25.8079 0.0000 0.0000
# 5 0.0000 0.0000 0.0000 0.0000 27.7301 0.0000
# 6 0.0000 0.0000 0.0000 0.0000 0.0000 6.2697
#
#
#
# Elastic Compliance Matrix: (Units=1/GPa)
#
#
# Indices 1 2 3 4 5 6 
#
# 1 0.011517 -0.008071 -0.003892 0.000000 0.000000 0.000000
# 2 -0.008071 0.044922 -0.016353 0.000000 0.000000 0.000000
# 3 -0.003892 -0.016353 0.021267 0.000000 0.000000 0.000000
# 4 0.000000 0.000000 0.000000 0.038748 0.000000 0.000000
# 5 0.000000 0.000000 0.000000 0.000000 0.036062 0.000000
# 6 0.000000 0.000000 0.000000 0.000000 0.000000 0.159496
#
#
# Mechanical properties :
#
#
# Convention : Reuss Voigt Hill
#
# Bulk Modulus (GPa) = 47.45831 66.58278 57.02054
# Shear Modulus (GPa) = 13.30960 20.35520 16.83240
#
# Velocity S-wave (km/s) = 2.59727 3.21198 2.92084
# Velocity P-wave (km/s) = 5.74875 6.89220 6.34628
#
# Compressibility (1/GPa) = 0.02107113
#
# Stress axis : x y z
#
# Youngs Moduli (GPa) = 86.82902 22.26105 47.02179
#
# Poissons Ratio (x) = 0.17968 0.18303
# Poissons Ratio (y) = 0.70082 0.76896
# Poissons Ratio (z) = 0.33798 0.36404
#
# Static dielectric constant tensor:
#      x y z
#    x 4.268060 0.000000 0.000000 
#    y 0.000000 3.516090 0.000000 
#    z 0.000000 0.000000 3.777960 
# 
# 
# High freq. dielectric constant tensor:
#      x y z
#    x 1.793490 0.000000 0.000000 
#    y 0.000000 1.753530 0.000000 
#    z 0.000000 0.000000 1.756310 
# 
# From -- ./inp_files/66427.got.cif
#   From: 2010.06.25/outbox.cif.g09.slc.cpg/sg71_34_cif.got.tgz:66427.got - 2010.06.28 04:59:45.
