data_PCOD8291114
_publ_section_title
;
Structure prediction by ZEFSAII (Michael W. Deem and Ramdas Pophale) SiO2 
 PCOD8291114
Probable space group: I M M M
;
_chemical_formula_sum "Si O2"
_cell_formula_units_Z 88
_cell_length_a 30.805989
_cell_length_b 8.612222
_cell_length_c 18.000435
_cell_angle_alpha 90.000000
_cell_angle_beta 90.000000
_cell_angle_gamma 90.000000
_cell_volume 4775.659701
_symmetry_space_group_name_H-M "I M M M"
_symmetry_group_IT_number 71
_symmetry_cell_setting 'orthorhombic'
loop_
_space_group_symop_operation_xyz
x,y,z
-x,-y,z
x,-y,-z
-x,y,-z
-x,-y,-z
x,y,-z
-x,y,z
x,-y,z
1/2+x,1/2+y,1/2+z
1/2-x,1/2-y,1/2+z
1/2+x,1/2-y,1/2-z
1/2-x,1/2+y,1/2-z
1/2-x,1/2-y,1/2-z
1/2+x,1/2+y,1/2-z
1/2-x,1/2+y,1/2+z
1/2+x,1/2-y,1/2+z
loop_
_atom_site_type_symbol
_atom_site_label
_atom_site_fract_x
_atom_site_fract_y
_atom_site_fract_z
Si Si1 0.380358 0.319892 0.303105
Si Si2 0.329323 0.823138 0.919750
Si Si3 0.584948 0.177585 0.841355
Si Si4 0.950899 0.682700 0.914154
Si Si5 0.202896 0.685142 0.735830
Si Si6 0.000000 0.684885 0.581512
O O1 0.372469 0.500000 0.316888
O O2 0.403959 0.290192 0.225785
O O3 0.411618 0.259054 0.368402
O O4 0.332381 0.240584 0.297479
O O5 0.380936 0.814499 0.908515
O O6 0.307792 0.746762 0.846681
O O7 0.313568 0.000000 0.924373
O O8 0.317820 0.742795 0.000000
O O9 0.540924 0.245096 0.873452
O O10 0.581479 0.000000 0.811499
O O11 0.947488 0.500000 0.902604
O O12 0.000000 0.736688 0.889558
O O13 0.943857 0.727986 0.000000
O O14 0.201897 0.500000 0.736287
O O15 0.250000 0.750000 0.750000
O O16 0.000000 0.500000 0.575652
O O17 0.000000 0.759621 0.500000
#
# Coordination Sequence:
#
# PCOD8291114 Si02
#       6
#    16  16  16  16  16   8
#     4  11  22  35  53  78 109 144 180 218 263 324
#     4   8  14  27  49  74  98 127 168 216 261 304
#     4   9  17  29  47  72 101 136 175 218 260 302
#     4   9  19  37  60  83 108 141 182 231 285 335
#     4  10  20  36  58  81 107 139 176 224 279 332
#     4   9  16  26  45  73 100 131 176 223 259 294
#
# _framework density 18.426772
#
# number of rings (size 3 to 8) (size 9 to 14) (size 15 to 20)
#    0.000    2.636    0.000    4.364    1.273    2.909 
#    0.000    1.818    0.000   22.364    0.000    0.000 
#    0.000    0.000    0.000    0.000    0.000    0.000 
#
# Total GULP energy -545095.174708 kJ/mol
# GULP energy per Si atom -12388.526698 kJ/mol
# Density = 1.838483 g / cm^3
# Si number density = 18.426772 Si / 1000 Ang^3
#
#
#
# Elastic Constant Matrix: (Units=GPa)
#
#
# Indices 1 2 3 4 5 6 
#
# 1 166.6354 39.2764 67.4896 0.0000 0.0000 0.0000
# 2 39.2764 61.9116 32.2899 0.0000 0.0000 0.0000
# 3 67.4896 32.2899 101.9988 0.0000 0.0000 0.0000
# 4 0.0000 0.0000 0.0000 8.9933 0.0000 0.0000
# 5 0.0000 0.0000 0.0000 0.0000 17.2764 0.0000
# 6 0.0000 0.0000 0.0000 0.0000 0.0000 26.9794
#
#
#
# Elastic Compliance Matrix: (Units=1/GPa)
#
#
# Indices 1 2 3 4 5 6 
#
# 1 0.008638 -0.002993 -0.004768 0.000000 0.000000 0.000000
# 2 -0.002993 0.020383 -0.004472 0.000000 0.000000 0.000000
# 3 -0.004768 -0.004472 0.014375 0.000000 0.000000 0.000000
# 4 0.000000 0.000000 0.000000 0.111194 0.000000 0.000000
# 5 0.000000 0.000000 0.000000 0.000000 0.057883 0.000000
# 6 0.000000 0.000000 0.000000 0.000000 0.000000 0.037065
#
#
# Mechanical properties :
#
#
# Convention : Reuss Voigt Hill
#
# Bulk Modulus (GPa) = 52.82843 67.62860 60.22852
# Shear Modulus (GPa) = 17.83719 23.41580 20.62649
#
# Velocity S-wave (km/s) = 3.11465 3.56862 3.34934
# Velocity P-wave (km/s) = 6.45495 7.33219 6.90751
#
# Compressibility (1/GPa) = 0.01892920
#
# Stress axis : x y z
#
# Youngs Moduli (GPa) = 115.77309 49.05949 69.56742
#
# Poissons Ratio (x) = 0.14684 0.33168
# Poissons Ratio (y) = 0.34651 0.31113
# Poissons Ratio (z) = 0.55197 0.21941
#
# Static dielectric constant tensor:
#      x y z
#    x 3.803440 0.000000 0.000000 
#    y 0.000000 3.056420 0.000000 
#    z 0.000000 0.000000 3.584430 
# 
# 
# High freq. dielectric constant tensor:
#      x y z
#    x 1.716100 0.000000 0.000000 
#    y 0.000000 1.681060 0.000000 
#    z 0.000000 0.000000 1.714510 
# 
# From -- ./inp_files/16707.got.cif
#   From: 2010.06.25/outbox.cif.g09.slc.cpg/sg71_9_cif.got.tgz:16707.got - 2010.06.28 04:59:45.
