data_PCOD8291680
_publ_section_title
;
Structure prediction by ZEFSAII (Michael W. Deem and Ramdas Pophale) SiO2 
 PCOD8291680
Probable space group: I M M M
;
_chemical_formula_sum "Si O2"
_cell_formula_units_Z 104
_cell_length_a 12.156786
_cell_length_b 17.304964
_cell_length_c 25.196144
_cell_angle_alpha 90.000000
_cell_angle_beta 90.000000
_cell_angle_gamma 90.000000
_cell_volume 5300.581954
_symmetry_space_group_name_H-M "I M M M"
_symmetry_group_IT_number 71
_symmetry_cell_setting 'orthorhombic'
loop_
_space_group_symop_operation_xyz
x,y,z
-x,-y,z
x,-y,-z
-x,y,-z
-x,-y,-z
x,y,-z
-x,y,z
x,-y,z
1/2+x,1/2+y,1/2+z
1/2-x,1/2-y,1/2+z
1/2+x,1/2-y,1/2-z
1/2-x,1/2+y,1/2-z
1/2-x,1/2-y,1/2-z
1/2+x,1/2+y,1/2-z
1/2-x,1/2+y,1/2+z
1/2+x,1/2-y,1/2+z
loop_
_atom_site_type_symbol
_atom_site_label
_atom_site_fract_x
_atom_site_fract_y
_atom_site_fract_z
Si Si1 0.880534 0.500000 0.562525
Si Si2 0.500000 0.412496 0.924045
Si Si3 0.125053 0.336681 0.156940
Si Si4 0.378326 0.342330 0.337895
Si Si5 0.742886 0.352946 0.439429
Si Si6 0.275158 0.591097 0.242298
Si Si7 0.000000 0.086209 0.299962
Si Si8 0.278453 0.321553 0.058656
O O1 0.892468 0.500000 0.500000
O O2 0.821789 0.578658 0.580289
O O3 0.000000 0.500000 0.589883
O O4 0.500000 0.500000 0.947426
O O5 0.500000 0.416368 0.862047
O O6 0.607481 0.367223 0.942944
O O7 0.127286 0.248023 0.172768
O O8 0.171866 0.379119 0.208978
O O9 0.196736 0.354682 0.103970
O O10 0.000000 0.365097 0.146495
O O11 0.500000 0.374761 0.322621
O O12 0.361953 0.357296 0.400628
O O13 0.280297 0.382661 0.303931
O O14 0.703112 0.365576 0.500000
O O15 0.802494 0.269821 0.432052
O O16 0.271774 0.500000 0.237844
O O17 0.388143 0.628208 0.218498
O O18 0.000000 0.000000 0.275808
O O19 0.223469 0.331765 0.000000
#
# Coordination Sequence:
#
# PCOD8291680 Si02
#       8
#     8   8  16  16  16  16   8  16
#     4   9  18  34  55  75 107 155 198 234 278 333
#     4  11  21  36  59  89 120 149 190 245 295 336
#     4  10  22  40  59  83 116 154 191 231 285 344
#     4  10  21  37  60  86 114 149 190 236 285 344
#     4   9  20  37  56  84 118 154 193 235 284 344
#     4  11  21  37  60  84 112 146 192 238 287 341
#     4   9  18  33  56  83 106 146 187 229 284 341
#     4  10  21  36  58  87 119 153 193 238 287 344
#
# _framework density 19.620487000000001
#
# number of rings (size 3 to 8) (size 9 to 14) (size 15 to 20)
#    0.000    2.077    2.308    0.692    2.154    1.538 
#    0.000    3.846    0.000    1.385    0.000    2.154 
#    0.000    0.000    0.000    0.000    0.000    0.000 
#
# Total GULP energy -644435.304578 kJ/mol
# GULP energy per Si atom -12392.986626 kJ/mol
# Density = 1.957583 g / cm^3
# Si number density = 19.620487 Si / 1000 Ang^3
#
#
#
# Elastic Constant Matrix: (Units=GPa)
#
#
# Indices 1 2 3 4 5 6 
#
# 1 119.8950 50.2104 55.1234 0.0000 0.0000 0.0000
# 2 50.2104 85.9956 40.6507 0.0000 0.0000 0.0000
# 3 55.1234 40.6507 115.6797 0.0000 0.0000 0.0000
# 4 0.0000 0.0000 0.0000 21.9355 0.0000 0.0000
# 5 0.0000 0.0000 0.0000 0.0000 77.9508 0.0000
# 6 0.0000 0.0000 0.0000 0.0000 0.0000 6.9925
#
#
#
# Elastic Compliance Matrix: (Units=1/GPa)
#
#
# Indices 1 2 3 4 5 6 
#
# 1 0.012443 -0.005351 -0.004049 0.000000 0.000000 0.000000
# 2 -0.005351 0.016246 -0.003159 0.000000 0.000000 0.000000
# 3 -0.004049 -0.003159 0.011684 0.000000 0.000000 0.000000
# 4 0.000000 0.000000 0.000000 0.045588 0.000000 0.000000
# 5 0.000000 0.000000 0.000000 0.000000 0.012829 0.000000
# 6 0.000000 0.000000 0.000000 0.000000 0.000000 0.143011
#
#
# Mechanical properties :
#
#
# Convention : Reuss Voigt Hill
#
# Bulk Modulus (GPa) = 65.55238 68.17103 66.86171
# Shear Modulus (GPa) = 18.38201 33.08148 25.73174
#
# Velocity S-wave (km/s) = 3.06417 4.11063 3.62536
# Velocity P-wave (km/s) = 6.78244 7.57298 7.18858
#
# Compressibility (1/GPa) = 0.01525498
#
# Stress axis : x y z
#
# Youngs Moduli (GPa) = 80.36496 61.55250 85.58656
#
# Poissons Ratio (x) = 0.32939 0.34653
# Poissons Ratio (y) = 0.43006 0.27038
# Poissons Ratio (z) = 0.32539 0.19445
#
# Static dielectric constant tensor:
#      x y z
#    x 3.629110 0.000000 0.000000 
#    y 0.000000 3.666670 0.000000 
#    z 0.000000 0.000000 3.675010 
# 
# 
# High freq. dielectric constant tensor:
#      x y z
#    x 1.746600 0.000000 0.000000 
#    y 0.000000 1.757940 0.000000 
#    z 0.000000 0.000000 1.775080 
# 
# From -- ./inp_files/64675.got.cif
#   From: 2010.06.25/outbox.cif.g09.slc.cpg/sg71_33_cif.got.tgz:64675.got - 2010.06.28 04:59:45.
