data_PCOD8291584
_publ_section_title
;
Structure prediction by ZEFSAII (Michael W. Deem and Ramdas Pophale) SiO2 
 PCOD8291584
Probable space group: I M M M
;
_chemical_formula_sum "Si O2"
_cell_formula_units_Z 96
_cell_length_a 8.824667
_cell_length_b 23.555746
_cell_length_c 25.014579
_cell_angle_alpha 90.000000
_cell_angle_beta 90.000000
_cell_angle_gamma 90.000000
_cell_volume 5199.820920
_symmetry_space_group_name_H-M "I M M M"
_symmetry_group_IT_number 71
_symmetry_cell_setting 'orthorhombic'
loop_
_space_group_symop_operation_xyz
x,y,z
-x,-y,z
x,-y,-z
-x,y,-z
-x,-y,-z
x,y,-z
-x,y,z
x,-y,z
1/2+x,1/2+y,1/2+z
1/2-x,1/2-y,1/2+z
1/2+x,1/2-y,1/2-z
1/2-x,1/2+y,1/2-z
1/2-x,1/2-y,1/2-z
1/2+x,1/2+y,1/2-z
1/2-x,1/2+y,1/2+z
1/2+x,1/2-y,1/2+z
loop_
_atom_site_type_symbol
_atom_site_label
_atom_site_fract_x
_atom_site_fract_y
_atom_site_fract_z
Si Si1 0.320917 0.881403 0.346555
Si Si2 0.824506 0.798893 0.938918
Si Si3 0.679073 0.000000 0.301477
Si Si4 0.820896 0.188669 0.746497
Si Si5 0.175875 0.181220 0.561844
Si Si6 0.679428 0.000000 0.180804
Si Si7 0.822109 0.115141 0.847644
O O1 0.500000 0.875145 0.339309
O O2 0.236235 0.838385 0.307936
O O3 0.271430 0.866074 0.406532
O O4 0.264143 0.944910 0.333495
O O5 0.727805 0.744291 0.921804
O O6 0.777295 0.851049 0.901290
O O7 0.000000 0.782920 0.930490
O O8 0.790842 0.816791 0.000000
O O9 0.500000 0.000000 0.297517
O O10 0.745807 0.000000 0.241332
O O11 0.750000 0.250000 0.750000
O O12 0.765869 0.150739 0.796399
O O13 0.000000 0.194466 0.745991
O O14 0.210482 0.170033 0.500000
O O15 0.000000 0.174881 0.575687
O O16 0.737080 0.055350 0.149836
O O17 0.500000 0.000000 0.180858
O O18 0.000000 0.103466 0.844594
#
# Coordination Sequence:
#
# PCOD8291584 Si02
#       7
#    16  16   8  16  16   8  16
#     4  11  21  37  58  80 109 144 186 231 276 331
#     4   9  18  35  59  84 111 147 188 229 276 329
#     4   9  20  37  56  79 106 142 187 231 276 325
#     4  11  22  34  52  81 114 145 179 225 281 336
#     4  10  21  37  57  84 116 147 182 226 277 332
#     4  11  21  37  58  79 106 146 189 229 275 328
#     4  10  21  36  54  80 111 143 183 228 275 330
#
# _framework density 18.462174000000001
#
# number of rings (size 3 to 8) (size 9 to 14) (size 15 to 20)
#    0.000    1.833    1.667    2.750    0.000    3.667 
#    0.000    2.500    0.000    5.000    0.000    0.000 
#    0.000    0.000    0.000    0.000    0.000    0.000 
#
# Total GULP energy -595411.190587 kJ/mol
# GULP energy per Si atom -12404.399804 kJ/mol
# Density = 1.842015 g / cm^3
# Si number density = 18.462174 Si / 1000 Ang^3
#
#
#
# Elastic Constant Matrix: (Units=GPa)
#
#
# Indices 1 2 3 4 5 6 
#
# 1 48.9997 35.0662 23.7067 0.0000 0.0000 0.0000
# 2 35.0662 135.9639 53.4932 0.0000 0.0000 0.0000
# 3 23.7067 53.4932 92.0126 0.0000 0.0000 0.0000
# 4 0.0000 0.0000 0.0000 31.1275 0.0000 0.0000
# 5 0.0000 0.0000 0.0000 0.0000 25.3712 0.0000
# 6 0.0000 0.0000 0.0000 0.0000 0.0000 30.5412
#
#
#
# Elastic Compliance Matrix: (Units=1/GPa)
#
#
# Indices 1 2 3 4 5 6 
#
# 1 0.025926 -0.005262 -0.003620 0.000000 0.000000 0.000000
# 2 -0.005262 0.010604 -0.004809 0.000000 0.000000 0.000000
# 3 -0.003620 -0.004809 0.014597 0.000000 0.000000 0.000000
# 4 0.000000 0.000000 0.000000 0.032126 0.000000 0.000000
# 5 0.000000 0.000000 0.000000 0.000000 0.039415 0.000000
# 6 0.000000 0.000000 0.000000 0.000000 0.000000 0.032743
#
#
# Mechanical properties :
#
#
# Convention : Reuss Voigt Hill
#
# Bulk Modulus (GPa) = 42.11728 55.72316 48.92022
# Shear Modulus (GPa) = 26.21815 28.38865 27.30340
#
# Velocity S-wave (km/s) = 3.77251 3.92556 3.84980
# Velocity P-wave (km/s) = 6.46823 7.12703 6.80561
#
# Compressibility (1/GPa) = 0.02374322
#
# Stress axis : x y z
#
# Youngs Moduli (GPa) = 38.57188 94.30314 68.50827
#
# Poissons Ratio (x) = 0.49622 0.24803
# Poissons Ratio (y) = 0.20296 0.32947
# Poissons Ratio (z) = 0.13965 0.45352
#
# Static dielectric constant tensor:
#      x y z
#    x 3.336210 0.000000 0.000000 
#    y 0.000000 3.419750 0.000000 
#    z 0.000000 0.000000 3.465910 
# 
# 
# High freq. dielectric constant tensor:
#      x y z
#    x 1.714370 0.000000 0.000000 
#    y 0.000000 1.716930 0.000000 
#    z 0.000000 0.000000 1.718270 
# 
# From -- ./inp_files/57756.got.cif
#   From: 2010.06.25/outbox.cif.g09.slc.cpg/sg71_29_cif.got.tgz:57756.got - 2010.06.28 04:59:45.
