data_PCOD8291688
_publ_section_title
;
Structure prediction by ZEFSAII (Michael W. Deem and Ramdas Pophale) SiO2 
 PCOD8291688
Probable space group: I M M M
;
_chemical_formula_sum "Si O2"
_cell_formula_units_Z 104
_cell_length_a 28.270461
_cell_length_b 17.903265
_cell_length_c 10.992397
_cell_angle_alpha 90.000000
_cell_angle_beta 90.000000
_cell_angle_gamma 90.000000
_cell_volume 5563.620971
_symmetry_space_group_name_H-M "I M M M"
_symmetry_group_IT_number 71
_symmetry_cell_setting 'orthorhombic'
loop_
_space_group_symop_operation_xyz
x,y,z
-x,-y,z
x,-y,-z
-x,y,-z
-x,-y,-z
x,y,-z
-x,y,z
x,-y,z
1/2+x,1/2+y,1/2+z
1/2-x,1/2-y,1/2+z
1/2+x,1/2-y,1/2-z
1/2-x,1/2+y,1/2-z
1/2-x,1/2-y,1/2-z
1/2+x,1/2+y,1/2-z
1/2-x,1/2+y,1/2+z
1/2+x,1/2-y,1/2+z
loop_
_atom_site_type_symbol
_atom_site_label
_atom_site_fract_x
_atom_site_fract_y
_atom_site_fract_z
Si Si1 0.944639 0.281187 0.857875
Si Si2 0.347476 0.411560 0.500000
Si Si3 0.604694 0.360224 0.255728
Si Si4 0.303873 0.305524 0.140627
Si Si5 0.881576 0.417361 0.143010
Si Si6 0.555814 0.500000 0.862339
Si Si7 0.210578 0.648767 0.747786
Si Si8 0.757668 0.587071 0.500000
O O1 0.926946 0.213424 0.773786
O O2 0.919289 0.356580 0.809070
O O3 0.000000 0.292032 0.837452
O O4 0.932859 0.265912 0.000000
O O5 0.346474 0.500000 0.500000
O O6 0.374231 0.382162 0.616077
O O7 0.294689 0.376406 0.500000
O O8 0.646861 0.348263 0.159179
O O9 0.572408 0.426190 0.206493
O O10 0.260022 0.358317 0.179281
O O11 0.304097 0.234689 0.230238
O O12 0.298186 0.281868 0.000000
O O13 0.892361 0.500000 0.198431
O O14 0.828609 0.393256 0.174784
O O15 0.885874 0.422007 0.000000
O O16 0.500000 0.500000 0.860497
O O17 0.575313 0.500000 0.000000
O O18 0.213207 0.610761 0.617136
O O19 0.750918 0.500000 0.500000
#
# Coordination Sequence:
#
# PCOD8291688 Si02
#       8
#    16   8  16  16  16   8  16   8
#     4  10  21  36  59  90 118 148 193 246 300 356
#     4  11  22  38  58  88 121 153 194 244 300 357
#     4  12  21  40  63  87 119 157 196 247 300 357
#     4  11  23  36  58  87 118 154 197 238 286 355
#     4  10  21  38  59  85 121 160 196 241 298 354
#     4  11  26  45  63  85 119 162 207 253 302 355
#     4  11  21  37  57  84 120 154 196 238 288 344
#     4  11  22  36  56  84 119 158 195 236 292 340
#
# _framework density 18.692862000000002
#
# number of rings (size 3 to 8) (size 9 to 14) (size 15 to 20)
#    0.000    1.154    5.385    1.846    0.000    0.308 
#    1.385    1.923    0.000    0.000    0.000    0.000 
#    0.000    3.077    0.000    0.000    0.000    0.000 
#
# Total GULP energy -644951.932047 kJ/mol
# GULP energy per Si atom -12402.921770 kJ/mol
# Density = 1.865032 g / cm^3
# Si number density = 18.692862 Si / 1000 Ang^3
#
#
#
# Elastic Constant Matrix: (Units=GPa)
#
#
# Indices 1 2 3 4 5 6 
#
# 1 105.1939 54.6343 12.8560 0.0000 0.0000 0.0000
# 2 54.6343 130.6584 20.9178 0.0000 0.0000 0.0000
# 3 12.8560 20.9178 42.0627 0.0000 0.0000 0.0000
# 4 0.0000 0.0000 0.0000 70.8377 0.0000 0.0000
# 5 0.0000 0.0000 0.0000 0.0000 28.5076 0.0000
# 6 0.0000 0.0000 0.0000 0.0000 0.0000 -90.0873
#
#
#
# Elastic Compliance Matrix: (Units=1/GPa)
#
#
# Indices 1 2 3 4 5 6 
#
# 1 0.012208 -0.004897 -0.001296 0.000000 0.000000 0.000000
# 2 -0.004897 0.010280 -0.003616 0.000000 0.000000 0.000000
# 3 -0.001296 -0.003616 0.025968 0.000000 0.000000 0.000000
# 4 0.000000 0.000000 0.000000 0.014117 0.000000 0.000000
# 5 0.000000 0.000000 0.000000 0.000000 0.035078 0.000000
# 6 0.000000 0.000000 0.000000 0.000000 0.000000 -0.011100
#
#
# Mechanical properties :
#
#
# Convention : Reuss Voigt Hill
#
# Bulk Modulus (GPa) = 34.67523 50.52568 42.60046
# Shear Modulus (GPa) = 43.18476 14.48539 28.83507
#
# Velocity S-wave (km/s) = 4.81170 2.78675 3.93182
# Velocity P-wave (km/s) = 7.03279 6.11905 6.59177
#
# Compressibility (1/GPa) = 0.02883903
#
# Stress axis : x y z
#
# Youngs Moduli (GPa) = 81.91260 97.27470 38.50877
#
# Poissons Ratio (x) = 0.47639 0.04990
# Poissons Ratio (y) = 0.40115 0.13923
# Poissons Ratio (z) = 0.10615 0.35170
#
# Static dielectric constant tensor:
#      x y z
#    x 3.476100 0.000000 0.000000 
#    y 0.000000 3.496490 0.000000 
#    z 0.000000 0.000000 3.145380 
# 
# 
# High freq. dielectric constant tensor:
#      x y z
#    x 1.729790 0.000000 0.000000 
#    y 0.000000 1.733570 0.000000 
#    z 0.000000 0.000000 1.715270 
# 
# From -- ./inp_files/28934.got.cif
#   From: 2010.06.25/outbox.cif.g09.slc.cpg/sg71_15_cif.got.tgz:28934.got - 2010.06.28 04:59:45.
