data_PCOD8291879
_publ_section_title
;
Structure prediction by ZEFSAII (Michael W. Deem and Ramdas Pophale) SiO2 
 PCOD8291879
Probable space group: I M M M
;
_chemical_formula_sum "Si O2"
_cell_formula_units_Z 64
_cell_length_a 8.586764
_cell_length_b 25.853281
_cell_length_c 14.737313
_cell_angle_alpha 90.000000
_cell_angle_beta 90.000000
_cell_angle_gamma 90.000000
_cell_volume 3271.624869
_symmetry_space_group_name_H-M "I M M M"
_symmetry_group_IT_number 71
_symmetry_cell_setting 'orthorhombic'
loop_
_space_group_symop_operation_xyz
x,y,z
-x,-y,z
x,-y,-z
-x,y,-z
-x,-y,-z
x,y,-z
-x,y,z
x,-y,z
1/2+x,1/2+y,1/2+z
1/2-x,1/2-y,1/2+z
1/2+x,1/2-y,1/2-z
1/2-x,1/2+y,1/2-z
1/2-x,1/2-y,1/2-z
1/2+x,1/2+y,1/2-z
1/2-x,1/2+y,1/2+z
1/2+x,1/2-y,1/2+z
loop_
_atom_site_type_symbol
_atom_site_label
_atom_site_fract_x
_atom_site_fract_y
_atom_site_fract_z
Si Si1 0.316717 0.135439 0.138423
Si Si2 0.319358 0.711436 0.500000
Si Si3 0.815851 0.889846 0.671302
Si Si4 0.184597 0.000000 0.397892
Si Si5 0.684269 0.441874 0.500000
Si Si6 0.317751 0.832728 0.500000
O O1 0.500000 0.133970 0.128713
O O2 0.255417 0.187486 0.090752
O O3 0.268399 0.134959 0.242749
O O4 0.245652 0.085237 0.090433
O O5 0.500000 0.696987 0.500000
O O6 0.288893 0.771885 0.500000
O O7 0.759012 0.949010 0.655787
O O8 0.766874 0.855626 0.586756
O O9 0.000000 0.887371 0.685166
O O10 0.255244 0.000000 0.500000
O O11 0.000000 0.000000 0.405836
O O12 0.747640 0.500000 0.500000
O O13 0.500000 0.439971 0.500000
O O14 0.500000 0.846729 0.500000
#
# Coordination Sequence:
#
# PCOD8291879 Si02
#       6
#    16   8  16   8   8   8
#     4  11  23  39  60  89 123 154 196 252 304 350
#     4  10  22  43  66  86 116 158 202 247 302 365
#     4  11  22  39  63  89 121 162 204 242 293 361
#     4   9  18  36  60  87 116 155 202 242 281 345
#     4  10  21  38  60  85 116 159 204 242 291 361
#     4  11  24  41  62  91 121 152 199 256 306 353
#
# _framework density 19.562145000000001
#
# number of rings (size 3 to 8) (size 9 to 14) (size 15 to 20)
#    0.000    1.500    1.250    5.625    1.750    4.000 
#    0.000    2.500    0.000    0.000    0.000    0.000 
#    0.000    0.000    0.000    0.000    0.000    0.000 
#
# Total GULP energy -396921.368848 kJ/mol
# GULP energy per Si atom -12403.792776 kJ/mol
# Density = 1.951762 g / cm^3
# Si number density = 19.562145 Si / 1000 Ang^3
#
#
#
# Elastic Constant Matrix: (Units=GPa)
#
#
# Indices 1 2 3 4 5 6 
#
# 1 91.0699 35.1140 21.1424 -0.0005 0.0001 0.0001
# 2 35.1140 113.9975 38.1113 -0.0005 0.0000 0.0000
# 3 21.1424 38.1113 134.8795 -0.0037 0.0001 0.0005
# 4 -0.0005 -0.0005 -0.0037 32.5376 0.0002 0.0003
# 5 0.0001 0.0000 0.0001 0.0002 35.2357 -0.0003
# 6 0.0001 0.0000 0.0005 0.0003 -0.0003 23.5195
#
#
#
# Elastic Compliance Matrix: (Units=1/GPa)
#
#
# Indices 1 2 3 4 5 6 
#
# 1 0.012574 -0.003549 -0.000968 0.000000 0.000000 0.000000
# 2 -0.003549 0.010689 -0.002464 0.000000 0.000000 0.000000
# 3 -0.000968 -0.002464 0.008262 0.000001 0.000000 0.000000
# 4 0.000000 0.000000 0.000001 0.030734 0.000000 0.000000
# 5 0.000000 0.000000 0.000000 0.000000 0.028380 0.000000
# 6 0.000000 0.000000 0.000000 0.000000 0.000000 0.042518
#
#
# Mechanical properties :
#
#
# Convention : Reuss Voigt Hill
#
# Bulk Modulus (GPa) = 56.94046 58.74249 57.84148
# Shear Modulus (GPa) = 32.68535 34.63051 33.65793
#
# Velocity S-wave (km/s) = 4.09203 4.21204 4.15247
# Velocity P-wave (km/s) = 7.17614 7.33136 7.25417
#
# Compressibility (1/GPa) = 0.01756220
#
# Stress axis : x y z
#
# Youngs Moduli (GPa) = 79.53001 93.55268 121.03650
#
# Poissons Ratio (x) = 0.33206 0.11717
# Poissons Ratio (y) = 0.28229 0.29823
# Poissons Ratio (z) = 0.07699 0.23051
#
# Static dielectric constant tensor:
#      x y z
#    x 3.604030 0.000000 0.000000 
#    y 0.000000 3.765420 0.000000 
#    z 0.000000 0.000000 3.850070 
# 
# 
# High freq. dielectric constant tensor:
#      x y z
#    x 1.766670 0.000000 0.000000 
#    y 0.000000 1.768860 0.000000 
#    z 0.000000 0.000000 1.770630 
# 
# From -- ./inp_files/31251.got.cif
#   From: 2010.06.25/outbox.cif.g09.slc.cpg/sg71_16_cif.got.tgz:31251.got - 2010.06.28 04:59:45.
