data_PCOD8291235
_publ_section_title
;
Structure prediction by ZEFSAII (Michael W. Deem and Ramdas Pophale) SiO2 
 PCOD8291235
Probable space group: I M M M
;
_chemical_formula_sum "Si O2"
_cell_formula_units_Z 88
_cell_length_a 16.870794
_cell_length_b 23.028042
_cell_length_c 11.582044
_cell_angle_alpha 90.000000
_cell_angle_beta 90.000000
_cell_angle_gamma 90.000000
_cell_volume 4499.639762
_symmetry_space_group_name_H-M "I M M M"
_symmetry_group_IT_number 71
_symmetry_cell_setting 'orthorhombic'
loop_
_space_group_symop_operation_xyz
x,y,z
-x,-y,z
x,-y,-z
-x,y,-z
-x,-y,-z
x,y,-z
-x,y,z
x,-y,z
1/2+x,1/2+y,1/2+z
1/2-x,1/2-y,1/2+z
1/2+x,1/2-y,1/2-z
1/2-x,1/2+y,1/2-z
1/2-x,1/2-y,1/2-z
1/2+x,1/2+y,1/2-z
1/2-x,1/2+y,1/2+z
1/2+x,1/2-y,1/2+z
loop_
_atom_site_type_symbol
_atom_site_label
_atom_site_fract_x
_atom_site_fract_y
_atom_site_fract_z
Si Si1 0.909134 0.688693 0.000000
Si Si2 0.159398 0.435909 0.000000
Si Si3 0.156126 0.627865 0.364731
Si Si4 0.775655 0.065927 0.712926
Si Si5 0.000000 0.565208 0.637602
Si Si6 0.406586 0.233397 0.744165
Si Si7 0.591216 0.351893 0.867238
O O1 0.899868 0.618750 0.000000
O O2 0.873974 0.719438 0.114896
O O3 0.000000 0.704188 0.000000
O O4 0.214087 0.430409 0.110218
O O5 0.116810 0.500000 0.000000
O O6 0.158979 0.620901 0.500000
O O7 0.237831 0.601111 0.318834
O O8 0.145599 0.694763 0.330855
O O9 0.079334 0.594578 0.311979
O O10 0.858490 0.093259 0.673809
O O11 0.792455 0.000000 0.751192
O O12 0.000000 0.500000 0.683638
O O13 0.000000 0.568934 0.500000
O O14 0.500000 0.219057 0.758008
O O15 0.388826 0.299080 0.780989
O O16 0.500000 0.370180 0.855958
O O17 0.611032 0.334720 0.000000
#
# Coordination Sequence:
#
# PCOD8291235 Si02
#       7
#     8   8  16  16   8  16  16
#     4  10  20  37  58  85 124 166 200 231 283 359
#     4  10  20  37  57  82 118 158 196 241 293 342
#     4  11  21  35  58  88 122 162 201 239 289 342
#     4  11  23  40  60  85 121 155 193 248 303 355
#     4   9  18  32  52  79 115 159 202 235 267 324
#     4  10  20  37  60  88 122 156 197 247 294 351
#     4  10  22  41  66  91 113 146 196 254 312 363
#
# _framework density 19.557120999999999
#
# number of rings (size 3 to 8) (size 9 to 14) (size 15 to 20)
#    0.000    1.727    3.636    1.091    0.000    3.091 
#    1.636    0.909    0.000    0.000    0.000    1.273 
#    0.000    0.000    0.000    0.000    0.000    0.000 
#
# Total GULP energy -545567.164575 kJ/mol
# GULP energy per Si atom -12399.253740 kJ/mol
# Density = 1.951261 g / cm^3
# Si number density = 19.557121 Si / 1000 Ang^3
#
#
#
# Elastic Constant Matrix: (Units=GPa)
#
#
# Indices 1 2 3 4 5 6 
#
# 1 60.0784 36.0506 31.0344 0.0000 0.0000 0.0000
# 2 36.0506 88.9580 30.9539 0.0000 0.0000 0.0000
# 3 31.0344 30.9539 85.0097 0.0000 -0.0001 0.0000
# 4 0.0000 0.0000 0.0000 28.1314 0.0000 0.0000
# 5 0.0000 0.0000 -0.0001 0.0000 74.6111 0.0000
# 6 0.0000 0.0000 0.0000 0.0000 0.0000 36.4681
#
#
#
# Elastic Compliance Matrix: (Units=1/GPa)
#
#
# Indices 1 2 3 4 5 6 
#
# 1 0.024472 -0.007796 -0.006095 0.000000 0.000000 0.000000
# 2 -0.007796 0.015356 -0.002745 0.000000 0.000000 0.000000
# 3 -0.006095 -0.002745 0.014988 0.000000 0.000000 0.000000
# 4 0.000000 0.000000 0.000000 0.035548 0.000000 0.000000
# 5 0.000000 0.000000 0.000000 0.000000 0.013403 0.000000
# 6 0.000000 0.000000 0.000000 0.000000 0.000000 0.027421
#
#
# Mechanical properties :
#
#
# Convention : Reuss Voigt Hill
#
# Bulk Modulus (GPa) = 46.41997 47.79153 47.10575
# Shear Modulus (GPa) = 29.13049 36.90926 33.01987
#
# Velocity S-wave (km/s) = 3.86360 4.34897 4.11345
# Velocity P-wave (km/s) = 6.60987 7.05039 6.83368
#
# Compressibility (1/GPa) = 0.02154245
#
# Stress axis : x y z
#
# Youngs Moduli (GPa) = 40.86357 65.12107 66.71978
#
# Poissons Ratio (x) = 0.50771 0.40666
# Poissons Ratio (y) = 0.31859 0.18316
# Poissons Ratio (z) = 0.24906 0.17877
#
# Static dielectric constant tensor:
#      x y z
#    x 3.395670 0.000000 0.000000 
#    y 0.000000 3.589420 0.000000 
#    z 0.000000 0.000000 4.064950 
# 
# 
# High freq. dielectric constant tensor:
#      x y z
#    x 1.742130 0.000000 0.000000 
#    y 0.000000 1.761860 0.000000 
#    z 0.000000 0.000000 1.762890 
# 
# From -- ./inp_files/24005.got.cif
#   From: 2010.06.25/outbox.cif.g09.slc.cpg/sg71_13_cif.got.tgz:24005.got - 2010.06.28 04:59:45.
