data_PCOD8291836
_publ_section_title
;
Structure prediction by ZEFSAII (Michael W. Deem and Ramdas Pophale) SiO2 
 PCOD8291836
Probable space group: I M M M
;
_chemical_formula_sum "Si O2"
_cell_formula_units_Z 72
_cell_length_a 13.250323
_cell_length_b 26.576568
_cell_length_c 10.313368
_cell_angle_alpha 90.000000
_cell_angle_beta 90.000000
_cell_angle_gamma 90.000000
_cell_volume 3631.833051
_symmetry_space_group_name_H-M "I M M M"
_symmetry_group_IT_number 71
_symmetry_cell_setting 'orthorhombic'
loop_
_space_group_symop_operation_xyz
x,y,z
-x,-y,z
x,-y,-z
-x,y,-z
-x,-y,-z
x,y,-z
-x,y,z
x,-y,z
1/2+x,1/2+y,1/2+z
1/2-x,1/2-y,1/2+z
1/2+x,1/2-y,1/2-z
1/2-x,1/2+y,1/2-z
1/2-x,1/2-y,1/2-z
1/2+x,1/2+y,1/2-z
1/2-x,1/2+y,1/2+z
1/2+x,1/2-y,1/2+z
loop_
_atom_site_type_symbol
_atom_site_label
_atom_site_fract_x
_atom_site_fract_y
_atom_site_fract_z
Si Si1 0.380396 0.847022 0.000000
Si Si2 0.117440 0.834964 0.260377
Si Si3 0.119027 0.220788 0.000000
Si Si4 0.118764 0.234128 0.500000
Si Si5 0.118484 0.500000 0.152952
Si Si6 0.617018 0.168477 0.500000
Si Si7 0.304567 0.894486 0.737414
O O1 0.345499 0.877593 0.875507
O O2 0.500000 0.843028 0.000000
O O3 0.331628 0.790245 0.000000
O O4 0.150068 0.796711 0.372901
O O5 0.183736 0.885668 0.273867
O O6 0.000000 0.850065 0.266768
O O7 0.150983 0.809720 0.126488
O O8 0.171958 0.276373 0.000000
O O9 0.000000 0.228173 0.000000
O O10 0.000000 0.242218 0.500000
O O11 0.172202 0.547323 0.217978
O O12 0.000000 0.500000 0.185200
O O13 0.137282 0.500000 0.000000
O O14 0.500000 0.179596 0.500000
O O15 0.640973 0.137777 0.627907
#
# Coordination Sequence:
#
# PCOD8291836 Si02
#       7
#     8  16   8   8   8   8  16
#     4  11  23  38  57  91 127 153 190 242 298 354
#     4  10  21  38  57  85 123 160 196 237 281 340
#     4   9  19  35  57  85 123 162 196 233 278 337
#     4   9  19  35  55  83 127 164 188 235 292 337
#     4  11  24  45  66  86 113 144 191 253 300 343
#     4  11  21  36  59  89 119 157 204 240 278 350
#     4  12  24  38  63  87 114 157 200 241 298 349
#
# _framework density 19.824698999999999
#
# number of rings (size 3 to 8) (size 9 to 14) (size 15 to 20)
#    0.000    1.444    1.111    4.667    0.000    9.333 
#    0.000    1.667    0.000    0.667    0.000    3.889 
#    0.000    0.000    0.000    0.000    0.000    0.000 
#
# Total GULP energy -446488.749750 kJ/mol
# GULP energy per Si atom -12402.465271 kJ/mol
# Density = 1.977958 g / cm^3
# Si number density = 19.824699 Si / 1000 Ang^3
#
#
#
# Elastic Constant Matrix: (Units=GPa)
#
#
# Indices 1 2 3 4 5 6 
#
# 1 93.1399 71.8918 42.9065 0.0001 0.0001 0.0000
# 2 71.8918 185.4661 73.5658 -0.0007 0.0006 0.0000
# 3 42.9065 73.5658 171.2861 -0.0043 0.0043 -0.0001
# 4 0.0001 -0.0007 -0.0043 26.6796 0.0034 0.0000
# 5 0.0001 0.0006 0.0043 0.0034 -30.2550 0.0001
# 6 0.0000 0.0000 -0.0001 0.0000 0.0001 33.1744
#
#
#
# Elastic Compliance Matrix: (Units=1/GPa)
#
#
# Indices 1 2 3 4 5 6 
#
# 1 0.015670 -0.005445 -0.001587 0.000000 0.000000 0.000000
# 2 -0.005445 0.008391 -0.002240 0.000000 0.000000 0.000000
# 3 -0.001587 -0.002240 0.007198 0.000001 0.000001 0.000000
# 4 0.000000 0.000000 0.000001 0.037482 0.000004 0.000000
# 5 0.000000 0.000000 0.000001 0.000004 -0.033052 0.000000
# 6 0.000000 0.000000 0.000000 0.000000 0.000000 0.030144
#
#
# Mechanical properties :
#
#
# Convention : Reuss Voigt Hill
#
# Bulk Modulus (GPa) = 78.64293 91.84672 85.24482
# Shear Modulus (GPa) = 56.42485 23.35501 39.88993
#
# Velocity S-wave (km/s) = 5.34076 3.43604 4.49055
# Velocity P-wave (km/s) = 8.81969 7.88491 8.36536
#
# Compressibility (1/GPa) = 0.01271570
#
# Stress axis : x y z
#
# Youngs Moduli (GPa) = 63.81545 119.17787 138.93341
#
# Poissons Ratio (x) = 0.64890 0.22047
# Poissons Ratio (y) = 0.34746 0.31119
# Poissons Ratio (z) = 0.10127 0.26694
#
# Static dielectric constant tensor:
#      x y z
#    x 3.796970 0.000000 0.000000 
#    y 0.000000 3.524190 0.000000 
#    z 0.000000 0.000000 3.799400 
# 
# 
# High freq. dielectric constant tensor:
#      x y z
#    x 1.793640 0.000000 0.000000 
#    y 0.000000 1.750630 0.000000 
#    z 0.000000 0.000000 1.790840 
# 
# From -- ./inp_files/6251.got.cif
#   From: 2010.06.25/outbox.cif.g09.slc.cpg/sg71_4_cif.got.tgz:6251.got - 2010.06.28 04:59:45.
