data_PCOD8291116
_publ_section_title
;
Structure prediction by ZEFSAII (Michael W. Deem and Ramdas Pophale) SiO2 
 PCOD8291116
Probable space group: I M M M
;
_chemical_formula_sum "Si O2"
_cell_formula_units_Z 88
_cell_length_a 8.636120
_cell_length_b 22.531163
_cell_length_c 24.034179
_cell_angle_alpha 90.000000
_cell_angle_beta 90.000000
_cell_angle_gamma 90.000000
_cell_volume 4676.614470
_symmetry_space_group_name_H-M "I M M M"
_symmetry_group_IT_number 71
_symmetry_cell_setting 'orthorhombic'
loop_
_space_group_symop_operation_xyz
x,y,z
-x,-y,z
x,-y,-z
-x,y,-z
-x,-y,-z
x,y,-z
-x,y,z
x,-y,z
1/2+x,1/2+y,1/2+z
1/2-x,1/2-y,1/2+z
1/2+x,1/2-y,1/2-z
1/2-x,1/2+y,1/2-z
1/2-x,1/2-y,1/2-z
1/2+x,1/2+y,1/2-z
1/2-x,1/2+y,1/2+z
1/2+x,1/2-y,1/2+z
loop_
_atom_site_type_symbol
_atom_site_label
_atom_site_fract_x
_atom_site_fract_y
_atom_site_fract_z
Si Si1 0.820422 0.931176 0.854338
Si Si2 0.319103 0.609710 0.872291
Si Si3 0.679316 0.216540 0.564611
Si Si4 0.679574 0.931537 0.738302
Si Si5 0.323588 0.000000 0.565918
Si Si6 0.178939 0.660087 0.563552
O O1 0.774203 0.911051 0.792392
O O2 0.721306 0.895939 0.899198
O O3 0.000000 0.918035 0.863914
O O4 0.779373 0.000000 0.862581
O O5 0.500000 0.601648 0.862388
O O6 0.284610 0.672778 0.899730
O O7 0.233886 0.608073 0.813119
O O8 0.260112 0.558511 0.912858
O O9 0.719222 0.206715 0.500000
O O10 0.500000 0.203680 0.576950
O O11 0.719928 0.283470 0.582399
O O12 0.500000 0.920694 0.750449
O O13 0.714364 0.000000 0.723353
O O14 0.500000 0.000000 0.587961
O O15 0.317467 0.000000 0.500000
O O16 0.216510 0.642933 0.500000
O O17 0.000000 0.676533 0.571314
#
# Coordination Sequence:
#
# PCOD8291116 Si02
#       6
#    16  16  16  16   8  16
#     4  10  21  37  59  87 118 149 186 230 279 336
#     4  12  23  35  55  82 113 148 190 237 286 337
#     4  10  21  38  59  81 110 150 192 233 282 340
#     4  10  20  36  58  81 111 150 191 233 282 338
#     4  11  23  37  53  77 111 149 192 241 288 333
#     4  10  21  38  60  86 116 149 187 230 279 337
#
# _framework density 18.817031
#
# number of rings (size 3 to 8) (size 9 to 14) (size 15 to 20)
#    0.000    1.545    0.909    4.636    0.000    7.273 
#    0.000    2.727    0.000    0.000    0.000    0.000 
#    0.000    0.000    0.000    0.000    0.000    0.000 
#
# Total GULP energy -545902.588058 kJ/mol
# GULP energy per Si atom -12406.877001 kJ/mol
# Density = 1.877420 g / cm^3
# Si number density = 18.817031 Si / 1000 Ang^3
#
#
#
# Elastic Constant Matrix: (Units=GPa)
#
#
# Indices 1 2 3 4 5 6 
#
# 1 61.8929 19.5647 19.7105 0.0000 0.0000 0.0000
# 2 19.5647 78.8132 51.0841 0.0000 0.0000 0.0000
# 3 19.7105 51.0841 88.7365 0.0000 0.0000 0.0000
# 4 0.0000 0.0000 0.0000 25.9087 0.0000 0.0000
# 5 0.0000 0.0000 0.0000 0.0000 32.8182 0.0000
# 6 0.0000 0.0000 0.0000 0.0000 0.0000 32.1111
#
#
#
# Elastic Compliance Matrix: (Units=1/GPa)
#
#
# Indices 1 2 3 4 5 6 
#
# 1 0.017810 -0.002962 -0.002251 0.000000 0.000000 0.000000
# 2 -0.002962 0.020734 -0.011278 0.000000 0.000000 0.000000
# 3 -0.002251 -0.011278 0.018262 0.000000 0.000000 0.000000
# 4 0.000000 0.000000 0.000000 0.038597 0.000000 0.000000
# 5 0.000000 0.000000 0.000000 0.000000 0.030471 0.000000
# 6 0.000000 0.000000 0.000000 0.000000 0.000000 0.031142
#
#
# Mechanical properties :
#
#
# Convention : Reuss Voigt Hill
#
# Bulk Modulus (GPa) = 41.97544 45.57349 43.77446
# Shear Modulus (GPa) = 25.26035 27.43983 26.35009
#
# Velocity S-wave (km/s) = 3.66788 3.82284 3.74616
# Velocity P-wave (km/s) = 6.34771 6.61493 6.48270
#
# Compressibility (1/GPa) = 0.02382345
#
# Stress axis : x y z
#
# Youngs Moduli (GPa) = 56.14785 48.23078 54.75916
#
# Poissons Ratio (x) = 0.14288 0.12324
# Poissons Ratio (y) = 0.16633 0.61757
# Poissons Ratio (z) = 0.12637 0.54395
#
# Static dielectric constant tensor:
#      x y z
#    x 3.559260 0.000000 0.000000 
#    y 0.000000 3.223220 0.000000 
#    z 0.000000 0.000000 3.443080 
# 
# 
# High freq. dielectric constant tensor:
#      x y z
#    x 1.747710 0.000000 0.000000 
#    y 0.000000 1.720140 0.000000 
#    z 0.000000 0.000000 1.733320 
# 
# From -- ./inp_files/10376.got.cif
#   From: 2010.06.25/outbox.cif.g09.slc.cpg/sg71_6_cif.got.tgz:10376.got - 2010.06.28 04:59:45.
