data_PCOD8291483
_publ_section_title
;
Structure prediction by ZEFSAII (Michael W. Deem and Ramdas Pophale) SiO2 
 PCOD8291483
Probable space group: I M M M
;
_chemical_formula_sum "Si O2"
_cell_formula_units_Z 104
_cell_length_a 23.552934
_cell_length_b 9.147166
_cell_length_c 26.490055
_cell_angle_alpha 90.000000
_cell_angle_beta 90.000000
_cell_angle_gamma 90.000000
_cell_volume 5707.086246
_symmetry_space_group_name_H-M "I M M M"
_symmetry_group_IT_number 71
_symmetry_cell_setting 'orthorhombic'
loop_
_space_group_symop_operation_xyz
x,y,z
-x,-y,z
x,-y,-z
-x,y,-z
-x,-y,-z
x,y,-z
-x,y,z
x,-y,z
1/2+x,1/2+y,1/2+z
1/2-x,1/2-y,1/2+z
1/2+x,1/2-y,1/2-z
1/2-x,1/2+y,1/2-z
1/2-x,1/2-y,1/2-z
1/2+x,1/2+y,1/2-z
1/2-x,1/2+y,1/2+z
1/2+x,1/2-y,1/2+z
loop_
_atom_site_type_symbol
_atom_site_label
_atom_site_fract_x
_atom_site_fract_y
_atom_site_fract_z
Si Si1 0.141470 0.331583 0.287901
Si Si2 0.145676 0.671621 0.558284
Si Si3 0.433555 0.668669 0.500000
Si Si4 0.433580 0.328509 0.134712
Si Si5 0.566998 0.330343 0.608406
Si Si6 0.847043 0.327649 0.173785
Si Si7 0.740324 0.833745 0.134843
O O1 0.121679 0.500000 0.288330
O O2 0.091838 0.237548 0.313712
O O3 0.153860 0.274278 0.231656
O O4 0.199890 0.310704 0.317424
O O5 0.148378 0.718564 0.500000
O O6 0.133290 0.500000 0.565143
O O7 0.094838 0.757480 0.585302
O O8 0.205975 0.710832 0.584204
O O9 0.418445 0.500000 0.500000
O O10 0.500000 0.692718 0.500000
O O11 0.410475 0.730982 0.553442
O O12 0.500000 0.293287 0.132998
O O13 0.421138 0.500000 0.134079
O O14 0.500000 0.311065 0.613105
O O15 0.583822 0.500000 0.615308
O O16 0.594694 0.232275 0.651179
O O17 0.845431 0.500000 0.170143
O O18 0.794621 0.267671 0.141414
O O19 0.761697 0.000000 0.131130
#
# Coordination Sequence:
#
# PCOD8291483 Si02
#       7
#    16  16   8  16  16  16  16
#     4   9  20  37  55  74 101 140 180 218 260 310
#     4   9  19  37  59  81 107 142 183 224 265 312
#     4   7  12  28  53  73  89 119 165 207 240 281
#     4  10  21  35  53  81 113 143 178 221 269 319
#     4   9  18  34  55  76  99 131 172 215 256 302
#     4  11  22  34  51  79 110 137 169 213 267 321
#     4   9  18  35  56  76 100 134 178 221 259 305
#
# _framework density 18.222958999999999
#
# number of rings (size 3 to 8) (size 9 to 14) (size 15 to 20)
#    0.000    2.692    0.000    3.231    0.000    6.462 
#    1.385    5.000    0.000    1.385    0.000    0.000 
#    0.000    0.000    0.000    0.000    0.000    0.000 
#
# Total GULP energy -644611.738371 kJ/mol
# GULP energy per Si atom -12396.379584 kJ/mol
# Density = 1.818148 g / cm^3
# Si number density = 18.222959 Si / 1000 Ang^3
#
#
#
# Elastic Constant Matrix: (Units=GPa)
#
#
# Indices 1 2 3 4 5 6 
#
# 1 92.6227 49.6451 57.2135 0.0000 0.0000 0.0000
# 2 49.6451 68.6974 46.5632 0.0000 0.0000 0.0000
# 3 57.2135 46.5632 102.8155 0.0000 0.0000 0.0000
# 4 0.0000 0.0000 0.0000 25.8601 0.0000 0.0000
# 5 0.0000 0.0000 0.0000 0.0000 17.7393 0.0000
# 6 0.0000 0.0000 0.0000 0.0000 0.0000 32.6390
#
#
#
# Elastic Compliance Matrix: (Units=1/GPa)
#
#
# Indices 1 2 3 4 5 6 
#
# 1 0.020428 -0.010183 -0.006755 0.000000 0.000000 0.000000
# 2 -0.010183 0.026081 -0.006145 0.000000 0.000000 0.000000
# 3 -0.006755 -0.006145 0.016268 0.000000 0.000000 0.000000
# 4 0.000000 0.000000 0.000000 0.038670 0.000000 0.000000
# 5 0.000000 0.000000 0.000000 0.000000 0.056372 0.000000
# 6 0.000000 0.000000 0.000000 0.000000 0.000000 0.030638
#
#
# Mechanical properties :
#
#
# Convention : Reuss Voigt Hill
#
# Bulk Modulus (GPa) = 60.20716 63.44215 61.82466
# Shear Modulus (GPa) = 20.81948 22.62860 21.72404
#
# Velocity S-wave (km/s) = 3.38374 3.52769 3.45646
# Velocity P-wave (km/s) = 6.95537 7.17515 7.06611
#
# Compressibility (1/GPa) = 0.01660932
#
# Stress axis : x y z
#
# Youngs Moduli (GPa) = 48.95331 38.34256 61.46980
#
# Poissons Ratio (x) = 0.39046 0.41525
# Poissons Ratio (y) = 0.49851 0.37771
# Poissons Ratio (z) = 0.33070 0.23560
#
# Static dielectric constant tensor:
#      x y z
#    x 3.171230 0.000000 0.000000 
#    y 0.000000 3.236660 0.000000 
#    z 0.000000 0.000000 3.706690 
# 
# 
# High freq. dielectric constant tensor:
#      x y z
#    x 1.696780 0.000000 0.000000 
#    y 0.000000 1.693260 0.000000 
#    z 0.000000 0.000000 1.718100 
# 
# From -- ./inp_files/66775.got.cif
#   From: 2010.06.25/outbox.cif.g09.slc.cpg/sg71_34_cif.got.tgz:66775.got - 2010.06.28 04:59:45.
