data_PCOD8291045
_publ_section_title
;
Structure prediction by ZEFSAII (Michael W. Deem and Ramdas Pophale) SiO2 
 PCOD8291045
Probable space group: I M M M
;
_chemical_formula_sum "Si O2"
_cell_formula_units_Z 88
_cell_length_a 14.417369
_cell_length_b 28.707020
_cell_length_c 11.680330
_cell_angle_alpha 90.000000
_cell_angle_beta 90.000000
_cell_angle_gamma 90.000000
_cell_volume 4834.251479
_symmetry_space_group_name_H-M "I M M M"
_symmetry_group_IT_number 71
_symmetry_cell_setting 'orthorhombic'
loop_
_space_group_symop_operation_xyz
x,y,z
-x,-y,z
x,-y,-z
-x,y,-z
-x,-y,-z
x,y,-z
-x,y,z
x,-y,z
1/2+x,1/2+y,1/2+z
1/2-x,1/2-y,1/2+z
1/2+x,1/2-y,1/2-z
1/2-x,1/2+y,1/2-z
1/2-x,1/2-y,1/2-z
1/2+x,1/2+y,1/2-z
1/2-x,1/2+y,1/2+z
1/2+x,1/2-y,1/2+z
loop_
_atom_site_type_symbol
_atom_site_label
_atom_site_fract_x
_atom_site_fract_y
_atom_site_fract_z
Si Si1 0.304728 0.171987 0.234025
Si Si2 0.666893 0.409446 0.256865
Si Si3 0.000000 0.227973 0.705142
Si Si4 0.109752 0.000000 0.364495
Si Si5 0.500000 0.827935 0.871011
Si Si6 0.500000 0.632526 0.872734
Si Si7 0.390174 0.554339 0.500000
Si Si8 0.832095 0.759717 0.871770
O O1 0.257892 0.122110 0.259668
O O2 0.407571 0.156333 0.195572
O O3 0.253060 0.203484 0.137570
O O4 0.304178 0.205872 0.345436
O O5 0.667742 0.456827 0.184220
O O6 0.585858 0.379557 0.204535
O O7 0.652783 0.420370 0.390270
O O8 0.000000 0.272466 0.625273
O O9 0.000000 0.187601 0.611263
O O10 0.910495 0.224097 0.784932
O O11 0.113702 0.000000 0.500000
O O12 0.000000 0.000000 0.323548
O O13 0.500000 0.848052 0.000000
O O14 0.500000 0.608660 0.000000
O O15 0.362597 0.500000 0.500000
O O16 0.500000 0.560309 0.500000
O O17 0.870542 0.761404 0.000000
#
# Coordination Sequence:
#
# PCOD8291045 Si02
#       8
#    16  16   8   8   8   8   8  16
#     4  10  23  37  55  83 112 152 200 243 287 345
#     4  12  23  39  57  89 119 158 200 230 293 354
#     4  10  20  36  53  86 116 152 194 235 294 349
#     4  11  22  39  61  90 129 157 183 230 289 362
#     4  10  21  39  57  76 111 155 200 248 291 329
#     4  12  23  35  55  87 127 162 195 236 282 353
#     4  11  22  38  60  83 123 157 181 236 290 362
#     4  10  20  36  55  80 116 152 193 242 291 348
#
# _framework density 18.203440000000001
#
# number of rings (size 3 to 8) (size 9 to 14) (size 15 to 20)
#    0.000    1.273    4.545    1.636    2.545    1.455 
#    1.636    0.000    0.000    0.545    0.000    1.909 
#    0.000    0.000    0.000    0.000    0.000    0.000 
#
# Total GULP energy -545317.974150 kJ/mol
# GULP energy per Si atom -12393.590322 kJ/mol
# Density = 1.816201 g / cm^3
# Si number density = 18.203440 Si / 1000 Ang^3
#
#
#
# Elastic Constant Matrix: (Units=GPa)
#
#
# Indices 1 2 3 4 5 6 
#
# 1 117.1238 50.5738 24.3021 0.0000 0.0000 0.0000
# 2 50.5738 121.3416 26.7649 -0.0001 0.0002 0.0000
# 3 24.3021 26.7649 92.8318 -0.0011 0.0000 0.0000
# 4 0.0000 -0.0001 -0.0011 17.7425 0.0001 0.0000
# 5 0.0000 0.0002 0.0000 0.0001 0.7899 0.0000
# 6 0.0000 0.0000 0.0000 0.0000 0.0000 35.5215
#
#
#
# Elastic Compliance Matrix: (Units=1/GPa)
#
#
# Indices 1 2 3 4 5 6 
#
# 1 0.010632 -0.004077 -0.001608 0.000000 0.000001 0.000000
# 2 -0.004077 0.010364 -0.001921 0.000000 -0.000003 0.000000
# 3 -0.001608 -0.001921 0.011747 0.000001 0.000001 0.000000
# 4 0.000000 0.000000 0.000001 0.056362 -0.000008 0.000000
# 5 0.000001 -0.000003 0.000001 -0.000008 1.265966 0.000000
# 6 0.000000 0.000000 0.000000 0.000000 0.000000 0.028152
#
#
# Mechanical properties :
#
#
# Convention : Reuss Voigt Hill
#
# Bulk Modulus (GPa) = 57.03876 59.39765 58.21821
# Shear Modulus (GPa) = 3.56055 26.12120 14.84088
#
# Velocity S-wave (km/s) = 1.40008 3.79220 2.85841
# Velocity P-wave (km/s) = 5.83230 7.20244 6.55327
#
# Compressibility (1/GPa) = 0.01753194
#
# Stress axis : x y z
#
# Youngs Moduli (GPa) = 94.05698 96.48819 85.12858
#
# Poissons Ratio (x) = 0.39334 0.13688
# Poissons Ratio (y) = 0.38343 0.16352
# Poissons Ratio (z) = 0.15124 0.18535
#
# Static dielectric constant tensor:
#      x y z
#    x 3.341580 0.000000 0.000000 
#    y 0.000000 3.479030 0.000000 
#    z 0.000000 0.000000 3.252350 
# 
# 
# High freq. dielectric constant tensor:
#      x y z
#    x 1.688990 0.000000 0.000000 
#    y 0.000000 1.700100 0.000000 
#    z 0.000000 0.000000 1.709400 
# 
# From -- ./inp_files/22403.got.cif
#   From: 2010.06.25/outbox.cif.g09.slc.cpg/sg71_12_cif.got.tgz:22403.got - 2010.06.28 04:59:45.
