data_PCOD8291695
_publ_section_title
;
Structure prediction by ZEFSAII (Michael W. Deem and Ramdas Pophale) SiO2 
 PCOD8291695
Probable space group: I M M M
;
_chemical_formula_sum "Si O2"
_cell_formula_units_Z 120
_cell_length_a 9.290013
_cell_length_b 28.176182
_cell_length_c 27.385806
_cell_angle_alpha 90.000000
_cell_angle_beta 90.000000
_cell_angle_gamma 90.000000
_cell_volume 7168.429079
_symmetry_space_group_name_H-M "I M M M"
_symmetry_group_IT_number 71
_symmetry_cell_setting 'orthorhombic'
loop_
_space_group_symop_operation_xyz
x,y,z
-x,-y,z
x,-y,-z
-x,y,-z
-x,-y,-z
x,y,-z
-x,y,z
x,-y,z
1/2+x,1/2+y,1/2+z
1/2-x,1/2-y,1/2+z
1/2+x,1/2-y,1/2-z
1/2-x,1/2+y,1/2-z
1/2-x,1/2-y,1/2-z
1/2+x,1/2+y,1/2-z
1/2-x,1/2+y,1/2+z
1/2+x,1/2-y,1/2+z
loop_
_atom_site_type_symbol
_atom_site_label
_atom_site_fract_x
_atom_site_fract_y
_atom_site_fract_z
Si Si1 0.335581 0.553805 0.291596
Si Si2 0.163826 0.800539 0.644147
Si Si3 0.665066 0.644494 0.761250
Si Si4 0.171348 0.411140 0.615833
Si Si5 0.670554 0.000000 0.946293
Si Si6 0.332537 0.775081 0.445619
Si Si7 0.833073 0.835082 0.055576
Si Si8 0.165559 0.281935 0.287607
O O1 0.500000 0.554927 0.310900
O O2 0.289520 0.500000 0.278050
O O3 0.321542 0.587331 0.243422
O O4 0.230758 0.576190 0.331292
O O5 0.222446 0.836697 0.686226
O O6 0.252243 0.807261 0.594426
O O7 0.178047 0.745179 0.660694
O O8 0.000000 0.813583 0.632394
O O9 0.500000 0.661651 0.755499
O O10 0.756148 0.666946 0.715713
O O11 0.224716 0.453300 0.580906
O O12 0.235114 0.362669 0.594404
O O13 0.000000 0.406033 0.619032
O O14 0.500000 0.000000 0.948760
O O15 0.739404 0.000000 0.000000
O O16 0.284327 0.791058 0.500000
O O17 0.500000 0.783996 0.438528
O O18 0.295340 0.719996 0.438388
O O19 0.000000 0.844689 0.067388
O O20 0.797773 0.851165 0.000000
O O21 0.250000 0.250000 0.250000
O O22 0.000000 0.288199 0.272284
#
# Coordination Sequence:
#
# PCOD8291695 Si02
#       8
#    16  16  16  16   8  16  16  16
#     4  10  21  37  54  70  93 125 162 201 247 301
#     4   9  18  31  47  70  98 124 156 195 233 280
#     4   9  19  34  50  70  95 125 160 199 242 289
#     4  11  21  33  49  68  92 120 155 201 250 297
#     4   9  18  32  47  63  85 113 147 195 254 301
#     4   9  19  34  50  69  96 129 160 190 229 279
#     4   9  19  35  50  66  90 121 159 199 238 284
#     4   9  17  29  45  69  98 125 157 194 233 278
#
# _framework density 16.740069999999999
#
# number of rings (size 3 to 8) (size 9 to 14) (size 15 to 20)
#    0.000    2.600    0.667    2.800    1.867    4.800 
#    0.000    1.333    0.000    1.600    0.000    0.000 
#    0.000    0.533    0.000    6.667    0.000    1.067 
#
# Total GULP energy -743617.591297 kJ/mol
# GULP energy per Si atom -12393.626522 kJ/mol
# Density = 1.670197 g / cm^3
# Si number density = 16.740070 Si / 1000 Ang^3
#
#
#
# Elastic Constant Matrix: (Units=GPa)
#
#
# Indices 1 2 3 4 5 6 
#
# 1 63.7645 27.2377 42.6797 0.0000 0.0000 0.0000
# 2 27.2377 72.4673 48.5105 0.0000 0.0000 0.0000
# 3 42.6797 48.5105 102.6630 0.0000 0.0000 0.0000
# 4 0.0000 0.0000 0.0000 17.2802 0.0000 0.0000
# 5 0.0000 0.0000 0.0000 0.0000 26.0766 0.0000
# 6 0.0000 0.0000 0.0000 0.0000 0.0000 17.1914
#
#
#
# Elastic Compliance Matrix: (Units=1/GPa)
#
#
# Indices 1 2 3 4 5 6 
#
# 1 0.022216 -0.003170 -0.007738 0.000000 0.000000 0.000000
# 2 -0.003170 0.020636 -0.008433 0.000000 0.000000 0.000000
# 3 -0.007738 -0.008433 0.016942 0.000000 0.000000 0.000000
# 4 0.000000 0.000000 0.000000 0.057870 0.000000 0.000000
# 5 0.000000 0.000000 0.000000 0.000000 0.038349 0.000000
# 6 0.000000 0.000000 0.000000 0.000000 0.000000 0.058169
#
#
# Mechanical properties :
#
#
# Convention : Reuss Voigt Hill
#
# Bulk Modulus (GPa) = 47.36626 52.86116 50.11371
# Shear Modulus (GPa) = 19.23811 20.14077 19.68944
#
# Velocity S-wave (km/s) = 3.39370 3.47240 3.43328
# Velocity P-wave (km/s) = 6.61157 6.90818 6.76150
#
# Compressibility (1/GPa) = 0.02111207
#
# Stress axis : x y z
#
# Youngs Moduli (GPa) = 45.01245 48.45876 59.02450
#
# Poissons Ratio (x) = 0.15364 0.45671
# Poissons Ratio (y) = 0.14271 0.49775
# Poissons Ratio (z) = 0.34829 0.40865
#
# Static dielectric constant tensor:
#      x y z
#    x 3.173800 0.000000 0.000000 
#    y 0.000000 3.438950 0.000000 
#    z 0.000000 0.000000 3.070940 
# 
# 
# High freq. dielectric constant tensor:
#      x y z
#    x 1.643930 0.000000 0.000000 
#    y 0.000000 1.620440 0.000000 
#    z 0.000000 0.000000 1.629100 
# 
# From -- ./inp_files/63829.got.cif
#   From: 2010.06.25/outbox.cif.g09.slc.cpg/sg71_32_cif.got.tgz:63829.got - 2010.06.28 04:59:45.
