data_PCOD8291548
_publ_section_title
;
Structure prediction by ZEFSAII (Michael W. Deem and Ramdas Pophale) SiO2 
 PCOD8291548
Probable space group: I M M M
;
_chemical_formula_sum "Si O2"
_cell_formula_units_Z 80
_cell_length_a 12.545073
_cell_length_b 13.043388
_cell_length_c 26.012312
_cell_angle_alpha 90.000000
_cell_angle_beta 90.000000
_cell_angle_gamma 90.000000
_cell_volume 4256.401236
_symmetry_space_group_name_H-M "I M M M"
_symmetry_group_IT_number 71
_symmetry_cell_setting 'orthorhombic'
loop_
_space_group_symop_operation_xyz
x,y,z
-x,-y,z
x,-y,-z
-x,y,-z
-x,-y,-z
x,y,-z
-x,y,z
x,-y,z
1/2+x,1/2+y,1/2+z
1/2-x,1/2-y,1/2+z
1/2+x,1/2-y,1/2-z
1/2-x,1/2+y,1/2-z
1/2-x,1/2-y,1/2-z
1/2+x,1/2+y,1/2-z
1/2-x,1/2+y,1/2+z
1/2+x,1/2-y,1/2+z
loop_
_atom_site_type_symbol
_atom_site_label
_atom_site_fract_x
_atom_site_fract_y
_atom_site_fract_z
Si Si1 0.500000 0.379438 0.841412
Si Si2 0.682770 0.883835 0.889154
Si Si3 0.208809 0.220602 0.694369
Si Si4 0.620187 0.694589 0.559098
Si Si5 0.378738 0.884251 0.374698
Si Si6 0.000000 0.737787 0.439963
O O1 0.500000 0.500000 0.849720
O O2 0.601944 0.347323 0.807250
O O3 0.500000 0.331732 0.899241
O O4 0.681463 0.825739 0.835006
O O5 0.802530 0.882183 0.910999
O O6 0.604559 0.830618 0.930150
O O7 0.646225 0.000000 0.879568
O O8 0.250000 0.250000 0.750000
O O9 0.303338 0.154306 0.670315
O O10 0.647884 0.687693 0.500000
O O11 0.500000 0.658946 0.571156
O O12 0.638543 0.812635 0.575680
O O13 0.500000 0.877718 0.354495
O O14 0.348763 0.000000 0.390859
O O15 0.000000 0.774592 0.500000
#
# Coordination Sequence:
#
# PCOD8291548 Si02
#       6
#     8  16  16  16  16   8
#     4  10  22  40  61  88 116 147 188 234 282 343
#     4  10  21  36  53  78 108 143 186 227 270 329
#     4  10  22  38  59  78 112 143 184 234 285 327
#     4   9  18  32  50  75 108 142 177 220 267 317
#     4   9  18  33  54  79 106 138 178 222 272 329
#     4  10  21  37  58  85 115 148 181 228 280 331
#
# _framework density 18.795221000000002
#
# number of rings (size 3 to 8) (size 9 to 14) (size 15 to 20)
#    0.000    2.400    0.000    1.500    1.400    4.600 
#    0.000    3.000    0.000    7.200    0.000    0.000 
#    0.000    0.000    0.000    0.000    0.000    0.000 
#
# Total GULP energy -495933.499436 kJ/mol
# GULP energy per Si atom -12398.337486 kJ/mol
# Density = 1.875244 g / cm^3
# Si number density = 18.795221 Si / 1000 Ang^3
#
#
#
# Elastic Constant Matrix: (Units=GPa)
#
#
# Indices 1 2 3 4 5 6 
#
# 1 92.3350 38.7525 33.8732 0.0000 0.0000 0.0000
# 2 38.7525 113.8796 26.1377 0.0000 0.0000 0.0000
# 3 33.8732 26.1377 90.9572 0.0000 0.0000 0.0000
# 4 0.0000 0.0000 0.0000 12.7708 0.0000 0.0000
# 5 0.0000 0.0000 0.0000 0.0000 29.4373 0.0000
# 6 0.0000 0.0000 0.0000 0.0000 0.0000 18.2316
#
#
#
# Elastic Compliance Matrix: (Units=1/GPa)
#
#
# Indices 1 2 3 4 5 6 
#
# 1 0.013927 -0.003799 -0.004095 0.000000 0.000000 0.000000
# 2 -0.003799 0.010438 -0.001585 0.000000 0.000000 0.000000
# 3 -0.004095 -0.001585 0.012974 0.000000 0.000000 0.000000
# 4 0.000000 0.000000 0.000000 0.078304 0.000000 0.000000
# 5 0.000000 0.000000 0.000000 0.000000 0.033971 0.000000
# 6 0.000000 0.000000 0.000000 0.000000 0.000000 0.054850
#
#
# Mechanical properties :
#
#
# Convention : Reuss Voigt Hill
#
# Bulk Modulus (GPa) = 54.40138 54.96653 54.68396
# Shear Modulus (GPa) = 21.78197 25.31514 23.54856
#
# Velocity S-wave (km/s) = 3.40797 3.67399 3.54347
# Velocity P-wave (km/s) = 6.67029 6.87794 6.77491
#
# Compressibility (1/GPa) = 0.01838189
#
# Stress axis : x y z
#
# Youngs Moduli (GPa) = 71.80375 95.80562 77.07483
#
# Poissons Ratio (x) = 0.36400 0.31560
# Poissons Ratio (y) = 0.27281 0.12213
# Poissons Ratio (z) = 0.29401 0.15180
#
# Static dielectric constant tensor:
#      x y z
#    x 3.620580 0.000000 0.000000 
#    y 0.000000 3.432200 0.000000 
#    z 0.000000 0.000000 3.239380 
# 
# 
# High freq. dielectric constant tensor:
#      x y z
#    x 1.751970 0.000000 0.000000 
#    y 0.000000 1.727290 0.000000 
#    z 0.000000 0.000000 1.710330 
# 
# From -- ./inp_files/64374.got.cif
#   From: 2010.06.25/outbox.cif.g09.slc.cpg/sg71_33_cif.got.tgz:64374.got - 2010.06.28 04:59:45.
