data_PCOD8291616
_publ_section_title
;
Structure prediction by ZEFSAII (Michael W. Deem and Ramdas Pophale) SiO2 
 PCOD8291616
Probable space group: I M M M
;
_chemical_formula_sum "Si O2"
_cell_formula_units_Z 104
_cell_length_a 26.348841
_cell_length_b 21.601596
_cell_length_c 9.363787
_cell_angle_alpha 90.000000
_cell_angle_beta 90.000000
_cell_angle_gamma 90.000000
_cell_volume 5329.652365
_symmetry_space_group_name_H-M "I M M M"
_symmetry_group_IT_number 71
_symmetry_cell_setting 'orthorhombic'
loop_
_space_group_symop_operation_xyz
x,y,z
-x,-y,z
x,-y,-z
-x,y,-z
-x,-y,-z
x,y,-z
-x,y,z
x,-y,z
1/2+x,1/2+y,1/2+z
1/2-x,1/2-y,1/2+z
1/2+x,1/2-y,1/2-z
1/2-x,1/2+y,1/2-z
1/2-x,1/2-y,1/2-z
1/2+x,1/2+y,1/2-z
1/2-x,1/2+y,1/2+z
1/2+x,1/2-y,1/2+z
loop_
_atom_site_type_symbol
_atom_site_label
_atom_site_fract_x
_atom_site_fract_y
_atom_site_fract_z
Si Si1 0.441606 0.836409 0.832582
Si Si2 0.940900 0.108928 0.156045
Si Si3 0.381944 0.928220 0.661714
Si Si4 0.280166 0.929256 0.166526
Si Si5 0.276724 0.304847 0.335344
Si Si6 0.890450 0.230705 0.164664
Si Si7 0.439208 0.500000 0.843313
O O1 0.500000 0.818050 0.802562
O O2 0.428709 0.899403 0.749807
O O3 0.402148 0.786739 0.769875
O O4 0.431371 0.844419 0.000000
O O5 0.931392 0.178571 0.206257
O O6 0.000000 0.096098 0.145900
O O7 0.916813 0.060244 0.265133
O O8 0.915587 0.098747 0.000000
O O9 0.379035 0.901573 0.500000
O O10 0.329386 0.913510 0.740572
O O11 0.393630 0.000000 0.657985
O O12 0.239833 0.875214 0.207782
O O13 0.260481 0.000000 0.200762
O O14 0.294725 0.925023 0.000000
O O15 0.263738 0.293279 0.500000
O O16 0.250000 0.250000 0.250000
O O17 0.336131 0.299179 0.303932
O O18 0.895826 0.252357 0.000000
O O19 0.500000 0.500000 0.848498
O O20 0.415725 0.500000 0.000000
#
# Coordination Sequence:
#
# PCOD8291616 Si02
#       7
#    16  16  16  16  16  16   8
#     4  11  24  39  56  81 113 149 187 228 277 334
#     4   9  17  31  51  74 101 135 175 217 263 314
#     4  10  21  37  59  86 113 144 184 228 275 330
#     4   9  18  35  58  83 114 150 187 230 282 339
#     4  10  21  36  55  82 111 143 184 228 278 332
#     4  10  21  37  56  81 109 141 183 229 277 326
#     4   9  17  29  47  71  99 133 171 211 255 305
#
# _framework density 19.513466999999999
#
# number of rings (size 3 to 8) (size 9 to 14) (size 15 to 20)
#    0.000    2.231    0.000    2.538    0.000    8.308 
#    1.385    3.077    0.000    0.000    0.000    0.000 
#    0.000    0.000    0.000    0.000    0.000    0.000 
#
# Total GULP energy -644605.103679 kJ/mol
# GULP energy per Si atom -12396.251994 kJ/mol
# Density = 1.946905 g / cm^3
# Si number density = 19.513467 Si / 1000 Ang^3
#
#
#
# Elastic Constant Matrix: (Units=GPa)
#
#
# Indices 1 2 3 4 5 6 
#
# 1 67.3750 42.5431 47.4999 0.0000 0.0000 0.0000
# 2 42.5431 114.2937 59.5746 0.0000 0.0000 0.0000
# 3 47.4999 59.5746 112.4169 0.0000 0.0000 0.0000
# 4 0.0000 0.0000 0.0000 26.4531 0.0000 0.0000
# 5 0.0000 0.0000 0.0000 0.0000 25.6533 0.0000
# 6 0.0000 0.0000 0.0000 0.0000 0.0000 34.5440
#
#
#
# Elastic Compliance Matrix: (Units=1/GPa)
#
#
# Indices 1 2 3 4 5 6 
#
# 1 0.022906 -0.004810 -0.007129 0.000000 0.000000 0.000000
# 2 -0.004810 0.013099 -0.004909 0.000000 0.000000 0.000000
# 3 -0.007129 -0.004909 0.014509 0.000000 0.000000 0.000000
# 4 0.000000 0.000000 0.000000 0.037803 0.000000 0.000000
# 5 0.000000 0.000000 0.000000 0.000000 0.038981 0.000000
# 6 0.000000 0.000000 0.000000 0.000000 0.000000 0.028949
#
#
# Mechanical properties :
#
#
# Convention : Reuss Voigt Hill
#
# Bulk Modulus (GPa) = 59.46453 65.92452 62.69452
# Shear Modulus (GPa) = 25.56898 26.96128 26.26513
#
# Velocity S-wave (km/s) = 3.62377 3.72112 3.67277
# Velocity P-wave (km/s) = 6.93171 7.23324 7.08408
#
# Compressibility (1/GPa) = 0.01681675
#
# Stress axis : x y z
#
# Youngs Moduli (GPa) = 43.65700 76.34377 68.92051
#
# Poissons Ratio (x) = 0.36721 0.49137
# Poissons Ratio (y) = 0.20999 0.33834
# Poissons Ratio (z) = 0.31125 0.37478
#
# Static dielectric constant tensor:
#      x y z
#    x 3.430390 0.000000 0.000000 
#    y 0.000000 3.799720 0.000000 
#    z 0.000000 0.000000 3.750940 
# 
# 
# High freq. dielectric constant tensor:
#      x y z
#    x 1.737300 0.000000 0.000000 
#    y 0.000000 1.773240 0.000000 
#    z 0.000000 0.000000 1.761970 
# 
# From -- ./inp_files/14982.got.cif
#   From: 2010.06.25/outbox.cif.g09.slc.cpg/sg71_8_cif.got.tgz:14982.got - 2010.06.28 04:59:45.
