data_PCOD8291884
_publ_section_title
;
Structure prediction by ZEFSAII (Michael W. Deem and Ramdas Pophale) SiO2 
 PCOD8291884
Probable space group: I M M M
;
_chemical_formula_sum "Si O2"
_cell_formula_units_Z 72
_cell_length_a 8.952680
_cell_length_b 22.111438
_cell_length_c 18.818107
_cell_angle_alpha 90.000000
_cell_angle_beta 90.000000
_cell_angle_gamma 90.000000
_cell_volume 3725.169021
_symmetry_space_group_name_H-M "I M M M"
_symmetry_group_IT_number 71
_symmetry_cell_setting 'orthorhombic'
loop_
_space_group_symop_operation_xyz
x,y,z
-x,-y,z
x,-y,-z
-x,y,-z
-x,-y,-z
x,y,-z
-x,y,z
x,-y,z
1/2+x,1/2+y,1/2+z
1/2-x,1/2-y,1/2+z
1/2+x,1/2-y,1/2-z
1/2-x,1/2+y,1/2-z
1/2-x,1/2-y,1/2-z
1/2+x,1/2+y,1/2-z
1/2-x,1/2+y,1/2+z
1/2+x,1/2-y,1/2+z
loop_
_atom_site_type_symbol
_atom_site_label
_atom_site_fract_x
_atom_site_fract_y
_atom_site_fract_z
Si Si1 0.827609 0.847805 0.581711
Si Si2 0.169416 0.000000 0.084013
Si Si3 0.828220 0.430218 0.189728
Si Si4 0.825779 0.612575 0.654624
Si Si5 0.825204 0.223425 0.082167
O O1 0.800271 0.865319 0.500000
O O2 0.776137 0.904666 0.627923
O O3 0.730597 0.789779 0.603546
O O4 0.000000 0.833027 0.596515
O O5 0.249396 0.059627 0.111004
O O6 0.000000 0.000000 0.112020
O O7 0.175049 0.000000 0.000000
O O8 0.787309 0.500000 0.202190
O O9 0.794512 0.394523 0.262019
O O10 0.000000 0.422734 0.166764
O O11 0.759877 0.676443 0.631516
O O12 0.000000 0.610177 0.637229
O O13 0.000000 0.219036 0.097579
O O14 0.788114 0.209541 0.000000
#
# Coordination Sequence:
#
# PCOD8291884 Si02
#       5
#    16   8  16  16  16
#     4  10  22  40  62  89 117 148 192 243 295 351
#     4  11  23  37  55  83 118 157 200 241 285 342
#     4  10  22  41  61  84 117 155 196 240 289 349
#     4  11  22  38  59  85 118 156 197 242 289 341
#     4  10  21  38  60  87 119 155 196 241 291 349
#
# _framework density 19.327981999999999
#
# number of rings (size 3 to 8) (size 9 to 14) (size 15 to 20)
#    0.000    1.667    1.111    3.000    0.000    9.778 
#    0.000    2.222    0.000    0.000    0.000    0.000 
#    0.000    0.000    0.000    0.000    0.000    0.000 
#
# Total GULP energy -446630.639178 kJ/mol
# GULP energy per Si atom -12406.406644 kJ/mol
# Density = 1.928399 g / cm^3
# Si number density = 19.327982 Si / 1000 Ang^3
#
#
#
# Elastic Constant Matrix: (Units=GPa)
#
#
# Indices 1 2 3 4 5 6 
#
# 1 111.5428 47.9848 60.6315 0.0000 0.0000 0.0000
# 2 47.9848 82.6164 53.1836 0.0000 0.0000 0.0000
# 3 60.6315 53.1836 86.7360 0.0001 0.0000 0.0000
# 4 0.0000 0.0000 0.0001 52.3596 0.0000 0.0000
# 5 0.0000 0.0000 0.0000 0.0000 34.0463 0.0000
# 6 0.0000 0.0000 0.0000 0.0000 0.0000 44.1929
#
#
#
# Elastic Compliance Matrix: (Units=1/GPa)
#
#
# Indices 1 2 3 4 5 6 
#
# 1 0.014965 -0.003234 -0.008478 0.000000 0.000000 0.000000
# 2 -0.003234 0.020697 -0.010430 0.000000 0.000000 0.000000
# 3 -0.008478 -0.010430 0.023851 0.000000 0.000000 0.000000
# 4 0.000000 0.000000 0.000000 0.019099 0.000000 0.000000
# 5 0.000000 0.000000 0.000000 0.000000 0.029372 0.000000
# 6 0.000000 0.000000 0.000000 0.000000 0.000000 0.022628
#
#
# Mechanical properties :
#
#
# Convention : Reuss Voigt Hill
#
# Bulk Modulus (GPa) = 65.66548 67.16611 66.41579
# Shear Modulus (GPa) = 27.78238 34.05942 30.92090
#
# Velocity S-wave (km/s) = 3.79544 4.20239 4.00409
# Velocity P-wave (km/s) = 7.29762 7.64022 7.47088
#
# Compressibility (1/GPa) = 0.01522870
#
# Stress axis : x y z
#
# Youngs Moduli (GPa) = 66.82346 48.31702 41.92771
#
# Poissons Ratio (x) = 0.15627 0.35545
# Poissons Ratio (y) = 0.21613 0.43729
# Poissons Ratio (z) = 0.56651 0.50393
#
# Static dielectric constant tensor:
#      x y z
#    x 3.678340 0.000000 0.000000 
#    y 0.000000 3.715630 0.000000 
#    z 0.000000 0.000000 3.510050 
# 
# 
# High freq. dielectric constant tensor:
#      x y z
#    x 1.765450 0.000000 0.000000 
#    y 0.000000 1.758560 0.000000 
#    z 0.000000 0.000000 1.752800 
# 
# From -- ./inp_files/7881.got.cif
#   From: 2010.06.25/outbox.cif.g09.slc.cpg/sg71_4_cif.got.tgz:7881.got - 2010.06.28 04:59:45.
