data_PCOD8291345
_publ_section_title
;
Structure prediction by ZEFSAII (Michael W. Deem and Ramdas Pophale) SiO2 
 PCOD8291345
Probable space group: I M M M
;
_chemical_formula_sum "Si O2"
_cell_formula_units_Z 88
_cell_length_a 21.984041
_cell_length_b 11.670865
_cell_length_c 18.125524
_cell_angle_alpha 90.000000
_cell_angle_beta 90.000000
_cell_angle_gamma 90.000000
_cell_volume 4650.515985
_symmetry_space_group_name_H-M "I M M M"
_symmetry_group_IT_number 71
_symmetry_cell_setting 'orthorhombic'
loop_
_space_group_symop_operation_xyz
x,y,z
-x,-y,z
x,-y,-z
-x,y,-z
-x,-y,-z
x,y,-z
-x,y,z
x,-y,z
1/2+x,1/2+y,1/2+z
1/2-x,1/2-y,1/2+z
1/2+x,1/2-y,1/2-z
1/2-x,1/2+y,1/2-z
1/2-x,1/2-y,1/2-z
1/2+x,1/2+y,1/2-z
1/2-x,1/2+y,1/2+z
1/2+x,1/2-y,1/2+z
loop_
_atom_site_type_symbol
_atom_site_label
_atom_site_fract_x
_atom_site_fract_y
_atom_site_fract_z
Si Si1 0.000000 0.863850 0.582215
Si Si2 0.221400 0.747215 0.414457
Si Si3 0.884383 0.863626 0.673061
Si Si4 0.607059 0.500000 0.587713
Si Si5 0.347682 0.130384 0.584405
Si Si6 0.569733 0.715712 0.326342
Si Si7 0.243778 0.000000 0.913192
O O1 0.059726 0.819132 0.623636
O O2 0.000000 0.812098 0.500000
O O3 0.000000 0.000000 0.579907
O O4 0.202439 0.763574 0.500000
O O5 0.177384 0.819342 0.362910
O O6 0.289418 0.790866 0.401187
O O7 0.219245 0.613751 0.389579
O O8 0.891226 0.812572 0.754088
O O9 0.882818 0.000000 0.677673
O O10 0.605020 0.500000 0.500000
O O11 0.572322 0.388574 0.616402
O O12 0.675825 0.500000 0.620093
O O13 0.369124 0.141951 0.500000
O O14 0.402598 0.171174 0.636172
O O15 0.330976 0.000000 0.604046
O O16 0.500000 0.739401 0.304669
O O17 0.234856 0.000000 0.000000
#
# Coordination Sequence:
#
# PCOD8291345 Si02
#       7
#     8  16  16   8  16  16   8
#     4   9  18  34  58  85 115 156 199 238 289 352
#     4  10  20  38  64  91 120 155 199 248 299 359
#     4  11  22  37  58  88 124 158 194 248 305 351
#     4  11  21  38  63  88 115 156 202 244 295 357
#     4  10  22  41  63  89 120 155 200 251 296 356
#     4  12  24  39  59  86 124 161 197 250 302 352
#     4   9  18  37  62  90 120 149 193 253 298 345
#
# _framework density 18.922630999999999
#
# number of rings (size 3 to 8) (size 9 to 14) (size 15 to 20)
#    0.000    1.545    3.636    1.909    0.000    4.727 
#    1.636    0.909    0.000    0.545    0.000    2.545 
#    0.000    0.000    0.000    0.000    0.000    0.000 
#
# Total GULP energy -545734.333085 kJ/mol
# GULP energy per Si atom -12403.053025 kJ/mol
# Density = 1.887956 g / cm^3
# Si number density = 18.922631 Si / 1000 Ang^3
#
#
#
# Elastic Constant Matrix: (Units=GPa)
#
#
# Indices 1 2 3 4 5 6 
#
# 1 74.6479 20.0074 37.8815 0.0000 0.0000 0.0000
# 2 20.0074 91.2302 38.4465 0.0000 0.0000 0.0000
# 3 37.8815 38.4465 101.0168 0.0000 0.0000 0.0000
# 4 0.0000 0.0000 0.0000 26.7971 0.0000 0.0000
# 5 0.0000 0.0000 0.0000 0.0000 29.9765 0.0000
# 6 0.0000 0.0000 0.0000 0.0000 0.0000 26.0124
#
#
#
# Elastic Compliance Matrix: (Units=1/GPa)
#
#
# Indices 1 2 3 4 5 6 
#
# 1 0.016657 -0.001216 -0.005784 0.000000 0.000000 0.000000
# 2 -0.001216 0.013144 -0.004547 0.000000 0.000000 0.000000
# 3 -0.005784 -0.004547 0.013799 0.000000 0.000000 0.000000
# 4 0.000000 0.000000 0.000000 0.037317 0.000000 0.000000
# 5 0.000000 0.000000 0.000000 0.000000 0.033360 0.000000
# 6 0.000000 0.000000 0.000000 0.000000 0.000000 0.038443
#
#
# Mechanical properties :
#
#
# Convention : Reuss Voigt Hill
#
# Bulk Modulus (GPa) = 48.76226 51.06284 49.91255
# Shear Modulus (GPa) = 27.37506 27.92783 27.65144
#
# Velocity S-wave (km/s) = 3.80766 3.84591 3.82683
# Velocity P-wave (km/s) = 6.71984 6.83849 6.77942
#
# Compressibility (1/GPa) = 0.02050766
#
# Stress axis : x y z
#
# Youngs Moduli (GPa) = 60.03431 76.08069 72.47045
#
# Poissons Ratio (x) = 0.09248 0.41916
# Poissons Ratio (y) = 0.07298 0.32950
# Poissons Ratio (z) = 0.34723 0.34591
#
# Static dielectric constant tensor:
#      x y z
#    x 3.402070 0.000000 0.000000 
#    y 0.000000 3.653670 0.000000 
#    z 0.000000 0.000000 3.463510 
# 
# 
# High freq. dielectric constant tensor:
#      x y z
#    x 1.731790 0.000000 0.000000 
#    y 0.000000 1.725830 0.000000 
#    z 0.000000 0.000000 1.734420 
# 
# From -- ./inp_files/25691.got.cif
#   From: 2010.06.25/outbox.cif.g09.slc.cpg/sg71_13_cif.got.tgz:25691.got - 2010.06.28 04:59:45.
