data_PCOD8291759
_publ_section_title
;
Structure prediction by ZEFSAII (Michael W. Deem and Ramdas Pophale) SiO2 
 PCOD8291759
Probable space group: I M M M
;
_chemical_formula_sum "Si O2"
_cell_formula_units_Z 88
_cell_length_a 15.365308
_cell_length_b 8.804165
_cell_length_c 33.689402
_cell_angle_alpha 90.000000
_cell_angle_beta 90.000000
_cell_angle_gamma 90.000000
_cell_volume 4557.458739
_symmetry_space_group_name_H-M "I M M M"
_symmetry_group_IT_number 71
_symmetry_cell_setting 'orthorhombic'
loop_
_space_group_symop_operation_xyz
x,y,z
-x,-y,z
x,-y,-z
-x,y,-z
-x,-y,-z
x,y,-z
-x,y,z
x,-y,z
1/2+x,1/2+y,1/2+z
1/2-x,1/2-y,1/2+z
1/2+x,1/2-y,1/2-z
1/2-x,1/2+y,1/2-z
1/2-x,1/2-y,1/2-z
1/2+x,1/2+y,1/2-z
1/2-x,1/2+y,1/2+z
1/2+x,1/2-y,1/2+z
loop_
_atom_site_type_symbol
_atom_site_label
_atom_site_fract_x
_atom_site_fract_y
_atom_site_fract_z
Si Si1 0.844893 0.179367 0.250935
Si Si2 0.402737 0.825379 0.672441
Si Si3 0.500000 0.169162 0.452996
Si Si4 0.677142 0.320888 0.454719
Si Si5 0.598672 0.826099 0.830320
Si Si6 0.743941 0.321053 0.117037
O O1 0.750000 0.250000 0.250000
O O2 0.896347 0.221448 0.211238
O O3 0.897260 0.245090 0.287975
O O4 0.837597 0.000000 0.255470
O O5 0.500000 0.805168 0.654259
O O6 0.330637 0.772226 0.640934
O O7 0.385955 0.000000 0.684770
O O8 0.500000 0.159444 0.500000
O O9 0.585379 0.257165 0.438744
O O10 0.500000 0.000000 0.434115
O O11 0.695647 0.270119 0.500000
O O12 0.675269 0.500000 0.450935
O O13 0.752025 0.251680 0.426847
O O14 0.500000 0.816744 0.846032
O O15 0.658840 0.741817 0.861828
O O16 0.629577 0.000000 0.825883
O O17 0.735925 0.500000 0.112954
#
# Coordination Sequence:
#
# PCOD8291759 Si02
#       6
#    16  16   8  16  16  16
#     4  12  23  37  59  85 116 155 199 244 292 344
#     4  10  22  39  57  82 118 156 193 235 287 344
#     4   9  17  31  53  81 113 151 197 241 283 341
#     4  10  21  37  57  83 118 158 198 241 294 357
#     4  11  24  42  64  88 117 155 197 245 300 354
#     4  11  23  38  61  89 118 154 195 245 294 346
#
# _framework density 19.309007000000001
#
# number of rings (size 3 to 8) (size 9 to 14) (size 15 to 20)
#    0.000    1.364    1.818    4.091    1.273    6.909 
#    0.000    0.000    0.000    0.545    0.000    3.818 
#    0.000    0.000    0.000    0.000    0.000    0.000 
#
# Total GULP energy -545786.783705 kJ/mol
# GULP energy per Si atom -12404.245084 kJ/mol
# Density = 1.926506 g / cm^3
# Si number density = 19.309007 Si / 1000 Ang^3
#
#
#
# Elastic Constant Matrix: (Units=GPa)
#
#
# Indices 1 2 3 4 5 6 
#
# 1 92.9207 27.6719 42.2444 0.0000 0.0000 0.0000
# 2 27.6719 99.4049 50.5055 0.0000 0.0000 0.0000
# 3 42.2444 50.5055 108.5558 0.0000 0.0000 0.0000
# 4 0.0000 0.0000 0.0000 31.7233 0.0000 0.0000
# 5 0.0000 0.0000 0.0000 0.0000 27.1218 0.0000
# 6 0.0000 0.0000 0.0000 0.0000 0.0000 31.4886
#
#
#
# Elastic Compliance Matrix: (Units=1/GPa)
#
#
# Indices 1 2 3 4 5 6 
#
# 1 0.013221 -0.001397 -0.004495 0.000000 0.000000 0.000000
# 2 -0.001397 0.013321 -0.005654 0.000000 0.000000 0.000000
# 3 -0.004495 -0.005654 0.013592 0.000000 0.000000 0.000000
# 4 0.000000 0.000000 0.000000 0.031523 0.000000 0.000000
# 5 0.000000 0.000000 0.000000 0.000000 0.036871 0.000000
# 6 0.000000 0.000000 0.000000 0.000000 0.000000 0.031758
#
#
# Mechanical properties :
#
#
# Convention : Reuss Voigt Hill
#
# Bulk Modulus (GPa) = 58.67741 60.19168 59.43455
# Shear Modulus (GPa) = 29.57545 30.09736 29.83641
#
# Velocity S-wave (km/s) = 3.91793 3.95235 3.93518
# Velocity P-wave (km/s) = 7.13593 7.21586 7.17600
#
# Compressibility (1/GPa) = 0.01704233
#
# Stress axis : x y z
#
# Youngs Moduli (GPa) = 75.63443 75.06669 73.57314
#
# Poissons Ratio (x) = 0.10483 0.33074
# Poissons Ratio (y) = 0.10563 0.41601
# Poissons Ratio (z) = 0.34001 0.42445
#
# Static dielectric constant tensor:
#      x y z
#    x 3.477910 0.000000 0.000000 
#    y 0.000000 3.646430 0.000000 
#    z 0.000000 0.000000 3.527920 
# 
# 
# High freq. dielectric constant tensor:
#      x y z
#    x 1.741340 0.000000 0.000000 
#    y 0.000000 1.764050 0.000000 
#    z 0.000000 0.000000 1.745660 
# 
# From -- ./inp_files/70349.got.cif
#   From: 2010.06.25/outbox.cif.g09.slc.cpg/sg71_36_cif.got.tgz:70349.got - 2010.06.28 04:59:45.
