data_PCOD8291745
_publ_section_title
;
Structure prediction by ZEFSAII (Michael W. Deem and Ramdas Pophale) SiO2 
 PCOD8291745
Probable space group: I M M M
;
_chemical_formula_sum "Si O2"
_cell_formula_units_Z 104
_cell_length_a 8.738760
_cell_length_b 27.393250
_cell_length_c 21.512182
_cell_angle_alpha 90.000000
_cell_angle_beta 90.000000
_cell_angle_gamma 90.000000
_cell_volume 5149.651468
_symmetry_space_group_name_H-M "I M M M"
_symmetry_group_IT_number 71
_symmetry_cell_setting 'orthorhombic'
loop_
_space_group_symop_operation_xyz
x,y,z
-x,-y,z
x,-y,-z
-x,y,-z
-x,-y,-z
x,y,-z
-x,y,z
x,-y,z
1/2+x,1/2+y,1/2+z
1/2-x,1/2-y,1/2+z
1/2+x,1/2-y,1/2-z
1/2-x,1/2+y,1/2-z
1/2-x,1/2-y,1/2-z
1/2+x,1/2+y,1/2-z
1/2-x,1/2+y,1/2+z
1/2+x,1/2-y,1/2+z
loop_
_atom_site_type_symbol
_atom_site_label
_atom_site_fract_x
_atom_site_fract_y
_atom_site_fract_z
Si Si1 0.181074 0.233433 0.572458
Si Si2 0.169349 0.632445 0.927437
Si Si3 0.817893 0.055528 0.649861
Si Si4 0.683152 0.718547 0.306256
Si Si5 0.319574 0.052856 0.000000
Si Si6 0.829776 0.557835 0.369052
Si Si7 0.176560 0.886949 0.767364
O O1 0.231400 0.245126 0.500000
O O2 0.230164 0.179014 0.592994
O O3 0.256185 0.268845 0.624234
O O4 0.000000 0.237746 0.578073
O O5 0.253297 0.581677 0.911215
O O6 0.000000 0.635837 0.896787
O O7 0.151043 0.632607 0.000000
O O8 0.750772 0.089598 0.705297
O O9 0.000000 0.054311 0.648754
O O10 0.755103 0.000000 0.655047
O O11 0.500000 0.722268 0.307258
O O12 0.750000 0.750000 0.250000
O O13 0.745549 0.664554 0.289071
O O14 0.278433 0.081034 0.936029
O O15 0.500000 0.044314 0.000000
O O16 0.236840 0.000000 0.000000
O O17 0.831121 0.500000 0.375525
O O18 0.703066 0.573511 0.320599
O O19 0.000000 0.576288 0.349774
O O20 0.000000 0.879735 0.754597
#
# Coordination Sequence:
#
# PCOD8291745 Si02
#       7
#    16  16  16  16   8  16  16
#     4  10  21  39  63  89 118 154 197 244 296 358
#     4  10  21  37  59  87 117 149 186 232 288 348
#     4  10  21  37  57  81 113 154 196 238 284 339
#     4  11  23  39  61  87 116 151 193 243 296 352
#     4   7  12  26  47  71  99 131 169 213 257 299
#     4   9  17  31  53  78 104 138 180 223 266 316
#     4  10  22  38  54  78 110 144 181 227 283 333
#
# _framework density 20.195540999999999
#
# number of rings (size 3 to 8) (size 9 to 14) (size 15 to 20)
#    0.000    2.231    0.000    3.692    0.000    6.462 
#    1.385    1.923    0.000    1.385    0.000    0.000 
#    0.000    0.000    0.000    0.000    0.000    0.000 
#
# Total GULP energy -644258.318364 kJ/mol
# GULP energy per Si atom -12389.583045 kJ/mol
# Density = 2.014958 g / cm^3
# Si number density = 20.195541 Si / 1000 Ang^3
#
#
#
# Elastic Constant Matrix: (Units=GPa)
#
#
# Indices 1 2 3 4 5 6 
#
# 1 48.8092 32.1072 26.3549 0.0000 0.0000 0.0000
# 2 32.1072 99.3421 26.7729 0.0000 0.0000 0.0000
# 3 26.3549 26.7729 53.6561 -0.0001 0.0000 0.0000
# 4 0.0000 0.0000 -0.0001 31.1906 0.0000 0.0000
# 5 0.0000 0.0000 0.0000 0.0000 32.0981 0.0000
# 6 0.0000 0.0000 0.0000 0.0000 0.0000 27.8839
#
#
#
# Elastic Compliance Matrix: (Units=1/GPa)
#
#
# Indices 1 2 3 4 5 6 
#
# 1 0.031561 -0.006958 -0.012030 0.000000 0.000000 0.000000
# 2 -0.006958 0.013164 -0.003151 0.000000 0.000000 0.000000
# 3 -0.012030 -0.003151 0.026118 0.000000 0.000000 0.000000
# 4 0.000000 0.000000 0.000000 0.032061 0.000000 0.000000
# 5 0.000000 0.000000 0.000000 0.000000 0.031155 0.000000
# 6 0.000000 0.000000 0.000000 0.000000 0.000000 0.035863
#
#
# Mechanical properties :
#
#
# Convention : Reuss Voigt Hill
#
# Bulk Modulus (GPa) = 37.64347 41.36418 39.50382
# Shear Modulus (GPa) = 22.41595 26.00601 24.21098
#
# Velocity S-wave (km/s) = 3.33520 3.59236 3.46617
# Velocity P-wave (km/s) = 5.78890 6.14272 5.96843
#
# Compressibility (1/GPa) = 0.02656503
#
# Stress axis : x y z
#
# Youngs Moduli (GPa) = 31.68478 75.96314 38.28725
#
# Poissons Ratio (x) = 0.52857 0.46060
# Poissons Ratio (y) = 0.22047 0.12064
# Poissons Ratio (z) = 0.38117 0.23935
#
# Static dielectric constant tensor:
#      x y z
#    x 3.622860 0.000000 0.000000 
#    y 0.000000 3.746060 0.000000 
#    z 0.000000 0.000000 4.015870 
# 
# 
# High freq. dielectric constant tensor:
#      x y z
#    x 1.773290 0.000000 0.000000 
#    y 0.000000 1.777130 0.000000 
#    z 0.000000 0.000000 1.803300 
# 
# From -- ./inp_files/50926.got.cif
#   From: 2010.06.25/outbox.cif.g09.slc.cpg/sg71_26_cif.got.tgz:50926.got - 2010.06.28 04:59:45.
