data_PCOD8291995
_publ_section_title
;
Structure prediction by ZEFSAII (Michael W. Deem and Ramdas Pophale) SiO2 
 PCOD8291995
Probable space group: I M M M
;
_chemical_formula_sum "Si O2"
_cell_formula_units_Z 90
_cell_length_a 8.907812
_cell_length_b 23.783136
_cell_length_c 22.735910
_cell_angle_alpha 90.000000
_cell_angle_beta 90.000000
_cell_angle_gamma 90.000000
_cell_volume 4816.732225
_symmetry_space_group_name_H-M "I M M M"
_symmetry_group_IT_number 71
_symmetry_cell_setting 'orthorhombic'
loop_
_space_group_symop_operation_xyz
x,y,z
-x,-y,z
x,-y,-z
-x,y,-z
-x,-y,-z
x,y,-z
-x,y,z
x,-y,z
1/2+x,1/2+y,1/2+z
1/2-x,1/2-y,1/2+z
1/2+x,1/2-y,1/2-z
1/2-x,1/2+y,1/2-z
1/2-x,1/2-y,1/2-z
1/2+x,1/2+y,1/2-z
1/2-x,1/2+y,1/2+z
1/2+x,1/2-y,1/2+z
loop_
_atom_site_type_symbol
_atom_site_label
_atom_site_fract_x
_atom_site_fract_y
_atom_site_fract_z
Si Si1 0.677212 0.858097 0.380105
Si Si2 0.500000 0.500000 0.000000
Si Si3 0.822771 0.754111 0.813470
Si Si4 0.675662 0.867712 0.836525
Si Si5 0.338598 0.387035 0.000000
Si Si6 0.321591 0.936844 0.723856
Si Si7 0.830768 0.065787 0.066610
O O1 0.500000 0.861112 0.387699
O O2 0.727179 0.798269 0.353600
O O3 0.749798 0.867431 0.442820
O O4 0.734134 0.906880 0.335722
O O5 0.363843 0.545733 0.000000
O O6 0.750000 0.750000 0.750000
O O7 0.765792 0.810182 0.844907
O O8 0.000000 0.754938 0.805386
O O9 0.500000 0.854778 0.830432
O O10 0.736767 0.901326 0.779568
O O11 0.706587 0.904287 0.893987
O O12 0.500000 0.355465 0.000000
O O13 0.500000 0.939257 0.725996
O O14 0.254070 0.000000 0.725816
O O15 0.000000 0.080309 0.087731
O O16 0.801648 0.000000 0.071157
O O17 0.808276 0.086529 0.000000
#
# Coordination Sequence:
#
# PCOD8291995 Si02
#       7
#    16   2  16  16   8  16  16
#     4  10  21  40  63  86 115 158 207 246 290 361
#     4   8  24  44  62  88 136 156 190 252 320 380
#     4  11  22  39  62  87 117 154 198 245 298 355
#     4  11  21  36  57  86 121 154 197 244 295 358
#     4  10  23  41  61  87 123 156 193 248 306 358
#     4   9  18  32  54  85 118 149 185 236 289 344
#     4   9  19  37  59  83 116 157 198 240 292 353
#
# _framework density 18.684867000000001
#
# number of rings (size 3 to 8) (size 9 to 14) (size 15 to 20)
#    0.267    1.778    1.778    2.400    1.244    2.844 
#    1.600    1.333    0.000    1.067    0.000    0.000 
#    0.000    0.000    0.000    0.000    0.000    0.000 
#
# Total GULP energy -557503.642692 kJ/mol
# GULP energy per Si atom -12388.969838 kJ/mol
# Density = 1.864234 g / cm^3
# Si number density = 18.684867 Si / 1000 Ang^3
#
#
#
# Elastic Constant Matrix: (Units=GPa)
#
#
# Indices 1 2 3 4 5 6 
#
# 1 50.1137 42.6409 42.0731 0.0000 0.0000 0.0000
# 2 42.6409 138.0483 72.5984 0.0000 0.0000 0.0000
# 3 42.0731 72.5984 137.8229 0.0000 0.0000 0.0000
# 4 0.0000 0.0000 0.0000 23.9180 0.0000 0.0000
# 5 0.0000 0.0000 0.0000 0.0000 31.3810 0.0000
# 6 0.0000 0.0000 0.0000 0.0000 0.0000 30.7305
#
#
#
# Elastic Compliance Matrix: (Units=1/GPa)
#
#
# Indices 1 2 3 4 5 6 
#
# 1 0.030241 -0.006205 -0.005963 0.000000 0.000000 0.000000
# 2 -0.006205 0.011292 -0.004054 0.000000 0.000000 0.000000
# 3 -0.005963 -0.004054 0.011212 0.000000 0.000000 0.000000
# 4 0.000000 0.000000 0.000000 0.041809 0.000000 0.000000
# 5 0.000000 0.000000 0.000000 0.000000 0.031866 0.000000
# 6 0.000000 0.000000 0.000000 0.000000 0.000000 0.032541
#
#
# Mechanical properties :
#
#
# Convention : Reuss Voigt Hill
#
# Bulk Modulus (GPa) = 49.26023 71.17886 60.21955
# Shear Modulus (GPa) = 25.23053 28.45074 26.84064
#
# Velocity S-wave (km/s) = 3.67866 3.90636 3.79422
# Velocity P-wave (km/s) = 6.66815 7.65005 7.17592
#
# Compressibility (1/GPa) = 0.02030035
#
# Stress axis : x y z
#
# Youngs Moduli (GPa) = 33.06811 88.55445 89.19351
#
# Poissons Ratio (x) = 0.54947 0.53187
# Poissons Ratio (y) = 0.20518 0.36161
# Poissons Ratio (z) = 0.19719 0.35901
#
# Static dielectric constant tensor:
#      x y z
#    x 3.284190 0.000000 0.000000 
#    y 0.000000 3.766990 0.000000 
#    z 0.000000 0.000000 3.401480 
# 
# 
# High freq. dielectric constant tensor:
#      x y z
#    x 1.712680 0.000000 0.000000 
#    y 0.000000 1.735790 0.000000 
#    z 0.000000 0.000000 1.722630 
# 
# From -- ./inp_files/57622.got.cif
#   From: 2010.06.25/outbox.cif.g09.slc.cpg/sg71_29_cif.got.tgz:57622.got - 2010.06.28 04:59:45.
