data_PCOD8291191
_publ_section_title
;
Structure prediction by ZEFSAII (Michael W. Deem and Ramdas Pophale) SiO2 
 PCOD8291191
Probable space group: I M M M
;
_chemical_formula_sum "Si O2"
_cell_formula_units_Z 104
_cell_length_a 13.398848
_cell_length_b 15.046216
_cell_length_c 26.114647
_cell_angle_alpha 90.000000
_cell_angle_beta 90.000000
_cell_angle_gamma 90.000000
_cell_volume 5264.764050
_symmetry_space_group_name_H-M "I M M M"
_symmetry_group_IT_number 71
_symmetry_cell_setting 'orthorhombic'
loop_
_space_group_symop_operation_xyz
x,y,z
-x,-y,z
x,-y,-z
-x,y,-z
-x,-y,-z
x,y,-z
-x,y,z
x,-y,z
1/2+x,1/2+y,1/2+z
1/2-x,1/2-y,1/2+z
1/2+x,1/2-y,1/2-z
1/2-x,1/2+y,1/2-z
1/2-x,1/2-y,1/2-z
1/2+x,1/2+y,1/2-z
1/2-x,1/2+y,1/2+z
1/2+x,1/2-y,1/2+z
loop_
_atom_site_type_symbol
_atom_site_label
_atom_site_fract_x
_atom_site_fract_y
_atom_site_fract_z
Si Si1 0.609301 0.398860 0.196451
Si Si2 0.883198 0.242626 0.887732
Si Si3 0.218645 0.174079 0.212402
Si Si4 0.266522 0.605966 0.100292
Si Si5 0.240288 0.102036 0.058598
Si Si6 0.611234 0.395281 0.000000
Si Si7 0.889550 0.395806 0.355601
O O1 0.500000 0.352299 0.197363
O O2 0.595222 0.500000 0.180485
O O3 0.658897 0.395840 0.252548
O O4 0.676322 0.357149 0.150967
O O5 0.854099 0.209184 0.831456
O O6 0.835577 0.338290 0.901535
O O7 0.851757 0.166346 0.928137
O O8 0.000000 0.256980 0.891343
O O9 0.250000 0.250000 0.250000
O O10 0.321066 0.132905 0.191703
O O11 0.243254 0.500000 0.101823
O O12 0.330391 0.634501 0.050854
O O13 0.336347 0.132483 0.091445
O O14 0.209538 0.000000 0.071388
O O15 0.271181 0.112803 0.000000
O O16 0.601232 0.500000 0.000000
O O17 0.500000 0.353016 0.000000
O O18 0.902191 0.500000 0.353298
O O19 0.000000 0.351596 0.352359
#
# Coordination Sequence:
#
# PCOD8291191 Si02
#       7
#    16  16  16  16  16   8  16
#     4  10  20  36  60  86 113 150 195 243 295 347
#     4  11  24  40  59  85 120 160 199 244 296 347
#     4  11  21  38  55  79 117 153 194 245 288 343
#     4  10  21  39  60  88 123 155 195 243 290 350
#     4   9  20  40  64  89 119 152 194 245 293 349
#     4   9  18  36  63  89 116 151 191 243 303 351
#     4   9  19  36  59  86 115 150 189 234 294 355
#
# _framework density 19.753971
#
# number of rings (size 3 to 8) (size 9 to 14) (size 15 to 20)
#    0.000    2.077    1.538    1.385    1.077    4.923 
#    0.000    3.077    0.000    1.385    0.000    0.000 
#    0.000    0.000    0.000    0.000    0.000    0.000 
#
# Total GULP energy -644676.501618 kJ/mol
# GULP energy per Si atom -12397.625031 kJ/mol
# Density = 1.970901 g / cm^3
# Si number density = 19.753971 Si / 1000 Ang^3
#
#
#
# Elastic Constant Matrix: (Units=GPa)
#
#
# Indices 1 2 3 4 5 6 
#
# 1 186.2532 43.3357 63.7782 0.0000 0.0000 0.0000
# 2 43.3357 46.5090 25.0654 0.0000 0.0000 0.0000
# 3 63.7782 25.0654 131.7504 0.0000 0.0000 0.0000
# 4 0.0000 0.0000 0.0000 29.9080 0.0000 0.0000
# 5 0.0000 0.0000 0.0000 0.0000 19.9774 0.0000
# 6 0.0000 0.0000 0.0000 0.0000 0.0000 28.0437
#
#
#
# Elastic Compliance Matrix: (Units=1/GPa)
#
#
# Indices 1 2 3 4 5 6 
#
# 1 0.007573 -0.005661 -0.002589 0.000000 0.000000 0.000000
# 2 -0.005661 0.028189 -0.002623 0.000000 0.000000 0.000000
# 3 -0.002589 -0.002623 0.009342 0.000000 0.000000 0.000000
# 4 0.000000 0.000000 0.000000 0.033436 0.000000 0.000000
# 5 0.000000 0.000000 0.000000 0.000000 0.050057 0.000000
# 6 0.000000 0.000000 0.000000 0.000000 0.000000 0.035659
#
#
# Mechanical properties :
#
#
# Convention : Reuss Voigt Hill
#
# Bulk Modulus (GPa) = 42.80900 69.87457 56.34179
# Shear Modulus (GPa) = 25.80164 31.07472 28.43818
#
# Velocity S-wave (km/s) = 3.61799 3.97052 3.79835
# Velocity P-wave (km/s) = 6.25870 7.51460 6.91522
#
# Compressibility (1/GPa) = 0.02335957
#
# Stress axis : x y z
#
# Youngs Moduli (GPa) = 132.05489 35.47461 107.04021
#
# Poissons Ratio (x) = 0.20081 0.27711
# Poissons Ratio (y) = 0.74753 0.28073
# Poissons Ratio (z) = 0.34187 0.09304
#
# Static dielectric constant tensor:
#      x y z
#    x 3.300880 0.000000 0.000000 
#    y 0.000000 3.477440 0.000000 
#    z 0.000000 0.000000 4.597520 
# 
# 
# High freq. dielectric constant tensor:
#      x y z
#    x 1.763350 0.000000 0.000000 
#    y 0.000000 1.766860 0.000000 
#    z 0.000000 0.000000 1.780050 
# 
# From -- ./inp_files/64634.got.cif
#   From: 2010.06.25/outbox.cif.g09.slc.cpg/sg71_33_cif.got.tgz:64634.got - 2010.06.28 04:59:45.
