data_PCOD8291421
_publ_section_title
;
Structure prediction by ZEFSAII (Michael W. Deem and Ramdas Pophale) SiO2 
 PCOD8291421
Probable space group: I M M M
;
_chemical_formula_sum "Si O2"
_cell_formula_units_Z 72
_cell_length_a 9.494687
_cell_length_b 12.978392
_cell_length_c 32.557430
_cell_angle_alpha 90.000000
_cell_angle_beta 90.000000
_cell_angle_gamma 90.000000
_cell_volume 4011.914375
_symmetry_space_group_name_H-M "I M M M"
_symmetry_group_IT_number 71
_symmetry_cell_setting 'orthorhombic'
loop_
_space_group_symop_operation_xyz
x,y,z
-x,-y,z
x,-y,-z
-x,y,-z
-x,-y,-z
x,y,-z
-x,y,z
x,-y,z
1/2+x,1/2+y,1/2+z
1/2-x,1/2-y,1/2+z
1/2+x,1/2-y,1/2-z
1/2-x,1/2+y,1/2-z
1/2-x,1/2-y,1/2-z
1/2+x,1/2+y,1/2-z
1/2-x,1/2+y,1/2+z
1/2+x,1/2-y,1/2+z
loop_
_atom_site_type_symbol
_atom_site_label
_atom_site_fract_x
_atom_site_fract_y
_atom_site_fract_z
Si Si1 0.837377 0.000000 0.951941
Si Si2 0.164284 0.182542 0.308020
Si Si3 0.335755 0.276564 0.451442
Si Si4 0.340524 0.887363 0.766068
Si Si5 0.164829 0.880453 0.602114
O O1 0.777522 0.110297 0.935466
O O2 0.000000 0.000000 0.941124
O O3 0.813211 0.000000 0.000000
O O4 0.242692 0.116229 0.273786
O O5 0.199757 0.303181 0.300431
O O6 0.219524 0.150611 0.352691
O O7 0.000000 0.157190 0.304089
O O8 0.314178 0.267294 0.500000
O O9 0.500000 0.263869 0.440173
O O10 0.247724 0.186179 0.430906
O O11 0.500000 0.868193 0.750998
O O12 0.323271 0.000000 0.786520
O O13 0.000000 0.856401 0.597677
O O14 0.197457 0.000000 0.593915
#
# Coordination Sequence:
#
# PCOD8291421 Si02
#       5
#     8  16  16  16  16
#     4   7  12  28  53  75  95 121 153 195 249 299
#     4   9  18  33  50  69  97 132 166 199 242 295
#     4   9  18  34  56  78  99 127 165 207 251 298
#     4   9  17  30  50  74  97 123 160 206 250 289
#     4  10  21  35  49  70 103 139 171 204 246 295
#
# _framework density 17.946545
#
# number of rings (size 3 to 8) (size 9 to 14) (size 15 to 20)
#    0.000    3.000    0.000    2.000    0.000    3.556 
#    2.000    2.778    0.000    2.000    0.000    0.000 
#    0.000    0.000    0.000    0.000    0.000    0.000 
#
# Total GULP energy -446087.283560 kJ/mol
# GULP energy per Si atom -12391.313432 kJ/mol
# Density = 1.790570 g / cm^3
# Si number density = 17.946545 Si / 1000 Ang^3
#
#
#
# Elastic Constant Matrix: (Units=GPa)
#
#
# Indices 1 2 3 4 5 6 
#
# 1 44.3597 47.3954 32.4618 0.0000 0.0000 0.0000
# 2 47.3954 158.4635 55.1487 0.0000 0.0000 0.0000
# 3 32.4618 55.1487 64.1983 0.0000 0.0000 0.0000
# 4 0.0000 0.0000 0.0000 23.9077 0.0000 0.0000
# 5 0.0000 0.0000 0.0000 0.0000 28.1011 0.0000
# 6 0.0000 0.0000 0.0000 0.0000 0.0000 27.5741
#
#
#
# Elastic Compliance Matrix: (Units=1/GPa)
#
#
# Indices 1 2 3 4 5 6 
#
# 1 0.040785 -0.007163 -0.014470 0.000000 0.000000 0.000000
# 2 -0.007163 0.010260 -0.005192 0.000000 0.000000 0.000000
# 3 -0.014470 -0.005192 0.027353 0.000000 0.000000 0.000000
# 4 0.000000 0.000000 0.000000 0.041828 0.000000 0.000000
# 5 0.000000 0.000000 0.000000 0.000000 0.035586 0.000000
# 6 0.000000 0.000000 0.000000 0.000000 0.000000 0.036266
#
#
# Mechanical properties :
#
#
# Convention : Reuss Voigt Hill
#
# Bulk Modulus (GPa) = 40.40506 59.67038 50.03772
# Shear Modulus (GPa) = 19.68701 24.71761 22.20231
#
# Velocity S-wave (km/s) = 3.31566 3.71521 3.52111
# Velocity P-wave (km/s) = 6.10091 7.19200 6.66881
#
# Compressibility (1/GPa) = 0.02474938
#
# Stress axis : x y z
#
# Youngs Moduli (GPa) = 24.51911 97.46849 36.55880
#
# Poissons Ratio (x) = 0.69813 0.52899
# Poissons Ratio (y) = 0.17562 0.18980
# Poissons Ratio (z) = 0.35478 0.50603
#
# Static dielectric constant tensor:
#      x y z
#    x 3.162970 0.000000 0.000000 
#    y 0.000000 3.699510 0.000000 
#    z 0.000000 0.000000 3.060230 
# 
# 
# High freq. dielectric constant tensor:
#      x y z
#    x 1.676430 0.000000 0.000000 
#    y 0.000000 1.718900 0.000000 
#    z 0.000000 0.000000 1.666880 
# 
# From -- ./inp_files/20042.got.cif
#   From: 2010.06.25/outbox.cif.g09.slc.cpg/sg71_11_cif.got.tgz:20042.got - 2010.06.28 04:59:45.
