data_PCOD8291754
_publ_section_title
;
Structure prediction by ZEFSAII (Michael W. Deem and Ramdas Pophale) SiO2 
 PCOD8291754
Probable space group: I M M M
;
_chemical_formula_sum "Si O2"
_cell_formula_units_Z 104
_cell_length_a 26.652915
_cell_length_b 9.206787
_cell_length_c 23.057021
_cell_angle_alpha 90.000000
_cell_angle_beta 90.000000
_cell_angle_gamma 90.000000
_cell_volume 5657.909613
_symmetry_space_group_name_H-M "I M M M"
_symmetry_group_IT_number 71
_symmetry_cell_setting 'orthorhombic'
loop_
_space_group_symop_operation_xyz
x,y,z
-x,-y,z
x,-y,-z
-x,y,-z
-x,-y,-z
x,y,-z
-x,y,z
x,-y,z
1/2+x,1/2+y,1/2+z
1/2-x,1/2-y,1/2+z
1/2+x,1/2-y,1/2-z
1/2-x,1/2+y,1/2-z
1/2-x,1/2-y,1/2-z
1/2+x,1/2+y,1/2-z
1/2-x,1/2+y,1/2+z
1/2+x,1/2-y,1/2+z
loop_
_atom_site_type_symbol
_atom_site_label
_atom_site_fract_x
_atom_site_fract_y
_atom_site_fract_z
Si Si1 0.800338 0.324035 0.882871
Si Si2 0.704072 0.663239 0.816744
Si Si3 0.728079 0.323753 0.500000
Si Si4 0.338404 0.842635 0.000000
Si Si5 0.942193 0.661169 0.274677
Si Si6 0.943064 0.000000 0.437657
Si Si7 0.889133 0.252499 0.614708
Si Si8 0.358970 0.674659 0.289618
O O1 0.802167 0.500000 0.888741
O O2 0.752747 0.262799 0.845493
O O3 0.848918 0.260029 0.849464
O O4 0.799582 0.246146 0.944788
O O5 0.719605 0.500000 0.803815
O O6 0.659598 0.668778 0.862977
O O7 0.684193 0.730133 0.755990
O O8 0.722178 0.500000 0.500000
O O9 0.785399 0.256165 0.500000
O O10 0.373492 0.832212 0.943917
O O11 0.314525 0.000000 0.000000
O O12 0.939886 0.500000 0.246978
O O13 0.914287 0.645775 0.336989
O O14 0.913503 0.776572 0.233948
O O15 0.000000 0.711990 0.281453
O O16 0.931757 0.861571 0.399593
O O17 0.912905 0.000000 0.500000
O O18 0.000000 0.000000 0.453991
O O19 0.358980 0.500000 0.297012
#
# Coordination Sequence:
#
# PCOD8291754 Si02
#       8
#    16  16   8   8  16   8  16  16
#     4  11  21  36  56  82 113 148 188 227 280 339
#     4   9  18  31  51  78 106 142 182 225 276 333
#     4  11  23  37  53  81 115 152 194 236 278 330
#     4  11  22  34  50  73 104 151 198 241 289 335
#     4  10  22  39  58  81 109 144 187 236 289 342
#     4  11  22  32  48  72  98 138 192 249 300 338
#     4  11  19  35  52  74 106 143 188 239 287 335
#     4  10  21  37  57  83 112 146 183 231 285 337
#
# _framework density 18.381347000000002
#
# number of rings (size 3 to 8) (size 9 to 14) (size 15 to 20)
#    0.000    1.615    3.077    2.538    1.077    0.308 
#    1.385    1.538    0.000    1.846    0.000    0.538 
#    0.000    4.308    0.000    0.000    0.000    0.000 
#
# Total GULP energy -644257.038823 kJ/mol
# GULP energy per Si atom -12389.558439 kJ/mol
# Density = 1.833951 g / cm^3
# Si number density = 18.381347 Si / 1000 Ang^3
#
#
#
# Elastic Constant Matrix: (Units=GPa)
#
#
# Indices 1 2 3 4 5 6 
#
# 1 74.4668 27.2954 57.5610 0.0000 0.0000 0.0000
# 2 27.2954 92.0034 43.1458 0.0000 0.0000 0.0000
# 3 57.5610 43.1458 117.0530 0.0000 0.0000 0.0000
# 4 0.0000 0.0000 0.0000 28.2161 0.0000 0.0000
# 5 0.0000 0.0000 0.0000 0.0000 35.6087 0.0000
# 6 0.0000 0.0000 0.0000 0.0000 0.0000 95.7845
#
#
#
# Elastic Compliance Matrix: (Units=1/GPa)
#
#
# Indices 1 2 3 4 5 6 
#
# 1 0.021894 -0.001749 -0.010122 0.000000 0.000000 0.000000
# 2 -0.001749 0.013280 -0.004035 0.000000 0.000000 0.000000
# 3 -0.010122 -0.004035 0.015008 0.000000 0.000000 0.000000
# 4 0.000000 0.000000 0.000000 0.035441 0.000000 0.000000
# 5 0.000000 0.000000 0.000000 0.000000 0.028083 0.000000
# 6 0.000000 0.000000 0.000000 0.000000 0.000000 0.010440
#
#
# Mechanical properties :
#
#
# Convention : Reuss Voigt Hill
#
# Bulk Modulus (GPa) = 54.43469 59.94750 57.19110
# Shear Modulus (GPa) = 30.84894 42.28993 36.56943
#
# Velocity S-wave (km/s) = 4.10112 4.80176 4.46520
# Velocity P-wave (km/s) = 7.21831 7.96408 7.60035
#
# Compressibility (1/GPa) = 0.01837064
#
# Stress axis : x y z
#
# Youngs Moduli (GPa) = 45.67562 75.29942 66.63196
#
# Poissons Ratio (x) = 0.13168 0.67442
# Poissons Ratio (y) = 0.07987 0.26887
# Poissons Ratio (z) = 0.46231 0.30385
#
# Static dielectric constant tensor:
#      x y z
#    x 3.223010 0.000000 0.000000 
#    y 0.000000 3.231980 0.000000 
#    z 0.000000 0.000000 3.367740 
# 
# 
# High freq. dielectric constant tensor:
#      x y z
#    x 1.692930 0.000000 0.000000 
#    y 0.000000 1.707760 0.000000 
#    z 0.000000 0.000000 1.706070 
# 
# From -- ./inp_files/62026.got.cif
#   From: 2010.06.25/outbox.cif.g09.slc.cpg/sg71_32_cif.got.tgz:62026.got - 2010.06.28 04:59:45.
