data_PCOD8291823
_publ_section_title
;
Structure prediction by ZEFSAII (Michael W. Deem and Ramdas Pophale) SiO2 
 PCOD8291823
Probable space group: I M M M
;
_chemical_formula_sum "Si O2"
_cell_formula_units_Z 88
_cell_length_a 19.898459
_cell_length_b 8.837875
_cell_length_c 23.944992
_cell_angle_alpha 90.000000
_cell_angle_beta 90.000000
_cell_angle_gamma 90.000000
_cell_volume 4210.968528
_symmetry_space_group_name_H-M "I M M M"
_symmetry_group_IT_number 71
_symmetry_cell_setting 'orthorhombic'
loop_
_space_group_symop_operation_xyz
x,y,z
-x,-y,z
x,-y,-z
-x,y,-z
-x,-y,-z
x,y,-z
-x,y,z
x,-y,z
1/2+x,1/2+y,1/2+z
1/2-x,1/2-y,1/2+z
1/2+x,1/2-y,1/2-z
1/2-x,1/2+y,1/2-z
1/2-x,1/2-y,1/2-z
1/2+x,1/2+y,1/2-z
1/2-x,1/2+y,1/2+z
1/2+x,1/2-y,1/2+z
loop_
_atom_site_type_symbol
_atom_site_label
_atom_site_fract_x
_atom_site_fract_y
_atom_site_fract_z
Si Si1 0.574198 0.825889 0.170721
Si Si2 0.389699 0.675615 0.936929
Si Si3 0.676245 0.677928 0.747865
Si Si4 0.877620 0.176848 0.870566
Si Si5 0.247317 0.669802 0.437073
Si Si6 0.000000 0.678798 0.935767
O O1 0.500000 0.801147 0.197576
O O2 0.567945 0.775151 0.106210
O O3 0.631752 0.727290 0.199609
O O4 0.595614 0.000000 0.174649
O O5 0.403058 0.500000 0.925444
O O6 0.311323 0.710346 0.927766
O O7 0.411456 0.719520 0.000000
O O8 0.687503 0.500000 0.748781
O O9 0.750000 0.750000 0.750000
O O10 0.632276 0.725908 0.693799
O O11 0.807748 0.221347 0.898505
O O12 0.935568 0.268310 0.901201
O O13 0.894421 0.000000 0.876487
O O14 0.274299 0.673143 0.500000
O O15 0.222241 0.500000 0.421408
O O16 0.000000 0.500000 0.937656
O O17 0.000000 0.741834 0.000000
#
# Coordination Sequence:
#
# PCOD8291823 Si02
#       6
#    16  16  16  16  16   8
#     4  11  25  43  63  88 122 165 210 256 309 368
#     4  10  21  37  60  91 124 158 198 250 312 372
#     4  11  24  42  67  97 128 163 209 263 319 381
#     4  10  22  39  61  88 119 160 207 254 309 374
#     4   9  17  32  57  87 119 156 199 249 303 364
#     4  11  25  41  59  89 127 167 212 263 318 377
#
# _framework density 20.897805999999999
#
# number of rings (size 3 to 8) (size 9 to 14) (size 15 to 20)
#    0.000    1.727    0.000    3.545    1.273    8.000 
#    0.000    3.636    0.000    0.000    0.000    0.000 
#    0.000    0.000    0.000    0.000    0.000    0.000 
#
# Total GULP energy -545599.286984 kJ/mol
# GULP energy per Si atom -12399.983795 kJ/mol
# Density = 2.085024 g / cm^3
# Si number density = 20.897806 Si / 1000 Ang^3
#
#
#
# Elastic Constant Matrix: (Units=GPa)
#
#
# Indices 1 2 3 4 5 6 
#
# 1 95.3403 39.8527 53.2029 0.0000 0.0000 0.0000
# 2 39.8527 73.8962 41.8748 0.0000 0.0000 0.0000
# 3 53.2029 41.8748 115.9379 0.0000 0.0000 0.0000
# 4 0.0000 0.0000 0.0000 31.6046 0.0000 0.0000
# 5 0.0000 0.0000 0.0000 0.0000 35.1029 0.0000
# 6 0.0000 0.0000 0.0000 0.0000 0.0000 32.4587
#
#
#
# Elastic Compliance Matrix: (Units=1/GPa)
#
#
# Indices 1 2 3 4 5 6 
#
# 1 0.015704 -0.005514 -0.005215 0.000000 0.000000 0.000000
# 2 -0.005514 0.018951 -0.004314 0.000000 0.000000 0.000000
# 3 -0.005215 -0.004314 0.012577 0.000000 0.000000 0.000000
# 4 0.000000 0.000000 0.000000 0.031641 0.000000 0.000000
# 5 0.000000 0.000000 0.000000 0.000000 0.028488 0.000000
# 6 0.000000 0.000000 0.000000 0.000000 0.000000 0.030808
#
#
# Mechanical properties :
#
#
# Convention : Reuss Voigt Hill
#
# Bulk Modulus (GPa) = 58.32625 61.67057 59.99841
# Shear Modulus (GPa) = 28.74063 29.84950 29.29507
#
# Velocity S-wave (km/s) = 3.71252 3.78346 3.74816
# Velocity P-wave (km/s) = 6.80793 6.97572 6.89234
#
# Compressibility (1/GPa) = 0.01714494
#
# Stress axis : x y z
#
# Youngs Moduli (GPa) = 63.67973 52.76726 79.51281
#
# Poissons Ratio (x) = 0.29096 0.41463
# Poissons Ratio (y) = 0.35113 0.34306
# Poissons Ratio (z) = 0.33207 0.22766
#
# Static dielectric constant tensor:
#      x y z
#    x 4.042360 0.000000 0.000000 
#    y 0.000000 3.676620 0.000000 
#    z 0.000000 0.000000 4.055110 
# 
# 
# High freq. dielectric constant tensor:
#      x y z
#    x 1.822350 0.000000 0.000000 
#    y 0.000000 1.814070 0.000000 
#    z 0.000000 0.000000 1.830900 
# 
# From -- ./inp_files/61099.got.cif
#   From: 2010.06.25/outbox.cif.g09.slc.cpg/sg71_31_cif.got.tgz:61099.got - 2010.06.28 04:59:45.
