data_PCOD8291965
_publ_section_title
;
Structure prediction by ZEFSAII (Michael W. Deem and Ramdas Pophale) SiO2 
 PCOD8291965
Probable space group: I M M M
;
_chemical_formula_sum "Si O2"
_cell_formula_units_Z 88
_cell_length_a 8.035998
_cell_length_b 18.956753
_cell_length_c 29.877547
_cell_angle_alpha 90.000000
_cell_angle_beta 90.000000
_cell_angle_gamma 90.000000
_cell_volume 4551.438823
_symmetry_space_group_name_H-M "I M M M"
_symmetry_group_IT_number 71
_symmetry_cell_setting 'orthorhombic'
loop_
_space_group_symop_operation_xyz
x,y,z
-x,-y,z
x,-y,-z
-x,y,-z
-x,-y,-z
x,y,-z
-x,y,z
x,-y,z
1/2+x,1/2+y,1/2+z
1/2-x,1/2-y,1/2+z
1/2+x,1/2-y,1/2-z
1/2-x,1/2+y,1/2-z
1/2-x,1/2-y,1/2-z
1/2+x,1/2+y,1/2-z
1/2-x,1/2+y,1/2+z
1/2+x,1/2-y,1/2+z
loop_
_atom_site_type_symbol
_atom_site_label
_atom_site_fract_x
_atom_site_fract_y
_atom_site_fract_z
Si Si1 0.500000 0.420929 0.053059
Si Si2 0.313142 0.171355 0.448244
Si Si3 0.310662 0.785495 0.704883
Si Si4 0.812978 0.719362 0.383558
Si Si5 0.803180 0.921720 0.153586
Si Si6 0.694723 0.579755 0.755283
O O1 0.500000 0.500000 0.073377
O O2 0.669617 0.382115 0.069412
O O3 0.500000 0.424995 0.000000
O O4 0.282092 0.189684 0.500000
O O5 0.500000 0.139226 0.441572
O O6 0.304019 0.243884 0.420345
O O7 0.500000 0.764542 0.694843
O O8 0.250000 0.750000 0.750000
O O9 0.202214 0.758053 0.663952
O O10 0.292334 0.869715 0.710532
O O11 0.770993 0.636504 0.379612
O O12 0.000000 0.726927 0.400898
O O13 0.745509 0.905772 0.204419
O O14 0.000000 0.918966 0.151455
O O15 0.740748 0.000000 0.139283
O O16 0.500000 0.595366 0.759338
O O17 0.736626 0.500000 0.769259
#
# Coordination Sequence:
#
# PCOD8291965 Si02
#       6
#     8  16  16  16  16  16
#     4   9  18  36  62  92 123 153 189 235 288 348
#     4  10  21  39  63  91 121 154 193 239 292 347
#     4  12  23  35  52  78 110 145 190 236 283 339
#     4  12  23  36  58  85 114 151 193 239 288 341
#     4   9  18  33  54  80 111 147 188 235 285 339
#     4   9  18  34  54  75 104 142 181 227 282 334
#
# _framework density 19.334546
#
# number of rings (size 3 to 8) (size 9 to 14) (size 15 to 20)
#    0.000    1.727    2.727    4.364    0.000    1.091 
#    0.000    4.545    0.000    2.727    0.000    3.818 
#    0.000    0.000    0.000    0.000    0.000    0.000 
#
# Total GULP energy -545568.874204 kJ/mol
# GULP energy per Si atom -12399.292596 kJ/mol
# Density = 1.929054 g / cm^3
# Si number density = 19.334546 Si / 1000 Ang^3
#
#
#
# Elastic Constant Matrix: (Units=GPa)
#
#
# Indices 1 2 3 4 5 6 
#
# 1 98.0927 38.4906 18.7325 0.0000 0.0000 0.0000
# 2 38.4906 137.6364 38.2282 0.0000 0.0000 0.0000
# 3 18.7325 38.2282 56.0116 0.0000 0.0000 0.0000
# 4 0.0000 0.0000 0.0000 26.2008 0.0000 0.0000
# 5 0.0000 0.0000 0.0000 0.0000 22.1745 0.0000
# 6 0.0000 0.0000 0.0000 0.0000 0.0000 31.5966
#
#
#
# Elastic Compliance Matrix: (Units=1/GPa)
#
#
# Indices 1 2 3 4 5 6 
#
# 1 0.011641 -0.002683 -0.002062 0.000000 0.000000 0.000000
# 2 -0.002683 0.009583 -0.005643 0.000000 0.000000 0.000000
# 3 -0.002062 -0.005643 0.022395 0.000000 0.000000 0.000000
# 4 0.000000 0.000000 0.000000 0.038167 0.000000 0.000000
# 5 0.000000 0.000000 0.000000 0.000000 0.045097 0.000000
# 6 0.000000 0.000000 0.000000 0.000000 0.000000 0.031649
#
#
# Mechanical properties :
#
#
# Convention : Reuss Voigt Hill
#
# Bulk Modulus (GPa) = 43.77845 53.62703 48.70274
# Shear Modulus (GPa) = 26.74914 29.08036 27.91475
#
# Velocity S-wave (km/s) = 3.72356 3.88243 3.80383
# Velocity P-wave (km/s) = 6.41703 6.92057 6.67355
#
# Compressibility (1/GPa) = 0.02284229
#
# Stress axis : x y z
#
# Youngs Moduli (GPa) = 85.90395 104.34968 44.65331
#
# Poissons Ratio (x) = 0.27993 0.09209
# Poissons Ratio (y) = 0.23045 0.25200
# Poissons Ratio (z) = 0.17716 0.58888
#
# Static dielectric constant tensor:
#      x y z
#    x 3.597630 0.000000 0.000000 
#    y 0.000000 4.087480 0.000000 
#    z 0.000000 0.000000 3.253920 
# 
# 
# High freq. dielectric constant tensor:
#      x y z
#    x 1.758320 0.000000 0.000000 
#    y 0.000000 1.759550 0.000000 
#    z 0.000000 0.000000 1.711960 
# 
# From -- ./inp_files/67992.got.cif
#   From: 2010.06.25/outbox.cif.g09.slc.cpg/sg71_34_cif.got.tgz:67992.got - 2010.06.28 04:59:45.
