data_PCOD8291921
_publ_section_title
;
Structure prediction by ZEFSAII (Michael W. Deem and Ramdas Pophale) SiO2 
 PCOD8291921
Probable space group: I M M M
;
_chemical_formula_sum "Si O2"
_cell_formula_units_Z 68
_cell_length_a 7.720788
_cell_length_b 18.576878
_cell_length_c 23.241545
_cell_angle_alpha 90.000000
_cell_angle_beta 90.000000
_cell_angle_gamma 90.000000
_cell_volume 3333.491494
_symmetry_space_group_name_H-M "I M M M"
_symmetry_group_IT_number 71
_symmetry_cell_setting 'orthorhombic'
loop_
_space_group_symop_operation_xyz
x,y,z
-x,-y,z
x,-y,-z
-x,y,-z
-x,-y,-z
x,y,-z
-x,y,z
x,-y,z
1/2+x,1/2+y,1/2+z
1/2-x,1/2-y,1/2+z
1/2+x,1/2-y,1/2-z
1/2-x,1/2+y,1/2-z
1/2-x,1/2-y,1/2-z
1/2+x,1/2+y,1/2-z
1/2-x,1/2+y,1/2+z
1/2+x,1/2-y,1/2+z
loop_
_atom_site_type_symbol
_atom_site_label
_atom_site_fract_x
_atom_site_fract_y
_atom_site_fract_z
Si Si1 0.500000 0.078978 0.379274
Si Si2 0.799604 0.693018 0.376935
Si Si3 0.204062 0.159868 0.319200
Si Si4 0.802951 0.920348 0.206714
Si Si5 0.000000 0.629954 0.000000
Si Si6 0.294024 0.253396 0.000000
O O1 0.320272 0.116456 0.363380
O O2 0.500000 0.075823 0.447409
O O3 0.500000 0.000000 0.351967
O O4 0.750955 0.756757 0.332010
O O5 0.712615 0.619302 0.354781
O O6 0.742531 0.708785 0.442553
O O7 0.000000 0.677905 0.375351
O O8 0.269166 0.133747 0.256123
O O9 0.000000 0.145256 0.330584
O O10 0.000000 0.934358 0.221407
O O11 0.711644 0.000000 0.206102
O O12 0.823590 0.676422 0.000000
O O13 0.500000 0.273321 0.000000
#
# Coordination Sequence:
#
# PCOD8291921 Si02
#       6
#     8  16  16  16   4   8
#     4  12  25  38  62  94 124 163 202 241 301 363
#     4  10  21  38  63  88 115 157 204 253 301 352
#     4  10  22  41  62  88 123 162 203 247 296 359
#     4  10  22  38  58  88 126 160 195 248 310 364
#     4  12  23  40  64  86 125 160 194 260 299 338
#     4  10  22  41  62  90 117 153 209 254 297 356
#
# _framework density 20.399032999999999
#
# number of rings (size 3 to 8) (size 9 to 14) (size 15 to 20)
#    0.000    1.647    2.353    1.588    4.941    1.882 
#    0.000    0.588    0.000    5.647    0.000    0.000 
#    0.000    0.000    0.000    0.000    0.000    0.000 
#
# Total GULP energy -421288.931891 kJ/mol
# GULP energy per Si atom -12390.850938 kJ/mol
# Density = 2.035260 g / cm^3
# Si number density = 20.399033 Si / 1000 Ang^3
#
#
#
# Elastic Constant Matrix: (Units=GPa)
#
#
# Indices 1 2 3 4 5 6 
#
# 1 49.3098 22.8268 13.7223 0.0000 0.0000 0.0000
# 2 22.8268 129.3047 58.9950 0.0000 0.0000 0.0000
# 3 13.7223 58.9950 107.2172 0.0000 0.0000 0.0000
# 4 0.0000 0.0000 0.0000 0.9421 0.0000 0.0000
# 5 0.0000 0.0000 0.0000 0.0000 19.5743 0.0000
# 6 0.0000 0.0000 0.0000 0.0000 0.0000 14.7993
#
#
#
# Elastic Compliance Matrix: (Units=1/GPa)
#
#
# Indices 1 2 3 4 5 6 
#
# 1 0.022151 -0.003494 -0.000912 0.000000 0.000000 0.000000
# 2 -0.003494 0.010877 -0.005538 0.000000 0.000000 0.000000
# 3 -0.000912 -0.005538 0.012491 0.000000 0.000000 0.000000
# 4 0.000000 0.000000 0.000000 1.061453 0.000000 0.000000
# 5 0.000000 0.000000 0.000000 0.000000 0.051087 0.000000
# 6 0.000000 0.000000 0.000000 0.000000 0.000000 0.067571
#
#
# Mechanical properties :
#
#
# Convention : Reuss Voigt Hill
#
# Bulk Modulus (GPa) = 39.01613 52.99110 46.00362
# Shear Modulus (GPa) = 3.98704 19.74899 11.86801
#
# Velocity S-wave (km/s) = 1.39956 3.11486 2.41466
# Velocity P-wave (km/s) = 4.66687 6.24261 5.51134
#
# Compressibility (1/GPa) = 0.02563042
#
# Stress axis : x y z
#
# Youngs Moduli (GPa) = 45.14385 91.93598 80.05932
#
# Poissons Ratio (x) = 0.32124 0.07305
# Poissons Ratio (y) = 0.15774 0.44335
# Poissons Ratio (z) = 0.04119 0.50912
#
# Static dielectric constant tensor:
#      x y z
#    x 3.597070 0.000000 0.000000 
#    y 0.000000 3.764050 0.000000 
#    z 0.000000 0.000000 3.974220 
# 
# 
# High freq. dielectric constant tensor:
#      x y z
#    x 1.795450 0.000000 0.000000 
#    y 0.000000 1.787980 0.000000 
#    z 0.000000 0.000000 1.798990 
# 
# From -- ./inp_files/9658.got.cif
#   From: 2010.06.25/outbox.cif.g09.slc.cpg/sg71_5_cif.got.tgz:9658.got - 2010.06.28 04:59:45.
