data_PCOD8291150
_publ_section_title
;
Structure prediction by ZEFSAII (Michael W. Deem and Ramdas Pophale) SiO2 
 PCOD8291150
Probable space group: I M M M
;
_chemical_formula_sum "Si O2"
_cell_formula_units_Z 72
_cell_length_a 27.575866
_cell_length_b 14.621674
_cell_length_c 8.923027
_cell_angle_alpha 90.000000
_cell_angle_beta 90.000000
_cell_angle_gamma 90.000000
_cell_volume 3597.811983
_symmetry_space_group_name_H-M "I M M M"
_symmetry_group_IT_number 71
_symmetry_cell_setting 'orthorhombic'
loop_
_space_group_symop_operation_xyz
x,y,z
-x,-y,z
x,-y,-z
-x,y,-z
-x,-y,-z
x,y,-z
-x,y,z
x,-y,z
1/2+x,1/2+y,1/2+z
1/2-x,1/2-y,1/2+z
1/2+x,1/2-y,1/2-z
1/2-x,1/2+y,1/2-z
1/2-x,1/2-y,1/2-z
1/2+x,1/2+y,1/2-z
1/2-x,1/2+y,1/2+z
1/2+x,1/2-y,1/2+z
loop_
_atom_site_type_symbol
_atom_site_label
_atom_site_fract_x
_atom_site_fract_y
_atom_site_fract_z
Si Si1 0.000000 0.394628 0.821530
Si Si2 0.406095 0.211892 0.326052
Si Si3 0.863128 0.897779 0.828245
Si Si4 0.735455 0.345287 0.822669
Si Si5 0.325619 0.900841 0.169551
O O1 0.953745 0.337903 0.759787
O O2 0.000000 0.500000 0.762268
O O3 0.000000 0.394477 0.000000
O O4 0.401651 0.187254 0.500000
O O5 0.405690 0.322145 0.299433
O O6 0.358900 0.174914 0.244152
O O7 0.817622 0.879119 0.722479
O O8 0.883827 0.000000 0.795625
O O9 0.845436 0.889716 0.000000
O O10 0.750000 0.250000 0.750000
O O11 0.775659 0.414568 0.759908
O O12 0.738196 0.339475 0.000000
O O13 0.351790 0.000000 0.172037
O O14 0.314700 0.869004 0.000000
#
# Coordination Sequence:
#
# PCOD8291150 Si02
#       5
#     8  16  16  16  16
#     4   9  18  34  58  88 116 143 187 243 293 344
#     4  10  20  36  59  83 111 150 192 238 290 345
#     4  10  21  37  56  81 115 154 195 240 286 334
#     4  12  23  36  56  82 114 153 195 236 282 337
#     4  11  23  37  55  82 116 151 189 237 287 338
#
# _framework density 20.012163999999999
#
# number of rings (size 3 to 8) (size 9 to 14) (size 15 to 20)
#    0.000    1.444    2.222    4.000    0.000    5.778 
#    0.000    1.111    0.000    5.333    0.000    0.000 
#    0.000    3.556    0.000    0.000    0.000    0.000 
#
# Total GULP energy -446240.523527 kJ/mol
# GULP energy per Si atom -12395.570098 kJ/mol
# Density = 1.996662 g / cm^3
# Si number density = 20.012164 Si / 1000 Ang^3
#
#
#
# Elastic Constant Matrix: (Units=GPa)
#
#
# Indices 1 2 3 4 5 6 
#
# 1 100.7116 59.6529 32.0944 0.0000 0.0000 0.0000
# 2 59.6529 163.5385 38.9064 0.0000 0.0000 0.0000
# 3 32.0944 38.9064 97.6725 0.0000 0.0000 0.0000
# 4 0.0000 0.0000 0.0000 19.0462 0.0000 0.0000
# 5 0.0000 0.0000 0.0000 0.0000 18.4307 0.0000
# 6 0.0000 0.0000 0.0000 0.0000 0.0000 32.5324
#
#
#
# Elastic Compliance Matrix: (Units=1/GPa)
#
#
# Indices 1 2 3 4 5 6 
#
# 1 0.013275 -0.004203 -0.002688 0.000000 0.000000 0.000000
# 2 -0.004203 0.008086 -0.001840 0.000000 0.000000 0.000000
# 3 -0.002688 -0.001840 0.011854 0.000000 0.000000 0.000000
# 4 0.000000 0.000000 0.000000 0.052504 0.000000 0.000000
# 5 0.000000 0.000000 0.000000 0.000000 0.054257 0.000000
# 6 0.000000 0.000000 0.000000 0.000000 0.000000 0.030739
#
#
# Mechanical properties :
#
#
# Convention : Reuss Voigt Hill
#
# Bulk Modulus (GPa) = 63.47581 69.24778 66.36179
# Shear Modulus (GPa) = 25.84945 29.41978 27.63462
#
# Velocity S-wave (km/s) = 3.59790 3.83834 3.72007
# Velocity P-wave (km/s) = 7.00338 7.37033 7.18920
#
# Compressibility (1/GPa) = 0.01575403
#
# Stress axis : x y z
#
# Youngs Moduli (GPa) = 75.32739 123.67815 84.35697
#
# Poissons Ratio (x) = 0.51981 0.22675
# Poissons Ratio (y) = 0.31659 0.15519
# Poissons Ratio (z) = 0.20248 0.22753
#
# Static dielectric constant tensor:
#      x y z
#    x 3.699390 0.000000 0.000000 
#    y 0.000000 4.031720 0.000000 
#    z 0.000000 0.000000 3.540310 
# 
# 
# High freq. dielectric constant tensor:
#      x y z
#    x 1.750410 0.000000 0.000000 
#    y 0.000000 1.804660 0.000000 
#    z 0.000000 0.000000 1.767230 
# 
# From -- ./inp_files/6003.got.cif
#   From: 2010.06.25/outbox.cif.g09.slc.cpg/sg71_4_cif.got.tgz:6003.got - 2010.06.28 04:59:45.
