data_PCOD8291681
_publ_section_title
;
Structure prediction by ZEFSAII (Michael W. Deem and Ramdas Pophale) SiO2 
 PCOD8291681
Probable space group: I M M M
;
_chemical_formula_sum "Si O2"
_cell_formula_units_Z 88
_cell_length_a 22.091219
_cell_length_b 15.542450
_cell_length_c 12.859764
_cell_angle_alpha 90.000000
_cell_angle_beta 90.000000
_cell_angle_gamma 90.000000
_cell_volume 4415.421403
_symmetry_space_group_name_H-M "I M M M"
_symmetry_group_IT_number 71
_symmetry_cell_setting 'orthorhombic'
loop_
_space_group_symop_operation_xyz
x,y,z
-x,-y,z
x,-y,-z
-x,y,-z
-x,-y,-z
x,y,-z
-x,y,z
x,-y,z
1/2+x,1/2+y,1/2+z
1/2-x,1/2-y,1/2+z
1/2+x,1/2-y,1/2-z
1/2-x,1/2+y,1/2-z
1/2-x,1/2-y,1/2-z
1/2+x,1/2+y,1/2-z
1/2-x,1/2+y,1/2+z
1/2+x,1/2-y,1/2+z
loop_
_atom_site_type_symbol
_atom_site_label
_atom_site_fract_x
_atom_site_fract_y
_atom_site_fract_z
Si Si1 0.636702 0.598037 0.696512
Si Si2 0.067398 0.500000 0.228616
Si Si3 0.733819 0.150370 0.770975
Si Si4 0.890262 0.638135 0.384519
Si Si5 0.931802 0.897112 0.000000
Si Si6 0.690794 0.000000 0.622399
Si Si7 0.431937 0.327746 0.884231
O O1 0.617500 0.500000 0.700133
O O2 0.707559 0.609145 0.675155
O O3 0.600530 0.642541 0.601767
O O4 0.618385 0.637081 0.806776
O O5 0.074234 0.418198 0.302136
O O6 0.118056 0.500000 0.138545
O O7 0.000000 0.500000 0.178542
O O8 0.750000 0.250000 0.750000
O O9 0.679620 0.148661 0.852533
O O10 0.718073 0.088536 0.671931
O O11 0.891069 0.596904 0.500000
O O12 0.926475 0.726102 0.386307
O O13 0.000000 0.863736 0.000000
O O14 0.927131 0.000000 0.000000
O O15 0.705588 0.000000 0.500000
O O16 0.500000 0.353288 0.848637
O O17 0.419279 0.364906 0.000000
#
# Coordination Sequence:
#
# PCOD8291681 Si02
#       7
#    16   8  16  16   8   8  16
#     4  11  22  39  58  86 117 157 201 253 307 371
#     4  10  21  39  62  89 119 158 208 252 302 369
#     4  11  22  40  61  92 124 163 210 256 313 373
#     4  10  21  36  58  88 120 155 193 250 311 369
#     4   9  20  38  60  84 114 155 197 249 310 366
#     4  10  24  44  65  94 130 168 209 259 318 383
#     4  10  21  37  58  86 119 153 194 248 309 371
#
# _framework density 19.930147999999999
#
# number of rings (size 3 to 8) (size 9 to 14) (size 15 to 20)
#    0.000    1.727    2.727    1.364    1.273    4.545 
#    0.000    0.909    0.000    0.000    0.000    0.000 
#    0.000    0.000    0.000    0.000    0.000    0.000 
#
# Total GULP energy -545394.611593 kJ/mol
# GULP energy per Si atom -12395.332082 kJ/mol
# Density = 1.988479 g / cm^3
# Si number density = 19.930148 Si / 1000 Ang^3
#
#
#
# Elastic Constant Matrix: (Units=GPa)
#
#
# Indices 1 2 3 4 5 6 
#
# 1 131.8325 10.6632 37.4169 0.0000 0.0000 0.0000
# 2 10.6632 75.8731 25.7480 0.0000 0.0000 0.0000
# 3 37.4169 25.7480 100.0202 0.0000 0.0000 0.0000
# 4 0.0000 0.0000 0.0000 23.4769 0.0000 0.0000
# 5 0.0000 0.0000 0.0000 0.0000 24.4457 0.0000
# 6 0.0000 0.0000 0.0000 0.0000 0.0000 24.7290
#
#
#
# Elastic Compliance Matrix: (Units=1/GPa)
#
#
# Indices 1 2 3 4 5 6 
#
# 1 0.008488 -0.000126 -0.003143 0.000000 0.000000 0.000000
# 2 -0.000126 0.014443 -0.003671 0.000000 0.000000 0.000000
# 3 -0.003143 -0.003671 0.012119 0.000000 0.000000 0.000000
# 4 0.000000 0.000000 0.000000 0.042595 0.000000 0.000000
# 5 0.000000 0.000000 0.000000 0.000000 0.040907 0.000000
# 6 0.000000 0.000000 0.000000 0.000000 0.000000 0.040438
#
#
# Mechanical properties :
#
#
# Convention : Reuss Voigt Hill
#
# Bulk Modulus (GPa) = 47.23700 50.59801 48.91751
# Shear Modulus (GPa) = 27.78919 30.12352 28.95636
#
# Velocity S-wave (km/s) = 3.73812 3.89196 3.81582
# Velocity P-wave (km/s) = 6.51031 6.75568 6.63413
#
# Compressibility (1/GPa) = 0.02116984
#
# Stress axis : x y z
#
# Youngs Moduli (GPa) = 117.81973 69.23585 82.51786
#
# Poissons Ratio (x) = 0.00875 0.25932
# Poissons Ratio (y) = 0.01489 0.30291
# Poissons Ratio (z) = 0.37026 0.25416
#
# Static dielectric constant tensor:
#      x y z
#    x 3.768590 0.000000 0.000000 
#    y 0.000000 3.595510 0.000000 
#    z 0.000000 0.000000 3.737870 
# 
# 
# High freq. dielectric constant tensor:
#      x y z
#    x 1.794360 0.000000 0.000000 
#    y 0.000000 1.767920 0.000000 
#    z 0.000000 0.000000 1.768940 
# 
# From -- ./inp_files/25692.got.cif
#   From: 2010.06.25/outbox.cif.g09.slc.cpg/sg71_13_cif.got.tgz:25692.got - 2010.06.28 04:59:45.
