data_PCOD8291886
_publ_section_title
;
Structure prediction by ZEFSAII (Michael W. Deem and Ramdas Pophale) SiO2 
 PCOD8291886
Probable space group: I M M M
;
_chemical_formula_sum "Si O2"
_cell_formula_units_Z 64
_cell_length_a 17.315614
_cell_length_b 8.994741
_cell_length_c 20.846250
_cell_angle_alpha 90.000000
_cell_angle_beta 90.000000
_cell_angle_gamma 90.000000
_cell_volume 3246.792247
_symmetry_space_group_name_H-M "I M M M"
_symmetry_group_IT_number 71
_symmetry_cell_setting 'orthorhombic'
loop_
_space_group_symop_operation_xyz
x,y,z
-x,-y,z
x,-y,-z
-x,y,-z
-x,-y,-z
x,y,-z
-x,y,z
x,-y,z
1/2+x,1/2+y,1/2+z
1/2-x,1/2-y,1/2+z
1/2+x,1/2-y,1/2-z
1/2-x,1/2+y,1/2-z
1/2-x,1/2-y,1/2-z
1/2+x,1/2+y,1/2-z
1/2-x,1/2+y,1/2+z
1/2+x,1/2-y,1/2+z
loop_
_atom_site_type_symbol
_atom_site_label
_atom_site_fract_x
_atom_site_fract_y
_atom_site_fract_z
Si Si1 0.656501 0.325200 0.426134
Si Si2 0.909178 0.664988 0.500000
Si Si3 0.910411 0.826852 0.627171
Si Si4 0.000000 0.333391 0.075875
Si Si5 0.775372 0.675499 0.685034
O O1 0.677595 0.278244 0.500000
O O2 0.642680 0.500000 0.422823
O O3 0.577471 0.249833 0.401213
O O4 0.723735 0.275929 0.376626
O O5 0.869796 0.500000 0.500000
O O6 0.882277 0.759672 0.560083
O O7 0.000000 0.643836 0.500000
O O8 0.862288 0.736787 0.679218
O O9 0.000000 0.797905 0.640753
O O10 0.890316 0.000000 0.628529
O O11 0.000000 0.500000 0.104449
O O12 0.000000 0.336759 0.000000
O O13 0.775768 0.500000 0.692902
O O14 0.750000 0.750000 0.750000
#
# Coordination Sequence:
#
# PCOD8291886 Si02
#       5
#    16   8  16   8  16
#     4   9  19  37  61  87 115 152 194 238 292 351
#     4   9  17  31  55  87 119 152 193 240 289 345
#     4  10  21  38  60  87 120 157 198 245 298 355
#     4   9  17  31  55  89 121 147 184 237 292 347
#     4  11  24  41  61  86 120 158 199 247 299 357
#
# _framework density 19.711765
#
# number of rings (size 3 to 8) (size 9 to 14) (size 15 to 20)
#    0.000    2.250    0.000    2.250    1.750    6.500 
#    2.250    0.000    0.000    0.000    0.000    0.000 
#    0.000    0.000    0.000    0.000    0.000    0.000 
#
# Total GULP energy -396692.261878 kJ/mol
# GULP energy per Si atom -12396.633184 kJ/mol
# Density = 1.966690 g / cm^3
# Si number density = 19.711765 Si / 1000 Ang^3
#
#
#
# Elastic Constant Matrix: (Units=GPa)
#
#
# Indices 1 2 3 4 5 6 
#
# 1 107.5655 66.9133 64.6495 0.0000 0.0000 0.0000
# 2 66.9133 102.6253 57.0448 0.0000 0.0000 0.0000
# 3 64.6495 57.0448 119.5209 0.0000 0.0000 0.0000
# 4 0.0000 0.0000 0.0000 32.7894 0.0000 0.0000
# 5 0.0000 0.0000 0.0000 0.0000 156.3283 0.0000
# 6 0.0000 0.0000 0.0000 0.0000 0.0000 33.0353
#
#
#
# Elastic Compliance Matrix: (Units=1/GPa)
#
#
# Indices 1 2 3 4 5 6 
#
# 1 0.018066 -0.008640 -0.005649 0.000000 0.000000 0.000000
# 2 -0.008640 0.017394 -0.003629 0.000000 0.000000 0.000000
# 3 -0.005649 -0.003629 0.013154 0.000000 0.000000 0.000000
# 4 0.000000 0.000000 0.000000 0.030498 0.000000 0.000000
# 5 0.000000 0.000000 0.000000 0.000000 0.006397 0.000000
# 6 0.000000 0.000000 0.000000 0.000000 0.000000 0.030271
#
#
# Mechanical properties :
#
#
# Convention : Reuss Voigt Hill
#
# Bulk Modulus (GPa) = 78.24330 78.54746 78.39538
# Shear Modulus (GPa) = 32.07733 53.83753 42.95743
#
# Velocity S-wave (km/s) = 4.03838 5.23179 4.67334
# Velocity P-wave (km/s) = 7.84376 8.74243 8.30526
#
# Compressibility (1/GPa) = 0.01278065
#
# Stress axis : x y z
#
# Youngs Moduli (GPa) = 55.35276 57.48984 76.02255
#
# Poissons Ratio (x) = 0.49669 0.42941
# Poissons Ratio (y) = 0.47822 0.27587
# Poissons Ratio (z) = 0.31266 0.20862
#
# Static dielectric constant tensor:
#      x y z
#    x 3.345160 0.000000 0.000000 
#    y 0.000000 3.710040 0.000000 
#    z 0.000000 0.000000 3.467530 
# 
# 
# High freq. dielectric constant tensor:
#      x y z
#    x 1.772740 0.000000 0.000000 
#    y 0.000000 1.776510 0.000000 
#    z 0.000000 0.000000 1.749800 
# 
# From -- ./inp_files/9555.got.cif
#   From: 2010.06.25/outbox.cif.g09.slc.cpg/sg71_5_cif.got.tgz:9555.got - 2010.06.28 04:59:45.
