data_PCOD8291396
_publ_section_title
;
Structure prediction by ZEFSAII (Michael W. Deem and Ramdas Pophale) SiO2 
 PCOD8291396
Probable space group: I M M M
;
_chemical_formula_sum "Si O2"
_cell_formula_units_Z 112
_cell_length_a 13.484236
_cell_length_b 13.484108
_cell_length_c 37.078702
_cell_angle_alpha 90.000000
_cell_angle_beta 90.000000
_cell_angle_gamma 90.000000
_cell_volume 6741.756923
_symmetry_space_group_name_H-M "I M M M"
_symmetry_group_IT_number 71
_symmetry_cell_setting 'orthorhombic'
loop_
_space_group_symop_operation_xyz
x,y,z
-x,-y,z
x,-y,-z
-x,y,-z
-x,-y,-z
x,y,-z
-x,y,z
x,-y,z
1/2+x,1/2+y,1/2+z
1/2-x,1/2-y,1/2+z
1/2+x,1/2-y,1/2-z
1/2-x,1/2+y,1/2-z
1/2-x,1/2-y,1/2-z
1/2+x,1/2+y,1/2-z
1/2-x,1/2+y,1/2+z
1/2+x,1/2-y,1/2+z
loop_
_atom_site_type_symbol
_atom_site_label
_atom_site_fract_x
_atom_site_fract_y
_atom_site_fract_z
Si Si1 0.885873 0.114133 0.207909
Si Si2 0.249332 0.750667 0.659560
Si Si3 0.226337 0.387299 0.040371
Si Si4 0.114164 0.885838 0.708909
Si Si5 0.387087 0.885061 0.389534
Si Si6 0.112700 0.273669 0.540371
Si Si7 0.885063 0.612914 0.610466
O O1 0.818089 0.181890 0.183501
O O2 0.862552 0.137101 0.249492
O O3 0.000000 0.138115 0.199252
O O4 0.862275 0.000000 0.199126
O O5 0.182344 0.817658 0.684808
O O6 0.316641 0.820494 0.635272
O O7 0.179501 0.683372 0.635268
O O8 0.263746 0.500000 0.043712
O O9 0.138216 0.366004 0.068443
O O10 0.320565 0.320561 0.050021
O O11 0.185982 0.365109 0.000000
O O12 0.000000 0.861961 0.700214
O O13 0.137707 0.000000 0.700089
O O14 0.500000 0.851802 0.383303
O O15 0.372084 0.000000 0.379329
O O16 0.134891 0.314025 0.500000
O O17 0.133995 0.361793 0.568442
O O18 0.000000 0.236260 0.543711
O O19 0.851805 0.500000 0.616702
O O20 0.000000 0.627919 0.620670
#
# Coordination Sequence:
#
# PCOD8291396 Si02
#       7
#    16  16  16  16  16  16  16
#     4   9  19  35  53  74  98 126 165 206 240 283
#     4  12  19  32  53  76  98 132 162 198 247 300
#     4   9  17  31  50  72  98 130 167 203 241 289
#     4   9  19  35  53  74 100 128 161 200 240 291
#     4  10  21  34  48  72 103 131 163 205 247 288
#     4   9  17  31  50  72  98 130 167 203 241 289
#     4  10  21  34  48  72 103 131 163 205 247 288
#
# _framework density 16.612881000000002
#
# number of rings (size 3 to 8) (size 9 to 14) (size 15 to 20)
#    0.000    2.286    1.429    3.000    0.000    0.857 
#    0.000    4.286    0.000    0.000    0.000   12.000 
#    0.000    2.286    0.000    0.000    0.000    0.000 
#
# Total GULP energy -694344.420061 kJ/mol
# GULP energy per Si atom -12399.007501 kJ/mol
# Density = 1.657507 g / cm^3
# Si number density = 16.612881 Si / 1000 Ang^3
#
#
#
# Elastic Constant Matrix: (Units=GPa)
#
#
# Indices 1 2 3 4 5 6 
#
# 1 99.6952 73.7231 72.8428 0.0000 0.0000 0.0000
# 2 73.7231 99.2338 72.5965 0.0000 0.0000 0.0000
# 3 72.8428 72.5965 110.0774 0.0000 0.0000 0.0000
# 4 0.0000 0.0000 0.0000 33.1182 0.0000 0.0000
# 5 0.0000 0.0000 0.0000 0.0000 33.1186 0.0000
# 6 0.0000 0.0000 0.0000 0.0000 0.0000 30.4211
#
#
#
# Elastic Compliance Matrix: (Units=1/GPa)
#
#
# Indices 1 2 3 4 5 6 
#
# 1 0.025874 -0.012940 -0.008588 0.000000 0.000000 0.000000
# 2 -0.012940 0.025943 -0.008547 0.000000 0.000000 0.000000
# 3 -0.008588 -0.008547 0.020404 0.000000 0.000000 0.000000
# 4 0.000000 0.000000 0.000000 0.030195 0.000000 0.000000
# 5 0.000000 0.000000 0.000000 0.000000 0.030195 0.000000
# 6 0.000000 0.000000 0.000000 0.000000 0.000000 0.032872
#
#
# Mechanical properties :
#
#
# Convention : Reuss Voigt Hill
#
# Bulk Modulus (GPa) = 82.83546 83.03680 82.93613
# Shear Modulus (GPa) = 21.77160 25.32117 23.54638
#
# Velocity S-wave (km/s) = 3.62404 3.90832 3.76886
# Velocity P-wave (km/s) = 8.21475 8.39396 8.30484
#
# Compressibility (1/GPa) = 0.01207212
#
# Stress axis : x y z
#
# Youngs Moduli (GPa) = 38.64815 38.54606 49.00896
#
# Poissons Ratio (x) = 0.49878 0.42091
# Poissons Ratio (y) = 0.50010 0.41887
# Poissons Ratio (z) = 0.33193 0.32944
#
# Static dielectric constant tensor:
#      x y z
#    x 3.083010 0.000000 0.000000 
#    y 0.000000 3.083000 0.000000 
#    z 0.000000 0.000000 3.224680 
# 
# 
# High freq. dielectric constant tensor:
#      x y z
#    x 1.637610 0.000000 0.000000 
#    y 0.000000 1.637610 0.000000 
#    z 0.000000 0.000000 1.649720 
# 
# From -- ./inp_files/69333.got.cif
#   From: 2010.06.25/outbox.cif.g09.slc.cpg/sg71_35_cif.got.tgz:69333.got - 2010.06.28 04:59:45.
