data_PCOD8291406
_publ_section_title
;
Structure prediction by ZEFSAII (Michael W. Deem and Ramdas Pophale) SiO2 
 PCOD8291406
Probable space group: I M M M
;
_chemical_formula_sum "Si O2"
_cell_formula_units_Z 96
_cell_length_a 14.055839
_cell_length_b 32.075391
_cell_length_c 11.675666
_cell_angle_alpha 90.000000
_cell_angle_beta 90.000000
_cell_angle_gamma 90.000000
_cell_volume 5263.933522
_symmetry_space_group_name_H-M "I M M M"
_symmetry_group_IT_number 71
_symmetry_cell_setting 'orthorhombic'
loop_
_space_group_symop_operation_xyz
x,y,z
-x,-y,z
x,-y,-z
-x,y,-z
-x,-y,-z
x,y,-z
-x,y,z
x,-y,z
1/2+x,1/2+y,1/2+z
1/2-x,1/2-y,1/2+z
1/2+x,1/2-y,1/2-z
1/2-x,1/2+y,1/2-z
1/2-x,1/2-y,1/2-z
1/2+x,1/2+y,1/2-z
1/2-x,1/2+y,1/2+z
1/2+x,1/2-y,1/2+z
loop_
_atom_site_type_symbol
_atom_site_label
_atom_site_fract_x
_atom_site_fract_y
_atom_site_fract_z
Si Si1 0.112194 0.260212 0.871326
Si Si2 0.112303 0.452388 0.500000
Si Si3 0.390057 0.000000 0.364295
Si Si4 0.606163 0.406113 0.632534
Si Si5 0.393091 0.677572 0.755474
Si Si6 0.798784 0.425336 0.731450
Si Si7 0.789738 0.343670 0.131393
O O1 0.144010 0.221406 0.794074
O O2 0.156055 0.302857 0.822551
O O3 0.000000 0.264769 0.870586
O O4 0.150264 0.252764 0.000000
O O5 0.151412 0.500000 0.500000
O O6 0.147745 0.427893 0.388962
O O7 0.000000 0.452636 0.500000
O O8 0.334601 0.960232 0.317855
O O9 0.500000 0.000000 0.321588
O O10 0.385170 0.000000 0.500000
O O11 0.628643 0.414612 0.500000
O O12 0.500000 0.422708 0.664359
O O13 0.611146 0.356478 0.653843
O O14 0.684853 0.429869 0.709662
O O15 0.500000 0.681256 0.804956
O O16 0.323725 0.663755 0.857987
O O17 0.824356 0.381334 0.788849
O O18 0.814926 0.353865 0.000000
#
# Coordination Sequence:
#
# PCOD8291406 Si02
#       7
#    16   8   8  16  16  16  16
#     4   9  17  30  49  74 103 139 183 230 275 317
#     4  11  22  38  61  85 109 141 174 220 280 334
#     4  11  24  41  62  83 106 143 185 222 262 322
#     4   9  17  31  53  82 111 140 178 221 268 321
#     4   9  17  30  51  75 104 142 185 229 267 309
#     4  11  21  37  58  83 112 140 178 225 275 327
#     4  10  21  34  51  77 109 146 182 220 267 322
#
# _framework density 18.237313
#
# number of rings (size 3 to 8) (size 9 to 14) (size 15 to 20)
#    0.000    2.167    1.667    2.000    0.000    3.667 
#    0.000    2.083    1.833    3.500    0.000    0.000 
#    0.000    0.000    0.000    0.000    0.000    0.000 
#
# Total GULP energy -595125.880503 kJ/mol
# GULP energy per Si atom -12398.455844 kJ/mol
# Density = 1.819580 g / cm^3
# Si number density = 18.237313 Si / 1000 Ang^3
#
#
#
# Elastic Constant Matrix: (Units=GPa)
#
#
# Indices 1 2 3 4 5 6 
#
# 1 73.7440 53.9679 35.3798 -0.0014 0.0007 0.0004
# 2 53.9679 112.4440 46.9021 0.0013 -0.0006 -0.0004
# 3 35.3798 46.9021 81.4092 0.0017 -0.0007 -0.0012
# 4 -0.0014 0.0013 0.0017 26.0971 -0.0009 -0.0008
# 5 0.0007 -0.0006 -0.0007 -0.0009 27.7119 0.0002
# 6 0.0004 -0.0004 -0.0012 -0.0008 0.0002 29.1220
#
#
#
# Elastic Compliance Matrix: (Units=1/GPa)
#
#
# Indices 1 2 3 4 5 6 
#
# 1 0.022141 -0.008705 -0.004607 0.000002 -0.000001 -0.000001
# 2 -0.008705 0.015129 -0.004933 -0.000001 0.000000 0.000000
# 3 -0.004607 -0.004933 0.017128 -0.000001 0.000000 0.000001
# 4 0.000002 -0.000001 -0.000001 0.038318 0.000001 0.000001
# 5 -0.000001 0.000000 0.000000 0.000001 0.036086 0.000000
# 6 -0.000001 0.000000 0.000001 0.000001 0.000000 0.034338
#
#
# Mechanical properties :
#
#
# Convention : Reuss Voigt Hill
#
# Bulk Modulus (GPa) = 55.84225 60.01075 57.92650
# Shear Modulus (GPa) = 24.31896 25.34269 24.83082
#
# Velocity S-wave (km/s) = 3.65564 3.73179 3.69391
# Velocity P-wave (km/s) = 6.96452 7.17950 7.07282
#
# Compressibility (1/GPa) = 0.01790759
#
# Stress axis : x y z
#
# Youngs Moduli (GPa) = 45.16406 66.09810 58.38402
#
# Poissons Ratio (x) = 0.57539 0.26899
# Poissons Ratio (y) = 0.39316 0.28801
# Poissons Ratio (z) = 0.20808 0.32607
#
# Static dielectric constant tensor:
#      x y z
#    x 3.520730 0.000000 0.000000 
#    y 0.000000 3.404490 0.000000 
#    z 0.000000 0.000000 3.231680 
# 
# 
# High freq. dielectric constant tensor:
#      x y z
#    x 1.713620 0.000000 0.000000 
#    y 0.000000 1.703940 0.000000 
#    z 0.000000 0.000000 1.694450 
# 
# From -- ./inp_files/22617.got.cif
#   From: 2010.06.25/outbox.cif.g09.slc.cpg/sg71_12_cif.got.tgz:22617.got - 2010.06.28 04:59:45.
