data_PCOD8291035
_publ_section_title
;
Structure prediction by ZEFSAII (Michael W. Deem and Ramdas Pophale) SiO2 
 PCOD8291035
Probable space group: I M M M
;
_chemical_formula_sum "Si O2"
_cell_formula_units_Z 64
_cell_length_a 7.924658
_cell_length_b 15.560022
_cell_length_c 25.211579
_cell_angle_alpha 90.000000
_cell_angle_beta 90.000000
_cell_angle_gamma 90.000000
_cell_volume 3108.785673
_symmetry_space_group_name_H-M "I M M M"
_symmetry_group_IT_number 71
_symmetry_cell_setting 'orthorhombic'
loop_
_space_group_symop_operation_xyz
x,y,z
-x,-y,z
x,-y,-z
-x,y,-z
-x,-y,-z
x,y,-z
-x,y,z
x,-y,z
1/2+x,1/2+y,1/2+z
1/2-x,1/2-y,1/2+z
1/2+x,1/2-y,1/2-z
1/2-x,1/2+y,1/2-z
1/2-x,1/2-y,1/2-z
1/2+x,1/2+y,1/2-z
1/2-x,1/2+y,1/2+z
1/2+x,1/2-y,1/2+z
loop_
_atom_site_type_symbol
_atom_site_label
_atom_site_fract_x
_atom_site_fract_y
_atom_site_fract_z
Si Si1 0.500000 0.406172 0.938281
Si Si2 0.700221 0.400913 0.500000
Si Si3 0.303753 0.655409 0.386925
Si Si4 0.805624 0.000000 0.820677
Si Si5 0.305427 0.847558 0.624481
Si Si6 0.805380 0.500000 0.203147
O O1 0.500000 0.500000 0.911422
O O2 0.325578 0.360431 0.922956
O O3 0.500000 0.413450 0.000000
O O4 0.759527 0.500000 0.500000
O O5 0.500000 0.394680 0.500000
O O6 0.772961 0.353980 0.446743
O O7 0.500000 0.636633 0.392689
O O8 0.221554 0.584940 0.347189
O O9 0.275930 0.748352 0.359497
O O10 0.793870 0.000000 0.757631
O O11 0.000000 0.000000 0.835640
O O12 0.500000 0.863427 0.605771
O O13 0.258016 0.912808 0.671705
O O14 0.000000 0.500000 0.217501
#
# Coordination Sequence:
#
# PCOD8291035 Si02
#       6
#     8   8  16   8  16   8
#     4  11  24  40  62  93 125 157 203 250 300 360
#     4   9  14  26  54  84 119 154 191 242 294 357
#     4   9  18  33  55  89 120 155 202 245 296 367
#     4  10  20  35  60  88 117 153 205 256 303 357
#     4  10  22  41  63  87 123 162 204 246 300 362
#     4  10  22  40  59  80 113 159 205 253 303 356
#
# _framework density 20.586815999999999
#
# number of rings (size 3 to 8) (size 9 to 14) (size 15 to 20)
#    0.000    2.250    2.500    0.000    3.500    1.500 
#    2.250    1.250    0.000    0.000    0.000    2.625 
#    0.000    0.000    0.000    0.000    0.000    0.000 
#
# Total GULP energy -396490.180798 kJ/mol
# GULP energy per Si atom -12390.318150 kJ/mol
# Density = 2.053996 g / cm^3
# Si number density = 20.586816 Si / 1000 Ang^3
#
#
#
# Elastic Constant Matrix: (Units=GPa)
#
#
# Indices 1 2 3 4 5 6 
#
# 1 58.7676 28.2447 23.9125 0.0000 0.0000 0.0000
# 2 28.2447 184.5073 85.9343 0.0000 0.0000 0.0000
# 3 23.9125 85.9343 126.6603 0.0000 0.0000 0.0000
# 4 0.0000 0.0000 0.0000 20.7694 0.0000 0.0000
# 5 0.0000 0.0000 0.0000 0.0000 16.9877 0.0000
# 6 0.0000 0.0000 0.0000 0.0000 0.0000 -14.5454
#
#
#
# Elastic Compliance Matrix: (Units=1/GPa)
#
#
# Indices 1 2 3 4 5 6 
#
# 1 0.018830 -0.001794 -0.002338 0.000000 0.000000 0.000000
# 2 -0.001794 0.008095 -0.005153 0.000000 0.000000 0.000000
# 3 -0.002338 -0.005153 0.011833 0.000000 0.000000 0.000000
# 4 0.000000 0.000000 0.000000 0.048148 0.000000 0.000000
# 5 0.000000 0.000000 0.000000 0.000000 0.058866 0.000000
# 6 0.000000 0.000000 0.000000 0.000000 0.000000 -0.068750
#
#
# Mechanical properties :
#
#
# Convention : Reuss Voigt Hill
#
# Bulk Modulus (GPa) = 49.53610 71.79091 60.66351
# Shear Modulus (GPa) = 48.86660 20.09856 34.48258
#
# Velocity S-wave (km/s) = 4.87733 3.12794 4.09710
# Velocity P-wave (km/s) = 7.47209 6.92772 7.20505
#
# Compressibility (1/GPa) = 0.02018730
#
# Stress axis : x y z
#
# Youngs Moduli (GPa) = 53.10807 123.54050 84.51079
#
# Poissons Ratio (x) = 0.22157 0.19759
# Poissons Ratio (y) = 0.09525 0.43550
# Poissons Ratio (z) = 0.12417 0.63663
#
# Static dielectric constant tensor:
#      x y z
#    x 3.445010 0.000000 0.000000 
#    y 0.000000 4.146110 0.000000 
#    z 0.000000 0.000000 3.562270 
# 
# 
# High freq. dielectric constant tensor:
#      x y z
#    x 1.776340 0.000000 0.000000 
#    y 0.000000 1.821140 0.000000 
#    z 0.000000 0.000000 1.790110 
# 
# From -- ./inp_files/57197.got.cif
#   From: 2010.06.25/outbox.cif.g09.slc.cpg/sg71_29_cif.got.tgz:57197.got - 2010.06.28 04:59:45.
