data_PCOD8291636
_publ_section_title
;
Structure prediction by ZEFSAII (Michael W. Deem and Ramdas Pophale) SiO2 
 PCOD8291636
Probable space group: I M M M
;
_chemical_formula_sum "Si O2"
_cell_formula_units_Z 80
_cell_length_a 26.513161
_cell_length_b 13.952946
_cell_length_c 11.595642
_cell_angle_alpha 90.000000
_cell_angle_beta 90.000000
_cell_angle_gamma 90.000000
_cell_volume 4289.653579
_symmetry_space_group_name_H-M "I M M M"
_symmetry_group_IT_number 71
_symmetry_cell_setting 'orthorhombic'
loop_
_space_group_symop_operation_xyz
x,y,z
-x,-y,z
x,-y,-z
-x,y,-z
-x,-y,-z
x,y,-z
-x,y,z
x,-y,z
1/2+x,1/2+y,1/2+z
1/2-x,1/2-y,1/2+z
1/2+x,1/2-y,1/2-z
1/2-x,1/2+y,1/2-z
1/2-x,1/2-y,1/2-z
1/2+x,1/2+y,1/2-z
1/2-x,1/2+y,1/2+z
1/2+x,1/2-y,1/2+z
loop_
_atom_site_type_symbol
_atom_site_label
_atom_site_fract_x
_atom_site_fract_y
_atom_site_fract_z
Si Si1 0.108295 0.606294 0.868428
Si Si2 0.909678 0.798314 0.766212
Si Si3 0.190861 0.783381 0.367887
Si Si4 0.057727 0.886933 0.000000
Si Si5 0.216982 0.391654 0.222220
Si Si6 0.000000 0.891282 0.363902
O O1 0.090914 0.500000 0.828673
O O2 0.081587 0.684397 0.786496
O O3 0.168629 0.615880 0.860653
O O4 0.092120 0.625161 0.000000
O O5 0.855386 0.818200 0.710999
O O6 0.912304 0.851453 0.888307
O O7 0.951142 0.836210 0.679000
O O8 0.173283 0.779548 0.500000
O O9 0.210366 0.677798 0.332238
O O10 0.235074 0.860593 0.353129
O O11 0.000000 0.847947 0.000000
O O12 0.057561 0.000000 0.000000
O O13 0.224464 0.500000 0.267750
O O14 0.000000 0.891651 0.500000
O O15 0.000000 0.000000 0.314993
#
# Coordination Sequence:
#
# PCOD8291636 Si02
#       6
#    16  16  16   8  16   8
#     4   9  17  32  56  84 111 144 185 225 272 328
#     4  11  21  37  59  83 113 147 184 234 287 334
#     4  10  21  36  56  83 116 149 188 231 279 335
#     4  11  22  38  59  81 111 149 188 234 286 339
#     4   9  19  35  55  80 112 151 191 228 272 324
#     4  11  24  41  60  81 108 145 189 232 280 344
#
# _framework density 18.649524
#
# number of rings (size 3 to 8) (size 9 to 14) (size 15 to 20)
#    0.000    2.000    2.000    1.800    0.000    3.200 
#    1.800    0.500    0.000    4.200    0.000    0.000 
#    0.000    0.000    0.000    0.000    0.000    0.000 
#
# Total GULP energy -496034.520129 kJ/mol
# GULP energy per Si atom -12400.863003 kJ/mol
# Density = 1.860708 g / cm^3
# Si number density = 18.649524 Si / 1000 Ang^3
#
#
#
# Elastic Constant Matrix: (Units=GPa)
#
#
# Indices 1 2 3 4 5 6 
#
# 1 75.4628 60.4448 40.3225 0.0000 0.0000 0.0000
# 2 60.4448 135.7470 41.7602 0.0000 0.0000 0.0000
# 3 40.3225 41.7602 108.0850 0.0000 0.0000 0.0000
# 4 0.0000 0.0000 0.0000 23.2030 0.0000 0.0000
# 5 0.0000 0.0000 0.0000 0.0000 21.5969 0.0000
# 6 0.0000 0.0000 0.0000 0.0000 0.0000 28.6560
#
#
#
# Elastic Compliance Matrix: (Units=1/GPa)
#
#
# Indices 1 2 3 4 5 6 
#
# 1 0.022940 -0.008605 -0.005234 0.000000 0.000000 0.000000
# 2 -0.008605 0.011588 -0.001267 0.000000 0.000000 0.000000
# 3 -0.005234 -0.001267 0.011694 0.000000 0.000000 0.000000
# 4 0.000000 0.000000 0.000000 0.043098 0.000000 0.000000
# 5 0.000000 0.000000 0.000000 0.000000 0.046303 0.000000
# 6 0.000000 0.000000 0.000000 0.000000 0.000000 0.034897
#
#
# Mechanical properties :
#
#
# Convention : Reuss Voigt Hill
#
# Bulk Modulus (GPa) = 62.45540 67.14998 64.80269
# Shear Modulus (GPa) = 24.26385 26.47566 25.36976
#
# Velocity S-wave (km/s) = 3.61091 3.77190 3.69228
# Velocity P-wave (km/s) = 7.13769 7.41985 7.28013
#
# Compressibility (1/GPa) = 0.01601143
#
# Stress axis : x y z
#
# Youngs Moduli (GPa) = 43.59125 86.29680 85.51396
#
# Poissons Ratio (x) = 0.74256 0.44755
# Poissons Ratio (y) = 0.37509 0.10835
# Poissons Ratio (z) = 0.22814 0.10934
#
# Static dielectric constant tensor:
#      x y z
#    x 3.391750 0.000000 0.000000 
#    y 0.000000 3.728960 0.000000 
#    z 0.000000 0.000000 3.290050 
# 
# 
# High freq. dielectric constant tensor:
#      x y z
#    x 1.716670 0.000000 0.000000 
#    y 0.000000 1.735830 0.000000 
#    z 0.000000 0.000000 1.716220 
# 
# From -- ./inp_files/27153.got.cif
#   From: 2010.06.25/outbox.cif.g09.slc.cpg/sg71_14_cif.got.tgz:27153.got - 2010.06.28 04:59:45.
