data_PCOD8291095
_publ_section_title
;
Structure prediction by ZEFSAII (Michael W. Deem and Ramdas Pophale) SiO2 
 PCOD8291095
Probable space group: I M M M
;
_chemical_formula_sum "Si O2"
_cell_formula_units_Z 96
_cell_length_a 19.007124
_cell_length_b 8.953611
_cell_length_c 29.649857
_cell_angle_alpha 90.000000
_cell_angle_beta 90.000000
_cell_angle_gamma 90.000000
_cell_volume 5045.883662
_symmetry_space_group_name_H-M "I M M M"
_symmetry_group_IT_number 71
_symmetry_cell_setting 'orthorhombic'
loop_
_space_group_symop_operation_xyz
x,y,z
-x,-y,z
x,-y,-z
-x,y,-z
-x,-y,-z
x,y,-z
-x,y,z
x,-y,z
1/2+x,1/2+y,1/2+z
1/2-x,1/2-y,1/2+z
1/2+x,1/2-y,1/2-z
1/2-x,1/2+y,1/2-z
1/2-x,1/2-y,1/2-z
1/2+x,1/2+y,1/2-z
1/2-x,1/2+y,1/2+z
1/2+x,1/2-y,1/2+z
loop_
_atom_site_type_symbol
_atom_site_label
_atom_site_fract_x
_atom_site_fract_y
_atom_site_fract_z
Si Si1 0.815667 0.176682 0.622364
Si Si2 0.418422 0.174557 0.051195
Si Si3 0.815192 0.824960 0.724793
Si Si4 0.918037 0.665678 0.949112
Si Si5 0.921627 0.175714 0.798772
Si Si6 0.170398 0.173671 0.118750
O O1 0.874273 0.238580 0.588639
O O2 0.826845 0.233189 0.673859
O O3 0.739869 0.234103 0.607443
O O4 0.818712 0.000000 0.619442
O O5 0.500000 0.212334 0.059421
O O6 0.404092 0.000000 0.057350
O O7 0.397220 0.222684 0.000000
O O8 0.750000 0.750000 0.750000
O O9 0.887661 0.785642 0.750504
O O10 0.799477 0.000000 0.725499
O O11 0.901031 0.500000 0.929335
O O12 0.881044 0.799240 0.922809
O O13 0.000000 0.697608 0.946486
O O14 0.890875 0.673033 0.000000
O O15 0.869036 0.238612 0.836985
O O16 0.000000 0.247877 0.801779
O O17 0.928493 0.000000 0.806064
O O18 0.189144 0.000000 0.123811
#
# Coordination Sequence:
#
# PCOD8291095 Si02
#       6
#    16  16  16  16  16  16
#     4  11  23  36  57  88 118 153 192 233 287 347
#     4   9  20  41  66  89 116 152 193 240 295 353
#     4  10  20  36  57  80 112 152 190 234 285 341
#     4   9  19  36  55  75 105 144 181 225 283 338
#     4   9  18  33  54  80 108 142 184 229 279 332
#     4  11  21  34  55  80 109 148 189 234 279 329
#
# _framework density 19.025409
#
# number of rings (size 3 to 8) (size 9 to 14) (size 15 to 20)
#    0.000    2.167    1.667    2.500    0.000    4.000 
#    0.000    3.333    0.000    1.500    0.000    0.000 
#    0.000    0.000    0.000    0.000    0.000    0.000 
#
# Total GULP energy -595085.736677 kJ/mol
# GULP energy per Si atom -12397.619514 kJ/mol
# Density = 1.898211 g / cm^3
# Si number density = 19.025409 Si / 1000 Ang^3
#
#
#
# Elastic Constant Matrix: (Units=GPa)
#
#
# Indices 1 2 3 4 5 6 
#
# 1 94.3613 38.0581 65.7904 0.0000 0.0000 0.0000
# 2 38.0581 48.9288 48.4741 0.0000 0.0000 0.0000
# 3 65.7904 48.4741 139.8820 0.0000 0.0000 0.0000
# 4 0.0000 0.0000 0.0000 27.3878 0.0000 0.0000
# 5 0.0000 0.0000 0.0000 0.0000 32.0797 0.0000
# 6 0.0000 0.0000 0.0000 0.0000 0.0000 27.1328
#
#
#
# Elastic Compliance Matrix: (Units=1/GPa)
#
#
# Indices 1 2 3 4 5 6 
#
# 1 0.017803 -0.008455 -0.005443 0.000000 0.000000 0.000000
# 2 -0.008455 0.035138 -0.008200 0.000000 0.000000 0.000000
# 3 -0.005443 -0.008200 0.012551 0.000000 0.000000 0.000000
# 4 0.000000 0.000000 0.000000 0.036513 0.000000 0.000000
# 5 0.000000 0.000000 0.000000 0.000000 0.031172 0.000000
# 6 0.000000 0.000000 0.000000 0.000000 0.000000 0.036856
#
#
# Mechanical properties :
#
#
# Convention : Reuss Voigt Hill
#
# Bulk Modulus (GPa) = 46.95890 65.31302 56.13596
# Shear Modulus (GPa) = 22.59109 26.04338 24.31724
#
# Velocity S-wave (km/s) = 3.44963 3.70384 3.57899
# Velocity P-wave (km/s) = 6.37200 7.25914 6.82999
#
# Compressibility (1/GPa) = 0.02129522
#
# Stress axis : x y z
#
# Youngs Moduli (GPa) = 56.17141 28.45925 79.67752
#
# Poissons Ratio (x) = 0.24061 0.43370
# Poissons Ratio (y) = 0.47491 0.65336
# Poissons Ratio (z) = 0.30575 0.23337
#
# Static dielectric constant tensor:
#      x y z
#    x 3.514250 0.000000 0.000000 
#    y 0.000000 3.285980 0.000000 
#    z 0.000000 0.000000 3.690600 
# 
# 
# High freq. dielectric constant tensor:
#      x y z
#    x 1.741700 0.000000 0.000000 
#    y 0.000000 1.720310 0.000000 
#    z 0.000000 0.000000 1.748670 
# 
# From -- ./inp_files/66336.got.cif
#   From: 2010.06.25/outbox.cif.g09.slc.cpg/sg71_34_cif.got.tgz:66336.got - 2010.06.28 04:59:45.
