data_PCOD8291899
_publ_section_title
;
Structure prediction by ZEFSAII (Michael W. Deem and Ramdas Pophale) SiO2 
 PCOD8291899
Probable space group: I M M M
;
_chemical_formula_sum "Si O2"
_cell_formula_units_Z 88
_cell_length_a 21.085276
_cell_length_b 17.243139
_cell_length_c 12.353708
_cell_angle_alpha 90.000000
_cell_angle_beta 90.000000
_cell_angle_gamma 90.000000
_cell_volume 4491.516001
_symmetry_space_group_name_H-M "I M M M"
_symmetry_group_IT_number 71
_symmetry_cell_setting 'orthorhombic'
loop_
_space_group_symop_operation_xyz
x,y,z
-x,-y,z
x,-y,-z
-x,y,-z
-x,-y,-z
x,y,-z
-x,y,z
x,-y,z
1/2+x,1/2+y,1/2+z
1/2-x,1/2-y,1/2+z
1/2+x,1/2-y,1/2-z
1/2-x,1/2+y,1/2-z
1/2-x,1/2-y,1/2-z
1/2+x,1/2+y,1/2-z
1/2-x,1/2+y,1/2+z
1/2+x,1/2-y,1/2+z
loop_
_atom_site_type_symbol
_atom_site_label
_atom_site_fract_x
_atom_site_fract_y
_atom_site_fract_z
Si Si1 0.153808 0.172982 0.372515
Si Si2 0.570707 0.591573 0.290578
Si Si3 0.355503 0.592705 0.500000
Si Si4 0.285660 0.090457 0.000000
Si Si5 0.715173 0.089143 0.625041
Si Si6 0.000000 0.590795 0.627994
Si Si7 0.633722 0.845455 0.194103
O O1 0.141183 0.181576 0.500000
O O2 0.102652 0.114490 0.322731
O O3 0.223161 0.139813 0.347419
O O4 0.144105 0.254035 0.312465
O O5 0.500000 0.626596 0.294974
O O6 0.568085 0.500000 0.297212
O O7 0.609493 0.624882 0.393173
O O8 0.355019 0.500000 0.500000
O O9 0.284437 0.628145 0.500000
O O10 0.323219 0.113916 0.105432
O O11 0.277108 0.000000 0.000000
O O12 0.696966 0.095429 0.500000
O O13 0.655578 0.123301 0.689586
O O14 0.728920 0.000000 0.657964
O O15 0.060708 0.632451 0.678840
O O16 0.000000 0.500000 0.657404
O O17 0.000000 0.603440 0.500000
#
# Coordination Sequence:
#
# PCOD8291899 Si02
#       7
#    16  16   8   8  16   8  16
#     4  11  23  40  60  89 127 162 199 253 310 357
#     4  10  21  38  61  88 122 166 210 247 295 362
#     4   9  19  36  60  90 119 152 199 259 304 346
#     4  11  20  34  62  92 117 151 204 258 308 359
#     4  10  22  41  65  90 121 160 202 248 304 368
#     4  11  22  38  61  89 122 160 204 252 307 361
#     4  12  23  40  61  90 124 159 203 254 307 363
#
# _framework density 19.592493999999999
#
# number of rings (size 3 to 8) (size 9 to 14) (size 15 to 20)
#    0.000    1.364    1.818    4.091    1.273    4.000 
#    1.636    1.364    0.000    1.636    0.000    0.000 
#    0.000    0.000    0.000    0.000    0.000    0.000 
#
# Total GULP energy -545773.593072 kJ/mol
# GULP energy per Si atom -12403.945297 kJ/mol
# Density = 1.954790 g / cm^3
# Si number density = 19.592494 Si / 1000 Ang^3
#
#
#
# Elastic Constant Matrix: (Units=GPa)
#
#
# Indices 1 2 3 4 5 6 
#
# 1 174.0922 47.0784 68.0325 0.0000 0.0000 0.0000
# 2 47.0784 71.9076 40.1228 0.0000 0.0000 0.0000
# 3 68.0325 40.1228 89.7323 0.0000 0.0000 0.0000
# 4 0.0000 0.0000 0.0000 98.0842 0.0000 0.0000
# 5 0.0000 0.0000 0.0000 0.0000 31.8851 0.0000
# 6 0.0000 0.0000 0.0000 0.0000 0.0000 20.7868
#
#
#
# Elastic Compliance Matrix: (Units=1/GPa)
#
#
# Indices 1 2 3 4 5 6 
#
# 1 0.008520 -0.002630 -0.005284 0.000000 0.000000 0.000000
# 2 -0.002630 0.019342 -0.006654 0.000000 0.000000 0.000000
# 3 -0.005284 -0.006654 0.018126 0.000000 0.000000 0.000000
# 4 0.000000 0.000000 0.000000 0.010195 0.000000 0.000000
# 5 0.000000 0.000000 0.000000 0.000000 0.031363 0.000000
# 6 0.000000 0.000000 0.000000 0.000000 0.000000 0.048108
#
#
# Mechanical properties :
#
#
# Convention : Reuss Voigt Hill
#
# Bulk Modulus (GPa) = 59.34316 71.79996 65.57156
# Shear Modulus (GPa) = 29.34168 42.18446 35.76307
#
# Velocity S-wave (km/s) = 3.87408 4.64518 4.27704
# Velocity P-wave (km/s) = 7.09689 8.09299 7.61125
#
# Compressibility (1/GPa) = 0.01685114
#
# Stress axis : x y z
#
# Youngs Moduli (GPa) = 117.36982 51.70203 55.17032
#
# Poissons Ratio (x) = 0.13597 0.29151
# Poissons Ratio (y) = 0.30868 0.36713
# Poissons Ratio (z) = 0.62015 0.34405
#
# Static dielectric constant tensor:
#      x y z
#    x 3.804160 0.000000 0.000000 
#    y 0.000000 3.618080 0.000000 
#    z 0.000000 0.000000 3.856790 
# 
# 
# High freq. dielectric constant tensor:
#      x y z
#    x 1.770450 0.000000 0.000000 
#    y 0.000000 1.759060 0.000000 
#    z 0.000000 0.000000 1.767290 
# 
# From -- ./inp_files/25716.got.cif
#   From: 2010.06.25/outbox.cif.g09.slc.cpg/sg71_13_cif.got.tgz:25716.got - 2010.06.28 04:59:45.
