data_PCOD8291858
_publ_section_title
;
Structure prediction by ZEFSAII (Michael W. Deem and Ramdas Pophale) SiO2 
 PCOD8291858
Probable space group: I M M M
;
_chemical_formula_sum "Si O2"
_cell_formula_units_Z 88
_cell_length_a 24.373311
_cell_length_b 18.968203
_cell_length_c 9.552059
_cell_angle_alpha 90.000000
_cell_angle_beta 90.000000
_cell_angle_gamma 90.000000
_cell_volume 4416.087961
_symmetry_space_group_name_H-M "I M M M"
_symmetry_group_IT_number 71
_symmetry_cell_setting 'orthorhombic'
loop_
_space_group_symop_operation_xyz
x,y,z
-x,-y,z
x,-y,-z
-x,y,-z
-x,-y,-z
x,y,-z
-x,y,z
x,-y,z
1/2+x,1/2+y,1/2+z
1/2-x,1/2-y,1/2+z
1/2+x,1/2-y,1/2-z
1/2-x,1/2+y,1/2-z
1/2-x,1/2-y,1/2-z
1/2+x,1/2+y,1/2-z
1/2-x,1/2+y,1/2+z
1/2+x,1/2-y,1/2+z
loop_
_atom_site_type_symbol
_atom_site_label
_atom_site_fract_x
_atom_site_fract_y
_atom_site_fract_z
Si Si1 0.937413 0.081094 0.662777
Si Si2 0.434966 0.000000 0.155719
Si Si3 0.438686 0.872557 0.342725
Si Si4 0.343005 0.647646 0.662239
Si Si5 0.329984 0.196820 0.341569
Si Si6 0.768941 0.579956 0.337574
O O1 0.924450 0.092068 0.500000
O O2 0.896916 0.130035 0.750281
O O3 0.000000 0.103346 0.695808
O O4 0.928284 0.000000 0.705587
O O5 0.414988 0.931429 0.237933
O O6 0.500000 0.000000 0.149260
O O7 0.409006 0.000000 0.000000
O O8 0.439805 0.904166 0.500000
O O9 0.500000 0.847257 0.299606
O O10 0.396408 0.808251 0.332939
O O11 0.360315 0.650834 0.500000
O O12 0.317532 0.723583 0.708755
O O13 0.295972 0.589945 0.689834
O O14 0.309164 0.184513 0.500000
O O15 0.302469 0.137616 0.247396
O O16 0.782361 0.592064 0.500000
O O17 0.784676 0.500000 0.291845
#
# Coordination Sequence:
#
# PCOD8291858 Si02
#       6
#    16   8  16  16  16  16
#     4   9  19  36  58  87 122 156 191 231 275 327
#     4   9  17  29  47  71  97 129 173 219 260 309
#     4   9  18  33  51  72 103 140 175 217 270 322
#     4  10  21  38  59  84 115 150 188 231 282 338
#     4  10  22  37  56  83 111 144 188 234 279 337
#     4  10  22  39  58  81 110 145 185 234 290 341
#
# _framework density 19.927137999999999
#
# number of rings (size 3 to 8) (size 9 to 14) (size 15 to 20)
#    0.000    2.455    0.000    1.909    1.273    5.818 
#    0.000    2.727    0.000    2.182    0.000    0.000 
#    0.000    0.000    0.000    0.000    0.000    0.000 
#
# Total GULP energy -545491.289871 kJ/mol
# GULP energy per Si atom -12397.529315 kJ/mol
# Density = 1.988178 g / cm^3
# Si number density = 19.927138 Si / 1000 Ang^3
#
#
#
# Elastic Constant Matrix: (Units=GPa)
#
#
# Indices 1 2 3 4 5 6 
#
# 1 79.2679 44.4415 42.9071 0.0000 0.0000 0.0000
# 2 44.4415 114.7851 55.1993 0.0000 0.0000 0.0000
# 3 42.9071 55.1993 84.6193 0.0000 0.0000 0.0000
# 4 0.0000 0.0000 0.0000 29.2099 0.0000 0.0000
# 5 0.0000 0.0000 0.0000 0.0000 31.7748 0.0000
# 6 0.0000 0.0000 0.0000 0.0000 0.0000 32.5444
#
#
#
# Elastic Compliance Matrix: (Units=1/GPa)
#
#
# Indices 1 2 3 4 5 6 
#
# 1 0.018493 -0.003862 -0.006858 0.000000 0.000000 0.000000
# 2 -0.003862 0.013501 -0.006848 0.000000 0.000000 0.000000
# 3 -0.006858 -0.006848 0.019762 0.000000 0.000000 0.000000
# 4 0.000000 0.000000 0.000000 0.034235 0.000000 0.000000
# 5 0.000000 0.000000 0.000000 0.000000 0.031471 0.000000
# 6 0.000000 0.000000 0.000000 0.000000 0.000000 0.030727
#
#
# Mechanical properties :
#
#
# Convention : Reuss Voigt Hill
#
# Bulk Modulus (GPa) = 60.17104 62.64090 61.40597
# Shear Modulus (GPa) = 26.47391 27.78078 27.12735
#
# Velocity S-wave (km/s) = 3.64886 3.73784 3.69362
# Velocity P-wave (km/s) = 6.92917 7.08038 7.00518
#
# Compressibility (1/GPa) = 0.01661929
#
# Stress axis : x y z
#
# Youngs Moduli (GPa) = 54.07550 74.07083 50.60147
#
# Poissons Ratio (x) = 0.28607 0.34700
# Poissons Ratio (y) = 0.20884 0.34654
# Poissons Ratio (z) = 0.37083 0.50727
#
# Static dielectric constant tensor:
#      x y z
#    x 3.592740 0.000000 0.000000 
#    y 0.000000 3.551840 0.000000 
#    z 0.000000 0.000000 3.607720 
# 
# 
# High freq. dielectric constant tensor:
#      x y z
#    x 1.782660 0.000000 0.000000 
#    y 0.000000 1.769740 0.000000 
#    z 0.000000 0.000000 1.769990 
# 
# From -- ./inp_files/12497.got.cif
#   From: 2010.06.25/outbox.cif.g09.slc.cpg/sg71_7_cif.got.tgz:12497.got - 2010.06.28 04:59:45.
