data_PCOD8291182
_publ_section_title
;
Structure prediction by ZEFSAII (Michael W. Deem and Ramdas Pophale) SiO2 
 PCOD8291182
Probable space group: I M M M
;
_chemical_formula_sum "Si O2"
_cell_formula_units_Z 64
_cell_length_a 14.805875
_cell_length_b 8.700443
_cell_length_c 25.988693
_cell_angle_alpha 90.000000
_cell_angle_beta 90.000000
_cell_angle_gamma 90.000000
_cell_volume 3347.802918
_symmetry_space_group_name_H-M "I M M M"
_symmetry_group_IT_number 71
_symmetry_cell_setting 'orthorhombic'
loop_
_space_group_symop_operation_xyz
x,y,z
-x,-y,z
x,-y,-z
-x,y,-z
-x,-y,-z
x,y,-z
-x,y,z
x,-y,z
1/2+x,1/2+y,1/2+z
1/2-x,1/2-y,1/2+z
1/2+x,1/2-y,1/2-z
1/2-x,1/2+y,1/2-z
1/2-x,1/2-y,1/2-z
1/2+x,1/2+y,1/2-z
1/2-x,1/2+y,1/2+z
1/2+x,1/2-y,1/2+z
loop_
_atom_site_type_symbol
_atom_site_label
_atom_site_fract_x
_atom_site_fract_y
_atom_site_fract_z
Si Si1 0.500000 0.180435 0.785836
Si Si2 0.500000 0.320115 0.325571
Si Si3 0.398941 0.818777 0.500000
Si Si4 0.000000 0.181680 0.556326
Si Si5 0.639026 0.319065 0.860814
Si Si6 0.339225 0.181805 0.610997
O O1 0.500000 0.227511 0.726980
O O2 0.591900 0.241975 0.811782
O O3 0.500000 0.000000 0.790556
O O4 0.500000 0.500000 0.313778
O O5 0.587851 0.275895 0.357554
O O6 0.500000 0.746489 0.500000
O O7 0.344848 0.767264 0.448921
O O8 0.408310 0.000000 0.500000
O O9 0.088743 0.235249 0.587202
O O10 0.000000 0.259903 0.500000
O O11 0.000000 0.000000 0.550107
O O12 0.628695 0.500000 0.853477
O O13 0.742761 0.269663 0.865820
O O14 0.356913 0.000000 0.616801
#
# Coordination Sequence:
#
# PCOD8291182 Si02
#       6
#     8   8   8   8  16  16
#     4  11  23  41  63  81 109 149 191 238 291 342
#     4  12  25  40  59  82 112 148 193 241 289 341
#     4   9  16  30  56  87 120 151 187 234 274 324
#     4   8  14  26  48  83 118 145 180 226 273 321
#     4   9  19  35  57  86 118 148 186 235 282 332
#     4  10  20  36  59  88 119 152 191 232 280 334
#
# _framework density 19.117016
#
# number of rings (size 3 to 8) (size 9 to 14) (size 15 to 20)
#    0.000    2.250    1.250    3.000    1.750    2.000 
#    0.000    1.250    0.000    6.000    0.000    0.000 
#    0.000    0.000    0.000    0.000    0.000    0.000 
#
# Total GULP energy -396760.723410 kJ/mol
# GULP energy per Si atom -12398.772607 kJ/mol
# Density = 1.907350 g / cm^3
# Si number density = 19.117016 Si / 1000 Ang^3
#
#
#
# Elastic Constant Matrix: (Units=GPa)
#
#
# Indices 1 2 3 4 5 6 
#
# 1 151.9054 36.1442 52.7993 0.0000 0.0000 0.0000
# 2 36.1442 42.7707 16.0010 0.0000 0.0000 0.0000
# 3 52.7993 16.0010 125.1567 0.0000 0.0000 0.0000
# 4 0.0000 0.0000 0.0000 21.5149 0.0000 0.0000
# 5 0.0000 0.0000 0.0000 0.0000 66.3495 0.0000
# 6 0.0000 0.0000 0.0000 0.0000 0.0000 16.3466
#
#
#
# Elastic Compliance Matrix: (Units=1/GPa)
#
#
# Indices 1 2 3 4 5 6 
#
# 1 0.009224 -0.006657 -0.003040 0.000000 0.000000 0.000000
# 2 -0.006657 0.029360 -0.000945 0.000000 0.000000 0.000000
# 3 -0.003040 -0.000945 0.009393 0.000000 0.000000 0.000000
# 4 0.000000 0.000000 0.000000 0.046479 0.000000 0.000000
# 5 0.000000 0.000000 0.000000 0.000000 0.015072 0.000000
# 6 0.000000 0.000000 0.000000 0.000000 0.000000 0.061175
#
#
# Mechanical properties :
#
#
# Convention : Reuss Voigt Hill
#
# Bulk Modulus (GPa) = 37.46435 58.85795 48.16115
# Shear Modulus (GPa) = 24.88979 35.16808 30.02893
#
# Velocity S-wave (km/s) = 3.61220 4.29373 3.96763
# Velocity P-wave (km/s) = 6.08582 7.44558 6.79977
#
# Compressibility (1/GPa) = 0.02669204
#
# Stress axis : x y z
#
# Youngs Moduli (GPa) = 108.41567 34.05989 106.45883
#
# Poissons Ratio (x) = 0.22675 0.32364
# Poissons Ratio (y) = 0.72177 0.10061
# Poissons Ratio (z) = 0.32959 0.03219
#
# Static dielectric constant tensor:
#      x y z
#    x 3.704400 0.000000 0.000000 
#    y 0.000000 3.154800 0.000000 
#    z 0.000000 0.000000 3.709860 
# 
# 
# High freq. dielectric constant tensor:
#      x y z
#    x 1.750510 0.000000 0.000000 
#    y 0.000000 1.708650 0.000000 
#    z 0.000000 0.000000 1.753870 
# 
# From -- ./inp_files/57196.got.cif
#   From: 2010.06.25/outbox.cif.g09.slc.cpg/sg71_29_cif.got.tgz:57196.got - 2010.06.28 04:59:45.
