data_PCOD8291166
_publ_section_title
;
Structure prediction by ZEFSAII (Michael W. Deem and Ramdas Pophale) SiO2 
 PCOD8291166
Probable space group: I M M M
;
_chemical_formula_sum "Si O2"
_cell_formula_units_Z 104
_cell_length_a 17.369982
_cell_length_b 17.512847
_cell_length_c 17.061897
_cell_angle_alpha 90.000000
_cell_angle_beta 90.000000
_cell_angle_gamma 90.000000
_cell_volume 5190.192165
_symmetry_space_group_name_H-M "I M M M"
_symmetry_group_IT_number 71
_symmetry_cell_setting 'orthorhombic'
loop_
_space_group_symop_operation_xyz
x,y,z
-x,-y,z
x,-y,-z
-x,y,-z
-x,-y,-z
x,y,-z
-x,y,z
x,-y,z
1/2+x,1/2+y,1/2+z
1/2-x,1/2-y,1/2+z
1/2+x,1/2-y,1/2-z
1/2-x,1/2+y,1/2-z
1/2-x,1/2-y,1/2-z
1/2+x,1/2+y,1/2-z
1/2-x,1/2+y,1/2+z
1/2+x,1/2-y,1/2+z
loop_
_atom_site_type_symbol
_atom_site_label
_atom_site_fract_x
_atom_site_fract_y
_atom_site_fract_z
Si Si1 0.915535 0.087805 0.731147
Si Si2 0.688414 0.658917 0.645589
Si Si3 0.912610 0.156068 0.000000
Si Si4 0.151392 0.591310 0.684787
Si Si5 0.500000 0.090243 0.911183
Si Si6 0.180280 0.660541 0.850726
Si Si7 0.914746 0.337408 0.000000
Si Si8 0.671588 0.412509 0.085886
O O1 0.850518 0.136277 0.773241
O O2 0.905905 0.096640 0.637021
O O3 0.000000 0.118665 0.753726
O O4 0.906100 0.000000 0.756234
O O5 0.634741 0.627320 0.575518
O O6 0.773042 0.621737 0.639212
O O7 0.693349 0.749450 0.646493
O O8 0.917051 0.246597 0.000000
O O9 0.000000 0.122205 0.000000
O O10 0.156159 0.500000 0.694943
O O11 0.076746 0.617029 0.634818
O O12 0.143933 0.631717 0.769380
O O13 0.500000 0.000000 0.916173
O O14 0.500000 0.124132 0.000000
O O15 0.263094 0.624932 0.861958
O O16 0.126661 0.632383 0.921945
O O17 0.000000 0.372029 0.000000
O O18 0.693652 0.500000 0.074444
O O19 0.661512 0.373784 0.000000
#
# Coordination Sequence:
#
# PCOD8291166 Si02
#       8
#    16  16   8  16   8  16   8  16
#     4  10  21  38  59  86 120 155 194 239 289 348
#     4  11  22  37  62  89 115 155 195 239 292 354
#     4   9  20  38  57  86 121 151 188 233 291 350
#     4  11  23  40  62  87 116 152 201 246 294 351
#     4   9  22  44  64  83 111 151 196 249 296 339
#     4  11  21  37  60  89 119 153 194 242 288 352
#     4   9  20  36  57  85 121 157 185 229 296 355
#     4  10  20  36  59  85 118 159 195 233 286 347
#
# _framework density 20.037794000000002
#
# number of rings (size 3 to 8) (size 9 to 14) (size 15 to 20)
#    0.000    1.769    2.308    1.846    2.154    0.923 
#    0.000    2.692    0.000    4.615    0.000    0.000 
#    0.000    0.000    0.000    0.000    0.000    0.000 
#
# Total GULP energy -644676.001603 kJ/mol
# GULP energy per Si atom -12397.615415 kJ/mol
# Density = 1.999219 g / cm^3
# Si number density = 20.037794 Si / 1000 Ang^3
#
#
#
# Elastic Constant Matrix: (Units=GPa)
#
#
# Indices 1 2 3 4 5 6 
#
# 1 143.8908 19.2202 64.4893 0.0000 0.0000 0.0000
# 2 19.2202 27.0358 18.9314 0.0000 0.0000 0.0000
# 3 64.4893 18.9314 146.3186 0.0000 0.0000 0.0000
# 4 0.0000 0.0000 0.0000 23.6038 0.0000 0.0000
# 5 0.0000 0.0000 0.0000 0.0000 31.3176 0.0000
# 6 0.0000 0.0000 0.0000 0.0000 0.0000 17.5234
#
#
#
# Elastic Compliance Matrix: (Units=1/GPa)
#
#
# Indices 1 2 3 4 5 6 
#
# 1 0.009037 -0.003998 -0.003466 0.000000 0.000000 0.000000
# 2 -0.003998 0.042441 -0.003729 0.000000 0.000000 0.000000
# 3 -0.003466 -0.003729 0.008844 0.000000 0.000000 0.000000
# 4 0.000000 0.000000 0.000000 0.042366 0.000000 0.000000
# 5 0.000000 0.000000 0.000000 0.000000 0.031931 0.000000
# 6 0.000000 0.000000 0.000000 0.000000 0.000000 0.057066
#
#
# Mechanical properties :
#
#
# Convention : Reuss Voigt Hill
#
# Bulk Modulus (GPa) = 26.35925 58.05854 42.20890
# Shear Modulus (GPa) = 22.05385 28.79591 25.42488
#
# Velocity S-wave (km/s) = 3.32115 3.79500 3.56595
# Velocity P-wave (km/s) = 5.28110 6.94551 6.16969
#
# Compressibility (1/GPa) = 0.03793735
#
# Stress axis : x y z
#
# Youngs Moduli (GPa) = 110.65604 23.56187 113.06532
#
# Poissons Ratio (x) = 0.09419 0.39186
# Poissons Ratio (y) = 0.44237 0.42165
# Poissons Ratio (z) = 0.38351 0.08787
#
# Static dielectric constant tensor:
#      x y z
#    x 3.815760 0.000000 0.000000 
#    y 0.000000 3.316450 0.000000 
#    z 0.000000 0.000000 3.980910 
# 
# 
# High freq. dielectric constant tensor:
#      x y z
#    x 1.788930 0.000000 0.000000 
#    y 0.000000 1.757350 0.000000 
#    z 0.000000 0.000000 1.797380 
# 
# From -- ./inp_files/46167.got.cif
#   From: 2010.06.25/outbox.cif.g09.slc.cpg/sg71_24_cif.got.tgz:46167.got - 2010.06.28 04:59:45.
