data_PCOD8291409
_publ_section_title
;
Structure prediction by ZEFSAII (Michael W. Deem and Ramdas Pophale) SiO2 
 PCOD8291409
Probable space group: I M M M
;
_chemical_formula_sum "Si O2"
_cell_formula_units_Z 88
_cell_length_a 9.131122
_cell_length_b 27.156451
_cell_length_c 17.772789
_cell_angle_alpha 90.000000
_cell_angle_beta 90.000000
_cell_angle_gamma 90.000000
_cell_volume 4407.098355
_symmetry_space_group_name_H-M "I M M M"
_symmetry_group_IT_number 71
_symmetry_cell_setting 'orthorhombic'
loop_
_space_group_symop_operation_xyz
x,y,z
-x,-y,z
x,-y,-z
-x,y,-z
-x,-y,-z
x,y,-z
-x,y,z
x,-y,z
1/2+x,1/2+y,1/2+z
1/2-x,1/2-y,1/2+z
1/2+x,1/2-y,1/2-z
1/2-x,1/2+y,1/2-z
1/2-x,1/2-y,1/2-z
1/2+x,1/2+y,1/2-z
1/2-x,1/2+y,1/2+z
1/2+x,1/2-y,1/2+z
loop_
_atom_site_type_symbol
_atom_site_label
_atom_site_fract_x
_atom_site_fract_y
_atom_site_fract_z
Si Si1 0.669893 0.276322 0.181513
Si Si2 0.829263 0.907803 0.912557
Si Si3 0.165284 0.444637 0.721840
Si Si4 0.325890 0.443004 0.000000
Si Si5 0.660382 0.814006 0.087880
Si Si6 0.325855 0.386472 0.149847
O O1 0.500000 0.280626 0.202649
O O2 0.750000 0.250000 0.250000
O O3 0.701758 0.241105 0.111038
O O4 0.729517 0.329923 0.156481
O O5 0.737341 0.945157 0.861390
O O6 0.781991 0.853059 0.885240
O O7 0.000000 0.914646 0.897218
O O8 0.790988 0.917557 0.000000
O O9 0.164366 0.500000 0.752163
O O10 0.262656 0.413167 0.777773
O O11 0.000000 0.423805 0.717868
O O12 0.268315 0.413216 0.073594
O O13 0.267975 0.500000 0.000000
O O14 0.500000 0.443673 0.000000
O O15 0.500000 0.828507 0.121403
O O16 0.652558 0.814661 0.000000
O O17 0.500000 0.389559 0.152363
#
# Coordination Sequence:
#
# PCOD8291409 Si02
#       6
#    16  16  16   8  16  16
#     4  10  21  34  52  80 112 148 186 230 276 330
#     4  10  21  37  58  85 115 147 187 235 284 337
#     4  11  24  40  58  81 111 148 190 236 288 347
#     4   9  18  34  59  89 117 147 191 249 304 353
#     4   9  18  33  54  78 109 148 184 218 266 326
#     4  10  21  37  60  87 116 151 194 242 294 349
#
# _framework density 19.967787000000001
#
# number of rings (size 3 to 8) (size 9 to 14) (size 15 to 20)
#    0.000    2.091    0.000    2.727    1.273    8.000 
#    0.000    2.273    0.000    1.636    0.000    0.000 
#    0.000    0.000    0.000    0.000    0.000    0.000 
#
# Total GULP energy -545402.272440 kJ/mol
# GULP energy per Si atom -12395.506192 kJ/mol
# Density = 1.992234 g / cm^3
# Si number density = 19.967787 Si / 1000 Ang^3
#
#
#
# Elastic Constant Matrix: (Units=GPa)
#
#
# Indices 1 2 3 4 5 6 
#
# 1 40.1282 19.1377 28.3231 0.0001 -0.0001 0.0000
# 2 19.1377 117.6382 41.6791 0.0003 -0.0001 0.0000
# 3 28.3231 41.6791 80.4892 0.0014 -0.0004 0.0002
# 4 0.0001 0.0003 0.0014 39.2516 -0.0001 0.0001
# 5 -0.0001 -0.0001 -0.0004 -0.0001 24.1874 0.0001
# 6 0.0000 0.0000 0.0002 0.0001 0.0001 27.4623
#
#
#
# Elastic Compliance Matrix: (Units=1/GPa)
#
#
# Indices 1 2 3 4 5 6 
#
# 1 0.033385 -0.001554 -0.010943 0.000000 0.000000 0.000000
# 2 -0.001554 0.010483 -0.004881 0.000000 0.000000 0.000000
# 3 -0.010943 -0.004881 0.018802 -0.000001 0.000000 0.000000
# 4 0.000000 0.000000 -0.000001 0.025477 0.000000 0.000000
# 5 0.000000 0.000000 0.000000 0.000000 0.041344 0.000000
# 6 0.000000 0.000000 0.000000 0.000000 0.000000 0.036414
#
#
# Mechanical properties :
#
#
# Convention : Reuss Voigt Hill
#
# Bulk Modulus (GPa) = 35.82514 46.28172 41.05343
# Shear Modulus (GPa) = 23.81338 28.12132 25.96735
#
# Velocity S-wave (km/s) = 3.45714 3.75685 3.61010
# Velocity P-wave (km/s) = 5.82376 6.48437 6.16292
#
# Compressibility (1/GPa) = 0.02791336
#
# Stress axis : x y z
#
# Youngs Moduli (GPa) = 29.95351 95.39304 53.18455
#
# Poissons Ratio (x) = 0.14825 0.58200
# Poissons Ratio (y) = 0.04655 0.25962
# Poissons Ratio (z) = 0.32778 0.46566
#
# Static dielectric constant tensor:
#      x y z
#    x 3.632390 0.000020 0.000000 
#    y 0.000020 7.682250 0.000070 
#    z 0.000000 0.000070 3.812780 
# 
# 
# High freq. dielectric constant tensor:
#      x y z
#    x 1.761900 0.000000 0.000000 
#    y 0.000000 1.789020 0.000000 
#    z 0.000000 0.000000 1.781820 
# 
# From -- ./inp_files/50486.got.cif
#   From: 2010.06.25/outbox.cif.g09.slc.cpg/sg71_26_cif.got.tgz:50486.got - 2010.06.28 04:59:45.
