data_PCOD8291248
_publ_section_title
;
Structure prediction by ZEFSAII (Michael W. Deem and Ramdas Pophale) SiO2 
 PCOD8291248
Probable space group: I M M M
;
_chemical_formula_sum "Si O2"
_cell_formula_units_Z 72
_cell_length_a 16.359723
_cell_length_b 27.488229
_cell_length_c 8.547394
_cell_angle_alpha 90.000000
_cell_angle_beta 90.000000
_cell_angle_gamma 90.000000
_cell_volume 3843.761477
_symmetry_space_group_name_H-M "I M M M"
_symmetry_group_IT_number 71
_symmetry_cell_setting 'orthorhombic'
loop_
_space_group_symop_operation_xyz
x,y,z
-x,-y,z
x,-y,-z
-x,y,-z
-x,-y,-z
x,y,-z
-x,y,z
x,-y,z
1/2+x,1/2+y,1/2+z
1/2-x,1/2-y,1/2+z
1/2+x,1/2-y,1/2-z
1/2-x,1/2+y,1/2-z
1/2-x,1/2-y,1/2-z
1/2+x,1/2+y,1/2-z
1/2-x,1/2+y,1/2+z
1/2+x,1/2-y,1/2+z
loop_
_atom_site_type_symbol
_atom_site_label
_atom_site_fract_x
_atom_site_fract_y
_atom_site_fract_z
Si Si1 0.411311 0.641971 0.817753
Si Si2 0.694898 0.445170 0.819930
Si Si3 0.342330 0.109097 0.817903
Si Si4 0.500000 0.055981 0.684866
Si Si5 0.753422 0.803805 0.313998
O O1 0.500000 0.651877 0.737850
O O2 0.386596 0.585930 0.788219
O O3 0.339843 0.675787 0.748278
O O4 0.418982 0.652960 0.000000
O O5 0.672017 0.500000 0.778684
O O6 0.768151 0.427880 0.710134
O O7 0.723786 0.438745 0.000000
O O8 0.421704 0.086033 0.739846
O O9 0.320677 0.162422 0.747753
O O10 0.359294 0.115516 0.000000
O O11 0.500000 0.053784 0.500000
O O12 0.500000 0.000000 0.750458
O O13 0.749831 0.804437 0.500000
O O14 0.750000 0.750000 0.250000
#
# Coordination Sequence:
#
# PCOD8291248 Si02
#       5
#    16  16  16   8  16
#     4   8  15  29  50  77 105 134 172 220 266 312
#     4   9  17  30  50  76 107 143 179 217 266 321
#     4  11  22  36  55  80 110 145 187 230 273 332
#     4  11  23  39  59  83 115 151 187 235 292 343
#     4  10  20  37  59  80 107 142 182 229 283 336
#
# _framework density 18.731650999999999
#
# number of rings (size 3 to 8) (size 9 to 14) (size 15 to 20)
#    0.000    2.333    0.000    5.000    0.000    4.444 
#    2.000    2.222    0.000   16.000    0.000    6.222 
#    0.000    0.000    0.000    0.000    0.000    0.000 
#
# Total GULP energy -446219.290829 kJ/mol
# GULP energy per Si atom -12394.980301 kJ/mol
# Density = 1.868902 g / cm^3
# Si number density = 18.731651 Si / 1000 Ang^3
#
#
#
# Elastic Constant Matrix: (Units=GPa)
#
#
# Indices 1 2 3 4 5 6 
#
# 1 130.7636 68.7946 27.3380 0.0009 -0.0011 -0.0003
# 2 68.7946 176.8434 35.4831 0.0016 -0.0001 0.0002
# 3 27.3380 35.4831 69.6218 0.0187 -0.0017 0.0029
# 4 0.0009 0.0016 0.0187 28.8170 -0.0012 0.0009
# 5 -0.0011 -0.0001 -0.0017 -0.0012 9.4903 0.0008
# 6 -0.0003 0.0002 0.0029 0.0009 0.0008 17.6191
#
#
#
# Elastic Compliance Matrix: (Units=1/GPa)
#
#
# Indices 1 2 3 4 5 6 
#
# 1 0.009894 -0.003419 -0.002143 0.000001 0.000001 0.000001
# 2 -0.003419 0.007480 -0.002470 0.000001 -0.000001 0.000000
# 3 -0.002143 -0.002470 0.016463 -0.000010 0.000003 -0.000003
# 4 0.000001 0.000001 -0.000010 0.034702 0.000004 -0.000002
# 5 0.000001 -0.000001 0.000003 0.000004 0.105371 -0.000005
# 6 0.000001 0.000000 -0.000003 -0.000002 -0.000005 0.056757
#
#
# Mechanical properties :
#
#
# Convention : Reuss Voigt Hill
#
# Bulk Modulus (GPa) = 56.25893 71.16225 63.71059
# Shear Modulus (GPa) = 19.78984 27.55948 23.67466
#
# Velocity S-wave (km/s) = 3.25390 3.83989 3.55897
# Velocity P-wave (km/s) = 6.64955 7.59819 7.13964
#
# Compressibility (1/GPa) = 0.01777496
#
# Stress axis : x y z
#
# Youngs Moduli (GPa) = 101.07065 133.68363 60.74088
#
# Poissons Ratio (x) = 0.45707 0.13014
# Poissons Ratio (y) = 0.34557 0.15002
# Poissons Ratio (z) = 0.21655 0.33018
#
# Static dielectric constant tensor:
#      x y z
#    x 3.702240 0.000000 0.000000 
#    y 0.000000 2.570890 0.000120 
#    z 0.000000 0.000120 3.256930 
# 
# 
# High freq. dielectric constant tensor:
#      x y z
#    x 1.727090 0.000000 0.000000 
#    y 0.000000 1.732280 0.000000 
#    z 0.000000 0.000000 1.708820 
# 
# From -- ./inp_files/6058.got.cif
#   From: 2010.06.25/outbox.cif.g09.slc.cpg/sg71_4_cif.got.tgz:6058.got - 2010.06.28 04:59:45.
