data_PCOD8291682
_publ_section_title
;
Structure prediction by ZEFSAII (Michael W. Deem and Ramdas Pophale) SiO2 
 PCOD8291682
Probable space group: I M M M
;
_chemical_formula_sum "Si O2"
_cell_formula_units_Z 88
_cell_length_a 22.549678
_cell_length_b 15.600341
_cell_length_c 13.147230
_cell_angle_alpha 90.000000
_cell_angle_beta 90.000000
_cell_angle_gamma 90.000000
_cell_volume 4624.967623
_symmetry_space_group_name_H-M "I M M M"
_symmetry_group_IT_number 71
_symmetry_cell_setting 'orthorhombic'
loop_
_space_group_symop_operation_xyz
x,y,z
-x,-y,z
x,-y,-z
-x,y,-z
-x,-y,-z
x,y,-z
-x,y,z
x,-y,z
1/2+x,1/2+y,1/2+z
1/2-x,1/2-y,1/2+z
1/2+x,1/2-y,1/2-z
1/2-x,1/2+y,1/2-z
1/2-x,1/2-y,1/2-z
1/2+x,1/2+y,1/2-z
1/2-x,1/2+y,1/2+z
1/2+x,1/2-y,1/2+z
loop_
_atom_site_type_symbol
_atom_site_label
_atom_site_fract_x
_atom_site_fract_y
_atom_site_fract_z
Si Si1 0.147051 0.596657 0.883150
Si Si2 0.764786 0.844196 0.282387
Si Si3 0.852949 0.903666 0.883745
Si Si4 0.070378 0.250256 0.195443
Si Si5 0.565664 0.500000 0.121127
Si Si6 0.619680 0.675156 0.115199
O O1 0.122910 0.500000 0.867659
O O2 0.206469 0.605946 0.816721
O O3 0.095765 0.662061 0.850639
O O4 0.163751 0.614069 0.000000
O O5 0.750000 0.750000 0.250000
O O6 0.795546 0.892070 0.187875
O O7 0.809556 0.832224 0.377397
O O8 0.903056 0.832783 0.860962
O O9 0.878771 0.000000 0.867498
O O10 0.831747 0.891612 0.000000
O O11 0.090364 0.248145 0.314143
O O12 0.000000 0.250664 0.183235
O O13 0.500000 0.500000 0.165472
O O14 0.597229 0.584855 0.161356
O O15 0.566959 0.500000 0.000000
O O16 0.599450 0.692827 0.000000
#
# Coordination Sequence:
#
# PCOD8291682 Si02
#       6
#    16  16  16  16   8  16
#     4  11  24  42  64  88 117 155 201 254 304 349
#     4  11  21  38  61  88 121 154 192 244 294 347
#     4  10  22  39  60  89 123 157 192 235 294 362
#     4  11  24  40  60  87 119 156 201 252 295 353
#     4   9  18  32  52  84 123 157 192 228 272 343
#     4  10  21  36  58  88 120 158 194 236 294 352
#
# _framework density 19.027159999999999
#
# number of rings (size 3 to 8) (size 9 to 14) (size 15 to 20)
#    0.000    1.545    3.636    2.182    6.364    4.000 
#    0.000    1.818    0.000    0.545    0.000    1.273 
#    0.000    0.000    0.000    0.000    0.000    0.000 
#
# Total GULP energy -545507.629606 kJ/mol
# GULP energy per Si atom -12397.900673 kJ/mol
# Density = 1.898385 g / cm^3
# Si number density = 19.027160 Si / 1000 Ang^3
#
#
#
# Elastic Constant Matrix: (Units=GPa)
#
#
# Indices 1 2 3 4 5 6 
#
# 1 117.6586 52.1727 38.6677 0.0000 0.0000 0.0000
# 2 52.1727 138.7184 52.8916 0.0000 0.0000 0.0000
# 3 38.6677 52.8916 110.3718 0.0000 0.0000 0.0000
# 4 0.0000 0.0000 0.0000 29.6765 0.0000 0.0000
# 5 0.0000 0.0000 0.0000 0.0000 20.2126 0.0000
# 6 0.0000 0.0000 0.0000 0.0000 0.0000 23.4585
#
#
#
# Elastic Compliance Matrix: (Units=1/GPa)
#
#
# Indices 1 2 3 4 5 6 
#
# 1 0.010624 -0.003153 -0.002211 0.000000 0.000000 0.000000
# 2 -0.003153 0.009756 -0.003571 0.000000 0.000000 0.000000
# 3 -0.002211 -0.003571 0.011546 0.000000 0.000000 0.000000
# 4 0.000000 0.000000 0.000000 0.033697 0.000000 0.000000
# 5 0.000000 0.000000 0.000000 0.000000 0.049474 0.000000
# 6 0.000000 0.000000 0.000000 0.000000 0.000000 0.042629
#
#
# Mechanical properties :
#
#
# Convention : Reuss Voigt Hill
#
# Bulk Modulus (GPa) = 71.13937 72.69032 71.91485
# Shear Modulus (GPa) = 27.73467 29.53730 28.63599
#
# Velocity S-wave (km/s) = 3.82204 3.94429 3.88365
# Velocity P-wave (km/s) = 7.54631 7.68308 7.61500
#
# Compressibility (1/GPa) = 0.01405691
#
# Stress axis : x y z
#
# Youngs Moduli (GPa) = 94.12842 102.50080 86.60933
#
# Poissons Ratio (x) = 0.32314 0.19151
# Poissons Ratio (y) = 0.29675 0.30926
# Poissons Ratio (z) = 0.20814 0.36600
#
# Static dielectric constant tensor:
#      x y z
#    x 4.317780 0.000000 0.000000 
#    y 0.000000 3.596480 0.000000 
#    z 0.000000 0.000000 3.137280 
# 
# 
# High freq. dielectric constant tensor:
#      x y z
#    x 1.730210 0.000000 0.000000 
#    y 0.000000 1.740020 0.000000 
#    z 0.000000 0.000000 1.749200 
# 
# From -- ./inp_files/37729.got.cif
#   From: 2010.06.25/outbox.cif.g09.slc.cpg/sg71_19_cif.got.tgz:37729.got - 2010.06.28 04:59:45.
