data_PCOD8291930
_publ_section_title
;
Structure prediction by ZEFSAII (Michael W. Deem and Ramdas Pophale) SiO2 
 PCOD8291930
Probable space group: I M M M
;
_chemical_formula_sum "Si O2"
_cell_formula_units_Z 80
_cell_length_a 14.082133
_cell_length_b 26.626820
_cell_length_c 11.202856
_cell_angle_alpha 90.000000
_cell_angle_beta 90.000000
_cell_angle_gamma 90.000000
_cell_volume 4200.650003
_symmetry_space_group_name_H-M "I M M M"
_symmetry_group_IT_number 71
_symmetry_cell_setting 'orthorhombic'
loop_
_space_group_symop_operation_xyz
x,y,z
-x,-y,z
x,-y,-z
-x,y,-z
-x,-y,-z
x,y,-z
-x,y,z
x,-y,z
1/2+x,1/2+y,1/2+z
1/2-x,1/2-y,1/2+z
1/2+x,1/2-y,1/2-z
1/2-x,1/2+y,1/2-z
1/2-x,1/2-y,1/2-z
1/2+x,1/2+y,1/2-z
1/2-x,1/2+y,1/2+z
1/2+x,1/2-y,1/2+z
loop_
_atom_site_type_symbol
_atom_site_label
_atom_site_fract_x
_atom_site_fract_y
_atom_site_fract_z
Si Si1 0.000000 0.722049 0.697280
Si Si2 0.178146 0.440590 0.251946
Si Si3 0.000000 0.186245 0.141279
Si Si4 0.000000 0.611539 0.638995
Si Si5 0.794116 0.272137 0.370433
Si Si6 0.313959 0.629962 0.366497
Si Si7 0.605643 0.940555 0.500000
O O1 0.000000 0.755746 0.817194
O O2 0.093617 0.736870 0.623869
O O3 0.000000 0.662011 0.721112
O O4 0.185119 0.500000 0.263259
O O5 0.279894 0.417807 0.290494
O O6 0.161309 0.422278 0.116642
O O7 0.092345 0.421949 0.334741
O O8 0.092698 0.156554 0.189440
O O9 0.000000 0.189102 0.000000
O O10 0.000000 0.627229 0.500000
O O11 0.753461 0.251399 0.500000
O O12 0.750000 0.250000 0.250000
O O13 0.773816 0.331345 0.366039
O O14 0.337605 0.611515 0.500000
O O15 0.500000 0.917034 0.500000
O O16 0.596472 0.000000 0.500000
#
# Coordination Sequence:
#
# PCOD8291930 Si02
#       7
#     8  16   8   8  16  16   8
#     4  12  22  37  60  87 122 161 196 240 305 360
#     4  11  22  38  60  86 119 159 200 242 294 358
#     4  10  22  42  64  87 120 159 200 253 306 355
#     4  12  23  35  54  87 125 157 189 237 297 355
#     4  11  22  38  59  85 121 160 201 249 304 360
#     4  10  21  39  60  85 119 156 196 248 305 353
#     4   9  18  36  58  81 119 161 193 238 296 349
#
# _framework density 19.044671000000001
#
# number of rings (size 3 to 8) (size 9 to 14) (size 15 to 20)
#    0.000    1.300    5.000    1.800    0.000    2.000 
#    3.600    0.500    0.000    1.800    0.000    2.100 
#    0.000    0.000    0.000    0.000    0.000    0.000 
#
# Total GULP energy -495737.287602 kJ/mol
# GULP energy per Si atom -12393.432190 kJ/mol
# Density = 1.900132 g / cm^3
# Si number density = 19.044671 Si / 1000 Ang^3
#
#
#
# Elastic Constant Matrix: (Units=GPa)
#
#
# Indices 1 2 3 4 5 6 
#
# 1 116.9786 46.1913 45.7460 0.0000 0.0000 0.0000
# 2 46.1913 101.3228 52.9473 0.0004 -0.0001 0.0000
# 3 45.7460 52.9473 120.0206 0.0025 -0.0006 -0.0002
# 4 0.0000 0.0004 0.0025 31.0146 -0.0002 -0.0001
# 5 0.0000 -0.0001 -0.0006 -0.0002 26.2723 0.0001
# 6 0.0000 0.0000 -0.0002 -0.0001 0.0001 32.6741
#
#
#
# Elastic Compliance Matrix: (Units=1/GPa)
#
#
# Indices 1 2 3 4 5 6 
#
# 1 0.011005 -0.003672 -0.002575 0.000000 0.000000 0.000000
# 2 -0.003672 0.014051 -0.004799 0.000000 0.000000 0.000000
# 3 -0.002575 -0.004799 0.011431 -0.000001 0.000000 0.000000
# 4 0.000000 0.000000 -0.000001 0.032243 0.000000 0.000000
# 5 0.000000 0.000000 0.000000 0.000000 0.038063 0.000000
# 6 0.000000 0.000000 0.000000 0.000000 0.000000 0.030605
#
#
# Mechanical properties :
#
#
# Convention : Reuss Voigt Hill
#
# Bulk Modulus (GPa) = 69.46646 69.78790 69.62718
# Shear Modulus (GPa) = 30.43432 30.88803 30.66117
#
# Velocity S-wave (km/s) = 4.00190 4.03162 4.01678
# Velocity P-wave (km/s) = 7.60975 7.64171 7.62575
#
# Compressibility (1/GPa) = 0.01439544
#
# Stress axis : x y z
#
# Youngs Moduli (GPa) = 90.86494 71.16851 87.48471
#
# Poissons Ratio (x) = 0.26130 0.22527
# Poissons Ratio (y) = 0.33362 0.41986
# Poissons Ratio (z) = 0.23398 0.34156
#
# Static dielectric constant tensor:
#      x y z
#    x 3.623280 0.000000 0.000000 
#    y 0.000000 3.299660 0.000000 
#    z 0.000000 0.000000 3.615120 
# 
# 
# High freq. dielectric constant tensor:
#      x y z
#    x 1.739280 0.000000 0.000000 
#    y 0.000000 1.718410 0.000000 
#    z 0.000000 0.000000 1.739520 
# 
# From -- ./inp_files/21972.got.cif
#   From: 2010.06.25/outbox.cif.g09.slc.cpg/sg71_11_cif.got.tgz:21972.got - 2010.06.28 04:59:45.
