data_PCOD8291878
_publ_section_title
;
Structure prediction by ZEFSAII (Michael W. Deem and Ramdas Pophale) SiO2 
 PCOD8291878
Probable space group: I M M M
;
_chemical_formula_sum "Si O2"
_cell_formula_units_Z 104
_cell_length_a 25.926838
_cell_length_b 8.800618
_cell_length_c 21.647555
_cell_angle_alpha 90.000000
_cell_angle_beta 90.000000
_cell_angle_gamma 90.000000
_cell_volume 4939.370188
_symmetry_space_group_name_H-M "I M M M"
_symmetry_group_IT_number 71
_symmetry_cell_setting 'orthorhombic'
loop_
_space_group_symop_operation_xyz
x,y,z
-x,-y,z
x,-y,-z
-x,y,-z
-x,-y,-z
x,y,-z
-x,y,z
x,-y,z
1/2+x,1/2+y,1/2+z
1/2-x,1/2-y,1/2+z
1/2+x,1/2-y,1/2-z
1/2-x,1/2+y,1/2-z
1/2-x,1/2-y,1/2-z
1/2+x,1/2+y,1/2-z
1/2-x,1/2+y,1/2+z
1/2+x,1/2-y,1/2+z
loop_
_atom_site_type_symbol
_atom_site_label
_atom_site_fract_x
_atom_site_fract_y
_atom_site_fract_z
Si Si1 0.442894 0.325739 0.663261
Si Si2 0.801236 0.175358 0.568317
Si Si3 0.500000 0.680387 0.071971
Si Si4 0.394500 0.821086 0.880769
Si Si5 0.209223 0.320255 0.844101
Si Si6 0.618860 0.821258 0.567766
Si Si7 0.145320 0.178790 0.256340
O O1 0.500000 0.292806 0.688341
O O2 0.434575 0.500000 0.645696
O O3 0.433676 0.229538 0.601203
O O4 0.404217 0.275098 0.716460
O O5 0.775163 0.194597 0.500000
O O6 0.853443 0.275282 0.566551
O O7 0.763550 0.226616 0.624608
O O8 0.816324 0.000000 0.578718
O O9 0.500000 0.500000 0.078205
O O10 0.550455 0.743481 0.106625
O O11 0.500000 0.731206 0.000000
O O12 0.365204 0.761995 0.820082
O O13 0.403534 0.000000 0.878146
O O14 0.206100 0.500000 0.833669
O O15 0.166741 0.260670 0.892450
O O16 0.197495 0.238216 0.778271
O O17 0.621277 0.747077 0.500000
O O18 0.620636 0.000000 0.562346
O O19 0.151501 0.000000 0.267901
#
# Coordination Sequence:
#
# PCOD8291878 Si02
#       7
#    16  16   8  16  16  16  16
#     4   9  19  34  51  73 102 141 188 241 295 348
#     4  10  21  39  64  92 122 161 206 248 301 369
#     4  11  25  47  73  97 125 163 204 247 300 365
#     4  12  26  42  63  94 127 160 199 250 307 361
#     4   9  18  35  59  86 118 155 198 251 301 352
#     4   9  17  30  49  75 107 144 187 236 292 350
#     4  10  21  38  60  85 116 157 204 250 302 364
#
# _framework density 21.055316000000001
#
# number of rings (size 3 to 8) (size 9 to 14) (size 15 to 20)
#    0.000    2.077    0.000    3.000    1.077    7.385 
#    0.000    1.538    0.000    2.769    0.000    0.000 
#    0.000    0.000    0.000    0.000    0.000    0.000 
#
# Total GULP energy -644602.527986 kJ/mol
# GULP energy per Si atom -12396.202461 kJ/mol
# Density = 2.100739 g / cm^3
# Si number density = 21.055316 Si / 1000 Ang^3
#
#
#
# Elastic Constant Matrix: (Units=GPa)
#
#
# Indices 1 2 3 4 5 6 
#
# 1 121.3863 35.2817 37.2110 0.0000 0.0000 0.0000
# 2 35.2817 72.9708 35.4683 0.0000 0.0000 0.0000
# 3 37.2110 35.4683 105.5689 0.0000 0.0000 0.0000
# 4 0.0000 0.0000 0.0000 30.7474 0.0000 0.0000
# 5 0.0000 0.0000 0.0000 0.0000 26.0782 0.0000
# 6 0.0000 0.0000 0.0000 0.0000 0.0000 33.6566
#
#
#
# Elastic Compliance Matrix: (Units=1/GPa)
#
#
# Indices 1 2 3 4 5 6 
#
# 1 0.010023 -0.003740 -0.002276 0.000000 0.000000 0.000000
# 2 -0.003740 0.017774 -0.004653 0.000000 0.000000 0.000000
# 3 -0.002276 -0.004653 0.011838 0.000000 0.000000 0.000000
# 4 0.000000 0.000000 0.000000 0.032523 0.000000 0.000000
# 5 0.000000 0.000000 0.000000 0.000000 0.038346 0.000000
# 6 0.000000 0.000000 0.000000 0.000000 0.000000 0.029712
#
#
# Mechanical properties :
#
#
# Convention : Reuss Voigt Hill
#
# Bulk Modulus (GPa) = 54.65604 57.31643 55.98624
# Shear Modulus (GPa) = 29.82324 30.89411 30.35868
#
# Velocity S-wave (km/s) = 3.76762 3.83467 3.80129
# Velocity P-wave (km/s) = 6.70383 6.84742 6.77600
#
# Compressibility (1/GPa) = 0.01829624
#
# Stress axis : x y z
#
# Youngs Moduli (GPa) = 99.77082 56.26160 84.47127
#
# Poissons Ratio (x) = 0.21040 0.19230
# Poissons Ratio (y) = 0.37311 0.39308
# Poissons Ratio (z) = 0.22713 0.26181
#
# Static dielectric constant tensor:
#      x y z
#    x 3.996270 0.000000 0.000000 
#    y 0.000000 3.648580 0.000000 
#    z 0.000000 0.000000 4.102080 
# 
# 
# High freq. dielectric constant tensor:
#      x y z
#    x 1.829290 0.000000 0.000000 
#    y 0.000000 1.808710 0.000000 
#    z 0.000000 0.000000 1.836550 
# 
# From -- ./inp_files/56219.got.cif
#   From: 2010.06.25/outbox.cif.g09.slc.cpg/sg71_29_cif.got.tgz:56219.got - 2010.06.28 04:59:45.
