data_PCOD8291428
_publ_section_title
;
Structure prediction by ZEFSAII (Michael W. Deem and Ramdas Pophale) SiO2 
 PCOD8291428
Probable space group: I M M M
;
_chemical_formula_sum "Si O2"
_cell_formula_units_Z 80
_cell_length_a 9.465380
_cell_length_b 24.909385
_cell_length_c 19.624592
_cell_angle_alpha 90.000000
_cell_angle_beta 90.000000
_cell_angle_gamma 90.000000
_cell_volume 4627.023397
_symmetry_space_group_name_H-M "I M M M"
_symmetry_group_IT_number 71
_symmetry_cell_setting 'orthorhombic'
loop_
_space_group_symop_operation_xyz
x,y,z
-x,-y,z
x,-y,-z
-x,y,-z
-x,-y,-z
x,y,-z
-x,y,z
x,-y,z
1/2+x,1/2+y,1/2+z
1/2-x,1/2-y,1/2+z
1/2+x,1/2-y,1/2-z
1/2-x,1/2+y,1/2-z
1/2-x,1/2-y,1/2-z
1/2+x,1/2+y,1/2-z
1/2-x,1/2+y,1/2+z
1/2+x,1/2-y,1/2+z
loop_
_atom_site_type_symbol
_atom_site_label
_atom_site_fract_x
_atom_site_fract_y
_atom_site_fract_z
Si Si1 0.163891 0.366678 0.079713
Si Si2 0.336619 0.938402 0.812824
Si Si3 0.835439 0.648242 0.422523
Si Si4 0.163421 0.062926 0.680865
Si Si5 0.156374 0.247025 0.080959
O O1 0.265248 0.407823 0.117530
O O2 0.202344 0.306433 0.105357
O O3 0.000000 0.379305 0.095659
O O4 0.194325 0.373108 0.000000
O O5 0.500000 0.929756 0.792704
O O6 0.293571 0.903406 0.878267
O O7 0.241307 0.919369 0.749990
O O8 0.306295 0.000000 0.832354
O O9 0.786416 0.636589 0.500000
O O10 0.761004 0.701186 0.391547
O O11 0.000000 0.660316 0.419165
O O12 0.000000 0.079464 0.686294
O O13 0.182087 0.000000 0.668319
O O14 0.000000 0.233782 0.108649
O O15 0.155695 0.247521 0.000000
#
# Coordination Sequence:
#
# PCOD8291428 Si02
#       5
#    16  16  16  16  16
#     4   9  18  33  53  75  97 124 160 197 233 281
#     4   9  18  33  51  69  94 130 165 196 235 284
#     4   9  17  29  48  75 101 124 156 198 240 282
#     4  10  21  35  50  70  97 127 159 198 242 284
#     4   8  15  29  48  70  97 127 156 189 233 282
#
# _framework density 17.289732999999998
#
# number of rings (size 3 to 8) (size 9 to 14) (size 15 to 20)
#    0.000    3.000    0.000    1.800    0.000    4.000 
#    0.000    7.000    0.000    0.000    0.000    5.600 
#    0.000    0.000    0.000    0.000    0.000    0.000 
#
# Total GULP energy -495926.319752 kJ/mol
# GULP energy per Si atom -12398.157994 kJ/mol
# Density = 1.725038 g / cm^3
# Si number density = 17.289733 Si / 1000 Ang^3
#
#
#
# Elastic Constant Matrix: (Units=GPa)
#
#
# Indices 1 2 3 4 5 6 
#
# 1 88.0769 59.6928 56.8582 0.0000 0.0000 0.0000
# 2 59.6928 88.8067 56.0098 0.0000 0.0000 0.0000
# 3 56.8582 56.0098 77.8831 0.0000 0.0000 0.0000
# 4 0.0000 0.0000 0.0000 9.3774 0.0000 0.0000
# 5 0.0000 0.0000 0.0000 0.0000 21.6983 0.0000
# 6 0.0000 0.0000 0.0000 0.0000 0.0000 33.3857
#
#
#
# Elastic Compliance Matrix: (Units=1/GPa)
#
#
# Indices 1 2 3 4 5 6 
#
# 1 0.025457 -0.009864 -0.011491 0.000000 0.000000 0.000000
# 2 -0.009864 0.024429 -0.010367 0.000000 0.000000 0.000000
# 3 -0.011491 -0.010367 0.028684 0.000000 0.000000 0.000000
# 4 0.000000 0.000000 0.000000 0.106639 0.000000 0.000000
# 5 0.000000 0.000000 0.000000 0.000000 0.046087 0.000000
# 6 0.000000 0.000000 0.000000 0.000000 0.000000 0.029953
#
#
# Mechanical properties :
#
#
# Convention : Reuss Voigt Hill
#
# Bulk Modulus (GPa) = 66.11088 66.65425 66.38256
# Shear Modulus (GPa) = 15.16370 18.37269 16.76819
#
# Velocity S-wave (km/s) = 2.96469 3.26335 3.11760
# Velocity P-wave (km/s) = 7.07384 7.26872 7.17194
#
# Compressibility (1/GPa) = 0.01512610
#
# Stress axis : x y z
#
# Youngs Moduli (GPa) = 39.28213 40.93478 34.86235
#
# Poissons Ratio (x) = 0.40378 0.40060
# Poissons Ratio (y) = 0.38748 0.36142
# Poissons Ratio (z) = 0.45139 0.42438
#
# Static dielectric constant tensor:
#      x y z
#    x 3.329810 0.000000 0.000000 
#    y 0.000000 3.366830 0.000000 
#    z 0.000000 0.000000 3.025740 
# 
# 
# High freq. dielectric constant tensor:
#      x y z
#    x 1.667090 0.000000 0.000000 
#    y 0.000000 1.671760 0.000000 
#    z 0.000000 0.000000 1.645130 
# 
# From -- ./inp_files/8266.got.cif
#   From: 2010.06.25/outbox.cif.g09.slc.cpg/sg71_5_cif.got.tgz:8266.got - 2010.06.28 04:59:45.
