data_PCOD8291501
_publ_section_title
;
Structure prediction by ZEFSAII (Michael W. Deem and Ramdas Pophale) SiO2 
 PCOD8291501
Probable space group: I M M M
;
_chemical_formula_sum "Si O2"
_cell_formula_units_Z 72
_cell_length_a 10.501086
_cell_length_b 13.876487
_cell_length_c 23.196659
_cell_angle_alpha 90.000000
_cell_angle_beta 90.000000
_cell_angle_gamma 90.000000
_cell_volume 3380.175010
_symmetry_space_group_name_H-M "I M M M"
_symmetry_group_IT_number 71
_symmetry_cell_setting 'orthorhombic'
loop_
_space_group_symop_operation_xyz
x,y,z
-x,-y,z
x,-y,-z
-x,y,-z
-x,-y,-z
x,y,-z
-x,y,z
x,-y,z
1/2+x,1/2+y,1/2+z
1/2-x,1/2-y,1/2+z
1/2+x,1/2-y,1/2-z
1/2-x,1/2+y,1/2-z
1/2-x,1/2-y,1/2-z
1/2+x,1/2+y,1/2-z
1/2-x,1/2+y,1/2+z
1/2+x,1/2-y,1/2+z
loop_
_atom_site_type_symbol
_atom_site_label
_atom_site_fract_x
_atom_site_fract_y
_atom_site_fract_z
Si Si1 0.140907 0.114608 0.254108
Si Si2 0.640751 0.111545 0.170898
Si Si3 0.500000 0.608107 0.567961
Si Si4 0.353047 0.609129 0.115628
Si Si5 0.757039 0.291037 0.433780
O O1 0.253256 0.157191 0.213837
O O2 0.160230 0.151270 0.319506
O O3 0.000000 0.146457 0.231478
O O4 0.148127 0.000000 0.256203
O O5 0.500000 0.126589 0.198087
O O6 0.639227 0.160972 0.108046
O O7 0.671311 0.000000 0.161112
O O8 0.500000 0.500000 0.595739
O O9 0.500000 0.597649 0.500000
O O10 0.621854 0.668409 0.588208
O O11 0.500000 0.613033 0.095996
O O12 0.301369 0.500000 0.110768
O O13 0.266730 0.675396 0.073834
O O14 0.783514 0.319463 0.500000
#
# Coordination Sequence:
#
# PCOD8291501 Si02
#       5
#    16  16   8  16  16
#     4   8  16  34  59  84 113 153 197 240 292 355
#     4  10  21  35  54  86 122 151 188 245 305 360
#     4   9  20  40  61  81 111 153 200 246 290 349
#     4   9  19  38  62  87 117 154 199 250 298 349
#     4  11  23  38  57  84 116 154 201 245 293 356
#
# _framework density 21.300671000000001
#
# number of rings (size 3 to 8) (size 9 to 14) (size 15 to 20)
#    0.000    2.556    0.000    2.667    1.556    4.444 
#    2.000    2.778    0.000    2.000    0.000    0.000 
#    0.000    0.000    0.000    0.000    0.000    0.000 
#
# Total GULP energy -446301.241921 kJ/mol
# GULP energy per Si atom -12397.256720 kJ/mol
# Density = 2.125219 g / cm^3
# Si number density = 21.300671 Si / 1000 Ang^3
#
#
#
# Elastic Constant Matrix: (Units=GPa)
#
#
# Indices 1 2 3 4 5 6 
#
# 1 119.0284 45.5507 45.0873 0.0000 0.0000 0.0000
# 2 45.5507 82.6999 19.9169 0.0000 0.0000 0.0000
# 3 45.0873 19.9169 77.2440 0.0000 0.0000 0.0000
# 4 0.0000 0.0000 0.0000 33.6949 0.0000 0.0000
# 5 0.0000 0.0000 0.0000 0.0000 26.6868 0.0000
# 6 0.0000 0.0000 0.0000 0.0000 0.0000 29.3403
#
#
#
# Elastic Compliance Matrix: (Units=1/GPa)
#
#
# Indices 1 2 3 4 5 6 
#
# 1 0.012841 -0.005617 -0.006047 0.000000 0.000000 0.000000
# 2 -0.005617 0.015349 -0.000679 0.000000 0.000000 0.000000
# 3 -0.006047 -0.000679 0.016651 0.000000 0.000000 0.000000
# 4 0.000000 0.000000 0.000000 0.029678 0.000000 0.000000
# 5 0.000000 0.000000 0.000000 0.000000 0.037472 0.000000
# 6 0.000000 0.000000 0.000000 0.000000 0.000000 0.034083
#
#
# Mechanical properties :
#
#
# Convention : Reuss Voigt Hill
#
# Bulk Modulus (GPa) = 49.61523 55.56467 52.58995
# Shear Modulus (GPa) = 28.17236 29.17223 28.67230
#
# Velocity S-wave (km/s) = 3.64071 3.70475 3.67287
# Velocity P-wave (km/s) = 6.40440 6.66654 6.53679
#
# Compressibility (1/GPa) = 0.02015510
#
# Stress axis : x y z
#
# Youngs Moduli (GPa) = 77.87278 65.15039 60.05655
#
# Poissons Ratio (x) = 0.36592 0.36318
# Poissons Ratio (y) = 0.43738 0.04079
# Poissons Ratio (z) = 0.47092 0.04425
#
# Static dielectric constant tensor:
#      x y z
#    x 3.927830 0.000000 0.000000 
#    y 0.000000 3.815160 0.000000 
#    z 0.000000 0.000000 3.711240 
# 
# 
# High freq. dielectric constant tensor:
#      x y z
#    x 1.824000 0.000000 0.000000 
#    y 0.000000 1.836120 0.000000 
#    z 0.000000 0.000000 1.820950 
# 
# From -- ./inp_files/62864.got.cif
#   From: 2010.06.25/outbox.cif.g09.slc.cpg/sg71_32_cif.got.tgz:62864.got - 2010.06.28 04:59:45.
