data_PCOD8291115
_publ_section_title
;
Structure prediction by ZEFSAII (Michael W. Deem and Ramdas Pophale) SiO2 
 PCOD8291115
Probable space group: I M M M
;
_chemical_formula_sum "Si O2"
_cell_formula_units_Z 88
_cell_length_a 9.054245
_cell_length_b 17.623819
_cell_length_c 30.217722
_cell_angle_alpha 90.000000
_cell_angle_beta 90.000000
_cell_angle_gamma 90.000000
_cell_volume 4821.853233
_symmetry_space_group_name_H-M "I M M M"
_symmetry_group_IT_number 71
_symmetry_cell_setting 'orthorhombic'
loop_
_space_group_symop_operation_xyz
x,y,z
-x,-y,z
x,-y,-z
-x,y,-z
-x,-y,-z
x,y,-z
-x,y,z
x,-y,z
1/2+x,1/2+y,1/2+z
1/2-x,1/2-y,1/2+z
1/2+x,1/2-y,1/2-z
1/2-x,1/2+y,1/2-z
1/2-x,1/2-y,1/2-z
1/2+x,1/2+y,1/2-z
1/2-x,1/2+y,1/2+z
1/2+x,1/2-y,1/2+z
loop_
_atom_site_type_symbol
_atom_site_label
_atom_site_fract_x
_atom_site_fract_y
_atom_site_fract_z
Si Si1 0.665277 0.639787 0.082196
Si Si2 0.673479 0.915198 0.500000
Si Si3 0.828502 0.088894 0.050339
Si Si4 0.331692 0.805442 0.120657
Si Si5 0.172449 0.259985 0.203640
Si Si6 0.333328 0.917146 0.338565
O O1 0.500000 0.615402 0.069274
O O2 0.673254 0.726655 0.095498
O O3 0.720263 0.585145 0.120999
O O4 0.773915 0.631621 0.041692
O O5 0.500000 0.918628 0.500000
O O6 0.740850 0.000000 0.500000
O O7 0.737141 0.132240 0.088003
O O8 0.000000 0.109117 0.056543
O O9 0.800871 0.000000 0.057594
O O10 0.779194 0.111306 0.000000
O O11 0.500000 0.828976 0.131911
O O12 0.242231 0.795866 0.166655
O O13 0.250000 0.250000 0.250000
O O14 0.201404 0.348890 0.194524
O O15 0.000000 0.240283 0.206793
O O16 0.500000 0.907924 0.357059
O O17 0.314496 0.000000 0.315254
#
# Coordination Sequence:
#
# PCOD8291115 Si02
#       6
#    16   8  16  16  16  16
#     4  10  21  34  49  73 104 136 172 215 259 303
#     4  11  23  35  47  67  98 137 178 215 253 300
#     4   9  19  36  57  82 112 146 185 230 280 333
#     4  10  21  36  55  80 109 141 180 222 268 326
#     4  10  20  36  58  81 108 141 178 224 278 331
#     4   9  18  34  55  77 101 132 172 214 259 314
#
# _framework density 18.250243000000001
#
# number of rings (size 3 to 8) (size 9 to 14) (size 15 to 20)
#    0.000    2.273    0.000    3.000    1.273    6.909 
#    0.000    1.818    0.000    3.273    0.000    0.000 
#    0.000    0.000    0.000    0.000    0.000    0.000 
#
# Total GULP energy -545453.923838 kJ/mol
# GULP energy per Si atom -12396.680087 kJ/mol
# Density = 1.820871 g / cm^3
# Si number density = 18.250243 Si / 1000 Ang^3
#
#
#
# Elastic Constant Matrix: (Units=GPa)
#
#
# Indices 1 2 3 4 5 6 
#
# 1 116.1222 45.4861 74.4062 0.0000 0.0000 0.0000
# 2 45.4861 76.9081 53.8360 0.0000 0.0000 0.0000
# 3 74.4062 53.8360 138.5692 0.0000 0.0000 0.0000
# 4 0.0000 0.0000 0.0000 23.1878 0.0000 0.0000
# 5 0.0000 0.0000 0.0000 0.0000 39.9149 0.0000
# 6 0.0000 0.0000 0.0000 0.0000 0.0000 27.0657
#
#
#
# Elastic Compliance Matrix: (Units=1/GPa)
#
#
# Indices 1 2 3 4 5 6 
#
# 1 0.014033 -0.004155 -0.005921 0.000000 0.000000 0.000000
# 2 -0.004155 0.019090 -0.005186 0.000000 0.000000 0.000000
# 3 -0.005921 -0.005186 0.012411 0.000000 0.000000 0.000000
# 4 0.000000 0.000000 0.000000 0.043126 0.000000 0.000000
# 5 0.000000 0.000000 0.000000 0.000000 0.025053 0.000000
# 6 0.000000 0.000000 0.000000 0.000000 0.000000 0.036947
#
#
# Mechanical properties :
#
#
# Convention : Reuss Voigt Hill
#
# Bulk Modulus (GPa) = 66.62006 75.45069 71.03537
# Shear Modulus (GPa) = 26.85478 28.55843 27.70660
#
# Velocity S-wave (km/s) = 3.84014 3.96008 3.90057
# Velocity P-wave (km/s) = 7.49968 7.89567 7.70022
#
# Compressibility (1/GPa) = 0.01501049
#
# Stress axis : x y z
#
# Youngs Moduli (GPa) = 71.26045 52.38373 80.57623
#
# Poissons Ratio (x) = 0.21765 0.47709
# Poissons Ratio (y) = 0.29608 0.41784
# Poissons Ratio (z) = 0.42193 0.27164
#
# Static dielectric constant tensor:
#      x y z
#    x 3.584930 0.000000 0.000000 
#    y 0.000000 3.271120 0.000000 
#    z 0.000000 0.000000 3.190520 
# 
# 
# High freq. dielectric constant tensor:
#      x y z
#    x 1.719000 0.000000 0.000000 
#    y 0.000000 1.705800 0.000000 
#    z 0.000000 0.000000 1.696510 
# 
# From -- ./inp_files/8756.got.cif
#   From: 2010.06.25/outbox.cif.g09.slc.cpg/sg71_5_cif.got.tgz:8756.got - 2010.06.28 04:59:45.
