data_PCOD8291968
_publ_section_title
;
Structure prediction by ZEFSAII (Michael W. Deem and Ramdas Pophale) SiO2 
 PCOD8291968
Probable space group: I M M M
;
_chemical_formula_sum "Si O2"
_cell_formula_units_Z 104
_cell_length_a 29.392538
_cell_length_b 8.733264
_cell_length_c 20.405868
_cell_angle_alpha 90.000000
_cell_angle_beta 90.000000
_cell_angle_gamma 90.000000
_cell_volume 5238.039271
_symmetry_space_group_name_H-M "I M M M"
_symmetry_group_IT_number 71
_symmetry_cell_setting 'orthorhombic'
loop_
_space_group_symop_operation_xyz
x,y,z
-x,-y,z
x,-y,-z
-x,y,-z
-x,-y,-z
x,y,-z
-x,y,z
x,-y,z
1/2+x,1/2+y,1/2+z
1/2-x,1/2-y,1/2+z
1/2+x,1/2-y,1/2-z
1/2-x,1/2+y,1/2-z
1/2-x,1/2-y,1/2-z
1/2+x,1/2+y,1/2-z
1/2-x,1/2+y,1/2+z
1/2+x,1/2-y,1/2+z
loop_
_atom_site_type_symbol
_atom_site_label
_atom_site_fract_x
_atom_site_fract_y
_atom_site_fract_z
Si Si1 0.448357 0.826855 0.075436
Si Si2 0.947619 0.819162 0.865447
Si Si3 0.128607 0.173750 0.649152
Si Si4 0.131535 0.679276 0.214786
Si Si5 0.780987 0.176259 0.575117
Si Si6 0.224579 0.820236 0.812622
Si Si7 0.553918 0.171754 0.500000
O O1 0.500000 0.814443 0.099715
O O2 0.420032 0.708012 0.117927
O O3 0.430403 0.000000 0.085898
O O4 0.444554 0.779731 0.000000
O O5 0.916337 0.748839 0.808878
O O6 0.000000 0.768138 0.853216
O O7 0.943253 0.000000 0.864726
O O8 0.929043 0.759115 0.935306
O O9 0.138048 0.288162 0.708573
O O10 0.166382 0.199633 0.593619
O O11 0.129164 0.000000 0.675718
O O12 0.131397 0.500000 0.201407
O O13 0.174053 0.754107 0.177480
O O14 0.774353 0.226917 0.500000
O O15 0.750651 0.284035 0.620491
O O16 0.766467 0.000000 0.585646
O O17 0.250000 0.750000 0.750000
O O18 0.221874 0.000000 0.800952
O O19 0.500000 0.169149 0.500000
O O20 0.574009 0.000000 0.500000
#
# Coordination Sequence:
#
# PCOD8291968 Si02
#       7
#    16  16  16  16  16  16   8
#     4   9  19  36  56  80 115 158 202 249 299 351
#     4  10  21  39  63  91 124 161 203 253 305 361
#     4  11  22  37  60  88 119 157 200 248 302 362
#     4  12  25  41  63  90 121 160 203 250 304 361
#     4  10  22  41  65  93 125 160 201 252 307 364
#     4  12  24  42  67  93 124 164 207 251 307 369
#     4   9  17  33  59  89 121 159 201 245 299 363
#
# _framework density 19.854758
#
# number of rings (size 3 to 8) (size 9 to 14) (size 15 to 20)
#    0.000    1.462    1.538    4.846    0.000    4.615 
#    1.385    0.769    0.000    0.000    0.000    0.000 
#    0.000    0.000    0.000    0.000    0.000    0.000 
#
# Total GULP energy -645027.252072 kJ/mol
# GULP energy per Si atom -12404.370232 kJ/mol
# Density = 1.980957 g / cm^3
# Si number density = 19.854758 Si / 1000 Ang^3
#
#
#
# Elastic Constant Matrix: (Units=GPa)
#
#
# Indices 1 2 3 4 5 6 
#
# 1 102.4926 50.2157 40.7776 0.0000 0.0000 0.0000
# 2 50.2157 119.0847 39.5207 0.0000 0.0000 0.0000
# 3 40.7776 39.5207 100.4378 0.0000 0.0000 0.0000
# 4 0.0000 0.0000 0.0000 34.1328 0.0000 0.0000
# 5 0.0000 0.0000 0.0000 0.0000 35.6175 0.0000
# 6 0.0000 0.0000 0.0000 0.0000 0.0000 32.7435
#
#
#
# Elastic Compliance Matrix: (Units=1/GPa)
#
#
# Indices 1 2 3 4 5 6 
#
# 1 0.013394 -0.004421 -0.003699 0.000000 0.000000 0.000000
# 2 -0.004421 0.011118 -0.002580 0.000000 0.000000 0.000000
# 3 -0.003699 -0.002580 0.012473 0.000000 0.000000 0.000000
# 4 0.000000 0.000000 0.000000 0.029297 0.000000 0.000000
# 5 0.000000 0.000000 0.000000 0.000000 0.028076 0.000000
# 6 0.000000 0.000000 0.000000 0.000000 0.000000 0.030540
#
#
# Mechanical properties :
#
#
# Convention : Reuss Voigt Hill
#
# Bulk Modulus (GPa) = 64.15647 64.78256 64.46951
# Shear Modulus (GPa) = 33.00493 33.26550 33.13521
#
# Velocity S-wave (km/s) = 4.08158 4.09766 4.08962
# Velocity P-wave (km/s) = 7.38887 7.42205 7.40548
#
# Compressibility (1/GPa) = 0.01558689
#
# Stress axis : x y z
#
# Youngs Moduli (GPa) = 74.65935 89.94700 80.17217
#
# Poissons Ratio (x) = 0.39762 0.29652
# Poissons Ratio (y) = 0.33004 0.20683
# Poissons Ratio (z) = 0.27613 0.23205
#
# Static dielectric constant tensor:
#      x y z
#    x 3.654370 0.000000 0.000000 
#    y 0.000000 3.643770 0.000000 
#    z 0.000000 0.000000 3.591520 
# 
# 
# High freq. dielectric constant tensor:
#      x y z
#    x 1.772580 0.000000 0.000000 
#    y 0.000000 1.780820 0.000000 
#    z 0.000000 0.000000 1.772660 
# 
# From -- ./inp_files/56281.got.cif
#   From: 2010.06.25/outbox.cif.g09.slc.cpg/sg71_29_cif.got.tgz:56281.got - 2010.06.28 04:59:45.
