data_PCOD8291952
_publ_section_title
;
Structure prediction by ZEFSAII (Michael W. Deem and Ramdas Pophale) SiO2 
 PCOD8291952
Probable space group: I M M M
;
_chemical_formula_sum "Si O2"
_cell_formula_units_Z 64
_cell_length_a 14.713430
_cell_length_b 25.827291
_cell_length_c 8.064635
_cell_angle_alpha 90.000000
_cell_angle_beta 90.000000
_cell_angle_gamma 90.000000
_cell_volume 3064.626125
_symmetry_space_group_name_H-M "I M M M"
_symmetry_group_IT_number 71
_symmetry_cell_setting 'orthorhombic'
loop_
_space_group_symop_operation_xyz
x,y,z
-x,-y,z
x,-y,-z
-x,y,-z
-x,-y,-z
x,y,-z
-x,y,z
x,-y,z
1/2+x,1/2+y,1/2+z
1/2-x,1/2-y,1/2+z
1/2+x,1/2-y,1/2-z
1/2-x,1/2+y,1/2-z
1/2-x,1/2-y,1/2-z
1/2+x,1/2+y,1/2-z
1/2-x,1/2+y,1/2+z
1/2+x,1/2-y,1/2+z
loop_
_atom_site_type_symbol
_atom_site_label
_atom_site_fract_x
_atom_site_fract_y
_atom_site_fract_z
Si Si1 0.891853 0.056511 0.000000
Si Si2 0.605107 0.619020 0.815249
Si Si3 0.746806 0.308753 0.303593
Si Si4 0.106837 0.500000 0.810331
Si Si5 0.398295 0.110732 0.193887
O O1 0.856094 0.082207 0.169763
O O2 0.000000 0.054883 0.000000
O O3 0.848837 0.000000 0.000000
O O4 0.500000 0.631163 0.786079
O O5 0.657968 0.672441 0.794870
O O6 0.620480 0.595085 0.000000
O O7 0.734059 0.314478 0.500000
O O8 0.750000 0.250000 0.250000
O O9 0.832953 0.343123 0.240052
O O10 0.144609 0.446174 0.732973
O O11 0.000000 0.500000 0.778631
O O12 0.135185 0.500000 0.000000
O O13 0.500000 0.116689 0.273652
O O14 0.406908 0.116711 0.000000
#
# Coordination Sequence:
#
# PCOD8291952 Si02
#       5
#     8  16  16   8  16
#     4   9  18  36  62  90 121 155 197 248 297 354
#     4  10  21  39  62  87 120 160 201 245 298 357
#     4  11  23  39  59  85 119 156 200 252 301 355
#     4   9  17  31  55  85 116 147 184 235 287 342
#     4   9  19  37  59  83 114 153 193 234 288 351
#
# _framework density 20.883459999999999
#
# number of rings (size 3 to 8) (size 9 to 14) (size 15 to 20)
#    0.000    2.250    1.250    1.125    0.000    5.000 
#    2.250    5.000    0.000    0.000    0.000    0.000 
#    0.000    0.000    0.000    0.000    0.000    0.000 
#
# Total GULP energy -396563.133472 kJ/mol
# GULP energy per Si atom -12392.597921 kJ/mol
# Density = 2.083593 g / cm^3
# Si number density = 20.883460 Si / 1000 Ang^3
#
#
#
# Elastic Constant Matrix: (Units=GPa)
#
#
# Indices 1 2 3 4 5 6 
#
# 1 71.5846 64.9444 38.3170 -0.0003 0.0004 0.0001
# 2 64.9444 184.5631 50.8966 -0.0016 0.0003 -0.0001
# 3 38.3170 50.8966 112.8528 -0.0124 0.0015 0.0006
# 4 -0.0003 -0.0016 -0.0124 31.4582 0.0008 0.0002
# 5 0.0004 0.0003 0.0015 0.0008 19.8422 0.0000
# 6 0.0001 -0.0001 0.0006 0.0002 0.0000 33.4971
#
#
#
# Elastic Compliance Matrix: (Units=1/GPa)
#
#
# Indices 1 2 3 4 5 6 
#
# 1 0.022463 -0.006625 -0.004639 -0.000002 0.000000 0.000000
# 2 -0.006625 0.008142 -0.001422 0.000000 0.000000 0.000000
# 3 -0.004639 -0.001422 0.011078 0.000004 -0.000001 0.000000
# 4 -0.000002 0.000000 0.000004 0.031788 -0.000001 0.000000
# 5 0.000000 0.000000 -0.000001 -0.000001 0.050398 0.000000
# 6 0.000000 0.000000 0.000000 0.000000 0.000000 0.029853
#
#
# Mechanical properties :
#
#
# Convention : Reuss Voigt Hill
#
# Bulk Modulus (GPa) = 61.31429 75.25740 68.28585
# Shear Modulus (GPa) = 27.09567 31.28235 29.18901
#
# Velocity S-wave (km/s) = 3.60595 3.87453 3.74265
# Velocity P-wave (km/s) = 6.83821 7.49207 7.17259
#
# Compressibility (1/GPa) = 0.01630941
#
# Stress axis : x y z
#
# Youngs Moduli (GPa) = 44.51735 122.82406 90.27114
#
# Poissons Ratio (x) = 0.81372 0.41877
# Poissons Ratio (y) = 0.29493 0.12841
# Poissons Ratio (z) = 0.20652 0.17472
#
# Static dielectric constant tensor:
#      x y z
#    x 4.112910 -0.000070 0.000040 
#    y -0.000070 4.302640 -0.000010 
#    z 0.000040 -0.000010 3.863870 
# 
# 
# High freq. dielectric constant tensor:
#      x y z
#    x 1.810070 0.000000 0.000000 
#    y 0.000000 1.810740 0.000000 
#    z 0.000000 0.000000 1.820440 
# 
# From -- ./inp_files/5859.got.cif
#   From: 2010.06.25/outbox.cif.g09.slc.cpg/sg71_3_cif.got.tgz:5859.got - 2010.06.28 04:59:45.
