data_PCOD8291479
_publ_section_title
;
Structure prediction by ZEFSAII (Michael W. Deem and Ramdas Pophale) SiO2 
 PCOD8291479
Probable space group: I M M M
;
_chemical_formula_sum "Si O2"
_cell_formula_units_Z 88
_cell_length_a 18.092097
_cell_length_b 18.827594
_cell_length_c 13.155892
_cell_angle_alpha 90.000000
_cell_angle_beta 90.000000
_cell_angle_gamma 90.000000
_cell_volume 4481.300134
_symmetry_space_group_name_H-M "I M M M"
_symmetry_group_IT_number 71
_symmetry_cell_setting 'orthorhombic'
loop_
_space_group_symop_operation_xyz
x,y,z
-x,-y,z
x,-y,-z
-x,y,-z
-x,-y,-z
x,y,-z
-x,y,z
x,-y,z
1/2+x,1/2+y,1/2+z
1/2-x,1/2-y,1/2+z
1/2+x,1/2-y,1/2-z
1/2-x,1/2+y,1/2-z
1/2-x,1/2-y,1/2-z
1/2+x,1/2+y,1/2-z
1/2-x,1/2+y,1/2+z
1/2+x,1/2-y,1/2+z
loop_
_atom_site_type_symbol
_atom_site_label
_atom_site_fract_x
_atom_site_fract_y
_atom_site_fract_z
Si Si1 0.642117 0.773921 0.180478
Si Si2 0.581967 0.366033 0.116290
Si Si3 0.000000 0.417641 0.890639
Si Si4 0.869429 0.419897 0.256870
Si Si5 0.701600 0.421151 0.268378
Si Si6 0.696075 0.281402 0.615730
O O1 0.584088 0.719351 0.132830
O O2 0.619260 0.856561 0.159648
O O3 0.646674 0.762107 0.303395
O O4 0.719869 0.755171 0.127749
O O5 0.500000 0.391453 0.148871
O O6 0.643235 0.407125 0.179849
O O7 0.596612 0.385024 0.000000
O O8 0.075140 0.398151 0.832539
O O9 0.000000 0.500000 0.910661
O O10 0.000000 0.377958 0.000000
O O11 0.886801 0.500000 0.299461
O O12 0.784146 0.415213 0.220145
O O13 0.689145 0.500000 0.313036
O O14 0.690937 0.365615 0.359667
O O15 0.668869 0.268404 0.500000
#
# Coordination Sequence:
#
# PCOD8291479 Si02
#       6
#    16  16   8  16  16  16
#     4   9  18  31  51  75 104 139 172 218 263 308
#     4  10  21  35  53  78 106 140 181 222 266 316
#     4   9  18  30  44  68  99 129 166 209 253 307
#     4   9  18  32  50  73 101 136 172 209 260 315
#     4   9  19  35  53  77 106 137 174 218 268 316
#     4   9  17  31  52  78 104 134 175 216 261 315
#
# _framework density 19.637157999999999
#
# number of rings (size 3 to 8) (size 9 to 14) (size 15 to 20)
#    0.000    2.818    0.000    1.636    1.273    2.545 
#    0.000    2.727    0.000    6.545    0.000    6.364 
#    0.000    0.000    0.000    0.000    0.000    0.000 
#
# Total GULP energy -545100.808584 kJ/mol
# GULP energy per Si atom -12388.654741 kJ/mol
# Density = 1.959246 g / cm^3
# Si number density = 19.637158 Si / 1000 Ang^3
#
#
#
# Elastic Constant Matrix: (Units=GPa)
#
#
# Indices 1 2 3 4 5 6 
#
# 1 66.2572 4.1301 17.4463 0.0000 0.0000 0.0000
# 2 4.1301 86.7236 -4.2518 0.0000 0.0000 0.0000
# 3 17.4463 -4.2518 62.6086 0.0000 0.0000 0.0000
# 4 0.0000 0.0000 0.0000 14.1314 0.0000 0.0000
# 5 0.0000 0.0000 0.0000 0.0000 19.7298 0.0000
# 6 0.0000 0.0000 0.0000 0.0000 0.0000 19.8343
#
#
#
# Elastic Compliance Matrix: (Units=1/GPa)
#
#
# Indices 1 2 3 4 5 6 
#
# 1 0.016375 -0.001007 -0.004631 0.000000 0.000000 0.000000
# 2 -0.001007 0.011631 0.001070 0.000000 0.000000 0.000000
# 3 -0.004631 0.001070 0.017336 0.000000 0.000000 0.000000
# 4 0.000000 0.000000 0.000000 0.070765 0.000000 0.000000
# 5 0.000000 0.000000 0.000000 0.000000 0.050685 0.000000
# 6 0.000000 0.000000 0.000000 0.000000 0.000000 0.050418
#
#
# Mechanical properties :
#
#
# Convention : Reuss Voigt Hill
#
# Bulk Modulus (GPa) = 27.61957 27.80427 27.71192
# Shear Modulus (GPa) = 20.97201 23.95675 22.46438
#
# Velocity S-wave (km/s) = 3.27153 3.49660 3.38594
# Velocity P-wave (km/s) = 5.32598 5.52190 5.42482
#
# Compressibility (1/GPa) = 0.03620621
#
# Stress axis : x y z
#
# Youngs Moduli (GPa) = 61.06890 85.97477 57.68505
#
# Poissons Ratio (x) = 0.08657 0.26716
# Poissons Ratio (y) = 0.06149 -0.06175
# Poissons Ratio (z) = 0.28283 -0.09203
#
# Static dielectric constant tensor:
#      x y z
#    x 3.670910 0.000000 0.000000 
#    y 0.000000 3.888800 0.000000 
#    z 0.000000 0.000000 3.266730 
# 
# 
# High freq. dielectric constant tensor:
#      x y z
#    x 1.756090 0.000000 0.000000 
#    y 0.000000 1.777010 0.000000 
#    z 0.000000 0.000000 1.723050 
# 
# From -- ./inp_files/23943.got.cif
#   From: 2010.06.25/outbox.cif.g09.slc.cpg/sg71_12_cif.got.tgz:23943.got - 2010.06.28 04:59:45.
