data_PCOD8291278
_publ_section_title
;
Structure prediction by ZEFSAII (Michael W. Deem and Ramdas Pophale) SiO2 
 PCOD8291278
Probable space group: I M M M
;
_chemical_formula_sum "Si O2"
_cell_formula_units_Z 72
_cell_length_a 8.961572
_cell_length_b 22.590730
_cell_length_c 19.059532
_cell_angle_alpha 90.000000
_cell_angle_beta 90.000000
_cell_angle_gamma 90.000000
_cell_volume 3858.572776
_symmetry_space_group_name_H-M "I M M M"
_symmetry_group_IT_number 71
_symmetry_cell_setting 'orthorhombic'
loop_
_space_group_symop_operation_xyz
x,y,z
-x,-y,z
x,-y,-z
-x,y,-z
-x,-y,-z
x,y,-z
-x,y,z
x,-y,z
1/2+x,1/2+y,1/2+z
1/2-x,1/2-y,1/2+z
1/2+x,1/2-y,1/2-z
1/2-x,1/2+y,1/2-z
1/2-x,1/2-y,1/2-z
1/2+x,1/2+y,1/2-z
1/2-x,1/2+y,1/2+z
1/2+x,1/2-y,1/2+z
loop_
_atom_site_type_symbol
_atom_site_label
_atom_site_fract_x
_atom_site_fract_y
_atom_site_fract_z
Si Si1 0.673647 0.402857 0.172277
Si Si2 0.322815 0.434645 0.673341
Si Si3 0.824216 0.826848 0.918858
Si Si4 0.173951 0.233665 0.677158
Si Si5 0.175681 0.500000 0.919268
O O1 0.500000 0.419162 0.167099
O O2 0.736314 0.418553 0.249378
O O3 0.703377 0.334221 0.157382
O O4 0.760823 0.440646 0.115189
O O5 0.500000 0.433261 0.673557
O O6 0.264473 0.500000 0.651897
O O7 0.263236 0.386679 0.617785
O O8 0.741714 0.770837 0.886342
O O9 0.000000 0.819072 0.906490
O O10 0.782512 0.831008 0.000000
O O11 0.250000 0.250000 0.750000
O O12 0.000000 0.247121 0.685272
O O13 0.000000 0.500000 0.909900
O O14 0.224296 0.500000 0.000000
#
# Coordination Sequence:
#
# PCOD8291278 Si02
#       5
#    16  16  16  16   8
#     4  10  20  37  61  85 110 148 196 241 282 340
#     4   9  16  31  57  85 111 142 188 236 278 331
#     4  10  21  37  57  85 121 154 188 237 293 345
#     4  11  22  37  60  87 117 152 197 245 290 346
#     4  11  25  41  57  85 122 151 184 238 298 352
#
# _framework density 18.659749000000001
#
# number of rings (size 3 to 8) (size 9 to 14) (size 15 to 20)
#    0.000    1.889    3.333    1.000    0.000    4.444 
#    0.000    6.667    0.000    0.000    0.000    1.556 
#    0.000    0.000    0.000    0.000    0.000    0.000 
#
# Total GULP energy -446474.627720 kJ/mol
# GULP energy per Si atom -12402.072992 kJ/mol
# Density = 1.861728 g / cm^3
# Si number density = 18.659749 Si / 1000 Ang^3
#
#
#
# Elastic Constant Matrix: (Units=GPa)
#
#
# Indices 1 2 3 4 5 6 
#
# 1 60.0770 51.2857 61.7581 0.0000 0.0000 0.0000
# 2 51.2857 157.3330 95.3170 0.0000 0.0000 0.0000
# 3 61.7581 95.3170 165.7378 0.0000 0.0000 0.0000
# 4 0.0000 0.0000 0.0000 36.6558 0.0000 0.0000
# 5 0.0000 0.0000 0.0000 0.0000 27.9911 0.0000
# 6 0.0000 0.0000 0.0000 0.0000 0.0000 30.1112
#
#
#
# Elastic Compliance Matrix: (Units=1/GPa)
#
#
# Indices 1 2 3 4 5 6 
#
# 1 0.028869 -0.004440 -0.008204 0.000000 0.000000 0.000000
# 2 -0.004440 0.010438 -0.004348 0.000000 0.000000 0.000000
# 3 -0.008204 -0.004348 0.011591 0.000000 0.000000 0.000000
# 4 0.000000 0.000000 0.000000 0.027281 0.000000 0.000000
# 5 0.000000 0.000000 0.000000 0.000000 0.035726 0.000000
# 6 0.000000 0.000000 0.000000 0.000000 0.000000 0.033210
#
#
# Mechanical properties :
#
#
# Convention : Reuss Voigt Hill
#
# Bulk Modulus (GPa) = 59.12437 88.87437 73.99937
# Shear Modulus (GPa) = 26.77563 30.60407 28.68985
#
# Velocity S-wave (km/s) = 3.79217 4.05422 3.92538
# Velocity P-wave (km/s) = 7.13641 8.34553 7.76455
#
# Compressibility (1/GPa) = 0.01691350
#
# Stress axis : x y z
#
# Youngs Moduli (GPa) = 34.63904 95.80726 86.27261
#
# Poissons Ratio (x) = 0.42543 0.70775
# Poissons Ratio (y) = 0.15381 0.37513
# Poissons Ratio (z) = 0.28417 0.41658
#
# Static dielectric constant tensor:
#      x y z
#    x 3.225130 0.000000 0.000000 
#    y 0.000000 4.029960 0.000000 
#    z 0.000000 0.000000 3.457480 
# 
# 
# High freq. dielectric constant tensor:
#      x y z
#    x 1.699090 0.000000 0.000000 
#    y 0.000000 1.743910 0.000000 
#    z 0.000000 0.000000 1.725150 
# 
# From -- ./inp_files/7993.got.cif
#   From: 2010.06.25/outbox.cif.g09.slc.cpg/sg71_4_cif.got.tgz:7993.got - 2010.06.28 04:59:45.
