data_PCOD8291791
_publ_section_title
;
Structure prediction by ZEFSAII (Michael W. Deem and Ramdas Pophale) SiO2 
 PCOD8291791
Probable space group: I M M M
;
_chemical_formula_sum "Si O2"
_cell_formula_units_Z 72
_cell_length_a 14.744002
_cell_length_b 28.852180
_cell_length_c 8.710544
_cell_angle_alpha 90.000000
_cell_angle_beta 90.000000
_cell_angle_gamma 90.000000
_cell_volume 3705.435798
_symmetry_space_group_name_H-M "I M M M"
_symmetry_group_IT_number 71
_symmetry_cell_setting 'orthorhombic'
loop_
_space_group_symop_operation_xyz
x,y,z
-x,-y,z
x,-y,-z
-x,y,-z
-x,-y,-z
x,y,-z
-x,y,z
x,-y,z
1/2+x,1/2+y,1/2+z
1/2-x,1/2-y,1/2+z
1/2+x,1/2-y,1/2-z
1/2-x,1/2+y,1/2-z
1/2-x,1/2-y,1/2-z
1/2+x,1/2+y,1/2-z
1/2-x,1/2+y,1/2+z
1/2+x,1/2-y,1/2+z
loop_
_atom_site_type_symbol
_atom_site_label
_atom_site_fract_x
_atom_site_fract_y
_atom_site_fract_z
Si Si1 0.500000 0.445665 0.817950
Si Si2 0.636012 0.373615 0.680314
Si Si3 0.393459 0.949418 0.168930
Si Si4 0.500000 0.702957 0.680360
Si Si5 0.328437 0.864646 0.676029
Si Si6 0.000000 0.306154 0.183277
O O1 0.500000 0.500000 0.763692
O O2 0.590765 0.419020 0.758840
O O3 0.500000 0.443476 0.000000
O O4 0.625680 0.381915 0.500000
O O5 0.586640 0.326489 0.733431
O O6 0.738459 0.362238 0.723694
O O7 0.500000 0.953563 0.170447
O O8 0.362636 0.917074 0.307631
O O9 0.350207 0.000000 0.197796
O O10 0.361546 0.931033 0.000000
O O11 0.500000 0.710667 0.500000
O O12 0.500000 0.754306 0.753942
O O13 0.306150 0.853274 0.500000
O O14 0.407889 0.831176 0.742158
O O15 0.000000 0.308377 0.000000
#
# Coordination Sequence:
#
# PCOD8291791 Si02
#       6
#     8  16  16   8  16   8
#     4  10  21  39  63  89 115 144 181 228 278 328
#     4  10  21  37  59  84 112 148 185 227 276 327
#     4   9  18  33  52  73 102 141 181 222 267 317
#     4   8  17  37  59  78 105 141 183 229 281 334
#     4  11  21  34  54  82 114 148 185 228 278 329
#     4   9  19  35  55  80 111 146 183 230 281 329
#
# _framework density 19.430911999999999
#
# number of rings (size 3 to 8) (size 9 to 14) (size 15 to 20)
#    0.000    2.333    1.111    3.000    0.000    3.111 
#    0.000    1.111    0.000   14.667    0.000    0.000 
#    0.000    0.000    0.000    0.000    0.000    0.000 
#
# Total GULP energy -446084.392198 kJ/mol
# GULP energy per Si atom -12391.233117 kJ/mol
# Density = 1.938669 g / cm^3
# Si number density = 19.430912 Si / 1000 Ang^3
#
#
#
# Elastic Constant Matrix: (Units=GPa)
#
#
# Indices 1 2 3 4 5 6 
#
# 1 127.8088 75.6311 24.9722 -0.0006 0.0007 0.0002
# 2 75.6311 159.2380 32.8988 0.0046 0.0004 -0.0004
# 3 24.9722 32.8988 50.0590 0.0076 0.0083 -0.0032
# 4 -0.0006 0.0046 0.0076 26.8202 0.0007 0.0005
# 5 0.0007 0.0004 0.0083 0.0007 21.4103 0.0000
# 6 0.0002 -0.0004 -0.0032 0.0005 0.0000 6.1853
#
#
#
# Elastic Compliance Matrix: (Units=1/GPa)
#
#
# Indices 1 2 3 4 5 6 
#
# 1 0.011127 -0.004788 -0.002404 0.000002 0.000001 -0.000002
# 2 -0.004788 0.009327 -0.003741 -0.000001 0.000001 -0.000001
# 3 -0.002404 -0.003741 0.023634 -0.000006 -0.000009 0.000012
# 4 0.000002 -0.000001 -0.000006 0.037285 -0.000001 -0.000003
# 5 0.000001 0.000001 -0.000009 -0.000001 0.046707 0.000000
# 6 -0.000002 -0.000001 0.000012 -0.000003 0.000000 0.161675
#
#
# Mechanical properties :
#
#
# Convention : Reuss Voigt Hill
#
# Bulk Modulus (GPa) = 45.00071 67.12334 56.06203
# Shear Modulus (GPa) = 15.67252 24.45673 20.06462
#
# Velocity S-wave (km/s) = 2.84311 3.55160 3.21692
# Velocity P-wave (km/s) = 5.82986 7.17203 6.53549
#
# Compressibility (1/GPa) = 0.02222187
#
# Stress axis : x y z
#
# Youngs Moduli (GPa) = 89.86801 107.21471 42.31133
#
# Poissons Ratio (x) = 0.51338 0.10172
# Poissons Ratio (y) = 0.43032 0.15829
# Poissons Ratio (z) = 0.21605 0.40110
#
# Static dielectric constant tensor:
#      x y z
#    x 3.788710 0.000000 0.000020 
#    y 0.000000 3.961190 -0.000010 
#    z 0.000020 -0.000010 3.388220 
# 
# 
# High freq. dielectric constant tensor:
#      x y z
#    x 1.756300 0.000000 0.000000 
#    y 0.000000 1.759950 0.000000 
#    z 0.000000 0.000000 1.737180 
# 
# From -- ./inp_files/6175.got.cif
#   From: 2010.06.25/outbox.cif.g09.slc.cpg/sg71_4_cif.got.tgz:6175.got - 2010.06.28 04:59:45.
