data_PCOD8291185
_publ_section_title
;
Structure prediction by ZEFSAII (Michael W. Deem and Ramdas Pophale) SiO2 
 PCOD8291185
Probable space group: I M M M
;
_chemical_formula_sum "Si O2"
_cell_formula_units_Z 112
_cell_length_a 13.751287
_cell_length_b 15.754038
_cell_length_c 25.085134
_cell_angle_alpha 90.000000
_cell_angle_beta 90.000000
_cell_angle_gamma 90.000000
_cell_volume 5434.400734
_symmetry_space_group_name_H-M "I M M M"
_symmetry_group_IT_number 71
_symmetry_cell_setting 'orthorhombic'
loop_
_space_group_symop_operation_xyz
x,y,z
-x,-y,z
x,-y,-z
-x,y,-z
-x,-y,-z
x,y,-z
-x,y,z
x,-y,z
1/2+x,1/2+y,1/2+z
1/2-x,1/2-y,1/2+z
1/2+x,1/2-y,1/2-z
1/2-x,1/2+y,1/2-z
1/2-x,1/2-y,1/2-z
1/2+x,1/2+y,1/2-z
1/2-x,1/2+y,1/2+z
1/2+x,1/2-y,1/2+z
loop_
_atom_site_type_symbol
_atom_site_label
_atom_site_fract_x
_atom_site_fract_y
_atom_site_fract_z
Si Si1 0.607491 0.402076 0.343859
Si Si2 0.388520 0.144333 0.438957
Si Si3 0.804151 0.176100 0.057071
Si Si4 0.792564 0.904330 0.629744
Si Si5 0.889864 0.261851 0.591913
Si Si6 0.107614 0.593372 0.678564
Si Si7 0.270297 0.348229 0.249967
O O1 0.500000 0.370752 0.359920
O O2 0.609609 0.500000 0.330910
O O3 0.681192 0.386130 0.393058
O O4 0.637775 0.356762 0.289303
O O5 0.366495 0.115376 0.500000
O O6 0.500000 0.120685 0.423700
O O7 0.375997 0.245182 0.433667
O O8 0.313603 0.100486 0.398108
O O9 0.692475 0.208140 0.050792
O O10 0.829081 0.131942 0.000000
O O11 0.868730 0.836310 0.606237
O O12 0.788519 0.885388 0.692104
O O13 0.832533 0.000000 0.621070
O O14 0.876002 0.325996 0.640924
O O15 0.000000 0.268247 0.568792
O O16 0.122376 0.500000 0.650432
O O17 0.180430 0.598526 0.727596
O O18 0.000000 0.598563 0.702706
O O19 0.250000 0.250000 0.250000
#
# Coordination Sequence:
#
# PCOD8291185 Si02
#       7
#    16  16  16  16  16  16  16
#     4  11  24  40  59  87 125 166 204 246 305 373
#     4   9  19  38  62  88 122 162 204 254 311 369
#     4  10  20  37  62  90 119 156 204 256 305 361
#     4  11  23  37  58  90 124 161 209 259 305 364
#     4  10  21  39  60  86 119 156 199 249 307 366
#     4  10  20  36  60  84 110 150 196 245 303 362
#     4  12  22  39  60  84 122 162 202 255 305 361
#
# _framework density 20.609448
#
# number of rings (size 3 to 8) (size 9 to 14) (size 15 to 20)
#    0.000    1.571    2.857    2.571    0.000    4.000 
#    0.000    1.429    0.000    0.000    0.000    7.000 
#    0.000    0.000    0.000    0.000    0.000    0.000 
#
# Total GULP energy -693948.907610 kJ/mol
# GULP energy per Si atom -12391.944779 kJ/mol
# Density = 2.056254 g / cm^3
# Si number density = 20.609448 Si / 1000 Ang^3
#
#
#
# Elastic Constant Matrix: (Units=GPa)
#
#
# Indices 1 2 3 4 5 6 
#
# 1 115.3014 30.6771 27.5740 0.0000 0.0000 0.0000
# 2 30.6771 108.8629 18.7707 0.0000 0.0000 0.0000
# 3 27.5740 18.7707 102.6945 0.0000 0.0000 0.0000
# 4 0.0000 0.0000 0.0000 -44.4677 0.0000 0.0000
# 5 0.0000 0.0000 0.0000 0.0000 17.9124 0.0000
# 6 0.0000 0.0000 0.0000 0.0000 0.0000 26.1883
#
#
#
# Elastic Compliance Matrix: (Units=1/GPa)
#
#
# Indices 1 2 3 4 5 6 
#
# 1 0.009836 -0.002392 -0.002204 0.000000 0.000000 0.000000
# 2 -0.002392 0.010066 -0.001198 0.000000 0.000000 0.000000
# 3 -0.002204 -0.001198 0.010548 0.000000 0.000000 0.000000
# 4 0.000000 0.000000 0.000000 -0.022488 0.000000 0.000000
# 5 0.000000 0.000000 0.000000 0.000000 0.055827 0.000000
# 6 0.000000 0.000000 0.000000 0.000000 0.000000 0.038185
#
#
# Mechanical properties :
#
#
# Convention : Reuss Voigt Hill
#
# Bulk Modulus (GPa) = 53.01083 53.43360 53.22221
# Shear Modulus (GPa) = 41.71883 16.58242 29.15062
#
# Velocity S-wave (km/s) = 4.50406 2.83963 3.76497
# Velocity P-wave (km/s) = 7.26816 6.06089 6.69180
#
# Compressibility (1/GPa) = 0.01886407
#
# Stress axis : x y z
#
# Youngs Moduli (GPa) = 101.66369 99.34046 94.80195
#
# Poissons Ratio (x) = 0.23761 0.20894
# Poissons Ratio (y) = 0.24316 0.11355
# Poissons Ratio (z) = 0.22406 0.11898
#
# Static dielectric constant tensor:
#      x y z
#    x 4.015970 0.000000 0.000000 
#    y 0.000000 3.857480 0.000000 
#    z 0.000000 0.000000 2.910620 
# 
# 
# High freq. dielectric constant tensor:
#      x y z
#    x 1.812420 0.000000 0.000000 
#    y 0.000000 1.808070 0.000000 
#    z 0.000000 0.000000 1.792570 
# 
# From -- ./inp_files/59922.got.cif
#   From: 2010.06.25/outbox.cif.g09.slc.cpg/sg71_30_cif.got.tgz:59922.got - 2010.06.28 04:59:45.
