data_PCOD8291337
_publ_section_title
;
Structure prediction by ZEFSAII (Michael W. Deem and Ramdas Pophale) SiO2 
 PCOD8291337
Probable space group: I M M M
;
_chemical_formula_sum "Si O2"
_cell_formula_units_Z 88
_cell_length_a 7.758977
_cell_length_b 28.943357
_cell_length_c 19.553276
_cell_angle_alpha 90.000000
_cell_angle_beta 90.000000
_cell_angle_gamma 90.000000
_cell_volume 4391.095641
_symmetry_space_group_name_H-M "I M M M"
_symmetry_group_IT_number 71
_symmetry_cell_setting 'orthorhombic'
loop_
_space_group_symop_operation_xyz
x,y,z
-x,-y,z
x,-y,-z
-x,y,-z
-x,-y,-z
x,y,-z
-x,y,z
x,-y,z
1/2+x,1/2+y,1/2+z
1/2-x,1/2-y,1/2+z
1/2+x,1/2-y,1/2-z
1/2-x,1/2+y,1/2-z
1/2-x,1/2-y,1/2-z
1/2+x,1/2+y,1/2-z
1/2-x,1/2+y,1/2+z
1/2+x,1/2-y,1/2+z
loop_
_atom_site_type_symbol
_atom_site_label
_atom_site_fract_x
_atom_site_fract_y
_atom_site_fract_z
Si Si1 0.701974 0.093616 0.334475
Si Si2 0.794219 0.377204 0.423588
Si Si3 0.703618 0.051787 0.188751
Si Si4 0.298723 0.197112 0.311775
Si Si5 0.000000 0.945829 0.424179
Si Si6 0.801734 0.292531 0.339061
O O1 0.500000 0.082763 0.349046
O O2 0.755358 0.077222 0.258780
O O3 0.743800 0.147738 0.344146
O O4 0.822792 0.068155 0.387819
O O5 0.719693 0.384107 0.500000
O O6 0.724534 0.418494 0.375071
O O7 0.722505 0.328062 0.394460
O O8 0.000000 0.377657 0.425586
O O9 0.500000 0.048721 0.183614
O O10 0.783149 0.000000 0.186803
O O11 0.500000 0.204988 0.305932
O O12 0.223678 0.238527 0.359418
O O13 0.215457 0.199685 0.235644
O O14 0.000000 0.923969 0.500000
O O15 0.000000 0.000000 0.428486
O O16 0.000000 0.306008 0.333884
#
# Coordination Sequence:
#
# PCOD8291337 Si02
#       6
#    16  16  16  16   8  16
#     4  10  20  38  63  88 117 153 190 237 292 342
#     4   9  16  27  44  71 110 150 187 232 285 338
#     4   9  16  28  49  77 108 145 191 237 278 329
#     4   9  17  30  51  78 105 138 188 237 280 335
#     4  11  26  44  62  90 121 147 187 237 293 369
#     4   9  16  28  47  74 107 144 185 233 285 337
#
# _framework density 20.040555999999999
#
# number of rings (size 3 to 8) (size 9 to 14) (size 15 to 20)
#    0.000    2.636    1.818    0.545    1.273    1.818 
#    0.000    3.636    0.000    1.636    0.000    0.000 
#    0.000    2.182    0.000    0.182    0.000    0.000 
#
# Total GULP energy -545301.002606 kJ/mol
# GULP energy per Si atom -12393.204605 kJ/mol
# Density = 1.999494 g / cm^3
# Si number density = 20.040556 Si / 1000 Ang^3
#
#
#
# Elastic Constant Matrix: (Units=GPa)
#
#
# Indices 1 2 3 4 5 6 
#
# 1 40.6754 23.1047 32.4231 0.0000 0.0000 0.0000
# 2 23.1047 150.9463 69.5811 0.0000 0.0000 0.0000
# 3 32.4231 69.5811 136.6923 0.0000 0.0000 0.0000
# 4 0.0000 0.0000 0.0000 28.6256 0.0000 0.0000
# 5 0.0000 0.0000 0.0000 0.0000 12.4492 0.0000
# 6 0.0000 0.0000 0.0000 0.0000 0.0000 24.4398
#
#
#
# Elastic Compliance Matrix: (Units=1/GPa)
#
#
# Indices 1 2 3 4 5 6 
#
# 1 0.030668 -0.001752 -0.006382 0.000000 0.000000 0.000000
# 2 -0.001752 0.008756 -0.004042 0.000000 0.000000 0.000000
# 3 -0.006382 -0.004042 0.010887 0.000000 0.000000 0.000000
# 4 0.000000 0.000000 0.000000 0.034934 0.000000 0.000000
# 5 0.000000 0.000000 0.000000 0.000000 0.080326 0.000000
# 6 0.000000 0.000000 0.000000 0.000000 0.000000 0.040917
#
#
# Mechanical properties :
#
#
# Convention : Reuss Voigt Hill
#
# Bulk Modulus (GPa) = 38.52305 64.28130 51.40217
# Shear Modulus (GPa) = 20.87750 26.64994 23.76372
#
# Velocity S-wave (km/s) = 3.23114 3.65060 3.44725
# Velocity P-wave (km/s) = 5.76061 7.06501 6.44589
#
# Compressibility (1/GPa) = 0.02595849
#
# Stress axis : x y z
#
# Youngs Moduli (GPa) = 32.60767 114.20640 91.85357
#
# Poissons Ratio (x) = 0.20010 0.58625
# Poissons Ratio (y) = 0.05713 0.37123
# Poissons Ratio (z) = 0.20812 0.46157
#
# Static dielectric constant tensor:
#      x y z
#    x 3.239160 0.000000 0.000000 
#    y 0.000000 3.982390 0.000000 
#    z 0.000000 0.000000 3.658120 
# 
# 
# High freq. dielectric constant tensor:
#      x y z
#    x 1.752070 0.000000 0.000000 
#    y 0.000000 1.798690 0.000000 
#    z 0.000000 0.000000 1.752330 
# 
# From -- ./inp_files/8819.got.cif
#   From: 2010.06.25/outbox.cif.g09.slc.cpg/sg71_5_cif.got.tgz:8819.got - 2010.06.28 04:59:45.
