data_PCOD8291634
_publ_section_title
;
Structure prediction by ZEFSAII (Michael W. Deem and Ramdas Pophale) SiO2 
 PCOD8291634
Probable space group: I M M M
;
_chemical_formula_sum "Si O2"
_cell_formula_units_Z 120
_cell_length_a 8.090954
_cell_length_b 25.907220
_cell_length_c 28.417395
_cell_angle_alpha 90.000000
_cell_angle_beta 90.000000
_cell_angle_gamma 90.000000
_cell_volume 5956.687396
_symmetry_space_group_name_H-M "I M M M"
_symmetry_group_IT_number 71
_symmetry_cell_setting 'orthorhombic'
loop_
_space_group_symop_operation_xyz
x,y,z
-x,-y,z
x,-y,-z
-x,y,-z
-x,-y,-z
x,y,-z
-x,y,z
x,-y,z
1/2+x,1/2+y,1/2+z
1/2-x,1/2-y,1/2+z
1/2+x,1/2-y,1/2-z
1/2-x,1/2+y,1/2-z
1/2-x,1/2-y,1/2-z
1/2+x,1/2+y,1/2-z
1/2-x,1/2+y,1/2+z
1/2+x,1/2-y,1/2+z
loop_
_atom_site_type_symbol
_atom_site_label
_atom_site_fract_x
_atom_site_fract_y
_atom_site_fract_z
Si Si1 0.691533 0.597058 0.949847
Si Si2 0.803318 0.211649 0.448558
Si Si3 0.309569 0.060308 0.117451
Si Si4 0.500000 0.560881 0.447003
Si Si5 0.696563 0.249790 0.851273
Si Si6 0.689123 0.350575 0.797992
Si Si7 0.188452 0.444201 0.856798
Si Si8 0.807824 0.645080 0.694565
O O1 0.500000 0.605584 0.955960
O O2 0.767082 0.653945 0.940433
O O3 0.720112 0.559653 0.906499
O O4 0.761552 0.575121 0.000000
O O5 0.743340 0.232662 0.500000
O O6 0.735024 0.245180 0.404788
O O7 0.000000 0.212485 0.446943
O O8 0.500000 0.070487 0.099316
O O9 0.170924 0.077734 0.079268
O O10 0.276061 0.093392 0.164443
O O11 0.287763 0.000000 0.130313
O O12 0.500000 0.500000 0.450687
O O13 0.500000 0.584580 0.500000
O O14 0.500000 0.250419 0.850405
O O15 0.763585 0.296678 0.818153
O O16 0.761372 0.194901 0.833070
O O17 0.500000 0.353729 0.813275
O O18 0.777280 0.399579 0.820115
O O19 0.705983 0.356204 0.742404
O O20 0.237020 0.500000 0.834512
O O21 0.000000 0.442323 0.870623
O O22 0.000000 0.651077 0.707056
#
# Coordination Sequence:
#
# PCOD8291634 Si02
#       8
#    16  16  16   8  16  16  16  16
#     4   9  17  32  56  81 105 139 183 230 278 330
#     4   8  13  25  50  80 107 138 176 220 271 324
#     4   9  19  36  58  85 119 158 197 238 287 347
#     4   9  18  34  60  90 120 156 194 236 284 342
#     4   9  17  32  54  82 113 143 182 232 282 336
#     4  11  22  37  58  81 106 143 191 239 286 340
#     4  11  24  39  54  76 110 148 185 233 290 343
#     4  10  21  36  56  83 115 148 186 232 287 342
#
# _framework density 20.145426
#
# number of rings (size 3 to 8) (size 9 to 14) (size 15 to 20)
#    0.000    2.467    1.333    2.000    0.933    2.400 
#    0.000    5.333    0.000    2.400    0.000    0.000 
#    0.000    0.000    0.000    0.000    0.000    0.000 
#
# Total GULP energy -743432.467512 kJ/mol
# GULP energy per Si atom -12390.541125 kJ/mol
# Density = 2.009957 g / cm^3
# Si number density = 20.145426 Si / 1000 Ang^3
#
#
#
# Elastic Constant Matrix: (Units=GPa)
#
#
# Indices 1 2 3 4 5 6 
#
# 1 43.1838 17.9325 27.0175 0.0000 0.0000 0.0000
# 2 17.9325 113.5905 60.4128 0.0000 0.0000 0.0000
# 3 27.0175 60.4128 148.5002 0.0000 0.0000 0.0000
# 4 0.0000 0.0000 0.0000 15.9667 0.0000 0.0000
# 5 0.0000 0.0000 0.0000 0.0000 22.5819 0.0000
# 6 0.0000 0.0000 0.0000 0.0000 0.0000 6.1732
#
#
#
# Elastic Compliance Matrix: (Units=1/GPa)
#
#
# Indices 1 2 3 4 5 6 
#
# 1 0.026506 -0.002067 -0.003982 0.000000 0.000000 0.000000
# 2 -0.002067 0.011395 -0.004260 0.000000 0.000000 0.000000
# 3 -0.003982 -0.004260 0.009191 0.000000 0.000000 0.000000
# 4 0.000000 0.000000 0.000000 0.062630 0.000000 0.000000
# 5 0.000000 0.000000 0.000000 0.000000 0.044283 0.000000
# 6 0.000000 0.000000 0.000000 0.000000 0.000000 0.161992
#
#
# Mechanical properties :
#
#
# Convention : Reuss Voigt Hill
#
# Bulk Modulus (GPa) = 37.76962 57.33336 47.55149
# Shear Modulus (GPa) = 14.47428 22.27181 18.37305
#
# Velocity S-wave (km/s) = 2.68337 3.32859 3.02324
# Velocity P-wave (km/s) = 5.32821 6.57983 5.98682
#
# Compressibility (1/GPa) = 0.02647630
#
# Stress axis : x y z
#
# Youngs Moduli (GPa) = 37.72707 87.75441 108.79779
#
# Poissons Ratio (x) = 0.18138 0.43318
# Poissons Ratio (y) = 0.07798 0.46346
# Poissons Ratio (z) = 0.15021 0.37382
#
# Static dielectric constant tensor:
#      x y z
#    x 3.447260 0.000000 0.000000 
#    y 0.000000 3.726330 0.000000 
#    z 0.000000 0.000000 3.849080 
# 
# 
# High freq. dielectric constant tensor:
#      x y z
#    x 1.762060 0.000000 0.000000 
#    y 0.000000 1.775250 0.000000 
#    z 0.000000 0.000000 1.791120 
# 
# From -- ./inp_files/63753.got.cif
#   From: 2010.06.25/outbox.cif.g09.slc.cpg/sg71_32_cif.got.tgz:63753.got - 2010.06.28 04:59:45.
