data_PCOD8291699
_publ_section_title
;
Structure prediction by ZEFSAII (Michael W. Deem and Ramdas Pophale) SiO2 
 PCOD8291699
Probable space group: I M M M
;
_chemical_formula_sum "Si O2"
_cell_formula_units_Z 80
_cell_length_a 25.804605
_cell_length_b 19.415356
_cell_length_c 8.728170
_cell_angle_alpha 90.000000
_cell_angle_beta 90.000000
_cell_angle_gamma 90.000000
_cell_volume 4372.861982
_symmetry_space_group_name_H-M "I M M M"
_symmetry_group_IT_number 71
_symmetry_cell_setting 'orthorhombic'
loop_
_space_group_symop_operation_xyz
x,y,z
-x,-y,z
x,-y,-z
-x,y,-z
-x,-y,-z
x,y,-z
-x,y,z
x,-y,z
1/2+x,1/2+y,1/2+z
1/2-x,1/2-y,1/2+z
1/2+x,1/2-y,1/2-z
1/2-x,1/2+y,1/2-z
1/2-x,1/2-y,1/2-z
1/2+x,1/2+y,1/2-z
1/2-x,1/2+y,1/2+z
1/2+x,1/2-y,1/2+z
loop_
_atom_site_type_symbol
_atom_site_label
_atom_site_fract_x
_atom_site_fract_y
_atom_site_fract_z
Si Si1 0.202742 0.079194 0.678060
Si Si2 0.110599 0.177004 0.683175
Si Si3 0.000000 0.669375 0.669183
Si Si4 0.810393 0.580559 0.676314
Si Si5 0.894053 0.675461 0.179474
Si Si6 0.500000 0.667500 0.832758
O O1 0.214515 0.092810 0.500000
O O2 0.154860 0.124824 0.737268
O O3 0.252487 0.101770 0.775136
O O4 0.188016 0.000000 0.707855
O O5 0.106735 0.181969 0.500000
O O6 0.122978 0.252436 0.746067
O O7 0.054722 0.148518 0.749480
O O8 0.948514 0.645900 0.758366
O O9 0.000000 0.635239 0.500000
O O10 0.000000 0.750679 0.652405
O O11 0.818929 0.601180 0.500000
O O12 0.818913 0.500000 0.704421
O O13 0.850452 0.619928 0.783057
O O14 0.898912 0.686310 0.000000
O O15 0.500000 0.632310 0.000000
#
# Coordination Sequence:
#
# PCOD8291699 Si02
#       6
#    16  16   8  16  16   8
#     4   9  18  33  52  74 101 134 173 217 261 303
#     4   9  17  31  51  74 103 138 173 210 254 304
#     4   9  17  33  54  75 104 137 167 202 248 301
#     4  10  21  37  55  73  97 133 172 209 257 313
#     4  11  21  33  53  80 106 132 167 210 252 297
#     4   7  12  25  46  70  96 130 165 196 238 291
#
# _framework density 18.294654999999999
#
# number of rings (size 3 to 8) (size 9 to 14) (size 15 to 20)
#    0.000    2.600    0.000    3.900    0.000    2.800 
#    0.000    1.000    0.000    6.000    0.000    0.000 
#    0.000    8.000    0.000    0.000    0.000    0.000 
#
# Total GULP energy -495836.090606 kJ/mol
# GULP energy per Si atom -12395.902265 kJ/mol
# Density = 1.825302 g / cm^3
# Si number density = 18.294655 Si / 1000 Ang^3
#
#
#
# Elastic Constant Matrix: (Units=GPa)
#
#
# Indices 1 2 3 4 5 6 
#
# 1 150.4590 63.3666 36.3798 0.0000 0.0000 0.0000
# 2 63.3666 56.4443 23.3589 0.0000 0.0000 0.0000
# 3 36.3798 23.3589 60.8960 0.0000 0.0000 0.0000
# 4 0.0000 0.0000 0.0000 18.9523 0.0000 0.0000
# 5 0.0000 0.0000 0.0000 0.0000 29.3137 0.0000
# 6 0.0000 0.0000 0.0000 0.0000 0.0000 0.4973
#
#
#
# Elastic Compliance Matrix: (Units=1/GPa)
#
#
# Indices 1 2 3 4 5 6 
#
# 1 0.012935 -0.013460 -0.002564 0.000000 0.000000 0.000000
# 2 -0.013460 0.035067 -0.005410 0.000000 0.000000 0.000000
# 3 -0.002564 -0.005410 0.020029 0.000000 0.000000 0.000000
# 4 0.000000 0.000000 0.000000 0.052764 0.000000 0.000000
# 5 0.000000 0.000000 0.000000 0.000000 0.034114 0.000000
# 6 0.000000 0.000000 0.000000 0.000000 0.000000 2.010674
#
#
# Mechanical properties :
#
#
# Convention : Reuss Voigt Hill
#
# Bulk Modulus (GPa) = 39.74359 57.11221 48.42790
# Shear Modulus (GPa) = 2.25546 19.39893 10.82720
#
# Velocity S-wave (km/s) = 1.11154 3.25985 2.43538
# Velocity P-wave (km/s) = 4.83929 6.74200 5.86827
#
# Compressibility (1/GPa) = 0.02516129
#
# Stress axis : x y z
#
# Youngs Moduli (GPa) = 77.30780 28.51724 49.92873
#
# Poissons Ratio (x) = 0.38385 0.12804
# Poissons Ratio (y) = 1.04060 0.27010
# Poissons Ratio (z) = 0.19825 0.15427
#
# Static dielectric constant tensor:
#      x y z
#    x 3.815140 0.000000 0.000000 
#    y 0.000000 3.090290 0.000000 
#    z 0.000000 0.000000 3.273120 
# 
# 
# High freq. dielectric constant tensor:
#      x y z
#    x 1.728390 0.000000 0.000000 
#    y 0.000000 1.678830 0.000000 
#    z 0.000000 0.000000 1.698560 
# 
# From -- ./inp_files/10301.got.cif
#   From: 2010.06.25/outbox.cif.g09.slc.cpg/sg71_6_cif.got.tgz:10301.got - 2010.06.28 04:59:45.
