data_PCOD8291659
_publ_section_title
;
Structure prediction by ZEFSAII (Michael W. Deem and Ramdas Pophale) SiO2 
 PCOD8291659
Probable space group: I M M M
;
_chemical_formula_sum "Si O2"
_cell_formula_units_Z 88
_cell_length_a 20.358273
_cell_length_b 8.792162
_cell_length_c 24.466651
_cell_angle_alpha 90.000000
_cell_angle_beta 90.000000
_cell_angle_gamma 90.000000
_cell_volume 4379.364994
_symmetry_space_group_name_H-M "I M M M"
_symmetry_group_IT_number 71
_symmetry_cell_setting 'orthorhombic'
loop_
_space_group_symop_operation_xyz
x,y,z
-x,-y,z
x,-y,-z
-x,y,-z
-x,-y,-z
x,y,-z
-x,y,z
x,-y,z
1/2+x,1/2+y,1/2+z
1/2-x,1/2-y,1/2+z
1/2+x,1/2-y,1/2-z
1/2-x,1/2+y,1/2-z
1/2-x,1/2-y,1/2-z
1/2+x,1/2+y,1/2-z
1/2-x,1/2+y,1/2+z
1/2+x,1/2-y,1/2+z
loop_
_atom_site_type_symbol
_atom_site_label
_atom_site_fract_x
_atom_site_fract_y
_atom_site_fract_z
Si Si1 0.751201 0.669797 0.437797
Si Si2 0.382726 0.178412 0.440637
Si Si3 0.571294 0.181045 0.672479
Si Si4 0.122508 0.678996 0.373482
Si Si5 0.677654 0.180259 0.756821
Si Si6 0.500000 0.680094 0.936284
O O1 0.773796 0.667162 0.500000
O O2 0.730233 0.500000 0.418624
O O3 0.692649 0.786152 0.427453
O O4 0.812413 0.730999 0.404431
O O5 0.403112 0.250788 0.500000
O O6 0.424837 0.242970 0.390083
O O7 0.392099 0.000000 0.444730
O O8 0.500000 0.232074 0.695876
O O9 0.631358 0.245128 0.708278
O O10 0.576590 0.000000 0.672642
O O11 0.108442 0.500000 0.378330
O O12 0.137338 0.727808 0.311096
O O13 0.062474 0.764778 0.401704
O O14 0.750000 0.250000 0.750000
O O15 0.686534 0.000000 0.755048
O O16 0.500000 0.500000 0.937317
O O17 0.500000 0.740096 0.000000
#
# Coordination Sequence:
#
# PCOD8291659 Si02
#       6
#    16  16  16  16  16   8
#     4   9  17  30  49  73 101 133 170 215 265 315
#     4   9  17  29  48  75 103 134 174 218 266 317
#     4   9  18  32  51  75 105 139 175 218 267 319
#     4  10  21  36  57  81 107 146 192 232 277 342
#     4  10  21  36  58  84 110 145 188 235 285 338
#     4  11  25  41  57  83 117 151 188 237 300 358
#
# _framework density 20.094238000000001
#
# number of rings (size 3 to 8) (size 9 to 14) (size 15 to 20)
#    0.000    2.455    0.000    1.909    1.273    3.273 
#    0.000    3.636    0.000    1.636    0.000    2.545 
#    0.000    0.000    0.000    0.000    0.000    0.000 
#
# Total GULP energy -545194.152071 kJ/mol
# GULP energy per Si atom -12390.776183 kJ/mol
# Density = 2.004850 g / cm^3
# Si number density = 20.094238 Si / 1000 Ang^3
#
#
#
# Elastic Constant Matrix: (Units=GPa)
#
#
# Indices 1 2 3 4 5 6 
#
# 1 129.8982 16.7122 90.4484 0.0000 0.0000 0.0000
# 2 16.7122 21.7219 27.2836 0.0000 0.0000 0.0000
# 3 90.4484 27.2836 137.9942 0.0000 0.0000 0.0000
# 4 0.0000 0.0000 0.0000 18.6686 0.0000 0.0000
# 5 0.0000 0.0000 0.0000 0.0000 37.9126 0.0000
# 6 0.0000 0.0000 0.0000 0.0000 0.0000 27.2999
#
#
#
# Elastic Compliance Matrix: (Units=1/GPa)
#
#
# Indices 1 2 3 4 5 6 
#
# 1 0.014178 0.001017 -0.009494 0.000000 0.000000 0.000000
# 2 0.001017 0.061319 -0.012790 0.000000 0.000000 0.000000
# 3 -0.009494 -0.012790 0.015999 0.000000 0.000000 0.000000
# 4 0.000000 0.000000 0.000000 0.053566 0.000000 0.000000
# 5 0.000000 0.000000 0.000000 0.000000 0.026376 0.000000
# 6 0.000000 0.000000 0.000000 0.000000 0.000000 0.036630
#
#
# Mechanical properties :
#
#
# Convention : Reuss Voigt Hill
#
# Bulk Modulus (GPa) = 20.42449 62.05584 41.24016
# Shear Modulus (GPa) = 18.73188 27.12089 22.92638
#
# Velocity S-wave (km/s) = 3.05651 3.67779 3.38145
# Velocity P-wave (km/s) = 4.75844 6.99888 5.98444
#
# Compressibility (1/GPa) = 0.04896084
#
# Stress axis : x y z
#
# Youngs Moduli (GPa) = 70.52979 16.30806 62.50575
#
# Poissons Ratio (x) = -0.01658 0.59345
# Poissons Ratio (y) = -0.07171 0.79946
# Poissons Ratio (z) = 0.66963 0.20858
#
# Static dielectric constant tensor:
#      x y z
#    x 3.785040 0.000000 0.000000 
#    y 0.000000 3.303030 0.000000 
#    z 0.000000 0.000000 4.173410 
# 
# 
# High freq. dielectric constant tensor:
#      x y z
#    x 1.789010 0.000000 0.000000 
#    y 0.000000 1.742190 0.000000 
#    z 0.000000 0.000000 1.804110 
# 
# From -- ./inp_files/10491.got.cif
#   From: 2010.06.25/outbox.cif.g09.slc.cpg/sg71_6_cif.got.tgz:10491.got - 2010.06.28 04:59:45.
