data_PCOD8291325
_publ_section_title
;
Structure prediction by ZEFSAII (Michael W. Deem and Ramdas Pophale) SiO2 
 PCOD8291325
Probable space group: I M M M
;
_chemical_formula_sum "Si O2"
_cell_formula_units_Z 88
_cell_length_a 20.424140
_cell_length_b 15.043658
_cell_length_c 14.118619
_cell_angle_alpha 90.000000
_cell_angle_beta 90.000000
_cell_angle_gamma 90.000000
_cell_volume 4337.999015
_symmetry_space_group_name_H-M "I M M M"
_symmetry_group_IT_number 71
_symmetry_cell_setting 'orthorhombic'
loop_
_space_group_symop_operation_xyz
x,y,z
-x,-y,z
x,-y,-z
-x,y,-z
-x,-y,-z
x,y,-z
-x,y,z
x,-y,z
1/2+x,1/2+y,1/2+z
1/2-x,1/2-y,1/2+z
1/2+x,1/2-y,1/2-z
1/2-x,1/2+y,1/2-z
1/2-x,1/2-y,1/2-z
1/2+x,1/2+y,1/2-z
1/2-x,1/2+y,1/2+z
1/2+x,1/2-y,1/2+z
loop_
_atom_site_type_symbol
_atom_site_label
_atom_site_fract_x
_atom_site_fract_y
_atom_site_fract_z
Si Si1 0.338003 0.500000 0.891115
Si Si2 0.426691 0.000000 0.221500
Si Si3 0.871535 0.896590 0.105281
Si Si4 0.071417 0.857612 0.702412
Si Si5 0.602603 0.177310 0.892400
Si Si6 0.289910 0.000000 0.710387
Si Si7 0.741507 0.173037 0.825673
O O1 0.369577 0.412621 0.844238
O O2 0.258362 0.500000 0.881273
O O3 0.356735 0.500000 0.000000
O O4 0.418768 0.914668 0.154746
O O5 0.500000 0.000000 0.267025
O O6 0.369775 0.000000 0.304268
O O7 0.921498 0.859726 0.183669
O O8 0.805491 0.838532 0.110256
O O9 0.855928 0.000000 0.125316
O O10 0.901694 0.884065 0.000000
O O11 0.071226 0.756638 0.667681
O O12 0.000000 0.898660 0.677586
O O13 0.680729 0.191374 0.894428
O O14 0.576620 0.179892 0.000000
O O15 0.271149 0.915656 0.769564
O O16 0.750000 0.250000 0.750000
#
# Coordination Sequence:
#
# PCOD8291325 Si02
#       7
#     8   8  16  16  16   8  16
#     4  12  23  40  63  90 126 165 201 242 300 374
#     4  10  23  40  63  90 121 162 206 258 315 362
#     4  11  22  39  64  90 122 160 205 261 316 363
#     4  12  24  40  60  89 128 166 205 251 304 369
#     4  11  23  37  60  91 124 163 208 253 307 371
#     4  10  20  38  61  88 120 156 205 248 297 360
#     4  11  18  36  62  86 123 160 199 256 310 356
#
# _framework density 20.285851000000001
#
# number of rings (size 3 to 8) (size 9 to 14) (size 15 to 20)
#    0.000    0.909    5.455    2.182    0.000    3.636 
#    0.000    1.818    0.000    0.273    0.000    0.000 
#    0.000    0.000    0.000    0.000    0.000    0.000 
#
# Total GULP energy -545396.787612 kJ/mol
# GULP energy per Si atom -12395.381537 kJ/mol
# Density = 2.023968 g / cm^3
# Si number density = 20.285851 Si / 1000 Ang^3
#
#
#
# Elastic Constant Matrix: (Units=GPa)
#
#
# Indices 1 2 3 4 5 6 
#
# 1 141.9645 27.4992 41.4796 0.0000 0.0000 0.0000
# 2 27.4992 124.8984 45.1862 0.0000 0.0000 0.0000
# 3 41.4796 45.1862 105.2671 0.0000 0.0000 0.0000
# 4 0.0000 0.0000 0.0000 12.0021 0.0000 0.0000
# 5 0.0000 0.0000 0.0000 0.0000 9.6522 0.0000
# 6 0.0000 0.0000 0.0000 0.0000 0.0000 13.9838
#
#
#
# Elastic Compliance Matrix: (Units=1/GPa)
#
#
# Indices 1 2 3 4 5 6 
#
# 1 0.008017 -0.000737 -0.002843 0.000000 0.000000 0.000000
# 2 -0.000737 0.009546 -0.003807 0.000000 0.000000 0.000000
# 3 -0.002843 -0.003807 0.012254 0.000000 0.000000 0.000000
# 4 0.000000 0.000000 0.000000 0.083319 0.000000 0.000000
# 5 0.000000 0.000000 0.000000 0.000000 0.103604 0.000000
# 6 0.000000 0.000000 0.000000 0.000000 0.000000 0.071511
#
#
# Mechanical properties :
#
#
# Convention : Reuss Voigt Hill
#
# Bulk Modulus (GPa) = 66.47323 66.71776 66.59550
# Shear Modulus (GPa) = 16.23167 24.32529 20.27848
#
# Velocity S-wave (km/s) = 2.83176 3.46660 3.16513
# Velocity P-wave (km/s) = 6.59782 6.99881 6.80127
#
# Compressibility (1/GPa) = 0.01504365
#
# Stress axis : x y z
#
# Youngs Moduli (GPa) = 124.72907 104.75401 81.60442
#
# Poissons Ratio (x) = 0.07717 0.23200
# Poissons Ratio (y) = 0.09188 0.31070
# Poissons Ratio (z) = 0.35460 0.39884
#
# Static dielectric constant tensor:
#      x y z
#    x 4.160400 0.000000 0.000000 
#    y 0.000000 3.766720 0.000000 
#    z 0.000000 0.000000 3.500670 
# 
# 
# High freq. dielectric constant tensor:
#      x y z
#    x 1.801900 0.000000 0.000000 
#    y 0.000000 1.800720 0.000000 
#    z 0.000000 0.000000 1.767690 
# 
# From -- ./inp_files/37792.got.cif
#   From: 2010.06.25/outbox.cif.g09.slc.cpg/sg71_19_cif.got.tgz:37792.got - 2010.06.28 04:59:45.
