data_PCOD8291010
_publ_section_title
;
Structure prediction by ZEFSAII (Michael W. Deem and Ramdas Pophale) SiO2 
 PCOD8291010
Probable space group: I M M M
;
_chemical_formula_sum "Si O2"
_cell_formula_units_Z 104
_cell_length_a 27.612630
_cell_length_b 9.031228
_cell_length_c 21.679212
_cell_angle_alpha 90.000000
_cell_angle_beta 90.000000
_cell_angle_gamma 90.000000
_cell_volume 5406.274244
_symmetry_space_group_name_H-M "I M M M"
_symmetry_group_IT_number 71
_symmetry_cell_setting 'orthorhombic'
loop_
_space_group_symop_operation_xyz
x,y,z
-x,-y,z
x,-y,-z
-x,y,-z
-x,-y,-z
x,y,-z
-x,y,z
x,-y,z
1/2+x,1/2+y,1/2+z
1/2-x,1/2-y,1/2+z
1/2+x,1/2-y,1/2-z
1/2-x,1/2+y,1/2-z
1/2-x,1/2-y,1/2-z
1/2+x,1/2+y,1/2-z
1/2-x,1/2+y,1/2+z
1/2+x,1/2-y,1/2+z
loop_
_atom_site_type_symbol
_atom_site_label
_atom_site_fract_x
_atom_site_fract_y
_atom_site_fract_z
Si Si1 0.443426 0.835144 0.500000
Si Si2 0.946944 0.838844 0.571623
Si Si3 0.117368 0.329916 0.346894
Si Si4 0.706403 0.173518 0.070178
Si Si5 0.807047 0.328015 0.928691
Si Si6 0.101361 0.825263 0.114425
Si Si7 0.944716 0.174066 0.244205
O O1 0.500000 0.854736 0.500000
O O2 0.428976 0.744711 0.559778
O O3 0.419019 0.000000 0.500000
O O4 0.951870 0.817365 0.500000
O O5 0.918334 0.698426 0.596344
O O6 0.000000 0.837250 0.602399
O O7 0.922819 0.000000 0.587234
O O8 0.117949 0.500000 0.327504
O O9 0.169212 0.280191 0.375224
O O10 0.096448 0.237733 0.289717
O O11 0.754412 0.263921 0.085172
O O12 0.717721 0.000000 0.073958
O O13 0.687945 0.212214 0.000000
O O14 0.806659 0.500000 0.911744
O O15 0.844917 0.244207 0.884688
O O16 0.822031 0.301148 0.000000
O O17 0.072796 0.783066 0.176199
O O18 0.105705 0.000000 0.105105
O O19 0.000000 0.235423 0.254290
O O20 0.944988 0.000000 0.254117
#
# Coordination Sequence:
#
# PCOD8291010 Si02
#       7
#     8  16  16  16  16  16  16
#     4  11  23  37  57  89 125 153 183 233 290 341
#     4   9  18  32  50  73 103 141 184 231 285 345
#     4  11  22  35  54  81 111 147 191 240 292 341
#     4   9  19  36  57  82 115 151 190 236 287 342
#     4  10  20  35  58  89 121 148 182 232 290 347
#     4  11  22  38  62  87 114 152 194 234 284 345
#     4  10  23  42  60  80 111 153 199 240 279 338
#
# _framework density 19.236908
#
# number of rings (size 3 to 8) (size 9 to 14) (size 15 to 20)
#    0.000    1.923    0.769    3.462    0.000    7.692 
#    0.000    3.077    0.000    0.000    0.000    0.000 
#    0.000    0.000    0.000    0.000    0.000    0.000 
#
# Total GULP energy -644469.719775 kJ/mol
# GULP energy per Si atom -12393.648457 kJ/mol
# Density = 1.919312 g / cm^3
# Si number density = 19.236908 Si / 1000 Ang^3
#
#
#
# Elastic Constant Matrix: (Units=GPa)
#
#
# Indices 1 2 3 4 5 6 
#
# 1 113.6138 56.6894 66.9140 0.0000 0.0000 0.0000
# 2 56.6894 68.4391 48.2410 0.0000 0.0000 0.0000
# 3 66.9140 48.2410 101.2483 0.0000 0.0000 0.0000
# 4 0.0000 0.0000 0.0000 3.4722 0.0000 0.0000
# 5 0.0000 0.0000 0.0000 0.0000 25.6608 0.0000
# 6 0.0000 0.0000 0.0000 0.0000 0.0000 34.0312
#
#
#
# Elastic Compliance Matrix: (Units=1/GPa)
#
#
# Indices 1 2 3 4 5 6 
#
# 1 0.017905 -0.009772 -0.007177 0.000000 0.000000 0.000000
# 2 -0.009772 0.027333 -0.006565 0.000000 0.000000 0.000000
# 3 -0.007177 -0.006565 0.017748 0.000000 0.000000 0.000000
# 4 0.000000 0.000000 0.000000 0.288006 0.000000 0.000000
# 5 0.000000 0.000000 0.000000 0.000000 0.038970 0.000000
# 6 0.000000 0.000000 0.000000 0.000000 0.000000 0.029385
#
#
# Mechanical properties :
#
#
# Convention : Reuss Voigt Hill
#
# Bulk Modulus (GPa) = 62.66527 69.66555 66.16541
# Shear Modulus (GPa) = 10.60010 20.06329 15.33169
#
# Velocity S-wave (km/s) = 2.34995 3.23299 2.82617
# Velocity P-wave (km/s) = 6.32529 7.08727 6.71709
#
# Compressibility (1/GPa) = 0.01595780
#
# Stress axis : x y z
#
# Youngs Moduli (GPa) = 55.85187 36.58539 56.34426
#
# Poissons Ratio (x) = 0.35750 0.40439
# Poissons Ratio (y) = 0.54577 0.36991
# Poissons Ratio (z) = 0.40085 0.24019
#
# Static dielectric constant tensor:
#      x y z
#    x 3.652730 0.000000 0.000000 
#    y 0.000000 3.546780 0.000000 
#    z 0.000000 0.000000 3.446280 
# 
# 
# High freq. dielectric constant tensor:
#      x y z
#    x 1.753870 0.000000 0.000000 
#    y 0.000000 1.749940 0.000000 
#    z 0.000000 0.000000 1.739350 
# 
# From -- ./inp_files/56208.got.cif
#   From: 2010.06.25/outbox.cif.g09.slc.cpg/sg71_29_cif.got.tgz:56208.got - 2010.06.28 04:59:45.
