data_PCOD8291732
_publ_section_title
;
Structure prediction by ZEFSAII (Michael W. Deem and Ramdas Pophale) SiO2 
 PCOD8291732
Probable space group: I M M M
;
_chemical_formula_sum "Si O2"
_cell_formula_units_Z 80
_cell_length_a 13.537578
_cell_length_b 21.853006
_cell_length_c 13.170241
_cell_angle_alpha 90.000000
_cell_angle_beta 90.000000
_cell_angle_gamma 90.000000
_cell_volume 3896.241600
_symmetry_space_group_name_H-M "I M M M"
_symmetry_group_IT_number 71
_symmetry_cell_setting 'orthorhombic'
loop_
_space_group_symop_operation_xyz
x,y,z
-x,-y,z
x,-y,-z
-x,y,-z
-x,-y,-z
x,y,-z
-x,y,z
x,-y,z
1/2+x,1/2+y,1/2+z
1/2-x,1/2-y,1/2+z
1/2+x,1/2-y,1/2-z
1/2-x,1/2+y,1/2-z
1/2-x,1/2-y,1/2-z
1/2+x,1/2+y,1/2-z
1/2-x,1/2+y,1/2+z
1/2+x,1/2-y,1/2+z
loop_
_atom_site_type_symbol
_atom_site_label
_atom_site_fract_x
_atom_site_fract_y
_atom_site_fract_z
Si Si1 0.801448 0.431853 0.197967
Si Si2 0.883417 0.377634 0.615603
Si Si3 0.195167 0.750819 0.620244
Si Si4 0.891080 0.310516 0.880569
Si Si5 0.611017 0.621209 0.881674
O O1 0.827694 0.500000 0.159028
O O2 0.828252 0.428485 0.317632
O O3 0.865154 0.381718 0.137597
O O4 0.684698 0.420501 0.183512
O O5 0.848513 0.385530 0.500000
O O6 0.851228 0.311874 0.664164
O O7 0.000000 0.384853 0.625135
O O8 0.201347 0.742403 0.500000
O O9 0.306060 0.764894 0.665169
O O10 0.124099 0.807440 0.646409
O O11 0.000000 0.295731 0.835063
O O12 0.892198 0.300329 0.000000
O O13 0.500000 0.601132 0.854991
O O14 0.635208 0.610875 0.000000
#
# Coordination Sequence:
#
# PCOD8291732 Si02
#       5
#    16  16  16  16  16
#     4  11  23  36  50  73 106 141 181 223 256 296
#     4  10  21  37  57  78 101 135 179 226 272 311
#     4   8  15  31  54  79 106 133 167 214 266 319
#     4   9  18  32  51  78 111 141 166 201 258 325
#     4   9  18  34  58  86 112 137 166 206 261 323
#
# _framework density 20.532608
#
# number of rings (size 3 to 8) (size 9 to 14) (size 15 to 20)
#    0.000    2.600    0.000    3.000    0.000    9.600 
#    0.000    6.000    0.000    1.800    0.000    1.400 
#    0.000    0.000    0.000    0.000    0.000    0.000 
#
# Total GULP energy -495881.672989 kJ/mol
# GULP energy per Si atom -12397.041825 kJ/mol
# Density = 2.048587 g / cm^3
# Si number density = 20.532608 Si / 1000 Ang^3
#
#
#
# Elastic Constant Matrix: (Units=GPa)
#
#
# Indices 1 2 3 4 5 6 
#
# 1 148.4547 36.2565 31.0139 -0.0001 0.0000 0.0000
# 2 36.2565 84.4131 -1.5562 -0.0015 0.0000 0.0000
# 3 31.0139 -1.5562 27.7217 -0.0018 -0.0001 -0.0001
# 4 -0.0001 -0.0015 -0.0018 19.4136 0.0000 0.0000
# 5 0.0000 0.0000 -0.0001 0.0000 30.2530 0.0000
# 6 0.0000 0.0000 -0.0001 0.0000 0.0000 11.8558
#
#
#
# Elastic Compliance Matrix: (Units=1/GPa)
#
#
# Indices 1 2 3 4 5 6 
#
# 1 0.010348 -0.004663 -0.011839 -0.000001 0.000000 0.000000
# 2 -0.004663 0.013960 0.006000 0.000002 0.000000 0.000000
# 3 -0.011839 0.006000 0.049654 0.000005 0.000000 0.000000
# 4 -0.000001 0.000002 0.000005 0.051510 0.000000 0.000000
# 5 0.000000 0.000000 0.000000 0.000000 0.033055 0.000000
# 6 0.000000 0.000000 0.000000 0.000000 0.000000 0.084347
#
#
# Mechanical properties :
#
#
# Convention : Reuss Voigt Hill
#
# Bulk Modulus (GPa) = 18.88230 43.55754 31.21992
# Shear Modulus (GPa) = 17.76009 25.29616 21.52813
#
# Velocity S-wave (km/s) = 2.94423 3.51379 3.24154
# Velocity P-wave (km/s) = 4.55787 6.14184 5.40816
#
# Compressibility (1/GPa) = 0.05295965
#
# Stress axis : x y z
#
# Youngs Moduli (GPa) = 96.63580 71.63382 20.13917
#
# Poissons Ratio (x) = 0.33402 0.23842
# Poissons Ratio (y) = 0.45060 -0.12084
# Poissons Ratio (z) = 1.14405 -0.42982
#
# Static dielectric constant tensor:
#      x y z
#    x 4.070940 0.000000 0.000000 
#    y 0.000000 3.544590 0.000000 
#    z 0.000000 0.000000 3.738310 
# 
# 
# High freq. dielectric constant tensor:
#      x y z
#    x 1.805750 0.000000 0.000000 
#    y 0.000000 1.776900 0.000000 
#    z 0.000000 0.000000 1.807180 
# 
# From -- ./inp_files/34264.got.cif
#   From: 2010.06.25/outbox.cif.g09.slc.cpg/sg71_18_cif.got.tgz:34264.got - 2010.06.28 04:59:45.
