data_PCOD8291000
_publ_section_title
;
Structure prediction by ZEFSAII (Michael W. Deem and Ramdas Pophale) SiO2 
 PCOD8291000
Probable space group: I M M M
;
_chemical_formula_sum "Si O2"
_cell_formula_units_Z 72
_cell_length_a 26.698047
_cell_length_b 8.914608
_cell_length_c 15.440958
_cell_angle_alpha 90.000000
_cell_angle_beta 90.000000
_cell_angle_gamma 90.000000
_cell_volume 3674.988511
_symmetry_space_group_name_H-M "I M M M"
_symmetry_group_IT_number 71
_symmetry_cell_setting 'orthorhombic'
loop_
_space_group_symop_operation_xyz
x,y,z
-x,-y,z
x,-y,-z
-x,y,-z
-x,-y,-z
x,y,-z
-x,y,z
x,-y,z
1/2+x,1/2+y,1/2+z
1/2-x,1/2-y,1/2+z
1/2+x,1/2-y,1/2-z
1/2-x,1/2+y,1/2-z
1/2-x,1/2-y,1/2-z
1/2+x,1/2+y,1/2-z
1/2-x,1/2+y,1/2+z
1/2+x,1/2-y,1/2+z
loop_
_atom_site_type_symbol
_atom_site_label
_atom_site_fract_x
_atom_site_fract_y
_atom_site_fract_z
Si Si1 0.382177 0.176395 0.335155
Si Si2 0.442067 0.172712 0.162944
Si Si3 0.944380 0.322149 0.000000
Si Si4 0.275280 0.322874 0.667757
Si Si5 0.894483 0.823592 0.500000
Si Si6 0.713526 0.176445 0.000000
O O1 0.410286 0.217441 0.246818
O O2 0.415966 0.233266 0.414482
O O3 0.331442 0.267536 0.341141
O O4 0.370653 0.000000 0.341106
O O5 0.500000 0.202004 0.184372
O O6 0.425241 0.275031 0.083992
O O7 0.432729 0.000000 0.137486
O O8 0.948022 0.500000 0.000000
O O9 0.000000 0.252031 0.000000
O O10 0.274717 0.500000 0.678744
O O11 0.250000 0.250000 0.750000
O O12 0.244369 0.271674 0.583765
O O13 0.839739 0.754320 0.500000
O O14 0.888910 0.000000 0.500000
O O15 0.704216 0.000000 0.000000
#
# Coordination Sequence:
#
# PCOD8291000 Si02
#       6
#    16  16   8  16   8   8
#     4  10  20  35  58  87 116 147 185 228 274 324
#     4  10  21  38  59  82 112 152 191 224 268 332
#     4   9  17  32  57  88 118 147 184 229 270 316
#     4  11  23  39  59  83 112 147 187 230 278 332
#     4  12  25  38  57  85 112 141 184 239 290 329
#     4  10  23  42  60  79 110 152 190 224 272 339
#
# _framework density 19.591899000000002
#
# number of rings (size 3 to 8) (size 9 to 14) (size 15 to 20)
#    0.000    1.667    0.000    4.667    0.000   12.444 
#    0.000    0.000    0.000    2.667    0.000    0.000 
#    0.000    0.000    0.000    0.000    0.000    0.000 
#
# Total GULP energy -446577.528058 kJ/mol
# GULP energy per Si atom -12404.931335 kJ/mol
# Density = 1.954731 g / cm^3
# Si number density = 19.591899 Si / 1000 Ang^3
#
#
#
# Elastic Constant Matrix: (Units=GPa)
#
#
# Indices 1 2 3 4 5 6 
#
# 1 100.7606 21.1379 20.6525 0.0000 0.0000 0.0000
# 2 21.1379 27.9859 25.3613 0.0000 0.0000 0.0000
# 3 20.6525 25.3613 122.9649 0.0000 0.0000 0.0000
# 4 0.0000 0.0000 0.0000 12.2480 0.0000 0.0000
# 5 0.0000 0.0000 0.0000 0.0000 43.9496 0.0000
# 6 0.0000 0.0000 0.0000 0.0000 0.0000 35.2272
#
#
#
# Elastic Compliance Matrix: (Units=1/GPa)
#
#
# Indices 1 2 3 4 5 6 
#
# 1 0.011796 -0.008750 -0.000177 0.000000 0.000000 0.000000
# 2 -0.008750 0.050436 -0.008933 0.000000 0.000000 0.000000
# 3 -0.000177 -0.008933 0.010004 0.000000 0.000000 0.000000
# 4 0.000000 0.000000 0.000000 0.081646 0.000000 0.000000
# 5 0.000000 0.000000 0.000000 0.000000 0.022753 0.000000
# 6 0.000000 0.000000 0.000000 0.000000 0.000000 0.028387
#
#
# Mechanical properties :
#
#
# Convention : Reuss Voigt Hill
#
# Bulk Modulus (GPa) = 27.38341 42.89052 35.13696
# Shear Modulus (GPa) = 19.76955 30.58895 25.17925
#
# Velocity S-wave (km/s) = 3.18003 3.95562 3.58884
# Velocity P-wave (km/s) = 5.24316 6.54233 5.92844
#
# Compressibility (1/GPa) = 0.03651847
#
# Stress axis : x y z
#
# Youngs Moduli (GPa) = 84.77270 19.82710 99.95557
#
# Poissons Ratio (x) = 0.17348 0.01765
# Poissons Ratio (y) = 0.74174 0.89288
# Poissons Ratio (z) = 0.01497 0.17711
#
# Static dielectric constant tensor:
#      x y z
#    x 3.361010 0.000000 0.000000 
#    y 0.000000 3.405620 0.000000 
#    z 0.000000 0.000000 3.807270 
# 
# 
# High freq. dielectric constant tensor:
#      x y z
#    x 1.784430 0.000000 0.000000 
#    y 0.000000 1.743570 0.000000 
#    z 0.000000 0.000000 1.784160 
# 
# From -- ./inp_files/6119.got.cif
#   From: 2010.06.25/outbox.cif.g09.slc.cpg/sg71_4_cif.got.tgz:6119.got - 2010.06.28 04:59:45.
