data_PCOD8291464
_publ_section_title
;
Structure prediction by ZEFSAII (Michael W. Deem and Ramdas Pophale) SiO2 
 PCOD8291464
Probable space group: I M M M
;
_chemical_formula_sum "Si O2"
_cell_formula_units_Z 96
_cell_length_a 29.793093
_cell_length_b 9.080119
_cell_length_c 17.819096
_cell_angle_alpha 90.000000
_cell_angle_beta 90.000000
_cell_angle_gamma 90.000000
_cell_volume 4820.507913
_symmetry_space_group_name_H-M "I M M M"
_symmetry_group_IT_number 71
_symmetry_cell_setting 'orthorhombic'
loop_
_space_group_symop_operation_xyz
x,y,z
-x,-y,z
x,-y,-z
-x,y,-z
-x,-y,-z
x,y,-z
-x,y,z
x,-y,z
1/2+x,1/2+y,1/2+z
1/2-x,1/2-y,1/2+z
1/2+x,1/2-y,1/2-z
1/2-x,1/2+y,1/2-z
1/2-x,1/2-y,1/2-z
1/2+x,1/2+y,1/2-z
1/2-x,1/2+y,1/2+z
1/2+x,1/2-y,1/2+z
loop_
_atom_site_type_symbol
_atom_site_label
_atom_site_fract_x
_atom_site_fract_y
_atom_site_fract_z
Si Si1 0.616579 0.668358 0.587628
Si Si2 0.857096 0.675130 0.583997
Si Si3 0.228314 0.674069 0.323527
Si Si4 0.448694 0.836966 0.684447
Si Si5 0.950609 0.325266 0.645404
Si Si6 0.202182 0.336716 0.088118
O O1 0.609217 0.694199 0.500000
O O2 0.628029 0.500000 0.605623
O O3 0.572005 0.717206 0.629390
O O4 0.656489 0.768548 0.620749
O O5 0.843086 0.730623 0.500000
O O6 0.858103 0.500000 0.584407
O O7 0.821998 0.724966 0.649992
O O8 0.907580 0.737337 0.599898
O O9 0.230390 0.500000 0.311720
O O10 0.250000 0.750000 0.250000
O O11 0.258147 0.724886 0.393254
O O12 0.500000 0.848307 0.661577
O O13 0.443082 0.778496 0.768822
O O14 0.426647 0.000000 0.675317
O O15 0.952003 0.500000 0.639012
O O16 0.000000 0.265531 0.617293
O O17 0.209520 0.500000 0.123336
O O18 0.198622 0.348209 0.000000
#
# Coordination Sequence:
#
# PCOD8291464 Si02
#       6
#    16  16  16  16  16  16
#     4  10  21  35  52  77 107 141 184 235 289 341
#     4   9  18  32  52  80 113 148 184 229 285 336
#     4  11  23  37  55  83 116 151 192 236 283 336
#     4   9  18  32  51  75 106 146 188 232 281 333
#     4   8  15  29  50  78 110 144 183 227 276 331
#     4  10  21  38  59  80 106 144 187 231 283 343
#
# _framework density 19.914912999999999
#
# number of rings (size 3 to 8) (size 9 to 14) (size 15 to 20)
#    0.000    2.500    0.000    3.000    2.333    3.667 
#    0.000    3.333    0.000    0.000    0.000    0.000 
#    0.000    0.000    0.000   11.833    0.000   12.333 
#
# Total GULP energy -594720.518205 kJ/mol
# GULP energy per Si atom -12390.010796 kJ/mol
# Density = 1.986959 g / cm^3
# Si number density = 19.914913 Si / 1000 Ang^3
#
#
#
# Elastic Constant Matrix: (Units=GPa)
#
#
# Indices 1 2 3 4 5 6 
#
# 1 136.4692 35.1410 65.7801 0.0000 0.0000 0.0000
# 2 35.1410 51.8421 41.2129 0.0000 0.0000 0.0000
# 3 65.7801 41.2129 63.0171 0.0000 0.0000 0.0000
# 4 0.0000 0.0000 0.0000 24.7265 0.0000 0.0000
# 5 0.0000 0.0000 0.0000 0.0000 34.2721 0.0000
# 6 0.0000 0.0000 0.0000 0.0000 0.0000 25.6858
#
#
#
# Elastic Compliance Matrix: (Units=1/GPa)
#
#
# Indices 1 2 3 4 5 6 
#
# 1 0.015311 0.004847 -0.019153 0.000000 0.000000 0.000000
# 2 0.004847 0.041713 -0.032339 0.000000 0.000000 0.000000
# 3 -0.019153 -0.032339 0.057011 0.000000 0.000000 0.000000
# 4 0.000000 0.000000 0.000000 0.040442 0.000000 0.000000
# 5 0.000000 0.000000 0.000000 0.000000 0.029178 0.000000
# 6 0.000000 0.000000 0.000000 0.000000 0.000000 0.038932
#
#
# Mechanical properties :
#
#
# Convention : Reuss Voigt Hill
#
# Bulk Modulus (GPa) = 48.20464 59.51072 53.85768
# Shear Modulus (GPa) = 15.48982 24.21650 19.85316
#
# Velocity S-wave (km/s) = 2.79193 3.49090 3.16080
# Velocity P-wave (km/s) = 5.88651 6.79675 6.35794
#
# Compressibility (1/GPa) = 0.02074489
#
# Stress axis : x y z
#
# Youngs Moduli (GPa) = 65.31076 23.97355 17.54051
#
# Poissons Ratio (x) = -0.11620 0.33595
# Poissons Ratio (y) = -0.31656 0.56725
# Poissons Ratio (z) = 1.25087 0.77529
#
# Static dielectric constant tensor:
#      x y z
#    x 4.037990 0.000000 0.000000 
#    y 0.000000 3.483660 0.000000 
#    z 0.000000 0.000000 3.572110 
# 
# 
# High freq. dielectric constant tensor:
#      x y z
#    x 1.788330 0.000000 0.000000 
#    y 0.000000 1.738880 0.000000 
#    z 0.000000 0.000000 1.770970 
# 
# From -- ./inp_files/56155.got.cif
#   From: 2010.06.25/outbox.cif.g09.slc.cpg/sg71_29_cif.got.tgz:56155.got - 2010.06.28 04:59:45.
