data_PCOD8291633
_publ_section_title
;
Structure prediction by ZEFSAII (Michael W. Deem and Ramdas Pophale) SiO2 
 PCOD8291633
Probable space group: I M M M
;
_chemical_formula_sum "Si O2"
_cell_formula_units_Z 96
_cell_length_a 15.298136
_cell_length_b 14.406207
_cell_length_c 22.542085
_cell_angle_alpha 90.000000
_cell_angle_beta 90.000000
_cell_angle_gamma 90.000000
_cell_volume 4968.007597
_symmetry_space_group_name_H-M "I M M M"
_symmetry_group_IT_number 71
_symmetry_cell_setting 'orthorhombic'
loop_
_space_group_symop_operation_xyz
x,y,z
-x,-y,z
x,-y,-z
-x,y,-z
-x,-y,-z
x,y,-z
-x,y,z
x,-y,z
1/2+x,1/2+y,1/2+z
1/2-x,1/2-y,1/2+z
1/2+x,1/2-y,1/2-z
1/2-x,1/2+y,1/2-z
1/2-x,1/2-y,1/2-z
1/2+x,1/2+y,1/2-z
1/2-x,1/2+y,1/2+z
1/2+x,1/2-y,1/2+z
loop_
_atom_site_type_symbol
_atom_site_label
_atom_site_fract_x
_atom_site_fract_y
_atom_site_fract_z
Si Si1 0.097614 0.604522 0.285025
Si Si2 0.282849 0.898071 0.677196
Si Si3 0.851573 0.234535 0.630627
Si Si4 0.901125 0.000000 0.928503
Si Si5 0.000000 0.110528 0.570604
Si Si6 0.690466 0.677752 0.565973
Si Si7 0.600044 0.137553 0.433062
O O1 0.123652 0.500000 0.307617
O O2 0.156014 0.637755 0.230109
O O3 0.100112 0.680897 0.336968
O O4 0.000000 0.601641 0.260124
O O5 0.200800 0.829497 0.676750
O O6 0.335255 0.906846 0.615005
O O7 0.246638 0.000000 0.691844
O O8 0.781236 0.282943 0.588951
O O9 0.915714 0.165749 0.594948
O O10 0.848231 0.087539 0.901099
O O11 0.000000 0.000000 0.903693
O O12 0.904435 0.000000 0.000000
O O13 0.000000 0.117639 0.500000
O O14 0.000000 0.000000 0.589201
O O15 0.711874 0.646608 0.500000
O O16 0.612566 0.752122 0.569212
O O17 0.623037 0.101656 0.500000
O O18 0.500000 0.112446 0.417663
#
# Coordination Sequence:
#
# PCOD8291633 Si02
#       7
#    16  16  16   8   8  16  16
#     4  10  21  38  60  85 112 148 196 244 301 364
#     4  10  21  36  56  83 112 149 192 242 297 363
#     4  11  21  38  59  84 115 153 201 250 302 361
#     4   9  16  28  48  75 109 151 193 232 287 356
#     4  11  24  42  65  91 123 163 205 256 316 374
#     4   9  18  30  48  75 108 146 188 239 291 352
#     4   9  17  30  49  76 111 147 182 228 287 351
#
# _framework density 19.323640999999999
#
# number of rings (size 3 to 8) (size 9 to 14) (size 15 to 20)
#    0.000    2.167    0.833    2.500    1.167    4.000 
#    0.000    0.833    0.000    0.500    0.000    0.000 
#    0.000    0.000    0.000    0.000    0.000    0.000 
#
# Total GULP energy -594736.318215 kJ/mol
# GULP energy per Si atom -12390.339963 kJ/mol
# Density = 1.927966 g / cm^3
# Si number density = 19.323641 Si / 1000 Ang^3
#
#
#
# Elastic Constant Matrix: (Units=GPa)
#
#
# Indices 1 2 3 4 5 6 
#
# 1 111.6218 60.2235 24.0429 0.0000 0.0000 0.0000
# 2 60.2235 142.0976 39.4097 0.0000 0.0000 0.0000
# 3 24.0429 39.4097 60.5220 0.0000 0.0000 0.0000
# 4 0.0000 0.0000 0.0000 23.8099 0.0000 0.0000
# 5 0.0000 0.0000 0.0000 0.0000 24.6969 0.0000
# 6 0.0000 0.0000 0.0000 0.0000 0.0000 30.1122
#
#
#
# Elastic Compliance Matrix: (Units=1/GPa)
#
#
# Indices 1 2 3 4 5 6 
#
# 1 0.011763 -0.004503 -0.001741 0.000000 0.000000 0.000000
# 2 -0.004503 0.010312 -0.004926 0.000000 0.000000 0.000000
# 3 -0.001741 -0.004926 0.020422 0.000000 0.000000 0.000000
# 4 0.000000 0.000000 0.000000 0.041999 0.000000 0.000000
# 5 0.000000 0.000000 0.000000 0.000000 0.040491 0.000000
# 6 0.000000 0.000000 0.000000 0.000000 0.000000 0.033209
#
#
# Mechanical properties :
#
#
# Convention : Reuss Voigt Hill
#
# Bulk Modulus (GPa) = 49.60846 62.39929 56.00388
# Shear Modulus (GPa) = 26.70152 28.42815 27.56483
#
# Velocity S-wave (km/s) = 3.72130 3.83973 3.78098
# Velocity P-wave (km/s) = 6.64772 7.21248 6.93585
#
# Compressibility (1/GPa) = 0.02015785
#
# Stress axis : x y z
#
# Youngs Moduli (GPa) = 85.01158 96.97564 48.96624
#
# Poissons Ratio (x) = 0.43664 0.08526
# Poissons Ratio (y) = 0.38277 0.24121
# Poissons Ratio (z) = 0.14801 0.47771
#
# Static dielectric constant tensor:
#      x y z
#    x 3.497460 0.000000 0.000000 
#    y 0.000000 3.822890 0.000000 
#    z 0.000000 0.000000 3.284450 
# 
# 
# High freq. dielectric constant tensor:
#      x y z
#    x 1.750530 0.000000 0.000000 
#    y 0.000000 1.770720 0.000000 
#    z 0.000000 0.000000 1.724630 
# 
# From -- ./inp_files/53034.got.cif
#   From: 2010.06.25/outbox.cif.g09.slc.cpg/sg71_27_cif.got.tgz:53034.got - 2010.06.28 04:59:45.
