data_PCOD8291203
_publ_section_title
;
Structure prediction by ZEFSAII (Michael W. Deem and Ramdas Pophale) SiO2 
 PCOD8291203
Probable space group: I M M M
;
_chemical_formula_sum "Si O2"
_cell_formula_units_Z 112
_cell_length_a 15.619024
_cell_length_b 23.712584
_cell_length_c 14.468190
_cell_angle_alpha 90.000000
_cell_angle_beta 90.000000
_cell_angle_gamma 90.000000
_cell_volume 5358.546182
_symmetry_space_group_name_H-M "I M M M"
_symmetry_group_IT_number 71
_symmetry_cell_setting 'orthorhombic'
loop_
_space_group_symop_operation_xyz
x,y,z
-x,-y,z
x,-y,-z
-x,y,-z
-x,-y,-z
x,y,-z
-x,y,z
x,-y,z
1/2+x,1/2+y,1/2+z
1/2-x,1/2-y,1/2+z
1/2+x,1/2-y,1/2-z
1/2-x,1/2+y,1/2-z
1/2-x,1/2-y,1/2-z
1/2+x,1/2+y,1/2-z
1/2-x,1/2+y,1/2+z
1/2+x,1/2-y,1/2+z
loop_
_atom_site_type_symbol
_atom_site_label
_atom_site_fract_x
_atom_site_fract_y
_atom_site_fract_z
Si Si1 0.401552 0.246728 0.098040
Si Si2 0.594965 0.065222 0.769690
Si Si3 0.401193 0.763381 0.297127
Si Si4 0.753303 0.066090 0.106329
Si Si5 0.596595 0.368002 0.296676
Si Si6 0.344113 0.133699 0.396075
Si Si7 0.651285 0.369761 0.900261
O O1 0.500000 0.267473 0.105796
O O2 0.380764 0.212795 0.192352
O O3 0.344351 0.302327 0.094978
O O4 0.387257 0.212946 0.000000
O O5 0.500000 0.074918 0.813438
O O6 0.668089 0.086686 0.840089
O O7 0.596938 0.098722 0.673448
O O8 0.609726 0.000000 0.746712
O O9 0.500000 0.772042 0.322156
O O10 0.376304 0.697602 0.303284
O O11 0.345815 0.799960 0.368088
O O12 0.838068 0.097140 0.141672
O O13 0.768565 0.000000 0.120138
O O14 0.739102 0.081840 0.000000
O O15 0.500000 0.377379 0.333593
O O16 0.598615 0.389645 0.189647
O O17 0.379596 0.127176 0.500000
O O18 0.248508 0.109421 0.388457
O O19 0.614803 0.392683 0.000000
#
# Coordination Sequence:
#
# PCOD8291203 Si02
#       7
#    16  16  16  16  16  16  16
#     4   8  14  27  47  71 104 148 193 231 270 325
#     4  10  22  42  66  88 112 147 193 244 299 356
#     4   9  19  33  52  81 118 157 194 235 284 346
#     4  10  22  42  65  89 118 150 192 247 297 343
#     4  10  20  36  60  89 123 164 201 234 283 346
#     4  11  22  36  57  85 117 154 194 240 296 350
#     4   9  17  31  52  81 113 151 197 241 287 338
#
# _framework density 20.901191000000001
#
# number of rings (size 3 to 8) (size 9 to 14) (size 15 to 20)
#    0.000    2.429    1.429    1.714    0.000    6.000 
#    0.000    5.000    0.000    2.143    0.000    1.000 
#    0.000    0.000    0.000    0.000    0.000    0.000 
#
# Total GULP energy -693890.728247 kJ/mol
# GULP energy per Si atom -12390.905862 kJ/mol
# Density = 2.085362 g / cm^3
# Si number density = 20.901191 Si / 1000 Ang^3
#
#
#
# Elastic Constant Matrix: (Units=GPa)
#
#
# Indices 1 2 3 4 5 6 
#
# 1 101.7744 35.2056 56.6245 0.0000 0.0000 0.0000
# 2 35.2056 46.7470 44.0635 0.0001 0.0000 0.0000
# 3 56.6245 44.0635 151.0188 0.0002 0.0000 0.0000
# 4 0.0000 0.0001 0.0002 26.7870 0.0000 0.0000
# 5 0.0000 0.0000 0.0000 0.0000 22.6138 0.0000
# 6 0.0000 0.0000 0.0000 0.0000 0.0000 21.7868
#
#
#
# Elastic Compliance Matrix: (Units=1/GPa)
#
#
# Indices 1 2 3 4 5 6 
#
# 1 0.014236 -0.007849 -0.003048 0.000000 0.000000 0.000000
# 2 -0.007849 0.033834 -0.006929 0.000000 0.000000 0.000000
# 3 -0.003048 -0.006929 0.009786 0.000000 0.000000 0.000000
# 4 0.000000 0.000000 0.000000 0.037332 0.000000 0.000000
# 5 0.000000 0.000000 0.000000 0.000000 0.044221 0.000000
# 6 0.000000 0.000000 0.000000 0.000000 0.000000 0.045899
#
#
# Mechanical properties :
#
#
# Convention : Reuss Voigt Hill
#
# Bulk Modulus (GPa) = 45.03411 63.48082 54.25746
# Shear Modulus (GPa) = 21.89515 25.14730 23.52123
#
# Velocity S-wave (km/s) = 3.24011 3.47241 3.35827
# Velocity P-wave (km/s) = 5.96579 6.82016 6.40724
#
# Compressibility (1/GPa) = 0.02220539
#
# Stress axis : x y z
#
# Youngs Moduli (GPa) = 70.24252 29.55617 102.18448
#
# Poissons Ratio (x) = 0.23197 0.31145
# Poissons Ratio (y) = 0.55131 0.70804
# Poissons Ratio (z) = 0.21409 0.20480
#
# Static dielectric constant tensor:
#      x y z
#    x 3.685590 0.000000 0.000000 
#    y 0.000000 3.394100 0.000000 
#    z 0.000000 0.000000 4.074710 
# 
# 
# High freq. dielectric constant tensor:
#      x y z
#    x 1.818210 0.000000 0.000000 
#    y 0.000000 1.776290 0.000000 
#    z 0.000000 0.000000 1.827960 
# 
# From -- ./inp_files/34892.got.cif
#   From: 2010.06.25/outbox.cif.g09.slc.cpg/sg71_18_cif.got.tgz:34892.got - 2010.06.28 04:59:45.
