data_PCOD8291338
_publ_section_title
;
Structure prediction by ZEFSAII (Michael W. Deem and Ramdas Pophale) SiO2 
 PCOD8291338
Probable space group: I M M M
;
_chemical_formula_sum "Si O2"
_cell_formula_units_Z 64
_cell_length_a 16.416756
_cell_length_b 22.053978
_cell_length_c 9.022031
_cell_angle_alpha 90.000000
_cell_angle_beta 90.000000
_cell_angle_gamma 90.000000
_cell_volume 3266.469410
_symmetry_space_group_name_H-M "I M M M"
_symmetry_group_IT_number 71
_symmetry_cell_setting 'orthorhombic'
loop_
_space_group_symop_operation_xyz
x,y,z
-x,-y,z
x,-y,-z
-x,y,-z
-x,-y,-z
x,y,-z
-x,y,z
x,-y,z
1/2+x,1/2+y,1/2+z
1/2-x,1/2-y,1/2+z
1/2+x,1/2-y,1/2-z
1/2-x,1/2+y,1/2-z
1/2-x,1/2-y,1/2-z
1/2+x,1/2+y,1/2-z
1/2-x,1/2+y,1/2+z
1/2+x,1/2-y,1/2+z
loop_
_atom_site_type_symbol
_atom_site_label
_atom_site_fract_x
_atom_site_fract_y
_atom_site_fract_z
Si Si1 0.906581 0.000000 0.675256
Si Si2 0.095693 0.226091 0.330179
Si Si3 0.641496 0.860046 0.170728
Si Si4 0.827228 0.885897 0.172029
Si Si5 0.500000 0.931169 0.324984
O O1 0.863548 0.940609 0.735654
O O2 0.899318 0.000000 0.500000
O O3 0.000000 0.000000 0.727228
O O4 0.115321 0.208373 0.500000
O O5 0.137201 0.289452 0.285958
O O6 0.131548 0.176280 0.221379
O O7 0.000000 0.232071 0.304289
O O8 0.731406 0.884071 0.202858
O O9 0.580878 0.898744 0.269096
O O10 0.615945 0.868151 0.000000
O O11 0.846242 0.896169 0.000000
O O12 0.500000 0.928386 0.500000
O O13 0.500000 0.000000 0.266573
#
# Coordination Sequence:
#
# PCOD8291338 Si02
#       5
#     8  16  16  16   8
#     4  11  25  45  65  86 119 166 209 247 306 369
#     4  10  20  38  63  89 122 164 205 245 300 367
#     4  10  22  42  64  89 123 165 205 245 304 371
#     4  11  24  39  62  94 124 157 203 257 308 358
#     4  11  25  41  61  93 127 160 205 256 305 355
#
# _framework density 19.593019000000002
#
# number of rings (size 3 to 8) (size 9 to 14) (size 15 to 20)
#    0.000    1.500    1.250    3.000    1.750    8.500 
#    0.000    0.000    0.000    0.000    0.000    0.000 
#    0.000    0.000    0.000    0.000    0.000    0.000 
#
# Total GULP energy -397000.568040 kJ/mol
# GULP energy per Si atom -12406.267751 kJ/mol
# Density = 1.954842 g / cm^3
# Si number density = 19.593019 Si / 1000 Ang^3
#
#
#
# Elastic Constant Matrix: (Units=GPa)
#
#
# Indices 1 2 3 4 5 6 
#
# 1 107.4078 62.7445 49.8737 0.0000 0.0000 0.0000
# 2 62.7445 139.3863 53.1150 0.0000 0.0000 0.0000
# 3 49.8737 53.1150 65.1109 0.0000 0.0000 0.0000
# 4 0.0000 0.0000 0.0000 43.8127 0.0000 0.0000
# 5 0.0000 0.0000 0.0000 0.0000 32.4137 0.0000
# 6 0.0000 0.0000 0.0000 0.0000 0.0000 28.9593
#
#
#
# Elastic Compliance Matrix: (Units=1/GPa)
#
#
# Indices 1 2 3 4 5 6 
#
# 1 0.015591 -0.003580 -0.009022 0.000000 0.000000 0.000000
# 2 -0.003580 0.011233 -0.006421 0.000000 0.000000 0.000000
# 3 -0.009022 -0.006421 0.027507 0.000000 0.000000 0.000000
# 4 0.000000 0.000000 0.000000 0.022824 0.000000 0.000000
# 5 0.000000 0.000000 0.000000 0.000000 0.030851 0.000000
# 6 0.000000 0.000000 0.000000 0.000000 0.000000 0.034531
#
#
# Mechanical properties :
#
#
# Convention : Reuss Voigt Hill
#
# Bulk Modulus (GPa) = 61.40702 71.48573 66.44638
# Shear Modulus (GPa) = 26.88017 30.78194 28.83105
#
# Velocity S-wave (km/s) = 3.70797 3.96797 3.84017
# Velocity P-wave (km/s) = 7.05276 7.58667 7.32458
#
# Compressibility (1/GPa) = 0.01628478
#
# Stress axis : x y z
#
# Youngs Moduli (GPa) = 64.13957 89.02560 36.35501
#
# Poissons Ratio (x) = 0.31875 0.32798
# Poissons Ratio (y) = 0.22965 0.23342
# Poissons Ratio (z) = 0.57864 0.57160
#
# Static dielectric constant tensor:
#      x y z
#    x 3.713500 0.000000 0.000000 
#    y 0.000000 4.031690 0.000000 
#    z 0.000000 0.000000 3.668950 
# 
# 
# High freq. dielectric constant tensor:
#      x y z
#    x 1.778630 0.000000 0.000000 
#    y 0.000000 1.778210 0.000000 
#    z 0.000000 0.000000 1.765770 
# 
# From -- ./inp_files/5521.got.cif
#   From: 2010.06.25/outbox.cif.g09.slc.cpg/sg71_3_cif.got.tgz:5521.got - 2010.06.28 04:59:45.
