data_PCOD8291794
_publ_section_title
;
Structure prediction by ZEFSAII (Michael W. Deem and Ramdas Pophale) SiO2 
 PCOD8291794
Probable space group: I M M M
;
_chemical_formula_sum "Si O2"
_cell_formula_units_Z 104
_cell_length_a 16.280698
_cell_length_b 17.865888
_cell_length_c 18.921390
_cell_angle_alpha 90.000000
_cell_angle_beta 90.000000
_cell_angle_gamma 90.000000
_cell_volume 5503.648191
_symmetry_space_group_name_H-M "I M M M"
_symmetry_group_IT_number 71
_symmetry_cell_setting 'orthorhombic'
loop_
_space_group_symop_operation_xyz
x,y,z
-x,-y,z
x,-y,-z
-x,y,-z
-x,-y,-z
x,y,-z
-x,y,z
x,-y,z
1/2+x,1/2+y,1/2+z
1/2-x,1/2-y,1/2+z
1/2+x,1/2-y,1/2-z
1/2-x,1/2+y,1/2-z
1/2-x,1/2-y,1/2-z
1/2+x,1/2+y,1/2-z
1/2-x,1/2+y,1/2+z
1/2+x,1/2-y,1/2+z
loop_
_atom_site_type_symbol
_atom_site_label
_atom_site_fract_x
_atom_site_fract_y
_atom_site_fract_z
Si Si1 0.170104 0.584946 0.706590
Si Si2 0.596898 0.145048 0.341722
Si Si3 0.902128 0.500000 0.921392
Si Si4 0.641080 0.584538 0.313178
Si Si5 0.665649 0.711843 0.418899
Si Si6 0.000000 0.912355 0.294543
Si Si7 0.647023 0.815018 0.920321
Si Si8 0.000000 0.795315 0.417734
O O1 0.138137 0.500000 0.716667
O O2 0.130106 0.641716 0.762240
O O3 0.267450 0.589520 0.717372
O O4 0.141110 0.612416 0.629514
O O5 0.500000 0.143437 0.339696
O O6 0.625299 0.218791 0.380425
O O7 0.632602 0.073240 0.382844
O O8 0.000000 0.500000 0.922177
O O9 0.866012 0.500000 0.000000
O O10 0.620072 0.500000 0.337547
O O11 0.632285 0.636696 0.381829
O O12 0.579896 0.610292 0.251114
O O13 0.636807 0.709101 0.500000
O O14 0.763359 0.721654 0.412475
O O15 0.000000 0.868161 0.368322
O O16 0.000000 0.000000 0.313479
O O17 0.580462 0.752966 0.899465
O O18 0.631865 0.843841 0.000000
O O19 0.000000 0.820476 0.500000
#
# Coordination Sequence:
#
# PCOD8291794 Si02
#       8
#    16  16   8  16  16   8  16   8
#     4  10  21  37  59  85 115 150 190 231 277 339
#     4  11  23  35  54  85 114 148 193 234 277 336
#     4   9  18  36  54  72 111 152 184 230 280 322
#     4   9  21  39  59  87 115 147 187 233 287 333
#     4  10  22  38  59  85 115 150 191 231 278 342
#     4  10  22  39  61  85 113 146 188 238 284 338
#     4   9  21  39  58  85 115 147 186 234 286 334
#     4  10  22  39  61  85 113 148 188 234 288 338
#
# _framework density 18.896556
#
# number of rings (size 3 to 8) (size 9 to 14) (size 15 to 20)
#    0.000    2.231    0.769    0.462    6.462    2.923 
#    0.000    3.077    0.000    2.769    0.000    0.000 
#    0.000    0.000    0.000    0.000    0.000    0.000 
#
# Total GULP energy -644900.777069 kJ/mol
# GULP energy per Si atom -12401.938021 kJ/mol
# Density = 1.885355 g / cm^3
# Si number density = 18.896556 Si / 1000 Ang^3
#
#
#
# Elastic Constant Matrix: (Units=GPa)
#
#
# Indices 1 2 3 4 5 6 
#
# 1 73.5290 46.1612 52.7243 0.0000 0.0000 0.0000
# 2 46.1612 110.3770 74.7707 0.0000 0.0000 0.0000
# 3 52.7243 74.7707 138.2040 0.0000 0.0000 0.0000
# 4 0.0000 0.0000 0.0000 16.6390 0.0000 0.0000
# 5 0.0000 0.0000 0.0000 0.0000 25.6325 0.0000
# 6 0.0000 0.0000 0.0000 0.0000 0.0000 20.7682
#
#
#
# Elastic Compliance Matrix: (Units=1/GPa)
#
#
# Indices 1 2 3 4 5 6 
#
# 1 0.020422 -0.005151 -0.005004 0.000000 0.000000 0.000000
# 2 -0.005151 0.015600 -0.006475 0.000000 0.000000 0.000000
# 3 -0.005004 -0.006475 0.012648 0.000000 0.000000 0.000000
# 4 0.000000 0.000000 0.000000 0.060100 0.000000 0.000000
# 5 0.000000 0.000000 0.000000 0.000000 0.039013 0.000000
# 6 0.000000 0.000000 0.000000 0.000000 0.000000 0.048151
#
#
# Mechanical properties :
#
#
# Convention : Reuss Voigt Hill
#
# Bulk Modulus (GPa) = 64.89281 74.38027 69.63654
# Shear Modulus (GPa) = 21.33742 22.50487 21.92115
#
# Velocity S-wave (km/s) = 3.36396 3.45476 3.40966
# Velocity P-wave (km/s) = 7.03590 7.44050 7.24103
#
# Compressibility (1/GPa) = 0.01541003
#
# Stress axis : x y z
#
# Youngs Moduli (GPa) = 48.96661 64.10165 79.06505
#
# Poissons Ratio (x) = 0.33018 0.39566
# Poissons Ratio (y) = 0.25222 0.51194
# Poissons Ratio (z) = 0.24504 0.41505
#
# Static dielectric constant tensor:
#      x y z
#    x 3.485430 0.000000 0.000000 
#    y 0.000000 3.464040 0.000000 
#    z 0.000000 0.000000 3.554360 
# 
# 
# High freq. dielectric constant tensor:
#      x y z
#    x 1.732480 0.000000 0.000000 
#    y 0.000000 1.733260 0.000000 
#    z 0.000000 0.000000 1.740400 
# 
# From -- ./inp_files/53224.got.cif
#   From: 2010.06.25/outbox.cif.g09.slc.cpg/sg71_27_cif.got.tgz:53224.got - 2010.06.28 04:59:45.
