data_PCOD8291270
_publ_section_title
;
Structure prediction by ZEFSAII (Michael W. Deem and Ramdas Pophale) SiO2 
 PCOD8291270
Probable space group: I M M M
;
_chemical_formula_sum "Si O2"
_cell_formula_units_Z 48
_cell_length_a 12.759130
_cell_length_b 8.904712
_cell_length_c 22.287111
_cell_angle_alpha 90.000000
_cell_angle_beta 90.000000
_cell_angle_gamma 90.000000
_cell_volume 2532.180828
_symmetry_space_group_name_H-M "I M M M"
_symmetry_group_IT_number 71
_symmetry_cell_setting 'orthorhombic'
loop_
_space_group_symop_operation_xyz
x,y,z
-x,-y,z
x,-y,-z
-x,y,-z
-x,-y,-z
x,y,-z
-x,y,z
x,-y,z
1/2+x,1/2+y,1/2+z
1/2-x,1/2-y,1/2+z
1/2+x,1/2-y,1/2-z
1/2-x,1/2+y,1/2-z
1/2-x,1/2-y,1/2-z
1/2+x,1/2+y,1/2-z
1/2-x,1/2+y,1/2+z
1/2+x,1/2-y,1/2+z
loop_
_atom_site_type_symbol
_atom_site_label
_atom_site_fract_x
_atom_site_fract_y
_atom_site_fract_z
Si Si1 0.000000 0.823606 0.248786
Si Si2 0.798351 0.825608 0.068586
Si Si3 0.500000 0.176972 0.380529
Si Si4 0.114447 0.669771 0.345917
O O1 0.895441 0.769840 0.285117
O O2 0.000000 0.751999 0.183983
O O3 0.000000 0.000000 0.241579
O O4 0.702647 0.766382 0.109699
O O5 0.899291 0.726933 0.082111
O O6 0.823584 0.000000 0.081489
O O7 0.764504 0.801642 0.000000
O O8 0.500000 0.000000 0.372768
O O9 0.142737 0.500000 0.326710
O O10 0.000000 0.673439 0.378778
#
# Coordination Sequence:
#
# PCOD8291270 Si02
#       4
#     8  16   8  16
#     4  10  20  37  60  85 112 146 189 234 281 336
#     4  10  21  38  61  86 114 150 190 230 273 331
#     4  12  25  39  56  80 115 154 191 235 283 332
#     4   8  17  36  59  87 117 144 181 228 282 336
#
# _framework density 18.955992999999999
#
# number of rings (size 3 to 8) (size 9 to 14) (size 15 to 20)
#    1.000    1.333    0.000    3.000    0.000    6.000 
#    0.000    3.333    0.000    1.000    0.000    0.000 
#    0.000    0.000    0.000    0.000    0.000    0.000 
#
# Total GULP energy -297442.589440 kJ/mol
# GULP energy per Si atom -12393.441227 kJ/mol
# Density = 1.891285 g / cm^3
# Si number density = 18.955993 Si / 1000 Ang^3
#
#
#
# Elastic Constant Matrix: (Units=GPa)
#
#
# Indices 1 2 3 4 5 6 
#
# 1 67.7152 22.6571 14.0914 0.0000 0.0000 0.0000
# 2 22.6571 100.3416 35.2002 0.0000 0.0000 0.0000
# 3 14.0914 35.2002 85.6875 0.0000 0.0000 0.0000
# 4 0.0000 0.0000 0.0000 28.8894 0.0000 0.0000
# 5 0.0000 0.0000 0.0000 0.0000 35.5203 0.0000
# 6 0.0000 0.0000 0.0000 0.0000 0.0000 14.5614
#
#
#
# Elastic Compliance Matrix: (Units=1/GPa)
#
#
# Indices 1 2 3 4 5 6 
#
# 1 0.016107 -0.003164 -0.001349 0.000000 0.000000 0.000000
# 2 -0.003164 0.012265 -0.004518 0.000000 0.000000 0.000000
# 3 -0.001349 -0.004518 0.013748 0.000000 0.000000 0.000000
# 4 0.000000 0.000000 0.000000 0.034615 0.000000 0.000000
# 5 0.000000 0.000000 0.000000 0.000000 0.028153 0.000000
# 6 0.000000 0.000000 0.000000 0.000000 0.000000 0.068675
#
#
# Mechanical properties :
#
#
# Convention : Reuss Voigt Hill
#
# Bulk Modulus (GPa) = 41.56561 44.18242 42.87401
# Shear Modulus (GPa) = 25.04448 27.91394 26.47921
#
# Velocity S-wave (km/s) = 3.63876 3.84157 3.74154
# Velocity P-wave (km/s) = 6.29517 6.56013 6.42901
#
# Compressibility (1/GPa) = 0.02405835
#
# Stress axis : x y z
#
# Youngs Moduli (GPa) = 62.08471 81.53049 72.73629
#
# Poissons Ratio (x) = 0.25793 0.09814
# Poissons Ratio (y) = 0.19641 0.32865
# Poissons Ratio (z) = 0.08376 0.36838
#
# Static dielectric constant tensor:
#      x y z
#    x 3.480980 0.000000 0.000000 
#    y 0.000000 3.377630 0.000000 
#    z 0.000000 0.000000 3.413650 
# 
# 
# High freq. dielectric constant tensor:
#      x y z
#    x 1.732500 0.000000 0.000000 
#    y 0.000000 1.727460 0.000000 
#    z 0.000000 0.000000 1.733990 
# 
# From -- ./inp_files/30811.got.cif
#   From: 2010.06.25/outbox.cif.g09.slc.cpg/sg71_16_cif.got.tgz:30811.got - 2010.06.28 04:59:45.
