data_PCOD8291891
_publ_section_title
;
Structure prediction by ZEFSAII (Michael W. Deem and Ramdas Pophale) SiO2 
 PCOD8291891
Probable space group: I M M M
;
_chemical_formula_sum "Si O2"
_cell_formula_units_Z 104
_cell_length_a 30.002979
_cell_length_b 9.232339
_cell_length_c 19.250621
_cell_angle_alpha 90.000000
_cell_angle_beta 90.000000
_cell_angle_gamma 90.000000
_cell_volume 5332.377223
_symmetry_space_group_name_H-M "I M M M"
_symmetry_group_IT_number 71
_symmetry_cell_setting 'orthorhombic'
loop_
_space_group_symop_operation_xyz
x,y,z
-x,-y,z
x,-y,-z
-x,y,-z
-x,-y,-z
x,y,-z
-x,y,z
x,-y,z
1/2+x,1/2+y,1/2+z
1/2-x,1/2-y,1/2+z
1/2+x,1/2-y,1/2-z
1/2-x,1/2+y,1/2-z
1/2-x,1/2-y,1/2-z
1/2+x,1/2+y,1/2-z
1/2-x,1/2+y,1/2+z
1/2+x,1/2-y,1/2+z
loop_
_atom_site_type_symbol
_atom_site_label
_atom_site_fract_x
_atom_site_fract_y
_atom_site_fract_z
Si Si1 0.135223 0.335787 0.794324
Si Si2 0.786141 0.337194 0.418143
Si Si3 0.198514 0.331875 0.920562
Si Si4 0.049585 0.664313 0.130202
Si Si5 0.049458 0.828144 0.421781
Si Si6 0.636861 0.672233 0.156343
Si Si7 0.446947 0.660589 0.500000
O O1 0.147461 0.500000 0.772351
O O2 0.158896 0.295463 0.867054
O O3 0.082032 0.319199 0.804326
O O4 0.148409 0.226527 0.733596
O O5 0.788256 0.344114 0.500000
O O6 0.788363 0.500000 0.386672
O O7 0.740328 0.261997 0.394673
O O8 0.827249 0.240481 0.394506
O O9 0.212006 0.500000 0.916779
O O10 0.184148 0.291788 0.000000
O O11 0.048701 0.500000 0.102883
O O12 0.070076 0.759381 0.068428
O O13 0.000000 0.715367 0.152626
O O14 0.059280 0.770769 0.500000
O O15 0.087888 0.773318 0.369098
O O16 0.000000 0.773933 0.397771
O O17 0.049929 0.000000 0.422920
O O18 0.640799 0.500000 0.154209
O O19 0.426908 0.500000 0.500000
O O20 0.500000 0.661473 0.500000
#
# Coordination Sequence:
#
# PCOD8291891 Si02
#       7
#    16  16  16  16  16  16   8
#     4  10  22  37  54  78 111 148 186 228 278 328
#     4  10  21  38  61  86 111 139 174 221 277 331
#     4   9  19  37  60  82 104 136 182 231 277 328
#     4   9  18  33  53  75 102 141 186 226 269 327
#     4   8  15  30  53  81 111 143 182 226 267 310
#     4  11  22  35  55  83 115 149 186 222 266 326
#     4   9  17  29  47  73 101 129 169 225 279 319
#
# _framework density 19.503495999999998
#
# number of rings (size 3 to 8) (size 9 to 14) (size 15 to 20)
#    0.000    2.538    0.000    2.077    1.077    4.923 
#    0.000    0.000    0.000    1.385    0.000    5.385 
#    0.000    0.000    0.000    0.000    0.000    0.000 
#
# Total GULP energy -644607.637251 kJ/mol
# GULP energy per Si atom -12396.300716 kJ/mol
# Density = 1.945911 g / cm^3
# Si number density = 19.503496 Si / 1000 Ang^3
#
#
#
# Elastic Constant Matrix: (Units=GPa)
#
#
# Indices 1 2 3 4 5 6 
#
# 1 113.7497 39.8963 41.7659 0.0000 0.0000 0.0000
# 2 39.8963 78.4125 27.5762 0.0000 0.0000 0.0000
# 3 41.7659 27.5762 58.8889 0.0000 0.0000 0.0000
# 4 0.0000 0.0000 0.0000 16.9308 0.0000 0.0000
# 5 0.0000 0.0000 0.0000 0.0000 18.2037 0.0000
# 6 0.0000 0.0000 0.0000 0.0000 0.0000 19.2286
#
#
#
# Elastic Compliance Matrix: (Units=1/GPa)
#
#
# Indices 1 2 3 4 5 6 
#
# 1 0.012851 -0.003991 -0.007246 0.000000 0.000000 0.000000
# 2 -0.003991 0.016506 -0.004899 0.000000 0.000000 0.000000
# 3 -0.007246 -0.004899 0.024414 0.000000 0.000000 0.000000
# 4 0.000000 0.000000 0.000000 0.059064 0.000000 0.000000
# 5 0.000000 0.000000 0.000000 0.000000 0.054934 0.000000
# 6 0.000000 0.000000 0.000000 0.000000 0.000000 0.052006
#
#
# Mechanical properties :
#
#
# Convention : Reuss Voigt Hill
#
# Bulk Modulus (GPa) = 46.51031 52.16977 49.34004
# Shear Modulus (GPa) = 19.28904 20.32680 19.80792
#
# Velocity S-wave (km/s) = 3.14826 3.23183 3.19032
# Velocity P-wave (km/s) = 6.09215 6.38227 6.23890
#
# Compressibility (1/GPa) = 0.02150061
#
# Stress axis : x y z
#
# Youngs Moduli (GPa) = 77.81275 60.58232 40.95938
#
# Poissons Ratio (x) = 0.24175 0.29679
# Poissons Ratio (y) = 0.31051 0.20068
# Poissons Ratio (z) = 0.56383 0.29682
#
# Static dielectric constant tensor:
#      x y z
#    x 3.755890 0.000000 0.000000 
#    y 0.000000 3.541000 0.000000 
#    z 0.000000 0.000000 3.402300 
# 
# 
# High freq. dielectric constant tensor:
#      x y z
#    x 1.763860 0.000000 0.000000 
#    y 0.000000 1.743750 0.000000 
#    z 0.000000 0.000000 1.746260 
# 
# From -- ./inp_files/56288.got.cif
#   From: 2010.06.25/outbox.cif.g09.slc.cpg/sg71_29_cif.got.tgz:56288.got - 2010.06.28 04:59:45.
