data_PCOD8291778
_publ_section_title
;
Structure prediction by ZEFSAII (Michael W. Deem and Ramdas Pophale) SiO2 
 PCOD8291778
Probable space group: I M M M
;
_chemical_formula_sum "Si O2"
_cell_formula_units_Z 96
_cell_length_a 27.693606
_cell_length_b 9.018481
_cell_length_c 20.049103
_cell_angle_alpha 90.000000
_cell_angle_beta 90.000000
_cell_angle_gamma 90.000000
_cell_volume 5007.348874
_symmetry_space_group_name_H-M "I M M M"
_symmetry_group_IT_number 71
_symmetry_cell_setting 'orthorhombic'
loop_
_space_group_symop_operation_xyz
x,y,z
-x,-y,z
x,-y,-z
-x,y,-z
-x,-y,-z
x,y,-z
-x,y,z
x,-y,z
1/2+x,1/2+y,1/2+z
1/2-x,1/2-y,1/2+z
1/2+x,1/2-y,1/2-z
1/2-x,1/2+y,1/2-z
1/2-x,1/2-y,1/2-z
1/2+x,1/2+y,1/2-z
1/2-x,1/2+y,1/2+z
1/2+x,1/2-y,1/2+z
loop_
_atom_site_type_symbol
_atom_site_label
_atom_site_fract_x
_atom_site_fract_y
_atom_site_fract_z
Si Si1 0.055857 0.672291 0.691292
Si Si2 0.793474 0.671575 0.424203
Si Si3 0.112269 0.175075 0.189698
Si Si4 0.222354 0.826729 0.809431
Si Si5 0.055822 0.330138 0.923241
Si Si6 0.391703 0.326402 0.077028
O O1 0.068875 0.500000 0.687737
O O2 0.087071 0.746787 0.748550
O O3 0.067463 0.745982 0.620209
O O4 0.000000 0.698143 0.708063
O O5 0.778770 0.708506 0.500000
O O6 0.807866 0.500000 0.415725
O O7 0.747890 0.715132 0.379088
O O8 0.839145 0.768242 0.401248
O O9 0.167505 0.229216 0.187231
O O10 0.087809 0.220830 0.120524
O O11 0.107833 0.000000 0.198791
O O12 0.250000 0.750000 0.750000
O O13 0.224340 0.000000 0.795913
O O14 0.065709 0.500000 0.902321
O O15 0.000000 0.291436 0.911261
O O16 0.069874 0.304446 0.000000
O O17 0.393675 0.500000 0.091341
O O18 0.402113 0.288499 0.000000
#
# Coordination Sequence:
#
# PCOD8291778 Si02
#       6
#    16  16  16  16  16  16
#     4  11  24  40  58  80 108 145 188 229 269 323
#     4   9  18  35  58  80 106 144 185 220 260 317
#     4  11  23  37  56  84 115 144 180 230 282 328
#     4  10  22  37  54  79 109 142 180 224 272 322
#     4   9  19  37  59  82 111 148 188 227 268 321
#     4  10  21  37  58  85 115 143 175 222 277 327
#
# _framework density 19.171821999999999
#
# number of rings (size 3 to 8) (size 9 to 14) (size 15 to 20)
#    0.000    2.000    0.000    3.500    0.000   10.667 
#    0.000    4.167    0.000    2.000    0.000    0.000 
#    0.000    0.000    0.000    0.000    0.000    0.000 
#
# Total GULP energy -595419.782349 kJ/mol
# GULP energy per Si atom -12404.578799 kJ/mol
# Density = 1.912819 g / cm^3
# Si number density = 19.171822 Si / 1000 Ang^3
#
#
#
# Elastic Constant Matrix: (Units=GPa)
#
#
# Indices 1 2 3 4 5 6 
#
# 1 99.5062 48.7621 55.8470 0.0000 0.0000 0.0000
# 2 48.7621 80.1015 45.9815 0.0000 0.0000 0.0000
# 3 55.8470 45.9815 103.6758 0.0000 0.0000 0.0000
# 4 0.0000 0.0000 0.0000 37.5331 0.0000 0.0000
# 5 0.0000 0.0000 0.0000 0.0000 40.6431 0.0000
# 6 0.0000 0.0000 0.0000 0.0000 0.0000 32.1253
#
#
#
# Elastic Compliance Matrix: (Units=1/GPa)
#
#
# Indices 1 2 3 4 5 6 
#
# 1 0.016728 -0.006722 -0.006029 0.000000 0.000000 0.000000
# 2 -0.006722 0.019449 -0.005005 0.000000 0.000000 0.000000
# 3 -0.006029 -0.005005 0.015113 0.000000 0.000000 0.000000
# 4 0.000000 0.000000 0.000000 0.026643 0.000000 0.000000
# 5 0.000000 0.000000 0.000000 0.000000 0.024604 0.000000
# 6 0.000000 0.000000 0.000000 0.000000 0.000000 0.031128
#
#
# Mechanical properties :
#
#
# Convention : Reuss Voigt Hill
#
# Bulk Modulus (GPa) = 63.38262 64.94053 64.16158
# Shear Modulus (GPa) = 28.66358 30.90651 29.78504
#
# Velocity S-wave (km/s) = 3.87083 4.01943 3.94583
# Velocity P-wave (km/s) = 7.28765 7.44899 7.36876
#
# Compressibility (1/GPa) = 0.01577720
#
# Stress axis : x y z
#
# Youngs Moduli (GPa) = 59.78158 51.41585 66.16756
#
# Poissons Ratio (x) = 0.34561 0.39895
# Poissons Ratio (y) = 0.40184 0.33118
# Poissons Ratio (z) = 0.36045 0.25734
#
# Static dielectric constant tensor:
#      x y z
#    x 3.566690 0.000000 0.000000 
#    y 0.000000 3.521320 0.000000 
#    z 0.000000 0.000000 2.346200 
# 
# 
# High freq. dielectric constant tensor:
#      x y z
#    x 1.746640 0.000000 0.000000 
#    y 0.000000 1.748200 0.000000 
#    z 0.000000 0.000000 1.758780 
# 
# From -- ./inp_files/14855.got.cif
#   From: 2010.06.25/outbox.cif.g09.slc.cpg/sg71_8_cif.got.tgz:14855.got - 2010.06.28 04:59:45.
