data_PCOD8291622
_publ_section_title
;
Structure prediction by ZEFSAII (Michael W. Deem and Ramdas Pophale) SiO2 
 PCOD8291622
Probable space group: I M M M
;
_chemical_formula_sum "Si O2"
_cell_formula_units_Z 72
_cell_length_a 14.545508
_cell_length_b 27.061641
_cell_length_c 8.930297
_cell_angle_alpha 90.000000
_cell_angle_beta 90.000000
_cell_angle_gamma 90.000000
_cell_volume 3515.190976
_symmetry_space_group_name_H-M "I M M M"
_symmetry_group_IT_number 71
_symmetry_cell_setting 'orthorhombic'
loop_
_space_group_symop_operation_xyz
x,y,z
-x,-y,z
x,-y,-z
-x,y,-z
-x,-y,-z
x,y,-z
-x,y,z
x,-y,z
1/2+x,1/2+y,1/2+z
1/2-x,1/2-y,1/2+z
1/2+x,1/2-y,1/2-z
1/2-x,1/2+y,1/2-z
1/2-x,1/2-y,1/2-z
1/2+x,1/2+y,1/2-z
1/2-x,1/2+y,1/2+z
1/2+x,1/2-y,1/2+z
loop_
_atom_site_type_symbol
_atom_site_label
_atom_site_fract_x
_atom_site_fract_y
_atom_site_fract_z
Si Si1 0.159928 0.230626 0.170611
Si Si2 0.725706 0.908368 0.175680
Si Si3 0.395284 0.000000 0.178208
Si Si4 0.604121 0.630898 0.825769
Si Si5 0.600491 0.163965 0.331649
O O1 0.250000 0.250000 0.250000
O O2 0.115063 0.184824 0.254978
O O3 0.090985 0.276917 0.177703
O O4 0.180692 0.214460 0.000000
O O5 0.661077 0.952436 0.236900
O O6 0.826223 0.908827 0.251993
O O7 0.675997 0.856808 0.216511
O O8 0.740283 0.912776 0.000000
O O9 0.500000 0.000000 0.242430
O O10 0.399674 0.000000 0.000000
O O11 0.500000 0.612207 0.798219
O O12 0.626998 0.635131 0.000000
O O13 0.629801 0.148284 0.500000
O O14 0.500000 0.142065 0.291495
#
# Coordination Sequence:
#
# PCOD8291622 Si02
#       5
#    16  16   8  16  16
#     4  11  21  35  57  85 120 161 202 244 292 344
#     4  11  22  38  63  89 116 152 194 245 300 357
#     4   9  20  40  64  93 124 150 183 235 300 365
#     4  11  24  41  60  84 119 162 205 249 296 349
#     4  10  21  36  55  82 119 157 193 238 290 347
#
# _framework density 20.482529
#
# number of rings (size 3 to 8) (size 9 to 14) (size 15 to 20)
#    0.000    1.444    2.222    3.333    0.000    4.889 
#    0.000    2.778    0.000    7.333    0.000    0.000 
#    0.000    0.000    0.000    0.000    0.000    0.000 
#
# Total GULP energy -446373.117372 kJ/mol
# GULP energy per Si atom -12399.253260 kJ/mol
# Density = 2.043591 g / cm^3
# Si number density = 20.482529 Si / 1000 Ang^3
#
#
#
# Elastic Constant Matrix: (Units=GPa)
#
#
# Indices 1 2 3 4 5 6 
#
# 1 157.9730 49.6103 63.9078 0.0003 0.0007 0.0002
# 2 49.6103 87.3556 31.3090 -0.0008 -0.0003 -0.0002
# 3 63.9078 31.3090 110.1007 0.0023 -0.0009 0.0009
# 4 0.0003 -0.0008 0.0023 23.2824 -0.0001 -0.0003
# 5 0.0007 -0.0003 -0.0009 -0.0001 31.5008 -0.0002
# 6 0.0002 -0.0002 0.0009 -0.0003 -0.0002 33.8543
#
#
#
# Elastic Compliance Matrix: (Units=1/GPa)
#
#
# Indices 1 2 3 4 5 6 
#
# 1 0.009235 -0.003701 -0.004308 0.000000 0.000000 0.000000
# 2 -0.003701 0.014230 -0.001898 0.000001 0.000000 0.000000
# 3 -0.004308 -0.001898 0.012123 -0.000001 0.000000 0.000000
# 4 0.000000 0.000001 -0.000001 0.042951 0.000000 0.000000
# 5 0.000000 0.000000 0.000000 0.000000 0.031745 0.000000
# 6 0.000000 0.000000 0.000000 0.000000 0.000000 0.029538
#
#
# Mechanical properties :
#
#
# Convention : Reuss Voigt Hill
#
# Bulk Modulus (GPa) = 63.39808 71.67595 67.53701
# Shear Modulus (GPa) = 30.32239 31.76765 31.04502
#
# Velocity S-wave (km/s) = 3.85177 3.94250 3.89740
# Velocity P-wave (km/s) = 7.12748 7.46954 7.30052
#
# Compressibility (1/GPa) = 0.01577335
#
# Stress axis : x y z
#
# Youngs Moduli (GPa) = 108.28050 70.27646 82.48692
#
# Poissons Ratio (x) = 0.26007 0.35537
# Poissons Ratio (y) = 0.40071 0.15659
# Poissons Ratio (z) = 0.46650 0.13341
#
# Static dielectric constant tensor:
#      x y z
#    x 3.847780 0.000010 -0.000010 
#    y 0.000010 3.701540 -0.000010 
#    z -0.000010 -0.000010 3.668870 
# 
# 
# High freq. dielectric constant tensor:
#      x y z
#    x 1.816040 0.000000 0.000000 
#    y 0.000000 1.779300 0.000000 
#    z 0.000000 0.000000 1.795800 
# 
# From -- ./inp_files/6026.got.cif
#   From: 2010.06.25/outbox.cif.g09.slc.cpg/sg71_4_cif.got.tgz:6026.got - 2010.06.28 04:59:45.
