data_PCOD8291053
_publ_section_title
;
Structure prediction by ZEFSAII (Michael W. Deem and Ramdas Pophale) SiO2 
 PCOD8291053
Probable space group: I M M M
;
_chemical_formula_sum "Si O2"
_cell_formula_units_Z 72
_cell_length_a 14.508403
_cell_length_b 16.641017
_cell_length_c 15.206976
_cell_angle_alpha 90.000000
_cell_angle_beta 90.000000
_cell_angle_gamma 90.000000
_cell_volume 3671.489878
_symmetry_space_group_name_H-M "I M M M"
_symmetry_group_IT_number 71
_symmetry_cell_setting 'orthorhombic'
loop_
_space_group_symop_operation_xyz
x,y,z
-x,-y,z
x,-y,-z
-x,y,-z
-x,-y,-z
x,y,-z
-x,y,z
x,-y,z
1/2+x,1/2+y,1/2+z
1/2-x,1/2-y,1/2+z
1/2+x,1/2-y,1/2-z
1/2-x,1/2+y,1/2-z
1/2-x,1/2-y,1/2-z
1/2+x,1/2+y,1/2-z
1/2-x,1/2+y,1/2+z
1/2+x,1/2-y,1/2+z
loop_
_atom_site_type_symbol
_atom_site_label
_atom_site_fract_x
_atom_site_fract_y
_atom_site_fract_z
Si Si1 0.223252 0.905493 0.263085
Si Si2 0.894513 0.822157 0.599701
Si Si3 0.396133 0.595388 0.598075
Si Si4 0.894975 0.656447 0.700516
Si Si5 0.891967 0.500000 0.594569
O O1 0.162301 0.889548 0.348933
O O2 0.170204 0.872527 0.175583
O O3 0.317460 0.852001 0.276486
O O4 0.244776 0.000000 0.257767
O O5 0.858273 0.816316 0.500000
O O6 0.883254 0.735828 0.644368
O O7 0.000000 0.849820 0.601668
O O8 0.364738 0.624374 0.500000
O O9 0.500000 0.627297 0.616874
O O10 0.396451 0.500000 0.601347
O O11 0.861873 0.580942 0.642038
O O12 0.000000 0.646961 0.736145
O O13 0.841973 0.500000 0.500000
O O14 0.000000 0.500000 0.582030
#
# Coordination Sequence:
#
# PCOD8291053 Si02
#       5
#    16  16  16  16   8
#     4  11  21  34  55  84 112 148 192 234 283 338
#     4  10  22  39  58  81 113 153 194 238 284 331
#     4   8  15  28  45  69 103 139 175 220 274 330
#     4  10  20  36  55  80 113 146 183 230 285 341
#     4   9  16  28  50  78 106 137 174 220 276 335
#
# _framework density 19.610567
#
# number of rings (size 3 to 8) (size 9 to 14) (size 15 to 20)
#    0.000    2.333    1.111    2.667    0.000    6.222 
#    0.000    1.111    0.000    0.667    0.000    1.556 
#    0.000    0.000    0.000    0.000    0.000    0.000 
#
# Total GULP energy -446139.056746 kJ/mol
# GULP energy per Si atom -12392.751576 kJ/mol
# Density = 1.956593 g / cm^3
# Si number density = 19.610567 Si / 1000 Ang^3
#
#
#
# Elastic Constant Matrix: (Units=GPa)
#
#
# Indices 1 2 3 4 5 6 
#
# 1 117.5071 29.9468 57.4635 0.0000 0.0000 0.0000
# 2 29.9468 36.2623 24.9617 0.0000 0.0000 0.0000
# 3 57.4635 24.9617 83.6816 0.0000 0.0000 0.0000
# 4 0.0000 0.0000 0.0000 12.0355 0.0000 0.0000
# 5 0.0000 0.0000 0.0000 0.0000 19.9786 0.0000
# 6 0.0000 0.0000 0.0000 0.0000 0.0000 27.8785
#
#
#
# Elastic Compliance Matrix: (Units=1/GPa)
#
#
# Indices 1 2 3 4 5 6 
#
# 1 0.013820 -0.006142 -0.007658 0.000000 0.000000 0.000000
# 2 -0.006142 0.037432 -0.006948 0.000000 0.000000 0.000000
# 3 -0.007658 -0.006948 0.019282 0.000000 0.000000 0.000000
# 4 0.000000 0.000000 0.000000 0.083088 0.000000 0.000000
# 5 0.000000 0.000000 0.000000 0.000000 0.050054 0.000000
# 6 0.000000 0.000000 0.000000 0.000000 0.000000 0.035870
#
#
# Mechanical properties :
#
#
# Convention : Reuss Voigt Hill
#
# Bulk Modulus (GPa) = 34.43845 51.35499 42.89672
# Shear Modulus (GPa) = 17.19865 20.31712 18.75788
#
# Velocity S-wave (km/s) = 2.96465 3.22223 3.09612
# Velocity P-wave (km/s) = 5.41462 6.33151 5.89093
#
# Compressibility (1/GPa) = 0.02903731
#
# Stress axis : x y z
#
# Youngs Moduli (GPa) = 72.35653 26.71527 51.86285
#
# Poissons Ratio (x) = 0.16408 0.39719
# Poissons Ratio (y) = 0.44439 0.36035
# Poissons Ratio (z) = 0.55413 0.18562
#
# Static dielectric constant tensor:
#      x y z
#    x 3.835860 0.000000 0.000000 
#    y 0.000000 3.305270 0.000000 
#    z 0.000000 0.000000 3.635430 
# 
# 
# High freq. dielectric constant tensor:
#      x y z
#    x 1.778490 0.000000 0.000000 
#    y 0.000000 1.741740 0.000000 
#    z 0.000000 0.000000 1.738980 
# 
# From -- ./inp_files/34054.got.cif
#   From: 2010.06.25/outbox.cif.g09.slc.cpg/sg71_18_cif.got.tgz:34054.got - 2010.06.28 04:59:45.
