data_PCOD8291085
_publ_section_title
;
Structure prediction by ZEFSAII (Michael W. Deem and Ramdas Pophale) SiO2 
 PCOD8291085
Probable space group: I M M M
;
_chemical_formula_sum "Si O2"
_cell_formula_units_Z 80
_cell_length_a 18.519809
_cell_length_b 8.782894
_cell_length_c 27.282265
_cell_angle_alpha 90.000000
_cell_angle_beta 90.000000
_cell_angle_gamma 90.000000
_cell_volume 4437.665547
_symmetry_space_group_name_H-M "I M M M"
_symmetry_group_IT_number 71
_symmetry_cell_setting 'orthorhombic'
loop_
_space_group_symop_operation_xyz
x,y,z
-x,-y,z
x,-y,-z
-x,y,-z
-x,-y,-z
x,y,-z
-x,y,z
x,-y,z
1/2+x,1/2+y,1/2+z
1/2-x,1/2-y,1/2+z
1/2+x,1/2-y,1/2-z
1/2-x,1/2+y,1/2-z
1/2-x,1/2-y,1/2-z
1/2+x,1/2+y,1/2-z
1/2-x,1/2+y,1/2+z
1/2+x,1/2-y,1/2+z
loop_
_atom_site_type_symbol
_atom_site_label
_atom_site_fract_x
_atom_site_fract_y
_atom_site_fract_z
Si Si1 0.290045 0.677374 0.892629
Si Si2 0.417492 0.174350 0.943598
Si Si3 0.079265 0.179898 0.850614
Si Si4 0.277720 0.680089 0.299926
Si Si5 0.837378 0.822792 0.944983
O O1 0.282175 0.500000 0.881726
O O2 0.370682 0.714688 0.909878
O O3 0.275377 0.768980 0.842945
O O4 0.235095 0.727725 0.935315
O O5 0.500000 0.195243 0.927191
O O6 0.392854 0.000000 0.936144
O O7 0.407834 0.221783 0.000000
O O8 0.140507 0.238117 0.812532
O O9 0.101241 0.226617 0.906144
O O10 0.000000 0.251203 0.838790
O O11 0.074169 0.000000 0.846877
O O12 0.276058 0.500000 0.295635
O O13 0.250000 0.750000 0.250000
O O14 0.817924 0.000000 0.938069
O O15 0.865281 0.788872 0.000000
#
# Coordination Sequence:
#
# PCOD8291085 Si02
#       5
#    16  16  16  16  16
#     4  11  21  32  49  73 101 133 169 209 249 296
#     4   9  18  33  52  73 100 135 171 209 257 307
#     4   8  15  29  50  76 102 127 160 204 249 290
#     4  10  20  36  57  77  98 127 164 208 257 307
#     4   9  17  29  47  72 102 136 170 203 242 290
#
# _framework density 18.027497
#
# number of rings (size 3 to 8) (size 9 to 14) (size 15 to 20)
#    0.000    2.600    0.000    4.800    0.000    4.000 
#    0.000    4.000    0.000   18.600    0.000    5.600 
#    0.000    0.000    0.000    0.000    0.000    0.000 
#
# Total GULP energy -495891.607316 kJ/mol
# GULP energy per Si atom -12397.290183 kJ/mol
# Density = 1.798647 g / cm^3
# Si number density = 18.027497 Si / 1000 Ang^3
#
#
#
# Elastic Constant Matrix: (Units=GPa)
#
#
# Indices 1 2 3 4 5 6 
#
# 1 130.0163 31.7990 68.4760 0.0000 0.0000 0.0000
# 2 31.7990 59.9768 31.4647 0.0000 0.0000 0.0000
# 3 68.4760 31.4647 124.1820 0.0000 0.0000 0.0000
# 4 0.0000 0.0000 0.0000 27.8836 0.0000 0.0000
# 5 0.0000 0.0000 0.0000 0.0000 19.7859 0.0000
# 6 0.0000 0.0000 0.0000 0.0000 0.0000 15.4910
#
#
#
# Elastic Compliance Matrix: (Units=1/GPa)
#
#
# Indices 1 2 3 4 5 6 
#
# 1 0.011332 -0.003149 -0.005451 0.000000 0.000000 0.000000
# 2 -0.003149 0.020104 -0.003358 0.000000 0.000000 0.000000
# 3 -0.005451 -0.003358 0.011909 0.000000 0.000000 0.000000
# 4 0.000000 0.000000 0.000000 0.035863 0.000000 0.000000
# 5 0.000000 0.000000 0.000000 0.000000 0.050541 0.000000
# 6 0.000000 0.000000 0.000000 0.000000 0.000000 0.064554
#
#
# Mechanical properties :
#
#
# Convention : Reuss Voigt Hill
#
# Bulk Modulus (GPa) = 51.46440 64.18385 57.82412
# Shear Modulus (GPa) = 22.25237 24.79446 23.52341
#
# Velocity S-wave (km/s) = 3.51715 3.71262 3.61621
# Velocity P-wave (km/s) = 6.71592 7.35246 7.04138
#
# Compressibility (1/GPa) = 0.01943091
#
# Stress axis : x y z
#
# Youngs Moduli (GPa) = 88.24300 49.74150 83.96820
#
# Poissons Ratio (x) = 0.15661 0.45772
# Poissons Ratio (y) = 0.27784 0.28194
# Poissons Ratio (z) = 0.48102 0.16702
#
# Static dielectric constant tensor:
#      x y z
#    x 3.578470 0.000000 0.000000 
#    y 0.000000 3.131360 0.000000 
#    z 0.000000 0.000000 3.285970 
# 
# 
# High freq. dielectric constant tensor:
#      x y z
#    x 1.698190 0.000000 0.000000 
#    y 0.000000 1.676800 0.000000 
#    z 0.000000 0.000000 1.687760 
# 
# From -- ./inp_files/8338.got.cif
#   From: 2010.06.25/outbox.cif.g09.slc.cpg/sg71_5_cif.got.tgz:8338.got - 2010.06.28 04:59:45.
