data_PCOD8291286
_publ_section_title
;
Structure prediction by ZEFSAII (Michael W. Deem and Ramdas Pophale) SiO2 
 PCOD8291286
Probable space group: I M M M
;
_chemical_formula_sum "Si O2"
_cell_formula_units_Z 80
_cell_length_a 15.238178
_cell_length_b 11.436197
_cell_length_c 23.018576
_cell_angle_alpha 90.000000
_cell_angle_beta 90.000000
_cell_angle_gamma 90.000000
_cell_volume 4011.373707
_symmetry_space_group_name_H-M "I M M M"
_symmetry_group_IT_number 71
_symmetry_cell_setting 'orthorhombic'
loop_
_space_group_symop_operation_xyz
x,y,z
-x,-y,z
x,-y,-z
-x,y,-z
-x,-y,-z
x,y,-z
-x,y,z
x,-y,z
1/2+x,1/2+y,1/2+z
1/2-x,1/2-y,1/2+z
1/2+x,1/2-y,1/2-z
1/2-x,1/2+y,1/2-z
1/2-x,1/2-y,1/2-z
1/2+x,1/2+y,1/2-z
1/2-x,1/2+y,1/2+z
1/2+x,1/2-y,1/2+z
loop_
_atom_site_type_symbol
_atom_site_label
_atom_site_fract_x
_atom_site_fract_y
_atom_site_fract_z
Si Si1 0.097948 0.136627 0.878835
Si Si2 0.598934 0.637101 0.853842
Si Si3 0.753856 0.228630 0.436035
Si Si4 0.643217 0.000000 0.562371
Si Si5 0.149001 0.252105 0.762439
Si Si6 0.595463 0.000000 0.308022
O O1 0.178735 0.180754 0.917214
O O2 0.117643 0.166198 0.812558
O O3 0.000000 0.187945 0.895829
O O4 0.094214 0.000000 0.887236
O O5 0.500000 0.639541 0.879264
O O6 0.629547 0.500000 0.847618
O O7 0.662235 0.715253 0.894333
O O8 0.596244 0.706326 0.793079
O O9 0.787666 0.265589 0.500000
O O10 0.708081 0.106199 0.437037
O O11 0.586920 0.000000 0.621349
O O12 0.589474 0.000000 0.500000
O O13 0.250000 0.250000 0.750000
O O14 0.139382 0.385376 0.782537
O O15 0.500000 0.000000 0.281470
#
# Coordination Sequence:
#
# PCOD8291286 Si02
#       6
#    16  16  16   8  16   8
#     4  11  24  42  65  93 125 163 210 261 315 379
#     4  11  23  41  66  95 128 166 209 258 314 376
#     4  11  23  41  65  92 126 164 209 259 311 371
#     4  10  20  37  61  88 124 166 204 245 305 373
#     4  12  24  38  64  92 128 165 207 254 319 380
#     4  12  24  39  60  93 128 160 207 263 312 372
#
# _framework density 19.943293000000001
#
# number of rings (size 3 to 8) (size 9 to 14) (size 15 to 20)
#    0.000    0.800    5.000    2.400    2.800    3.000 
#    0.000    4.000    0.000    0.000    0.000    1.400 
#    0.000    0.000    0.000    0.000    0.000    0.000 
#
# Total GULP energy -495526.104112 kJ/mol
# GULP energy per Si atom -12388.152603 kJ/mol
# Density = 1.989790 g / cm^3
# Si number density = 19.943293 Si / 1000 Ang^3
#
#
#
# Elastic Constant Matrix: (Units=GPa)
#
#
# Indices 1 2 3 4 5 6 
#
# 1 124.3865 44.3889 41.4030 0.0000 0.0000 0.0000
# 2 44.3889 86.9310 47.4686 0.0000 0.0000 0.0000
# 3 41.4030 47.4686 136.1040 0.0000 0.0000 0.0000
# 4 0.0000 0.0000 0.0000 24.1952 0.0000 0.0000
# 5 0.0000 0.0000 0.0000 0.0000 -7.3511 0.0000
# 6 0.0000 0.0000 0.0000 0.0000 0.0000 35.6203
#
#
#
# Elastic Compliance Matrix: (Units=1/GPa)
#
#
# Indices 1 2 3 4 5 6 
#
# 1 0.010096 -0.004297 -0.001573 0.000000 0.000000 0.000000
# 2 -0.004297 0.016038 -0.004286 0.000000 0.000000 0.000000
# 3 -0.001573 -0.004286 0.009321 0.000000 0.000000 0.000000
# 4 0.000000 0.000000 0.000000 0.041331 0.000000 0.000000
# 5 0.000000 0.000000 0.000000 0.000000 -0.136034 0.000000
# 6 0.000000 0.000000 0.000000 0.000000 0.000000 0.028074
#
#
# Mechanical properties :
#
#
# Convention : Reuss Voigt Hill
#
# Bulk Modulus (GPa) = 66.03594 68.21584 67.12589
# Shear Modulus (GPa) = -859.85079 24.77025 -417.54027
#
# Velocity S-wave (km/s) = -20.78663 3.52807 -14.48511
# Velocity P-wave (km/s) = 23.30082 7.13271 15.68522
#
# Compressibility (1/GPa) = 0.01514327
#
# Stress axis : x y z
#
# Youngs Moduli (GPa) = 99.04658 62.35217 107.28739
#
# Poissons Ratio (x) = 0.26790 0.16874
# Poissons Ratio (y) = 0.42556 0.45989
# Poissons Ratio (z) = 0.15578 0.26727
#
# Static dielectric constant tensor:
#      x y z
#    x 3.826760 0.000000 0.000000 
#    y 0.000000 3.592590 0.000000 
#    z 0.000000 0.000000 4.245880 
# 
# 
# High freq. dielectric constant tensor:
#      x y z
#    x 1.787920 0.000000 0.000000 
#    y 0.000000 1.778540 0.000000 
#    z 0.000000 0.000000 1.779710 
# 
# From -- ./inp_files/59637.got.cif
#   From: 2010.06.25/outbox.cif.g09.slc.cpg/sg71_30_cif.got.tgz:59637.got - 2010.06.28 04:59:45.
