data_PCOD8291123
_publ_section_title
;
Structure prediction by ZEFSAII (Michael W. Deem and Ramdas Pophale) SiO2 
 PCOD8291123
Probable space group: I M M M
;
_chemical_formula_sum "Si O2"
_cell_formula_units_Z 72
_cell_length_a 9.103227
_cell_length_b 15.393040
_cell_length_c 26.598948
_cell_angle_alpha 90.000000
_cell_angle_beta 90.000000
_cell_angle_gamma 90.000000
_cell_volume 3727.213160
_symmetry_space_group_name_H-M "I M M M"
_symmetry_group_IT_number 71
_symmetry_cell_setting 'orthorhombic'
loop_
_space_group_symop_operation_xyz
x,y,z
-x,-y,z
x,-y,-z
-x,y,-z
-x,-y,-z
x,y,-z
-x,y,z
x,-y,z
1/2+x,1/2+y,1/2+z
1/2-x,1/2-y,1/2+z
1/2+x,1/2-y,1/2-z
1/2-x,1/2+y,1/2-z
1/2-x,1/2-y,1/2-z
1/2+x,1/2+y,1/2-z
1/2-x,1/2+y,1/2+z
1/2+x,1/2-y,1/2+z
loop_
_atom_site_type_symbol
_atom_site_label
_atom_site_fract_x
_atom_site_fract_y
_atom_site_fract_z
Si Si1 0.327258 0.500000 0.058267
Si Si2 0.168146 0.834192 0.942093
Si Si3 0.827118 0.333142 0.772196
Si Si4 0.825573 0.500000 0.712874
Si Si5 0.328125 0.841872 0.611776
Si Si6 0.825775 0.500000 0.401005
O O1 0.500000 0.500000 0.066962
O O2 0.261742 0.585696 0.082888
O O3 0.284765 0.500000 0.000000
O O4 0.217863 0.752250 0.909007
O O5 0.269812 0.915180 0.929343
O O6 0.000000 0.859743 0.930515
O O7 0.189179 0.808512 0.000000
O O8 0.750000 0.250000 0.750000
O O9 0.765753 0.415464 0.741528
O O10 0.784658 0.346091 0.830037
O O11 0.000000 0.321524 0.765502
O O12 0.765909 0.500000 0.656042
O O13 0.000000 0.500000 0.714125
O O14 0.500000 0.859633 0.603165
O O15 0.000000 0.500000 0.402557
#
# Coordination Sequence:
#
# PCOD8291123 Si02
#       6
#     8  16  16   8  16   8
#     4  11  24  39  57  85 118 149 184 233 291 343
#     4  10  21  37  56  79 108 141 179 226 275 320
#     4  10  20  36  58  83 111 144 183 226 273 326
#     4   9  19  35  53  76 110 145 172 210 267 321
#     4  10  21  38  61  85 110 147 191 230 274 336
#     4  11  22  35  54  79 108 145 184 221 268 325
#
# _framework density 19.317381000000001
#
# number of rings (size 3 to 8) (size 9 to 14) (size 15 to 20)
#    0.000    1.889    0.000    3.667    0.000    7.111 
#    0.000    1.667    0.000    0.000    0.000    0.000 
#    0.000    0.000    0.000    0.000    0.000    0.000 
#
# Total GULP energy -446582.848965 kJ/mol
# GULP energy per Si atom -12405.079138 kJ/mol
# Density = 1.927341 g / cm^3
# Si number density = 19.317381 Si / 1000 Ang^3
#
#
#
# Elastic Constant Matrix: (Units=GPa)
#
#
# Indices 1 2 3 4 5 6 
#
# 1 56.9209 46.0686 39.8375 0.0000 0.0000 0.0000
# 2 46.0686 132.4121 42.8879 0.0000 0.0000 0.0000
# 3 39.8375 42.8879 101.5806 0.0000 0.0000 0.0000
# 4 0.0000 0.0000 0.0000 43.9663 0.0000 0.0000
# 5 0.0000 0.0000 0.0000 0.0000 27.4364 0.0000
# 6 0.0000 0.0000 0.0000 0.0000 0.0000 19.7417
#
#
#
# Elastic Compliance Matrix: (Units=1/GPa)
#
#
# Indices 1 2 3 4 5 6 
#
# 1 0.029574 -0.007568 -0.008403 0.000000 0.000000 0.000000
# 2 -0.007568 0.010685 -0.001543 0.000000 0.000000 0.000000
# 3 -0.008403 -0.001543 0.013792 0.000000 0.000000 0.000000
# 4 0.000000 0.000000 0.000000 0.022745 0.000000 0.000000
# 5 0.000000 0.000000 0.000000 0.000000 0.036448 0.000000
# 6 0.000000 0.000000 0.000000 0.000000 0.000000 0.050654
#
#
# Mechanical properties :
#
#
# Convention : Reuss Voigt Hill
#
# Bulk Modulus (GPa) = 52.56994 60.94462 56.75728
# Shear Modulus (GPa) = 24.35851 29.03685 26.69768
#
# Velocity S-wave (km/s) = 3.55486 3.88125 3.72163
# Velocity P-wave (km/s) = 6.64246 7.19048 6.92190
#
# Compressibility (1/GPa) = 0.01902228
#
# Stress axis : x y z
#
# Youngs Moduli (GPa) = 33.81320 93.58909 72.50798
#
# Poissons Ratio (x) = 0.70825 0.60930
# Poissons Ratio (y) = 0.25589 0.11191
# Poissons Ratio (z) = 0.28414 0.14445
#
# Static dielectric constant tensor:
#      x y z
#    x 3.355940 0.000000 0.000000 
#    y 0.000000 3.611800 0.000000 
#    z 0.000000 0.000000 3.633200 
# 
# 
# High freq. dielectric constant tensor:
#      x y z
#    x 1.734110 0.000000 0.000000 
#    y 0.000000 1.767830 0.000000 
#    z 0.000000 0.000000 1.771920 
# 
# From -- ./inp_files/6116.got.cif
#   From: 2010.06.25/outbox.cif.g09.slc.cpg/sg71_4_cif.got.tgz:6116.got - 2010.06.28 04:59:45.
