data_PCOD8291897
_publ_section_title
;
Structure prediction by ZEFSAII (Michael W. Deem and Ramdas Pophale) SiO2 
 PCOD8291897
Probable space group: I M M M
;
_chemical_formula_sum "Si O2"
_cell_formula_units_Z 64
_cell_length_a 20.483060
_cell_length_b 17.770683
_cell_length_c 9.024146
_cell_angle_alpha 90.000000
_cell_angle_beta 90.000000
_cell_angle_gamma 90.000000
_cell_volume 3284.770790
_symmetry_space_group_name_H-M "I M M M"
_symmetry_group_IT_number 71
_symmetry_cell_setting 'orthorhombic'
loop_
_space_group_symop_operation_xyz
x,y,z
-x,-y,z
x,-y,-z
-x,y,-z
-x,-y,-z
x,y,-z
-x,y,z
x,-y,z
1/2+x,1/2+y,1/2+z
1/2-x,1/2-y,1/2+z
1/2+x,1/2-y,1/2-z
1/2-x,1/2+y,1/2-z
1/2-x,1/2-y,1/2-z
1/2+x,1/2+y,1/2-z
1/2-x,1/2+y,1/2+z
1/2+x,1/2-y,1/2+z
loop_
_atom_site_type_symbol
_atom_site_label
_atom_site_fract_x
_atom_site_fract_y
_atom_site_fract_z
Si Si1 0.880591 0.087605 0.671808
Si Si2 0.368705 0.912524 0.170748
Si Si3 0.000000 0.325140 0.671035
Si Si4 0.247748 0.330119 0.173830
Si Si5 0.500000 0.666911 0.325006
O O1 0.896885 0.101830 0.500000
O O2 0.812188 0.124082 0.717365
O O3 0.936216 0.124710 0.769004
O O4 0.876744 0.000000 0.709100
O O5 0.437225 0.874554 0.209592
O O6 0.314054 0.877105 0.273775
O O7 0.375162 0.000000 0.207588
O O8 0.349681 0.898734 0.000000
O O9 0.000000 0.252192 0.771965
O O10 0.000000 0.299769 0.500000
O O11 0.250000 0.250000 0.250000
O O12 0.242507 0.317419 0.000000
O O13 0.500000 0.665585 0.500000
#
# Coordination Sequence:
#
# PCOD8291897 Si02
#       5
#    16  16   8  16   8
#     4  10  22  41  62  82 110 152 195 232 279 344
#     4  10  21  38  61  88 117 151 193 240 287 337
#     4  10  21  39  61  84 115 157 197 230 276 344
#     4  11  23  39  60  87 118 153 194 238 286 342
#     4  12  25  38  57  88 119 146 185 240 292 336
#
# _framework density 19.483854999999998
#
# number of rings (size 3 to 8) (size 9 to 14) (size 15 to 20)
#    0.000    1.500    0.000    4.875    0.000   14.000 
#    0.000    0.000    0.000    2.250    0.000    0.000 
#    0.000    0.000    0.000    0.000    0.000    0.000 
#
# Total GULP energy -396995.940181 kJ/mol
# GULP energy per Si atom -12406.123131 kJ/mol
# Density = 1.943951 g / cm^3
# Si number density = 19.483855 Si / 1000 Ang^3
#
#
#
# Elastic Constant Matrix: (Units=GPa)
#
#
# Indices 1 2 3 4 5 6 
#
# 1 183.0068 92.2077 87.6151 0.0000 0.0000 0.0000
# 2 92.2077 173.5321 76.8597 0.0000 0.0000 0.0000
# 3 87.6151 76.8597 97.2160 0.0000 0.0000 0.0000
# 4 0.0000 0.0000 0.0000 31.7124 0.0000 0.0000
# 5 0.0000 0.0000 0.0000 0.0000 36.6173 0.0000
# 6 0.0000 0.0000 0.0000 0.0000 0.0000 45.3590
#
#
#
# Elastic Compliance Matrix: (Units=1/GPa)
#
#
# Indices 1 2 3 4 5 6 
#
# 1 0.010063 -0.002047 -0.007450 0.000000 0.000000 0.000000
# 2 -0.002047 0.009284 -0.005495 0.000000 0.000000 0.000000
# 3 -0.007450 -0.005495 0.021346 0.000000 0.000000 0.000000
# 4 0.000000 0.000000 0.000000 0.031533 0.000000 0.000000
# 5 0.000000 0.000000 0.000000 0.000000 0.027309 0.000000
# 6 0.000000 0.000000 0.000000 0.000000 0.000000 0.022046
#
#
# Mechanical properties :
#
#
# Convention : Reuss Voigt Hill
#
# Bulk Modulus (GPa) = 93.39748 107.45776 100.42762
# Shear Modulus (GPa) = 32.22966 35.87590 34.05278
#
# Velocity S-wave (km/s) = 4.07156 4.29571 4.18514
# Velocity P-wave (km/s) = 8.37517 8.93734 8.66082
#
# Compressibility (1/GPa) = 0.01070693
#
# Stress axis : x y z
#
# Youngs Moduli (GPa) = 99.37835 107.70903 46.84758
#
# Poissons Ratio (x) = 0.22047 0.34904
# Poissons Ratio (y) = 0.20342 0.25745
# Poissons Ratio (z) = 0.74042 0.59191
#
# Static dielectric constant tensor:
#      x y z
#    x 1.696340 0.000000 0.000000 
#    y 0.000000 3.787000 0.000000 
#    z 0.000000 0.000000 3.531420 
# 
# 
# High freq. dielectric constant tensor:
#      x y z
#    x 1.778100 0.000000 0.000000 
#    y 0.000000 1.780770 0.000000 
#    z 0.000000 0.000000 1.754780 
# 
# From -- ./inp_files/9534.got.cif
#   From: 2010.06.25/outbox.cif.g09.slc.cpg/sg71_5_cif.got.tgz:9534.got - 2010.06.28 04:59:45.
