data_PCOD8291861
_publ_section_title
;
Structure prediction by ZEFSAII (Michael W. Deem and Ramdas Pophale) SiO2 
 PCOD8291861
Probable space group: I M M M
;
_chemical_formula_sum "Si O2"
_cell_formula_units_Z 104
_cell_length_a 27.907370
_cell_length_b 21.085860
_cell_length_c 8.772525
_cell_angle_alpha 90.000000
_cell_angle_beta 90.000000
_cell_angle_gamma 90.000000
_cell_volume 5162.200203
_symmetry_space_group_name_H-M "I M M M"
_symmetry_group_IT_number 71
_symmetry_cell_setting 'orthorhombic'
loop_
_space_group_symop_operation_xyz
x,y,z
-x,-y,z
x,-y,-z
-x,y,-z
-x,-y,-z
x,y,-z
-x,y,z
x,-y,z
1/2+x,1/2+y,1/2+z
1/2-x,1/2-y,1/2+z
1/2+x,1/2-y,1/2-z
1/2-x,1/2+y,1/2-z
1/2-x,1/2-y,1/2-z
1/2+x,1/2+y,1/2-z
1/2-x,1/2+y,1/2+z
1/2+x,1/2-y,1/2+z
loop_
_atom_site_type_symbol
_atom_site_label
_atom_site_fract_x
_atom_site_fract_y
_atom_site_fract_z
Si Si1 0.051886 0.679921 0.822937
Si Si2 0.618938 0.071657 0.323896
Si Si3 0.124369 0.101698 0.675351
Si Si4 0.697332 0.156497 0.177656
Si Si5 0.138726 0.762451 0.181121
Si Si6 0.943765 0.000000 0.180371
Si Si7 0.230622 0.069715 0.326210
O O1 0.068738 0.607580 0.797819
O O2 0.091477 0.727004 0.753900
O O3 0.000000 0.689546 0.743155
O O4 0.046877 0.695340 0.000000
O O5 0.635313 0.077537 0.500000
O O6 0.659600 0.102286 0.220446
O O7 0.610826 0.000000 0.272527
O O8 0.110179 0.112989 0.500000
O O9 0.134933 0.167468 0.757411
O O10 0.081161 0.063180 0.753509
O O11 0.173531 0.063306 0.691056
O O12 0.685278 0.223602 0.259172
O O13 0.748887 0.127658 0.225534
O O14 0.697637 0.170187 0.000000
O O15 0.141308 0.762523 0.000000
O O16 0.000000 0.000000 0.225694
O O17 0.937323 0.000000 0.000000
O O18 0.244851 0.084611 0.500000
O O19 0.251344 0.000000 0.278833
#
# Coordination Sequence:
#
# PCOD8291861 Si02
#       7
#    16  16  16  16  16   8  16
#     4   8  15  29  50  76 105 139 185 237 284 336
#     4   9  17  30  49  74 107 147 189 237 293 348
#     4  11  23  42  66  93 121 153 193 244 303 356
#     4  11  22  35  54  83 115 154 200 244 288 345
#     4  10  21  38  59  84 117 157 195 241 299 361
#     4  11  25  45  69  97 129 165 205 247 294 359
#     4  10  21  39  61  85 117 156 194 239 297 360
#
# _framework density 20.146449
#
# number of rings (size 3 to 8) (size 9 to 14) (size 15 to 20)
#    0.000    2.077    0.769    3.923    0.000    5.846 
#    0.000    3.077    0.000   11.077    0.000    4.308 
#    0.000    0.000    0.000    0.000    0.000    0.000 
#
# Total GULP energy -644606.685149 kJ/mol
# GULP energy per Si atom -12396.282407 kJ/mol
# Density = 2.010060 g / cm^3
# Si number density = 20.146449 Si / 1000 Ang^3
#
#
#
# Elastic Constant Matrix: (Units=GPa)
#
#
# Indices 1 2 3 4 5 6 
#
# 1 93.7580 31.3984 36.8223 0.0000 0.0000 0.0000
# 2 31.3984 143.5743 50.2664 0.0000 0.0000 0.0000
# 3 36.8223 50.2664 105.2310 0.0000 0.0000 0.0000
# 4 0.0000 0.0000 0.0000 30.1469 0.0000 0.0000
# 5 0.0000 0.0000 0.0000 0.0000 19.5726 0.0000
# 6 0.0000 0.0000 0.0000 0.0000 0.0000 23.4536
#
#
#
# Elastic Compliance Matrix: (Units=1/GPa)
#
#
# Indices 1 2 3 4 5 6 
#
# 1 0.012614 -0.001457 -0.003718 0.000000 0.000000 0.000000
# 2 -0.001457 0.008532 -0.003566 0.000000 0.000000 0.000000
# 3 -0.003718 -0.003566 0.012507 0.000000 0.000000 0.000000
# 4 0.000000 0.000000 0.000000 0.033171 0.000000 0.000000
# 5 0.000000 0.000000 0.000000 0.000000 0.051092 0.000000
# 6 0.000000 0.000000 0.000000 0.000000 0.000000 0.042637
#
#
# Mechanical properties :
#
#
# Convention : Reuss Voigt Hill
#
# Bulk Modulus (GPa) = 61.83555 64.39306 63.11431
# Shear Modulus (GPa) = 27.25910 29.57301 28.41605
#
# Velocity S-wave (km/s) = 3.68237 3.83548 3.75970
# Velocity P-wave (km/s) = 6.98852 7.18654 7.08822
#
# Compressibility (1/GPa) = 0.01617193
#
# Stress axis : x y z
#
# Youngs Moduli (GPa) = 79.27820 117.20525 79.95420
#
# Poissons Ratio (x) = 0.17075 0.29726
# Poissons Ratio (y) = 0.11550 0.28510
# Poissons Ratio (z) = 0.29475 0.41793
#
# Static dielectric constant tensor:
#      x y z
#    x 3.877320 0.000000 0.000000 
#    y 0.000000 3.738500 0.000000 
#    z 0.000000 0.000000 3.451530 
# 
# 
# High freq. dielectric constant tensor:
#      x y z
#    x 1.785410 0.000000 0.000000 
#    y 0.000000 1.795880 0.000000 
#    z 0.000000 0.000000 1.765470 
# 
# From -- ./inp_files/15016.got.cif
#   From: 2010.06.25/outbox.cif.g09.slc.cpg/sg71_8_cif.got.tgz:15016.got - 2010.06.28 04:59:45.
