data_PCOD8291231
_publ_section_title
;
Structure prediction by ZEFSAII (Michael W. Deem and Ramdas Pophale) SiO2 
 PCOD8291231
Probable space group: I M M M
;
_chemical_formula_sum "Si O2"
_cell_formula_units_Z 88
_cell_length_a 18.673015
_cell_length_b 9.225404
_cell_length_c 27.427269
_cell_angle_alpha 90.000000
_cell_angle_beta 90.000000
_cell_angle_gamma 90.000000
_cell_volume 4724.788864
_symmetry_space_group_name_H-M "I M M M"
_symmetry_group_IT_number 71
_symmetry_cell_setting 'orthorhombic'
loop_
_space_group_symop_operation_xyz
x,y,z
-x,-y,z
x,-y,-z
-x,y,-z
-x,-y,-z
x,y,-z
-x,y,z
x,-y,z
1/2+x,1/2+y,1/2+z
1/2-x,1/2-y,1/2+z
1/2+x,1/2-y,1/2-z
1/2-x,1/2+y,1/2-z
1/2-x,1/2-y,1/2-z
1/2+x,1/2+y,1/2-z
1/2-x,1/2+y,1/2+z
1/2+x,1/2-y,1/2+z
loop_
_atom_site_type_symbol
_atom_site_label
_atom_site_fract_x
_atom_site_fract_y
_atom_site_fract_z
Si Si1 0.585139 0.163492 0.219204
Si Si2 0.583005 0.169788 0.500000
Si Si3 0.582587 0.331991 0.313555
Si Si4 0.815273 0.334033 0.556433
Si Si5 0.416142 0.668241 0.124305
Si Si6 0.342632 0.667299 0.586822
O O1 0.500000 0.166124 0.219272
O O2 0.613060 0.240542 0.268163
O O3 0.613406 0.249323 0.172049
O O4 0.615103 0.000000 0.217302
O O5 0.500000 0.209224 0.500000
O O6 0.617475 0.234722 0.548115
O O7 0.597299 0.000000 0.500000
O O8 0.500000 0.293846 0.324943
O O9 0.590828 0.500000 0.299986
O O10 0.629810 0.288496 0.359918
O O11 0.802809 0.296486 0.500000
O O12 0.839929 0.500000 0.563106
O O13 0.876666 0.230183 0.576946
O O14 0.741921 0.303894 0.585162
O O15 0.500000 0.695341 0.116567
O O16 0.398454 0.500000 0.130625
O O17 0.360279 0.500000 0.574912
#
# Coordination Sequence:
#
# PCOD8291231 Si02
#       6
#    16   8  16  16  16  16
#     4   9  17  31  53  80 110 142 175 218 272 323
#     4  11  23  35  51  79 112 145 186 235 277 314
#     4   9  17  30  52  81 110 142 181 224 267 314
#     4  10  21  38  58  80 108 142 181 226 276 327
#     4  10  21  37  58  83 109 138 177 223 270 329
#     4  10  20  37  57  78 107 147 190 226 269 325
#
# _framework density 18.625170000000001
#
# number of rings (size 3 to 8) (size 9 to 14) (size 15 to 20)
#    0.000    2.273    0.909    1.909    0.000    6.909 
#    0.000    4.545    0.000    0.000    0.000    0.000 
#    0.000    0.000    0.000    0.000    0.000    0.000 
#
# Total GULP energy -545759.195868 kJ/mol
# GULP energy per Si atom -12403.618088 kJ/mol
# Density = 1.858278 g / cm^3
# Si number density = 18.625170 Si / 1000 Ang^3
#
#
#
# Elastic Constant Matrix: (Units=GPa)
#
#
# Indices 1 2 3 4 5 6 
#
# 1 62.6931 48.2895 50.2645 0.0000 0.0000 0.0000
# 2 48.2895 100.1802 56.3296 0.0000 0.0000 0.0000
# 3 50.2645 56.3296 113.1882 0.0000 0.0000 0.0000
# 4 0.0000 0.0000 0.0000 43.4414 0.0000 0.0000
# 5 0.0000 0.0000 0.0000 0.0000 182.2899 0.0000
# 6 0.0000 0.0000 0.0000 0.0000 0.0000 24.2168
#
#
#
# Elastic Compliance Matrix: (Units=1/GPa)
#
#
# Indices 1 2 3 4 5 6 
#
# 1 0.030429 -0.009816 -0.008628 0.000000 0.000000 0.000000
# 2 -0.009816 0.017027 -0.004115 0.000000 0.000000 0.000000
# 3 -0.008628 -0.004115 0.014714 0.000000 0.000000 0.000000
# 4 0.000000 0.000000 0.000000 0.023019 0.000000 0.000000
# 5 0.000000 0.000000 0.000000 0.000000 0.005486 0.000000
# 6 0.000000 0.000000 0.000000 0.000000 0.000000 0.041294
#
#
# Mechanical properties :
#
#
# Convention : Reuss Voigt Hill
#
# Bulk Modulus (GPa) = 58.64085 65.09208 61.86647
# Shear Modulus (GPa) = 27.35662 58.06815 42.71239
#
# Velocity S-wave (km/s) = 3.83665 5.58972 4.79400
# Velocity P-wave (km/s) = 7.15399 8.75695 7.99574
#
# Compressibility (1/GPa) = 0.01705296
#
# Stress axis : x y z
#
# Youngs Moduli (GPa) = 32.86323 58.72896 67.96290
#
# Poissons Ratio (x) = 0.57651 0.58636
# Poissons Ratio (y) = 0.32260 0.27964
# Poissons Ratio (z) = 0.28353 0.24165
#
# Static dielectric constant tensor:
#      x y z
#    x 3.199330 0.000000 0.000000 
#    y 0.000000 3.476020 0.000000 
#    z 0.000000 0.000000 3.449900 
# 
# 
# High freq. dielectric constant tensor:
#      x y z
#    x 1.700780 0.000000 0.000000 
#    y 0.000000 1.725830 0.000000 
#    z 0.000000 0.000000 1.732430 
# 
# From -- ./inp_files/8881.got.cif
#   From: 2010.06.25/outbox.cif.g09.slc.cpg/sg71_5_cif.got.tgz:8881.got - 2010.06.28 04:59:45.
