data_PCOD8291136
_publ_section_title
;
Structure prediction by ZEFSAII (Michael W. Deem and Ramdas Pophale) SiO2 
 PCOD8291136
Probable space group: I M M M
;
_chemical_formula_sum "Si O2"
_cell_formula_units_Z 88
_cell_length_a 28.792210
_cell_length_b 11.767504
_cell_length_c 14.226054
_cell_angle_alpha 90.000000
_cell_angle_beta 90.000000
_cell_angle_gamma 90.000000
_cell_volume 4819.964158
_symmetry_space_group_name_H-M "I M M M"
_symmetry_group_IT_number 71
_symmetry_cell_setting 'orthorhombic'
loop_
_space_group_symop_operation_xyz
x,y,z
-x,-y,z
x,-y,-z
-x,y,-z
-x,-y,-z
x,y,-z
-x,y,z
x,-y,z
1/2+x,1/2+y,1/2+z
1/2-x,1/2-y,1/2+z
1/2+x,1/2-y,1/2-z
1/2-x,1/2+y,1/2-z
1/2-x,1/2-y,1/2-z
1/2+x,1/2+y,1/2-z
1/2-x,1/2+y,1/2+z
1/2+x,1/2-y,1/2+z
loop_
_atom_site_type_symbol
_atom_site_label
_atom_site_fract_x
_atom_site_fract_y
_atom_site_fract_z
Si Si1 0.945351 0.864669 0.500000
Si Si2 0.700053 0.132326 0.202659
Si Si3 0.895913 0.274916 0.658946
Si Si4 0.710715 0.269417 0.389758
Si Si5 0.554829 0.000000 0.891317
Si Si6 0.615596 0.368978 0.662478
Si Si7 0.449752 0.634034 0.500000
O O1 0.917454 0.813858 0.413287
O O2 0.000000 0.827864 0.500000
O O3 0.941099 0.000000 0.500000
O O4 0.658694 0.196552 0.146517
O O5 0.705869 0.167637 0.313059
O O6 0.745012 0.156857 0.140105
O O7 0.688910 0.000000 0.203124
O O8 0.925571 0.389615 0.660139
O O9 0.899585 0.212995 0.756214
O O10 0.714861 0.228086 0.500000
O O11 0.666768 0.351618 0.379329
O O12 0.500000 0.000000 0.882784
O O13 0.571008 0.000000 0.000000
O O14 0.610541 0.500000 0.692336
O O15 0.578146 0.326089 0.589322
O O16 0.454643 0.500000 0.500000
O O17 0.500000 0.693301 0.500000
#
# Coordination Sequence:
#
# PCOD8291136 Si02
#       7
#     8  16  16  16   8  16   8
#     4  11  24  41  60  85 119 158 197 245 308 367
#     4  10  22  38  58  88 121 155 199 242 296 356
#     4  11  22  38  59  86 116 154 195 244 293 352
#     4  10  21  37  61  87 118 156 197 245 295 356
#     4  11  22  38  60  83 113 155 201 244 288 349
#     4  10  20  36  58  85 117 151 191 241 296 347
#     4   9  18  32  53  81 111 145 187 234 285 342
#
# _framework density 18.257397999999998
#
# number of rings (size 3 to 8) (size 9 to 14) (size 15 to 20)
#    0.000    1.727    2.727    1.636    1.273    2.909 
#    0.000    2.727    0.000    0.545    0.000    1.273 
#    0.000    0.000    0.000    0.000    0.000    0.000 
#
# Total GULP energy -545250.301852 kJ/mol
# GULP energy per Si atom -12392.052315 kJ/mol
# Density = 1.821584 g / cm^3
# Si number density = 18.257398 Si / 1000 Ang^3
#
#
#
# Elastic Constant Matrix: (Units=GPa)
#
#
# Indices 1 2 3 4 5 6 
#
# 1 153.9745 55.6290 82.5330 0.0000 0.0000 0.0000
# 2 55.6290 106.6289 54.0952 0.0000 0.0000 0.0000
# 3 82.5330 54.0952 119.4174 0.0000 0.0000 0.0000
# 4 0.0000 0.0000 0.0000 10.8163 0.0000 0.0000
# 5 0.0000 0.0000 0.0000 0.0000 34.0140 0.0000
# 6 0.0000 0.0000 0.0000 0.0000 0.0000 30.8346
#
#
#
# Elastic Compliance Matrix: (Units=1/GPa)
#
#
# Indices 1 2 3 4 5 6 
#
# 1 0.010766 -0.002392 -0.006358 0.000000 0.000000 0.000000
# 2 -0.002392 0.012708 -0.004104 0.000000 0.000000 0.000000
# 3 -0.006358 -0.004104 0.014627 0.000000 0.000000 0.000000
# 4 0.000000 0.000000 0.000000 0.092453 0.000000 0.000000
# 5 0.000000 0.000000 0.000000 0.000000 0.029400 0.000000
# 6 0.000000 0.000000 0.000000 0.000000 0.000000 0.032431
#
#
# Mechanical properties :
#
#
# Convention : Reuss Voigt Hill
#
# Bulk Modulus (GPa) = 80.67500 84.94837 82.81168
# Shear Modulus (GPa) = 22.49997 27.65056 25.07526
#
# Velocity S-wave (km/s) = 3.51433 3.89586 3.71000
# Velocity P-wave (km/s) = 7.79428 8.17717 7.98802
#
# Compressibility (1/GPa) = 0.01239541
#
# Stress axis : x y z
#
# Youngs Moduli (GPa) = 92.88126 78.69114 68.36703
#
# Poissons Ratio (x) = 0.18819 0.43465
# Poissons Ratio (y) = 0.22213 0.28056
# Poissons Ratio (z) = 0.59051 0.32293
#
# Static dielectric constant tensor:
#      x y z
#    x 3.783550 0.000000 0.000000 
#    y 0.000000 3.284410 0.000000 
#    z 0.000000 0.000000 3.743710 
# 
# 
# High freq. dielectric constant tensor:
#      x y z
#    x 1.728070 0.000000 0.000000 
#    y 0.000000 1.699900 0.000000 
#    z 0.000000 0.000000 1.710240 
# 
# From -- ./inp_files/40195.got.cif
#   From: 2010.06.25/outbox.cif.g09.slc.cpg/sg71_21_cif.got.tgz:40195.got - 2010.06.28 04:59:45.
