data_PCOD8291984
_publ_section_title
;
Structure prediction by ZEFSAII (Michael W. Deem and Ramdas Pophale) SiO2 
 PCOD8291984
Probable space group: I M M M
;
_chemical_formula_sum "Si O2"
_cell_formula_units_Z 72
_cell_length_a 22.480687
_cell_length_b 8.714256
_cell_length_c 18.782335
_cell_angle_alpha 90.000000
_cell_angle_beta 90.000000
_cell_angle_gamma 90.000000
_cell_volume 3679.505661
_symmetry_space_group_name_H-M "I M M M"
_symmetry_group_IT_number 71
_symmetry_cell_setting 'orthorhombic'
loop_
_space_group_symop_operation_xyz
x,y,z
-x,-y,z
x,-y,-z
-x,y,-z
-x,-y,-z
x,y,-z
-x,y,z
x,-y,z
1/2+x,1/2+y,1/2+z
1/2-x,1/2-y,1/2+z
1/2+x,1/2-y,1/2-z
1/2-x,1/2+y,1/2-z
1/2-x,1/2-y,1/2-z
1/2+x,1/2+y,1/2-z
1/2-x,1/2+y,1/2+z
1/2+x,1/2-y,1/2+z
loop_
_atom_site_type_symbol
_atom_site_label
_atom_site_fract_x
_atom_site_fract_y
_atom_site_fract_z
Si Si1 0.667987 0.822328 0.917162
Si Si2 0.000000 0.324272 0.915932
Si Si3 0.768494 0.680395 0.175040
Si Si4 0.068988 0.178165 0.326783
Si Si5 0.894170 0.181155 0.168569
O O1 0.719854 0.720063 0.883929
O O2 0.604900 0.779420 0.882840
O O3 0.681891 0.000000 0.902641
O O4 0.664207 0.784364 0.000000
O O5 0.941531 0.241624 0.887451
O O6 0.000000 0.500000 0.890631
O O7 0.000000 0.309406 0.000000
O O8 0.773113 0.500000 0.184217
O O9 0.750000 0.750000 0.250000
O O10 0.831112 0.746030 0.148884
O O11 0.086498 0.230547 0.247598
O O12 0.000000 0.211143 0.339796
O O13 0.084575 0.000000 0.337987
O O14 0.889807 0.000000 0.161536
#
# Coordination Sequence:
#
# PCOD8291984 Si02
#       5
#    16   8  16  16  16
#     4  11  25  43  63  92 129 167 209 258 314 373
#     4  11  25  43  63  93 132 171 212 261 317 374
#     4  12  24  40  65  95 126 164 211 260 315 377
#     4  10  21  39  64  93 124 162 208 256 309 372
#     4  11  22  40  66  95 126 164 211 260 314 375
#
# _framework density 19.567844999999998
#
# number of rings (size 3 to 8) (size 9 to 14) (size 15 to 20)
#    0.000    1.000    3.333    3.667    0.000    5.333 
#    0.000    2.222    0.000    0.000    0.000    0.000 
#    0.000    0.000    0.000    0.000    0.000    0.000 
#
# Total GULP energy -446669.805466 kJ/mol
# GULP energy per Si atom -12407.494596 kJ/mol
# Density = 1.952331 g / cm^3
# Si number density = 19.567845 Si / 1000 Ang^3
#
#
#
# Elastic Constant Matrix: (Units=GPa)
#
#
# Indices 1 2 3 4 5 6 
#
# 1 146.4234 49.7253 51.8302 0.0000 0.0000 0.0000
# 2 49.7253 111.7496 56.3830 0.0000 0.0000 0.0000
# 3 51.8302 56.3830 107.0211 0.0000 0.0000 0.0000
# 4 0.0000 0.0000 0.0000 33.2002 0.0000 0.0000
# 5 0.0000 0.0000 0.0000 0.0000 44.1112 0.0000
# 6 0.0000 0.0000 0.0000 0.0000 0.0000 39.5499
#
#
#
# Elastic Compliance Matrix: (Units=1/GPa)
#
#
# Indices 1 2 3 4 5 6 
#
# 1 0.008681 -0.002372 -0.002954 0.000000 0.000000 0.000000
# 2 -0.002372 0.012837 -0.005614 0.000000 0.000000 0.000000
# 3 -0.002954 -0.005614 0.013732 0.000000 0.000000 0.000000
# 4 0.000000 0.000000 0.000000 0.030120 0.000000 0.000000
# 5 0.000000 0.000000 0.000000 0.000000 0.022670 0.000000
# 6 0.000000 0.000000 0.000000 0.000000 0.000000 0.025284
#
#
# Mechanical properties :
#
#
# Convention : Reuss Voigt Hill
#
# Bulk Modulus (GPa) = 74.80072 75.67459 75.23765
# Shear Modulus (GPa) = 35.80068 37.18932 36.49500
#
# Velocity S-wave (km/s) = 4.28198 4.36424 4.32331
# Velocity P-wave (km/s) = 7.92190 8.00951 7.96583
#
# Compressibility (1/GPa) = 0.01336886
#
# Stress axis : x y z
#
# Youngs Moduli (GPa) = 115.19596 77.90200 72.82000
#
# Poissons Ratio (x) = 0.18479 0.21514
# Poissons Ratio (y) = 0.27325 0.40882
# Poissons Ratio (z) = 0.34034 0.43735
#
# Static dielectric constant tensor:
#      x y z
#    x 3.688180 0.000000 0.000000 
#    y 0.000000 3.747470 0.000000 
#    z 0.000000 0.000000 3.563200 
# 
# 
# High freq. dielectric constant tensor:
#      x y z
#    x 1.780830 0.000000 0.000000 
#    y 0.000000 1.774340 0.000000 
#    z 0.000000 0.000000 1.759760 
# 
# From -- ./inp_files/7971.got.cif
#   From: 2010.06.25/outbox.cif.g09.slc.cpg/sg71_4_cif.got.tgz:7971.got - 2010.06.28 04:59:45.
