data_PCOD8291521
_publ_section_title
;
Structure prediction by ZEFSAII (Michael W. Deem and Ramdas Pophale) SiO2 
 PCOD8291521
Probable space group: I M M M
;
_chemical_formula_sum "Si O2"
_cell_formula_units_Z 72
_cell_length_a 15.297789
_cell_length_b 28.996215
_cell_length_c 8.861944
_cell_angle_alpha 90.000000
_cell_angle_beta 90.000000
_cell_angle_gamma 90.000000
_cell_volume 3930.963208
_symmetry_space_group_name_H-M "I M M M"
_symmetry_group_IT_number 71
_symmetry_cell_setting 'orthorhombic'
loop_
_space_group_symop_operation_xyz
x,y,z
-x,-y,z
x,-y,-z
-x,y,-z
-x,-y,-z
x,y,-z
-x,y,z
x,-y,z
1/2+x,1/2+y,1/2+z
1/2-x,1/2-y,1/2+z
1/2+x,1/2-y,1/2-z
1/2-x,1/2+y,1/2-z
1/2-x,1/2-y,1/2-z
1/2+x,1/2+y,1/2-z
1/2-x,1/2+y,1/2+z
1/2+x,1/2-y,1/2+z
loop_
_atom_site_type_symbol
_atom_site_label
_atom_site_fract_x
_atom_site_fract_y
_atom_site_fract_z
Si Si1 0.751788 0.636975 0.178344
Si Si2 0.601044 0.804488 0.825003
Si Si3 0.677922 0.947408 0.178100
Si Si4 0.500000 0.945444 0.331281
Si Si5 0.596288 0.299772 0.179216
O O1 0.840706 0.662437 0.223275
O O2 0.748326 0.585975 0.252158
O O3 0.668725 0.665183 0.243273
O O4 0.747044 0.631728 0.000000
O O5 0.500000 0.817627 0.799160
O O6 0.618710 0.752199 0.769756
O O7 0.626667 0.810721 0.000000
O O8 0.585419 0.929237 0.241433
O O9 0.697990 0.000000 0.227466
O O10 0.675565 0.942619 0.000000
O O11 0.500000 0.924182 0.500000
O O12 0.500000 0.000000 0.340293
O O13 0.500000 0.314073 0.240318
O O14 0.595306 0.300924 0.000000
#
# Coordination Sequence:
#
# PCOD8291521 Si02
#       5
#    16  16  16   8  16
#     4  11  21  31  51  79 104 131 168 218 261 297
#     4   9  18  33  52  73 103 141 173 202 244 305
#     4  10  21  36  52  70  98 137 174 205 246 306
#     4   9  17  31  51  73  97 125 161 207 251 289
#     4   8  16  33  54  75 100 133 172 212 258 306
#
# _framework density 18.316122
#
# number of rings (size 3 to 8) (size 9 to 14) (size 15 to 20)
#    0.000    2.556    0.000    3.667    1.556    3.111 
#    0.000    1.111    0.000    6.000    0.000    4.667 
#    0.000    0.000    0.000    0.000    0.000    0.000 
#
# Total GULP energy -446346.006627 kJ/mol
# GULP energy per Si atom -12398.500184 kJ/mol
# Density = 1.827443 g / cm^3
# Si number density = 18.316122 Si / 1000 Ang^3
#
#
#
# Elastic Constant Matrix: (Units=GPa)
#
#
# Indices 1 2 3 4 5 6 
#
# 1 79.2035 59.7481 24.7594 -0.0011 0.0005 0.0001
# 2 59.7481 112.3680 31.4163 0.0006 -0.0008 -0.0002
# 3 24.7594 31.4163 58.4476 0.0027 -0.0018 -0.0021
# 4 -0.0011 0.0006 0.0027 28.6304 -0.0016 -0.0009
# 5 0.0005 -0.0008 -0.0018 -0.0016 20.4457 0.0006
# 6 0.0001 -0.0002 -0.0021 -0.0009 0.0006 28.4152
#
#
#
# Elastic Compliance Matrix: (Units=1/GPa)
#
#
# Indices 1 2 3 4 5 6 
#
# 1 0.021679 -0.010544 -0.003516 0.000001 -0.000001 0.000000
# 2 -0.010544 0.015602 -0.003919 0.000000 0.000000 0.000000
# 3 -0.003516 -0.003919 0.020706 -0.000002 0.000002 0.000002
# 4 0.000001 0.000000 -0.000002 0.034928 0.000003 0.000001
# 5 -0.000001 0.000000 0.000002 0.000003 0.048910 -0.000001
# 6 0.000000 0.000000 0.000002 0.000001 -0.000001 0.035192
#
#
# Mechanical properties :
#
#
# Convention : Reuss Voigt Hill
#
# Bulk Modulus (GPa) = 45.39864 53.54076 49.46970
# Shear Modulus (GPa) = 22.69450 24.43792 23.56621
#
# Velocity S-wave (km/s) = 3.52383 3.65667 3.59086
# Velocity P-wave (km/s) = 6.43401 6.86464 6.65281
#
# Compressibility (1/GPa) = 0.02202709
#
# Stress axis : x y z
#
# Youngs Moduli (GPa) = 46.12794 64.09606 48.29626
#
# Poissons Ratio (x) = 0.67583 0.16981
# Poissons Ratio (y) = 0.48637 0.18929
# Poissons Ratio (z) = 0.16219 0.25122
#
# Static dielectric constant tensor:
#      x y z
#    x 3.569440 0.000000 0.000000 
#    y 0.000000 3.536820 0.000000 
#    z 0.000000 0.000000 3.179490 
# 
# 
# High freq. dielectric constant tensor:
#      x y z
#    x 1.690480 0.000000 0.000000 
#    y 0.000000 1.713060 0.000000 
#    z 0.000000 0.000000 1.695140 
# 
# From -- ./inp_files/6415.got.cif
#   From: 2010.06.25/outbox.cif.g09.slc.cpg/sg71_4_cif.got.tgz:6415.got - 2010.06.28 04:59:45.
