data_PCOD8291992
_publ_section_title
;
Structure prediction by ZEFSAII (Michael W. Deem and Ramdas Pophale) SiO2 
 PCOD8291992
Probable space group: I M M M
;
_chemical_formula_sum "Si O2"
_cell_formula_units_Z 90
_cell_length_a 9.299546
_cell_length_b 27.244721
_cell_length_c 19.198014
_cell_angle_alpha 90.000000
_cell_angle_beta 90.000000
_cell_angle_gamma 90.000000
_cell_volume 4864.076715
_symmetry_space_group_name_H-M "I M M M"
_symmetry_group_IT_number 71
_symmetry_cell_setting 'orthorhombic'
loop_
_space_group_symop_operation_xyz
x,y,z
-x,-y,z
x,-y,-z
-x,y,-z
-x,-y,-z
x,y,-z
-x,y,z
x,-y,z
1/2+x,1/2+y,1/2+z
1/2-x,1/2-y,1/2+z
1/2+x,1/2-y,1/2-z
1/2-x,1/2+y,1/2-z
1/2-x,1/2-y,1/2-z
1/2+x,1/2+y,1/2-z
1/2-x,1/2+y,1/2+z
1/2+x,1/2-y,1/2+z
loop_
_atom_site_type_symbol
_atom_site_label
_atom_site_fract_x
_atom_site_fract_y
_atom_site_fract_z
Si Si1 0.833799 0.688140 0.418501
Si Si2 0.832279 0.739883 0.178865
Si Si3 0.834665 0.404582 0.330355
Si Si4 0.654814 0.500000 0.361238
Si Si5 0.000000 0.000000 0.000000
Si Si6 0.336904 0.872489 0.323549
Si Si7 0.669591 0.444825 0.921529
O O1 0.801797 0.688839 0.500000
O O2 0.732032 0.727977 0.383171
O O3 0.794841 0.634069 0.390681
O O4 0.000000 0.700527 0.401313
O O5 0.750000 0.750000 0.250000
O O6 0.810688 0.683756 0.155924
O O7 0.000000 0.752360 0.189688
O O8 0.738998 0.452115 0.337940
O O9 0.799690 0.378450 0.257524
O O10 0.000000 0.420773 0.335582
O O11 0.500000 0.500000 0.321683
O O12 0.630697 0.500000 0.444133
O O13 0.500000 0.888369 0.338516
O O14 0.236198 0.906379 0.369116
O O15 0.500000 0.439616 0.917211
O O16 0.716623 0.500000 0.900417
O O17 0.722273 0.433438 0.000000
#
# Coordination Sequence:
#
# PCOD8291992 Si02
#       7
#    16  16  16   8   2  16  16
#     4  10  22  40  63  89 119 156 200 245 292 352
#     4  11  22  40  61  85 119 155 195 245 298 351
#     4  10  21  40  61  86 118 157 198 244 292 350
#     4  10  23  39  57  83 120 153 195 243 298 344
#     4   8  24  44  54  80 128 160 180 268 292 340
#     4  10  22  38  60  87 118 151 193 242 290 347
#     4   9  20  39  60  85 119 155 193 236 285 345
#
# _framework density 18.502998999999999
#
# number of rings (size 3 to 8) (size 9 to 14) (size 15 to 20)
#    0.267    1.778    1.778    1.333    2.489    4.622 
#    0.000    4.889    0.000    0.000    0.000    0.000 
#    0.000    0.000    0.000    0.000    0.000    0.000 
#
# Total GULP energy -557554.953971 kJ/mol
# GULP energy per Si atom -12390.110088 kJ/mol
# Density = 1.846089 g / cm^3
# Si number density = 18.502999 Si / 1000 Ang^3
#
#
#
# Elastic Constant Matrix: (Units=GPa)
#
#
# Indices 1 2 3 4 5 6 
#
# 1 97.4525 74.8920 54.8992 0.0000 0.0000 0.0000
# 2 74.8920 126.9320 55.6172 0.0000 0.0000 0.0000
# 3 54.8992 55.6172 94.6583 -0.0001 0.0000 0.0000
# 4 0.0000 0.0000 -0.0001 31.0642 0.0000 0.0000
# 5 0.0000 0.0000 0.0000 0.0000 36.1198 0.0000
# 6 0.0000 0.0000 0.0000 0.0000 0.0000 36.9430
#
#
#
# Elastic Compliance Matrix: (Units=1/GPa)
#
#
# Indices 1 2 3 4 5 6 
#
# 1 0.021586 -0.009764 -0.006782 0.000000 0.000000 0.000000
# 2 -0.009764 0.015027 -0.003166 0.000000 0.000000 0.000000
# 3 -0.006782 -0.003166 0.016358 0.000000 0.000000 0.000000
# 4 0.000000 0.000000 0.000000 0.032191 0.000000 0.000000
# 5 0.000000 0.000000 0.000000 0.000000 0.027686 0.000000
# 6 0.000000 0.000000 0.000000 0.000000 0.000000 0.027069
#
#
# Mechanical properties :
#
#
# Convention : Reuss Voigt Hill
#
# Bulk Modulus (GPa) = 73.82459 76.65107 75.23783
# Shear Modulus (GPa) = 27.19516 29.73437 28.46477
#
# Velocity S-wave (km/s) = 3.83792 4.01309 3.92648
# Velocity P-wave (km/s) = 7.72171 7.93659 7.82989
#
# Compressibility (1/GPa) = 0.01354562
#
# Stress axis : x y z
#
# Youngs Moduli (GPa) = 46.32635 66.54881 61.13249
#
# Poissons Ratio (x) = 0.64981 0.41461
# Poissons Ratio (y) = 0.45235 0.19354
# Poissons Ratio (z) = 0.31419 0.21069
#
# Static dielectric constant tensor:
#      x y z
#    x 3.440310 0.000000 0.000000 
#    y 0.000000 3.438090 0.000000 
#    z 0.000000 0.000000 3.459140 
# 
# 
# High freq. dielectric constant tensor:
#      x y z
#    x 1.721440 0.000000 0.000000 
#    y 0.000000 1.720250 0.000000 
#    z 0.000000 0.000000 1.724670 
# 
# From -- ./inp_files/50605.got.cif
#   From: 2010.06.25/outbox.cif.g09.slc.cpg/sg71_26_cif.got.tgz:50605.got - 2010.06.28 04:59:45.
