data_PCOD8291631
_publ_section_title
;
Structure prediction by ZEFSAII (Michael W. Deem and Ramdas Pophale) SiO2 
 PCOD8291631
Probable space group: I M M M
;
_chemical_formula_sum "Si O2"
_cell_formula_units_Z 88
_cell_length_a 8.219719
_cell_length_b 24.167482
_cell_length_c 23.672818
_cell_angle_alpha 90.000000
_cell_angle_beta 90.000000
_cell_angle_gamma 90.000000
_cell_volume 4702.603188
_symmetry_space_group_name_H-M "I M M M"
_symmetry_group_IT_number 71
_symmetry_cell_setting 'orthorhombic'
loop_
_space_group_symop_operation_xyz
x,y,z
-x,-y,z
x,-y,-z
-x,y,-z
-x,-y,-z
x,y,-z
-x,y,z
x,-y,z
1/2+x,1/2+y,1/2+z
1/2-x,1/2-y,1/2+z
1/2+x,1/2-y,1/2-z
1/2-x,1/2+y,1/2-z
1/2-x,1/2-y,1/2-z
1/2+x,1/2+y,1/2-z
1/2-x,1/2+y,1/2+z
1/2+x,1/2-y,1/2+z
loop_
_atom_site_type_symbol
_atom_site_label
_atom_site_fract_x
_atom_site_fract_y
_atom_site_fract_z
Si Si1 0.808764 0.119775 0.379549
Si Si2 0.687875 0.652911 0.437364
Si Si3 0.686644 0.062657 0.854827
Si Si4 0.000000 0.436954 0.065682
Si Si5 0.688726 0.268739 0.937410
Si Si6 0.685994 0.437455 0.235813
O O1 0.672775 0.085908 0.412811
O O2 0.764859 0.183649 0.392549
O O3 0.781238 0.106546 0.313690
O O4 0.000000 0.105647 0.396177
O O5 0.761919 0.640808 0.500000
O O6 0.500000 0.663807 0.443018
O O7 0.715125 0.601656 0.396455
O O8 0.762729 0.709291 0.411711
O O9 0.500000 0.067284 0.871720
O O10 0.707992 0.080736 0.789680
O O11 0.751654 0.000000 0.862540
O O12 0.000000 0.500000 0.083690
O O13 0.000000 0.426413 0.000000
O O14 0.500000 0.269963 0.947016
O O15 0.770488 0.277953 0.000000
O O16 0.500000 0.435520 0.255307
O O17 0.731863 0.500000 0.215692
#
# Coordination Sequence:
#
# PCOD8291631 Si02
#       6
#    16  16  16   8  16  16
#     4  10  21  37  58  83 113 152 197 239 290 339
#     4  10  21  36  56  82 111 144 182 227 279 338
#     4  10  21  36  56  82 111 144 182 227 279 338
#     4  11  24  36  52  82 116 152 192 242 294 340
#     4   9  18  34  56  80 108 145 188 234 281 334
#     4   9  18  34  56  80 108 145 188 234 281 334
#
# _framework density 18.713038000000001
#
# number of rings (size 3 to 8) (size 9 to 14) (size 15 to 20)
#    0.000    2.273    0.000    2.182    2.545    4.727 
#    0.000    3.636    0.000    0.000    0.000    0.000 
#    0.000    0.000    0.000    0.000    0.000    0.000 
#
# Total GULP energy -545284.161199 kJ/mol
# GULP energy per Si atom -12392.821845 kJ/mol
# Density = 1.867045 g / cm^3
# Si number density = 18.713038 Si / 1000 Ang^3
#
#
#
# Elastic Constant Matrix: (Units=GPa)
#
#
# Indices 1 2 3 4 5 6 
#
# 1 32.6757 22.2995 17.5352 0.0000 0.0000 0.0000
# 2 22.2995 132.1800 68.6812 0.0000 0.0000 0.0000
# 3 17.5352 68.6812 97.5181 0.0000 0.0000 0.0000
# 4 0.0000 0.0000 0.0000 34.0920 0.0000 0.0000
# 5 0.0000 0.0000 0.0000 0.0000 26.5717 0.0000
# 6 0.0000 0.0000 0.0000 0.0000 0.0000 26.7731
#
#
#
# Elastic Compliance Matrix: (Units=1/GPa)
#
#
# Indices 1 2 3 4 5 6 
#
# 1 0.035284 -0.004189 -0.003394 0.000000 0.000000 0.000000
# 2 -0.004189 0.012429 -0.008001 0.000000 0.000000 0.000000
# 3 -0.003394 -0.008001 0.016500 0.000000 0.000000 0.000000
# 4 0.000000 0.000000 0.000000 0.029332 0.000000 0.000000
# 5 0.000000 0.000000 0.000000 0.000000 0.037634 0.000000
# 6 0.000000 0.000000 0.000000 0.000000 0.000000 0.037351
#
#
# Mechanical properties :
#
#
# Convention : Reuss Voigt Hill
#
# Bulk Modulus (GPa) = 30.26159 53.26729 41.76444
# Shear Modulus (GPa) = 23.72893 27.74454 25.73674
#
# Velocity S-wave (km/s) = 3.56482 3.85467 3.71258
# Velocity P-wave (km/s) = 5.75764 6.95259 6.38314
#
# Compressibility (1/GPa) = 0.03304519
#
# Stress axis : x y z
#
# Youngs Moduli (GPa) = 28.34139 80.45525 60.60738
#
# Poissons Ratio (x) = 0.33702 0.20573
# Poissons Ratio (y) = 0.11872 0.48490
# Poissons Ratio (z) = 0.09620 0.64369
#
# Static dielectric constant tensor:
#      x y z
#    x 3.499010 0.000000 0.000000 
#    y 0.000000 3.521840 0.000000 
#    z 0.000000 0.000000 3.463160 
# 
# 
# High freq. dielectric constant tensor:
#      x y z
#    x 1.733590 0.000000 0.000000 
#    y 0.000000 1.721510 0.000000 
#    z 0.000000 0.000000 1.715600 
# 
# From -- ./inp_files/57567.got.cif
#   From: 2010.06.25/outbox.cif.g09.slc.cpg/sg71_29_cif.got.tgz:57567.got - 2010.06.28 04:59:45.
