data_PCOD8291189
_publ_section_title
;
Structure prediction by ZEFSAII (Michael W. Deem and Ramdas Pophale) SiO2 
 PCOD8291189
Probable space group: I M M M
;
_chemical_formula_sum "Si O2"
_cell_formula_units_Z 72
_cell_length_a 9.001455
_cell_length_b 27.172849
_cell_length_c 14.634853
_cell_angle_alpha 90.000000
_cell_angle_beta 90.000000
_cell_angle_gamma 90.000000
_cell_volume 3579.614467
_symmetry_space_group_name_H-M "I M M M"
_symmetry_group_IT_number 71
_symmetry_cell_setting 'orthorhombic'
loop_
_space_group_symop_operation_xyz
x,y,z
-x,-y,z
x,-y,-z
-x,y,-z
-x,-y,-z
x,y,-z
-x,y,z
x,-y,z
1/2+x,1/2+y,1/2+z
1/2-x,1/2-y,1/2+z
1/2+x,1/2-y,1/2-z
1/2-x,1/2+y,1/2-z
1/2-x,1/2-y,1/2-z
1/2+x,1/2+y,1/2-z
1/2-x,1/2+y,1/2+z
1/2+x,1/2-y,1/2+z
loop_
_atom_site_type_symbol
_atom_site_label
_atom_site_fract_x
_atom_site_fract_y
_atom_site_fract_z
Si Si1 0.675546 0.000000 0.606427
Si Si2 0.334329 0.809952 0.661608
Si Si3 0.830311 0.878705 0.901574
Si Si4 0.335857 0.218364 0.130409
Si Si5 0.175767 0.091263 0.704690
O O1 0.742812 0.952671 0.654722
O O2 0.500000 0.000000 0.619964
O O3 0.719608 0.000000 0.500000
O O4 0.500000 0.821804 0.623568
O O5 0.346755 0.788255 0.762009
O O6 0.256110 0.767272 0.602112
O O7 0.233075 0.858536 0.659067
O O8 0.739051 0.829040 0.913273
O O9 0.780137 0.910655 0.813309
O O10 0.000000 0.863218 0.884382
O O11 0.812897 0.907286 0.000000
O O12 0.500000 0.223975 0.088693
O O13 0.000000 0.086535 0.690140
#
# Coordination Sequence:
#
# PCOD8291189 Si02
#       5
#     8  16  16  16  16
#     4  11  25  45  66  85 106 134 171 221 284 345
#     4   9  16  28  48  74 107 146 184 224 271 320
#     4   9  18  33  53  80 116 155 189 220 262 320
#     4   9  16  26  44  73 108 147 190 229 263 305
#     4  10  20  36  60  86 111 142 182 229 277 325
#
# _framework density 20.113899
#
# number of rings (size 3 to 8) (size 9 to 14) (size 15 to 20)
#    0.000    2.556    0.000    2.333    0.000    7.556 
#    0.000    1.667    0.000   10.000    0.000    0.000 
#    0.000    0.000    0.000    0.000    0.000    0.000 
#
# Total GULP energy -446111.246722 kJ/mol
# GULP energy per Si atom -12391.979076 kJ/mol
# Density = 2.006812 g / cm^3
# Si number density = 20.113899 Si / 1000 Ang^3
#
#
#
# Elastic Constant Matrix: (Units=GPa)
#
#
# Indices 1 2 3 4 5 6 
#
# 1 116.4554 56.7690 52.2381 0.0000 0.0000 0.0000
# 2 56.7690 118.3136 61.6593 0.0001 0.0000 0.0000
# 3 52.2381 61.6593 112.4852 0.0006 -0.0001 0.0000
# 4 0.0000 0.0001 0.0006 7.2375 -0.0001 0.0000
# 5 0.0000 0.0000 -0.0001 -0.0001 13.1713 0.0000
# 6 0.0000 0.0000 0.0000 0.0000 0.0000 34.5877
#
#
#
# Elastic Compliance Matrix: (Units=1/GPa)
#
#
# Indices 1 2 3 4 5 6 
#
# 1 0.012073 -0.004019 -0.003404 0.000000 0.000000 0.000000
# 2 -0.004019 0.013170 -0.005353 0.000000 0.000000 0.000000
# 3 -0.003404 -0.005353 0.013405 -0.000001 0.000000 0.000000
# 4 0.000000 0.000000 -0.000001 0.138169 0.000001 0.000000
# 5 0.000000 0.000000 0.000000 0.000001 0.075923 0.000000
# 6 0.000000 0.000000 0.000000 0.000000 0.000000 0.028912
#
#
# Mechanical properties :
#
#
# Convention : Reuss Voigt Hill
#
# Bulk Modulus (GPa) = 76.35342 76.50967 76.43155
# Shear Modulus (GPa) = 16.04784 22.77181 19.40983
#
# Velocity S-wave (km/s) = 2.82769 3.36838 3.10981
# Velocity P-wave (km/s) = 6.97883 7.29718 7.13978
#
# Compressibility (1/GPa) = 0.01309699
#
# Stress axis : x y z
#
# Youngs Moduli (GPa) = 82.83021 75.92929 74.59958
#
# Poissons Ratio (x) = 0.30516 0.25391
# Poissons Ratio (y) = 0.33289 0.39932
# Poissons Ratio (z) = 0.28192 0.40644
#
# Static dielectric constant tensor:
#      x y z
#    x 3.930350 0.000000 0.000000 
#    y 0.000000 3.513160 0.000000 
#    z 0.000000 0.000000 3.685600 
# 
# 
# High freq. dielectric constant tensor:
#      x y z
#    x 1.798620 0.000000 0.000000 
#    y 0.000000 1.757120 0.000000 
#    z 0.000000 0.000000 1.782540 
# 
# From -- ./inp_files/6055.got.cif
#   From: 2010.06.25/outbox.cif.g09.slc.cpg/sg71_4_cif.got.tgz:6055.got - 2010.06.28 04:59:45.
