data_PCOD8291296
_publ_section_title
;
Structure prediction by ZEFSAII (Michael W. Deem and Ramdas Pophale) SiO2 
 PCOD8291296
Probable space group: I M M M
;
_chemical_formula_sum "Si O2"
_cell_formula_units_Z 84
_cell_length_a 11.347914
_cell_length_b 12.747329
_cell_length_c 32.298371
_cell_angle_alpha 90.000000
_cell_angle_beta 90.000000
_cell_angle_gamma 90.000000
_cell_volume 4672.140017
_symmetry_space_group_name_H-M "I M M M"
_symmetry_group_IT_number 71
_symmetry_cell_setting 'orthorhombic'
loop_
_space_group_symop_operation_xyz
x,y,z
-x,-y,z
x,-y,-z
-x,y,-z
-x,-y,-z
x,y,-z
-x,y,z
x,-y,z
1/2+x,1/2+y,1/2+z
1/2-x,1/2-y,1/2+z
1/2+x,1/2-y,1/2-z
1/2-x,1/2+y,1/2-z
1/2-x,1/2-y,1/2-z
1/2+x,1/2+y,1/2-z
1/2-x,1/2+y,1/2+z
1/2+x,1/2-y,1/2+z
loop_
_atom_site_type_symbol
_atom_site_label
_atom_site_fract_x
_atom_site_fract_y
_atom_site_fract_z
Si Si1 0.221278 0.381031 0.500000
Si Si2 0.129234 0.377302 0.799092
Si Si3 0.135795 0.614124 0.289834
Si Si4 0.000000 0.874090 0.410967
Si Si5 0.790389 0.233576 0.639297
Si Si6 0.000000 0.227779 0.500000
Si Si7 0.363429 0.379647 0.417503
O O1 0.171225 0.500000 0.500000
O O2 0.304451 0.360148 0.461418
O O3 0.113382 0.301596 0.500000
O O4 0.113663 0.500000 0.797823
O O5 0.185071 0.342064 0.754409
O O6 0.216145 0.352515 0.836503
O O7 0.000000 0.324647 0.806760
O O8 0.193135 0.500000 0.301059
O O9 0.147215 0.693431 0.327336
O O10 0.000000 0.595924 0.280912
O O11 0.115379 0.824032 0.389858
O O12 0.000000 0.845911 0.459556
O O13 0.000000 0.000000 0.405597
O O14 0.700404 0.304733 0.614380
O O15 0.500000 0.348538 0.420494
O O16 0.348277 0.500000 0.403210
#
# Coordination Sequence:
#
# PCOD8291296 Si02
#       7
#     8  16  16   8  16   4  16
#     4  10  20  37  62  90 117 144 182 229 280 356
#     4   9  19  35  55  78 108 148 194 237 279 331
#     4   9  18  33  53  81 113 147 185 229 284 342
#     4  12  27  41  59  82 115 153 200 249 291 345
#     4  12  20  36  56  84 111 151 194 233 286 331
#     4  12  22  46  60  88 110 158 194 228 308 348
#     4  10  21  36  57  87 119 148 180 226 286 352
#
# _framework density 17.978912999999999
#
# number of rings (size 3 to 8) (size 9 to 14) (size 15 to 20)
#    0.000    1.714    2.857    4.000    0.000    1.143 
#    0.000    0.000    0.000    0.000    0.000    1.333 
#    0.000    0.000    0.000    0.000    0.000    0.000 
#
# Total GULP energy -520488.574348 kJ/mol
# GULP energy per Si atom -12392.585104 kJ/mol
# Density = 1.793799 g / cm^3
# Si number density = 17.978913 Si / 1000 Ang^3
#
#
#
# Elastic Constant Matrix: (Units=GPa)
#
#
# Indices 1 2 3 4 5 6 
#
# 1 103.2381 57.3404 53.7653 0.0000 0.0000 0.0000
# 2 57.3404 81.8899 55.1639 0.0000 0.0000 0.0000
# 3 53.7653 55.1639 133.8633 0.0000 0.0000 0.0000
# 4 0.0000 0.0000 0.0000 36.9829 0.0000 0.0000
# 5 0.0000 0.0000 0.0000 0.0000 28.4856 0.0000
# 6 0.0000 0.0000 0.0000 0.0000 0.0000 29.1899
#
#
#
# Elastic Compliance Matrix: (Units=1/GPa)
#
#
# Indices 1 2 3 4 5 6 
#
# 1 0.016470 -0.009795 -0.002578 0.000000 0.000000 0.000000
# 2 -0.009795 0.022730 -0.005433 0.000000 0.000000 0.000000
# 3 -0.002578 -0.005433 0.010745 0.000000 0.000000 0.000000
# 4 0.000000 0.000000 0.000000 0.027039 0.000000 0.000000
# 5 0.000000 0.000000 0.000000 0.000000 0.035105 0.000000
# 6 0.000000 0.000000 0.000000 0.000000 0.000000 0.034258
#
#
# Mechanical properties :
#
#
# Convention : Reuss Voigt Hill
#
# Bulk Modulus (GPa) = 69.77583 72.39226 71.08405
# Shear Modulus (GPa) = 26.77557 29.11315 27.94436
#
# Velocity S-wave (km/s) = 3.86330 4.02841 3.94672
# Velocity P-wave (km/s) = 7.66774 7.87337 7.77123
#
# Compressibility (1/GPa) = 0.01433161
#
# Stress axis : x y z
#
# Youngs Moduli (GPa) = 60.71761 43.99480 93.07026
#
# Poissons Ratio (x) = 0.43095 0.23996
# Poissons Ratio (y) = 0.59476 0.50561
# Poissons Ratio (z) = 0.15655 0.23900
#
# Static dielectric constant tensor:
#      x y z
#    x 3.347480 0.000000 0.000000 
#    y 0.000000 3.256360 0.000000 
#    z 0.000000 0.000000 3.658510 
# 
# 
# High freq. dielectric constant tensor:
#      x y z
#    x 1.695090 0.000000 0.000000 
#    y 0.000000 1.691410 0.000000 
#    z 0.000000 0.000000 1.711640 
# 
# From -- ./inp_files/69112.got.cif
#   From: 2010.06.25/outbox.cif.g09.slc.cpg/sg71_35_cif.got.tgz:69112.got - 2010.06.28 04:59:45.
