data_PCOD8291070
_publ_section_title
;
Structure prediction by ZEFSAII (Michael W. Deem and Ramdas Pophale) SiO2 
 PCOD8291070
Probable space group: I M M M
;
_chemical_formula_sum "Si O2"
_cell_formula_units_Z 96
_cell_length_a 8.718437
_cell_length_b 23.847209
_cell_length_c 23.988004
_cell_angle_alpha 90.000000
_cell_angle_beta 90.000000
_cell_angle_gamma 90.000000
_cell_volume 4987.355250
_symmetry_space_group_name_H-M "I M M M"
_symmetry_group_IT_number 71
_symmetry_cell_setting 'orthorhombic'
loop_
_space_group_symop_operation_xyz
x,y,z
-x,-y,z
x,-y,-z
-x,y,-z
-x,-y,-z
x,y,-z
-x,y,z
x,-y,z
1/2+x,1/2+y,1/2+z
1/2-x,1/2-y,1/2+z
1/2+x,1/2-y,1/2-z
1/2-x,1/2+y,1/2-z
1/2-x,1/2-y,1/2-z
1/2+x,1/2+y,1/2-z
1/2-x,1/2+y,1/2+z
1/2+x,1/2-y,1/2+z
loop_
_atom_site_type_symbol
_atom_site_label
_atom_site_fract_x
_atom_site_fract_y
_atom_site_fract_z
Si Si1 0.819133 0.562068 0.630660
Si Si2 0.181619 0.639530 0.731091
Si Si3 0.821539 0.847984 0.061924
Si Si4 0.819067 0.767854 0.839641
Si Si5 0.680547 0.645929 0.845523
Si Si6 0.321079 0.064541 0.435656
O O1 0.747219 0.500000 0.631735
O O2 0.762122 0.595277 0.685101
O O3 0.763465 0.593944 0.575553
O O4 0.000000 0.558989 0.629944
O O5 0.235366 0.702011 0.712681
O O6 0.264373 0.618951 0.787375
O O7 0.000000 0.639996 0.740088
O O8 0.769932 0.799373 0.103830
O O9 0.000000 0.860160 0.067263
O O10 0.775262 0.828553 0.000000
O O11 0.765842 0.705008 0.849444
O O12 0.000000 0.769231 0.828494
O O13 0.500000 0.655456 0.845989
O O14 0.724277 0.605545 0.896515
O O15 0.281665 0.078239 0.500000
O O16 0.500000 0.074742 0.424262
O O17 0.277931 0.000000 0.422367
#
# Coordination Sequence:
#
# PCOD8291070 Si02
#       6
#    16  16  16  16  16  16
#     4   9  19  35  54  77 105 139 179 222 267 314
#     4  10  20  36  56  78 108 145 184 228 275 322
#     4   9  19  35  54  77 105 139 179 222 267 314
#     4  10  20  36  56  78 108 145 184 228 275 322
#     4  12  24  36  55  85 115 143 178 218 265 326
#     4   9  20  41  65  85 108 141 180 221 266 317
#
# _framework density 19.248678999999999
#
# number of rings (size 3 to 8) (size 9 to 14) (size 15 to 20)
#    0.000    2.167    0.000    3.500    0.000    4.333 
#    0.000    5.833    0.000    0.000    0.000    0.000 
#    0.000    0.000    0.000    0.000    0.000    0.000 
#
# Total GULP energy -595241.501842 kJ/mol
# GULP energy per Si atom -12400.864622 kJ/mol
# Density = 1.920487 g / cm^3
# Si number density = 19.248679 Si / 1000 Ang^3
#
#
#
# Elastic Constant Matrix: (Units=GPa)
#
#
# Indices 1 2 3 4 5 6 
#
# 1 42.9287 3.8409 18.0450 0.0000 0.0000 0.0000
# 2 3.8409 48.2899 5.8111 0.0000 0.0000 0.0000
# 3 18.0450 5.8111 86.0809 0.0000 0.0000 0.0000
# 4 0.0000 0.0000 0.0000 27.6645 0.0000 0.0000
# 5 0.0000 0.0000 0.0000 0.0000 32.6547 0.0000
# 6 0.0000 0.0000 0.0000 0.0000 0.0000 30.8260
#
#
#
# Elastic Compliance Matrix: (Units=1/GPa)
#
#
# Indices 1 2 3 4 5 6 
#
# 1 0.025639 -0.001404 -0.005280 0.000000 0.000000 0.000000
# 2 -0.001404 0.020955 -0.001120 0.000000 0.000000 0.000000
# 3 -0.005280 -0.001120 0.012799 0.000000 0.000000 0.000000
# 4 0.000000 0.000000 0.000000 0.036147 0.000000 0.000000
# 5 0.000000 0.000000 0.000000 0.000000 0.030623 0.000000
# 6 0.000000 0.000000 0.000000 0.000000 0.000000 0.032440
#
#
# Mechanical properties :
#
#
# Convention : Reuss Voigt Hill
#
# Bulk Modulus (GPa) = 22.83874 25.85483 24.34678
# Shear Modulus (GPa) = 26.48190 28.20255 27.34223
#
# Velocity S-wave (km/s) = 3.71317 3.83190 3.77300
# Velocity P-wave (km/s) = 5.50222 5.74797 5.62643
#
# Compressibility (1/GPa) = 0.04378525
#
# Stress axis : x y z
#
# Youngs Moduli (GPa) = 39.00232 47.72191 78.12844
#
# Poissons Ratio (x) = 0.06700 0.41252
# Poissons Ratio (y) = 0.05476 0.08753
# Poissons Ratio (z) = 0.20593 0.05346
#
# Static dielectric constant tensor:
#      x y z
#    x 3.424010 0.000000 0.000000 
#    y 0.000000 3.647670 0.000000 
#    z 0.000000 0.000000 3.750390 
# 
# 
# High freq. dielectric constant tensor:
#      x y z
#    x 1.746290 0.000000 0.000000 
#    y 0.000000 1.747910 0.000000 
#    z 0.000000 0.000000 1.756580 
# 
# From -- ./inp_files/57743.got.cif
#   From: 2010.06.25/outbox.cif.g09.slc.cpg/sg71_29_cif.got.tgz:57743.got - 2010.06.28 04:59:45.
