data_PCOD8291308
_publ_section_title
;
Structure prediction by ZEFSAII (Michael W. Deem and Ramdas Pophale) SiO2 
 PCOD8291308
Probable space group: I M M M
;
_chemical_formula_sum "Si O2"
_cell_formula_units_Z 88
_cell_length_a 11.058112
_cell_length_b 22.544713
_cell_length_c 16.853133
_cell_angle_alpha 90.000000
_cell_angle_beta 90.000000
_cell_angle_gamma 90.000000
_cell_volume 4201.519112
_symmetry_space_group_name_H-M "I M M M"
_symmetry_group_IT_number 71
_symmetry_cell_setting 'orthorhombic'
loop_
_space_group_symop_operation_xyz
x,y,z
-x,-y,z
x,-y,-z
-x,y,-z
-x,-y,-z
x,y,-z
-x,y,z
x,-y,z
1/2+x,1/2+y,1/2+z
1/2-x,1/2-y,1/2+z
1/2+x,1/2-y,1/2-z
1/2-x,1/2+y,1/2-z
1/2-x,1/2-y,1/2-z
1/2+x,1/2+y,1/2-z
1/2-x,1/2+y,1/2+z
1/2+x,1/2-y,1/2+z
loop_
_atom_site_type_symbol
_atom_site_label
_atom_site_fract_x
_atom_site_fract_y
_atom_site_fract_z
Si Si1 0.758347 0.351370 0.367891
Si Si2 0.713445 0.566692 0.909399
Si Si3 0.360676 0.236195 0.411774
Si Si4 0.357611 0.570379 0.500000
Si Si5 0.500000 0.217120 0.910387
Si Si6 0.500000 0.349436 0.094346
Si Si7 0.858492 0.367759 0.200838
O O1 0.656943 0.300848 0.374295
O O2 0.713330 0.405260 0.422931
O O3 0.776208 0.374491 0.278938
O O4 0.884149 0.322210 0.393082
O O5 0.663356 0.500000 0.900628
O O6 0.615789 0.613443 0.876213
O O7 0.832936 0.575183 0.854683
O O8 0.750214 0.579816 0.000000
O O9 0.298079 0.231489 0.500000
O O10 0.500000 0.223348 0.423531
O O11 0.309370 0.188531 0.349841
O O12 0.345139 0.500000 0.500000
O O13 0.500000 0.589150 0.500000
O O14 0.500000 0.282421 0.867693
O O15 0.500000 0.236257 0.000000
O O16 0.500000 0.350424 0.000000
O O17 0.000000 0.362848 0.223309
#
# Coordination Sequence:
#
# PCOD8291308 Si02
#       7
#    16  16  16   8   8   8  16
#     4  12  22  41  65  93 133 167 214 271 330 394
#     4  10  21  40  64  89 126 176 225 269 316 376
#     4  10  20  37  63  94 130 174 217 269 333 389
#     4  11  26  49  75  97 121 168 227 282 334 389
#     4  11  20  35  64  97 129 168 205 249 326 399
#     4   9  19  36  63  96 126 162 209 263 315 379
#     4  11  24  39  59  94 137 171 218 269 332 395
#
# _framework density 20.944804999999999
#
# number of rings (size 3 to 8) (size 9 to 14) (size 15 to 20)
#    0.000    1.364    2.727    3.000    0.000    4.727 
#    3.273    1.818    0.000    0.000    0.000    0.000 
#    0.000    0.000    0.000    0.000    0.000    0.000 
#
# Total GULP energy -545356.370412 kJ/mol
# GULP energy per Si atom -12394.462964 kJ/mol
# Density = 2.089713 g / cm^3
# Si number density = 20.944805 Si / 1000 Ang^3
#
#
#
# Elastic Constant Matrix: (Units=GPa)
#
#
# Indices 1 2 3 4 5 6 
#
# 1 65.4348 51.7736 46.5009 0.0000 0.0000 0.0000
# 2 51.7736 122.9266 53.2533 0.0000 0.0000 0.0000
# 3 46.5009 53.2533 146.1618 -0.0001 0.0000 0.0000
# 4 0.0000 0.0000 -0.0001 19.5930 0.0000 0.0000
# 5 0.0000 0.0000 0.0000 0.0000 27.9868 0.0000
# 6 0.0000 0.0000 0.0000 0.0000 0.0000 34.1276
#
#
#
# Elastic Compliance Matrix: (Units=1/GPa)
#
#
# Indices 1 2 3 4 5 6 
#
# 1 0.025693 -0.008644 -0.005024 0.000000 0.000000 0.000000
# 2 -0.008644 0.012568 -0.001829 0.000000 0.000000 0.000000
# 3 -0.005024 -0.001829 0.009107 0.000000 0.000000 0.000000
# 4 0.000000 0.000000 0.000000 0.051039 0.000000 0.000000
# 5 0.000000 0.000000 0.000000 0.000000 0.035731 0.000000
# 6 0.000000 0.000000 0.000000 0.000000 0.000000 0.029302
#
#
# Mechanical properties :
#
#
# Convention : Reuss Voigt Hill
#
# Bulk Modulus (GPa) = 61.08103 70.84209 65.96156
# Shear Modulus (GPa) = 25.01353 28.54118 26.77736
#
# Velocity S-wave (km/s) = 3.45956 3.69546 3.57945
# Velocity P-wave (km/s) = 6.72192 7.21840 6.97458
#
# Compressibility (1/GPa) = 0.01637169
#
# Stress axis : x y z
#
# Youngs Moduli (GPa) = 38.92154 79.56670 109.81041
#
# Poissons Ratio (x) = 0.68781 0.55174
# Poissons Ratio (y) = 0.33646 0.20083
# Poissons Ratio (z) = 0.19556 0.14552
#
# Static dielectric constant tensor:
#      x y z
#    x 3.842820 0.000000 0.000000 
#    y 0.000000 3.710430 0.000000 
#    z 0.000000 0.000000 3.885690 
# 
# 
# High freq. dielectric constant tensor:
#      x y z
#    x 1.822350 0.000000 0.000000 
#    y 0.000000 1.813360 0.000000 
#    z 0.000000 0.000000 1.814140 
# 
# From -- ./inp_files/32779.got.cif
#   From: 2010.06.25/outbox.cif.g09.slc.cpg/sg71_17_cif.got.tgz:32779.got - 2010.06.28 04:59:45.
