data_PCOD8291233
_publ_section_title
;
Structure prediction by ZEFSAII (Michael W. Deem and Ramdas Pophale) SiO2 
 PCOD8291233
Probable space group: I M M M
;
_chemical_formula_sum "Si O2"
_cell_formula_units_Z 104
_cell_length_a 8.231463
_cell_length_b 32.380264
_cell_length_c 20.255003
_cell_angle_alpha 90.000000
_cell_angle_beta 90.000000
_cell_angle_gamma 90.000000
_cell_volume 5398.706622
_symmetry_space_group_name_H-M "I M M M"
_symmetry_group_IT_number 71
_symmetry_cell_setting 'orthorhombic'
loop_
_space_group_symop_operation_xyz
x,y,z
-x,-y,z
x,-y,-z
-x,y,-z
-x,-y,-z
x,y,-z
-x,y,z
x,-y,z
1/2+x,1/2+y,1/2+z
1/2-x,1/2-y,1/2+z
1/2+x,1/2-y,1/2-z
1/2-x,1/2+y,1/2-z
1/2-x,1/2-y,1/2-z
1/2+x,1/2+y,1/2-z
1/2-x,1/2+y,1/2+z
1/2+x,1/2-y,1/2+z
loop_
_atom_site_type_symbol
_atom_site_label
_atom_site_fract_x
_atom_site_fract_y
_atom_site_fract_z
Si Si1 0.185649 0.157574 0.671819
Si Si2 0.814313 0.132908 0.182901
Si Si3 0.500000 0.543647 0.925484
Si Si4 0.819972 0.575612 0.868080
Si Si5 0.186638 0.276236 0.924660
Si Si6 0.687589 0.454129 0.737219
Si Si7 0.184277 0.688643 0.426459
O O1 0.217137 0.159970 0.750713
O O2 0.313160 0.124357 0.645033
O O3 0.212847 0.199750 0.631692
O O4 0.000000 0.142606 0.661019
O O5 0.765951 0.084173 0.189630
O O6 0.707836 0.151346 0.124297
O O7 0.000000 0.136446 0.161189
O O8 0.500000 0.500000 0.884800
O O9 0.668840 0.567431 0.915470
O O10 0.500000 0.531627 0.000000
O O11 0.798911 0.548997 0.801683
O O12 0.000000 0.565396 0.897779
O O13 0.203862 0.227781 0.908880
O O14 0.000000 0.288947 0.918351
O O15 0.248885 0.285649 0.000000
O O16 0.500000 0.448036 0.759583
O O17 0.713570 0.500000 0.704846
O O18 0.225919 0.672269 0.500000
O O19 0.000000 0.704243 0.422661
#
# Coordination Sequence:
#
# PCOD8291233 Si02
#       7
#    16  16   8  16  16  16  16
#     4  10  20  37  57  81 114 146 180 230 287 337
#     4   9  19  34  55  83 111 143 182 226 279 334
#     4  11  24  40  54  72 104 144 187 237 287 337
#     4  11  21  36  57  80 107 144 187 232 286 347
#     4  10  21  36  55  80 108 143 190 236 276 331
#     4   9  17  33  57  83 112 142 176 225 283 338
#     4  10  21  37  56  78 107 146 187 226 277 339
#
# _framework density 19.263873
#
# number of rings (size 3 to 8) (size 9 to 14) (size 15 to 20)
#    0.000    2.077    1.538    2.769    0.000    7.692 
#    0.000    0.769    0.000    0.462    0.000    3.231 
#    0.000    0.000    0.000    0.000    0.000    0.000 
#
# Total GULP energy -644352.269060 kJ/mol
# GULP energy per Si atom -12391.389790 kJ/mol
# Density = 1.922003 g / cm^3
# Si number density = 19.263873 Si / 1000 Ang^3
#
#
#
# Elastic Constant Matrix: (Units=GPa)
#
#
# Indices 1 2 3 4 5 6 
#
# 1 99.3977 23.5960 33.4806 0.0000 0.0000 0.0000
# 2 23.5960 110.3311 60.8924 0.0000 0.0000 0.0000
# 3 33.4806 60.8924 90.2545 -0.0001 0.0000 0.0001
# 4 0.0000 0.0000 -0.0001 19.4821 0.0000 0.0000
# 5 0.0000 0.0000 0.0000 0.0000 20.0023 0.0000
# 6 0.0000 0.0000 0.0001 0.0000 0.0000 31.8322
#
#
#
# Elastic Compliance Matrix: (Units=1/GPa)
#
#
# Indices 1 2 3 4 5 6 
#
# 1 0.011499 -0.000167 -0.004153 0.000000 0.000000 0.000000
# 2 -0.000167 0.014443 -0.009682 0.000000 0.000000 0.000000
# 3 -0.004153 -0.009682 0.019153 0.000000 0.000000 0.000000
# 4 0.000000 0.000000 0.000000 0.051329 0.000000 0.000000
# 5 0.000000 0.000000 0.000000 0.000000 0.049994 0.000000
# 6 0.000000 0.000000 0.000000 0.000000 0.000000 0.031415
#
#
# Mechanical properties :
#
#
# Convention : Reuss Voigt Hill
#
# Bulk Modulus (GPa) = 58.51356 59.54683 59.03019
# Shear Modulus (GPa) = 23.63674 26.39759 25.01716
#
# Velocity S-wave (km/s) = 3.50665 3.70579 3.60760
# Velocity P-wave (km/s) = 6.84370 7.02060 6.93271
#
# Compressibility (1/GPa) = 0.01709006
#
# Stress axis : x y z
#
# Youngs Moduli (GPa) = 86.96318 69.23686 52.21181
#
# Poissons Ratio (x) = 0.01158 0.21683
# Poissons Ratio (y) = 0.01455 0.50553
# Poissons Ratio (z) = 0.36114 0.67038
#
# Static dielectric constant tensor:
#      x y z
#    x 3.467500 0.000000 0.000000 
#    y 0.000000 3.455130 0.000000 
#    z 0.000000 0.000000 3.279520 
# 
# 
# High freq. dielectric constant tensor:
#      x y z
#    x 1.752780 0.000000 0.000000 
#    y 0.000000 1.745930 0.000000 
#    z 0.000000 0.000000 1.718200 
# 
# From -- ./inp_files/51133.got.cif
#   From: 2010.06.25/outbox.cif.g09.slc.cpg/sg71_26_cif.got.tgz:51133.got - 2010.06.28 04:59:45.
