data_PCOD8291523
_publ_section_title
;
Structure prediction by ZEFSAII (Michael W. Deem and Ramdas Pophale) SiO2 
 PCOD8291523
Probable space group: I M M M
;
_chemical_formula_sum "Si O2"
_cell_formula_units_Z 88
_cell_length_a 23.007633
_cell_length_b 24.202743
_cell_length_c 8.937656
_cell_angle_alpha 90.000000
_cell_angle_beta 90.000000
_cell_angle_gamma 90.000000
_cell_volume 4976.914336
_symmetry_space_group_name_H-M "I M M M"
_symmetry_group_IT_number 71
_symmetry_cell_setting 'orthorhombic'
loop_
_space_group_symop_operation_xyz
x,y,z
-x,-y,z
x,-y,-z
-x,y,-z
-x,-y,-z
x,y,-z
-x,y,z
x,-y,z
1/2+x,1/2+y,1/2+z
1/2-x,1/2-y,1/2+z
1/2+x,1/2-y,1/2-z
1/2-x,1/2+y,1/2-z
1/2-x,1/2-y,1/2-z
1/2+x,1/2+y,1/2-z
1/2-x,1/2+y,1/2+z
1/2+x,1/2-y,1/2+z
loop_
_atom_site_type_symbol
_atom_site_label
_atom_site_fract_x
_atom_site_fract_y
_atom_site_fract_z
Si Si1 0.564232 0.355560 0.677558
Si Si2 0.932358 0.731427 0.173091
Si Si3 0.836642 0.063457 0.825469
Si Si4 0.612484 0.127327 0.823050
Si Si5 0.216347 0.563420 0.175700
Si Si6 0.000000 0.562160 0.322009
O O1 0.560848 0.358732 0.500000
O O2 0.500000 0.369441 0.742812
O O3 0.582960 0.293677 0.724531
O O4 0.610768 0.399449 0.738957
O O5 0.893611 0.690686 0.272753
O O6 0.000000 0.719428 0.202265
O O7 0.916699 0.722185 0.000000
O O8 0.779518 0.080348 0.735041
O O9 0.853759 0.000000 0.797029
O O10 0.825149 0.074948 0.000000
O O11 0.670288 0.102437 0.754201
O O12 0.557236 0.092968 0.761589
O O13 0.617028 0.124122 0.000000
O O14 0.202621 0.500000 0.218216
O O15 0.214247 0.573220 0.000000
O O16 0.000000 0.500000 0.258078
O O17 0.000000 0.562040 0.500000
#
# Coordination Sequence:
#
# PCOD8291523 Si02
#       6
#    16  16  16  16  16   8
#     4   8  15  29  51  79 107 134 164 202 250 300
#     4   9  17  31  50  71 101 138 170 202 246 300
#     4   9  17  31  53  79 104 131 166 207 250 298
#     4  11  20  32  51  74 100 130 169 212 254 298
#     4  10  21  36  52  71  99 135 171 206 250 304
#     4   9  18  30  45  69  99 125 152 199 256 298
#
# _framework density 17.681638
#
# number of rings (size 3 to 8) (size 9 to 14) (size 15 to 20)
#    0.000    2.636    0.909    2.727    0.000    2.182 
#    0.000    3.636    0.000    3.818    0.000    2.545 
#    0.000    0.000    0.000    0.000    0.000    0.000 
#
# Total GULP energy -545605.311794 kJ/mol
# GULP energy per Si atom -12400.120723 kJ/mol
# Density = 1.764139 g / cm^3
# Si number density = 17.681638 Si / 1000 Ang^3
#
#
#
# Elastic Constant Matrix: (Units=GPa)
#
#
# Indices 1 2 3 4 5 6 
#
# 1 133.8584 93.4413 44.6145 0.0000 0.0000 0.0000
# 2 93.4413 126.0362 38.2038 0.0000 0.0000 0.0000
# 3 44.6145 38.2038 49.7674 0.0000 0.0000 0.0000
# 4 0.0000 0.0000 0.0000 21.1074 0.0000 0.0000
# 5 0.0000 0.0000 0.0000 0.0000 18.0397 0.0000
# 6 0.0000 0.0000 0.0000 0.0000 0.0000 32.4700
#
#
#
# Elastic Compliance Matrix: (Units=1/GPa)
#
#
# Indices 1 2 3 4 5 6 
#
# 1 0.017351 -0.010620 -0.007402 0.000000 0.000000 0.000000
# 2 -0.010620 0.016841 -0.003407 0.000000 0.000000 0.000000
# 3 -0.007402 -0.003407 0.029345 0.000000 0.000000 0.000000
# 4 0.000000 0.000000 0.000000 0.047377 0.000000 0.000000
# 5 0.000000 0.000000 0.000000 0.000000 0.055433 0.000000
# 6 0.000000 0.000000 0.000000 0.000000 0.000000 0.030798
#
#
# Mechanical properties :
#
#
# Convention : Reuss Voigt Hill
#
# Bulk Modulus (GPa) = 48.36131 73.57568 60.96850
# Shear Modulus (GPa) = 20.25147 23.21691 21.73419
#
# Velocity S-wave (km/s) = 3.38796 3.62754 3.50979
# Velocity P-wave (km/s) = 6.53566 7.69721 7.14009
#
# Compressibility (1/GPa) = 0.02067769
#
# Stress axis : x y z
#
# Youngs Moduli (GPa) = 57.63272 59.38016 34.07783
#
# Poissons Ratio (x) = 0.63063 0.25225
# Poissons Ratio (y) = 0.61207 0.11610
# Poissons Ratio (z) = 0.42660 0.20231
#
# Static dielectric constant tensor:
#      x y z
#    x 3.393980 0.000000 0.000000 
#    y 0.000000 3.403520 0.000000 
#    z 0.000000 0.000000 3.005010 
# 
# 
# High freq. dielectric constant tensor:
#      x y z
#    x 1.679500 0.000000 0.000000 
#    y 0.000000 1.686610 0.000000 
#    z 0.000000 0.000000 1.659360 
# 
# From -- ./inp_files/10501.got.cif
#   From: 2010.06.25/outbox.cif.g09.slc.cpg/sg71_6_cif.got.tgz:10501.got - 2010.06.28 04:59:45.
