data_PCOD8291668
_publ_section_title
;
Structure prediction by ZEFSAII (Michael W. Deem and Ramdas Pophale) SiO2 
 PCOD8291668
Probable space group: I M M M
;
_chemical_formula_sum "Si O2"
_cell_formula_units_Z 88
_cell_length_a 9.246916
_cell_length_b 18.508133
_cell_length_c 27.524664
_cell_angle_alpha 90.000000
_cell_angle_beta 90.000000
_cell_angle_gamma 90.000000
_cell_volume 4710.657732
_symmetry_space_group_name_H-M "I M M M"
_symmetry_group_IT_number 71
_symmetry_cell_setting 'orthorhombic'
loop_
_space_group_symop_operation_xyz
x,y,z
-x,-y,z
x,-y,-z
-x,y,-z
-x,-y,-z
x,y,-z
-x,y,z
x,-y,z
1/2+x,1/2+y,1/2+z
1/2-x,1/2-y,1/2+z
1/2+x,1/2-y,1/2-z
1/2-x,1/2+y,1/2-z
1/2-x,1/2-y,1/2-z
1/2+x,1/2+y,1/2-z
1/2-x,1/2+y,1/2+z
1/2+x,1/2-y,1/2+z
loop_
_atom_site_type_symbol
_atom_site_label
_atom_site_fract_x
_atom_site_fract_y
_atom_site_fract_z
Si Si1 0.659530 0.414272 0.716638
Si Si2 0.833789 0.585085 0.375125
Si Si3 0.335370 0.414540 0.000000
Si Si4 0.169189 0.345186 0.088623
Si Si5 0.168912 0.915913 0.325277
Si Si6 0.333413 0.314232 0.555714
O O1 0.500000 0.383245 0.704836
O O2 0.653442 0.500000 0.716038
O O3 0.768229 0.385303 0.675595
O O4 0.708032 0.390357 0.770543
O O5 0.809124 0.500000 0.380670
O O6 0.759358 0.622245 0.420891
O O7 0.000000 0.606596 0.374927
O O8 0.253755 0.388100 0.952469
O O9 0.334938 0.500000 0.000000
O O10 0.500000 0.385163 0.000000
O O11 0.230035 0.368273 0.140607
O O12 0.196741 0.260214 0.083423
O O13 0.000000 0.363943 0.084306
O O14 0.000000 0.902019 0.336439
O O15 0.205585 0.000000 0.333129
O O16 0.285545 0.304728 0.500000
O O17 0.500000 0.336807 0.559462
#
# Coordination Sequence:
#
# PCOD8291668 Si02
#       6
#    16  16   8  16  16  16
#     4   8  15  31  55  80 109 146 182 218 265 322
#     4  10  21  36  57  87 115 136 171 225 277 329
#     4  11  23  37  55  79 108 145 188 229 271 324
#     4  11  22  37  55  79 110 144 186 232 275 318
#     4   9  18  33  54  82 114 147 186 227 268 322
#     4  10  22  41  59  76 105 145 186 225 271 329
#
# _framework density 18.681044
#
# number of rings (size 3 to 8) (size 9 to 14) (size 15 to 20)
#    0.000    2.273    0.909    3.000    0.000    7.273 
#    0.000    4.545    0.000    0.000    0.000    0.000 
#    0.000    0.000    0.000    0.000    0.000    0.000 
#
# Total GULP energy -545641.277912 kJ/mol
# GULP energy per Si atom -12400.938134 kJ/mol
# Density = 1.863853 g / cm^3
# Si number density = 18.681044 Si / 1000 Ang^3
#
#
#
# Elastic Constant Matrix: (Units=GPa)
#
#
# Indices 1 2 3 4 5 6 
#
# 1 123.5310 52.7180 78.6290 0.0000 0.0000 0.0000
# 2 52.7180 49.8578 50.4343 0.0000 0.0000 0.0000
# 3 78.6290 50.4343 124.6222 0.0000 0.0000 0.0000
# 4 0.0000 0.0000 0.0000 -22.2104 0.0000 0.0000
# 5 0.0000 0.0000 0.0000 0.0000 64.1253 0.0000
# 6 0.0000 0.0000 0.0000 0.0000 0.0000 27.0647
#
#
#
# Elastic Compliance Matrix: (Units=1/GPa)
#
#
# Indices 1 2 3 4 5 6 
#
# 1 0.016923 -0.012009 -0.005817 0.000000 0.000000 0.000000
# 2 -0.012009 0.042481 -0.009615 0.000000 0.000000 0.000000
# 3 -0.005817 -0.009615 0.015586 0.000000 0.000000 0.000000
# 4 0.000000 0.000000 0.000000 -0.045024 0.000000 0.000000
# 5 0.000000 0.000000 0.000000 0.000000 0.015594 0.000000
# 6 0.000000 0.000000 0.000000 0.000000 0.000000 0.036949
#
#
# Mechanical properties :
#
#
# Convention : Reuss Voigt Hill
#
# Bulk Modulus (GPa) = 49.73369 73.50820 61.62095
# Shear Modulus (GPa) = 34.69946 21.54458 28.12202
#
# Velocity S-wave (km/s) = 4.31451 3.39969 3.88413
# Velocity P-wave (km/s) = 7.17638 7.40574 7.29196
#
# Compressibility (1/GPa) = 0.02010709
#
# Stress axis : x y z
#
# Youngs Moduli (GPa) = 59.09144 23.53968 64.16127
#
# Poissons Ratio (x) = 0.28269 0.37324
# Poissons Ratio (y) = 0.70965 0.61691
# Poissons Ratio (z) = 0.34375 0.22633
#
# Static dielectric constant tensor:
#      x y z
#    x 3.548550 0.000000 0.000000 
#    y 0.000000 3.174740 0.000000 
#    z 0.000000 0.000000 3.599100 
# 
# 
# High freq. dielectric constant tensor:
#      x y z
#    x 1.729520 0.000000 0.000000 
#    y 0.000000 1.701770 0.000000 
#    z 0.000000 0.000000 1.738520 
# 
# From -- ./inp_files/57579.got.cif
#   From: 2010.06.25/outbox.cif.g09.slc.cpg/sg71_29_cif.got.tgz:57579.got - 2010.06.28 04:59:45.
