data_PCOD8291224
_publ_section_title
;
Structure prediction by ZEFSAII (Michael W. Deem and Ramdas Pophale) SiO2 
 PCOD8291224
Probable space group: I M M M
;
_chemical_formula_sum "Si O2"
_cell_formula_units_Z 64
_cell_length_a 16.711922
_cell_length_b 7.794342
_cell_length_c 23.728096
_cell_angle_alpha 90.000000
_cell_angle_beta 90.000000
_cell_angle_gamma 90.000000
_cell_volume 3090.784663
_symmetry_space_group_name_H-M "I M M M"
_symmetry_group_IT_number 71
_symmetry_cell_setting 'orthorhombic'
loop_
_space_group_symop_operation_xyz
x,y,z
-x,-y,z
x,-y,-z
-x,y,-z
-x,-y,-z
x,y,-z
-x,y,z
x,-y,z
1/2+x,1/2+y,1/2+z
1/2-x,1/2-y,1/2+z
1/2+x,1/2-y,1/2-z
1/2-x,1/2+y,1/2-z
1/2-x,1/2-y,1/2-z
1/2+x,1/2+y,1/2-z
1/2-x,1/2+y,1/2+z
1/2+x,1/2-y,1/2+z
loop_
_atom_site_type_symbol
_atom_site_label
_atom_site_fract_x
_atom_site_fract_y
_atom_site_fract_z
Si Si1 0.500000 0.797543 0.435680
Si Si2 0.587108 0.805350 0.237694
Si Si3 0.177169 0.702799 0.371124
Si Si4 0.090173 0.000000 0.566345
Si Si5 0.641609 0.304390 0.355967
O O1 0.500000 0.731468 0.500000
O O2 0.420642 0.728675 0.405834
O O3 0.500000 0.000000 0.432445
O O4 0.500000 0.710981 0.235213
O O5 0.648642 0.733483 0.191080
O O6 0.622279 0.801602 0.300255
O O7 0.572958 0.000000 0.221246
O O8 0.160184 0.500000 0.382810
O O9 0.132372 0.823097 0.415359
O O10 0.270778 0.744682 0.377849
O O11 0.090658 0.000000 0.500000
O O12 0.000000 0.000000 0.590343
O O13 0.638244 0.500000 0.336698
#
# Coordination Sequence:
#
# PCOD8291224 Si02
#       5
#     8  16  16   8  16
#     4  11  25  43  63  87 125 179 225 268 321 382
#     4  10  20  36  62  93 130 170 210 264 325 388
#     4  10  24  43  66  97 133 171 216 269 331 387
#     4  11  26  46  70  99 129 167 217 272 326 391
#     4  11  23  39  62  94 129 170 217 270 326 382
#
# _framework density 20.706716
#
# number of rings (size 3 to 8) (size 9 to 14) (size 15 to 20)
#    0.000    1.500    1.250    2.625    5.250    4.000 
#    0.000    3.750    0.000    0.000    0.000    0.000 
#    0.000    0.000    0.000    0.000    0.000    0.000 
#
# Total GULP energy -396738.176029 kJ/mol
# GULP energy per Si atom -12398.068001 kJ/mol
# Density = 2.065959 g / cm^3
# Si number density = 20.706716 Si / 1000 Ang^3
#
#
#
# Elastic Constant Matrix: (Units=GPa)
#
#
# Indices 1 2 3 4 5 6 
#
# 1 190.7818 53.8159 66.2892 0.0000 0.0000 0.0000
# 2 53.8159 61.8447 23.7751 0.0000 0.0000 0.0000
# 3 66.2892 23.7751 109.5319 0.0000 0.0000 0.0000
# 4 0.0000 0.0000 0.0000 32.8016 0.0000 0.0000
# 5 0.0000 0.0000 0.0000 0.0000 21.0430 0.0000
# 6 0.0000 0.0000 0.0000 0.0000 0.0000 20.7461
#
#
#
# Elastic Compliance Matrix: (Units=1/GPa)
#
#
# Indices 1 2 3 4 5 6 
#
# 1 0.008114 -0.005644 -0.003686 0.000000 0.000000 0.000000
# 2 -0.005644 0.021567 -0.001266 0.000000 0.000000 0.000000
# 3 -0.003686 -0.001266 0.011635 0.000000 0.000000 0.000000
# 4 0.000000 0.000000 0.000000 0.030486 0.000000 0.000000
# 5 0.000000 0.000000 0.000000 0.000000 0.047522 0.000000
# 6 0.000000 0.000000 0.000000 0.000000 0.000000 0.048202
#
#
# Mechanical properties :
#
#
# Convention : Reuss Voigt Hill
#
# Bulk Modulus (GPa) = 49.68694 72.21321 60.95008
# Shear Modulus (GPa) = 25.58511 29.47000 27.52756
#
# Velocity S-wave (km/s) = 3.51892 3.77664 3.65005
# Velocity P-wave (km/s) = 6.36852 7.34625 6.87479
#
# Compressibility (1/GPa) = 0.02012601
#
# Stress axis : x y z
#
# Youngs Moduli (GPa) = 123.23943 46.36642 85.94680
#
# Poissons Ratio (x) = 0.26169 0.31678
# Poissons Ratio (y) = 0.69556 0.10878
# Poissons Ratio (z) = 0.45423 0.05868
#
# Static dielectric constant tensor:
#      x y z
#    x 4.059180 0.000000 0.000000 
#    y 0.000000 3.753660 0.000000 
#    z 0.000000 0.000000 3.602090 
# 
# 
# High freq. dielectric constant tensor:
#      x y z
#    x 1.828480 0.000000 0.000000 
#    y 0.000000 1.810980 0.000000 
#    z 0.000000 0.000000 1.801440 
# 
# From -- ./inp_files/47883.got.cif
#   From: 2010.06.25/outbox.cif.g09.slc.cpg/sg71_24_cif.got.tgz:47883.got - 2010.06.28 04:59:45.
