data_PCOD8291846
_publ_section_title
;
Structure prediction by ZEFSAII (Michael W. Deem and Ramdas Pophale) SiO2 
 PCOD8291846
Probable space group: I M M M
;
_chemical_formula_sum "Si O2"
_cell_formula_units_Z 104
_cell_length_a 21.692568
_cell_length_b 9.196219
_cell_length_c 24.057102
_cell_angle_alpha 90.000000
_cell_angle_beta 90.000000
_cell_angle_gamma 90.000000
_cell_volume 4799.141799
_symmetry_space_group_name_H-M "I M M M"
_symmetry_group_IT_number 71
_symmetry_cell_setting 'orthorhombic'
loop_
_space_group_symop_operation_xyz
x,y,z
-x,-y,z
x,-y,-z
-x,y,-z
-x,-y,-z
x,y,-z
-x,y,z
x,-y,z
1/2+x,1/2+y,1/2+z
1/2-x,1/2-y,1/2+z
1/2+x,1/2-y,1/2-z
1/2-x,1/2+y,1/2-z
1/2-x,1/2-y,1/2-z
1/2+x,1/2+y,1/2-z
1/2-x,1/2+y,1/2+z
1/2+x,1/2-y,1/2+z
loop_
_atom_site_type_symbol
_atom_site_label
_atom_site_fract_x
_atom_site_fract_y
_atom_site_fract_z
Si Si1 0.426161 0.833591 0.500000
Si Si2 0.766583 0.663298 0.162160
Si Si3 0.389457 0.166187 0.715822
Si Si4 0.873826 0.832293 0.679125
Si Si5 0.739221 0.668926 0.440110
Si Si6 0.428183 0.337069 0.392196
Si Si7 0.866532 0.167055 0.440728
O O1 0.500000 0.834646 0.500000
O O2 0.400338 0.751345 0.555187
O O3 0.401575 0.000000 0.500000
O O4 0.762968 0.500000 0.139447
O O5 0.814772 0.676327 0.212581
O O6 0.698430 0.713786 0.179548
O O7 0.796300 0.759553 0.111901
O O8 0.409066 0.236244 0.774914
O O9 0.419846 0.252628 0.665549
O O10 0.412646 0.000000 0.713843
O O11 0.903190 0.801116 0.617221
O O12 0.881895 0.000000 0.696223
O O13 0.707228 0.701896 0.500000
O O14 0.745055 0.500000 0.429030
O O15 0.807553 0.732361 0.440961
O O16 0.500000 0.354985 0.402550
O O17 0.398054 0.500000 0.390285
O O18 0.903230 0.192446 0.500000
O O19 0.844386 0.000000 0.437471
#
# Coordination Sequence:
#
# PCOD8291846 Si02
#       7
#     8  16  16  16  16  16  16
#     4   9  17  33  59  85 105 127 159 203 257 313
#     4   9  19  33  46  63  90 129 169 202 244 296
#     4  11  22  34  49  72  99 129 167 206 250 300
#     4   9  17  30  48  69  97 132 168 205 245 291
#     4   9  16  25  39  60  84 113 153 200 245 283
#     4  10  21  38  59  80 102 130 165 208 259 311
#     4   8  14  26  44  64  88 122 161 198 237 282
#
# _framework density 21.670541
#
# number of rings (size 3 to 8) (size 9 to 14) (size 15 to 20)
#    0.000    2.692    0.000    3.000    0.000    6.462 
#    1.385    0.000    0.000    0.000    0.000    0.000 
#    0.000    0.615    0.000    7.077    0.000    2.154 
#
# Total GULP energy -644200.220812 kJ/mol
# GULP energy per Si atom -12388.465785 kJ/mol
# Density = 2.162122 g / cm^3
# Si number density = 21.670541 Si / 1000 Ang^3
#
#
#
# Elastic Constant Matrix: (Units=GPa)
#
#
# Indices 1 2 3 4 5 6 
#
# 1 7.4425 1.7051 5.6906 0.0000 0.0000 0.0000
# 2 1.7051 119.1517 93.5406 0.0000 0.0000 0.0000
# 3 5.6906 93.5406 209.6763 0.0000 0.0000 0.0000
# 4 0.0000 0.0000 0.0000 41.9228 0.0000 0.0000
# 5 0.0000 0.0000 0.0000 0.0000 23.0174 0.0000
# 6 0.0000 0.0000 0.0000 0.0000 0.0000 10.5800
#
#
#
# Elastic Compliance Matrix: (Units=1/GPa)
#
#
# Indices 1 2 3 4 5 6 
#
# 1 0.137379 0.001479 -0.004388 0.000000 0.000000 0.000000
# 2 0.001479 0.012932 -0.005809 0.000000 0.000000 0.000000
# 3 -0.004388 -0.005809 0.007480 0.000000 0.000000 0.000000
# 4 0.000000 0.000000 0.000000 0.023853 0.000000 0.000000
# 5 0.000000 0.000000 0.000000 0.000000 0.043445 0.000000
# 6 0.000000 0.000000 0.000000 0.000000 0.000000 0.094518
#
#
# Mechanical properties :
#
#
# Convention : Reuss Voigt Hill
#
# Bulk Modulus (GPa) = 7.12482 59.79367 33.45925
# Shear Modulus (GPa) = 13.02656 30.79298 21.90977
#
# Velocity S-wave (km/s) = 2.45443 3.77365 3.18313
# Velocity P-wave (km/s) = 3.36560 6.82930 5.38361
#
# Compressibility (1/GPa) = 0.14035439
#
# Stress axis : x y z
#
# Youngs Moduli (GPa) = 7.27911 77.32610 133.68870
#
# Poissons Ratio (x) = -0.11437 0.58666
# Poissons Ratio (y) = -0.01077 0.77666
# Poissons Ratio (z) = 0.03194 0.44922
#
# Static dielectric constant tensor:
#      x y z
#    x 3.242920 0.000000 0.000000 
#    y 0.000000 4.013480 0.000000 
#    z 0.000000 0.000000 4.502120 
# 
# 
# High freq. dielectric constant tensor:
#      x y z
#    x 1.788290 0.000000 0.000000 
#    y 0.000000 1.852030 0.000000 
#    z 0.000000 0.000000 1.873070 
# 
# From -- ./inp_files/61949.got.cif
#   From: 2010.06.25/outbox.cif.g09.slc.cpg/sg71_31_cif.got.tgz:61949.got - 2010.06.28 04:59:45.
