data_PCOD8291786
_publ_section_title
;
Structure prediction by ZEFSAII (Michael W. Deem and Ramdas Pophale) SiO2 
 PCOD8291786
Probable space group: I M M M
;
_chemical_formula_sum "Si O2"
_cell_formula_units_Z 72
_cell_length_a 27.275976
_cell_length_b 14.575099
_cell_length_c 8.703098
_cell_angle_alpha 90.000000
_cell_angle_beta 90.000000
_cell_angle_gamma 90.000000
_cell_volume 3459.917050
_symmetry_space_group_name_H-M "I M M M"
_symmetry_group_IT_number 71
_symmetry_cell_setting 'orthorhombic'
loop_
_space_group_symop_operation_xyz
x,y,z
-x,-y,z
x,-y,-z
-x,y,-z
-x,-y,-z
x,y,-z
-x,y,z
x,-y,z
1/2+x,1/2+y,1/2+z
1/2-x,1/2-y,1/2+z
1/2+x,1/2-y,1/2-z
1/2-x,1/2+y,1/2-z
1/2-x,1/2-y,1/2-z
1/2+x,1/2+y,1/2-z
1/2-x,1/2+y,1/2+z
1/2+x,1/2-y,1/2+z
loop_
_atom_site_type_symbol
_atom_site_label
_atom_site_fract_x
_atom_site_fract_y
_atom_site_fract_z
Si Si1 0.000000 0.894505 0.318239
Si Si2 0.628515 0.104423 0.820409
Si Si3 0.676717 0.598597 0.673064
Si Si4 0.768383 0.344250 0.820791
Si Si5 0.087432 0.222166 0.819393
O O1 0.952997 0.839164 0.261806
O O2 0.000000 0.895823 0.500000
O O3 0.000000 0.000000 0.255757
O O4 0.682889 0.118195 0.757003
O O5 0.589277 0.173136 0.741011
O O6 0.611660 0.000000 0.786157
O O7 0.628798 0.125473 0.000000
O O8 0.695348 0.619003 0.500000
O O9 0.649150 0.500000 0.679236
O O10 0.723083 0.588578 0.786219
O O11 0.639978 0.678648 0.724017
O O12 0.750000 0.250000 0.750000
O O13 0.779198 0.335179 0.000000
O O14 0.076996 0.221193 0.000000
#
# Coordination Sequence:
#
# PCOD8291786 Si02
#       5
#     8  16  16  16  16
#     4  11  25  45  70  99 132 167 203 250 312 379
#     4  11  24  42  64  91 127 170 213 260 315 374
#     4  10  21  37  58  87 123 162 203 252 311 370
#     4  12  23  36  57  86 123 168 215 260 309 364
#     4  11  23  41  67  95 125 163 208 260 314 373
#
# _framework density 20.809747000000002
#
# number of rings (size 3 to 8) (size 9 to 14) (size 15 to 20)
#    0.000    1.000    2.222    5.000    0.000    7.556 
#    0.000    0.556    0.000    3.333    0.000    0.000 
#    0.000    0.000    0.000    0.000    0.000    0.000 
#
# Total GULP energy -446341.385783 kJ/mol
# GULP energy per Si atom -12398.371827 kJ/mol
# Density = 2.076238 g / cm^3
# Si number density = 20.809747 Si / 1000 Ang^3
#
#
#
# Elastic Constant Matrix: (Units=GPa)
#
#
# Indices 1 2 3 4 5 6 
#
# 1 82.4342 52.8650 39.0536 0.0000 0.0000 0.0000
# 2 52.8650 158.2268 55.8556 0.0000 0.0000 0.0000
# 3 39.0536 55.8556 88.8637 0.0000 0.0000 0.0000
# 4 0.0000 0.0000 0.0000 30.1341 0.0000 0.0000
# 5 0.0000 0.0000 0.0000 0.0000 35.0486 0.0000
# 6 0.0000 0.0000 0.0000 0.0000 0.0000 34.8615
#
#
#
# Elastic Compliance Matrix: (Units=1/GPa)
#
#
# Indices 1 2 3 4 5 6 
#
# 1 0.017019 -0.003914 -0.005019 0.000000 0.000000 0.000000
# 2 -0.003914 0.009023 -0.003951 0.000000 0.000000 0.000000
# 3 -0.005019 -0.003951 0.015942 0.000000 0.000000 0.000000
# 4 0.000000 0.000000 0.000000 0.033185 0.000000 0.000000
# 5 0.000000 0.000000 0.000000 0.000000 0.028532 0.000000
# 6 0.000000 0.000000 0.000000 0.000000 0.000000 0.028685
#
#
# Mechanical properties :
#
#
# Convention : Reuss Voigt Hill
#
# Bulk Modulus (GPa) = 61.67059 69.45257 65.56158
# Shear Modulus (GPa) = 30.56995 32.12556 31.34776
#
# Velocity S-wave (km/s) = 3.83694 3.93335 3.88544
# Velocity P-wave (km/s) = 7.02348 7.35363 7.19045
#
# Compressibility (1/GPa) = 0.01621518
#
# Stress axis : x y z
#
# Youngs Moduli (GPa) = 58.75784 110.83296 62.72633
#
# Poissons Ratio (x) = 0.43385 0.31483
# Poissons Ratio (y) = 0.23000 0.24782
# Poissons Ratio (z) = 0.29491 0.43789
#
# Static dielectric constant tensor:
#      x y z
#    x 3.781530 0.000000 0.000000 
#    y 0.000000 4.188550 0.000000 
#    z 0.000000 0.000000 4.029270 
# 
# 
# High freq. dielectric constant tensor:
#      x y z
#    x 1.792070 0.000000 0.000000 
#    y 0.000000 1.839560 0.000000 
#    z 0.000000 0.000000 1.819910 
# 
# From -- ./inp_files/6025.got.cif
#   From: 2010.06.25/outbox.cif.g09.slc.cpg/sg71_4_cif.got.tgz:6025.got - 2010.06.28 04:59:45.
