data_PCOD8291705
_publ_section_title
;
Structure prediction by ZEFSAII (Michael W. Deem and Ramdas Pophale) SiO2 
 PCOD8291705
Probable space group: I M M M
;
_chemical_formula_sum "Si O2"
_cell_formula_units_Z 88
_cell_length_a 24.298173
_cell_length_b 8.865995
_cell_length_c 22.622208
_cell_angle_alpha 90.000000
_cell_angle_beta 90.000000
_cell_angle_gamma 90.000000
_cell_volume 4873.445269
_symmetry_space_group_name_H-M "I M M M"
_symmetry_group_IT_number 71
_symmetry_cell_setting 'orthorhombic'
loop_
_space_group_symop_operation_xyz
x,y,z
-x,-y,z
x,-y,-z
-x,y,-z
-x,-y,-z
x,y,-z
-x,y,z
x,-y,z
1/2+x,1/2+y,1/2+z
1/2-x,1/2-y,1/2+z
1/2+x,1/2-y,1/2-z
1/2-x,1/2+y,1/2-z
1/2-x,1/2-y,1/2-z
1/2+x,1/2+y,1/2-z
1/2-x,1/2+y,1/2+z
1/2+x,1/2-y,1/2+z
loop_
_atom_site_type_symbol
_atom_site_label
_atom_site_fract_x
_atom_site_fract_y
_atom_site_fract_z
Si Si1 0.564970 0.173803 0.500000
Si Si2 0.936867 0.825314 0.657607
Si Si3 0.356978 0.173332 0.069828
Si Si4 0.378355 0.678365 0.388222
Si Si5 0.563730 0.823904 0.279145
Si Si6 0.735825 0.678328 0.565206
O O1 0.500000 0.192691 0.500000
O O2 0.587597 0.251068 0.441436
O O3 0.582701 0.000000 0.500000
O O4 0.900955 0.778496 0.601616
O O5 0.918049 0.729626 0.714366
O O6 0.000000 0.790276 0.641596
O O7 0.927883 0.000000 0.672207
O O8 0.295696 0.229494 0.089253
O O9 0.366921 0.000000 0.088262
O O10 0.364135 0.193469 0.000000
O O11 0.385013 0.500000 0.392361
O O12 0.399972 0.735392 0.325992
O O13 0.314101 0.728235 0.392310
O O14 0.500000 0.784718 0.290488
O O15 0.575323 0.000000 0.285617
O O16 0.724876 0.747822 0.500000
O O17 0.737747 0.500000 0.558711
#
# Coordination Sequence:
#
# PCOD8291705 Si02
#       6
#     8  16  16  16  16  16
#     4  11  23  35  47  71 109 145 180 225 270 311
#     4  10  21  37  56  79 108 139 173 216 264 314
#     4   9  18  34  58  83 108 139 174 212 258 315
#     4  11  20  33  55  79 104 138 181 224 269 316
#     4  10  21  37  55  75 104 141 179 220 267 320
#     4   8  15  31  53  77 105 138 175 216 263 309
#
# _framework density 18.057041000000002
#
# number of rings (size 3 to 8) (size 9 to 14) (size 15 to 20)
#    0.000    2.273    0.909    3.545    0.000    5.818 
#    0.000    4.545    0.000    0.000    0.000    0.000 
#    0.000    0.000    0.000    0.000    0.000    0.000 
#
# Total GULP energy -545572.149584 kJ/mol
# GULP energy per Si atom -12399.367036 kJ/mol
# Density = 1.801594 g / cm^3
# Si number density = 18.057041 Si / 1000 Ang^3
#
#
#
# Elastic Constant Matrix: (Units=GPa)
#
#
# Indices 1 2 3 4 5 6 
#
# 1 113.3521 48.2313 63.9399 0.0000 0.0000 0.0000
# 2 48.2313 70.2222 34.7949 0.0000 0.0000 0.0000
# 3 63.9399 34.7949 82.2267 0.0000 0.0000 0.0000
# 4 0.0000 0.0000 0.0000 29.6836 0.0000 0.0000
# 5 0.0000 0.0000 0.0000 0.0000 9.3414 0.0000
# 6 0.0000 0.0000 0.0000 0.0000 0.0000 22.6065
#
#
#
# Elastic Compliance Matrix: (Units=1/GPa)
#
#
# Indices 1 2 3 4 5 6 
#
# 1 0.018001 -0.006868 -0.011091 0.000000 0.000000 0.000000
# 2 -0.006868 0.020639 -0.003393 0.000000 0.000000 0.000000
# 3 -0.011091 -0.003393 0.022222 0.000000 0.000000 0.000000
# 4 0.000000 0.000000 0.000000 0.033689 0.000000 0.000000
# 5 0.000000 0.000000 0.000000 0.000000 0.107051 0.000000
# 6 0.000000 0.000000 0.000000 0.000000 0.000000 0.044235
#
#
# Mechanical properties :
#
#
# Convention : Reuss Voigt Hill
#
# Bulk Modulus (GPa) = 55.07458 62.19257 58.63358
# Shear Modulus (GPa) = 16.97258 20.24861 18.61059
#
# Velocity S-wave (km/s) = 3.06917 3.35232 3.21387
# Velocity P-wave (km/s) = 6.56706 7.03570 6.80542
#
# Compressibility (1/GPa) = 0.01815720
#
# Stress axis : x y z
#
# Youngs Moduli (GPa) = 55.55318 48.45229 45.00070
#
# Poissons Ratio (x) = 0.33277 0.49912
# Poissons Ratio (y) = 0.38154 0.15269
# Poissons Ratio (z) = 0.61616 0.16440
#
# Static dielectric constant tensor:
#      x y z
#    x 3.585850 0.000000 0.000000 
#    y 0.000000 3.260730 0.000000 
#    z 0.000000 0.000000 3.333610 
# 
# 
# High freq. dielectric constant tensor:
#      x y z
#    x 1.705420 0.000000 0.000000 
#    y 0.000000 1.692990 0.000000 
#    z 0.000000 0.000000 1.690590 
# 
# From -- ./inp_files/10426.got.cif
#   From: 2010.06.25/outbox.cif.g09.slc.cpg/sg71_6_cif.got.tgz:10426.got - 2010.06.28 04:59:45.
