data_PCOD8291377
_publ_section_title
;
Structure prediction by ZEFSAII (Michael W. Deem and Ramdas Pophale) SiO2 
 PCOD8291377
Probable space group: I M M M
;
_chemical_formula_sum "Si O2"
_cell_formula_units_Z 104
_cell_length_a 35.696894
_cell_length_b 12.990752
_cell_length_c 13.229163
_cell_angle_alpha 90.000000
_cell_angle_beta 90.000000
_cell_angle_gamma 90.000000
_cell_volume 6134.753105
_symmetry_space_group_name_H-M "I M M M"
_symmetry_group_IT_number 71
_symmetry_cell_setting 'orthorhombic'
loop_
_space_group_symop_operation_xyz
x,y,z
-x,-y,z
x,-y,-z
-x,y,-z
-x,-y,-z
x,y,-z
-x,y,z
x,-y,z
1/2+x,1/2+y,1/2+z
1/2-x,1/2-y,1/2+z
1/2+x,1/2-y,1/2-z
1/2-x,1/2+y,1/2-z
1/2-x,1/2-y,1/2-z
1/2+x,1/2+y,1/2-z
1/2-x,1/2+y,1/2+z
1/2+x,1/2-y,1/2+z
loop_
_atom_site_type_symbol
_atom_site_label
_atom_site_fract_x
_atom_site_fract_y
_atom_site_fract_z
Si Si1 0.086313 0.200279 0.882508
Si Si2 0.956486 0.617900 0.787730
Si Si3 0.846082 0.746323 0.253690
Si Si4 0.208557 0.378794 0.114148
Si Si5 0.541828 0.500000 0.380072
Si Si6 0.400637 0.881802 0.886002
Si Si7 0.293119 0.378585 0.886519
O O1 0.063187 0.306029 0.867265
O O2 0.124787 0.199412 0.821083
O O3 0.062677 0.102821 0.842153
O O4 0.095957 0.188983 0.000000
O O5 0.950183 0.500000 0.824428
O O6 0.938662 0.635321 0.677285
O O7 0.000000 0.645016 0.780310
O O8 0.820049 0.670771 0.191072
O O9 0.866689 0.682744 0.340583
O O10 0.821434 0.833338 0.305500
O O11 0.204625 0.500000 0.125150
O O12 0.250839 0.343723 0.140093
O O13 0.198420 0.344794 0.000000
O O14 0.500000 0.500000 0.333886
O O15 0.539692 0.500000 0.500000
O O16 0.388072 0.000000 0.883221
O O17 0.408775 0.844769 0.000000
O O18 0.296431 0.500000 0.880199
O O19 0.303176 0.341137 0.000000
#
# Coordination Sequence:
#
# PCOD8291377 Si02
#       7
#    16  16  16  16   8  16  16
#     4  10  21  33  48  73 101 129 163 202 248 295
#     4   9  18  32  50  73  98 126 163 203 245 296
#     4  11  19  30  51  73  99 126 163 202 251 290
#     4   9  18  33  51  72  99 131 165 199 242 300
#     4   9  18  34  52  66  89 129 171 201 232 286
#     4   9  18  31  46  69  99 128 159 198 245 294
#     4   9  19  34  51  71  95 127 168 208 246 292
#
# _framework density 16.952597000000001
#
# number of rings (size 3 to 8) (size 9 to 14) (size 15 to 20)
#    0.000    2.538    0.000    3.231    1.077    2.154 
#    0.000    2.308    0.000    0.000    0.000    6.462 
#    0.000    6.462    0.000    0.000    0.000    0.000 
#
# Total GULP energy -644786.716796 kJ/mol
# GULP energy per Si atom -12399.744554 kJ/mol
# Density = 1.691401 g / cm^3
# Si number density = 16.952597 Si / 1000 Ang^3
#
#
#
# Elastic Constant Matrix: (Units=GPa)
#
#
# Indices 1 2 3 4 5 6 
#
# 1 98.1065 33.3364 34.8783 0.0000 0.0000 0.0000
# 2 33.3364 61.0885 25.3598 0.0000 0.0000 0.0000
# 3 34.8783 25.3598 69.8929 0.0000 0.0000 0.0000
# 4 0.0000 0.0000 0.0000 24.1098 0.0000 0.0000
# 5 0.0000 0.0000 0.0000 0.0000 22.3391 0.0000
# 6 0.0000 0.0000 0.0000 0.0000 0.0000 30.4252
#
#
#
# Elastic Compliance Matrix: (Units=1/GPa)
#
#
# Indices 1 2 3 4 5 6 
#
# 1 0.013801 -0.005501 -0.004891 0.000000 0.000000 0.000000
# 2 -0.005501 0.021465 -0.005043 0.000000 0.000000 0.000000
# 3 -0.004891 -0.005043 0.018578 0.000000 0.000000 0.000000
# 4 0.000000 0.000000 0.000000 0.041477 0.000000 0.000000
# 5 0.000000 0.000000 0.000000 0.000000 0.044765 0.000000
# 6 0.000000 0.000000 0.000000 0.000000 0.000000 0.032867
#
#
# Mechanical properties :
#
#
# Convention : Reuss Voigt Hill
#
# Bulk Modulus (GPa) = 43.52763 46.24855 44.88809
# Shear Modulus (GPa) = 23.64263 24.40902 24.02582
#
# Velocity S-wave (km/s) = 3.73853 3.79864 3.76870
# Velocity P-wave (km/s) = 6.66088 6.82494 6.74341
#
# Compressibility (1/GPa) = 0.02297391
#
# Stress axis : x y z
#
# Youngs Moduli (GPa) = 72.45810 46.58702 53.82610
#
# Poissons Ratio (x) = 0.25627 0.26327
# Poissons Ratio (y) = 0.39858 0.27146
# Poissons Ratio (z) = 0.35441 0.23495
#
# Static dielectric constant tensor:
#      x y z
#    x 3.269360 0.000000 0.000000 
#    y 0.000000 3.107610 0.000000 
#    z 0.000000 0.000000 3.236540 
# 
# 
# High freq. dielectric constant tensor:
#      x y z
#    x 1.662630 0.000000 0.000000 
#    y 0.000000 1.649440 0.000000 
#    z 0.000000 0.000000 1.647380 
# 
# From -- ./inp_files/30030.got.cif
#   From: 2010.06.25/outbox.cif.g09.slc.cpg/sg71_16_cif.got.tgz:30030.got - 2010.06.28 04:59:45.
