data_PCOD8291555
_publ_section_title
;
Structure prediction by ZEFSAII (Michael W. Deem and Ramdas Pophale) SiO2 
 PCOD8291555
Probable space group: I M M M
;
_chemical_formula_sum "Si O2"
_cell_formula_units_Z 96
_cell_length_a 15.118576
_cell_length_b 26.315545
_cell_length_c 13.389434
_cell_angle_alpha 90.000000
_cell_angle_beta 90.000000
_cell_angle_gamma 90.000000
_cell_volume 5327.034078
_symmetry_space_group_name_H-M "I M M M"
_symmetry_group_IT_number 71
_symmetry_cell_setting 'orthorhombic'
loop_
_space_group_symop_operation_xyz
x,y,z
-x,-y,z
x,-y,-z
-x,y,-z
-x,-y,-z
x,y,-z
-x,y,z
x,-y,z
1/2+x,1/2+y,1/2+z
1/2-x,1/2-y,1/2+z
1/2+x,1/2-y,1/2-z
1/2-x,1/2+y,1/2-z
1/2-x,1/2-y,1/2-z
1/2+x,1/2+y,1/2-z
1/2-x,1/2+y,1/2+z
1/2+x,1/2-y,1/2+z
loop_
_atom_site_type_symbol
_atom_site_label
_atom_site_fract_x
_atom_site_fract_y
_atom_site_fract_z
Si Si1 0.601483 0.368131 0.882241
Si Si2 0.660769 0.717906 0.257013
Si Si3 0.768036 0.942464 0.721716
Si Si4 0.601344 0.093262 0.616563
Si Si5 0.255555 0.640375 0.616357
Si Si6 0.595369 0.820958 0.765952
O O1 0.500000 0.374033 0.845179
O O2 0.644283 0.316273 0.840691
O O3 0.657886 0.416704 0.847660
O O4 0.606155 0.364366 0.000000
O O5 0.750000 0.750000 0.250000
O O6 0.665413 0.678971 0.350992
O O7 0.586985 0.761481 0.265214
O O8 0.672134 0.944368 0.667137
O O9 0.762974 0.913276 0.827210
O O10 0.797199 0.000000 0.743441
O O11 0.621527 0.097900 0.500000
O O12 0.500000 0.074367 0.634907
O O13 0.619262 0.148362 0.665339
O O14 0.260641 0.629317 0.500000
O O15 0.163725 0.667667 0.645484
O O16 0.500000 0.838330 0.806760
#
# Coordination Sequence:
#
# PCOD8291555 Si02
#       6
#    16  16  16  16  16  16
#     4  10  21  36  54  78 108 138 169 212 266 317
#     4   9  18  31  48  73 103 134 167 202 241 292
#     4  10  21  36  54  75  99 131 174 223 269 314
#     4   9  18  32  50  75 107 138 168 208 260 317
#     4   9  19  34  50  71  99 131 168 210 254 298
#     4   9  17  30  49  74 103 133 165 200 242 298
#
# _framework density 18.021284000000001
#
# number of rings (size 3 to 8) (size 9 to 14) (size 15 to 20)
#    0.000    2.667    0.000    2.000    0.000    6.000 
#    0.000    1.667    0.000   12.000    0.000    9.333 
#    0.000    0.000    0.000    0.000    0.000    0.000 
#
# Total GULP energy -594826.916597 kJ/mol
# GULP energy per Si atom -12392.227429 kJ/mol
# Density = 1.798027 g / cm^3
# Si number density = 18.021284 Si / 1000 Ang^3
#
#
#
# Elastic Constant Matrix: (Units=GPa)
#
#
# Indices 1 2 3 4 5 6 
#
# 1 86.8975 35.9802 37.4707 0.0000 0.0000 0.0000
# 2 35.9802 128.3099 40.3721 0.0001 0.0000 0.0000
# 3 37.4707 40.3721 119.1283 0.0000 0.0000 -0.0001
# 4 0.0000 0.0001 0.0000 12.0962 0.0000 0.0000
# 5 0.0000 0.0000 0.0000 0.0000 21.8553 0.0000
# 6 0.0000 0.0000 -0.0001 0.0000 0.0000 15.1014
#
#
#
# Elastic Compliance Matrix: (Units=1/GPa)
#
#
# Indices 1 2 3 4 5 6 
#
# 1 0.014208 -0.002886 -0.003491 0.000000 0.000000 0.000000
# 2 -0.002886 0.009310 -0.002247 0.000000 0.000000 0.000000
# 3 -0.003491 -0.002247 0.010254 0.000000 0.000000 0.000000
# 4 0.000000 0.000000 0.000000 0.082670 0.000000 0.000000
# 5 0.000000 0.000000 0.000000 0.000000 0.045755 0.000000
# 6 0.000000 0.000000 0.000000 0.000000 0.000000 0.066219
#
#
# Mechanical properties :
#
#
# Convention : Reuss Voigt Hill
#
# Bulk Modulus (GPa) = 60.51938 62.44239 61.48089
# Shear Modulus (GPa) = 19.90657 24.51144 22.20901
#
# Velocity S-wave (km/s) = 3.32718 3.69201 3.51433
# Velocity P-wave (km/s) = 6.95811 7.27317 7.11738
#
# Compressibility (1/GPa) = 0.01652363
#
# Stress axis : x y z
#
# Youngs Moduli (GPa) = 70.38290 107.41163 97.52268
#
# Poissons Ratio (x) = 0.30996 0.34045
# Poissons Ratio (y) = 0.20311 0.21918
# Poissons Ratio (z) = 0.24571 0.24140
#
# Static dielectric constant tensor:
#      x y z
#    x 3.462410 0.000000 0.000000 
#    y 0.000000 3.465350 0.000000 
#    z 0.000000 0.000000 3.070470 
# 
# 
# High freq. dielectric constant tensor:
#      x y z
#    x 1.704500 0.000000 0.000000 
#    y 0.000000 1.696240 0.000000 
#    z 0.000000 0.000000 1.675860 
# 
# From -- ./inp_files/24459.got.cif
#   From: 2010.06.25/outbox.cif.g09.slc.cpg/sg71_13_cif.got.tgz:24459.got - 2010.06.28 04:59:45.
