data_PCOD8291972
_publ_section_title
;
Structure prediction by ZEFSAII (Michael W. Deem and Ramdas Pophale) SiO2 
 PCOD8291972
Probable space group: I M M M
;
_chemical_formula_sum "Si O2"
_cell_formula_units_Z 56
_cell_length_a 7.608738
_cell_length_b 23.117842
_cell_length_c 15.322834
_cell_angle_alpha 90.000000
_cell_angle_beta 90.000000
_cell_angle_gamma 90.000000
_cell_volume 2695.249770
_symmetry_space_group_name_H-M "I M M M"
_symmetry_group_IT_number 71
_symmetry_cell_setting 'orthorhombic'
loop_
_space_group_symop_operation_xyz
x,y,z
-x,-y,z
x,-y,-z
-x,y,-z
-x,-y,-z
x,y,-z
-x,y,z
x,-y,z
1/2+x,1/2+y,1/2+z
1/2-x,1/2-y,1/2+z
1/2+x,1/2-y,1/2-z
1/2-x,1/2+y,1/2-z
1/2-x,1/2-y,1/2-z
1/2+x,1/2+y,1/2-z
1/2-x,1/2+y,1/2+z
1/2+x,1/2-y,1/2+z
loop_
_atom_site_type_symbol
_atom_site_label
_atom_site_fract_x
_atom_site_fract_y
_atom_site_fract_z
Si Si1 0.500000 0.000000 0.356095
Si Si2 0.801483 0.896001 0.095721
Si Si3 0.288831 0.500000 0.712806
Si Si4 0.500000 0.095473 0.500000
Si Si5 0.706850 0.689891 0.000000
Si Si6 0.203209 0.726503 0.344153
O O1 0.681441 0.000000 0.302335
O O2 0.500000 0.057468 0.413492
O O3 0.801447 0.833466 0.140431
O O4 0.000000 0.915362 0.081119
O O5 0.719788 0.943989 0.159410
O O6 0.707315 0.894700 0.000000
O O7 0.500000 0.500000 0.732063
O O8 0.321363 0.132345 0.500000
O O9 0.761433 0.726450 0.084911
O O10 0.500000 0.673723 0.000000
O O11 0.250000 0.750000 0.250000
O O12 0.000000 0.712633 0.353471
#
# Coordination Sequence:
#
# PCOD8291972 Si02
#       6
#     4  16   8   4   8  16
#     4  11  28  50  67 106 118 178 231 282 332 397
#     4  10  21  39  63  92 131 175 214 260 329 398
#     4  10  24  43  67  97 135 171 223 277 326 392
#     4  11  28  48  76  86 138 173 224 282 344 379
#     4  10  25  45  67 101 135 173 221 273 336 405
#     4  11  24  39  61  95 132 170 219 273 333 396
#
# _framework density 20.777296
#
# number of rings (size 3 to 8) (size 9 to 14) (size 15 to 20)
#    0.000    1.571    1.429    1.286   10.000    2.857 
#    0.000    2.143    0.000    0.000    0.000    0.000 
#    0.000    0.000    0.000    0.000    0.000    0.000 
#
# Total GULP energy -347208.361758 kJ/mol
# GULP energy per Si atom -12400.298634 kJ/mol
# Density = 2.073001 g / cm^3
# Si number density = 20.777296 Si / 1000 Ang^3
#
#
#
# Elastic Constant Matrix: (Units=GPa)
#
#
# Indices 1 2 3 4 5 6 
#
# 1 71.7773 45.7786 39.3269 -0.0001 0.0000 0.0000
# 2 45.7786 174.7201 93.1695 0.0002 0.0000 0.0000
# 3 39.3269 93.1695 193.1735 0.0010 0.0000 0.0000
# 4 -0.0001 0.0002 0.0010 15.1833 -0.0001 -0.0001
# 5 0.0000 0.0000 0.0000 -0.0001 29.0805 0.0000
# 6 0.0000 0.0000 0.0000 -0.0001 0.0000 30.2731
#
#
#
# Elastic Compliance Matrix: (Units=1/GPa)
#
#
# Indices 1 2 3 4 5 6 
#
# 1 0.017173 -0.003548 -0.001785 0.000000 0.000000 0.000000
# 2 -0.003548 0.008438 -0.003348 0.000000 0.000000 0.000000
# 3 -0.001785 -0.003348 0.007155 0.000000 0.000000 0.000000
# 4 0.000000 0.000000 0.000000 0.065862 0.000000 0.000000
# 5 0.000000 0.000000 0.000000 0.000000 0.034387 0.000000
# 6 0.000000 0.000000 0.000000 0.000000 0.000000 0.033033
#
#
# Mechanical properties :
#
#
# Convention : Reuss Voigt Hill
#
# Bulk Modulus (GPa) = 64.91380 88.46898 76.69139
# Shear Modulus (GPa) = 26.51926 32.33378 29.42652
#
# Velocity S-wave (km/s) = 3.57649 3.94916 3.76744
# Velocity P-wave (km/s) = 6.95453 7.96659 7.47770
#
# Compressibility (1/GPa) = 0.01540504
#
# Stress axis : x y z
#
# Youngs Moduli (GPa) = 58.23237 118.51168 139.76953
#
# Poissons Ratio (x) = 0.42042 0.24949
# Poissons Ratio (y) = 0.20658 0.46788
# Poissons Ratio (z) = 0.10395 0.39672
#
# Static dielectric constant tensor:
#      x y z
#    x 3.697820 0.000000 0.000000 
#    y 0.000000 3.716040 0.000000 
#    z 0.000000 0.000000 3.946820 
# 
# 
# High freq. dielectric constant tensor:
#      x y z
#    x 1.811680 0.000000 0.000000 
#    y 0.000000 1.821060 0.000000 
#    z 0.000000 0.000000 1.825090 
# 
# From -- ./inp_files/31014.got.cif
#   From: 2010.06.25/outbox.cif.g09.slc.cpg/sg71_16_cif.got.tgz:31014.got - 2010.06.28 04:59:45.
