data_PCOD8291226
_publ_section_title
;
Structure prediction by ZEFSAII (Michael W. Deem and Ramdas Pophale) SiO2 
 PCOD8291226
Probable space group: I M M M
;
_chemical_formula_sum "Si O2"
_cell_formula_units_Z 104
_cell_length_a 16.685547
_cell_length_b 29.129534
_cell_length_c 11.936856
_cell_angle_alpha 90.000000
_cell_angle_beta 90.000000
_cell_angle_gamma 90.000000
_cell_volume 5801.815855
_symmetry_space_group_name_H-M "I M M M"
_symmetry_group_IT_number 71
_symmetry_cell_setting 'orthorhombic'
loop_
_space_group_symop_operation_xyz
x,y,z
-x,-y,z
x,-y,-z
-x,y,-z
-x,-y,-z
x,y,-z
-x,y,z
x,-y,z
1/2+x,1/2+y,1/2+z
1/2-x,1/2-y,1/2+z
1/2+x,1/2-y,1/2-z
1/2-x,1/2+y,1/2-z
1/2-x,1/2-y,1/2-z
1/2+x,1/2+y,1/2-z
1/2-x,1/2+y,1/2+z
1/2+x,1/2-y,1/2+z
loop_
_atom_site_type_symbol
_atom_site_label
_atom_site_fract_x
_atom_site_fract_y
_atom_site_fract_z
Si Si1 0.591790 0.208660 0.378676
Si Si2 0.908900 0.191083 0.867719
Si Si3 0.910410 0.948356 0.629207
Si Si4 0.760800 0.052138 0.000000
Si Si5 0.621439 0.119542 0.757300
Si Si6 0.000000 0.445296 0.866523
Si Si7 0.089219 0.588504 0.500000
Si Si8 0.303480 0.608997 0.287175
O O1 0.630412 0.194431 0.500000
O O2 0.500000 0.219275 0.401841
O O3 0.624972 0.257970 0.336176
O O4 0.598331 0.169274 0.287224
O O5 0.845454 0.157005 0.812411
O O6 0.000000 0.182217 0.823068
O O7 0.907260 0.183898 0.000000
O O8 0.910519 0.934950 0.500000
O O9 0.852116 0.914233 0.689672
O O10 0.000000 0.943521 0.678361
O O11 0.879055 0.000000 0.646633
O O12 0.800016 0.076499 0.105597
O O13 0.663047 0.052651 0.000000
O O14 0.789245 0.000000 0.000000
O O15 0.577918 0.078410 0.689100
O O16 0.597217 0.119289 0.888314
O O17 0.715290 0.115466 0.738635
O O18 0.000000 0.500000 0.840538
O O19 0.000000 0.436229 0.000000
O O20 0.000000 0.565034 0.500000
#
# Coordination Sequence:
#
# PCOD8291226 Si02
#       8
#    16  16  16   8  16   8   8  16
#     4   9  17  33  59  83 105 141 191 236 275 335
#     4   9  18  34  58  84 109 144 185 231 288 330
#     4   9  19  36  56  76 102 144 188 224 268 333
#     4  10  22  35  51  80 112 149 183 226 280 324
#     4  11  22  36  57  82 114 152 186 226 282 334
#     4  11  24  41  61  87 117 146 189 249 291 324
#     4  10  20  37  54  77 107 156 192 227 264 331
#     4  11  21  35  55  81 117 143 178 238 280 334
#
# _framework density 17.925422999999999
#
# number of rings (size 3 to 8) (size 9 to 14) (size 15 to 20)
#    0.000    2.077    2.308    2.769    0.000    5.077 
#    0.000    1.538    1.692    1.846    0.000    0.000 
#    0.000    0.000    0.000    0.000    0.000    0.000 
#
# Total GULP energy -644471.910279 kJ/mol
# GULP energy per Si atom -12393.690582 kJ/mol
# Density = 1.788462 g / cm^3
# Si number density = 17.925423 Si / 1000 Ang^3
#
#
#
# Elastic Constant Matrix: (Units=GPa)
#
#
# Indices 1 2 3 4 5 6 
#
# 1 91.7020 57.0046 36.4666 0.0000 0.0001 0.0000
# 2 57.0046 140.3666 59.9668 0.0001 -0.0001 0.0000
# 3 36.4666 59.9668 85.3719 -0.0006 0.0006 0.0001
# 4 0.0000 0.0001 -0.0006 22.1512 0.0002 0.0001
# 5 0.0001 -0.0001 0.0006 0.0002 21.5726 0.0000
# 6 0.0000 0.0000 0.0001 0.0001 0.0000 27.1031
#
#
#
# Elastic Compliance Matrix: (Units=1/GPa)
#
#
# Indices 1 2 3 4 5 6 
#
# 1 0.015129 -0.004834 -0.003067 0.000000 0.000000 0.000000
# 2 -0.004834 0.011723 -0.006170 0.000000 0.000000 0.000000
# 3 -0.003067 -0.006170 0.017357 0.000000 0.000000 0.000000
# 4 0.000000 0.000000 0.000000 0.045144 0.000000 0.000000
# 5 0.000000 0.000000 0.000000 0.000000 0.046355 0.000000
# 6 0.000000 0.000000 0.000000 0.000000 0.000000 0.036896
#
#
# Mechanical properties :
#
#
# Convention : Reuss Voigt Hill
#
# Bulk Modulus (GPa) = 62.23411 69.36850 65.80130
# Shear Modulus (GPa) = 24.25969 25.09887 24.67928
#
# Velocity S-wave (km/s) = 3.68281 3.74596 3.71452
# Velocity P-wave (km/s) = 7.27171 7.58235 7.42865
#
# Compressibility (1/GPa) = 0.01606836
#
# Stress axis : x y z
#
# Youngs Moduli (GPa) = 66.09605 85.30148 57.61268
#
# Poissons Ratio (x) = 0.41234 0.17670
# Poissons Ratio (y) = 0.31951 0.35545
# Poissons Ratio (z) = 0.20272 0.52629
#
# Static dielectric constant tensor:
#      x y z
#    x 3.608940 0.000000 0.000000 
#    y 0.000000 3.332910 0.000000 
#    z 0.000000 0.000000 3.289890 
# 
# 
# High freq. dielectric constant tensor:
#      x y z
#    x 1.691490 0.000000 0.000000 
#    y 0.000000 1.694320 0.000000 
#    z 0.000000 0.000000 1.691330 
# 
# From -- ./inp_files/24620.got.cif
#   From: 2010.06.25/outbox.cif.g09.slc.cpg/sg71_13_cif.got.tgz:24620.got - 2010.06.28 04:59:45.
