data_PCOD8291353
_publ_section_title
;
Structure prediction by ZEFSAII (Michael W. Deem and Ramdas Pophale) SiO2 
 PCOD8291353
Probable space group: I M M M
;
_chemical_formula_sum "Si O2"
_cell_formula_units_Z 64
_cell_length_a 23.925551
_cell_length_b 15.560757
_cell_length_c 8.716014
_cell_angle_alpha 90.000000
_cell_angle_beta 90.000000
_cell_angle_gamma 90.000000
_cell_volume 3244.969268
_symmetry_space_group_name_H-M "I M M M"
_symmetry_group_IT_number 71
_symmetry_cell_setting 'orthorhombic'
loop_
_space_group_symop_operation_xyz
x,y,z
-x,-y,z
x,-y,-z
-x,y,-z
-x,-y,-z
x,y,-z
-x,y,z
x,-y,z
1/2+x,1/2+y,1/2+z
1/2-x,1/2-y,1/2+z
1/2+x,1/2-y,1/2-z
1/2-x,1/2+y,1/2-z
1/2-x,1/2-y,1/2-z
1/2+x,1/2+y,1/2-z
1/2-x,1/2+y,1/2+z
1/2+x,1/2-y,1/2+z
loop_
_atom_site_type_symbol
_atom_site_label
_atom_site_fract_x
_atom_site_fract_y
_atom_site_fract_z
Si Si1 0.723327 0.665522 0.318858
Si Si2 0.500000 0.688750 0.177621
Si Si3 0.500000 0.128163 0.319614
Si Si4 0.584150 0.000000 0.817372
Si Si5 0.789052 0.500000 0.682162
Si Si6 0.615014 0.401948 0.179315
O O1 0.727025 0.671130 0.500000
O O2 0.750000 0.750000 0.250000
O O3 0.757677 0.583995 0.253897
O O4 0.659028 0.657171 0.268836
O O5 0.500000 0.771666 0.284429
O O6 0.446530 0.631542 0.218129
O O7 0.500000 0.717381 0.000000
O O8 0.500000 0.111755 0.500000
O O9 0.444952 0.085491 0.246840
O O10 0.647581 0.000000 0.757996
O O11 0.579941 0.000000 0.000000
O O12 0.787661 0.500000 0.500000
O O13 0.619604 0.500000 0.236874
O O14 0.627790 0.395029 0.000000
#
# Coordination Sequence:
#
# PCOD8291353 Si02
#       6
#    16   8   8   8   8  16
#     4  11  23  41  62  91 125 162 202 249 302 361
#     4  10  22  39  62  87 117 157 200 243 294 359
#     4  11  23  39  56  88 124 151 191 250 301 350
#     4  10  20  39  64  84 111 159 203 239 294 358
#     4   9  21  40  63  87 119 158 202 245 294 359
#     4  10  21  40  64  90 118 154 200 250 298 353
#
# _framework density 19.722836999999998
#
# number of rings (size 3 to 8) (size 9 to 14) (size 15 to 20)
#    0.000    1.750    1.250    3.375    3.500    2.500 
#    0.000    3.750    0.000    2.250    0.000    0.000 
#    0.000    0.000    0.000    0.000    0.000    0.000 
#
# Total GULP energy -396959.139960 kJ/mol
# GULP energy per Si atom -12404.973124 kJ/mol
# Density = 1.967795 g / cm^3
# Si number density = 19.722837 Si / 1000 Ang^3
#
#
#
# Elastic Constant Matrix: (Units=GPa)
#
#
# Indices 1 2 3 4 5 6 
#
# 1 171.7472 70.8010 47.3460 0.0000 0.0000 0.0000
# 2 70.8010 153.2123 45.6874 0.0000 0.0000 0.0000
# 3 47.3460 45.6874 78.5588 0.0000 0.0000 0.0000
# 4 0.0000 0.0000 0.0000 28.9627 0.0000 0.0000
# 5 0.0000 0.0000 0.0000 0.0000 21.6335 0.0000
# 6 0.0000 0.0000 0.0000 0.0000 0.0000 26.3367
#
#
#
# Elastic Compliance Matrix: (Units=1/GPa)
#
#
# Indices 1 2 3 4 5 6 
#
# 1 0.007786 -0.002660 -0.003146 0.000000 0.000000 0.000000
# 2 -0.002660 0.008805 -0.003518 0.000000 0.000000 0.000000
# 3 -0.003146 -0.003518 0.016671 0.000000 0.000000 0.000000
# 4 0.000000 0.000000 0.000000 0.034527 0.000000 0.000000
# 5 0.000000 0.000000 0.000000 0.000000 0.046225 0.000000
# 6 0.000000 0.000000 0.000000 0.000000 0.000000 0.037970
#
#
# Mechanical properties :
#
#
# Convention : Reuss Voigt Hill
#
# Bulk Modulus (GPa) = 68.41998 81.24301 74.83149
# Shear Modulus (GPa) = 28.48966 31.36550 29.92758
#
# Velocity S-wave (km/s) = 3.80478 3.99220 3.89962
# Velocity P-wave (km/s) = 7.35309 7.90772 7.63544
#
# Compressibility (1/GPa) = 0.01461561
#
# Stress axis : x y z
#
# Youngs Moduli (GPa) = 128.43114 113.57084 59.98499
#
# Poissons Ratio (x) = 0.30211 0.18869
# Poissons Ratio (y) = 0.34164 0.21100
# Poissons Ratio (z) = 0.40400 0.39949
#
# Static dielectric constant tensor:
#      x y z
#    x 3.797670 0.000000 0.000000 
#    y 0.000000 3.677210 0.000000 
#    z 0.000000 0.000000 3.435200 
# 
# 
# High freq. dielectric constant tensor:
#      x y z
#    x 1.782950 0.000000 0.000000 
#    y 0.000000 1.777780 0.000000 
#    z 0.000000 0.000000 1.757010 
# 
# From -- ./inp_files/12034.got.cif
#   From: 2010.06.25/outbox.cif.g09.slc.cpg/sg71_7_cif.got.tgz:12034.got - 2010.06.28 04:59:45.
