data_PCOD8291360
_publ_section_title
;
Structure prediction by ZEFSAII (Michael W. Deem and Ramdas Pophale) SiO2 
 PCOD8291360
Probable space group: I M M M
;
_chemical_formula_sum "Si O2"
_cell_formula_units_Z 104
_cell_length_a 15.710659
_cell_length_b 14.764220
_cell_length_c 21.914869
_cell_angle_alpha 90.000000
_cell_angle_beta 90.000000
_cell_angle_gamma 90.000000
_cell_volume 5083.277154
_symmetry_space_group_name_H-M "I M M M"
_symmetry_group_IT_number 71
_symmetry_cell_setting 'orthorhombic'
loop_
_space_group_symop_operation_xyz
x,y,z
-x,-y,z
x,-y,-z
-x,y,-z
-x,-y,-z
x,y,-z
-x,y,z
x,-y,z
1/2+x,1/2+y,1/2+z
1/2-x,1/2-y,1/2+z
1/2+x,1/2-y,1/2-z
1/2-x,1/2+y,1/2-z
1/2-x,1/2-y,1/2-z
1/2+x,1/2+y,1/2-z
1/2-x,1/2+y,1/2+z
1/2+x,1/2-y,1/2+z
loop_
_atom_site_type_symbol
_atom_site_label
_atom_site_fract_x
_atom_site_fract_y
_atom_site_fract_z
Si Si1 0.000000 0.608353 0.432717
Si Si2 0.597811 0.352158 0.235919
Si Si3 0.402734 0.857521 0.738270
Si Si4 0.717642 0.273344 0.570932
Si Si5 0.400347 0.399601 0.370347
Si Si6 0.753323 0.603299 0.146889
Si Si7 0.658736 0.099349 0.864392
O O1 0.918736 0.648223 0.398964
O O2 0.000000 0.500000 0.429794
O O3 0.000000 0.647847 0.500000
O O4 0.500000 0.383947 0.219977
O O5 0.599731 0.245231 0.241193
O O6 0.631405 0.392116 0.300006
O O7 0.665809 0.381031 0.184234
O O8 0.500000 0.887373 0.722434
O O9 0.340412 0.877459 0.682715
O O10 0.364459 0.914127 0.794032
O O11 0.742074 0.287307 0.500000
O O12 0.624377 0.314824 0.584939
O O13 0.738279 0.169816 0.588411
O O14 0.762551 0.338046 0.620730
O O15 0.500000 0.391502 0.367558
O O16 0.371906 0.500000 0.394614
O O17 0.753259 0.500000 0.123228
O O18 0.677687 0.000000 0.891686
#
# Coordination Sequence:
#
# PCOD8291360 Si02
#       7
#     8  16  16  16  16  16  16
#     4   9  18  32  50  78 119 161 194 222 270 351
#     4  10  20  39  67  96 127 160 196 248 316 377
#     4  11  21  38  65  96 130 162 196 247 313 377
#     4  12  26  43  60  83 119 163 213 260 300 355
#     4  10  21  39  65  96 126 156 194 248 316 381
#     4  12  25  41  64  91 122 164 211 259 312 364
#     4  11  21  35  58  89 122 156 192 238 299 366
#
# _framework density 20.459242
#
# number of rings (size 3 to 8) (size 9 to 14) (size 15 to 20)
#    0.000    1.154    3.846    3.231    0.000    4.308 
#    0.000    0.769    0.000    0.000    0.000    3.231 
#    0.000    0.000    0.000    0.000    0.000    0.000 
#
# Total GULP energy -644292.474314 kJ/mol
# GULP energy per Si atom -12390.239891 kJ/mol
# Density = 2.041268 g / cm^3
# Si number density = 20.459242 Si / 1000 Ang^3
#
#
#
# Elastic Constant Matrix: (Units=GPa)
#
#
# Indices 1 2 3 4 5 6 
#
# 1 90.0593 21.0898 33.6479 0.0000 0.0000 0.0000
# 2 21.0898 123.1094 22.3555 0.0000 0.0000 0.0000
# 3 33.6479 22.3555 75.7209 0.0000 0.0000 0.0000
# 4 0.0000 0.0000 0.0000 8.5417 0.0000 0.0000
# 5 0.0000 0.0000 0.0000 0.0000 -10.2640 0.0000
# 6 0.0000 0.0000 0.0000 0.0000 0.0000 49.8293
#
#
#
# Elastic Compliance Matrix: (Units=1/GPa)
#
#
# Indices 1 2 3 4 5 6 
#
# 1 0.013506 -0.001293 -0.005620 0.000000 0.000000 0.000000
# 2 -0.001293 0.008707 -0.001996 0.000000 0.000000 0.000000
# 3 -0.005620 -0.001996 0.016293 0.000000 0.000000 0.000000
# 4 0.000000 0.000000 0.000000 0.117073 0.000000 0.000000
# 5 0.000000 0.000000 0.000000 0.000000 -0.097428 0.000000
# 6 0.000000 0.000000 0.000000 0.000000 0.000000 0.020068
#
#
# Mechanical properties :
#
#
# Convention : Reuss Voigt Hill
#
# Bulk Modulus (GPa) = 48.33725 49.23065 48.78395
# Shear Modulus (GPa) = 48.57484 23.74117 36.15801
#
# Velocity S-wave (km/s) = 4.87789 3.41018 4.20851
# Velocity P-wave (km/s) = 7.44328 6.29450 6.89287
#
# Compressibility (1/GPa) = 0.02068798
#
# Stress axis : x y z
#
# Youngs Moduli (GPa) = 74.03912 114.85232 61.37615
#
# Poissons Ratio (x) = 0.14853 0.34493
# Poissons Ratio (y) = 0.09575 0.12250
# Poissons Ratio (z) = 0.41610 0.22923
#
# Static dielectric constant tensor:
#      x y z
#    x 4.036900 0.000000 0.000000 
#    y 0.000000 3.922410 0.000000 
#    z 0.000000 0.000000 3.522860 
# 
# 
# High freq. dielectric constant tensor:
#      x y z
#    x 1.817730 0.000000 0.000000 
#    y 0.000000 1.797310 0.000000 
#    z 0.000000 0.000000 1.765680 
# 
# From -- ./inp_files/54134.got.cif
#   From: 2010.06.25/outbox.cif.g09.slc.cpg/sg71_28_cif.got.tgz:54134.got - 2010.06.28 04:59:45.
