data_PCOD8291942
_publ_section_title
;
Structure prediction by ZEFSAII (Michael W. Deem and Ramdas Pophale) SiO2 
 PCOD8291942
Probable space group: I M M M
;
_chemical_formula_sum "Si O2"
_cell_formula_units_Z 96
_cell_length_a 24.312662
_cell_length_b 8.829848
_cell_length_c 22.533327
_cell_angle_alpha 90.000000
_cell_angle_beta 90.000000
_cell_angle_gamma 90.000000
_cell_volume 4837.389518
_symmetry_space_group_name_H-M "I M M M"
_symmetry_group_IT_number 71
_symmetry_cell_setting 'orthorhombic'
loop_
_space_group_symop_operation_xyz
x,y,z
-x,-y,z
x,-y,-z
-x,y,-z
-x,-y,-z
x,y,-z
-x,y,z
x,-y,z
1/2+x,1/2+y,1/2+z
1/2-x,1/2-y,1/2+z
1/2+x,1/2-y,1/2-z
1/2-x,1/2+y,1/2-z
1/2-x,1/2-y,1/2-z
1/2+x,1/2+y,1/2-z
1/2-x,1/2+y,1/2+z
1/2+x,1/2-y,1/2+z
loop_
_atom_site_type_symbol
_atom_site_label
_atom_site_fract_x
_atom_site_fract_y
_atom_site_fract_z
Si Si1 0.500000 0.821600 0.217159
Si Si2 0.805808 0.679777 0.896029
Si Si3 0.392111 0.325184 0.170325
Si Si4 0.804893 0.824437 0.226776
Si Si5 0.089390 0.173763 0.934260
Si Si6 0.685589 0.680014 0.933351
Si Si7 0.000000 0.679638 0.852648
O O1 0.552814 0.767643 0.180760
O O2 0.500000 0.758808 0.284853
O O3 0.500000 0.000000 0.218906
O O4 0.808381 0.500000 0.900170
O O5 0.823495 0.734982 0.831146
O O6 0.850341 0.752286 0.939831
O O7 0.745348 0.741299 0.913314
O O8 0.407876 0.500000 0.161597
O O9 0.352458 0.302587 0.225748
O O10 0.361414 0.260734 0.111478
O O11 0.750000 0.750000 0.250000
O O12 0.794189 0.000000 0.212799
O O13 0.053797 0.261228 0.885846
O O14 0.093741 0.000000 0.913720
O O15 0.062640 0.185044 0.000000
O O16 0.687676 0.500000 0.930236
O O17 0.672178 0.736648 0.000000
O O18 0.000000 0.500000 0.854400
#
# Coordination Sequence:
#
# PCOD8291942 Si02
#       7
#     8  16  16  16  16  16   8
#     4  11  25  42  61  88 116 149 190 245 304 355
#     4  11  21  36  58  88 122 159 202 244 293 352
#     4  10  21  39  61  87 116 152 196 239 290 352
#     4  11  21  35  57  88 122 156 196 244 300 356
#     4  11  24  40  58  85 122 161 201 246 297 354
#     4   9  18  35  59  86 116 150 193 242 287 341
#     4  11  24  42  63  85 111 150 204 253 298 355
#
# _framework density 19.845414000000002
#
# number of rings (size 3 to 8) (size 9 to 14) (size 15 to 20)
#    0.000    1.500    1.667    3.750    0.000    8.333 
#    0.000    0.417    0.000    5.000    0.000    0.000 
#    0.000    0.000    0.000    0.000    0.000    0.000 
#
# Total GULP energy -595286.195718 kJ/mol
# GULP energy per Si atom -12401.795744 kJ/mol
# Density = 1.980025 g / cm^3
# Si number density = 19.845414 Si / 1000 Ang^3
#
#
#
# Elastic Constant Matrix: (Units=GPa)
#
#
# Indices 1 2 3 4 5 6 
#
# 1 140.8740 43.7375 57.5703 0.0000 0.0000 0.0000
# 2 43.7375 71.8385 32.0160 0.0000 0.0000 0.0000
# 3 57.5703 32.0160 135.8115 0.0000 0.0000 0.0000
# 4 0.0000 0.0000 0.0000 26.7711 0.0000 0.0000
# 5 0.0000 0.0000 0.0000 0.0000 39.7872 0.0000
# 6 0.0000 0.0000 0.0000 0.0000 0.0000 32.1409
#
#
#
# Elastic Compliance Matrix: (Units=1/GPa)
#
#
# Indices 1 2 3 4 5 6 
#
# 1 0.009774 -0.004586 -0.003062 0.000000 0.000000 0.000000
# 2 -0.004586 0.017706 -0.002230 0.000000 0.000000 0.000000
# 3 -0.003062 -0.002230 0.009187 0.000000 0.000000 0.000000
# 4 0.000000 0.000000 0.000000 0.037354 0.000000 0.000000
# 5 0.000000 0.000000 0.000000 0.000000 0.025134 0.000000
# 6 0.000000 0.000000 0.000000 0.000000 0.000000 0.031113
#
#
# Mechanical properties :
#
#
# Convention : Reuss Voigt Hill
#
# Bulk Modulus (GPa) = 59.13420 68.35239 63.74329
# Shear Modulus (GPa) = 32.12139 34.08654 33.10396
#
# Velocity S-wave (km/s) = 4.02752 4.14889 4.08866
# Velocity P-wave (km/s) = 7.17565 7.58078 7.38100
#
# Compressibility (1/GPa) = 0.01691069
#
# Stress axis : x y z
#
# Youngs Moduli (GPa) = 102.31590 56.47806 108.85172
#
# Poissons Ratio (x) = 0.25900 0.33330
# Poissons Ratio (y) = 0.46921 0.24274
# Poissons Ratio (z) = 0.31329 0.12595
#
# Static dielectric constant tensor:
#      x y z
#    x 3.608770 0.000000 0.000000 
#    y 0.000000 3.524920 0.000000 
#    z 0.000000 0.000000 3.764750 
# 
# 
# High freq. dielectric constant tensor:
#      x y z
#    x 1.776740 0.000000 0.000000 
#    y 0.000000 1.761260 0.000000 
#    z 0.000000 0.000000 1.782710 
# 
# From -- ./inp_files/61566.got.cif
#   From: 2010.06.25/outbox.cif.g09.slc.cpg/sg71_31_cif.got.tgz:61566.got - 2010.06.28 04:59:45.
