data_PCOD8291753
_publ_section_title
;
Structure prediction by ZEFSAII (Michael W. Deem and Ramdas Pophale) SiO2 
 PCOD8291753
Probable space group: I M M M
;
_chemical_formula_sum "Si O2"
_cell_formula_units_Z 72
_cell_length_a 12.296405
_cell_length_b 8.759234
_cell_length_c 31.888824
_cell_angle_alpha 90.000000
_cell_angle_beta 90.000000
_cell_angle_gamma 90.000000
_cell_volume 3434.652397
_symmetry_space_group_name_H-M "I M M M"
_symmetry_group_IT_number 71
_symmetry_cell_setting 'orthorhombic'
loop_
_space_group_symop_operation_xyz
x,y,z
-x,-y,z
x,-y,-z
-x,y,-z
-x,-y,-z
x,y,-z
-x,y,z
x,-y,z
1/2+x,1/2+y,1/2+z
1/2-x,1/2-y,1/2+z
1/2+x,1/2-y,1/2-z
1/2-x,1/2+y,1/2-z
1/2-x,1/2-y,1/2-z
1/2+x,1/2+y,1/2-z
1/2-x,1/2+y,1/2+z
1/2+x,1/2-y,1/2+z
loop_
_atom_site_type_symbol
_atom_site_label
_atom_site_fract_x
_atom_site_fract_y
_atom_site_fract_z
Si Si1 0.817000 0.822132 0.897068
Si Si2 0.878994 0.179019 0.362326
Si Si3 0.374753 0.831367 0.686032
Si Si4 0.000000 0.675041 0.950566
Si Si5 0.372861 0.820695 0.222818
O O1 0.696159 0.748425 0.899086
O O2 0.867118 0.788982 0.851457
O O3 0.891355 0.752039 0.933157
O O4 0.808896 0.000000 0.905097
O O5 0.822091 0.226825 0.317256
O O6 0.000000 0.249626 0.366531
O O7 0.884838 0.000000 0.366825
O O8 0.500000 0.856441 0.697276
O O9 0.325314 0.770703 0.731039
O O10 0.327125 0.000000 0.673129
O O11 0.000000 0.500000 0.936123
O O12 0.000000 0.694316 0.000000
O O13 0.500000 0.779364 0.220132
O O14 0.352207 0.000000 0.215656
#
# Coordination Sequence:
#
# PCOD8291753 Si02
#       5
#    16  16  16   8  16
#     4  12  24  37  60  91 121 155 193 243 301 359
#     4  10  21  37  57  82 116 162 211 254 294 346
#     4   9  17  31  52  77 113 158 202 251 300 353
#     4  11  25  47  73  97 123 153 187 235 299 369
#     4   8  15  29  49  75 109 154 204 255 303 343
#
# _framework density 20.962819
#
# number of rings (size 3 to 8) (size 9 to 14) (size 15 to 20)
#    0.000    2.111    1.111    4.333    0.000    4.000 
#    0.000    2.222    0.000    0.667    0.000    4.667 
#    0.000    0.000    0.000    0.000    0.000    0.000 
#
# Total GULP energy -446330.206139 kJ/mol
# GULP energy per Si atom -12398.061282 kJ/mol
# Density = 2.091511 g / cm^3
# Si number density = 20.962819 Si / 1000 Ang^3
#
#
#
# Elastic Constant Matrix: (Units=GPa)
#
#
# Indices 1 2 3 4 5 6 
#
# 1 88.5614 24.1106 42.6927 0.0000 0.0000 0.0000
# 2 24.1106 115.7494 43.7947 0.0000 0.0000 0.0000
# 3 42.6927 43.7947 68.4813 0.0000 0.0000 0.0000
# 4 0.0000 0.0000 0.0000 27.1406 0.0000 0.0000
# 5 0.0000 0.0000 0.0000 0.0000 -45.4869 0.0000
# 6 0.0000 0.0000 0.0000 0.0000 0.0000 23.1424
#
#
#
# Elastic Compliance Matrix: (Units=1/GPa)
#
#
# Indices 1 2 3 4 5 6 
#
# 1 0.016173 0.000588 -0.010459 0.000000 0.000000 0.000000
# 2 0.000588 0.011418 -0.007669 0.000000 0.000000 0.000000
# 3 -0.010459 -0.007669 0.026027 0.000000 0.000000 0.000000
# 4 0.000000 0.000000 0.000000 0.036845 0.000000 0.000000
# 5 0.000000 0.000000 0.000000 0.000000 -0.021984 0.000000
# 6 0.000000 0.000000 0.000000 0.000000 0.000000 0.043211
#
#
# Mechanical properties :
#
#
# Convention : Reuss Voigt Hill
#
# Bulk Modulus (GPa) = 53.93833 54.88755 54.41294
# Shear Modulus (GPa) = 32.69035 11.77216 22.23126
#
# Velocity S-wave (km/s) = 3.95326 2.37232 3.26008
# Velocity P-wave (km/s) = 6.82818 5.80896 6.33909
#
# Compressibility (1/GPa) = 0.01853969
#
# Stress axis : x y z
#
# Youngs Moduli (GPa) = 61.82977 87.57768 38.42103
#
# Poissons Ratio (x) = -0.05153 0.40185
# Poissons Ratio (y) = -0.03638 0.29465
# Poissons Ratio (z) = 0.64669 0.67164
#
# Static dielectric constant tensor:
#      x y z
#    x 4.456700 0.000000 0.000000 
#    y 0.000000 3.631010 0.000000 
#    z 0.000000 0.000000 3.432000 
# 
# 
# High freq. dielectric constant tensor:
#      x y z
#    x 1.863100 0.000000 0.000000 
#    y 0.000000 1.816180 0.000000 
#    z 0.000000 0.000000 1.776720 
# 
# From -- ./inp_files/69704.got.cif
#   From: 2010.06.25/outbox.cif.g09.slc.cpg/sg71_35_cif.got.tgz:69704.got - 2010.06.28 04:59:45.
