data_PCOD8291319
_publ_section_title
;
Structure prediction by ZEFSAII (Michael W. Deem and Ramdas Pophale) SiO2 
 PCOD8291319
Probable space group: I M M M
;
_chemical_formula_sum "Si O2"
_cell_formula_units_Z 104
_cell_length_a 27.678673
_cell_length_b 8.982482
_cell_length_c 21.785668
_cell_angle_alpha 90.000000
_cell_angle_beta 90.000000
_cell_angle_gamma 90.000000
_cell_volume 5416.422100
_symmetry_space_group_name_H-M "I M M M"
_symmetry_group_IT_number 71
_symmetry_cell_setting 'orthorhombic'
loop_
_space_group_symop_operation_xyz
x,y,z
-x,-y,z
x,-y,-z
-x,y,-z
-x,-y,-z
x,y,-z
-x,y,z
x,-y,z
1/2+x,1/2+y,1/2+z
1/2-x,1/2-y,1/2+z
1/2+x,1/2-y,1/2-z
1/2-x,1/2+y,1/2-z
1/2-x,1/2-y,1/2-z
1/2+x,1/2+y,1/2-z
1/2-x,1/2+y,1/2+z
1/2+x,1/2-y,1/2+z
loop_
_atom_site_type_symbol
_atom_site_label
_atom_site_fract_x
_atom_site_fract_y
_atom_site_fract_z
Si Si1 0.000000 0.167693 0.072966
Si Si2 0.355720 0.324856 0.202273
Si Si3 0.333836 0.329464 0.660316
Si Si4 0.706083 0.676662 0.000000
Si Si5 0.403815 0.825484 0.429411
Si Si6 0.773274 0.327829 0.376418
Si Si7 0.904512 0.176906 0.500000
Si Si8 0.053346 0.176612 0.626582
O O1 0.047915 0.248974 0.097579
O O2 0.000000 0.000000 0.098416
O O3 0.000000 0.173167 0.000000
O O4 0.346876 0.500000 0.191915
O O5 0.353139 0.280268 0.273245
O O6 0.315547 0.238849 0.164423
O O7 0.408461 0.274167 0.178371
O O8 0.347618 0.500000 0.646119
O O9 0.357823 0.226778 0.608998
O O10 0.276473 0.306256 0.660230
O O11 0.732173 0.741817 0.940401
O O12 0.650697 0.730077 0.000000
O O13 0.711393 0.500000 0.000000
O O14 0.394937 0.779429 0.500000
O O15 0.410777 0.000000 0.422625
O O16 0.784256 0.500000 0.389532
O O17 0.930676 0.241438 0.439606
O O18 0.906391 0.000000 0.500000
O O19 0.000000 0.238795 0.643334
O O20 0.051922 0.000000 0.622188
#
# Coordination Sequence:
#
# PCOD8291319 Si02
#       8
#     8  16  16   8  16  16   8  16
#     4   9  17  33  59  85 111 147 183 224 285 344
#     4  10  20  38  59  82 112 150 197 238 280 346
#     4  10  23  39  56  82 116 152 193 240 290 347
#     4  11  21  36  59  85 112 149 193 241 292 347
#     4  10  21  37  58  85 114 146 189 238 289 347
#     4  11  23  38  57  83 115 152 191 239 296 347
#     4   9  15  27  50  82 112 142 179 227 283 330
#     4   9  16  28  51  83 115 144 183 237 284 328
#
# _framework density 19.200866999999999
#
# number of rings (size 3 to 8) (size 9 to 14) (size 15 to 20)
#    0.000    2.077    1.538    2.077    1.077    4.615 
#    1.385    0.000    0.000    0.462    0.000    1.077 
#    0.000    0.000    0.000    0.000    0.000    0.000 
#
# Total GULP energy -644913.618921 kJ/mol
# GULP energy per Si atom -12402.184979 kJ/mol
# Density = 1.915717 g / cm^3
# Si number density = 19.200867 Si / 1000 Ang^3
#
#
#
# Elastic Constant Matrix: (Units=GPa)
#
#
# Indices 1 2 3 4 5 6 
#
# 1 123.5991 36.5514 66.6173 0.0000 0.0000 0.0000
# 2 36.5514 70.1343 43.1238 0.0000 0.0000 0.0000
# 3 66.6173 43.1238 124.2395 0.0000 0.0000 0.0000
# 4 0.0000 0.0000 0.0000 21.8039 0.0000 0.0000
# 5 0.0000 0.0000 0.0000 0.0000 25.6372 0.0000
# 6 0.0000 0.0000 0.0000 0.0000 0.0000 30.8711
#
#
#
# Elastic Compliance Matrix: (Units=1/GPa)
#
#
# Indices 1 2 3 4 5 6 
#
# 1 0.011819 -0.002877 -0.005339 0.000000 0.000000 0.000000
# 2 -0.002877 0.018827 -0.004992 0.000000 0.000000 0.000000
# 3 -0.005339 -0.004992 0.012644 0.000000 0.000000 0.000000
# 4 0.000000 0.000000 0.000000 0.045863 0.000000 0.000000
# 5 0.000000 0.000000 0.000000 0.000000 0.039006 0.000000
# 6 0.000000 0.000000 0.000000 0.000000 0.000000 0.032393
#
#
# Mechanical properties :
#
#
# Convention : Reuss Voigt Hill
#
# Bulk Modulus (GPa) = 59.26047 67.83978 63.55013
# Shear Modulus (GPa) = 25.96139 27.10781 26.53460
#
# Velocity S-wave (km/s) = 3.68107 3.76147 3.72149
# Velocity P-wave (km/s) = 6.99982 7.36704 7.18577
#
# Compressibility (1/GPa) = 0.01687465
#
# Stress axis : x y z
#
# Youngs Moduli (GPa) = 84.61017 53.11397 79.08596
#
# Poissons Ratio (x) = 0.15281 0.42222
# Poissons Ratio (y) = 0.24342 0.39483
# Poissons Ratio (z) = 0.45171 0.26517
#
# Static dielectric constant tensor:
#      x y z
#    x 3.700490 0.000000 0.000000 
#    y 0.000000 3.304960 0.000000 
#    z 0.000000 0.000000 3.593810 
# 
# 
# High freq. dielectric constant tensor:
#      x y z
#    x 1.757570 0.000000 0.000000 
#    y 0.000000 1.723460 0.000000 
#    z 0.000000 0.000000 1.742760 
# 
# From -- ./inp_files/56326.got.cif
#   From: 2010.06.25/outbox.cif.g09.slc.cpg/sg71_29_cif.got.tgz:56326.got - 2010.06.28 04:59:45.
