data_PCOD8291322
_publ_section_title
;
Structure prediction by ZEFSAII (Michael W. Deem and Ramdas Pophale) SiO2 
 PCOD8291322
Probable space group: I M M M
;
_chemical_formula_sum "Si O2"
_cell_formula_units_Z 104
_cell_length_a 9.146842
_cell_length_b 19.429085
_cell_length_c 29.660270
_cell_angle_alpha 90.000000
_cell_angle_beta 90.000000
_cell_angle_gamma 90.000000
_cell_volume 5271.068082
_symmetry_space_group_name_H-M "I M M M"
_symmetry_group_IT_number 71
_symmetry_cell_setting 'orthorhombic'
loop_
_space_group_symop_operation_xyz
x,y,z
-x,-y,z
x,-y,-z
-x,y,-z
-x,-y,-z
x,y,-z
-x,y,z
x,-y,z
1/2+x,1/2+y,1/2+z
1/2-x,1/2-y,1/2+z
1/2+x,1/2-y,1/2-z
1/2-x,1/2+y,1/2-z
1/2-x,1/2-y,1/2-z
1/2+x,1/2+y,1/2-z
1/2-x,1/2+y,1/2+z
1/2+x,1/2-y,1/2+z
loop_
_atom_site_type_symbol
_atom_site_label
_atom_site_fract_x
_atom_site_fract_y
_atom_site_fract_z
Si Si1 0.158732 0.891776 0.311364
Si Si2 0.672443 0.000000 0.255288
Si Si3 0.330172 0.762113 0.796805
Si Si4 0.330020 0.000000 0.452142
Si Si5 0.171260 0.149410 0.128188
Si Si6 0.670915 0.231761 0.946974
Si Si7 0.661509 0.618200 0.912287
Si Si8 0.333658 0.500000 0.661688
O O1 0.185121 0.811418 0.319654
O O2 0.159207 0.914694 0.362554
O O3 0.000000 0.905908 0.288563
O O4 0.277235 0.930933 0.281203
O O5 0.500000 0.000000 0.254564
O O6 0.728749 0.000000 0.204687
O O7 0.500000 0.784306 0.790249
O O8 0.250000 0.750000 0.750000
O O9 0.249733 0.817555 0.828118
O O10 0.285762 0.927780 0.432365
O O11 0.500000 0.000000 0.453242
O O12 0.253747 0.000000 0.500000
O O13 0.239731 0.173858 0.080600
O O14 0.000000 0.168604 0.129532
O O15 0.196019 0.067260 0.131206
O O16 0.500000 0.214128 0.942914
O O17 0.707130 0.302905 0.921182
O O18 0.718011 0.233704 0.000000
O O19 0.500000 0.607701 0.933684
O O20 0.500000 0.500000 0.679551
#
# Coordination Sequence:
#
# PCOD8291322 Si02
#       8
#    16   8  16   8  16  16  16   8
#     4  10  21  38  58  80 116 161 198 237 289 351
#     4  12  25  37  56  90 125 160 207 257 300 349
#     4  11  22  38  60  89 123 158 201 247 298 358
#     4  11  24  37  50  78 118 153 190 245 300 337
#     4  11  23  41  65  91 121 158 204 254 309 371
#     4  10  21  40  66  94 124 159 204 259 315 373
#     4  10  20  38  61  84 112 158 208 243 289 355
#     4  10  24  45  64  85 118 163 203 242 303 376
#
# _framework density 19.730347999999999
#
# number of rings (size 3 to 8) (size 9 to 14) (size 15 to 20)
#    0.000    1.462    1.538    3.692    0.000   10.769 
#    0.000    0.385    0.000    2.308    0.000    0.000 
#    0.000    0.000    0.000    0.000    0.000    0.000 
#
# Total GULP energy -644350.786890 kJ/mol
# GULP energy per Si atom -12391.361286 kJ/mol
# Density = 1.968544 g / cm^3
# Si number density = 19.730348 Si / 1000 Ang^3
#
#
#
# Elastic Constant Matrix: (Units=GPa)
#
#
# Indices 1 2 3 4 5 6 
#
# 1 114.3656 55.9132 51.3363 0.0000 0.0000 0.0000
# 2 55.9132 110.7830 39.3062 0.0000 0.0000 0.0000
# 3 51.3363 39.3062 104.6120 0.0000 0.0000 0.0000
# 4 0.0000 0.0000 0.0000 36.5033 0.0000 0.0000
# 5 0.0000 0.0000 0.0000 0.0000 37.2429 0.0000
# 6 0.0000 0.0000 0.0000 0.0000 0.0000 30.7960
#
#
#
# Elastic Compliance Matrix: (Units=1/GPa)
#
#
# Indices 1 2 3 4 5 6 
#
# 1 0.013297 -0.005072 -0.004620 0.000000 0.000000 0.000000
# 2 -0.005072 0.012350 -0.002151 0.000000 0.000000 0.000000
# 3 -0.004620 -0.002151 0.012634 0.000000 0.000000 0.000000
# 4 0.000000 0.000000 0.000000 0.027395 0.000000 0.000000
# 5 0.000000 0.000000 0.000000 0.000000 0.026851 0.000000
# 6 0.000000 0.000000 0.000000 0.000000 0.000000 0.032472
#
#
# Mechanical properties :
#
#
# Convention : Reuss Voigt Hill
#
# Bulk Modulus (GPa) = 68.51377 69.20801 68.86089
# Shear Modulus (GPa) = 32.56265 33.12210 32.84237
#
# Velocity S-wave (km/s) = 4.06690 4.10169 4.08433
# Velocity P-wave (km/s) = 7.54012 7.58847 7.56433
#
# Compressibility (1/GPa) = 0.01459561
#
# Stress axis : x y z
#
# Youngs Moduli (GPa) = 75.20292 80.97222 79.14909
#
# Poissons Ratio (x) = 0.41071 0.36564
# Poissons Ratio (y) = 0.38145 0.17026
# Poissons Ratio (z) = 0.34741 0.17418
#
# Static dielectric constant tensor:
#      x y z
#    x 3.549820 0.000000 0.000000 
#    y 0.000000 3.249280 0.000000 
#    z 0.000000 0.000000 3.242550 
# 
# 
# High freq. dielectric constant tensor:
#      x y z
#    x 1.770430 0.000000 0.000000 
#    y 0.000000 1.773770 0.000000 
#    z 0.000000 0.000000 1.769670 
# 
# From -- ./inp_files/68327.got.cif
#   From: 2010.06.25/outbox.cif.g09.slc.cpg/sg71_35_cif.got.tgz:68327.got - 2010.06.28 04:59:45.
