data_PCOD8291165
_publ_section_title
;
Structure prediction by ZEFSAII (Michael W. Deem and Ramdas Pophale) SiO2 
 PCOD8291165
Probable space group: I M M M
;
_chemical_formula_sum "Si O2"
_cell_formula_units_Z 88
_cell_length_a 20.720819
_cell_length_b 8.733792
_cell_length_c 25.000822
_cell_angle_alpha 90.000000
_cell_angle_beta 90.000000
_cell_angle_gamma 90.000000
_cell_volume 4524.431839
_symmetry_space_group_name_H-M "I M M M"
_symmetry_group_IT_number 71
_symmetry_cell_setting 'orthorhombic'
loop_
_space_group_symop_operation_xyz
x,y,z
-x,-y,z
x,-y,-z
-x,y,-z
-x,-y,-z
x,y,-z
-x,y,z
x,-y,z
1/2+x,1/2+y,1/2+z
1/2-x,1/2-y,1/2+z
1/2+x,1/2-y,1/2-z
1/2-x,1/2+y,1/2-z
1/2-x,1/2-y,1/2-z
1/2+x,1/2+y,1/2-z
1/2-x,1/2+y,1/2+z
1/2+x,1/2-y,1/2+z
loop_
_atom_site_type_symbol
_atom_site_label
_atom_site_fract_x
_atom_site_fract_y
_atom_site_fract_z
Si Si1 0.675421 0.823206 0.191004
Si Si2 0.780643 0.318981 0.000000
Si Si3 0.367926 0.677666 0.589176
Si Si4 0.000000 0.331468 0.062193
Si Si5 0.189082 0.674831 0.813839
Si Si6 0.574972 0.680518 0.111461
Si Si7 0.634450 0.318477 0.000000
O O1 0.736783 0.720478 0.176702
O O2 0.662892 0.803171 0.254000
O O3 0.613613 0.766040 0.158273
O O4 0.689930 0.000000 0.177053
O O5 0.815644 0.262929 0.053123
O O6 0.781702 0.500000 0.000000
O O7 0.707581 0.255795 0.000000
O O8 0.363053 0.500000 0.576582
O O9 0.439041 0.733472 0.578031
O O10 0.354510 0.713721 0.650854
O O11 0.000000 0.500000 0.090096
O O12 0.000000 0.359167 0.000000
O O13 0.181523 0.500000 0.832687
O O14 0.500000 0.722116 0.118155
O O15 0.587010 0.500000 0.116933
O O16 0.598398 0.740938 0.053344
O O17 0.633194 0.500000 0.000000
#
# Coordination Sequence:
#
# PCOD8291165 Si02
#       7
#    16   8  16   8  16  16   8
#     4  10  21  38  61  88 117 151 192 244 298 347
#     4  11  21  35  58  86 118 157 196 239 293 353
#     4  12  24  38  59  88 120 153 194 246 294 346
#     4  11  23  41  63  83 114 160 202 237 290 361
#     4  10  21  39  62  86 115 153 195 242 294 354
#     4  10  20  36  59  85 116 156 196 237 284 346
#     4   9  19  35  57  85 114 149 195 236 277 334
#
# _framework density 19.449954999999999
#
# number of rings (size 3 to 8) (size 9 to 14) (size 15 to 20)
#    0.000    1.545    0.909    4.636    0.000    5.455 
#    1.636    1.364    0.000    1.091    0.000    0.000 
#    0.000    0.000    0.000    0.000    0.000    0.000 
#
# Total GULP energy -545727.766846 kJ/mol
# GULP energy per Si atom -12402.903792 kJ/mol
# Density = 1.940569 g / cm^3
# Si number density = 19.449955 Si / 1000 Ang^3
#
#
#
# Elastic Constant Matrix: (Units=GPa)
#
#
# Indices 1 2 3 4 5 6 
#
# 1 131.8674 38.1440 67.4509 0.0000 0.0000 0.0000
# 2 38.1440 83.0261 38.3502 0.0000 0.0000 0.0000
# 3 67.4509 38.3502 108.5086 0.0000 0.0000 0.0000
# 4 0.0000 0.0000 0.0000 30.3974 0.0000 0.0000
# 5 0.0000 0.0000 0.0000 0.0000 29.4834 0.0000
# 6 0.0000 0.0000 0.0000 0.0000 0.0000 26.7135
#
#
#
# Elastic Compliance Matrix: (Units=1/GPa)
#
#
# Indices 1 2 3 4 5 6 
#
# 1 0.011495 -0.002367 -0.006309 0.000000 0.000000 0.000000
# 2 -0.002367 0.014882 -0.003788 0.000000 0.000000 0.000000
# 3 -0.006309 -0.003788 0.014477 0.000000 0.000000 0.000000
# 4 0.000000 0.000000 0.000000 0.032898 0.000000 0.000000
# 5 0.000000 0.000000 0.000000 0.000000 0.033917 0.000000
# 6 0.000000 0.000000 0.000000 0.000000 0.000000 0.037434
#
#
# Mechanical properties :
#
#
# Convention : Reuss Voigt Hill
#
# Bulk Modulus (GPa) = 62.79503 67.92136 65.35819
# Shear Modulus (GPa) = 28.51613 29.28267 28.89940
#
# Velocity S-wave (km/s) = 3.83316 3.88434 3.85883
# Velocity P-wave (km/s) = 7.20738 7.42390 7.31644
#
# Compressibility (1/GPa) = 0.01592483
#
# Stress axis : x y z
#
# Youngs Moduli (GPa) = 86.99317 67.19681 69.07708
#
# Poissons Ratio (x) = 0.15905 0.43581
# Poissons Ratio (y) = 0.20591 0.26168
# Poissons Ratio (z) = 0.54884 0.25456
#
# Static dielectric constant tensor:
#      x y z
#    x 3.416750 0.000000 0.000000 
#    y 0.000000 3.609870 0.000000 
#    z 0.000000 0.000000 3.709820 
# 
# 
# High freq. dielectric constant tensor:
#      x y z
#    x 1.759140 0.000000 0.000000 
#    y 0.000000 1.758020 0.000000 
#    z 0.000000 0.000000 1.764970 
# 
# From -- ./inp_files/61174.got.cif
#   From: 2010.06.25/outbox.cif.g09.slc.cpg/sg71_31_cif.got.tgz:61174.got - 2010.06.28 04:59:45.
