data_PCOD8291567
_publ_section_title
;
Structure prediction by ZEFSAII (Michael W. Deem and Ramdas Pophale) SiO2 
 PCOD8291567
Probable space group: I M M M
;
_chemical_formula_sum "Si O2"
_cell_formula_units_Z 64
_cell_length_a 24.134922
_cell_length_b 15.741505
_cell_length_c 9.204255
_cell_angle_alpha 90.000000
_cell_angle_beta 90.000000
_cell_angle_gamma 90.000000
_cell_volume 3496.880517
_symmetry_space_group_name_H-M "I M M M"
_symmetry_group_IT_number 71
_symmetry_cell_setting 'orthorhombic'
loop_
_space_group_symop_operation_xyz
x,y,z
-x,-y,z
x,-y,-z
-x,y,-z
-x,-y,-z
x,y,-z
-x,y,z
x,-y,z
1/2+x,1/2+y,1/2+z
1/2-x,1/2-y,1/2+z
1/2+x,1/2-y,1/2-z
1/2-x,1/2+y,1/2-z
1/2-x,1/2-y,1/2-z
1/2+x,1/2+y,1/2-z
1/2-x,1/2+y,1/2+z
1/2+x,1/2-y,1/2+z
loop_
_atom_site_type_symbol
_atom_site_label
_atom_site_fract_x
_atom_site_fract_y
_atom_site_fract_z
Si Si1 0.500000 0.319994 0.326229
Si Si2 0.611770 0.405083 0.327315
Si Si3 0.273023 0.667458 0.328732
Si Si4 0.090200 0.500000 0.171761
Si Si5 0.000000 0.630943 0.172173
Si Si6 0.793878 0.500000 0.670727
O O1 0.500000 0.319233 0.500000
O O2 0.554644 0.366573 0.265815
O O3 0.500000 0.224993 0.261762
O O4 0.609763 0.409546 0.500000
O O5 0.619122 0.500000 0.264260
O O6 0.663322 0.346535 0.279231
O O7 0.268717 0.682495 0.500000
O O8 0.250000 0.750000 0.250000
O O9 0.239289 0.583885 0.281121
O O10 0.055536 0.417430 0.222581
O O11 0.147984 0.500000 0.250750
O O12 0.100286 0.500000 0.000000
O O13 0.000000 0.633388 0.000000
O O14 0.803699 0.500000 0.500000
#
# Coordination Sequence:
#
# PCOD8291567 Si02
#       6
#     8  16  16   8   8   8
#     4   9  16  24  44  73  99 126 163 208 257 306
#     4   9  16  29  47  70 101 133 164 205 258 310
#     4  10  21  36  54  77 107 140 174 214 259 307
#     4   9  18  32  52  74 103 135 170 210 258 309
#     4   8  16  30  44  72 107 129 157 217 270 295
#     4  10  21  37  53  75 110 144 173 212 262 312
#
# _framework density 18.302026000000001
#
# number of rings (size 3 to 8) (size 9 to 14) (size 15 to 20)
#    0.000    2.750    1.250    1.125    3.500    2.500 
#    0.000    1.250    0.000    0.000    0.000    0.875 
#    0.000    2.000    0.000    0.000    0.000    0.000 
#
# Total GULP energy -396700.907614 kJ/mol
# GULP energy per Si atom -12396.903363 kJ/mol
# Density = 1.826037 g / cm^3
# Si number density = 18.302026 Si / 1000 Ang^3
#
#
#
# Elastic Constant Matrix: (Units=GPa)
#
#
# Indices 1 2 3 4 5 6 
#
# 1 195.5972 96.6757 30.9552 0.0000 0.0000 0.0000
# 2 96.6757 178.7142 30.1618 0.0000 0.0000 0.0000
# 3 30.9552 30.1618 14.0534 0.0000 0.0000 0.0000
# 4 0.0000 0.0000 0.0000 22.5059 0.0000 0.0000
# 5 0.0000 0.0000 0.0000 0.0000 25.6869 0.0000
# 6 0.0000 0.0000 0.0000 0.0000 0.0000 26.7506
#
#
#
# Elastic Compliance Matrix: (Units=1/GPa)
#
#
# Indices 1 2 3 4 5 6 
#
# 1 0.008376 -0.002222 -0.013680 0.000000 0.000000 0.000000
# 2 -0.002222 0.009363 -0.015201 0.000000 0.000000 0.000000
# 3 -0.013680 -0.015201 0.133914 0.000000 0.000000 0.000000
# 4 0.000000 0.000000 0.000000 0.044433 0.000000 0.000000
# 5 0.000000 0.000000 0.000000 0.000000 0.038930 0.000000
# 6 0.000000 0.000000 0.000000 0.000000 0.000000 0.037382
#
#
# Mechanical properties :
#
#
# Convention : Reuss Voigt Hill
#
# Bulk Modulus (GPa) = 11.17976 78.21669 44.69822
# Shear Modulus (GPa) = 13.72043 30.36014 22.04029
#
# Velocity S-wave (km/s) = 2.74098 4.07731 3.47400
# Velocity P-wave (km/s) = 4.01734 8.06197 6.36923
#
# Compressibility (1/GPa) = 0.08944734
#
# Stress axis : x y z
#
# Youngs Moduli (GPa) = 119.39049 106.80348 7.46747
#
# Poissons Ratio (x) = 0.23733 0.10216
# Poissons Ratio (y) = 0.26530 0.11351
# Poissons Ratio (z) = 1.63329 1.62347
#
# Static dielectric constant tensor:
#      x y z
#    x 3.590630 0.000000 0.000000 
#    y 0.000000 3.715620 0.000000 
#    z 0.000000 0.000000 2.766820 
# 
# 
# High freq. dielectric constant tensor:
#      x y z
#    x 1.727920 0.000000 0.000000 
#    y 0.000000 1.724470 0.000000 
#    z 0.000000 0.000000 1.641850 
# 
# From -- ./inp_files/5949.got.cif
#   From: 2010.06.25/outbox.cif.g09.slc.cpg/sg71_3_cif.got.tgz:5949.got - 2010.06.28 04:59:45.
