data_PCOD8291948
_publ_section_title
;
Structure prediction by ZEFSAII (Michael W. Deem and Ramdas Pophale) SiO2 
 PCOD8291948
Probable space group: I M M M
;
_chemical_formula_sum "Si O2"
_cell_formula_units_Z 72
_cell_length_a 11.010493
_cell_length_b 29.697598
_cell_length_c 12.082635
_cell_angle_alpha 90.000000
_cell_angle_beta 90.000000
_cell_angle_gamma 90.000000
_cell_volume 3950.842760
_symmetry_space_group_name_H-M "I M M M"
_symmetry_group_IT_number 71
_symmetry_cell_setting 'orthorhombic'
loop_
_space_group_symop_operation_xyz
x,y,z
-x,-y,z
x,-y,-z
-x,y,-z
-x,-y,-z
x,y,-z
-x,y,z
x,-y,z
1/2+x,1/2+y,1/2+z
1/2-x,1/2-y,1/2+z
1/2+x,1/2-y,1/2-z
1/2-x,1/2+y,1/2-z
1/2-x,1/2-y,1/2-z
1/2+x,1/2+y,1/2-z
1/2-x,1/2+y,1/2+z
1/2+x,1/2-y,1/2+z
loop_
_atom_site_type_symbol
_atom_site_label
_atom_site_fract_x
_atom_site_fract_y
_atom_site_fract_z
Si Si1 0.253497 0.550480 0.724385
Si Si2 0.643833 0.214026 0.230622
Si Si3 0.640425 0.828703 0.000000
Si Si4 0.141500 0.373584 0.874919
Si Si5 0.500000 0.446597 0.376155
Si Si6 0.858108 0.572842 0.500000
O O1 0.257740 0.500000 0.775466
O O2 0.200191 0.584118 0.814153
O O3 0.385350 0.569806 0.693873
O O4 0.179066 0.546773 0.610426
O O5 0.500000 0.230166 0.241380
O O6 0.750000 0.250000 0.250000
O O7 0.675521 0.199175 0.107254
O O8 0.668998 0.173173 0.314052
O O9 0.500000 0.839575 0.000000
O O10 0.704721 0.877541 0.000000
O O11 0.000000 0.383411 0.874859
O O12 0.192369 0.370279 0.000000
O O13 0.500000 0.500000 0.388148
O O14 0.500000 0.425489 0.500000
O O15 0.000000 0.576675 0.500000
#
# Coordination Sequence:
#
# PCOD8291948 Si02
#       6
#    16  16   8  16   8   8
#     4  11  21  35  57  83 114 153 196 236 282 341
#     4  10  21  39  62  86 116 152 191 237 291 347
#     4   9  18  35  58  82 115 151 179 228 296 344
#     4  10  22  40  59  82 118 157 191 236 291 342
#     4   9  18  34  53  77 111 151 188 233 291 339
#     4  11  19  31  53  86 118 145 185 237 289 339
#
# _framework density 18.223960000000002
#
# number of rings (size 3 to 8) (size 9 to 14) (size 15 to 20)
#    0.000    1.889    3.333    1.000    1.556    2.667 
#    2.000    1.667    2.444    2.000    0.000    0.000 
#    0.000    0.000    0.000    0.000    0.000    0.000 
#
# Total GULP energy -446118.692668 kJ/mol
# GULP energy per Si atom -12392.185907 kJ/mol
# Density = 1.818248 g / cm^3
# Si number density = 18.223960 Si / 1000 Ang^3
#
#
#
# Elastic Constant Matrix: (Units=GPa)
#
#
# Indices 1 2 3 4 5 6 
#
# 1 87.7453 58.0505 45.6963 -0.0013 0.0005 0.0001
# 2 58.0505 109.3059 60.4232 0.0008 0.0000 0.0002
# 3 45.6963 60.4232 151.9111 0.0075 -0.0003 0.0007
# 4 -0.0013 0.0008 0.0075 -2.3175 -0.0017 0.0000
# 5 0.0005 0.0000 -0.0003 -0.0017 25.3831 0.0001
# 6 0.0001 0.0002 0.0007 0.0000 0.0001 29.7014
#
#
#
# Elastic Compliance Matrix: (Units=1/GPa)
#
#
# Indices 1 2 3 4 5 6 
#
# 1 0.018066 -0.008448 -0.002074 -0.000019 0.000000 0.000000
# 2 -0.008448 0.015677 -0.003695 -0.000002 0.000000 0.000000
# 3 -0.002074 -0.003695 0.008676 0.000028 0.000000 0.000000
# 4 -0.000019 -0.000002 0.000028 -0.431490 -0.000028 0.000000
# 5 0.000000 0.000000 0.000000 -0.000028 0.039396 0.000000
# 6 0.000000 0.000000 0.000000 0.000000 0.000000 0.033668
#
#
# Mechanical properties :
#
#
# Convention : Reuss Voigt Hill
#
# Bulk Modulus (GPa) = 71.49868 75.25582 73.37725
# Shear Modulus (GPa) = -17.67342 22.87288 2.59973
#
# Velocity S-wave (km/s) = -3.11752 3.54658 1.19568
# Velocity P-wave (km/s) = 5.13419 7.62598 6.50060
#
# Compressibility (1/GPa) = 0.01398627
#
# Stress axis : x y z
#
# Youngs Moduli (GPa) = 55.35345 63.78588 115.25697
#
# Poissons Ratio (x) = 0.53885 0.23907
# Poissons Ratio (y) = 0.46762 0.42583
# Poissons Ratio (z) = 0.11481 0.23566
#
# Static dielectric constant tensor:
#      x y z
#    x 3.663330 0.000000 -0.000030 
#    y 0.000000 3.341830 0.000000 
#    z -0.000030 0.000000 2.653190 
# 
# 
# High freq. dielectric constant tensor:
#      x y z
#    x 1.701310 0.000000 0.000000 
#    y 0.000000 1.699180 0.000000 
#    z 0.000000 0.000000 1.708370 
# 
# From -- ./inp_files/19889.got.cif
#   From: 2010.06.25/outbox.cif.g09.slc.cpg/sg71_10_cif.got.tgz:19889.got - 2010.06.28 04:59:45.
