data_PCOD8291401
_publ_section_title
;
Structure prediction by ZEFSAII (Michael W. Deem and Ramdas Pophale) SiO2 
 PCOD8291401
Probable space group: I M M M
;
_chemical_formula_sum "Si O2"
_cell_formula_units_Z 88
_cell_length_a 17.420380
_cell_length_b 19.301383
_cell_length_c 14.152288
_cell_angle_alpha 90.000000
_cell_angle_beta 90.000000
_cell_angle_gamma 90.000000
_cell_volume 4758.528895
_symmetry_space_group_name_H-M "I M M M"
_symmetry_group_IT_number 71
_symmetry_cell_setting 'orthorhombic'
loop_
_space_group_symop_operation_xyz
x,y,z
-x,-y,z
x,-y,-z
-x,y,-z
-x,-y,-z
x,y,-z
-x,y,z
x,-y,z
1/2+x,1/2+y,1/2+z
1/2-x,1/2-y,1/2+z
1/2+x,1/2-y,1/2-z
1/2-x,1/2+y,1/2-z
1/2-x,1/2-y,1/2-z
1/2+x,1/2+y,1/2-z
1/2-x,1/2+y,1/2+z
1/2+x,1/2-y,1/2+z
loop_
_atom_site_type_symbol
_atom_site_label
_atom_site_fract_x
_atom_site_fract_y
_atom_site_fract_z
Si Si1 0.910915 0.820493 0.609293
Si Si2 0.833927 0.578979 0.694567
Si Si3 0.586532 0.080982 0.000000
Si Si4 0.588689 0.208039 0.258742
Si Si5 0.410135 0.323616 0.396453
Si Si6 0.841737 0.920894 0.754564
O O1 0.887394 0.814394 0.500000
O O2 0.897451 0.745797 0.657871
O O3 0.857081 0.878129 0.658548
O O4 0.000000 0.842676 0.621615
O O5 0.859290 0.500000 0.718379
O O6 0.863909 0.602123 0.591328
O O7 0.871332 0.633340 0.766948
O O8 0.743529 0.587374 0.704880
O O9 0.500000 0.115371 0.000000
O O10 0.573954 0.000000 0.000000
O O11 0.500000 0.194706 0.277038
O O12 0.624194 0.257717 0.339946
O O13 0.371636 0.327579 0.500000
O O14 0.500000 0.313876 0.405956
O O15 0.395527 0.393854 0.338791
O O16 0.862026 0.000000 0.732298
#
# Coordination Sequence:
#
# PCOD8291401 Si02
#       6
#    16  16   8  16  16  16
#     4   9  19  35  55  80 107 139 181 224 267 316
#     4  10  21  34  50  77 110 140 172 214 265 317
#     4   9  18  32  50  74 103 137 176 212 255 312
#     4   9  18  34  55  77 103 135 174 220 265 314
#     4   9  19  35  54  76 101 134 177 219 261 312
#     4  10  21  35  51  75 110 141 173 219 267 317
#
# _framework density 18.493110000000001
#
# number of rings (size 3 to 8) (size 9 to 14) (size 15 to 20)
#    0.000    2.636    0.000    2.182    2.545    6.182 
#    0.000    4.545    0.000    1.636    0.000    2.545 
#    0.000    0.000    0.000    0.000    0.000    0.000 
#
# Total GULP energy -545378.232737 kJ/mol
# GULP energy per Si atom -12394.959835 kJ/mol
# Density = 1.845102 g / cm^3
# Si number density = 18.493110 Si / 1000 Ang^3
#
#
#
# Elastic Constant Matrix: (Units=GPa)
#
#
# Indices 1 2 3 4 5 6 
#
# 1 46.8982 31.9588 27.4240 0.0000 0.0000 0.0000
# 2 31.9588 103.0165 28.2464 0.0000 0.0000 0.0000
# 3 27.4240 28.2464 108.8180 0.0000 0.0000 0.0000
# 4 0.0000 0.0000 0.0000 16.8930 0.0000 0.0000
# 5 0.0000 0.0000 0.0000 0.0000 25.9832 0.0000
# 6 0.0000 0.0000 0.0000 0.0000 0.0000 27.2827
#
#
#
# Elastic Compliance Matrix: (Units=1/GPa)
#
#
# Indices 1 2 3 4 5 6 
#
# 1 0.029817 -0.007741 -0.005505 0.000000 0.000000 0.000000
# 2 -0.007741 0.012461 -0.001284 0.000000 0.000000 0.000000
# 3 -0.005505 -0.001284 0.010910 0.000000 0.000000 0.000000
# 4 0.000000 0.000000 0.000000 0.059196 0.000000 0.000000
# 5 0.000000 0.000000 0.000000 0.000000 0.038486 0.000000
# 6 0.000000 0.000000 0.000000 0.000000 0.000000 0.036653
#
#
# Mechanical properties :
#
#
# Convention : Reuss Voigt Hill
#
# Bulk Modulus (GPa) = 41.44421 48.22124 44.83272
# Shear Modulus (GPa) = 22.25932 25.43866 23.84899
#
# Velocity S-wave (km/s) = 3.47314 3.71290 3.59502
# Velocity P-wave (km/s) = 6.20829 6.67178 6.44420
#
# Compressibility (1/GPa) = 0.02412882
#
# Stress axis : x y z
#
# Youngs Moduli (GPa) = 33.53824 80.25346 91.65710
#
# Poissons Ratio (x) = 0.62121 0.50458
# Poissons Ratio (y) = 0.25961 0.11766
# Poissons Ratio (z) = 0.18463 0.10302
#
# Static dielectric constant tensor:
#      x y z
#    x 3.264900 0.000000 0.000000 
#    y 0.000000 3.434490 0.000000 
#    z 0.000000 0.000000 3.604280 
# 
# 
# High freq. dielectric constant tensor:
#      x y z
#    x 1.705480 0.000000 0.000000 
#    y 0.000000 1.718250 0.000000 
#    z 0.000000 0.000000 1.707050 
# 
# From -- ./inp_files/36358.got.cif
#   From: 2010.06.25/outbox.cif.g09.slc.cpg/sg71_19_cif.got.tgz:36358.got - 2010.06.28 04:59:45.
