data_PCOD8291239
_publ_section_title
;
Structure prediction by ZEFSAII (Michael W. Deem and Ramdas Pophale) SiO2 
 PCOD8291239
Probable space group: I M M M
;
_chemical_formula_sum "Si O2"
_cell_formula_units_Z 104
_cell_length_a 12.009443
_cell_length_b 25.933932
_cell_length_c 17.595554
_cell_angle_alpha 90.000000
_cell_angle_beta 90.000000
_cell_angle_gamma 90.000000
_cell_volume 5480.171859
_symmetry_space_group_name_H-M "I M M M"
_symmetry_group_IT_number 71
_symmetry_cell_setting 'orthorhombic'
loop_
_space_group_symop_operation_xyz
x,y,z
-x,-y,z
x,-y,-z
-x,y,-z
-x,-y,-z
x,y,-z
-x,y,z
x,-y,z
1/2+x,1/2+y,1/2+z
1/2-x,1/2-y,1/2+z
1/2+x,1/2-y,1/2-z
1/2-x,1/2+y,1/2-z
1/2-x,1/2-y,1/2-z
1/2+x,1/2+y,1/2-z
1/2-x,1/2+y,1/2+z
1/2+x,1/2-y,1/2+z
loop_
_atom_site_type_symbol
_atom_site_label
_atom_site_fract_x
_atom_site_fract_y
_atom_site_fract_z
Si Si1 0.261158 0.157051 0.683442
Si Si2 0.132309 0.943365 0.914552
Si Si3 0.500000 0.056267 0.640972
Si Si4 0.500000 0.187641 0.087141
Si Si5 0.500000 0.141341 0.752876
Si Si6 0.368204 0.342265 0.667099
Si Si7 0.230548 0.743234 0.586763
Si Si8 0.735395 0.940828 0.414059
O O1 0.386027 0.164596 0.717141
O O2 0.170832 0.166522 0.747889
O O3 0.245419 0.201241 0.622727
O O4 0.223605 0.102152 0.645901
O O5 0.179325 0.897770 0.861549
O O6 0.000000 0.941597 0.914964
O O7 0.172225 0.000000 0.885121
O O8 0.177020 0.934323 0.000000
O O9 0.500000 0.083406 0.723045
O O10 0.603012 0.067277 0.585912
O O11 0.500000 0.000000 0.673754
O O12 0.500000 0.144535 0.154678
O O13 0.606279 0.223190 0.100956
O O14 0.500000 0.164372 0.000000
O O15 0.500000 0.339973 0.662243
O O16 0.320600 0.297251 0.615552
O O17 0.256839 0.751911 0.500000
O O18 0.779137 0.930555 0.500000
O O19 0.767863 0.000000 0.389602
#
# Coordination Sequence:
#
# PCOD8291239 Si02
#       8
#    16  16   8   8   8  16  16  16
#     4  11  23  36  57  83 113 147 185 232 281 331
#     4   8  15  31  54  79 109 143 179 220 270 328
#     4   8  15  28  52  85 112 141 178 227 285 332
#     4  10  22  40  61  78 105 154 192 216 261 334
#     4  10  20  37  58  81 109 147 184 229 275 325
#     4  11  23  36  57  85 114 147 182 232 286 326
#     4  11  24  40  59  82 111 145 185 228 275 337
#     4   9  17  32  54  80 112 147 185 229 278 333
#
# _framework density 18.977506000000002
#
# number of rings (size 3 to 8) (size 9 to 14) (size 15 to 20)
#    0.000    2.154    1.538    2.077    2.154    2.462 
#    0.000    0.769    0.000    0.231    0.000    1.077 
#    0.000    0.000    0.000    0.000    0.000    0.000 
#
# Total GULP energy -644258.805803 kJ/mol
# GULP energy per Si atom -12389.592419 kJ/mol
# Density = 1.893431 g / cm^3
# Si number density = 18.977506 Si / 1000 Ang^3
#
#
#
# Elastic Constant Matrix: (Units=GPa)
#
#
# Indices 1 2 3 4 5 6 
#
# 1 67.6517 29.3593 32.8488 0.0000 0.0000 0.0000
# 2 29.3593 120.3467 65.2838 0.0002 0.0000 0.0000
# 3 32.8488 65.2838 133.8052 0.0006 -0.0001 -0.0001
# 4 0.0000 0.0002 0.0006 31.9879 0.0000 0.0000
# 5 0.0000 0.0000 -0.0001 0.0000 9.0490 0.0000
# 6 0.0000 0.0000 -0.0001 0.0000 0.0000 23.2404
#
#
#
# Elastic Compliance Matrix: (Units=1/GPa)
#
#
# Indices 1 2 3 4 5 6 
#
# 1 0.017367 -0.002617 -0.002987 0.000000 0.000000 0.000000
# 2 -0.002617 0.011694 -0.005063 0.000000 0.000000 0.000000
# 3 -0.002987 -0.005063 0.010677 0.000000 0.000000 0.000000
# 4 0.000000 0.000000 0.000000 0.031262 0.000000 0.000000
# 5 0.000000 0.000000 0.000000 0.000000 0.110509 0.000000
# 6 0.000000 0.000000 0.000000 0.000000 0.000000 0.043029
#
#
# Mechanical properties :
#
#
# Convention : Reuss Voigt Hill
#
# Bulk Modulus (GPa) = 54.33234 64.08749 59.20991
# Shear Modulus (GPa) = 19.84066 25.80957 22.82512
#
# Velocity S-wave (km/s) = 3.23690 3.69183 3.47182
# Velocity P-wave (km/s) = 6.53162 7.21224 6.88035
#
# Compressibility (1/GPa) = 0.01840525
#
# Stress axis : x y z
#
# Youngs Moduli (GPa) = 57.57882 85.51159 93.65690
#
# Poissons Ratio (x) = 0.22374 0.27976
# Poissons Ratio (y) = 0.15066 0.47422
# Poissons Ratio (z) = 0.17199 0.43297
#
# Static dielectric constant tensor:
#      x y z
#    x 3.305010 0.000000 0.000000 
#    y 0.000000 3.741750 0.000000 
#    z 0.000000 0.000000 3.544730 
# 
# 
# High freq. dielectric constant tensor:
#      x y z
#    x 1.714260 0.000000 0.000000 
#    y 0.000000 1.743580 0.000000 
#    z 0.000000 0.000000 1.742570 
# 
# From -- ./inp_files/43841.got.cif
#   From: 2010.06.25/outbox.cif.g09.slc.cpg/sg71_22_cif.got.tgz:43841.got - 2010.06.28 04:59:45.
