data_PCOD8291100
_publ_section_title
;
Structure prediction by ZEFSAII (Michael W. Deem and Ramdas Pophale) SiO2 
 PCOD8291100
Probable space group: I M M M
;
_chemical_formula_sum "Si O2"
_cell_formula_units_Z 72
_cell_length_a 27.405034
_cell_length_b 8.574835
_cell_length_c 16.195734
_cell_angle_alpha 90.000000
_cell_angle_beta 90.000000
_cell_angle_gamma 90.000000
_cell_volume 3805.894562
_symmetry_space_group_name_H-M "I M M M"
_symmetry_group_IT_number 71
_symmetry_cell_setting 'orthorhombic'
loop_
_space_group_symop_operation_xyz
x,y,z
-x,-y,z
x,-y,-z
-x,y,-z
-x,-y,-z
x,y,-z
-x,y,z
x,-y,z
1/2+x,1/2+y,1/2+z
1/2-x,1/2-y,1/2+z
1/2+x,1/2-y,1/2-z
1/2-x,1/2+y,1/2-z
1/2-x,1/2-y,1/2-z
1/2+x,1/2+y,1/2-z
1/2-x,1/2+y,1/2+z
1/2+x,1/2-y,1/2+z
loop_
_atom_site_type_symbol
_atom_site_label
_atom_site_fract_x
_atom_site_fract_y
_atom_site_fract_z
Si Si1 0.352476 0.318167 0.592954
Si Si2 0.803531 0.681890 0.247706
Si Si3 0.556117 0.815700 0.000000
Si Si4 0.552846 0.317061 0.322059
Si Si5 0.607684 0.315165 0.839101
O O1 0.336640 0.277906 0.500000
O O2 0.343216 0.500000 0.614008
O O3 0.322197 0.212802 0.655154
O O4 0.409946 0.278266 0.603799
O O5 0.802347 0.500000 0.266169
O O6 0.750000 0.750000 0.250000
O O7 0.837123 0.761063 0.318361
O O8 0.586325 0.758458 0.921483
O O9 0.500000 0.751029 0.000000
O O10 0.554878 0.000000 0.000000
O O11 0.500000 0.239330 0.339987
O O12 0.546393 0.500000 0.313110
O O13 0.573909 0.253569 0.235611
O O14 0.607559 0.500000 0.848259
#
# Coordination Sequence:
#
# PCOD8291100 Si02
#       5
#    16  16   8  16  16
#     4   9  18  33  53  80 113 145 181 224 268 319
#     4  11  22  39  61  82 108 142 184 233 291 349
#     4  11  23  37  55  85 125 161 193 237 294 349
#     4   8  14  26  48  78 109 142 180 221 264 310
#     4  10  20  36  57  82 112 148 194 239 282 338
#
# _framework density 18.918023000000002
#
# number of rings (size 3 to 8) (size 9 to 14) (size 15 to 20)
#    0.000    2.333    0.000    5.000    0.000    2.667 
#    2.000    2.222    0.000    6.000    0.000    6.222 
#    0.000    0.000    0.000    0.000    0.000    0.000 
#
# Total GULP energy -446239.984233 kJ/mol
# GULP energy per Si atom -12395.555118 kJ/mol
# Density = 1.887497 g / cm^3
# Si number density = 18.918023 Si / 1000 Ang^3
#
#
#
# Elastic Constant Matrix: (Units=GPa)
#
#
# Indices 1 2 3 4 5 6 
#
# 1 146.6451 29.6570 42.5224 0.0000 0.0000 0.0000
# 2 29.6570 69.0420 26.3494 0.0000 0.0000 0.0000
# 3 42.5224 26.3494 100.6615 0.0000 0.0000 0.0000
# 4 0.0000 0.0000 0.0000 27.4511 0.0000 0.0000
# 5 0.0000 0.0000 0.0000 0.0000 10.7169 0.0000
# 6 0.0000 0.0000 0.0000 0.0000 0.0000 23.8019
#
#
#
# Elastic Compliance Matrix: (Units=1/GPa)
#
#
# Indices 1 2 3 4 5 6 
#
# 1 0.008120 -0.002421 -0.002796 0.000000 0.000000 0.000000
# 2 -0.002421 0.016813 -0.003379 0.000000 0.000000 0.000000
# 3 -0.002796 -0.003379 0.012000 0.000000 0.000000 0.000000
# 4 0.000000 0.000000 0.000000 0.036428 0.000000 0.000000
# 5 0.000000 0.000000 0.000000 0.000000 0.093311 0.000000
# 6 0.000000 0.000000 0.000000 0.000000 0.000000 0.042013
#
#
# Mechanical properties :
#
#
# Convention : Reuss Voigt Hill
#
# Bulk Modulus (GPa) = 50.65412 57.04514 53.84963
# Shear Modulus (GPa) = 21.50941 26.91530 24.21236
#
# Velocity S-wave (km/s) = 3.37557 3.77601 3.58139
# Velocity P-wave (km/s) = 6.48277 7.01643 6.75487
#
# Compressibility (1/GPa) = 0.01974173
#
# Stress axis : x y z
#
# Youngs Moduli (GPa) = 123.15940 59.47751 83.33405
#
# Poissons Ratio (x) = 0.14397 0.23303
# Poissons Ratio (y) = 0.29812 0.28155
# Poissons Ratio (z) = 0.34439 0.20095
#
# Static dielectric constant tensor:
#      x y z
#    x 3.784200 0.000000 0.000000 
#    y 0.000000 3.294830 0.000000 
#    z 0.000000 0.000000 3.418990 
# 
# 
# High freq. dielectric constant tensor:
#      x y z
#    x 1.743020 0.000000 0.000000 
#    y 0.000000 1.717620 0.000000 
#    z 0.000000 0.000000 1.730960 
# 
# From -- ./inp_files/6075.got.cif
#   From: 2010.06.25/outbox.cif.g09.slc.cpg/sg71_4_cif.got.tgz:6075.got - 2010.06.28 04:59:45.
