data_PCOD8291411
_publ_section_title
;
Structure prediction by ZEFSAII (Michael W. Deem and Ramdas Pophale) SiO2 
 PCOD8291411
Probable space group: I M M M
;
_chemical_formula_sum "Si O2"
_cell_formula_units_Z 112
_cell_length_a 18.177672
_cell_length_b 14.548655
_cell_length_c 23.185453
_cell_angle_alpha 90.000000
_cell_angle_beta 90.000000
_cell_angle_gamma 90.000000
_cell_volume 6131.640635
_symmetry_space_group_name_H-M "I M M M"
_symmetry_group_IT_number 71
_symmetry_cell_setting 'orthorhombic'
loop_
_space_group_symop_operation_xyz
x,y,z
-x,-y,z
x,-y,-z
-x,y,-z
-x,-y,-z
x,y,-z
-x,y,z
x,-y,z
1/2+x,1/2+y,1/2+z
1/2-x,1/2-y,1/2+z
1/2+x,1/2-y,1/2-z
1/2-x,1/2+y,1/2-z
1/2-x,1/2-y,1/2-z
1/2+x,1/2+y,1/2-z
1/2-x,1/2+y,1/2+z
1/2+x,1/2-y,1/2+z
loop_
_atom_site_type_symbol
_atom_site_label
_atom_site_fract_x
_atom_site_fract_y
_atom_site_fract_z
Si Si1 0.289055 0.105798 0.155239
Si Si2 0.914644 0.607265 0.742781
Si Si3 0.080309 0.891285 0.336304
Si Si4 0.859415 0.104173 0.782111
Si Si5 0.677053 0.396464 0.936543
Si Si6 0.713438 0.261325 0.565902
Si Si7 0.916959 0.263774 0.848982
O O1 0.364591 0.137027 0.187433
O O2 0.225671 0.117364 0.202877
O O3 0.266659 0.167264 0.099934
O O4 0.295167 0.000000 0.134215
O O5 0.901332 0.500000 0.756060
O O6 0.891087 0.662243 0.800638
O O7 0.000000 0.627427 0.727278
O O8 0.132079 0.862119 0.283503
O O9 0.116838 0.852342 0.394190
O O10 0.000000 0.846010 0.328645
O O11 0.072445 0.000000 0.340861
O O12 0.914029 0.162844 0.821353
O O13 0.886088 0.000000 0.790110
O O14 0.698445 0.500000 0.917867
O O15 0.750756 0.338422 0.934477
O O16 0.641486 0.394624 0.000000
O O17 0.702396 0.297445 0.500000
O O18 0.635209 0.241167 0.595389
O O19 0.000000 0.285365 0.869504
#
# Coordination Sequence:
#
# PCOD8291411 Si02
#       7
#    16  16  16  16  16  16  16
#     4   9  19  35  56  78 102 136 173 216 267 311
#     4   9  19  35  54  80 111 140 174 219 268 315
#     4   9  17  28  45  70  99 131 163 199 244 297
#     4   9  18  31  49  77 107 132 163 203 253 316
#     4   9  19  34  49  68  97 135 174 209 249 298
#     4  10  22  37  54  76 103 136 179 222 256 305
#     4  10  21  34  53  78 104 138 172 211 264 314
#
# _framework density 18.265910999999999
#
# number of rings (size 3 to 8) (size 9 to 14) (size 15 to 20)
#    0.000    2.714    0.000    0.429    4.000    3.429 
#    0.000    1.429    0.000    1.286    0.000   10.000 
#    0.000    0.000    0.000    0.000    0.000    0.000 
#
# Total GULP energy -694091.480174 kJ/mol
# GULP energy per Si atom -12394.490717 kJ/mol
# Density = 1.822434 g / cm^3
# Si number density = 18.265911 Si / 1000 Ang^3
#
#
#
# Elastic Constant Matrix: (Units=GPa)
#
#
# Indices 1 2 3 4 5 6 
#
# 1 92.6481 32.6943 70.7110 0.0000 0.0000 0.0000
# 2 32.6943 61.0615 46.3488 0.0000 0.0000 0.0000
# 3 70.7110 46.3488 149.7247 0.0000 0.0000 0.0000
# 4 0.0000 0.0000 0.0000 26.2218 0.0000 0.0000
# 5 0.0000 0.0000 0.0000 0.0000 20.0809 0.0000
# 6 0.0000 0.0000 0.0000 0.0000 0.0000 19.9964
#
#
#
# Elastic Compliance Matrix: (Units=1/GPa)
#
#
# Indices 1 2 3 4 5 6 
#
# 1 0.017620 -0.004076 -0.007060 0.000000 0.000000 0.000000
# 2 -0.004076 0.022350 -0.004994 0.000000 0.000000 0.000000
# 3 -0.007060 -0.004994 0.011559 0.000000 0.000000 0.000000
# 4 0.000000 0.000000 0.000000 0.038136 0.000000 0.000000
# 5 0.000000 0.000000 0.000000 0.000000 0.049799 0.000000
# 6 0.000000 0.000000 0.000000 0.000000 0.000000 0.050009
#
#
# Mechanical properties :
#
#
# Convention : Reuss Voigt Hill
#
# Bulk Modulus (GPa) = 51.89335 66.99359 59.44347
# Shear Modulus (GPa) = 21.91502 23.50516 22.71009
#
# Velocity S-wave (km/s) = 3.46754 3.59114 3.52988
# Velocity P-wave (km/s) = 6.67108 7.34517 7.01623
#
# Compressibility (1/GPa) = 0.01927029
#
# Stress axis : x y z
#
# Youngs Moduli (GPa) = 56.75394 44.74346 86.51295
#
# Poissons Ratio (x) = 0.18235 0.61076
# Poissons Ratio (y) = 0.23130 0.43203
# Poissons Ratio (z) = 0.40067 0.22344
#
# Static dielectric constant tensor:
#      x y z
#    x 3.395130 0.000000 0.000000 
#    y 0.000000 3.402890 0.000000 
#    z 0.000000 0.000000 3.418490 
# 
# 
# High freq. dielectric constant tensor:
#      x y z
#    x 1.703790 0.000000 0.000000 
#    y 0.000000 1.706370 0.000000 
#    z 0.000000 0.000000 1.697100 
# 
# From -- ./inp_files/39250.got.cif
#   From: 2010.06.25/outbox.cif.g09.slc.cpg/sg71_20_cif.got.tgz:39250.got - 2010.06.28 04:59:45.
