data_PCOD8291850
_publ_section_title
;
Structure prediction by ZEFSAII (Michael W. Deem and Ramdas Pophale) SiO2 
 PCOD8291850
Probable space group: I M M M
;
_chemical_formula_sum "Si O2"
_cell_formula_units_Z 88
_cell_length_a 27.309340
_cell_length_b 8.862663
_cell_length_c 18.784167
_cell_angle_alpha 90.000000
_cell_angle_beta 90.000000
_cell_angle_gamma 90.000000
_cell_volume 4546.397255
_symmetry_space_group_name_H-M "I M M M"
_symmetry_group_IT_number 71
_symmetry_cell_setting 'orthorhombic'
loop_
_space_group_symop_operation_xyz
x,y,z
-x,-y,z
x,-y,-z
-x,y,-z
-x,-y,-z
x,y,-z
-x,y,z
x,-y,z
1/2+x,1/2+y,1/2+z
1/2-x,1/2-y,1/2+z
1/2+x,1/2-y,1/2-z
1/2-x,1/2+y,1/2-z
1/2-x,1/2-y,1/2-z
1/2+x,1/2+y,1/2-z
1/2-x,1/2+y,1/2+z
1/2+x,1/2-y,1/2+z
loop_
_atom_site_type_symbol
_atom_site_label
_atom_site_fract_x
_atom_site_fract_y
_atom_site_fract_z
Si Si1 0.153817 0.178928 0.174519
Si Si2 0.945202 0.322785 0.784915
Si Si3 0.446750 0.675155 0.000000
Si Si4 0.304863 0.830721 0.187138
Si Si5 0.412898 0.835145 0.133192
Si Si6 0.770999 0.322335 0.082005
O O1 0.097168 0.232447 0.174096
O O2 0.187861 0.244849 0.238023
O O3 0.177984 0.239330 0.101715
O O4 0.154589 0.000000 0.178745
O O5 0.934004 0.500000 0.793681
O O6 0.943132 0.278132 0.701694
O O7 0.000000 0.282442 0.813485
O O8 0.417607 0.718193 0.929937
O O9 0.453062 0.500000 0.000000
O O10 0.500000 0.754164 0.000000
O O11 0.356455 0.845488 0.150129
O O12 0.271052 0.737816 0.133858
O O13 0.283513 0.000000 0.200676
O O14 0.432332 0.000000 0.109610
O O15 0.777284 0.500000 0.093169
O O16 0.758104 0.283966 0.000000
#
# Coordination Sequence:
#
# PCOD8291850 Si02
#       6
#    16  16   8  16  16  16
#     4  11  22  37  59  86 117 151 187 229 278 333
#     4   9  18  35  59  84 109 140 182 231 280 331
#     4  11  23  33  43  65 101 143 183 229 280 323
#     4  10  21  38  59  82 111 147 189 233 279 332
#     4   9  19  34  52  74 101 139 183 225 270 325
#     4  11  24  40  59  84 114 148 187 232 284 338
#
# _framework density 19.355985
#
# number of rings (size 3 to 8) (size 9 to 14) (size 15 to 20)
#    0.000    1.909    0.000    5.182    1.273    6.909 
#    0.000    0.000    0.000    0.545    0.000    3.818 
#    0.000    0.000    0.000    0.000    0.000    0.000 
#
# Total GULP energy -545500.229198 kJ/mol
# GULP energy per Si atom -12397.732482 kJ/mol
# Density = 1.931193 g / cm^3
# Si number density = 19.355985 Si / 1000 Ang^3
#
#
#
# Elastic Constant Matrix: (Units=GPa)
#
#
# Indices 1 2 3 4 5 6 
#
# 1 84.1359 39.3210 40.1847 0.0000 0.0000 0.0000
# 2 39.3210 108.8467 35.9953 0.0000 0.0000 0.0000
# 3 40.1847 35.9953 59.1518 0.0000 0.0000 0.0000
# 4 0.0000 0.0000 0.0000 23.4939 0.0000 0.0000
# 5 0.0000 0.0000 0.0000 0.0000 -8.3594 0.0000
# 6 0.0000 0.0000 0.0000 0.0000 0.0000 30.6605
#
#
#
# Elastic Compliance Matrix: (Units=1/GPa)
#
#
# Indices 1 2 3 4 5 6 
#
# 1 0.018418 -0.003150 -0.010596 0.000000 0.000000 0.000000
# 2 -0.003150 0.012040 -0.005187 0.000000 0.000000 0.000000
# 3 -0.010596 -0.005187 0.027260 0.000000 0.000000 0.000000
# 4 0.000000 0.000000 0.000000 0.042564 0.000000 0.000000
# 5 0.000000 0.000000 0.000000 0.000000 -0.119626 0.000000
# 6 0.000000 0.000000 0.000000 0.000000 0.000000 0.032615
#
#
# Mechanical properties :
#
#
# Convention : Reuss Voigt Hill
#
# Bulk Modulus (GPa) = 50.36799 53.68181 52.02490
# Shear Modulus (GPa) = 86.57136 18.26790 52.41963
#
# Velocity S-wave (km/s) = 6.69500 3.07544 5.20967
# Velocity P-wave (km/s) = 9.26512 6.35652 7.94505
#
# Compressibility (1/GPa) = 0.01985388
#
# Stress axis : x y z
#
# Youngs Moduli (GPa) = 54.29401 83.05354 36.68322
#
# Poissons Ratio (x) = 0.26159 0.38869
# Poissons Ratio (y) = 0.17101 0.19028
# Poissons Ratio (z) = 0.57529 0.43081
#
# Static dielectric constant tensor:
#      x y z
#    x 3.769170 0.000000 0.000000 
#    y 0.000000 3.636270 0.000000 
#    z 0.000000 0.000000 3.408920 
# 
# 
# High freq. dielectric constant tensor:
#      x y z
#    x 1.763540 0.000000 0.000000 
#    y 0.000000 1.758700 0.000000 
#    z 0.000000 0.000000 1.729030 
# 
# From -- ./inp_files/42437.got.cif
#   From: 2010.06.25/outbox.cif.g09.slc.cpg/sg71_22_cif.got.tgz:42437.got - 2010.06.28 04:59:45.
