data_PCOD8291486
_publ_section_title
;
Structure prediction by ZEFSAII (Michael W. Deem and Ramdas Pophale) SiO2 
 PCOD8291486
Probable space group: I M M M
;
_chemical_formula_sum "Si O2"
_cell_formula_units_Z 96
_cell_length_a 17.463091
_cell_length_b 29.297202
_cell_length_c 8.869136
_cell_angle_alpha 90.000000
_cell_angle_beta 90.000000
_cell_angle_gamma 90.000000
_cell_volume 4537.624740
_symmetry_space_group_name_H-M "I M M M"
_symmetry_group_IT_number 71
_symmetry_cell_setting 'orthorhombic'
loop_
_space_group_symop_operation_xyz
x,y,z
-x,-y,z
x,-y,-z
-x,y,-z
-x,-y,-z
x,y,-z
-x,y,z
x,-y,z
1/2+x,1/2+y,1/2+z
1/2-x,1/2-y,1/2+z
1/2+x,1/2-y,1/2-z
1/2-x,1/2+y,1/2-z
1/2-x,1/2-y,1/2-z
1/2+x,1/2+y,1/2-z
1/2-x,1/2+y,1/2+z
1/2+x,1/2-y,1/2+z
loop_
_atom_site_type_symbol
_atom_site_label
_atom_site_fract_x
_atom_site_fract_y
_atom_site_fract_z
Si Si1 0.632293 0.948417 0.676707
Si Si2 0.087617 0.117658 0.826926
Si Si3 0.413064 0.143102 0.823446
Si Si4 0.410672 0.705686 0.166129
Si Si5 0.177790 0.277141 0.177217
Si Si6 0.691552 0.447832 0.833981
O O1 0.616486 0.941651 0.500000
O O2 0.587973 0.909444 0.768234
O O3 0.721163 0.942145 0.715367
O O4 0.606037 0.000000 0.723914
O O5 0.124178 0.158809 0.729903
O O6 0.137732 0.073739 0.792082
O O7 0.000000 0.107380 0.782906
O O8 0.094810 0.131460 0.000000
O O9 0.500000 0.161425 0.791853
O O10 0.345907 0.173034 0.742722
O O11 0.395234 0.144957 0.000000
O O12 0.500000 0.699341 0.154219
O O13 0.394852 0.746106 0.282816
O O14 0.375458 0.715888 0.000000
O O15 0.250000 0.250000 0.250000
O O16 0.191341 0.282194 0.000000
O O17 0.668009 0.500000 0.841394
O O18 0.678083 0.425841 0.000000
#
# Coordination Sequence:
#
# PCOD8291486 Si02
#       6
#    16  16  16  16  16  16
#     4   9  20  40  65  93 125 164 211 262 317 378
#     4  10  21  35  53  81 116 156 202 251 305 366
#     4  11  25  44  66  95 132 170 209 257 314 375
#     4  10  21  39  62  86 117 157 199 246 300 358
#     4  12  26  43  65  93 125 163 206 253 306 364
#     4   9  19  36  57  81 113 154 200 254 314 373
#
# _framework density 21.156444
#
# number of rings (size 3 to 8) (size 9 to 14) (size 15 to 20)
#    0.000    1.833    0.000    4.500    2.333    7.333 
#    0.000    5.000    0.000    0.000    0.000    0.000 
#    0.000    0.000    0.000    0.000    0.000    0.000 
#
# Total GULP energy -594950.174095 kJ/mol
# GULP energy per Si atom -12394.795294 kJ/mol
# Density = 2.110829 g / cm^3
# Si number density = 21.156444 Si / 1000 Ang^3
#
#
#
# Elastic Constant Matrix: (Units=GPa)
#
#
# Indices 1 2 3 4 5 6 
#
# 1 55.7304 45.9047 46.4238 0.0003 0.0007 -0.0001
# 2 45.9047 110.0381 51.3654 -0.0005 -0.0010 -0.0001
# 3 46.4238 51.3654 116.8365 -0.0001 -0.0047 -0.0009
# 4 0.0003 -0.0005 -0.0001 40.2172 -0.0007 -0.0006
# 5 0.0007 -0.0010 -0.0047 -0.0007 29.0850 -0.0001
# 6 -0.0001 -0.0001 -0.0009 -0.0006 -0.0001 35.7777
#
#
#
# Elastic Compliance Matrix: (Units=1/GPa)
#
#
# Indices 1 2 3 4 5 6 
#
# 1 0.033499 -0.009766 -0.009017 0.000000 -0.000003 0.000000
# 2 -0.009766 0.014281 -0.002398 0.000000 0.000000 0.000000
# 3 -0.009017 -0.002398 0.013196 0.000000 0.000002 0.000000
# 4 0.000000 0.000000 0.000000 0.024865 0.000001 0.000000
# 5 -0.000003 0.000000 0.000002 0.000001 0.034382 0.000000
# 6 0.000000 0.000000 0.000000 0.000000 0.000000 0.027950
#
#
# Mechanical properties :
#
#
# Convention : Reuss Voigt Hill
#
# Bulk Modulus (GPa) = 53.72232 63.33253 58.52742
# Shear Modulus (GPa) = 25.41430 30.27672 27.84551
#
# Velocity S-wave (km/s) = 3.46967 3.78708 3.63184
# Velocity P-wave (km/s) = 6.44201 7.00877 6.73136
#
# Compressibility (1/GPa) = 0.01861424
#
# Stress axis : x y z
#
# Youngs Moduli (GPa) = 29.85200 70.02235 75.77950
#
# Poissons Ratio (x) = 0.68380 0.68331
# Poissons Ratio (y) = 0.29152 0.18174
# Poissons Ratio (z) = 0.26918 0.16793
#
# Static dielectric constant tensor:
#      x y z
#    x 3.730440 0.000000 0.000000 
#    y 0.000000 3.925920 -0.000010 
#    z 0.000000 -0.000010 3.963730 
# 
# 
# High freq. dielectric constant tensor:
#      x y z
#    x 1.825080 0.000000 0.000000 
#    y 0.000000 1.835930 0.000000 
#    z 0.000000 0.000000 1.828490 
# 
# From -- ./inp_files/10982.got.cif
#   From: 2010.06.25/outbox.cif.g09.slc.cpg/sg71_6_cif.got.tgz:10982.got - 2010.06.28 04:59:45.
