data_PCOD8291466
_publ_section_title
;
Structure prediction by ZEFSAII (Michael W. Deem and Ramdas Pophale) SiO2 
 PCOD8291466
Probable space group: I M M M
;
_chemical_formula_sum "Si O2"
_cell_formula_units_Z 96
_cell_length_a 19.087830
_cell_length_b 29.441620
_cell_length_c 9.198535
_cell_angle_alpha 90.000000
_cell_angle_beta 90.000000
_cell_angle_gamma 90.000000
_cell_volume 5169.361769
_symmetry_space_group_name_H-M "I M M M"
_symmetry_group_IT_number 71
_symmetry_cell_setting 'orthorhombic'
loop_
_space_group_symop_operation_xyz
x,y,z
-x,-y,z
x,-y,-z
-x,y,-z
-x,-y,-z
x,y,-z
-x,y,z
x,-y,z
1/2+x,1/2+y,1/2+z
1/2-x,1/2-y,1/2+z
1/2+x,1/2-y,1/2-z
1/2-x,1/2+y,1/2-z
1/2-x,1/2-y,1/2-z
1/2+x,1/2+y,1/2-z
1/2-x,1/2+y,1/2+z
1/2+x,1/2-y,1/2+z
loop_
_atom_site_type_symbol
_atom_site_label
_atom_site_fract_x
_atom_site_fract_y
_atom_site_fract_z
Si Si1 0.679957 0.946879 0.831566
Si Si2 0.080855 0.118408 0.830845
Si Si3 0.419145 0.118408 0.669155
Si Si4 0.319186 0.698825 0.330918
Si Si5 0.180814 0.301175 0.169082
Si Si6 0.679957 0.446879 0.831566
O O1 0.613392 0.921803 0.763994
O O2 0.750000 0.930521 0.750000
O O3 0.667114 0.000000 0.808270
O O4 0.688048 0.934164 0.000000
O O5 0.116417 0.166334 0.790218
O O6 0.113392 0.078197 0.736006
O O7 0.000000 0.122810 0.789042
O O8 0.091356 0.106553 0.000000
O O9 0.408644 0.106553 0.500000
O O10 0.500000 0.122810 0.710958
O O11 0.383583 0.166334 0.709782
O O12 0.301962 0.697026 0.500000
O O13 0.250000 0.681211 0.250000
O O14 0.338993 0.750000 0.281640
O O15 0.198038 0.302974 0.000000
O O16 0.667114 0.500000 0.808270
O O17 0.688048 0.434164 0.000000
#
# Coordination Sequence:
#
# PCOD8291466 Si02
#       6
#    16  16  16  16  16  16
#     4  10  21  37  57  79 103 134 173 216 261 309
#     4  10  21  35  52  77 108 141 175 212 257 307
#     4  10  21  35  52  77 108 141 175 212 257 307
#     4   9  18  33  53  76 102 134 173 215 257 303
#     4   9  18  33  53  76 102 134 173 215 257 303
#     4  10  21  37  57  79 103 134 173 216 261 309
#
# _framework density 18.570958999999998
#
# number of rings (size 3 to 8) (size 9 to 14) (size 15 to 20)
#    0.000    2.333    0.000    2.000    0.000    8.000 
#    0.000    6.667    0.000    0.000    0.000    7.000 
#    0.000    0.000    0.000    0.000    0.000    0.000 
#
# Total GULP energy -595400.442241 kJ/mol
# GULP energy per Si atom -12404.175880 kJ/mol
# Density = 1.852869 g / cm^3
# Si number density = 18.570959 Si / 1000 Ang^3
#
#
#
# Elastic Constant Matrix: (Units=GPa)
#
#
# Indices 1 2 3 4 5 6 
#
# 1 169.4736 77.8408 73.9621 0.0000 0.0001 0.0000
# 2 77.8408 87.5273 56.6763 0.0000 0.0000 0.0000
# 3 73.9621 56.6763 83.9218 -0.0012 -0.0006 -0.0005
# 4 0.0000 0.0000 -0.0012 25.6912 -0.0001 -0.0001
# 5 0.0001 0.0000 -0.0006 -0.0001 32.5614 -0.0001
# 6 0.0000 0.0000 -0.0005 -0.0001 -0.0001 24.0910
#
#
#
# Elastic Compliance Matrix: (Units=1/GPa)
#
#
# Indices 1 2 3 4 5 6 
#
# 1 0.011300 -0.006399 -0.005637 0.000000 0.000000 0.000000
# 2 -0.006399 0.023928 -0.010520 -0.000001 0.000000 0.000000
# 3 -0.005637 -0.010520 0.023989 0.000001 0.000000 0.000001
# 4 0.000000 -0.000001 0.000001 0.038924 0.000000 0.000000
# 5 0.000000 0.000000 0.000000 0.000000 0.030711 0.000000
# 6 0.000000 0.000000 0.000001 0.000000 0.000000 0.041509
#
#
# Mechanical properties :
#
#
# Convention : Reuss Voigt Hill
#
# Bulk Modulus (GPa) = 70.90237 84.20901 77.55569
# Shear Modulus (GPa) = 22.70918 25.29829 24.00373
#
# Velocity S-wave (km/s) = 3.50070 3.69487 3.59909
# Velocity P-wave (km/s) = 7.38931 7.97782 7.68920
#
# Compressibility (1/GPa) = 0.01410390
#
# Stress axis : x y z
#
# Youngs Moduli (GPa) = 88.49470 41.79213 41.68623
#
# Poissons Ratio (x) = 0.26744 0.23500
# Poissons Ratio (y) = 0.56630 0.43853
# Poissons Ratio (z) = 0.49888 0.43965
#
# Static dielectric constant tensor:
#      x y z
#    x 3.395100 0.000000 0.000000 
#    y 0.000000 3.552140 0.000000 
#    z 0.000000 0.000000 3.419620 
# 
# 
# High freq. dielectric constant tensor:
#      x y z
#    x 1.714830 0.000000 0.000000 
#    y 0.000000 1.730480 0.000000 
#    z 0.000000 0.000000 1.719450 
# 
# From -- ./inp_files/10983.got.cif
#   From: 2010.06.25/outbox.cif.g09.slc.cpg/sg71_6_cif.got.tgz:10983.got - 2010.06.28 04:59:45.
