data_PCOD8291881
_publ_section_title
;
Structure prediction by ZEFSAII (Michael W. Deem and Ramdas Pophale) SiO2 
 PCOD8291881
Probable space group: I M M M
;
_chemical_formula_sum "Si O2"
_cell_formula_units_Z 72
_cell_length_a 26.312517
_cell_length_b 8.849868
_cell_length_c 15.430934
_cell_angle_alpha 90.000000
_cell_angle_beta 90.000000
_cell_angle_gamma 90.000000
_cell_volume 3593.282816
_symmetry_space_group_name_H-M "I M M M"
_symmetry_group_IT_number 71
_symmetry_cell_setting 'orthorhombic'
loop_
_space_group_symop_operation_xyz
x,y,z
-x,-y,z
x,-y,-z
-x,y,-z
-x,-y,-z
x,y,-z
-x,y,z
x,-y,z
1/2+x,1/2+y,1/2+z
1/2-x,1/2-y,1/2+z
1/2+x,1/2-y,1/2-z
1/2-x,1/2+y,1/2-z
1/2-x,1/2-y,1/2-z
1/2+x,1/2+y,1/2-z
1/2-x,1/2+y,1/2+z
1/2+x,1/2-y,1/2+z
loop_
_atom_site_type_symbol
_atom_site_label
_atom_site_fract_x
_atom_site_fract_y
_atom_site_fract_z
Si Si1 0.058036 0.824521 0.327614
Si Si2 0.231775 0.675082 0.837446
Si Si3 0.887126 0.325180 0.829779
Si Si4 0.097459 0.678506 0.500000
Si Si5 0.442808 0.179756 0.500000
Si Si6 0.285913 0.820923 0.000000
O O1 0.095863 0.767337 0.253730
O O2 0.068848 0.738845 0.416170
O O3 0.000000 0.793165 0.299116
O O4 0.068249 0.000000 0.343347
O O5 0.246941 0.500000 0.837881
O O6 0.250000 0.750000 0.750000
O O7 0.171970 0.697417 0.846944
O O8 0.259157 0.756997 0.915703
O O9 0.900892 0.500000 0.813704
O O10 0.915437 0.258600 0.914035
O O11 0.093915 0.500000 0.500000
O O12 0.155778 0.732517 0.500000
O O13 0.500000 0.241172 0.500000
O O14 0.440220 0.000000 0.500000
O O15 0.281261 0.000000 0.000000
#
# Coordination Sequence:
#
# PCOD8291881 Si02
#       6
#    16  16  16   8   8   8
#     4  11  24  40  59  87 121 154 191 239 296 353
#     4  11  23  39  60  87 119 155 197 244 293 348
#     4  10  21  38  60  86 116 152 195 239 284 341
#     4  11  24  41  62  87 114 151 200 245 287 346
#     4   9  17  32  57  85 110 141 184 231 277 327
#     4  11  24  41  61  88 120 155 198 245 296 355
#
# _framework density 20.037386999999999
#
# number of rings (size 3 to 8) (size 9 to 14) (size 15 to 20)
#    0.000    1.444    0.000    5.000    0.000   14.667 
#    0.000    0.556    0.000    2.000    0.000    0.000 
#    0.000    0.000    0.000    0.000    0.000    0.000 
#
# Total GULP energy -446609.796059 kJ/mol
# GULP energy per Si atom -12405.827668 kJ/mol
# Density = 1.999178 g / cm^3
# Si number density = 20.037387 Si / 1000 Ang^3
#
#
#
# Elastic Constant Matrix: (Units=GPa)
#
#
# Indices 1 2 3 4 5 6 
#
# 1 80.8152 40.3609 23.2801 0.0000 0.0000 0.0000
# 2 40.3609 76.9092 33.2784 0.0000 0.0000 0.0000
# 3 23.2801 33.2784 131.0006 0.0000 0.0000 0.0000
# 4 0.0000 0.0000 0.0000 -7.2468 0.0000 0.0000
# 5 0.0000 0.0000 0.0000 0.0000 45.2635 0.0000
# 6 0.0000 0.0000 0.0000 0.0000 0.0000 33.0188
#
#
#
# Elastic Compliance Matrix: (Units=1/GPa)
#
#
# Indices 1 2 3 4 5 6 
#
# 1 0.016851 -0.008479 -0.000841 0.000000 0.000000 0.000000
# 2 -0.008479 0.018875 -0.003288 0.000000 0.000000 0.000000
# 3 -0.000841 -0.003288 0.008618 0.000000 0.000000 0.000000
# 4 0.000000 0.000000 0.000000 -0.137991 0.000000 0.000000
# 5 0.000000 0.000000 0.000000 0.000000 0.022093 0.000000
# 6 0.000000 0.000000 0.000000 0.000000 0.000000 0.030286
#
#
# Mechanical properties :
#
#
# Convention : Reuss Voigt Hill
#
# Bulk Modulus (GPa) = 52.27897 53.61820 52.94858
# Shear Modulus (GPa) = -516.70281 26.99413 -244.85434
#
# Velocity S-wave (km/s) = -16.07573 3.67439 -11.06635
# Velocity P-wave (km/s) = 17.84446 6.69467 11.69629
#
# Compressibility (1/GPa) = 0.01912815
#
# Stress axis : x y z
#
# Youngs Moduli (GPa) = 59.34421 52.98037 116.03391
#
# Poissons Ratio (x) = 0.44924 0.09753
# Poissons Ratio (y) = 0.50320 0.38151
# Poissons Ratio (z) = 0.04988 0.17420
#
# Static dielectric constant tensor:
#      x y z
#    x 3.753270 0.000000 0.000000 
#    y 0.000000 3.651590 0.000000 
#    z 0.000000 0.000000 5.401430 
# 
# 
# High freq. dielectric constant tensor:
#      x y z
#    x 1.800300 0.000000 0.000000 
#    y 0.000000 1.777200 0.000000 
#    z 0.000000 0.000000 1.801020 
# 
# From -- ./inp_files/6191.got.cif
#   From: 2010.06.25/outbox.cif.g09.slc.cpg/sg71_4_cif.got.tgz:6191.got - 2010.06.28 04:59:45.
