data_PCOD8291276
_publ_section_title
;
Structure prediction by ZEFSAII (Michael W. Deem and Ramdas Pophale) SiO2 
 PCOD8291276
Probable space group: I M M M
;
_chemical_formula_sum "Si O2"
_cell_formula_units_Z 72
_cell_length_a 24.282121
_cell_length_b 9.159435
_cell_length_c 16.656305
_cell_angle_alpha 90.000000
_cell_angle_beta 90.000000
_cell_angle_gamma 90.000000
_cell_volume 3704.537272
_symmetry_space_group_name_H-M "I M M M"
_symmetry_group_IT_number 71
_symmetry_cell_setting 'orthorhombic'
loop_
_space_group_symop_operation_xyz
x,y,z
-x,-y,z
x,-y,-z
-x,y,-z
-x,-y,-z
x,y,-z
-x,y,z
x,-y,z
1/2+x,1/2+y,1/2+z
1/2-x,1/2-y,1/2+z
1/2+x,1/2-y,1/2-z
1/2-x,1/2+y,1/2-z
1/2-x,1/2-y,1/2-z
1/2+x,1/2+y,1/2-z
1/2-x,1/2+y,1/2+z
1/2+x,1/2-y,1/2+z
loop_
_atom_site_type_symbol
_atom_site_label
_atom_site_fract_x
_atom_site_fract_y
_atom_site_fract_z
Si Si1 0.564633 0.172144 0.500000
Si Si2 0.238275 0.668230 0.589644
Si Si3 0.861382 0.171217 0.873813
Si Si4 0.650269 0.328736 0.809254
Si Si5 0.437602 0.164133 0.906796
O O1 0.500000 0.209693 0.500000
O O2 0.591603 0.240058 0.420115
O O3 0.575022 0.000000 0.500000
O O4 0.214533 0.697633 0.500000
O O5 0.231472 0.500000 0.613777
O O6 0.302283 0.711166 0.589014
O O7 0.205898 0.759702 0.655849
O O8 0.860426 0.221579 0.781503
O O9 0.874367 0.000000 0.883152
O O10 0.658043 0.500000 0.814745
O O11 0.597816 0.281410 0.860060
O O12 0.500000 0.176813 0.876139
O O13 0.415226 0.000000 0.891165
O O14 0.434140 0.201940 0.000000
#
# Coordination Sequence:
#
# PCOD8291276 Si02
#       5
#     8  16  16  16  16
#     4  11  25  43  65  93 119 149 196 253 306 351
#     4  10  20  37  61  84 114 157 200 237 284 348
#     4  10  22  42  62  83 116 157 196 237 290 354
#     4  11  23  35  55  89 122 151 190 240 296 351
#     4   9  19  37  58  78 107 152 199 238 284 345
#
# _framework density 19.435625999999999
#
# number of rings (size 3 to 8) (size 9 to 14) (size 15 to 20)
#    0.000    1.889    1.111    3.000    0.000    8.444 
#    0.000    5.556    0.000    0.000    0.000    0.000 
#    0.000    0.000    0.000    0.000    0.000    0.000 
#
# Total GULP energy -446487.815871 kJ/mol
# GULP energy per Si atom -12402.439330 kJ/mol
# Density = 1.939139 g / cm^3
# Si number density = 19.435626 Si / 1000 Ang^3
#
#
#
# Elastic Constant Matrix: (Units=GPa)
#
#
# Indices 1 2 3 4 5 6 
#
# 1 118.5961 56.7320 65.7393 0.0000 0.0000 0.0000
# 2 56.7320 82.0933 63.5842 0.0000 0.0000 0.0000
# 3 65.7393 63.5842 120.0792 0.0000 0.0000 0.0000
# 4 0.0000 0.0000 0.0000 32.5004 0.0000 0.0000
# 5 0.0000 0.0000 0.0000 0.0000 1.2686 0.0000
# 6 0.0000 0.0000 0.0000 0.0000 0.0000 35.3999
#
#
#
# Elastic Compliance Matrix: (Units=1/GPa)
#
#
# Indices 1 2 3 4 5 6 
#
# 1 0.013759 -0.006229 -0.004234 0.000000 0.000000 0.000000
# 2 -0.006229 0.023471 -0.009018 0.000000 0.000000 0.000000
# 3 -0.004234 -0.009018 0.015421 0.000000 0.000000 0.000000
# 4 0.000000 0.000000 0.000000 0.030769 0.000000 0.000000
# 5 0.000000 0.000000 0.000000 0.000000 0.788269 0.000000
# 6 0.000000 0.000000 0.000000 0.000000 0.000000 0.028249
#
#
# Mechanical properties :
#
#
# Convention : Reuss Voigt Hill
#
# Bulk Modulus (GPa) = 73.05434 76.98664 75.02049
# Shear Modulus (GPa) = 5.29963 22.81465 14.05714
#
# Velocity S-wave (km/s) = 1.65308 3.42988 2.69228
# Velocity P-wave (km/s) = 6.42752 7.44194 6.95326
#
# Compressibility (1/GPa) = 0.01368844
#
# Stress axis : x y z
#
# Youngs Moduli (GPa) = 72.68205 42.60666 64.84573
#
# Poissons Ratio (x) = 0.26538 0.27457
# Poissons Ratio (y) = 0.45270 0.58479
# Poissons Ratio (z) = 0.30775 0.38423
#
# Static dielectric constant tensor:
#      x y z
#    x 3.551020 0.000000 0.000000 
#    y 0.000000 3.430470 0.000000 
#    z 0.000000 0.000000 3.681390 
# 
# 
# High freq. dielectric constant tensor:
#      x y z
#    x 1.763560 0.000000 0.000000 
#    y 0.000000 1.749090 0.000000 
#    z 0.000000 0.000000 1.765860 
# 
# From -- ./inp_files/6047.got.cif
#   From: 2010.06.25/outbox.cif.g09.slc.cpg/sg71_4_cif.got.tgz:6047.got - 2010.06.28 04:59:45.
