data_PCOD8291534
_publ_section_title
;
Structure prediction by ZEFSAII (Michael W. Deem and Ramdas Pophale) SiO2 
 PCOD8291534
Probable space group: I M M M
;
_chemical_formula_sum "Si O2"
_cell_formula_units_Z 104
_cell_length_a 9.223501
_cell_length_b 22.182522
_cell_length_c 26.797173
_cell_angle_alpha 90.000000
_cell_angle_beta 90.000000
_cell_angle_gamma 90.000000
_cell_volume 5482.715366
_symmetry_space_group_name_H-M "I M M M"
_symmetry_group_IT_number 71
_symmetry_cell_setting 'orthorhombic'
loop_
_space_group_symop_operation_xyz
x,y,z
-x,-y,z
x,-y,-z
-x,y,-z
-x,-y,-z
x,y,-z
-x,y,z
x,-y,z
1/2+x,1/2+y,1/2+z
1/2-x,1/2-y,1/2+z
1/2+x,1/2-y,1/2-z
1/2-x,1/2+y,1/2-z
1/2-x,1/2-y,1/2-z
1/2+x,1/2+y,1/2-z
1/2-x,1/2+y,1/2+z
1/2+x,1/2-y,1/2+z
loop_
_atom_site_type_symbol
_atom_site_label
_atom_site_fract_x
_atom_site_fract_y
_atom_site_fract_z
Si Si1 0.668943 0.393990 0.444026
Si Si2 0.334497 0.065790 0.855590
Si Si3 0.668590 0.308512 0.189895
Si Si4 0.156745 0.761914 0.057536
Si Si5 0.828928 0.428638 0.000000
Si Si6 0.670303 0.174070 0.789830
Si Si7 0.669812 0.649015 0.918001
O O1 0.730177 0.401921 0.500000
O O2 0.500000 0.409046 0.442902
O O3 0.751971 0.439354 0.408014
O O4 0.700387 0.327119 0.421087
O O5 0.500000 0.082306 0.867049
O O6 0.266761 0.117892 0.820926
O O7 0.320828 0.000000 0.829424
O O8 0.500000 0.313842 0.202715
O O9 0.709864 0.237468 0.182613
O O10 0.758772 0.333444 0.235766
O O11 0.705467 0.349685 0.141267
O O12 0.286460 0.715116 0.063769
O O13 0.000000 0.739491 0.080125
O O14 0.129505 0.774080 0.000000
O O15 0.759035 0.400904 0.949431
O O16 0.800186 0.500000 0.000000
O O17 0.000000 0.413569 0.000000
O O18 0.500000 0.168496 0.781541
O O19 0.500000 0.638420 0.928181
#
# Coordination Sequence:
#
# PCOD8291534 Si02
#       7
#    16  16  16  16   8  16  16
#     4   9  19  34  51  75 107 142 181 223 265 310
#     4  10  21  36  53  74 103 141 182 223 268 319
#     4   9  19  34  55  84 112 135 170 222 280 334
#     4   9  17  30  49  75 108 141 173 214 260 310
#     4  11  25  43  59  77 109 153 196 235 276 333
#     4   9  18  35  56  79 109 142 177 220 271 328
#     4  11  21  34  56  85 113 143 179 223 276 332
#
# _framework density 18.968703000000001
#
# number of rings (size 3 to 8) (size 9 to 14) (size 15 to 20)
#    0.000    2.385    0.769    2.538    0.000    5.231 
#    0.000    6.923    0.000    2.769    0.000    0.000 
#    0.000    0.000    0.000    0.000    0.000    0.000 
#
# Total GULP energy -644400.094643 kJ/mol
# GULP energy per Si atom -12392.309512 kJ/mol
# Density = 1.892553 g / cm^3
# Si number density = 18.968703 Si / 1000 Ang^3
#
#
#
# Elastic Constant Matrix: (Units=GPa)
#
#
# Indices 1 2 3 4 5 6 
#
# 1 63.7810 42.5173 46.4961 0.0000 0.0000 0.0000
# 2 42.5173 98.8454 61.3897 0.0000 0.0000 0.0000
# 3 46.4961 61.3897 112.4399 0.0000 0.0000 0.0000
# 4 0.0000 0.0000 0.0000 23.2014 0.0000 0.0000
# 5 0.0000 0.0000 0.0000 0.0000 32.0624 0.0000
# 6 0.0000 0.0000 0.0000 0.0000 0.0000 20.5648
#
#
#
# Elastic Compliance Matrix: (Units=1/GPa)
#
#
# Indices 1 2 3 4 5 6 
#
# 1 0.024962 -0.006546 -0.006748 0.000000 0.000000 0.000000
# 2 -0.006546 0.017024 -0.006588 0.000000 0.000000 0.000000
# 3 -0.006748 -0.006588 0.015281 0.000000 0.000000 0.000000
# 4 0.000000 0.000000 0.000000 0.043101 0.000000 0.000000
# 5 0.000000 0.000000 0.000000 0.000000 0.031189 0.000000
# 6 0.000000 0.000000 0.000000 0.000000 0.000000 0.048627
#
#
# Mechanical properties :
#
#
# Convention : Reuss Voigt Hill
#
# Bulk Modulus (GPa) = 57.13414 63.98583 60.55999
# Shear Modulus (GPa) = 22.14531 23.47661 22.81096
#
# Velocity S-wave (km/s) = 3.42053 3.52184 3.47155
# Velocity P-wave (km/s) = 6.76651 7.09531 6.93286
#
# Compressibility (1/GPa) = 0.01750267
#
# Stress axis : x y z
#
# Youngs Moduli (GPa) = 40.06148 58.74084 65.44076
#
# Poissons Ratio (x) = 0.38451 0.44161
# Poissons Ratio (y) = 0.26224 0.43111
# Poissons Ratio (z) = 0.27034 0.38698
#
# Static dielectric constant tensor:
#      x y z
#    x 3.420670 0.000000 0.000000 
#    y 0.000000 3.423830 0.000000 
#    z 0.000000 0.000000 3.497640 
# 
# 
# High freq. dielectric constant tensor:
#      x y z
#    x 1.735260 0.000000 0.000000 
#    y 0.000000 1.724770 0.000000 
#    z 0.000000 0.000000 1.729570 
# 
# From -- ./inp_files/57986.got.cif
#   From: 2010.06.25/outbox.cif.g09.slc.cpg/sg71_29_cif.got.tgz:57986.got - 2010.06.28 04:59:45.
