data_PCOD8291081
_publ_section_title
;
Structure prediction by ZEFSAII (Michael W. Deem and Ramdas Pophale) SiO2 
 PCOD8291081
Probable space group: I M M M
;
_chemical_formula_sum "Si O2"
_cell_formula_units_Z 104
_cell_length_a 15.459334
_cell_length_b 16.181576
_cell_length_c 21.897712
_cell_angle_alpha 90.000000
_cell_angle_beta 90.000000
_cell_angle_gamma 90.000000
_cell_volume 5477.852540
_symmetry_space_group_name_H-M "I M M M"
_symmetry_group_IT_number 71
_symmetry_cell_setting 'orthorhombic'
loop_
_space_group_symop_operation_xyz
x,y,z
-x,-y,z
x,-y,-z
-x,y,-z
-x,-y,-z
x,y,-z
-x,y,z
x,-y,z
1/2+x,1/2+y,1/2+z
1/2-x,1/2-y,1/2+z
1/2+x,1/2-y,1/2-z
1/2-x,1/2+y,1/2-z
1/2-x,1/2-y,1/2-z
1/2+x,1/2+y,1/2-z
1/2-x,1/2+y,1/2+z
1/2+x,1/2-y,1/2+z
loop_
_atom_site_type_symbol
_atom_site_label
_atom_site_fract_x
_atom_site_fract_y
_atom_site_fract_z
Si Si1 0.830587 0.660636 0.859965
Si Si2 0.094632 0.910939 0.428020
Si Si3 0.248168 0.094236 0.243079
Si Si4 0.602245 0.000000 0.430505
Si Si5 0.094320 0.788304 0.223415
Si Si6 0.196148 0.248286 0.428572
Si Si7 0.400471 0.834154 0.171954
O O1 0.760308 0.626845 0.811675
O O2 0.867008 0.583311 0.897504
O O3 0.903994 0.709786 0.822568
O O4 0.793035 0.733598 0.904125
O O5 0.084479 0.911283 0.500000
O O6 0.158229 0.840001 0.408431
O O7 0.000000 0.895410 0.398737
O O8 0.131367 0.000000 0.405693
O O9 0.172033 0.147605 0.211066
O O10 0.338501 0.099997 0.205714
O O11 0.217482 0.000000 0.243671
O O12 0.500000 0.000000 0.430438
O O13 0.638517 0.000000 0.500000
O O14 0.103117 0.752273 0.291775
O O15 0.000000 0.831224 0.215758
O O16 0.194131 0.268861 0.500000
O O17 0.140531 0.319332 0.395311
O O18 0.500000 0.866879 0.166687
#
# Coordination Sequence:
#
# PCOD8291081 Si02
#       7
#    16  16  16   8  16  16  16
#     4  11  20  38  56  83 119 154 193 235 288 346
#     4   8  15  26  38  59  95 138 182 219 250 302
#     4  11  21  38  60  84 115 145 192 253 297 346
#     4  11  24  38  54  86 127 163 202 240 278 343
#     4  10  20  38  62  82 109 150 193 248 305 342
#     4  11  20  31  53  79 111 153 191 225 275 346
#     4  10  20  36  56  83 116 147 188 239 289 346
#
# _framework density 18.985543
#
# number of rings (size 3 to 8) (size 9 to 14) (size 15 to 20)
#    0.000    1.769    3.846    2.769    1.077    2.154 
#    0.000    0.000    0.000    0.462    0.000    1.077 
#    0.000    1.231    0.000    0.000    0.000    0.000 
#
# Total GULP energy -644343.844467 kJ/mol
# GULP energy per Si atom -12391.227778 kJ/mol
# Density = 1.894233 g / cm^3
# Si number density = 18.985543 Si / 1000 Ang^3
#
#
#
# Elastic Constant Matrix: (Units=GPa)
#
#
# Indices 1 2 3 4 5 6 
#
# 1 96.0676 30.0893 34.8015 0.0000 0.0000 0.0000
# 2 30.0893 55.2956 27.7536 0.0000 0.0000 0.0000
# 3 34.8015 27.7536 110.3402 0.0000 0.0000 0.0000
# 4 0.0000 0.0000 0.0000 23.7164 0.0000 0.0000
# 5 0.0000 0.0000 0.0000 0.0000 18.1763 0.0000
# 6 0.0000 0.0000 0.0000 0.0000 0.0000 26.4392
#
#
#
# Elastic Compliance Matrix: (Units=1/GPa)
#
#
# Indices 1 2 3 4 5 6 
#
# 1 0.013215 -0.005836 -0.002700 0.000000 0.000000 0.000000
# 2 -0.005836 0.023275 -0.004014 0.000000 0.000000 0.000000
# 3 -0.002700 -0.004014 0.010924 0.000000 0.000000 0.000000
# 4 0.000000 0.000000 0.000000 0.042165 0.000000 0.000000
# 5 0.000000 0.000000 0.000000 0.000000 0.055017 0.000000
# 6 0.000000 0.000000 0.000000 0.000000 0.000000 0.037823
#
#
# Mechanical properties :
#
#
# Convention : Reuss Voigt Hill
#
# Bulk Modulus (GPa) = 44.81352 49.66579 47.23965
# Shear Modulus (GPa) = 23.26056 24.93698 24.09877
#
# Velocity S-wave (km/s) = 3.50404 3.62812 3.56662
# Velocity P-wave (km/s) = 6.32664 6.61571 6.47279
#
# Compressibility (1/GPa) = 0.02231470
#
# Stress axis : x y z
#
# Youngs Moduli (GPa) = 75.66930 42.96507 91.54089
#
# Poissons Ratio (x) = 0.25074 0.24719
# Poissons Ratio (y) = 0.44160 0.36741
# Poissons Ratio (z) = 0.20433 0.17244
#
# Static dielectric constant tensor:
#      x y z
#    x 3.586070 0.000000 0.000000 
#    y 0.000000 3.264270 0.000000 
#    z 0.000000 0.000000 3.372950 
# 
# 
# High freq. dielectric constant tensor:
#      x y z
#    x 1.743370 0.000000 0.000000 
#    y 0.000000 1.704590 0.000000 
#    z 0.000000 0.000000 1.727300 
# 
# From -- ./inp_files/60737.got.cif
#   From: 2010.06.25/outbox.cif.g09.slc.cpg/sg71_31_cif.got.tgz:60737.got - 2010.06.28 04:59:45.
