data_PCOD8291576
_publ_section_title
;
Structure prediction by ZEFSAII (Michael W. Deem and Ramdas Pophale) SiO2 
 PCOD8291576
Probable space group: I M M M
;
_chemical_formula_sum "Si O2"
_cell_formula_units_Z 88
_cell_length_a 12.564606
_cell_length_b 28.030795
_cell_length_c 13.742899
_cell_angle_alpha 90.000000
_cell_angle_beta 90.000000
_cell_angle_gamma 90.000000
_cell_volume 4840.192614
_symmetry_space_group_name_H-M "I M M M"
_symmetry_group_IT_number 71
_symmetry_cell_setting 'orthorhombic'
loop_
_space_group_symop_operation_xyz
x,y,z
-x,-y,z
x,-y,-z
-x,y,-z
-x,-y,-z
x,y,-z
-x,y,z
x,-y,z
1/2+x,1/2+y,1/2+z
1/2-x,1/2-y,1/2+z
1/2+x,1/2-y,1/2-z
1/2-x,1/2+y,1/2-z
1/2-x,1/2-y,1/2-z
1/2+x,1/2+y,1/2-z
1/2-x,1/2+y,1/2+z
1/2+x,1/2-y,1/2+z
loop_
_atom_site_type_symbol
_atom_site_label
_atom_site_fract_x
_atom_site_fract_y
_atom_site_fract_z
Si Si1 0.876207 0.292730 0.790589
Si Si2 0.121179 0.887972 0.891681
Si Si3 0.261862 0.709952 0.388299
Si Si4 0.000000 0.446878 0.115645
Si Si5 0.623539 0.445287 0.205165
Si Si6 0.198752 0.613909 0.886602
O O1 0.841851 0.282288 0.679222
O O2 0.854161 0.246667 0.857046
O O3 0.805458 0.336155 0.830765
O O4 0.000000 0.305631 0.795361
O O5 0.196125 0.843203 0.872150
O O6 0.148057 0.929908 0.816079
O O7 0.000000 0.870460 0.879243
O O8 0.140357 0.908655 0.000000
O O9 0.229154 0.719009 0.500000
O O10 0.895490 0.419732 0.153385
O O11 0.000000 0.500000 0.160381
O O12 0.000000 0.449455 0.000000
O O13 0.500000 0.438469 0.178965
O O14 0.658579 0.500000 0.192438
O O15 0.689294 0.412217 0.131547
O O16 0.185107 0.624543 0.000000
#
# Coordination Sequence:
#
# PCOD8291576 Si02
#       6
#    16  16  16   8  16  16
#     4  11  22  37  59  86 114 145 183 227 277 332
#     4   9  17  32  55  80 106 138 179 227 275 325
#     4  10  21  37  58  84 113 146 181 221 272 331
#     4   9  18  32  52  76 103 141 185 229 273 317
#     4  10  21  36  54  78 110 147 188 234 284 337
#     4  11  21  35  54  80 112 145 187 234 277 330
#
# _framework density 18.181094999999999
#
# number of rings (size 3 to 8) (size 9 to 14) (size 15 to 20)
#    0.000    1.909    2.727    1.636    0.000    4.000 
#    0.000    2.727    0.000    2.182    0.000    0.000 
#    0.000    5.818    0.000    0.000    0.000    0.000 
#
# Total GULP energy -545693.134978 kJ/mol
# GULP energy per Si atom -12402.116704 kJ/mol
# Density = 1.813971 g / cm^3
# Si number density = 18.181095 Si / 1000 Ang^3
#
#
#
# Elastic Constant Matrix: (Units=GPa)
#
#
# Indices 1 2 3 4 5 6 
#
# 1 74.0367 32.5862 30.4929 0.0001 -0.0002 0.0000
# 2 32.5862 70.2561 28.9472 -0.0003 -0.0001 0.0001
# 3 30.4929 28.9472 89.9578 -0.0034 0.0027 0.0005
# 4 0.0001 -0.0003 -0.0034 26.3829 0.0010 0.0002
# 5 -0.0002 -0.0001 0.0027 0.0010 21.3036 -0.0002
# 6 0.0000 0.0001 0.0005 0.0002 -0.0002 28.7549
#
#
#
# Elastic Compliance Matrix: (Units=1/GPa)
#
#
# Indices 1 2 3 4 5 6 
#
# 1 0.018119 -0.006771 -0.003963 -0.000001 0.000001 0.000000
# 2 -0.006771 0.018940 -0.003799 0.000000 0.000001 0.000000
# 3 -0.003963 -0.003799 0.013682 0.000002 -0.000002 0.000000
# 4 -0.000001 0.000000 0.000002 0.037903 -0.000002 0.000000
# 5 0.000001 0.000001 -0.000002 -0.000002 0.046940 0.000000
# 6 0.000000 0.000000 0.000000 0.000000 0.000000 0.034777
#
#
# Mechanical properties :
#
#
# Convention : Reuss Voigt Hill
#
# Bulk Modulus (GPa) = 46.13793 46.47813 46.30803
# Shear Modulus (GPa) = 24.19512 24.76992 24.48252
#
# Velocity S-wave (km/s) = 3.65195 3.69507 3.67358
# Velocity P-wave (km/s) = 6.57376 6.61999 6.59691
#
# Compressibility (1/GPa) = 0.02167414
#
# Stress axis : x y z
#
# Youngs Moduli (GPa) = 55.18982 52.79919 73.08762
#
# Poissons Ratio (x) = 0.35752 0.28964
# Poissons Ratio (y) = 0.37370 0.27768
# Poissons Ratio (z) = 0.21872 0.20060
#
# Static dielectric constant tensor:
#      x y z
#    x 3.208740 0.000000 0.000000 
#    y 0.000000 3.383080 0.000000 
#    z 0.000000 0.000000 3.315720 
# 
# 
# High freq. dielectric constant tensor:
#      x y z
#    x 1.693630 0.000000 0.000000 
#    y 0.000000 1.710890 0.000000 
#    z 0.000000 0.000000 1.699330 
# 
# From -- ./inp_files/20289.got.cif
#   From: 2010.06.25/outbox.cif.g09.slc.cpg/sg71_11_cif.got.tgz:20289.got - 2010.06.28 04:59:45.
