data_PCOD8291624
_publ_section_title
;
Structure prediction by ZEFSAII (Michael W. Deem and Ramdas Pophale) SiO2 
 PCOD8291624
Probable space group: I M M M
;
_chemical_formula_sum "Si O2"
_cell_formula_units_Z 120
_cell_length_a 8.960483
_cell_length_b 25.271281
_cell_length_c 27.207990
_cell_angle_alpha 90.000000
_cell_angle_beta 90.000000
_cell_angle_gamma 90.000000
_cell_volume 6161.055718
_symmetry_space_group_name_H-M "I M M M"
_symmetry_group_IT_number 71
_symmetry_cell_setting 'orthorhombic'
loop_
_space_group_symop_operation_xyz
x,y,z
-x,-y,z
x,-y,-z
-x,y,-z
-x,-y,-z
x,y,-z
-x,y,z
x,-y,z
1/2+x,1/2+y,1/2+z
1/2-x,1/2-y,1/2+z
1/2+x,1/2-y,1/2-z
1/2-x,1/2+y,1/2-z
1/2-x,1/2-y,1/2-z
1/2+x,1/2+y,1/2-z
1/2-x,1/2+y,1/2+z
1/2+x,1/2-y,1/2+z
loop_
_atom_site_type_symbol
_atom_site_label
_atom_site_fract_x
_atom_site_fract_y
_atom_site_fract_z
Si Si1 0.670238 0.583152 0.944890
Si Si2 0.826350 0.206959 0.447188
Si Si3 0.324201 0.060911 0.099235
Si Si4 0.668435 0.562791 0.500000
Si Si5 0.677867 0.255213 0.845111
Si Si6 0.675563 0.357520 0.787059
Si Si7 0.169016 0.441316 0.851874
Si Si8 0.823062 0.639710 0.684841
O O1 0.500000 0.569485 0.930488
O O2 0.698601 0.645232 0.940217
O O3 0.783984 0.553910 0.908804
O O4 0.703464 0.563465 0.000000
O O5 0.755613 0.225339 0.500000
O O6 0.754046 0.235747 0.399868
O O7 0.000000 0.220511 0.448987
O O8 0.500000 0.066007 0.091927
O O9 0.268201 0.097169 0.144418
O O10 0.278105 0.000000 0.110024
O O11 0.249996 0.083094 0.049284
O O12 0.673992 0.500000 0.500000
O O13 0.500000 0.584370 0.500000
O O14 0.500000 0.257743 0.847630
O O15 0.733542 0.300528 0.807173
O O16 0.736281 0.198215 0.828236
O O17 0.500000 0.356339 0.778434
O O18 0.715037 0.402314 0.826197
O O19 0.755309 0.374923 0.737120
O O20 0.179185 0.500000 0.828473
O O21 0.000000 0.419698 0.847216
O O22 0.000000 0.638402 0.688935
#
# Coordination Sequence:
#
# PCOD8291624 Si02
#       8
#    16  16  16   8  16  16  16  16
#     4   9  17  32  56  82 108 142 183 227 275 327
#     4   8  13  25  49  79 108 138 173 219 271 319
#     4   9  18  34  55  79 111 148 181 217 264 322
#     4   9  17  31  55  83 109 143 183 219 260 315
#     4   9  17  32  54  81 110 141 181 229 276 327
#     4  11  22  38  59  79 105 143 186 233 282 331
#     4  11  24  39  55  78 109 145 184 229 281 334
#     4  10  21  36  55  83 113 143 185 230 276 326
#
# _framework density 19.477181999999999
#
# number of rings (size 3 to 8) (size 9 to 14) (size 15 to 20)
#    0.000    2.467    1.333    2.200    0.000    3.467 
#    1.200    3.333    0.000    0.000    0.000    0.000 
#    0.000    0.000    0.000    0.000    0.000    0.000 
#
# Total GULP energy -743772.954236 kJ/mol
# GULP energy per Si atom -12396.215904 kJ/mol
# Density = 1.943285 g / cm^3
# Si number density = 19.477182 Si / 1000 Ang^3
#
#
#
# Elastic Constant Matrix: (Units=GPa)
#
#
# Indices 1 2 3 4 5 6 
#
# 1 32.1860 23.3580 28.4044 0.0000 0.0000 0.0000
# 2 23.3580 86.2359 51.6748 0.0000 0.0000 0.0000
# 3 28.4044 51.6748 142.3228 0.0000 0.0000 0.0000
# 4 0.0000 0.0000 0.0000 20.4014 0.0000 0.0000
# 5 0.0000 0.0000 0.0000 0.0000 30.9944 0.0000
# 6 0.0000 0.0000 0.0000 0.0000 0.0000 17.0979
#
#
#
# Elastic Compliance Matrix: (Units=1/GPa)
#
#
# Indices 1 2 3 4 5 6 
#
# 1 0.041675 -0.008057 -0.005392 0.000000 0.000000 0.000000
# 2 -0.008057 0.016378 -0.004339 0.000000 0.000000 0.000000
# 3 -0.005392 -0.004339 0.009678 0.000000 0.000000 0.000000
# 4 0.000000 0.000000 0.000000 0.049016 0.000000 0.000000
# 5 0.000000 0.000000 0.000000 0.000000 0.032264 0.000000
# 6 0.000000 0.000000 0.000000 0.000000 0.000000 0.058487
#
#
# Mechanical properties :
#
#
# Convention : Reuss Voigt Hill
#
# Bulk Modulus (GPa) = 31.09891 51.95768 41.52830
# Shear Modulus (GPa) = 19.70118 24.18592 21.94355
#
# Velocity S-wave (km/s) = 3.18386 3.52768 3.36017
# Velocity P-wave (km/s) = 5.43300 6.58231 6.03507
#
# Compressibility (1/GPa) = 0.03215547
#
# Stress axis : x y z
#
# Youngs Moduli (GPa) = 23.99516 61.05639 103.33059
#
# Poissons Ratio (x) = 0.49194 0.55716
# Poissons Ratio (y) = 0.19333 0.44831
# Poissons Ratio (z) = 0.12938 0.26490
#
# Static dielectric constant tensor:
#      x y z
#    x 3.179430 0.000000 0.000000 
#    y 0.000000 3.499630 0.000000 
#    z 0.000000 0.000000 3.808310 
# 
# 
# High freq. dielectric constant tensor:
#      x y z
#    x 1.721590 0.000000 0.000000 
#    y 0.000000 1.747550 0.000000 
#    z 0.000000 0.000000 1.772460 
# 
# From -- ./inp_files/63754.got.cif
#   From: 2010.06.25/outbox.cif.g09.slc.cpg/sg71_32_cif.got.tgz:63754.got - 2010.06.28 04:59:45.
