data_PCOD8291148
_publ_section_title
;
Structure prediction by ZEFSAII (Michael W. Deem and Ramdas Pophale) SiO2 
 PCOD8291148
Probable space group: I M M M
;
_chemical_formula_sum "Si O2"
_cell_formula_units_Z 74
_cell_length_a 9.259089
_cell_length_b 26.232063
_cell_length_c 16.749026
_cell_angle_alpha 90.000000
_cell_angle_beta 90.000000
_cell_angle_gamma 90.000000
_cell_volume 4068.087280
_symmetry_space_group_name_H-M "I M M M"
_symmetry_group_IT_number 71
_symmetry_cell_setting 'orthorhombic'
loop_
_space_group_symop_operation_xyz
x,y,z
-x,-y,z
x,-y,-z
-x,y,-z
-x,-y,-z
x,y,-z
-x,y,z
x,-y,z
1/2+x,1/2+y,1/2+z
1/2-x,1/2-y,1/2+z
1/2+x,1/2-y,1/2-z
1/2-x,1/2+y,1/2-z
1/2-x,1/2-y,1/2-z
1/2+x,1/2+y,1/2-z
1/2-x,1/2+y,1/2+z
1/2+x,1/2-y,1/2+z
loop_
_atom_site_type_symbol
_atom_site_label
_atom_site_fract_x
_atom_site_fract_y
_atom_site_fract_z
Si Si1 0.656022 0.101597 0.500000
Si Si2 0.831859 0.155588 0.368063
Si Si3 0.000000 0.500000 0.000000
Si Si4 0.166081 0.730271 0.407542
Si Si5 0.665942 0.941174 0.091797
Si Si6 0.331138 0.356510 0.316439
O O1 0.500000 0.130504 0.500000
O O2 0.743187 0.115939 0.420548
O O3 0.631072 0.041021 0.500000
O O4 0.782067 0.212545 0.390141
O O5 0.795937 0.143889 0.276755
O O6 0.000000 0.148707 0.387849
O O7 0.187662 0.716820 0.500000
O O8 0.262556 0.692974 0.355806
O O9 0.000000 0.723180 0.381810
O O10 0.500000 0.925769 0.106749
O O11 0.767330 0.908281 0.148067
O O12 0.691098 0.000000 0.113653
O O13 0.706872 0.930787 0.000000
O O14 0.500000 0.355237 0.333923
#
# Coordination Sequence:
#
# PCOD8291148 Si02
#       6
#     8  16   2  16  16  16
#     4  10  21  41  65  87 117 146 191 246 298 346
#     4  10  21  40  61  83 116 157 195 234 290 357
#     4   8  24  44  62  96 120 140 192 264 302 348
#     4  10  20  36  59  82 113 157 200 236 284 347
#     4   9  19  38  60  79 105 150 200 238 284 346
#     4  11  23  35  53  87 123 150 188 242 293 349
#
# _framework density 18.190366999999998
#
# number of rings (size 3 to 8) (size 9 to 14) (size 15 to 20)
#    0.324    1.730    1.081    2.919    0.000    6.486 
#    1.946    2.162    0.000    0.000    0.000    0.000 
#    0.000    0.000    0.000    0.000    0.000    0.000 
#
# Total GULP energy -458377.662780 kJ/mol
# GULP energy per Si atom -12388.585481 kJ/mol
# Density = 1.814896 g / cm^3
# Si number density = 18.190367 Si / 1000 Ang^3
#
#
#
# Elastic Constant Matrix: (Units=GPa)
#
#
# Indices 1 2 3 4 5 6 
#
# 1 95.6926 66.3713 72.8593 0.0000 0.0000 0.0000
# 2 66.3713 128.1600 67.5691 -0.0001 0.0000 0.0000
# 3 72.8593 67.5691 112.5851 -0.0002 0.0000 0.0000
# 4 0.0000 -0.0001 -0.0002 38.0130 0.0002 0.0000
# 5 0.0000 0.0000 0.0000 0.0002 31.3278 0.0000
# 6 0.0000 0.0000 0.0000 0.0000 0.0000 39.1997
#
#
#
# Elastic Compliance Matrix: (Units=1/GPa)
#
#
# Indices 1 2 3 4 5 6 
#
# 1 0.023425 -0.006055 -0.011526 0.000000 0.000000 0.000000
# 2 -0.006055 0.012979 -0.003871 0.000000 0.000000 0.000000
# 3 -0.011526 -0.003871 0.018665 0.000000 0.000000 0.000000
# 4 0.000000 0.000000 0.000000 0.026307 0.000000 0.000000
# 5 0.000000 0.000000 0.000000 0.000000 0.031921 0.000000
# 6 0.000000 0.000000 0.000000 0.000000 0.000000 0.025510
#
#
# Mechanical properties :
#
#
# Convention : Reuss Voigt Hill
#
# Bulk Modulus (GPa) = 82.20094 83.33744 82.76919
# Shear Modulus (GPa) = 26.91558 30.35065 28.63312
#
# Velocity S-wave (km/s) = 3.85081 4.08916 3.97177
# Velocity P-wave (km/s) = 8.06592 8.25884 8.16295
#
# Compressibility (1/GPa) = 0.01216531
#
# Stress axis : x y z
#
# Youngs Moduli (GPa) = 42.68905 77.04468 53.57749
#
# Poissons Ratio (x) = 0.46649 0.61752
# Poissons Ratio (y) = 0.25847 0.20742
# Poissons Ratio (z) = 0.49202 0.29828
#
# Static dielectric constant tensor:
#      x y z
#    x 3.373330 0.000000 0.000000 
#    y 0.000000 3.318430 0.000000 
#    z 0.000000 0.000000 3.360900 
# 
# 
# High freq. dielectric constant tensor:
#      x y z
#    x 1.709090 0.000000 0.000000 
#    y 0.000000 1.711680 0.000000 
#    z 0.000000 0.000000 1.704080 
# 
# From -- ./inp_files/31693.got.cif
#   From: 2010.06.25/outbox.cif.g09.slc.cpg/sg71_16_cif.got.tgz:31693.got - 2010.06.28 04:59:45.
