data_PCOD8291495
_publ_section_title
;
Structure prediction by ZEFSAII (Michael W. Deem and Ramdas Pophale) SiO2 
 PCOD8291495
Probable space group: I M M M
;
_chemical_formula_sum "Si O2"
_cell_formula_units_Z 88
_cell_length_a 9.495943
_cell_length_b 29.312892
_cell_length_c 16.806546
_cell_angle_alpha 90.000000
_cell_angle_beta 90.000000
_cell_angle_gamma 90.000000
_cell_volume 4678.161769
_symmetry_space_group_name_H-M "I M M M"
_symmetry_group_IT_number 71
_symmetry_cell_setting 'orthorhombic'
loop_
_space_group_symop_operation_xyz
x,y,z
-x,-y,z
x,-y,-z
-x,y,-z
-x,-y,-z
x,y,-z
-x,y,z
x,-y,z
1/2+x,1/2+y,1/2+z
1/2-x,1/2-y,1/2+z
1/2+x,1/2-y,1/2-z
1/2-x,1/2+y,1/2-z
1/2-x,1/2-y,1/2-z
1/2+x,1/2+y,1/2-z
1/2-x,1/2+y,1/2+z
1/2+x,1/2-y,1/2+z
loop_
_atom_site_type_symbol
_atom_site_label
_atom_site_fract_x
_atom_site_fract_y
_atom_site_fract_z
Si Si1 0.656576 0.553685 0.411663
Si Si2 0.334013 0.886568 0.624131
Si Si3 0.667334 0.554291 0.000000
Si Si4 0.336088 0.884489 0.809070
Si Si5 0.846375 0.285370 0.090797
Si Si6 0.835936 0.702540 0.592767
O O1 0.704166 0.568762 0.500000
O O2 0.500000 0.572605 0.394282
O O3 0.656782 0.500000 0.404252
O O4 0.764448 0.572129 0.347849
O O5 0.500000 0.895211 0.606520
O O6 0.240745 0.924093 0.578241
O O7 0.298413 0.887464 0.716853
O O8 0.285993 0.836474 0.595816
O O9 0.694199 0.500000 0.000000
O O10 0.500000 0.564896 0.000000
O O11 0.500000 0.888727 0.824880
O O12 0.280204 0.838518 0.851619
O O13 0.740624 0.247906 0.126621
O O14 0.000000 0.283138 0.134152
O O15 0.866424 0.271952 0.000000
O O16 0.802812 0.691771 0.500000
O O17 0.000000 0.711254 0.605344
#
# Coordination Sequence:
#
# PCOD8291495 Si02
#       6
#    16  16   8  16  16  16
#     4   9  19  36  56  77 105 144 185 225 273 327
#     4  10  21  39  60  82 110 146 184 226 279 336
#     4  11  25  43  63  87 111 139 183 237 292 347
#     4  10  21  35  54  82 115 147 183 227 275 331
#     4   9  17  32  54  77 104 143 189 228 265 320
#     4   9  18  32  50  77 114 152 184 221 269 316
#
# _framework density 18.810808000000002
#
# number of rings (size 3 to 8) (size 9 to 14) (size 15 to 20)
#    0.000    2.455    0.909    1.364    0.000    5.818 
#    0.000    6.364    0.000    0.000    0.000    0.000 
#    0.000    0.000    0.000    0.000    0.000    0.000 
#
# Total GULP energy -545424.335745 kJ/mol
# GULP energy per Si atom -12396.007631 kJ/mol
# Density = 1.876799 g / cm^3
# Si number density = 18.810808 Si / 1000 Ang^3
#
#
#
# Elastic Constant Matrix: (Units=GPa)
#
#
# Indices 1 2 3 4 5 6 
#
# 1 68.8101 58.8086 54.7908 0.0000 -0.0001 0.0000
# 2 58.8086 102.5093 59.0073 -0.0004 -0.0002 0.0000
# 3 54.7908 59.0073 103.6129 0.0005 -0.0001 -0.0001
# 4 0.0000 -0.0004 0.0005 7.2062 0.0000 0.0000
# 5 -0.0001 -0.0002 -0.0001 0.0000 22.8900 0.0000
# 6 0.0000 0.0000 -0.0001 0.0000 0.0000 37.5799
#
#
#
# Elastic Compliance Matrix: (Units=1/GPa)
#
#
# Indices 1 2 3 4 5 6 
#
# 1 0.034750 -0.013922 -0.010447 0.000000 0.000000 0.000000
# 2 -0.013922 0.020090 -0.004079 0.000001 0.000000 0.000000
# 3 -0.010447 -0.004079 0.017499 -0.000001 0.000000 0.000000
# 4 0.000000 0.000001 -0.000001 0.138769 0.000000 0.000000
# 5 0.000000 0.000000 0.000000 0.000000 0.043687 0.000000
# 6 0.000000 0.000000 0.000000 0.000000 0.000000 0.026610
#
#
# Mechanical properties :
#
#
# Convention : Reuss Voigt Hill
#
# Bulk Modulus (GPa) = 64.75862 68.90505 66.83184
# Shear Modulus (GPa) = 14.55815 20.35694 17.45755
#
# Velocity S-wave (km/s) = 2.78497 3.29324 3.04971
# Velocity P-wave (km/s) = 6.69645 7.15337 6.92868
#
# Compressibility (1/GPa) = 0.01544196
#
# Stress axis : x y z
#
# Youngs Moduli (GPa) = 28.77704 49.77526 57.14560
#
# Poissons Ratio (x) = 0.69296 0.59702
# Poissons Ratio (y) = 0.40063 0.23312
# Poissons Ratio (z) = 0.30065 0.20306
#
# Static dielectric constant tensor:
#      x y z
#    x 3.565510 0.000000 0.000000 
#    y 0.000000 3.407700 0.000000 
#    z 0.000000 0.000000 3.439110 
# 
# 
# High freq. dielectric constant tensor:
#      x y z
#    x 1.724230 0.000000 0.000000 
#    y 0.000000 1.732420 0.000000 
#    z 0.000000 0.000000 1.725420 
# 
# From -- ./inp_files/42510.got.cif
#   From: 2010.06.25/outbox.cif.g09.slc.cpg/sg71_22_cif.got.tgz:42510.got - 2010.06.28 04:59:45.
