data_PCOD8291437
_publ_section_title
;
Structure prediction by ZEFSAII (Michael W. Deem and Ramdas Pophale) SiO2 
 PCOD8291437
Probable space group: I M M M
;
_chemical_formula_sum "Si O2"
_cell_formula_units_Z 96
_cell_length_a 22.522192
_cell_length_b 10.546765
_cell_length_c 23.625311
_cell_angle_alpha 90.000000
_cell_angle_beta 90.000000
_cell_angle_gamma 90.000000
_cell_volume 5611.868165
_symmetry_space_group_name_H-M "I M M M"
_symmetry_group_IT_number 71
_symmetry_cell_setting 'orthorhombic'
loop_
_space_group_symop_operation_xyz
x,y,z
-x,-y,z
x,-y,-z
-x,y,-z
-x,-y,-z
x,y,-z
-x,y,z
x,-y,z
1/2+x,1/2+y,1/2+z
1/2-x,1/2-y,1/2+z
1/2+x,1/2-y,1/2-z
1/2-x,1/2+y,1/2-z
1/2-x,1/2-y,1/2-z
1/2+x,1/2+y,1/2-z
1/2-x,1/2+y,1/2+z
1/2+x,1/2-y,1/2+z
loop_
_atom_site_type_symbol
_atom_site_label
_atom_site_fract_x
_atom_site_fract_y
_atom_site_fract_z
Si Si1 0.000000 0.366340 0.934003
Si Si2 0.613491 0.250858 0.382483
Si Si3 0.671599 0.853323 0.934068
Si Si4 0.230576 0.645438 0.934202
Si Si5 0.065222 0.649907 0.645584
Si Si6 0.071447 0.000000 0.932128
Si Si7 0.569640 0.854806 0.271427
O O1 0.941208 0.297733 0.917873
O O2 0.000000 0.500000 0.901764
O O3 0.000000 0.382931 0.000000
O O4 0.672281 0.175066 0.398654
O O5 0.611847 0.394253 0.402432
O O6 0.604766 0.234366 0.315195
O O7 0.721338 0.751591 0.916292
O O8 0.613008 0.808445 0.900745
O O9 0.689777 0.000000 0.919000
O O10 0.656546 0.842774 0.000000
O O11 0.251736 0.500000 0.921313
O O12 0.215330 0.660187 0.000000
O O13 0.059874 0.500000 0.648532
O O14 0.084189 0.696548 0.708344
O O15 0.000000 0.705555 0.629369
O O16 0.000000 0.000000 0.916887
O O17 0.078494 0.000000 0.000000
O O18 0.500000 0.843509 0.284094
O O19 0.590796 0.000000 0.278911
#
# Coordination Sequence:
#
# PCOD8291437 Si02
#       7
#     8  16  16  16  16   8  16
#     4  11  20  29  45  69  95 122 164 220 259 288
#     4  12  21  32  49  69  98 134 176 213 256 303
#     4   9  18  33  54  80 108 136 166 205 256 313
#     4  10  21  35  51  72 101 137 177 216 254 298
#     4   8  15  29  53  83 109 131 161 204 256 307
#     4  11  22  34  46  66  98 136 172 216 272 314
#     4   9  16  29  50  75 101 131 168 214 258 299
#
# _framework density 17.106601999999999
#
# number of rings (size 3 to 8) (size 9 to 14) (size 15 to 20)
#    0.000    2.167    1.667    4.000    1.167    1.667 
#    0.000    2.500    1.833    0.500    0.000    2.333 
#    0.000    0.000    0.000    0.000    0.000    0.000 
#
# Total GULP energy -594719.495152 kJ/mol
# GULP energy per Si atom -12389.989482 kJ/mol
# Density = 1.706767 g / cm^3
# Si number density = 17.106602 Si / 1000 Ang^3
#
#
#
# Elastic Constant Matrix: (Units=GPa)
#
#
# Indices 1 2 3 4 5 6 
#
# 1 100.7839 42.4928 55.8905 0.0000 0.0000 0.0000
# 2 42.4928 96.5893 33.5801 0.0000 0.0000 0.0000
# 3 55.8905 33.5801 80.0865 0.0000 0.0000 0.0000
# 4 0.0000 0.0000 0.0000 20.3213 0.0000 0.0000
# 5 0.0000 0.0000 0.0000 0.0000 44.4731 0.0000
# 6 0.0000 0.0000 0.0000 0.0000 0.0000 -2.3566
#
#
#
# Elastic Compliance Matrix: (Units=1/GPa)
#
#
# Indices 1 2 3 4 5 6 
#
# 1 0.017429 -0.004026 -0.010475 0.000000 0.000000 0.000000
# 2 -0.004026 0.013050 -0.002662 0.000000 0.000000 0.000000
# 3 -0.010475 -0.002662 0.020913 0.000000 0.000000 0.000000
# 4 0.000000 0.000000 0.000000 0.049210 0.000000 0.000000
# 5 0.000000 0.000000 0.000000 0.000000 0.022486 0.000000
# 6 0.000000 0.000000 0.000000 0.000000 0.000000 -0.424344
#
#
# Mechanical properties :
#
#
# Convention : Reuss Voigt Hill
#
# Bulk Modulus (GPa) = 58.59826 60.15405 59.37615
# Shear Modulus (GPa) = -19.13927 22.18730 1.52401
#
# Velocity S-wave (km/s) = -3.34851 3.60530 0.94489
# Velocity P-wave (km/s) = 4.40217 7.25062 5.99794
#
# Compressibility (1/GPa) = 0.01706535
#
# Stress axis : x y z
#
# Youngs Moduli (GPa) = 57.37723 76.63006 47.81700
#
# Poissons Ratio (x) = 0.30849 0.50088
# Poissons Ratio (y) = 0.23098 0.12730
# Poissons Ratio (z) = 0.60103 0.20401
#
# Static dielectric constant tensor:
#      x y z
#    x 3.193790 0.000000 0.000000 
#    y 0.000000 3.213790 0.000000 
#    z 0.000000 0.000000 3.286700 
# 
# 
# High freq. dielectric constant tensor:
#      x y z
#    x 1.644340 0.000000 0.000000 
#    y 0.000000 1.647340 0.000000 
#    z 0.000000 0.000000 1.657310 
# 
# From -- ./inp_files/61251.got.cif
#   From: 2010.06.25/outbox.cif.g09.slc.cpg/sg71_31_cif.got.tgz:61251.got - 2010.06.28 04:59:45.
