data_PCOD8291880
_publ_section_title
;
Structure prediction by ZEFSAII (Michael W. Deem and Ramdas Pophale) SiO2 
 PCOD8291880
Probable space group: I M M M
;
_chemical_formula_sum "Si O2"
_cell_formula_units_Z 64
_cell_length_a 7.784172
_cell_length_b 14.634022
_cell_length_c 27.728263
_cell_angle_alpha 90.000000
_cell_angle_beta 90.000000
_cell_angle_gamma 90.000000
_cell_volume 3158.630261
_symmetry_space_group_name_H-M "I M M M"
_symmetry_group_IT_number 71
_symmetry_cell_setting 'orthorhombic'
loop_
_space_group_symop_operation_xyz
x,y,z
-x,-y,z
x,-y,-z
-x,y,-z
-x,-y,-z
x,y,-z
-x,y,z
x,-y,z
1/2+x,1/2+y,1/2+z
1/2-x,1/2-y,1/2+z
1/2+x,1/2-y,1/2-z
1/2-x,1/2+y,1/2-z
1/2-x,1/2-y,1/2-z
1/2+x,1/2+y,1/2-z
1/2-x,1/2+y,1/2+z
1/2+x,1/2-y,1/2+z
loop_
_atom_site_type_symbol
_atom_site_label
_atom_site_fract_x
_atom_site_fract_y
_atom_site_fract_z
Si Si1 0.694605 0.394586 0.878845
Si Si2 0.500000 0.891351 0.946068
Si Si3 0.804282 0.741114 0.695328
Si Si4 0.000000 0.608375 0.053570
Si Si5 0.309061 0.604700 0.619995
O O1 0.500000 0.380404 0.898456
O O2 0.729812 0.500000 0.866056
O O3 0.726245 0.338772 0.829941
O O4 0.827999 0.358348 0.919024
O O5 0.670200 0.856387 0.918180
O O6 0.500000 0.000000 0.949038
O O7 0.500000 0.849821 0.000000
O O8 0.750000 0.750000 0.750000
O O9 0.695099 0.662609 0.669111
O O10 0.000000 0.710011 0.691879
O O11 0.000000 0.500000 0.050068
O O12 0.000000 0.651345 0.000000
O O13 0.500000 0.613161 0.597237
O O14 0.266689 0.500000 0.633167
#
# Coordination Sequence:
#
# PCOD8291880 Si02
#       5
#    16   8  16   8  16
#     4   9  20  38  58  82 116 151 187 234 283 339
#     4   9  18  36  61  87 116 151 193 241 291 343
#     4  11  23  38  60  86 116 153 194 242 293 347
#     4   9  18  34  59  87 112 147 191 233 283 337
#     4  10  21  38  60  85 118 155 193 239 288 345
#
# _framework density 20.261945999999998
#
# number of rings (size 3 to 8) (size 9 to 14) (size 15 to 20)
#    0.000    2.250    1.250    0.750    3.500    2.000 
#    0.000    8.750    0.000    0.000    0.000    0.000 
#    0.000    0.000    0.000    0.000    0.000    0.000 
#
# Total GULP energy -396815.114753 kJ/mol
# GULP energy per Si atom -12400.472336 kJ/mol
# Density = 2.021583 g / cm^3
# Si number density = 20.261946 Si / 1000 Ang^3
#
#
#
# Elastic Constant Matrix: (Units=GPa)
#
#
# Indices 1 2 3 4 5 6 
#
# 1 150.7767 44.2840 82.0304 0.0000 0.0000 0.0000
# 2 44.2840 59.0404 43.9599 0.0000 0.0000 0.0000
# 3 82.0304 43.9599 170.5115 0.0000 0.0000 0.0000
# 4 0.0000 0.0000 0.0000 25.8282 0.0000 0.0000
# 5 0.0000 0.0000 0.0000 0.0000 31.9919 0.0000
# 6 0.0000 0.0000 0.0000 0.0000 0.0000 23.0710
#
#
#
# Elastic Compliance Matrix: (Units=1/GPa)
#
#
# Indices 1 2 3 4 5 6 
#
# 1 0.009991 -0.004845 -0.003557 0.000000 0.000000 0.000000
# 2 -0.004845 0.023311 -0.003679 0.000000 0.000000 0.000000
# 3 -0.003557 -0.003679 0.008525 0.000000 0.000000 0.000000
# 4 0.000000 0.000000 0.000000 0.038717 0.000000 0.000000
# 5 0.000000 0.000000 0.000000 0.000000 0.031258 0.000000
# 6 0.000000 0.000000 0.000000 0.000000 0.000000 0.043344
#
#
# Mechanical properties :
#
#
# Convention : Reuss Voigt Hill
#
# Bulk Modulus (GPa) = 56.61351 80.09746 68.35548
# Shear Modulus (GPa) = 26.99842 30.18184 28.59013
#
# Velocity S-wave (km/s) = 3.65426 3.86370 3.76044
# Velocity P-wave (km/s) = 6.76803 7.71499 7.25697
#
# Compressibility (1/GPa) = 0.01766363
#
# Stress axis : x y z
#
# Youngs Moduli (GPa) = 100.09346 42.89848 117.30855
#
# Poissons Ratio (x) = 0.20784 0.41730
# Poissons Ratio (y) = 0.48495 0.43157
# Poissons Ratio (z) = 0.35606 0.15782
#
# Static dielectric constant tensor:
#      x y z
#    x 4.006450 0.000000 0.000000 
#    y 0.000000 3.579970 0.000000 
#    z 0.000000 0.000000 5.091470 
# 
# 
# High freq. dielectric constant tensor:
#      x y z
#    x 1.810340 0.000000 0.000000 
#    y 0.000000 1.783170 0.000000 
#    z 0.000000 0.000000 1.773170 
# 
# From -- ./inp_files/57188.got.cif
#   From: 2010.06.25/outbox.cif.g09.slc.cpg/sg71_29_cif.got.tgz:57188.got - 2010.06.28 04:59:45.
