data_PCOD8291905
_publ_section_title
;
Structure prediction by ZEFSAII (Michael W. Deem and Ramdas Pophale) SiO2 
 PCOD8291905
Probable space group: I M M M
;
_chemical_formula_sum "Si O2"
_cell_formula_units_Z 64
_cell_length_a 26.615354
_cell_length_b 13.314844
_cell_length_c 9.118033
_cell_angle_alpha 90.000000
_cell_angle_beta 90.000000
_cell_angle_gamma 90.000000
_cell_volume 3231.242029
_symmetry_space_group_name_H-M "I M M M"
_symmetry_group_IT_number 71
_symmetry_cell_setting 'orthorhombic'
loop_
_space_group_symop_operation_xyz
x,y,z
-x,-y,z
x,-y,-z
-x,y,-z
-x,-y,-z
x,y,-z
-x,y,z
x,-y,z
1/2+x,1/2+y,1/2+z
1/2-x,1/2-y,1/2+z
1/2+x,1/2-y,1/2-z
1/2-x,1/2+y,1/2-z
1/2-x,1/2-y,1/2-z
1/2+x,1/2+y,1/2-z
1/2-x,1/2+y,1/2+z
1/2+x,1/2-y,1/2+z
loop_
_atom_site_type_symbol
_atom_site_label
_atom_site_fract_x
_atom_site_fract_y
_atom_site_fract_z
Si Si1 0.189975 0.500000 0.157047
Si Si2 0.907722 0.500000 0.673296
Si Si3 0.873691 0.887889 0.170463
Si Si4 0.273808 0.338379 0.164127
Si Si5 0.442321 0.201736 0.669444
O O1 0.151282 0.500000 0.291110
O O2 0.225860 0.407142 0.163817
O O3 0.160432 0.500000 0.000000
O O4 0.916345 0.500000 0.500000
O O5 0.931787 0.398748 0.738587
O O6 0.821603 0.885310 0.256553
O O7 0.910315 0.798276 0.225666
O O8 0.897364 0.000000 0.196198
O O9 0.861896 0.871720 0.000000
O O10 0.250000 0.250000 0.250000
O O11 0.290644 0.308943 0.000000
O O12 0.429897 0.178528 0.500000
O O13 0.500000 0.232529 0.690293
#
# Coordination Sequence:
#
# PCOD8291905 Si02
#       5
#     8   8  16  16  16
#     4  10  22  39  57  80 115 156 194 229 283 354
#     4  12  25  39  60  91 122 153 199 258 309 357
#     4  10  21  38  61  90 123 157 198 249 299 354
#     4  11  22  37  57  84 117 156 197 239 289 349
#     4  10  22  41  64  88 118 160 203 246 303 365
#
# _framework density 19.806625
#
# number of rings (size 3 to 8) (size 9 to 14) (size 15 to 20)
#    0.000    1.500    1.250    3.750    0.000   11.500 
#    0.000    2.500    0.000    0.000    0.000    3.500 
#    0.000    0.000    0.000    0.000    0.000    0.000 
#
# Total GULP energy -396568.127671 kJ/mol
# GULP energy per Si atom -12392.753990 kJ/mol
# Density = 1.976154 g / cm^3
# Si number density = 19.806625 Si / 1000 Ang^3
#
#
#
# Elastic Constant Matrix: (Units=GPa)
#
#
# Indices 1 2 3 4 5 6 
#
# 1 90.1818 37.2125 33.2764 0.0000 0.0000 0.0000
# 2 37.2125 153.3432 57.4442 0.0000 0.0000 0.0000
# 3 33.2764 57.4442 92.9346 0.0000 0.0000 0.0000
# 4 0.0000 0.0000 0.0000 14.9268 0.0000 0.0000
# 5 0.0000 0.0000 0.0000 0.0000 27.0502 0.0000
# 6 0.0000 0.0000 0.0000 0.0000 0.0000 -29.4672
#
#
#
# Elastic Compliance Matrix: (Units=1/GPa)
#
#
# Indices 1 2 3 4 5 6 
#
# 1 0.013172 -0.001861 -0.003567 0.000000 0.000000 0.000000
# 2 -0.001861 0.008749 -0.004742 0.000000 0.000000 0.000000
# 3 -0.003567 -0.004742 0.014968 0.000000 0.000000 0.000000
# 4 0.000000 0.000000 0.000000 0.066993 0.000000 0.000000
# 5 0.000000 0.000000 0.000000 0.000000 0.036968 0.000000
# 6 0.000000 0.000000 0.000000 0.000000 0.000000 -0.033936
#
#
# Mechanical properties :
#
#
# Convention : Reuss Voigt Hill
#
# Bulk Modulus (GPa) = 60.41515 65.81400 63.11457
# Shear Modulus (GPa) = 37.65887 16.40371 27.03129
#
# Velocity S-wave (km/s) = 4.36515 2.88096 3.69827
# Velocity P-wave (km/s) = 7.48163 6.66085 7.08314
#
# Compressibility (1/GPa) = 0.01655214
#
# Stress axis : x y z
#
# Youngs Moduli (GPa) = 75.91585 114.29666 66.80803
#
# Poissons Ratio (x) = 0.21266 0.23827
# Poissons Ratio (y) = 0.14125 0.31679
# Poissons Ratio (z) = 0.27076 0.54197
#
# Static dielectric constant tensor:
#      x y z
#    x 2.734100 0.000000 0.000000 
#    y 0.000000 3.830220 0.000000 
#    z 0.000000 0.000000 3.873080 
# 
# 
# High freq. dielectric constant tensor:
#      x y z
#    x 1.772050 0.000000 0.000000 
#    y 0.000000 1.793690 0.000000 
#    z 0.000000 0.000000 1.767810 
# 
# From -- ./inp_files/3774.got.cif
#   From: 2010.06.25/outbox.cif.g09.slc.cpg/sg71_2_cif.got.tgz:3774.got - 2010.06.28 04:59:45.
