data_PCOD8291721
_publ_section_title
;
Structure prediction by ZEFSAII (Michael W. Deem and Ramdas Pophale) SiO2 
 PCOD8291721
Probable space group: I M M M
;
_chemical_formula_sum "Si O2"
_cell_formula_units_Z 112
_cell_length_a 27.980933
_cell_length_b 14.617425
_cell_length_c 13.880623
_cell_angle_alpha 90.000000
_cell_angle_beta 90.000000
_cell_angle_gamma 90.000000
_cell_volume 5677.302364
_symmetry_space_group_name_H-M "I M M M"
_symmetry_group_IT_number 71
_symmetry_cell_setting 'orthorhombic'
loop_
_space_group_symop_operation_xyz
x,y,z
-x,-y,z
x,-y,-z
-x,y,-z
-x,-y,-z
x,y,-z
-x,y,z
x,-y,z
1/2+x,1/2+y,1/2+z
1/2-x,1/2-y,1/2+z
1/2+x,1/2-y,1/2-z
1/2-x,1/2+y,1/2-z
1/2-x,1/2-y,1/2-z
1/2+x,1/2+y,1/2-z
1/2-x,1/2+y,1/2+z
1/2+x,1/2-y,1/2+z
loop_
_atom_site_type_symbol
_atom_site_label
_atom_site_fract_x
_atom_site_fract_y
_atom_site_fract_z
Si Si1 0.384659 0.395605 0.890916
Si Si2 0.332811 0.896266 0.605893
Si Si3 0.327067 0.607046 0.703634
Si Si4 0.373804 0.107142 0.110445
Si Si5 0.721334 0.107716 0.789102
Si Si6 0.901414 0.766277 0.107424
Si Si7 0.054303 0.746034 0.697628
O O1 0.401978 0.500000 0.880330
O O2 0.342447 0.373871 0.814726
O O3 0.429965 0.331989 0.867353
O O4 0.366359 0.376180 0.000000
O O5 0.309312 0.889994 0.500000
O O6 0.293580 0.861640 0.681761
O O7 0.380020 0.835370 0.611902
O O8 0.348878 0.000000 0.630404
O O9 0.330235 0.500000 0.679369
O O10 0.273700 0.648562 0.688638
O O11 0.360537 0.659180 0.628617
O O12 0.320035 0.140132 0.137119
O O13 0.412244 0.159321 0.175335
O O14 0.379759 0.000000 0.131570
O O15 0.383225 0.131689 0.000000
O O16 0.727453 0.000000 0.794824
O O17 0.942194 0.772400 0.188964
O O18 0.922286 0.785348 0.000000
O O19 0.000000 0.721078 0.672316
#
# Coordination Sequence:
#
# PCOD8291721 Si02
#       7
#    16  16  16  16  16  16  16
#     4   9  19  37  58  82 113 144 177 222 274 326
#     4   9  17  31  52  76 105 142 183 224 263 309
#     4   9  19  34  55  83 114 147 182 221 264 319
#     4  10  21  37  56  81 114 148 181 219 266 321
#     4   9  17  32  54  79 110 148 184 217 259 311
#     4  10  21  37  56  80 107 139 181 226 276 326
#     4  11  23  39  59  81 106 138 181 231 281 329
#
# _framework density 19.727679999999999
#
# number of rings (size 3 to 8) (size 9 to 14) (size 15 to 20)
#    0.000    2.429    1.429    0.429    0.000    4.000 
#    0.000    5.714    0.000    0.000    0.000    7.000 
#    0.000    0.000    0.000    0.000    0.000    0.000 
#
# Total GULP energy -694167.733013 kJ/mol
# GULP energy per Si atom -12395.852375 kJ/mol
# Density = 1.968278 g / cm^3
# Si number density = 19.727680 Si / 1000 Ang^3
#
#
#
# Elastic Constant Matrix: (Units=GPa)
#
#
# Indices 1 2 3 4 5 6 
#
# 1 101.4239 22.4441 29.4005 0.0000 0.0000 0.0000
# 2 22.4441 65.1035 28.1735 0.0000 0.0000 0.0000
# 3 29.4005 28.1735 113.2729 0.0000 0.0000 0.0000
# 4 0.0000 0.0000 0.0000 23.5494 0.0000 0.0000
# 5 0.0000 0.0000 0.0000 0.0000 12.6110 0.0000
# 6 0.0000 0.0000 0.0000 0.0000 0.0000 20.5713
#
#
#
# Elastic Compliance Matrix: (Units=1/GPa)
#
#
# Indices 1 2 3 4 5 6 
#
# 1 0.011129 -0.002899 -0.002168 0.000000 0.000000 0.000000
# 2 -0.002899 0.017968 -0.003717 0.000000 0.000000 0.000000
# 3 -0.002168 -0.003717 0.010315 0.000000 0.000000 0.000000
# 4 0.000000 0.000000 0.000000 0.042464 0.000000 0.000000
# 5 0.000000 0.000000 0.000000 0.000000 0.079296 0.000000
# 6 0.000000 0.000000 0.000000 0.000000 0.000000 0.048611
#
#
# Mechanical properties :
#
#
# Convention : Reuss Voigt Hill
#
# Bulk Modulus (GPa) = 45.77410 48.87072 47.32241
# Shear Modulus (GPa) = 21.30994 24.66515 22.98754
#
# Velocity S-wave (km/s) = 3.29021 3.53977 3.41727
# Velocity P-wave (km/s) = 6.13900 6.44461 6.29366
#
# Compressibility (1/GPa) = 0.02184642
#
# Stress axis : x y z
#
# Youngs Moduli (GPa) = 89.85181 55.65502 96.94349
#
# Poissons Ratio (x) = 0.16133 0.21015
# Poissons Ratio (y) = 0.26046 0.36030
# Poissons Ratio (z) = 0.19477 0.20685
#
# Static dielectric constant tensor:
#      x y z
#    x 3.313460 0.000000 0.000000 
#    y 0.000000 3.617610 0.000000 
#    z 0.000000 0.000000 3.827720 
# 
# 
# High freq. dielectric constant tensor:
#      x y z
#    x 1.732710 0.000000 0.000000 
#    y 0.000000 1.773170 0.000000 
#    z 0.000000 0.000000 1.779270 
# 
# From -- ./inp_files/35162.got.cif
#   From: 2010.06.25/outbox.cif.g09.slc.cpg/sg71_18_cif.got.tgz:35162.got - 2010.06.28 04:59:45.
