data_PCOD8291581
_publ_section_title
;
Structure prediction by ZEFSAII (Michael W. Deem and Ramdas Pophale) SiO2 
 PCOD8291581
Probable space group: I M M M
;
_chemical_formula_sum "Si O2"
_cell_formula_units_Z 104
_cell_length_a 10.342468
_cell_length_b 30.192566
_cell_length_c 17.985682
_cell_angle_alpha 90.000000
_cell_angle_beta 90.000000
_cell_angle_gamma 90.000000
_cell_volume 5616.310639
_symmetry_space_group_name_H-M "I M M M"
_symmetry_group_IT_number 71
_symmetry_cell_setting 'orthorhombic'
loop_
_space_group_symop_operation_xyz
x,y,z
-x,-y,z
x,-y,-z
-x,y,-z
-x,-y,-z
x,y,-z
-x,y,z
x,-y,z
1/2+x,1/2+y,1/2+z
1/2-x,1/2-y,1/2+z
1/2+x,1/2-y,1/2-z
1/2-x,1/2+y,1/2-z
1/2-x,1/2-y,1/2-z
1/2+x,1/2+y,1/2-z
1/2-x,1/2+y,1/2+z
1/2+x,1/2-y,1/2+z
loop_
_atom_site_type_symbol
_atom_site_label
_atom_site_fract_x
_atom_site_fract_y
_atom_site_fract_z
Si Si1 0.500000 0.447499 0.081369
Si Si2 0.149712 0.877700 0.767306
Si Si3 0.145219 0.836108 0.083430
Si Si4 0.500000 0.084717 0.585747
Si Si5 0.247737 0.289918 0.190828
Si Si6 0.000000 0.689928 0.089877
Si Si7 0.860225 0.733229 0.583010
Si Si8 0.749814 0.448305 0.169664
O O1 0.500000 0.500000 0.076755
O O2 0.629284 0.431336 0.121213
O O3 0.500000 0.425944 0.000000
O O4 0.157334 0.875548 0.857062
O O5 0.220208 0.835878 0.729878
O O6 0.233300 0.921007 0.746117
O O7 0.000000 0.880635 0.741818
O O8 0.246841 0.799343 0.108983
O O9 0.000000 0.815649 0.086781
O O10 0.175611 0.853804 0.000000
O O11 0.500000 0.069734 0.500000
O O12 0.500000 0.137064 0.593420
O O13 0.622407 0.063343 0.625446
O O14 0.250000 0.250000 0.250000
O O15 0.361428 0.277048 0.133573
O O16 0.121101 0.292146 0.137642
O O17 0.000000 0.704200 0.000000
O O18 0.834256 0.749302 0.500000
O O19 0.000000 0.709263 0.590453
O O20 0.745379 0.500000 0.189087
#
# Coordination Sequence:
#
# PCOD8291581 Si02
#       8
#     8  16  16   8  16   8  16  16
#     4   9  18  34  57  84 113 148 190 233 283 345
#     4  11  22  38  58  87 118 152 198 246 299 357
#     4   9  19  36  58  83 113 151 194 240 291 353
#     4  11  23  42  63  89 123 160 200 246 295 352
#     4  12  24  37  59  84 115 158 201 247 291 349
#     4  11  26  43  59  86 127 168 205 248 303 362
#     4  10  21  36  54  79 112 149 191 239 291 343
#     4  11  22  39  61  87 117 151 194 246 298 352
#
# _framework density 18.517495
#
# number of rings (size 3 to 8) (size 9 to 14) (size 15 to 20)
#    0.000    1.462    3.846    1.615    3.231    1.231 
#    1.385    0.000    0.000    0.462    0.000    2.154 
#    0.000    1.231    0.000    0.000    0.000    0.000 
#
# Total GULP energy -644295.652764 kJ/mol
# GULP energy per Si atom -12390.301015 kJ/mol
# Density = 1.847535 g / cm^3
# Si number density = 18.517495 Si / 1000 Ang^3
#
#
#
# Elastic Constant Matrix: (Units=GPa)
#
#
# Indices 1 2 3 4 5 6 
#
# 1 121.7290 40.4131 57.9273 0.0001 0.0000 0.0000
# 2 40.4131 95.9488 59.7972 0.0002 -0.0001 -0.0001
# 3 57.9273 59.7972 119.4922 0.0009 -0.0004 -0.0003
# 4 0.0001 0.0002 0.0009 23.9032 -0.0002 0.0001
# 5 0.0000 -0.0001 -0.0004 -0.0002 35.2382 0.0003
# 6 0.0000 -0.0001 -0.0003 0.0001 0.0003 36.8167
#
#
#
# Elastic Compliance Matrix: (Units=1/GPa)
#
#
# Indices 1 2 3 4 5 6 
#
# 1 0.010909 -0.001888 -0.004344 0.000000 0.000000 0.000000
# 2 -0.001888 0.015472 -0.006828 0.000000 0.000000 0.000000
# 3 -0.004344 -0.006828 0.013891 0.000000 0.000000 0.000000
# 4 0.000000 0.000000 0.000000 0.041835 0.000000 0.000000
# 5 0.000000 0.000000 0.000000 0.000000 0.028378 0.000000
# 6 0.000000 0.000000 0.000000 0.000000 0.000000 0.027162
#
#
# Mechanical properties :
#
#
# Convention : Reuss Voigt Hill
#
# Bulk Modulus (GPa) = 70.64995 72.60503 71.62749
# Shear Modulus (GPa) = 29.67641 31.12711 30.40176
#
# Velocity S-wave (km/s) = 4.00761 4.10440 4.05629
# Velocity P-wave (km/s) = 7.72337 7.85846 7.79121
#
# Compressibility (1/GPa) = 0.01415429
#
# Stress axis : x y z
#
# Youngs Moduli (GPa) = 91.67021 64.63082 71.98754
#
# Poissons Ratio (x) = 0.12200 0.31269
# Poissons Ratio (y) = 0.17304 0.49152
# Poissons Ratio (z) = 0.39819 0.44129
#
# Static dielectric constant tensor:
#      x y z
#    x 3.628150 0.000000 0.000000 
#    y 0.000000 3.210960 0.000000 
#    z 0.000000 0.000000 3.779130 
# 
# 
# High freq. dielectric constant tensor:
#      x y z
#    x 1.733380 0.000000 0.000000 
#    y 0.000000 1.686680 0.000000 
#    z 0.000000 0.000000 1.731580 
# 
# From -- ./inp_files/43802.got.cif
#   From: 2010.06.25/outbox.cif.g09.slc.cpg/sg71_22_cif.got.tgz:43802.got - 2010.06.28 04:59:45.
