data_PCOD8291803
_publ_section_title
;
Structure prediction by ZEFSAII (Michael W. Deem and Ramdas Pophale) SiO2 
 PCOD8291803
Probable space group: I M M M
;
_chemical_formula_sum "Si O2"
_cell_formula_units_Z 88
_cell_length_a 8.672118
_cell_length_b 27.919202
_cell_length_c 17.799258
_cell_angle_alpha 90.000000
_cell_angle_beta 90.000000
_cell_angle_gamma 90.000000
_cell_volume 4309.531681
_symmetry_space_group_name_H-M "I M M M"
_symmetry_group_IT_number 71
_symmetry_cell_setting 'orthorhombic'
loop_
_space_group_symop_operation_xyz
x,y,z
-x,-y,z
x,-y,-z
-x,y,-z
-x,-y,-z
x,y,-z
-x,y,z
x,-y,z
1/2+x,1/2+y,1/2+z
1/2-x,1/2-y,1/2+z
1/2+x,1/2-y,1/2-z
1/2-x,1/2+y,1/2-z
1/2-x,1/2-y,1/2-z
1/2+x,1/2+y,1/2-z
1/2-x,1/2+y,1/2+z
1/2+x,1/2-y,1/2+z
loop_
_atom_site_type_symbol
_atom_site_label
_atom_site_fract_x
_atom_site_fract_y
_atom_site_fract_z
Si Si1 0.682683 0.552233 0.417416
Si Si2 0.319105 0.903543 0.655855
Si Si3 0.682548 0.500000 0.912977
Si Si4 0.182835 0.867443 0.810164
Si Si5 0.832337 0.307759 0.086211
Si Si6 0.820989 0.712513 0.587559
O O1 0.753278 0.560494 0.500000
O O2 0.500000 0.557015 0.421780
O O3 0.729988 0.500000 0.386812
O O4 0.752138 0.590995 0.362386
O O5 0.500000 0.914667 0.659035
O O6 0.263694 0.878094 0.731929
O O7 0.273988 0.862260 0.596265
O O8 0.237025 0.952888 0.632267
O O9 0.500000 0.500000 0.912559
O O10 0.743623 0.500000 0.000000
O O11 0.226748 0.818537 0.852089
O O12 0.000000 0.869447 0.798894
O O13 0.712025 0.267351 0.113504
O O14 0.000000 0.301490 0.126905
O O15 0.857205 0.298319 0.000000
O O16 0.771216 0.702722 0.500000
O O17 0.000000 0.701901 0.597453
#
# Coordination Sequence:
#
# PCOD8291803 Si02
#       6
#    16  16   8  16  16  16
#     4   8  15  29  50  76 105 142 191 243 289 337
#     4  11  24  41  62  90 123 159 196 245 308 363
#     4  11  25  45  69  95 122 155 200 249 295 357
#     4  11  22  35  56  85 120 161 201 246 297 357
#     4   9  19  38  63  87 112 148 198 249 298 360
#     4  10  21  37  59  87 120 158 200 249 302 356
#
# _framework density 20.419853
#
# number of rings (size 3 to 8) (size 9 to 14) (size 15 to 20)
#    0.000    2.091    0.000    3.545    1.273    5.455 
#    0.000    1.818    0.000    0.000    0.000    3.818 
#    0.000    0.000    0.000    0.000    0.000    0.000 
#
# Total GULP energy -545151.579287 kJ/mol
# GULP energy per Si atom -12389.808620 kJ/mol
# Density = 2.037338 g / cm^3
# Si number density = 20.419853 Si / 1000 Ang^3
#
#
#
# Elastic Constant Matrix: (Units=GPa)
#
#
# Indices 1 2 3 4 5 6 
#
# 1 59.5985 35.4945 29.5338 0.0000 0.0000 0.0000
# 2 35.4945 133.9642 37.1307 -0.0004 0.0000 0.0000
# 3 29.5338 37.1307 60.5163 -0.0012 0.0001 0.0000
# 4 0.0000 -0.0004 -0.0012 119.9923 0.0000 0.0000
# 5 0.0000 0.0000 0.0001 0.0000 26.5368 0.0000
# 6 0.0000 0.0000 0.0000 0.0000 0.0000 27.8098
#
#
#
# Elastic Compliance Matrix: (Units=1/GPa)
#
#
# Indices 1 2 3 4 5 6 
#
# 1 0.023546 -0.003679 -0.009234 0.000000 0.000000 0.000000
# 2 -0.003679 0.009569 -0.004076 0.000000 0.000000 0.000000
# 3 -0.009234 -0.004076 0.023531 0.000000 0.000000 0.000000
# 4 0.000000 0.000000 0.000000 0.008334 0.000000 0.000000
# 5 0.000000 0.000000 0.000000 0.000000 0.037683 0.000000
# 6 0.000000 0.000000 0.000000 0.000000 0.000000 0.035959
#
#
# Mechanical properties :
#
#
# Convention : Reuss Voigt Hill
#
# Bulk Modulus (GPa) = 44.11257 50.93298 47.52278
# Shear Modulus (GPa) = 27.75371 44.99577 36.37474
#
# Velocity S-wave (km/s) = 3.69067 4.69927 4.22517
# Velocity P-wave (km/s) = 6.30960 7.37843 6.86485
#
# Compressibility (1/GPa) = 0.02266928
#
# Stress axis : x y z
#
# Youngs Moduli (GPa) = 42.47029 104.50204 42.49633
#
# Poissons Ratio (x) = 0.38450 0.39239
# Poissons Ratio (y) = 0.15626 0.17320
# Poissons Ratio (z) = 0.39215 0.42592
#
# Static dielectric constant tensor:
#      x y z
#    x 3.597610 0.000000 0.000000 
#    y 0.000000 3.956670 0.000000 
#    z 0.000000 0.000000 3.852750 
# 
# 
# High freq. dielectric constant tensor:
#      x y z
#    x 1.782410 0.000000 0.000000 
#    y 0.000000 1.814480 0.000000 
#    z 0.000000 0.000000 1.793440 
# 
# From -- ./inp_files/42511.got.cif
#   From: 2010.06.25/outbox.cif.g09.slc.cpg/sg71_22_cif.got.tgz:42511.got - 2010.06.28 04:59:45.
