data_PCOD8291934
_publ_section_title
;
Structure prediction by ZEFSAII (Michael W. Deem and Ramdas Pophale) SiO2 
 PCOD8291934
Probable space group: I M M M
;
_chemical_formula_sum "Si O2"
_cell_formula_units_Z 56
_cell_length_a 24.119812
_cell_length_b 9.690495
_cell_length_c 13.534799
_cell_angle_alpha 90.000000
_cell_angle_beta 90.000000
_cell_angle_gamma 90.000000
_cell_volume 3163.528059
_symmetry_space_group_name_H-M "I M M M"
_symmetry_group_IT_number 71
_symmetry_cell_setting 'orthorhombic'
loop_
_space_group_symop_operation_xyz
x,y,z
-x,-y,z
x,-y,-z
-x,y,-z
-x,-y,-z
x,y,-z
-x,y,z
x,-y,z
1/2+x,1/2+y,1/2+z
1/2-x,1/2-y,1/2+z
1/2+x,1/2-y,1/2-z
1/2-x,1/2+y,1/2-z
1/2-x,1/2-y,1/2-z
1/2+x,1/2+y,1/2-z
1/2-x,1/2+y,1/2+z
1/2+x,1/2-y,1/2+z
loop_
_atom_site_type_symbol
_atom_site_label
_atom_site_fract_x
_atom_site_fract_y
_atom_site_fract_z
Si Si1 0.698953 0.232916 0.000000
Si Si2 0.640587 0.732492 0.806417
Si Si3 0.790362 0.000000 0.785450
Si Si4 0.285301 0.500000 0.500000
Si Si5 0.830123 0.500000 0.790463
Si Si6 0.728803 0.000000 0.500000
Si Si7 0.565457 0.500000 0.115625
O O1 0.659459 0.201929 0.091452
O O2 0.750810 0.136593 0.000000
O O3 0.726162 0.381266 0.000000
O O4 0.690392 0.637734 0.768148
O O5 0.586574 0.636848 0.826175
O O6 0.632481 0.862471 0.731413
O O7 0.723420 0.000000 0.782655
O O8 0.818036 0.000000 0.895893
O O9 0.810925 0.500000 0.904372
O O10 0.500000 0.500000 0.121299
O O11 0.585565 0.500000 0.000000
#
# Coordination Sequence:
#
# PCOD8291934 Si02
#       7
#     8  16   8   4   8   4   8
#     4  12  18  30  48  75 107 150 180 209 255 303
#     4  11  21  34  53  77 109 147 178 214 262 315
#     4  11  20  32  47  74 107 152 184 210 247 308
#     4  12  22  28  46  72 114 148 186 212 242 300
#     4  12  21  34  49  81 111 148 185 212 261 309
#     4  12  22  30  52  72 114 154 184 214 242 306
#     4  10  21  39  61  81 101 132 175 220 273 332
#
# _framework density 17.701756
#
# number of rings (size 3 to 8) (size 9 to 14) (size 15 to 20)
#    0.000    0.714    7.143    3.429    0.000    0.000 
#    0.000    0.714    0.000    1.714    0.000   19.000 
#    0.000    0.000    0.000    0.000    0.000    0.000 
#
# Total GULP energy -346972.890410 kJ/mol
# GULP energy per Si atom -12391.888943 kJ/mol
# Density = 1.766147 g / cm^3
# Si number density = 17.701756 Si / 1000 Ang^3
#
#
#
# Elastic Constant Matrix: (Units=GPa)
#
#
# Indices 1 2 3 4 5 6 
#
# 1 56.9945 21.4812 14.1227 0.0000 0.0000 0.0000
# 2 21.4812 103.8657 4.5922 0.0000 0.0000 0.0000
# 3 14.1227 4.5922 100.2533 0.0000 0.0000 0.0000
# 4 0.0000 0.0000 0.0000 2.4744 0.0000 0.0000
# 5 0.0000 0.0000 0.0000 0.0000 23.0187 0.0000
# 6 0.0000 0.0000 0.0000 0.0000 0.0000 6.4892
#
#
#
# Elastic Compliance Matrix: (Units=1/GPa)
#
#
# Indices 1 2 3 4 5 6 
#
# 1 0.019678 -0.003955 -0.002591 0.000000 0.000000 0.000000
# 2 -0.003955 0.010442 0.000079 0.000000 0.000000 0.000000
# 3 -0.002591 0.000079 0.010336 0.000000 0.000000 0.000000
# 4 0.000000 0.000000 0.000000 0.404146 0.000000 0.000000
# 5 0.000000 0.000000 0.000000 0.000000 0.043443 0.000000
# 6 0.000000 0.000000 0.000000 0.000000 0.000000 0.154103
#
#
# Mechanical properties :
#
#
# Convention : Reuss Voigt Hill
#
# Bulk Modulus (GPa) = 36.33442 37.94508 37.13975
# Shear Modulus (GPa) = 7.52720 21.12426 14.32573
#
# Velocity S-wave (km/s) = 2.06433 3.45823 2.84788
# Velocity P-wave (km/s) = 5.12371 6.11785 5.64272
#
# Compressibility (1/GPa) = 0.02752212
#
# Stress axis : x y z
#
# Youngs Moduli (GPa) = 50.81741 95.76395 96.74820
#
# Poissons Ratio (x) = 0.37877 0.25067
# Poissons Ratio (y) = 0.20100 -0.00763
# Poissons Ratio (z) = 0.13166 -0.00755
#
# Static dielectric constant tensor:
#      x y z
#    x 2.753010 0.000000 0.000000 
#    y 0.000000 3.526080 0.000000 
#    z 0.000000 0.000000 3.794930 
# 
# 
# High freq. dielectric constant tensor:
#      x y z
#    x 1.615720 0.000000 0.000000 
#    y 0.000000 1.706400 0.000000 
#    z 0.000000 0.000000 1.697790 
# 
# From -- ./inp_files/3668.got.cif
#   From: 2010.06.25/outbox.cif.g09.slc.cpg/sg71_2_cif.got.tgz:3668.got - 2010.06.28 04:59:45.
