data_PCOD8291564
_publ_section_title
;
Structure prediction by ZEFSAII (Michael W. Deem and Ramdas Pophale) SiO2 
 PCOD8291564
Probable space group: I M M M
;
_chemical_formula_sum "Si O2"
_cell_formula_units_Z 104
_cell_length_a 27.417675
_cell_length_b 7.901029
_cell_length_c 25.838691
_cell_angle_alpha 90.000000
_cell_angle_beta 90.000000
_cell_angle_gamma 90.000000
_cell_volume 5597.379956
_symmetry_space_group_name_H-M "I M M M"
_symmetry_group_IT_number 71
_symmetry_cell_setting 'orthorhombic'
loop_
_space_group_symop_operation_xyz
x,y,z
-x,-y,z
x,-y,-z
-x,y,-z
-x,-y,-z
x,y,-z
-x,y,z
x,-y,z
1/2+x,1/2+y,1/2+z
1/2-x,1/2-y,1/2+z
1/2+x,1/2-y,1/2-z
1/2-x,1/2+y,1/2-z
1/2-x,1/2-y,1/2-z
1/2+x,1/2+y,1/2-z
1/2-x,1/2+y,1/2+z
1/2+x,1/2-y,1/2+z
loop_
_atom_site_type_symbol
_atom_site_label
_atom_site_fract_x
_atom_site_fract_y
_atom_site_fract_z
Si Si1 0.873257 0.309047 0.196277
Si Si2 0.555692 0.694286 0.389686
Si Si3 0.767105 0.809621 0.194446
Si Si4 0.057779 0.689735 0.000000
Si Si5 0.354356 0.500000 0.939496
Si Si6 0.812985 0.305498 0.379577
Si Si7 0.554091 0.500000 0.132349
Si Si8 0.405526 0.192499 0.191821
O O1 0.855261 0.500000 0.203309
O O2 0.910959 0.299005 0.149181
O O3 0.824700 0.203290 0.184812
O O4 0.899542 0.249287 0.248659
O O5 0.500000 0.761478 0.385650
O O6 0.558718 0.500000 0.373656
O O7 0.576103 0.716666 0.448132
O O8 0.750000 0.750000 0.250000
O O9 0.736424 0.729924 0.146814
O O10 0.749991 0.000000 0.191822
O O11 0.078543 0.500000 0.000000
O O12 0.000000 0.692383 0.000000
O O13 0.325876 0.672701 0.924768
O O14 0.407591 0.500000 0.913960
O O15 0.362342 0.500000 0.000000
O O16 0.808713 0.500000 0.401398
O O17 0.853203 0.298290 0.334830
O O18 0.500000 0.500000 0.108276
O O19 0.558671 0.670674 0.166444
O O20 0.426858 0.000000 0.187657
#
# Coordination Sequence:
#
# PCOD8291564 Si02
#       8
#    16  16  16   8   8  16   8  16
#     4  11  22  34  52  81 114 147 187 229 276 337
#     4  10  21  36  54  76 104 141 185 233 279 330
#     4  11  21  32  56  86 115 149 182 226 279 335
#     4   9  17  33  57  77  95 129 179 229 277 321
#     4  10  22  39  64  86 112 156 200 247 294 343
#     4   9  19  36  57  85 116 148 189 232 288 346
#     4  10  22  37  58  84 116 153 194 243 296 347
#     4   9  19  35  53  79 115 153 187 225 282 351
#
# _framework density 18.580120999999998
#
# number of rings (size 3 to 8) (size 9 to 14) (size 15 to 20)
#    0.000    2.077    1.538    1.615    4.308    3.231 
#    0.000    1.538    1.692    0.000    0.000    4.308 
#    0.000    0.000    0.000    0.000    0.000    0.000 
#
# Total GULP energy -644604.784044 kJ/mol
# GULP energy per Si atom -12396.245847 kJ/mol
# Density = 1.853783 g / cm^3
# Si number density = 18.580121 Si / 1000 Ang^3
#
#
#
# Elastic Constant Matrix: (Units=GPa)
#
#
# Indices 1 2 3 4 5 6 
#
# 1 86.8403 30.6977 46.8007 0.0000 0.0000 0.0000
# 2 30.6977 88.5797 37.1724 0.0000 0.0000 0.0000
# 3 46.8007 37.1724 123.5187 0.0000 0.0000 0.0000
# 4 0.0000 0.0000 0.0000 23.8470 0.0000 0.0000
# 5 0.0000 0.0000 0.0000 0.0000 16.8101 0.0000
# 6 0.0000 0.0000 0.0000 0.0000 0.0000 18.9810
#
#
#
# Elastic Compliance Matrix: (Units=1/GPa)
#
#
# Indices 1 2 3 4 5 6 
#
# 1 0.015258 -0.003275 -0.004795 0.000000 0.000000 0.000000
# 2 -0.003275 0.013624 -0.002859 0.000000 0.000000 0.000000
# 3 -0.004795 -0.002859 0.010773 0.000000 0.000000 0.000000
# 4 0.000000 0.000000 0.000000 0.041934 0.000000 0.000000
# 5 0.000000 0.000000 0.000000 0.000000 0.059488 0.000000
# 6 0.000000 0.000000 0.000000 0.000000 0.000000 0.052684
#
#
# Mechanical properties :
#
#
# Convention : Reuss Voigt Hill
#
# Bulk Modulus (GPa) = 56.19379 58.69781 57.44580
# Shear Modulus (GPa) = 22.56803 24.21216 23.39010
#
# Velocity S-wave (km/s) = 3.48894 3.61379 3.55192
# Velocity P-wave (km/s) = 6.82202 7.00521 6.91422
#
# Compressibility (1/GPa) = 0.01779556
#
# Stress axis : x y z
#
# Youngs Moduli (GPa) = 65.54150 73.39907 92.82178
#
# Poissons Ratio (x) = 0.24040 0.44511
# Poissons Ratio (y) = 0.21466 0.26539
# Poissons Ratio (z) = 0.31429 0.20986
#
# Static dielectric constant tensor:
#      x y z
#    x 3.139140 0.000000 0.000000 
#    y 0.000000 3.940520 0.000000 
#    z 0.000000 0.000000 3.238990 
# 
# 
# High freq. dielectric constant tensor:
#      x y z
#    x 1.702690 0.000000 0.000000 
#    y 0.000000 1.734600 0.000000 
#    z 0.000000 0.000000 1.704610 
# 
# From -- ./inp_files/50984.got.cif
#   From: 2010.06.25/outbox.cif.g09.slc.cpg/sg71_26_cif.got.tgz:50984.got - 2010.06.28 04:59:45.
