data_PCOD8291765
_publ_section_title
;
Structure prediction by ZEFSAII (Michael W. Deem and Ramdas Pophale) SiO2 
 PCOD8291765
Probable space group: I M M M
;
_chemical_formula_sum "Si O2"
_cell_formula_units_Z 104
_cell_length_a 13.493323
_cell_length_b 22.393129
_cell_length_c 18.725043
_cell_angle_alpha 90.000000
_cell_angle_beta 90.000000
_cell_angle_gamma 90.000000
_cell_volume 5657.916348
_symmetry_space_group_name_H-M "I M M M"
_symmetry_group_IT_number 71
_symmetry_cell_setting 'orthorhombic'
loop_
_space_group_symop_operation_xyz
x,y,z
-x,-y,z
x,-y,-z
-x,y,-z
-x,-y,-z
x,y,-z
-x,y,z
x,-y,z
1/2+x,1/2+y,1/2+z
1/2-x,1/2-y,1/2+z
1/2+x,1/2-y,1/2-z
1/2-x,1/2+y,1/2-z
1/2-x,1/2-y,1/2-z
1/2+x,1/2+y,1/2-z
1/2-x,1/2+y,1/2+z
1/2+x,1/2-y,1/2+z
loop_
_atom_site_type_symbol
_atom_site_label
_atom_site_fract_x
_atom_site_fract_y
_atom_site_fract_z
Si Si1 0.381805 0.571217 0.000000
Si Si2 0.109869 0.066232 0.732376
Si Si3 0.886143 0.719348 0.839243
Si Si4 0.702561 0.352160 0.869920
Si Si5 0.222212 0.818463 0.920496
Si Si6 0.388759 0.565991 0.400252
Si Si7 0.386560 0.770645 0.828325
O O1 0.332155 0.604138 0.932778
O O2 0.357011 0.500000 0.000000
O O3 0.500000 0.580818 0.000000
O O4 0.191270 0.111288 0.703062
O O5 0.114736 0.068429 0.816070
O O6 0.000000 0.085503 0.705752
O O7 0.132514 0.000000 0.703544
O O8 0.817905 0.667296 0.873920
O O9 0.863788 0.780604 0.881110
O O10 0.860069 0.729213 0.755801
O O11 0.000000 0.701134 0.850306
O O12 0.635207 0.293193 0.864582
O O13 0.186328 0.886019 0.931865
O O14 0.320592 0.818455 0.871466
O O15 0.243989 0.792173 0.000000
O O16 0.500000 0.579761 0.427056
O O17 0.356648 0.500000 0.426662
O O18 0.500000 0.788108 0.840196
#
# Coordination Sequence:
#
# PCOD8291765 Si02
#       7
#     8  16  16  16  16  16  16
#     4  11  24  38  53  81 119 153 187 228 280 342
#     4   9  16  28  50  77 102 132 174 222 269 317
#     4  10  22  38  56  80 108 144 187 229 276 327
#     4  11  20  33  54  79 107 146 181 224 277 327
#     4  11  22  34  52  80 110 142 174 216 272 327
#     4   9  18  32  51  76 105 138 175 215 262 318
#     4  10  21  37  58  81 108 141 182 232 279 329
#
# _framework density 18.381326000000001
#
# number of rings (size 3 to 8) (size 9 to 14) (size 15 to 20)
#    0.000    1.923    0.000    6.923    4.308    5.538 
#    0.000    0.769    0.000    2.769    0.000    7.538 
#    0.000    0.000    0.000    0.000    0.000    0.000 
#
# Total GULP energy -644522.456384 kJ/mol
# GULP energy per Si atom -12394.662623 kJ/mol
# Density = 1.833949 g / cm^3
# Si number density = 18.381326 Si / 1000 Ang^3
#
#
#
# Elastic Constant Matrix: (Units=GPa)
#
#
# Indices 1 2 3 4 5 6 
#
# 1 121.5932 56.4996 47.5082 0.0000 0.0000 0.0000
# 2 56.4996 103.9718 46.4778 0.0000 0.0000 0.0000
# 3 47.5082 46.4778 99.0258 0.0000 0.0000 0.0000
# 4 0.0000 0.0000 0.0000 22.1148 0.0000 0.0000
# 5 0.0000 0.0000 0.0000 0.0000 -2.7518 0.0000
# 6 0.0000 0.0000 0.0000 0.0000 0.0000 29.5106
#
#
#
# Elastic Compliance Matrix: (Units=1/GPa)
#
#
# Indices 1 2 3 4 5 6 
#
# 1 0.011826 -0.004923 -0.003363 0.000000 0.000000 0.000000
# 2 -0.004923 0.014221 -0.004313 0.000000 0.000000 0.000000
# 3 -0.003363 -0.004313 0.013736 0.000000 0.000000 0.000000
# 4 0.000000 0.000000 0.000000 0.045218 0.000000 0.000000
# 5 0.000000 0.000000 0.000000 0.000000 -0.363400 0.000000
# 6 0.000000 0.000000 0.000000 0.000000 0.000000 0.033886
#
#
# Mechanical properties :
#
#
# Convention : Reuss Voigt Hill
#
# Bulk Modulus (GPa) = 68.56162 69.50688 69.03425
# Shear Modulus (GPa) = -23.31506 21.38176 -0.96665
#
# Velocity S-wave (km/s) = -3.56534 3.41432 -0.72597
# Velocity P-wave (km/s) = 4.52015 7.31022 6.07746
#
# Compressibility (1/GPa) = 0.01458542
#
# Stress axis : x y z
#
# Youngs Moduli (GPa) = 84.56299 70.31800 72.80156
#
# Poissons Ratio (x) = 0.34617 0.24482
# Poissons Ratio (y) = 0.41629 0.31399
# Poissons Ratio (z) = 0.28437 0.30328
#
# Static dielectric constant tensor:
#      x y z
#    x 3.357060 0.000000 0.000000 
#    y 0.000000 3.562880 0.000000 
#    z 0.000000 0.000000 3.503480 
# 
# 
# High freq. dielectric constant tensor:
#      x y z
#    x 1.691840 0.000000 0.000000 
#    y 0.000000 1.706150 0.000000 
#    z 0.000000 0.000000 1.730000 
# 
# From -- ./inp_files/44943.got.cif
#   From: 2010.06.25/outbox.cif.g09.slc.cpg/sg71_23_cif.got.tgz:44943.got - 2010.06.28 04:59:45.
