data_PCOD8291142
_publ_section_title
;
Structure prediction by ZEFSAII (Michael W. Deem and Ramdas Pophale) SiO2 
 PCOD8291142
Probable space group: I M M M
;
_chemical_formula_sum "Si O2"
_cell_formula_units_Z 88
_cell_length_a 19.359434
_cell_length_b 10.256938
_cell_length_c 21.308206
_cell_angle_alpha 90.000000
_cell_angle_beta 90.000000
_cell_angle_gamma 90.000000
_cell_volume 4231.138807
_symmetry_space_group_name_H-M "I M M M"
_symmetry_group_IT_number 71
_symmetry_cell_setting 'orthorhombic'
loop_
_space_group_symop_operation_xyz
x,y,z
-x,-y,z
x,-y,-z
-x,y,-z
-x,-y,-z
x,y,-z
-x,y,z
x,-y,z
1/2+x,1/2+y,1/2+z
1/2-x,1/2-y,1/2+z
1/2+x,1/2-y,1/2-z
1/2-x,1/2+y,1/2-z
1/2-x,1/2-y,1/2-z
1/2+x,1/2+y,1/2-z
1/2-x,1/2+y,1/2+z
1/2+x,1/2-y,1/2+z
loop_
_atom_site_type_symbol
_atom_site_label
_atom_site_fract_x
_atom_site_fract_y
_atom_site_fract_z
Si Si1 0.350674 0.853885 0.624401
Si Si2 0.925888 0.500000 0.383949
Si Si3 0.788580 0.216222 0.575744
Si Si4 0.214623 0.500000 0.567941
Si Si5 0.077468 0.217462 0.650310
Si Si6 0.423365 0.845125 0.500000
Si Si7 0.920328 0.852722 0.209866
O O1 0.269070 0.870249 0.609880
O O2 0.385431 0.794274 0.561951
O O3 0.369265 0.752986 0.679190
O O4 0.377802 0.000000 0.641165
O O5 0.869138 0.500000 0.438671
O O6 0.918379 0.373508 0.339442
O O7 0.000000 0.500000 0.418429
O O8 0.787371 0.203397 0.500000
O O9 0.766724 0.362792 0.600294
O O10 0.864594 0.173377 0.599618
O O11 0.249092 0.500000 0.500000
O O12 0.093321 0.148852 0.715924
O O13 0.000000 0.177857 0.626640
O O14 0.500000 0.786621 0.500000
O O15 0.423239 0.000000 0.500000
O O16 0.000000 0.815888 0.194973
O O17 0.903940 0.000000 0.186038
#
# Coordination Sequence:
#
# PCOD8291142 Si02
#       7
#    16   8  16   8  16   8  16
#     4  11  23  38  61  91 120 157 199 246 301 357
#     4   8  14  27  50  80 110 145 196 246 286 338
#     4  10  20  36  58  87 124 161 202 250 302 358
#     4   8  16  29  48  76 112 158 193 231 291 349
#     4   9  19  36  59  86 121 162 203 250 300 354
#     4   9  18  36  59  85 116 148 189 242 299 353
#     4  10  23  42  62  88 122 158 199 247 301 360
#
# _framework density 20.798183000000002
#
# number of rings (size 3 to 8) (size 9 to 14) (size 15 to 20)
#    0.000    2.455    0.909    0.545    2.545    3.091 
#    0.000    4.091    0.000    1.636    0.000    3.818 
#    0.000    0.000    0.000    0.000    0.000    0.000 
#
# Total GULP energy -545081.421152 kJ/mol
# GULP energy per Si atom -12388.214117 kJ/mol
# Density = 2.075085 g / cm^3
# Si number density = 20.798183 Si / 1000 Ang^3
#
#
#
# Elastic Constant Matrix: (Units=GPa)
#
#
# Indices 1 2 3 4 5 6 
#
# 1 121.0046 24.5241 45.8557 0.0000 0.0000 0.0000
# 2 24.5241 82.7950 28.8326 0.0000 0.0000 0.0000
# 3 45.8557 28.8326 75.3038 0.0000 0.0000 0.0000
# 4 0.0000 0.0000 0.0000 19.7273 0.0000 0.0000
# 5 0.0000 0.0000 0.0000 0.0000 37.5467 0.0000
# 6 0.0000 0.0000 0.0000 0.0000 0.0000 25.1704
#
#
#
# Elastic Compliance Matrix: (Units=1/GPa)
#
#
# Indices 1 2 3 4 5 6 
#
# 1 0.010822 -0.001051 -0.006188 0.000000 0.000000 0.000000
# 2 -0.001051 0.014038 -0.004735 0.000000 0.000000 0.000000
# 3 -0.006188 -0.004735 0.018861 0.000000 0.000000 0.000000
# 4 0.000000 0.000000 0.000000 0.050691 0.000000 0.000000
# 5 0.000000 0.000000 0.000000 0.000000 0.026634 0.000000
# 6 0.000000 0.000000 0.000000 0.000000 0.000000 0.039729
#
#
# Mechanical properties :
#
#
# Convention : Reuss Voigt Hill
#
# Bulk Modulus (GPa) = 50.57251 53.05868 51.81560
# Shear Modulus (GPa) = 26.13519 28.48160 27.30840
#
# Velocity S-wave (km/s) = 3.54871 3.70459 3.62749
# Velocity P-wave (km/s) = 6.41559 6.62309 6.52016
#
# Compressibility (1/GPa) = 0.01977359
#
# Stress axis : x y z
#
# Youngs Moduli (GPa) = 92.40473 71.23402 53.02081
#
# Poissons Ratio (x) = 0.07484 0.32807
# Poissons Ratio (y) = 0.09709 0.25106
# Poissons Ratio (z) = 0.57177 0.33731
#
# Static dielectric constant tensor:
#      x y z
#    x 3.814140 0.000000 0.000000 
#    y 0.000000 3.817340 0.000000 
#    z 0.000000 0.000000 3.389470 
# 
# 
# High freq. dielectric constant tensor:
#      x y z
#    x 1.814650 0.000000 0.000000 
#    y 0.000000 1.813590 0.000000 
#    z 0.000000 0.000000 1.779990 
# 
# From -- ./inp_files/53964.got.cif
#   From: 2010.06.25/outbox.cif.g09.slc.cpg/sg71_27_cif.got.tgz:53964.got - 2010.06.28 04:59:45.
