data_PCOD8291568
_publ_section_title
;
Structure prediction by ZEFSAII (Michael W. Deem and Ramdas Pophale) SiO2 
 PCOD8291568
Probable space group: I M M M
;
_chemical_formula_sum "Si O2"
_cell_formula_units_Z 96
_cell_length_a 27.665967
_cell_length_b 8.928574
_cell_length_c 20.228763
_cell_angle_alpha 90.000000
_cell_angle_beta 90.000000
_cell_angle_gamma 90.000000
_cell_volume 4996.861168
_symmetry_space_group_name_H-M "I M M M"
_symmetry_group_IT_number 71
_symmetry_cell_setting 'orthorhombic'
loop_
_space_group_symop_operation_xyz
x,y,z
-x,-y,z
x,-y,-z
-x,y,-z
-x,-y,-z
x,y,-z
-x,y,z
x,-y,z
1/2+x,1/2+y,1/2+z
1/2-x,1/2-y,1/2+z
1/2+x,1/2-y,1/2-z
1/2-x,1/2+y,1/2-z
1/2-x,1/2-y,1/2-z
1/2+x,1/2+y,1/2-z
1/2-x,1/2+y,1/2+z
1/2+x,1/2-y,1/2+z
loop_
_atom_site_type_symbol
_atom_site_label
_atom_site_fract_x
_atom_site_fract_y
_atom_site_fract_z
Si Si1 0.944133 0.826232 0.686490
Si Si2 0.772544 0.674969 0.425786
Si Si3 0.110993 0.322591 0.198373
Si Si4 0.213416 0.823610 0.800618
Si Si5 0.053930 0.322249 0.927087
Si Si6 0.371209 0.324230 0.074159
O O1 0.928086 0.723457 0.747160
O O2 0.914828 0.775456 0.621515
O O3 0.000000 0.796110 0.671325
O O4 0.934396 0.000000 0.703623
O O5 0.758471 0.729713 0.500000
O O6 0.782846 0.500000 0.425064
O O7 0.729443 0.716576 0.375596
O O8 0.821493 0.752088 0.400387
O O9 0.118558 0.500000 0.199319
O O10 0.161003 0.242068 0.213418
O O11 0.091201 0.263202 0.127762
O O12 0.250000 0.750000 0.750000
O O13 0.212483 0.000000 0.788219
O O14 0.051848 0.500000 0.924236
O O15 0.000000 0.259237 0.912847
O O16 0.071263 0.268844 0.000000
O O17 0.363337 0.500000 0.075550
O O18 0.383480 0.268233 0.000000
#
# Coordination Sequence:
#
# PCOD8291568 Si02
#       6
#    16  16  16  16  16  16
#     4  10  21  36  54  77 107 142 178 219 265 311
#     4   9  19  36  56  77 103 137 174 212 259 313
#     4  11  22  35  54  80 108 139 176 219 265 314
#     4  11  23  38  56  78 106 140 177 219 264 313
#     4   8  15  30  52  77 105 137 174 216 259 303
#     4   9  18  33  54  79 105 135 173 216 260 307
#
# _framework density 19.212060999999999
#
# number of rings (size 3 to 8) (size 9 to 14) (size 15 to 20)
#    0.000    2.333    0.000    3.000    0.000    6.667 
#    0.000    1.667    0.000    1.500    0.000    9.333 
#    0.000    0.000    0.000    0.000    0.000    0.000 
#
# Total GULP energy -595220.240304 kJ/mol
# GULP energy per Si atom -12400.421673 kJ/mol
# Density = 1.916833 g / cm^3
# Si number density = 19.212061 Si / 1000 Ang^3
#
#
#
# Elastic Constant Matrix: (Units=GPa)
#
#
# Indices 1 2 3 4 5 6 
#
# 1 69.6963 19.3849 23.7822 0.0000 0.0000 0.0000
# 2 19.3849 43.8841 26.8002 0.0000 0.0000 0.0000
# 3 23.7822 26.8002 86.5036 0.0000 0.0000 0.0000
# 4 0.0000 0.0000 0.0000 26.5131 0.0000 0.0000
# 5 0.0000 0.0000 0.0000 0.0000 39.3252 0.0000
# 6 0.0000 0.0000 0.0000 0.0000 0.0000 27.9910
#
#
#
# Elastic Compliance Matrix: (Units=1/GPa)
#
#
# Indices 1 2 3 4 5 6 
#
# 1 0.016921 -0.005715 -0.002881 0.000000 0.000000 0.000000
# 2 -0.005715 0.030035 -0.007734 0.000000 0.000000 0.000000
# 3 -0.002881 -0.007734 0.014749 0.000000 0.000000 0.000000
# 4 0.000000 0.000000 0.000000 0.037717 0.000000 0.000000
# 5 0.000000 0.000000 0.000000 0.000000 0.025429 0.000000
# 6 0.000000 0.000000 0.000000 0.000000 0.000000 0.035726
#
#
# Mechanical properties :
#
#
# Convention : Reuss Voigt Hill
#
# Bulk Modulus (GPa) = 34.43103 37.77986 36.10544
# Shear Modulus (GPa) = 24.64051 27.44030 26.04041
#
# Velocity S-wave (km/s) = 3.58516 3.78337 3.68560
# Velocity P-wave (km/s) = 5.92438 6.22836 6.07827
#
# Compressibility (1/GPa) = 0.02904357
#
# Stress axis : x y z
#
# Youngs Moduli (GPa) = 59.09943 33.29457 67.80308
#
# Poissons Ratio (x) = 0.19027 0.19537
# Poissons Ratio (y) = 0.33773 0.52440
# Poissons Ratio (z) = 0.17029 0.25751
#
# Static dielectric constant tensor:
#      x y z
#    x 3.548150 0.000000 0.000000 
#    y 0.000000 3.319400 0.000000 
#    z 0.000000 0.000000 4.016640 
# 
# 
# High freq. dielectric constant tensor:
#      x y z
#    x 1.746200 0.000000 0.000000 
#    y 0.000000 1.728290 0.000000 
#    z 0.000000 0.000000 1.762530 
# 
# From -- ./inp_files/10925.got.cif
#   From: 2010.06.25/outbox.cif.g09.slc.cpg/sg71_6_cif.got.tgz:10925.got - 2010.06.28 04:59:45.
