data_PCOD8291068
_publ_section_title
;
Structure prediction by ZEFSAII (Michael W. Deem and Ramdas Pophale) SiO2 
 PCOD8291068
Probable space group: I M M M
;
_chemical_formula_sum "Si O2"
_cell_formula_units_Z 104
_cell_length_a 23.761205
_cell_length_b 8.981296
_cell_length_c 26.088487
_cell_angle_alpha 90.000000
_cell_angle_beta 90.000000
_cell_angle_gamma 90.000000
_cell_volume 5567.450494
_symmetry_space_group_name_H-M "I M M M"
_symmetry_group_IT_number 71
_symmetry_cell_setting 'orthorhombic'
loop_
_space_group_symop_operation_xyz
x,y,z
-x,-y,z
x,-y,-z
-x,y,-z
-x,-y,-z
x,y,-z
-x,y,z
x,-y,z
1/2+x,1/2+y,1/2+z
1/2-x,1/2-y,1/2+z
1/2+x,1/2-y,1/2-z
1/2-x,1/2+y,1/2-z
1/2-x,1/2-y,1/2-z
1/2+x,1/2+y,1/2-z
1/2-x,1/2+y,1/2+z
1/2+x,1/2-y,1/2+z
loop_
_atom_site_type_symbol
_atom_site_label
_atom_site_fract_x
_atom_site_fract_y
_atom_site_fract_z
Si Si1 0.063366 0.824861 0.140173
Si Si2 0.655182 0.325909 0.558861
Si Si3 0.262086 0.824937 0.631126
Si Si4 0.354850 0.826261 0.712921
Si Si5 0.152395 0.323718 0.329619
Si Si6 0.433682 0.672009 0.102278
Si Si7 0.566874 0.167905 0.000000
O O1 0.099276 0.778735 0.090101
O O2 0.090021 0.755280 0.191345
O O3 0.000000 0.764142 0.132859
O O4 0.063304 0.000000 0.147843
O O5 0.644718 0.283193 0.500000
O O6 0.668004 0.500000 0.565813
O O7 0.708688 0.234703 0.579490
O O8 0.300505 0.781820 0.679731
O O9 0.202764 0.744826 0.637498
O O10 0.252360 0.000000 0.626338
O O11 0.342527 0.774091 0.770579
O O12 0.367432 0.000000 0.709814
O O13 0.152825 0.500000 0.335785
O O14 0.094091 0.257725 0.350370
O O15 0.500000 0.691947 0.108273
O O16 0.415939 0.500000 0.102264
O O17 0.411114 0.745151 0.049785
O O18 0.500000 0.165347 0.000000
O O19 0.591138 0.000000 0.000000
#
# Coordination Sequence:
#
# PCOD8291068 Si02
#       7
#    16  16  16  16  16  16   8
#     4   9  18  32  52  80 111 144 183 224 267 318
#     4   9  18  34  55  78 108 145 182 223 271 321
#     4  10  20  36  56  78 105 137 177 223 273 325
#     4   9  20  36  54  76 105 142 178 219 270 322
#     4  11  22  36  55  80 107 137 178 222 267 321
#     4  10  21  37  56  79 108 140 174 214 261 312
#     4   9  17  33  57  79 101 133 169 205 250 303
#
# _framework density 18.680005000000001
#
# number of rings (size 3 to 8) (size 9 to 14) (size 15 to 20)
#    0.000    2.385    0.000    2.077    0.000    5.231 
#    1.385    4.615    0.000    0.000    0.000    4.308 
#    0.000    0.000    0.000    0.000    0.000    0.000 
#
# Total GULP energy -644975.171544 kJ/mol
# GULP energy per Si atom -12403.368684 kJ/mol
# Density = 1.863749 g / cm^3
# Si number density = 18.680005 Si / 1000 Ang^3
#
#
#
# Elastic Constant Matrix: (Units=GPa)
#
#
# Indices 1 2 3 4 5 6 
#
# 1 90.5157 40.6000 44.5807 0.0000 0.0000 0.0000
# 2 40.6000 77.0512 40.8065 0.0000 0.0000 0.0000
# 3 44.5807 40.8065 78.0234 0.0000 0.0000 0.0000
# 4 0.0000 0.0000 0.0000 32.3415 0.0000 0.0000
# 5 0.0000 0.0000 0.0000 0.0000 19.2745 0.0000
# 6 0.0000 0.0000 0.0000 0.0000 0.0000 31.4711
#
#
#
# Elastic Compliance Matrix: (Units=1/GPa)
#
#
# Indices 1 2 3 4 5 6 
#
# 1 0.016756 -0.005199 -0.006855 0.000000 0.000000 0.000000
# 2 -0.005199 0.019563 -0.007261 0.000000 0.000000 0.000000
# 3 -0.006855 -0.007261 0.020531 0.000000 0.000000 0.000000
# 4 0.000000 0.000000 0.000000 0.030920 0.000000 0.000000
# 5 0.000000 0.000000 0.000000 0.000000 0.051882 0.000000
# 6 0.000000 0.000000 0.000000 0.000000 0.000000 0.031775
#
#
# Mechanical properties :
#
#
# Convention : Reuss Voigt Hill
#
# Bulk Modulus (GPa) = 54.88346 55.28498 55.08422
# Shear Modulus (GPa) = 23.13415 24.59094 23.86254
#
# Velocity S-wave (km/s) = 3.52297 3.63220 3.57800
# Velocity P-wave (km/s) = 6.78182 6.87391 6.82802
#
# Compressibility (1/GPa) = 0.01822043
#
# Stress axis : x y z
#
# Youngs Moduli (GPa) = 59.68083 51.11623 48.70657
#
# Poissons Ratio (x) = 0.26573 0.33388
# Poissons Ratio (y) = 0.31026 0.35367
# Poissons Ratio (z) = 0.40911 0.37117
#
# Static dielectric constant tensor:
#      x y z
#    x 3.389080 0.000000 0.000000 
#    y 0.000000 3.438250 0.000000 
#    z 0.000000 0.000000 3.526800 
# 
# 
# High freq. dielectric constant tensor:
#      x y z
#    x 1.718230 0.000000 0.000000 
#    y 0.000000 1.729140 0.000000 
#    z 0.000000 0.000000 1.726350 
# 
# From -- ./inp_files/66822.got.cif
#   From: 2010.06.25/outbox.cif.g09.slc.cpg/sg71_34_cif.got.tgz:66822.got - 2010.06.28 04:59:45.
