data_PCOD8291146
_publ_section_title
;
Structure prediction by ZEFSAII (Michael W. Deem and Ramdas Pophale) SiO2 
 PCOD8291146
Probable space group: I M M M
;
_chemical_formula_sum "Si O2"
_cell_formula_units_Z 88
_cell_length_a 20.584074
_cell_length_b 9.027058
_cell_length_c 24.591369
_cell_angle_alpha 90.000000
_cell_angle_beta 90.000000
_cell_angle_gamma 90.000000
_cell_volume 4569.411537
_symmetry_space_group_name_H-M "I M M M"
_symmetry_group_IT_number 71
_symmetry_cell_setting 'orthorhombic'
loop_
_space_group_symop_operation_xyz
x,y,z
-x,-y,z
x,-y,-z
-x,y,-z
-x,-y,-z
x,y,-z
-x,y,z
x,-y,z
1/2+x,1/2+y,1/2+z
1/2-x,1/2-y,1/2+z
1/2+x,1/2-y,1/2-z
1/2-x,1/2+y,1/2-z
1/2-x,1/2-y,1/2-z
1/2+x,1/2+y,1/2-z
1/2-x,1/2+y,1/2+z
1/2+x,1/2-y,1/2+z
loop_
_atom_site_type_symbol
_atom_site_label
_atom_site_fract_x
_atom_site_fract_y
_atom_site_fract_z
Si Si1 0.302124 0.168960 0.712117
Si Si2 0.927174 0.827357 0.830780
Si Si3 0.394600 0.824535 0.439710
Si Si4 0.378290 0.335836 0.936481
Si Si5 0.757683 0.333628 0.090701
Si Si6 0.000000 0.336321 0.565124
O O1 0.250000 0.250000 0.750000
O O2 0.373016 0.248303 0.707402
O O3 0.268310 0.171678 0.654348
O O4 0.313246 0.000000 0.732121
O O5 0.931576 0.760926 0.892014
O O6 0.000000 0.806308 0.805914
O O7 0.908817 0.000000 0.834631
O O8 0.424345 0.793071 0.500000
O O9 0.320000 0.765854 0.439870
O O10 0.397190 0.000000 0.426167
O O11 0.379835 0.500000 0.910038
O O12 0.309926 0.251963 0.923956
O O13 0.436540 0.242825 0.910344
O O14 0.390172 0.347023 0.000000
O O15 0.748987 0.500000 0.068671
O O16 0.000000 0.500000 0.588990
O O17 0.000000 0.336972 0.500000
#
# Coordination Sequence:
#
# PCOD8291146 Si02
#       6
#    16  16  16  16  16   8
#     4  10  20  36  59  82 104 131 168 215 268 324
#     4  10  21  36  54  78 109 144 182 223 266 314
#     4   9  17  30  49  75 108 144 180 217 259 310
#     4   9  15  25  44  66  88 119 160 198 232 281
#     4   8  15  28  48  73  97 124 162 207 251 298
#     4   9  17  27  37  55  87 123 155 189 233 281
#
# _framework density 19.258497999999999
#
# number of rings (size 3 to 8) (size 9 to 14) (size 15 to 20)
#    0.000    2.818    0.000    3.000    0.000    5.455 
#    0.000    6.364    2.000    4.364    0.000    0.000 
#    0.000    0.000    0.000    0.000    0.000    0.000 
#
# Total GULP energy -545103.502095 kJ/mol
# GULP energy per Si atom -12388.715957 kJ/mol
# Density = 1.921466 g / cm^3
# Si number density = 19.258498 Si / 1000 Ang^3
#
#
#
# Elastic Constant Matrix: (Units=GPa)
#
#
# Indices 1 2 3 4 5 6 
#
# 1 148.4939 54.9921 18.2800 0.0000 0.0000 0.0000
# 2 54.9921 104.6378 23.0922 0.0000 0.0000 0.0000
# 3 18.2800 23.0922 44.4949 0.0000 0.0000 0.0000
# 4 0.0000 0.0000 0.0000 21.4326 0.0000 0.0000
# 5 0.0000 0.0000 0.0000 0.0000 18.3247 0.0000
# 6 0.0000 0.0000 0.0000 0.0000 0.0000 24.1888
#
#
#
# Elastic Compliance Matrix: (Units=1/GPa)
#
#
# Indices 1 2 3 4 5 6 
#
# 1 0.008429 -0.004140 -0.001314 0.000000 0.000000 0.000000
# 2 -0.004140 0.012826 -0.004956 0.000000 0.000000 0.000000
# 3 -0.001314 -0.004956 0.025587 0.000000 0.000000 0.000000
# 4 0.000000 0.000000 0.000000 0.046658 0.000000 0.000000
# 5 0.000000 0.000000 0.000000 0.000000 0.054571 0.000000
# 6 0.000000 0.000000 0.000000 0.000000 0.000000 0.041342
#
#
# Mechanical properties :
#
#
# Convention : Reuss Voigt Hill
#
# Bulk Modulus (GPa) = 38.42958 54.48390 46.45674
# Shear Modulus (GPa) = 22.84079 26.20670 24.52375
#
# Velocity S-wave (km/s) = 3.44759 3.69289 3.57234
# Velocity P-wave (km/s) = 5.98713 6.82169 6.41799
#
# Compressibility (1/GPa) = 0.02602163
#
# Stress axis : x y z
#
# Youngs Moduli (GPa) = 118.63489 77.96579 39.08309
#
# Poissons Ratio (x) = 0.32277 0.05137
# Poissons Ratio (y) = 0.49113 0.19369
# Poissons Ratio (z) = 0.15594 0.38638
#
# Static dielectric constant tensor:
#      x y z
#    x 3.808290 0.000000 0.000000 
#    y 0.000000 3.516000 0.000000 
#    z 0.000000 0.000000 3.191170 
# 
# 
# High freq. dielectric constant tensor:
#      x y z
#    x 1.769740 0.000000 0.000000 
#    y 0.000000 1.727170 0.000000 
#    z 0.000000 0.000000 1.706750 
# 
# From -- ./inp_files/70666.got.cif
#   From: 2010.06.25/outbox.cif.g09.slc.cpg/sg71_36_cif.got.tgz:70666.got - 2010.06.28 04:59:45.
