data_PCOD8291098
_publ_section_title
;
Structure prediction by ZEFSAII (Michael W. Deem and Ramdas Pophale) SiO2 
 PCOD8291098
Probable space group: I M M M
;
_chemical_formula_sum "Si O2"
_cell_formula_units_Z 104
_cell_length_a 11.462889
_cell_length_b 18.222328
_cell_length_c 25.971672
_cell_angle_alpha 90.000000
_cell_angle_beta 90.000000
_cell_angle_gamma 90.000000
_cell_volume 5424.976435
_symmetry_space_group_name_H-M "I M M M"
_symmetry_group_IT_number 71
_symmetry_cell_setting 'orthorhombic'
loop_
_space_group_symop_operation_xyz
x,y,z
-x,-y,z
x,-y,-z
-x,y,-z
-x,-y,-z
x,y,-z
-x,y,z
x,-y,z
1/2+x,1/2+y,1/2+z
1/2-x,1/2-y,1/2+z
1/2+x,1/2-y,1/2-z
1/2-x,1/2+y,1/2-z
1/2-x,1/2-y,1/2-z
1/2+x,1/2+y,1/2-z
1/2-x,1/2+y,1/2+z
1/2+x,1/2-y,1/2+z
loop_
_atom_site_type_symbol
_atom_site_label
_atom_site_fract_x
_atom_site_fract_y
_atom_site_fract_z
Si Si1 0.368690 0.920033 0.274036
Si Si2 0.134417 0.276392 0.280005
Si Si3 0.000000 0.367324 0.061308
Si Si4 0.367351 0.275659 0.895412
Si Si5 0.740238 0.643195 0.559539
Si Si6 0.368034 0.000000 0.061673
Si Si7 0.226637 0.583459 0.883482
Si Si8 0.000000 0.199441 0.938442
O O1 0.500000 0.922157 0.295496
O O2 0.357606 0.864102 0.226663
O O3 0.291391 0.897818 0.323213
O O4 0.331045 0.000000 0.252905
O O5 0.250000 0.250000 0.250000
O O6 0.153095 0.255114 0.338497
O O7 0.000000 0.250919 0.262154
O O8 0.888970 0.409552 0.082950
O O9 0.000000 0.283216 0.081637
O O10 0.000000 0.371419 0.000000
O O11 0.500000 0.280766 0.910839
O O12 0.310927 0.218347 0.934569
O O13 0.318602 0.357283 0.903922
O O14 0.725396 0.626000 0.500000
O O15 0.803791 0.572451 0.584361
O O16 0.612039 0.656168 0.583904
O O17 0.500000 0.000000 0.082835
O O18 0.369435 0.000000 0.000000
O O19 0.273962 0.500000 0.889583
O O20 0.000000 0.201056 0.000000
#
# Coordination Sequence:
#
# PCOD8291098 Si02
#       8
#    16  16   8  16  16   8  16   8
#     4   9  17  32  55  81 107 138 182 226 273 337
#     4  10  20  36  57  82 110 143 184 233 284 336
#     4  11  21  36  56  86 120 145 189 246 293 340
#     4  11  23  37  55  81 111 146 193 235 280 343
#     4  10  20  37  58  82 113 145 183 229 279 335
#     4   9  18  33  55  81 109 148 189 221 261 319
#     4  11  21  34  56  81 109 148 187 230 287 342
#     4   9  18  32  56  84 107 143 185 225 280 335
#
# _framework density 19.170591000000002
#
# number of rings (size 3 to 8) (size 9 to 14) (size 15 to 20)
#    0.000    1.923    3.846    0.692    0.000    2.154 
#    2.769    1.538    0.000    0.462    0.000    2.154 
#    0.000    0.000    0.000    0.000    0.000    0.000 
#
# Total GULP energy -644330.321151 kJ/mol
# GULP energy per Si atom -12390.967714 kJ/mol
# Density = 1.912696 g / cm^3
# Si number density = 19.170591 Si / 1000 Ang^3
#
#
#
# Elastic Constant Matrix: (Units=GPa)
#
#
# Indices 1 2 3 4 5 6 
#
# 1 124.2468 54.0531 8.6332 0.0000 0.0000 0.0000
# 2 54.0531 147.7169 11.8320 0.0000 0.0000 0.0000
# 3 8.6332 11.8320 22.2635 0.0000 0.0000 0.0000
# 4 0.0000 0.0000 0.0000 26.5531 0.0000 0.0000
# 5 0.0000 0.0000 0.0000 0.0000 16.1421 0.0000
# 6 0.0000 0.0000 0.0000 0.0000 0.0000 10.4141
#
#
#
# Elastic Compliance Matrix: (Units=1/GPa)
#
#
# Indices 1 2 3 4 5 6 
#
# 1 0.009653 -0.003376 -0.001949 0.000000 0.000000 0.000000
# 2 -0.003376 0.008251 -0.003076 0.000000 0.000000 0.000000
# 3 -0.001949 -0.003076 0.047307 0.000000 0.000000 0.000000
# 4 0.000000 0.000000 0.000000 0.037660 0.000000 0.000000
# 5 0.000000 0.000000 0.000000 0.000000 0.061950 0.000000
# 6 0.000000 0.000000 0.000000 0.000000 0.000000 0.096024
#
#
# Mechanical properties :
#
#
# Convention : Reuss Voigt Hill
#
# Bulk Modulus (GPa) = 20.65726 49.25154 34.95440
# Shear Modulus (GPa) = 17.01932 25.26912 21.14422
#
# Velocity S-wave (km/s) = 2.98280 3.63453 3.32467
# Velocity P-wave (km/s) = 4.76043 6.58483 5.74551
#
# Compressibility (1/GPa) = 0.04840913
#
# Stress axis : x y z
#
# Youngs Moduli (GPa) = 103.59868 121.19055 21.13852
#
# Poissons Ratio (x) = 0.40914 0.04120
# Poissons Ratio (y) = 0.34975 0.06503
# Poissons Ratio (z) = 0.20189 0.37280
#
# Static dielectric constant tensor:
#      x y z
#    x 3.724860 0.000000 0.000000 
#    y 0.000000 3.749950 0.000000 
#    z 0.000000 0.000000 3.154080 
# 
# 
# High freq. dielectric constant tensor:
#      x y z
#    x 1.746670 0.000000 0.000000 
#    y 0.000000 1.755640 0.000000 
#    z 0.000000 0.000000 1.710630 
# 
# From -- ./inp_files/64706.got.cif
#   From: 2010.06.25/outbox.cif.g09.slc.cpg/sg71_33_cif.got.tgz:64706.got - 2010.06.28 04:59:45.
