data_PCOD8291043
_publ_section_title
;
Structure prediction by ZEFSAII (Michael W. Deem and Ramdas Pophale) SiO2 
 PCOD8291043
Probable space group: I M M M
;
_chemical_formula_sum "Si O2"
_cell_formula_units_Z 64
_cell_length_a 24.047720
_cell_length_b 8.668302
_cell_length_c 15.721390
_cell_angle_alpha 90.000000
_cell_angle_beta 90.000000
_cell_angle_gamma 90.000000
_cell_volume 3277.169328
_symmetry_space_group_name_H-M "I M M M"
_symmetry_group_IT_number 71
_symmetry_cell_setting 'orthorhombic'
loop_
_space_group_symop_operation_xyz
x,y,z
-x,-y,z
x,-y,-z
-x,y,-z
-x,-y,-z
x,y,-z
-x,y,z
x,-y,z
1/2+x,1/2+y,1/2+z
1/2-x,1/2-y,1/2+z
1/2+x,1/2-y,1/2-z
1/2-x,1/2+y,1/2-z
1/2-x,1/2-y,1/2-z
1/2+x,1/2+y,1/2-z
1/2-x,1/2+y,1/2+z
1/2+x,1/2-y,1/2+z
loop_
_atom_site_type_symbol
_atom_site_label
_atom_site_fract_x
_atom_site_fract_y
_atom_site_fract_z
Si Si1 0.227799 0.682690 0.662432
Si Si2 0.610719 0.182591 0.094810
Si Si3 0.500000 0.318501 0.627145
Si Si4 0.288325 0.818513 0.500000
Si Si5 0.000000 0.316516 0.311588
Si Si6 0.917117 0.680963 0.000000
O O1 0.233400 0.500000 0.664542
O O2 0.250000 0.750000 0.750000
O O3 0.163667 0.734998 0.650637
O O4 0.262876 0.745769 0.584155
O O5 0.554115 0.241078 0.137602
O O6 0.609347 0.000000 0.087734
O O7 0.615552 0.253774 0.000000
O O8 0.500000 0.500000 0.615709
O O9 0.500000 0.272294 0.724111
O O10 0.444630 0.251197 0.584210
O O11 0.352885 0.776463 0.500000
O O12 0.277551 0.000000 0.500000
O O13 0.000000 0.500000 0.296747
O O14 0.927686 0.500000 0.000000
#
# Coordination Sequence:
#
# PCOD8291043 Si02
#       6
#    16  16   8   8   8   8
#     4  11  23  40  62  91 127 163 204 254 309 371
#     4   9  18  36  61  88 115 150 199 249 294 348
#     4  11  23  39  58  88 124 153 191 242 303 360
#     4  11  24  42  65  93 121 160 210 257 310 369
#     4  10  20  35  62  89 115 153 200 247 292 349
#     4  10  22  41  64  84 113 155 203 245 294 360
#
# _framework density 19.529049000000001
#
# number of rings (size 3 to 8) (size 9 to 14) (size 15 to 20)
#    0.000    1.750    1.250    3.750    3.500    3.500 
#    0.000    1.250    0.000    0.750    0.000    0.000 
#    0.000    0.000    0.000    0.000    0.000    0.000 
#
# Total GULP energy -396859.236098 kJ/mol
# GULP energy per Si atom -12401.851128 kJ/mol
# Density = 1.948460 g / cm^3
# Si number density = 19.529049 Si / 1000 Ang^3
#
#
#
# Elastic Constant Matrix: (Units=GPa)
#
#
# Indices 1 2 3 4 5 6 
#
# 1 202.0532 65.9355 107.4672 0.0000 0.0000 0.0000
# 2 65.9355 80.8436 48.3841 0.0000 0.0000 0.0000
# 3 107.4672 48.3841 189.5443 0.0000 0.0000 0.0000
# 4 0.0000 0.0000 0.0000 33.8426 0.0000 0.0000
# 5 0.0000 0.0000 0.0000 0.0000 16.4308 0.0000
# 6 0.0000 0.0000 0.0000 0.0000 0.0000 25.5378
#
#
#
# Elastic Compliance Matrix: (Units=1/GPa)
#
#
# Indices 1 2 3 4 5 6 
#
# 1 0.008370 -0.004705 -0.003544 0.000000 0.000000 0.000000
# 2 -0.004705 0.017245 -0.001734 0.000000 0.000000 0.000000
# 3 -0.003544 -0.001734 0.007728 0.000000 0.000000 0.000000
# 4 0.000000 0.000000 0.000000 0.029549 0.000000 0.000000
# 5 0.000000 0.000000 0.000000 0.000000 0.060861 0.000000
# 6 0.000000 0.000000 0.000000 0.000000 0.000000 0.039158
#
#
# Mechanical properties :
#
#
# Convention : Reuss Voigt Hill
#
# Bulk Modulus (GPa) = 74.76541 101.77940 88.27240
# Shear Modulus (GPa) = 26.68996 31.87254 29.28125
#
# Velocity S-wave (km/s) = 3.70087 4.04426 3.87637
# Velocity P-wave (km/s) = 7.52524 8.60454 8.08293
#
# Compressibility (1/GPa) = 0.01337517
#
# Stress axis : x y z
#
# Youngs Moduli (GPa) = 119.47770 57.98798 129.39693
#
# Poissons Ratio (x) = 0.27283 0.45864
# Poissons Ratio (y) = 0.56214 0.22443
# Poissons Ratio (z) = 0.42348 0.10057
#
# Static dielectric constant tensor:
#      x y z
#    x 4.495610 0.000000 0.000000 
#    y 0.000000 3.426860 0.000000 
#    z 0.000000 0.000000 3.568310 
# 
# 
# High freq. dielectric constant tensor:
#      x y z
#    x 1.778380 0.000000 0.000000 
#    y 0.000000 1.744490 0.000000 
#    z 0.000000 0.000000 1.773910 
# 
# From -- ./inp_files/38805.got.cif
#   From: 2010.06.25/outbox.cif.g09.slc.cpg/sg71_20_cif.got.tgz:38805.got - 2010.06.28 04:59:45.
