data_PCOD8291003
_publ_section_title
;
Structure prediction by ZEFSAII (Michael W. Deem and Ramdas Pophale) SiO2 
 PCOD8291003
Probable space group: I M M M
;
_chemical_formula_sum "Si O2"
_cell_formula_units_Z 64
_cell_length_a 8.842297
_cell_length_b 25.777127
_cell_length_c 14.688353
_cell_angle_alpha 90.000000
_cell_angle_beta 90.000000
_cell_angle_gamma 90.000000
_cell_volume 3347.901798
_symmetry_space_group_name_H-M "I M M M"
_symmetry_group_IT_number 71
_symmetry_cell_setting 'orthorhombic'
loop_
_space_group_symop_operation_xyz
x,y,z
-x,-y,z
x,-y,-z
-x,y,-z
-x,-y,-z
x,y,-z
-x,y,z
x,-y,z
1/2+x,1/2+y,1/2+z
1/2-x,1/2-y,1/2+z
1/2+x,1/2-y,1/2-z
1/2-x,1/2+y,1/2-z
1/2-x,1/2-y,1/2-z
1/2+x,1/2+y,1/2-z
1/2-x,1/2+y,1/2+z
1/2+x,1/2-y,1/2+z
loop_
_atom_site_type_symbol
_atom_site_label
_atom_site_fract_x
_atom_site_fract_y
_atom_site_fract_z
Si Si1 0.827915 0.821799 0.000000
Si Si2 0.824783 0.109359 0.824292
Si Si3 0.678458 0.943170 0.500000
Si Si4 0.179862 0.000000 0.102514
Si Si5 0.821610 0.640340 0.141368
Si Si6 0.177450 0.786255 0.500000
O O1 0.796021 0.857037 0.086785
O O2 0.712678 0.774439 0.000000
O O3 0.000000 0.801010 0.000000
O O4 0.764810 0.050984 0.843184
O O5 0.730129 0.136313 0.744845
O O6 0.000000 0.108465 0.796286
O O7 0.500000 0.949203 0.500000
O O8 0.730219 0.912082 0.589659
O O9 0.755869 0.000000 0.500000
O O10 0.000000 0.000000 0.094666
O O11 0.247427 0.000000 0.000000
O O12 0.746289 0.689313 0.091826
O O13 0.000000 0.648607 0.136206
O O14 0.000000 0.795513 0.500000
#
# Coordination Sequence:
#
# PCOD8291003 Si02
#       6
#     8  16   8   8  16   8
#     4  10  21  38  60  84 113 152 195 236 285 336
#     4  10  20  35  58  87 118 153 193 235 278 335
#     4   8  16  32  52  75 106 145 184 221 270 332
#     4   9  16  32  57  84 117 156 193 231 280 332
#     4  10  21  37  58  83 116 152 187 232 286 343
#     4  11  23  41  63  83 110 145 189 245 293 337
#
# _framework density 19.116451000000001
#
# number of rings (size 3 to 8) (size 9 to 14) (size 15 to 20)
#    0.000    2.250    1.250    2.625    1.750    2.000 
#    0.000    0.000    0.000    3.000    0.000    0.000 
#    0.000    0.000    0.000    0.000    0.000    0.000 
#
# Total GULP energy -396839.682073 kJ/mol
# GULP energy per Si atom -12401.240065 kJ/mol
# Density = 1.907294 g / cm^3
# Si number density = 19.116451 Si / 1000 Ang^3
#
#
#
# Elastic Constant Matrix: (Units=GPa)
#
#
# Indices 1 2 3 4 5 6 
#
# 1 83.1117 44.2849 47.9730 0.0000 0.0000 0.0000
# 2 44.2849 125.6308 44.9801 0.0000 0.0000 0.0000
# 3 47.9730 44.9801 135.4173 0.0001 -0.0002 0.0000
# 4 0.0000 0.0000 0.0001 7.9457 -0.0001 0.0000
# 5 0.0000 0.0000 -0.0002 -0.0001 26.1793 0.0000
# 6 0.0000 0.0000 0.0000 0.0000 0.0000 23.1368
#
#
#
# Elastic Compliance Matrix: (Units=1/GPa)
#
#
# Indices 1 2 3 4 5 6 
#
# 1 0.016991 -0.004352 -0.004574 0.000000 0.000000 0.000000
# 2 -0.004352 0.010149 -0.001829 0.000000 0.000000 0.000000
# 3 -0.004574 -0.001829 0.009613 0.000000 0.000000 0.000000
# 4 0.000000 0.000000 0.000000 0.125855 0.000000 0.000000
# 5 0.000000 0.000000 0.000000 0.000000 0.038198 0.000000
# 6 0.000000 0.000000 0.000000 0.000000 0.000000 0.043221
#
#
# Mechanical properties :
#
#
# Convention : Reuss Voigt Hill
#
# Bulk Modulus (GPa) = 65.60608 68.73729 67.17169
# Shear Modulus (GPa) = 18.47633 25.24715 21.86174
#
# Velocity S-wave (km/s) = 3.11225 3.63809 3.38540
# Velocity P-wave (km/s) = 6.87812 7.32685 7.10603
#
# Compressibility (1/GPa) = 0.01524249
#
# Stress axis : x y z
#
# Youngs Moduli (GPa) = 58.85567 98.53393 104.03120
#
# Poissons Ratio (x) = 0.42879 0.47581
# Poissons Ratio (y) = 0.25612 0.19031
# Poissons Ratio (z) = 0.26919 0.18026
#
# Static dielectric constant tensor:
#      x y z
#    x 3.206810 0.000000 0.000000 
#    y 0.000000 3.675100 0.000000 
#    z 0.000000 0.000000 3.569850 
# 
# 
# High freq. dielectric constant tensor:
#      x y z
#    x 1.717520 0.000000 0.000000 
#    y 0.000000 1.751290 0.000000 
#    z 0.000000 0.000000 1.749080 
# 
# From -- ./inp_files/12049.got.cif
#   From: 2010.06.25/outbox.cif.g09.slc.cpg/sg71_7_cif.got.tgz:12049.got - 2010.06.28 04:59:45.
