data_PCOD8291607
_publ_section_title
;
Structure prediction by ZEFSAII (Michael W. Deem and Ramdas Pophale) SiO2 
 PCOD8291607
Probable space group: I M M M
;
_chemical_formula_sum "Si O2"
_cell_formula_units_Z 88
_cell_length_a 7.671602
_cell_length_b 31.555856
_cell_length_c 18.816827
_cell_angle_alpha 90.000000
_cell_angle_beta 90.000000
_cell_angle_gamma 90.000000
_cell_volume 4555.252145
_symmetry_space_group_name_H-M "I M M M"
_symmetry_group_IT_number 71
_symmetry_cell_setting 'orthorhombic'
loop_
_space_group_symop_operation_xyz
x,y,z
-x,-y,z
x,-y,-z
-x,y,-z
-x,-y,-z
x,y,-z
-x,y,z
x,-y,z
1/2+x,1/2+y,1/2+z
1/2-x,1/2-y,1/2+z
1/2+x,1/2-y,1/2-z
1/2-x,1/2+y,1/2-z
1/2-x,1/2-y,1/2-z
1/2+x,1/2+y,1/2-z
1/2-x,1/2+y,1/2+z
1/2+x,1/2-y,1/2+z
loop_
_atom_site_type_symbol
_atom_site_label
_atom_site_fract_x
_atom_site_fract_y
_atom_site_fract_z
Si Si1 0.500000 0.224872 0.583929
Si Si2 0.297270 0.117968 0.082881
Si Si3 0.198386 0.500000 0.083590
Si Si4 0.797948 0.161923 0.417106
Si Si5 0.000000 0.818715 0.083810
Si Si6 0.196783 0.453464 0.314126
Si Si7 0.196689 0.079413 0.667159
O O1 0.500000 0.229136 0.500000
O O2 0.324112 0.200643 0.607966
O O3 0.500000 0.271803 0.618714
O O4 0.500000 0.128470 0.100757
O O5 0.176922 0.157269 0.107407
O O6 0.223321 0.077357 0.126012
O O7 0.272641 0.107846 0.000000
O O8 0.294589 0.458615 0.111470
O O9 0.000000 0.500000 0.111164
O O10 0.210757 0.500000 0.000000
O O11 0.768504 0.151215 0.500000
O O12 0.734639 0.121519 0.371753
O O13 0.000000 0.173663 0.402683
O O14 0.000000 0.814343 0.000000
O O15 0.291278 0.500000 0.311927
O O16 0.195771 0.430913 0.237606
O O17 0.000000 0.461228 0.336798
O O18 0.000000 0.086177 0.692056
#
# Coordination Sequence:
#
# PCOD8291607 Si02
#       7
#     8  16   8  16   8  16  16
#     4   9  18  32  56  84 110 140 175 225 285 332
#     4   9  19  36  58  84 112 145 180 223 279 332
#     4  11  23  35  51  75 106 147 190 235 275 318
#     4   9  19  34  52  78 108 142 185 229 272 321
#     4   9  18  34  57  88 114 136 175 226 277 340
#     4  10  21  36  55  80 110 145 187 226 268 329
#     4  11  22  35  52  76 107 146 188 229 275 326
#
# _framework density 19.318359000000001
#
# number of rings (size 3 to 8) (size 9 to 14) (size 15 to 20)
#    0.000    2.273    0.909    1.364    3.818    2.545 
#    0.000    5.455    0.000    2.727    0.000    0.000 
#    0.000    0.000    0.000    0.000    0.000    0.000 
#
# Total GULP energy -545439.615985 kJ/mol
# GULP energy per Si atom -12396.354909 kJ/mol
# Density = 1.927439 g / cm^3
# Si number density = 19.318359 Si / 1000 Ang^3
#
#
#
# Elastic Constant Matrix: (Units=GPa)
#
#
# Indices 1 2 3 4 5 6 
#
# 1 81.4888 64.3468 24.2568 0.0000 0.0000 0.0000
# 2 64.3468 189.4355 61.9643 -0.0001 0.0000 0.0000
# 3 24.2568 61.9643 65.3849 -0.0004 -0.0001 0.0002
# 4 0.0000 -0.0001 -0.0004 7.6024 0.0000 0.0001
# 5 0.0000 0.0000 -0.0001 0.0000 17.3259 0.0000
# 6 0.0000 0.0000 0.0002 0.0001 0.0000 13.8806
#
#
#
# Elastic Compliance Matrix: (Units=1/GPa)
#
#
# Indices 1 2 3 4 5 6 
#
# 1 0.016834 -0.005326 -0.001197 0.000000 0.000000 0.000000
# 2 -0.005326 0.009336 -0.006871 0.000000 0.000000 0.000000
# 3 -0.001197 -0.006871 0.022250 0.000001 0.000000 0.000000
# 4 0.000000 0.000000 0.000001 0.131537 0.000000 -0.000001
# 5 0.000000 0.000000 0.000000 0.000000 0.057717 0.000000
# 6 0.000000 0.000000 0.000000 -0.000001 0.000000 0.072043
#
#
# Mechanical properties :
#
#
# Convention : Reuss Voigt Hill
#
# Bulk Modulus (GPa) = 46.23291 70.82722 58.53006
# Shear Modulus (GPa) = 14.54687 20.14455 17.34571
#
# Velocity S-wave (km/s) = 2.74708 3.23269 2.99973
# Velocity P-wave (km/s) = 5.83489 7.11874 6.50855
#
# Compressibility (1/GPa) = 0.02162961
#
# Stress axis : x y z
#
# Youngs Moduli (GPa) = 59.40348 107.11556 44.94369
#
# Poissons Ratio (x) = 0.57055 0.05381
# Poissons Ratio (y) = 0.31641 0.30882
# Poissons Ratio (z) = 0.07113 0.73602
#
# Static dielectric constant tensor:
#      x y z
#    x 3.583300 0.000000 0.000000 
#    y 0.000000 3.908000 0.000000 
#    z 0.000000 0.000000 3.271150 
# 
# 
# High freq. dielectric constant tensor:
#      x y z
#    x 1.755930 0.000000 0.000000 
#    y 0.000000 1.749240 0.000000 
#    z 0.000000 0.000000 1.727250 
# 
# From -- ./inp_files/50569.got.cif
#   From: 2010.06.25/outbox.cif.g09.slc.cpg/sg71_26_cif.got.tgz:50569.got - 2010.06.28 04:59:45.
