data_PCOD8291929
_publ_section_title
;
Structure prediction by ZEFSAII (Michael W. Deem and Ramdas Pophale) SiO2 
 PCOD8291929
Probable space group: I M M M
;
_chemical_formula_sum "Si O2"
_cell_formula_units_Z 96
_cell_length_a 19.513900
_cell_length_b 15.283511
_cell_length_c 14.810420
_cell_angle_alpha 90.000000
_cell_angle_beta 90.000000
_cell_angle_gamma 90.000000
_cell_volume 4417.073069
_symmetry_space_group_name_H-M "I M M M"
_symmetry_group_IT_number 71
_symmetry_cell_setting 'orthorhombic'
loop_
_space_group_symop_operation_xyz
x,y,z
-x,-y,z
x,-y,-z
-x,y,-z
-x,-y,-z
x,y,-z
-x,y,z
x,-y,z
1/2+x,1/2+y,1/2+z
1/2-x,1/2-y,1/2+z
1/2+x,1/2-y,1/2-z
1/2-x,1/2+y,1/2-z
1/2-x,1/2-y,1/2-z
1/2+x,1/2+y,1/2-z
1/2-x,1/2+y,1/2+z
1/2+x,1/2-y,1/2+z
loop_
_atom_site_type_symbol
_atom_site_label
_atom_site_fract_x
_atom_site_fract_y
_atom_site_fract_z
Si Si1 0.500000 0.705851 0.646478
Si Si2 0.500000 0.899579 0.700229
Si Si3 0.632795 0.340262 0.105198
Si Si4 0.500000 0.595165 0.822083
Si Si5 0.424316 0.902128 0.000000
Si Si6 0.233795 0.899040 0.252168
Si Si7 0.371313 0.599601 0.599272
Si Si8 0.875081 0.343062 0.682929
O O1 0.500000 0.812966 0.635327
O O2 0.500000 0.673302 0.749827
O O3 0.433859 0.667012 0.597583
O O4 0.567239 0.892220 0.760606
O O5 0.500000 0.000000 0.656680
O O6 0.567487 0.403401 0.114607
O O7 0.701708 0.381094 0.148892
O O8 0.609922 0.257998 0.165340
O O9 0.647217 0.318697 0.000000
O O10 0.500000 0.500000 0.773337
O O11 0.374701 0.885538 0.084390
O O12 0.500000 0.850868 0.000000
O O13 0.447733 0.000000 0.000000
O O14 0.181694 0.868282 0.174455
O O15 0.303915 0.847202 0.237128
O O16 0.251897 0.000000 0.242048
O O17 0.336784 0.603284 0.500000
O O18 0.395810 0.500000 0.620754
#
# Coordination Sequence:
#
# PCOD8291929 Si02
#       8
#     8   8  16   8   8  16  16  16
#     4  12  21  38  64  93 128 175 218 268 320 386
#     4  12  24  41  66  94 127 174 222 272 335 393
#     4  12  25  42  65  96 134 176 223 269 324 394
#     4  12  23  40  66  96 134 175 218 267 323 391
#     4  11  22  36  62  94 126 163 209 273 340 390
#     4  11  24  41  63  94 133 174 216 266 326 393
#     4  10  21  38  64  99 135 172 216 267 330 397
#     4  12  23  42  62  93 130 167 216 273 329 392
#
# _framework density 21.733848999999999
#
# number of rings (size 3 to 8) (size 9 to 14) (size 15 to 20)
#    0.000    0.583    5.000    3.750    1.167    2.333 
#    0.000    0.000    0.000    2.000    0.000    0.000 
#    0.000    0.000    0.000    0.000    0.000    0.000 
#
# Total GULP energy -594867.051131 kJ/mol
# GULP energy per Si atom -12393.063565 kJ/mol
# Density = 2.168438 g / cm^3
# Si number density = 21.733849 Si / 1000 Ang^3
#
#
#
# Elastic Constant Matrix: (Units=GPa)
#
#
# Indices 1 2 3 4 5 6 
#
# 1 136.2225 26.8776 46.4509 0.0000 0.0000 0.0000
# 2 26.8776 108.8427 14.3208 0.0000 0.0000 0.0000
# 3 46.4509 14.3208 87.2132 0.0000 0.0000 0.0000
# 4 0.0000 0.0000 0.0000 27.1630 0.0000 0.0000
# 5 0.0000 0.0000 0.0000 0.0000 20.9274 0.0000
# 6 0.0000 0.0000 0.0000 0.0000 0.0000 22.5002
#
#
#
# Elastic Compliance Matrix: (Units=1/GPa)
#
#
# Indices 1 2 3 4 5 6 
#
# 1 0.009259 -0.001674 -0.004657 0.000000 0.000000 0.000000
# 2 -0.001674 0.009693 -0.000700 0.000000 0.000000 0.000000
# 3 -0.004657 -0.000700 0.014061 0.000000 0.000000 0.000000
# 4 0.000000 0.000000 0.000000 0.036815 0.000000 0.000000
# 5 0.000000 0.000000 0.000000 0.000000 0.047784 0.000000
# 6 0.000000 0.000000 0.000000 0.000000 0.000000 0.044444
#
#
# Mechanical properties :
#
#
# Convention : Reuss Voigt Hill
#
# Bulk Modulus (GPa) = 52.76422 56.39744 54.58083
# Shear Modulus (GPa) = 27.40700 30.42672 28.91686
#
# Velocity S-wave (km/s) = 3.55495 3.74568 3.65156
# Velocity P-wave (km/s) = 6.41719 6.68672 6.55334
#
# Compressibility (1/GPa) = 0.01895224
#
# Stress axis : x y z
#
# Youngs Moduli (GPa) = 108.00227 103.16712 71.11704
#
# Poissons Ratio (x) = 0.17268 0.33117
# Poissons Ratio (y) = 0.18077 0.04979
# Poissons Ratio (z) = 0.50293 0.07223
#
# Static dielectric constant tensor:
#      x y z
#    x 3.903470 0.000000 0.000000 
#    y 0.000000 4.079300 0.000000 
#    z 0.000000 0.000000 3.739910 
# 
# 
# High freq. dielectric constant tensor:
#      x y z
#    x 1.850250 0.000000 0.000000 
#    y 0.000000 1.858430 0.000000 
#    z 0.000000 0.000000 1.835110 
# 
# From -- ./inp_files/37878.got.cif
#   From: 2010.06.25/outbox.cif.g09.slc.cpg/sg71_19_cif.got.tgz:37878.got - 2010.06.28 04:59:45.
