data_PCOD8291639
_publ_section_title
;
Structure prediction by ZEFSAII (Michael W. Deem and Ramdas Pophale) SiO2 
 PCOD8291639
Probable space group: I M M M
;
_chemical_formula_sum "Si O2"
_cell_formula_units_Z 72
_cell_length_a 9.037333
_cell_length_b 14.006997
_cell_length_c 29.148696
_cell_angle_alpha 90.000000
_cell_angle_beta 90.000000
_cell_angle_gamma 90.000000
_cell_volume 3689.813807
_symmetry_space_group_name_H-M "I M M M"
_symmetry_group_IT_number 71
_symmetry_cell_setting 'orthorhombic'
loop_
_space_group_symop_operation_xyz
x,y,z
-x,-y,z
x,-y,-z
-x,y,-z
-x,-y,-z
x,y,-z
-x,y,z
x,-y,z
1/2+x,1/2+y,1/2+z
1/2-x,1/2-y,1/2+z
1/2+x,1/2-y,1/2-z
1/2-x,1/2+y,1/2-z
1/2-x,1/2-y,1/2-z
1/2+x,1/2+y,1/2-z
1/2-x,1/2+y,1/2+z
1/2+x,1/2-y,1/2+z
loop_
_atom_site_type_symbol
_atom_site_label
_atom_site_fract_x
_atom_site_fract_y
_atom_site_fract_z
Si Si1 0.172578 0.721339 0.319278
Si Si2 0.830935 0.108060 0.446930
Si Si3 0.172535 0.609841 0.771994
Si Si4 0.824008 0.892795 0.000000
Si Si5 0.174455 0.218275 0.089377
O O1 0.207091 0.645873 0.279317
O O2 0.236875 0.826092 0.307782
O O3 0.250047 0.678576 0.364558
O O4 0.000000 0.733237 0.328484
O O5 0.787380 0.117535 0.500000
O O6 0.720817 0.171743 0.416973
O O7 0.000000 0.140768 0.439170
O O8 0.809162 0.000000 0.430176
O O9 0.223505 0.500000 0.776212
O O10 0.000000 0.621652 0.783324
O O11 0.764792 0.840860 0.045709
O O12 0.000000 0.890913 0.000000
O O13 0.762000 0.000000 0.000000
O O14 0.000000 0.209295 0.094586
#
# Coordination Sequence:
#
# PCOD8291639 Si02
#       5
#    16  16  16   8  16
#     4  10  21  36  56  84 114 144 179 224 276 330
#     4   9  18  33  53  76 104 139 177 221 275 327
#     4   9  19  38  61  83 110 143 180 225 274 327
#     4   9  20  38  56  77 108 146 189 233 272 313
#     4  11  21  35  56  81 110 147 188 230 272 319
#
# _framework density 19.513179000000001
#
# number of rings (size 3 to 8) (size 9 to 14) (size 15 to 20)
#    0.000    2.333    1.111    2.000    0.000    3.556 
#    0.000    1.111    0.000    4.667    0.000    0.000 
#    0.000    0.000    0.000    0.000    0.000    0.000 
#
# Total GULP energy -446477.169216 kJ/mol
# GULP energy per Si atom -12402.143589 kJ/mol
# Density = 1.946877 g / cm^3
# Si number density = 19.513179 Si / 1000 Ang^3
#
#
#
# Elastic Constant Matrix: (Units=GPa)
#
#
# Indices 1 2 3 4 5 6 
#
# 1 68.5266 30.1926 45.5449 0.0000 0.0000 0.0000
# 2 30.1926 94.6159 35.2893 0.0000 0.0000 0.0000
# 3 45.5449 35.2893 121.3589 0.0000 0.0000 0.0000
# 4 0.0000 0.0000 0.0000 17.0821 0.0000 0.0000
# 5 0.0000 0.0000 0.0000 0.0000 35.2573 0.0000
# 6 0.0000 0.0000 0.0000 0.0000 0.0000 24.0726
#
#
#
# Elastic Compliance Matrix: (Units=1/GPa)
#
#
# Indices 1 2 3 4 5 6 
#
# 1 0.020821 -0.004183 -0.006597 0.000000 0.000000 0.000000
# 2 -0.004183 0.012695 -0.002122 0.000000 0.000000 0.000000
# 3 -0.006597 -0.002122 0.011333 0.000000 0.000000 0.000000
# 4 0.000000 0.000000 0.000000 0.058541 0.000000 0.000000
# 5 0.000000 0.000000 0.000000 0.000000 0.028363 0.000000
# 6 0.000000 0.000000 0.000000 0.000000 0.000000 0.041541
#
#
# Mechanical properties :
#
#
# Convention : Reuss Voigt Hill
#
# Bulk Modulus (GPa) = 52.50933 56.28388 54.39661
# Shear Modulus (GPa) = 24.33716 26.84736 25.59226
#
# Velocity S-wave (km/s) = 3.53543 3.71328 3.62544
# Velocity P-wave (km/s) = 6.60558 6.87686 6.74259
#
# Compressibility (1/GPa) = 0.01904423
#
# Stress axis : x y z
#
# Youngs Moduli (GPa) = 48.02851 78.76921 88.23856
#
# Poissons Ratio (x) = 0.32953 0.58215
# Poissons Ratio (y) = 0.20092 0.18721
# Poissons Ratio (z) = 0.31687 0.16712
#
# Static dielectric constant tensor:
#      x y z
#    x 3.381620 0.000000 0.000000 
#    y 0.000000 3.531390 0.000000 
#    z 0.000000 0.000000 3.632080 
# 
# 
# High freq. dielectric constant tensor:
#      x y z
#    x 1.748780 0.000000 0.000000 
#    y 0.000000 1.752640 0.000000 
#    z 0.000000 0.000000 1.765560 
# 
# From -- ./inp_files/6089.got.cif
#   From: 2010.06.25/outbox.cif.g09.slc.cpg/sg71_4_cif.got.tgz:6089.got - 2010.06.28 04:59:45.
