data_PCOD8291829
_publ_section_title
;
Structure prediction by ZEFSAII (Michael W. Deem and Ramdas Pophale) SiO2 
 PCOD8291829
Probable space group: I M M M
;
_chemical_formula_sum "Si O2"
_cell_formula_units_Z 72
_cell_length_a 17.663913
_cell_length_b 8.838737
_cell_length_c 23.393400
_cell_angle_alpha 90.000000
_cell_angle_beta 90.000000
_cell_angle_gamma 90.000000
_cell_volume 3652.333909
_symmetry_space_group_name_H-M "I M M M"
_symmetry_group_IT_number 71
_symmetry_cell_setting 'orthorhombic'
loop_
_space_group_symop_operation_xyz
x,y,z
-x,-y,z
x,-y,-z
-x,y,-z
-x,-y,-z
x,y,-z
-x,y,z
x,-y,z
1/2+x,1/2+y,1/2+z
1/2-x,1/2-y,1/2+z
1/2+x,1/2-y,1/2-z
1/2-x,1/2+y,1/2-z
1/2-x,1/2-y,1/2-z
1/2+x,1/2+y,1/2-z
1/2-x,1/2+y,1/2+z
1/2+x,1/2-y,1/2+z
loop_
_atom_site_type_symbol
_atom_site_label
_atom_site_fract_x
_atom_site_fract_y
_atom_site_fract_z
Si Si1 0.087965 0.323028 0.142999
Si Si2 0.000000 0.179991 0.435816
Si Si3 0.669380 0.672858 0.252866
Si Si4 0.149632 0.826634 0.623246
Si Si5 0.291395 0.678613 0.434614
O O1 0.105218 0.500000 0.144115
O O2 0.114435 0.255536 0.203191
O O3 0.131872 0.250434 0.089732
O O4 0.000000 0.286929 0.134266
O O5 0.924489 0.243842 0.406389
O O6 0.000000 0.239827 0.500000
O O7 0.000000 0.000000 0.431391
O O8 0.679350 0.500000 0.272699
O O9 0.750000 0.750000 0.250000
O O10 0.632917 0.684107 0.190387
O O11 0.221881 0.730371 0.604640
O O12 0.164237 0.000000 0.604538
O O13 0.279771 0.732467 0.500000
O O14 0.298600 0.500000 0.430800
#
# Coordination Sequence:
#
# PCOD8291829 Si02
#       5
#    16   8  16  16  16
#     4  11  25  43  63  90 123 162 208 256 310 367
#     4   9  18  34  57  87 121 157 200 247 292 347
#     4  11  22  37  62  91 122 158 201 249 301 362
#     4  10  21  37  61  90 120 160 204 248 300 360
#     4  11  24  41  63  90 120 158 203 253 313 376
#
# _framework density 19.713424
#
# number of rings (size 3 to 8) (size 9 to 14) (size 15 to 20)
#    0.000    1.444    2.222    2.667    1.556    5.778 
#    0.000    2.778    0.000    2.000    0.000    0.000 
#    0.000    0.000    0.000    0.000    0.000    0.000 
#
# Total GULP energy -446559.034808 kJ/mol
# GULP energy per Si atom -12404.417634 kJ/mol
# Density = 1.966855 g / cm^3
# Si number density = 19.713424 Si / 1000 Ang^3
#
#
#
# Elastic Constant Matrix: (Units=GPa)
#
#
# Indices 1 2 3 4 5 6 
#
# 1 120.6421 49.2471 35.7118 0.0000 0.0000 0.0000
# 2 49.2471 91.0556 34.5155 0.0000 0.0000 0.0000
# 3 35.7118 34.5155 99.1681 0.0000 0.0000 0.0000
# 4 0.0000 0.0000 0.0000 30.1861 0.0000 0.0000
# 5 0.0000 0.0000 0.0000 0.0000 39.3477 0.0000
# 6 0.0000 0.0000 0.0000 0.0000 0.0000 22.6663
#
#
#
# Elastic Compliance Matrix: (Units=1/GPa)
#
#
# Indices 1 2 3 4 5 6 
#
# 1 0.011034 -0.005139 -0.002185 0.000000 0.000000 0.000000
# 2 -0.005139 0.015045 -0.003386 0.000000 0.000000 0.000000
# 3 -0.002185 -0.003386 0.012049 0.000000 0.000000 0.000000
# 4 0.000000 0.000000 0.000000 0.033128 0.000000 0.000000
# 5 0.000000 0.000000 0.000000 0.000000 0.025414 0.000000
# 6 0.000000 0.000000 0.000000 0.000000 0.000000 0.044118
#
#
# Mechanical properties :
#
#
# Convention : Reuss Voigt Hill
#
# Bulk Modulus (GPa) = 59.84996 61.09049 60.47022
# Shear Modulus (GPa) = 29.80137 31.19945 30.50041
#
# Velocity S-wave (km/s) = 3.89232 3.98257 3.93770
# Velocity P-wave (km/s) = 7.11520 7.22526 7.17044
#
# Compressibility (1/GPa) = 0.01670845
#
# Stress axis : x y z
#
# Youngs Moduli (GPa) = 90.63237 66.46582 82.99448
#
# Poissons Ratio (x) = 0.34159 0.18131
# Poissons Ratio (y) = 0.46580 0.28100
# Poissons Ratio (z) = 0.19799 0.22504
#
# Static dielectric constant tensor:
#      x y z
#    x 3.606750 0.000000 0.000000 
#    y 0.000000 3.602480 0.000000 
#    z 0.000000 0.000000 3.907300 
# 
# 
# High freq. dielectric constant tensor:
#      x y z
#    x 1.774400 0.000000 0.000000 
#    y 0.000000 1.764020 0.000000 
#    z 0.000000 0.000000 1.783360 
# 
# From -- ./inp_files/7978.got.cif
#   From: 2010.06.25/outbox.cif.g09.slc.cpg/sg71_4_cif.got.tgz:7978.got - 2010.06.28 04:59:45.
