data_PCOD8291127
_publ_section_title
;
Structure prediction by ZEFSAII (Michael W. Deem and Ramdas Pophale) SiO2 
 PCOD8291127
Probable space group: I M M M
;
_chemical_formula_sum "Si O2"
_cell_formula_units_Z 104
_cell_length_a 23.608874
_cell_length_b 26.377377
_cell_length_c 8.762381
_cell_angle_alpha 90.000000
_cell_angle_beta 90.000000
_cell_angle_gamma 90.000000
_cell_volume 5456.686634
_symmetry_space_group_name_H-M "I M M M"
_symmetry_group_IT_number 71
_symmetry_cell_setting 'orthorhombic'
loop_
_space_group_symop_operation_xyz
x,y,z
-x,-y,z
x,-y,-z
-x,y,-z
-x,-y,-z
x,y,-z
-x,y,z
x,-y,z
1/2+x,1/2+y,1/2+z
1/2-x,1/2-y,1/2+z
1/2+x,1/2-y,1/2-z
1/2-x,1/2+y,1/2-z
1/2-x,1/2-y,1/2-z
1/2+x,1/2+y,1/2-z
1/2-x,1/2+y,1/2+z
1/2+x,1/2-y,1/2+z
loop_
_atom_site_type_symbol
_atom_site_label
_atom_site_fract_x
_atom_site_fract_y
_atom_site_fract_z
Si Si1 0.934603 0.000000 0.331913
Si Si2 0.781420 0.706932 0.834577
Si Si3 0.713448 0.393870 0.168719
Si Si4 0.888926 0.346212 0.817711
Si Si5 0.173070 0.443844 0.181929
Si Si6 0.404617 0.604511 0.320619
Si Si7 0.000000 0.288619 0.182262
Si Si8 0.000000 0.824538 0.317842
O O1 0.919223 0.951395 0.233851
O O2 0.904545 0.000000 0.500000
O O3 0.000000 0.000000 0.363513
O O4 0.750000 0.750000 0.750000
O O5 0.739061 0.660988 0.850779
O O6 0.839485 0.690101 0.751772
O O7 0.797754 0.728460 0.000000
O O8 0.762995 0.430156 0.237585
O O9 0.661337 0.388272 0.283823
O O10 0.693327 0.413012 0.000000
O O11 0.874724 0.403648 0.759129
O O12 0.947571 0.322845 0.759085
O O13 0.887084 0.346854 0.000000
O O14 0.156923 0.500000 0.242230
O O15 0.174440 0.441931 0.000000
O O16 0.415235 0.609682 0.500000
O O17 0.443594 0.646551 0.238371
O O18 0.000000 0.233178 0.257098
O O19 0.000000 0.281693 0.000000
O O20 0.000000 0.823914 0.500000
#
# Coordination Sequence:
#
# PCOD8291127 Si02
#       8
#     8  16  16  16  16  16   8   8
#     4  11  23  41  63  81 106 148 188 227 274 327
#     4   9  18  32  50  74 104 141 185 231 279 333
#     4   9  19  34  52  78 110 144 186 232 278 335
#     4   8  16  31  50  76 111 145 184 231 284 341
#     4   8  14  28  52  81 112 149 188 228 276 336
#     4  12  25  40  59  84 112 143 185 235 287 336
#     4  10  20  36  58  83 114 152 184 231 295 339
#     4  12  26  43  59  79 109 147 193 239 278 337
#
# _framework density 19.059184999999999
#
# number of rings (size 3 to 8) (size 9 to 14) (size 15 to 20)
#    0.000    2.385    0.769    4.154    3.231    0.923 
#    0.000    0.385    0.000    3.231    0.000    0.000 
#    0.000    0.615    0.000    0.000    0.000    0.000 
#
# Total GULP energy -644292.747072 kJ/mol
# GULP energy per Si atom -12390.245136 kJ/mol
# Density = 1.901581 g / cm^3
# Si number density = 19.059185 Si / 1000 Ang^3
#
#
#
# Elastic Constant Matrix: (Units=GPa)
#
#
# Indices 1 2 3 4 5 6 
#
# 1 140.1997 88.0610 35.1843 0.0000 0.0000 0.0000
# 2 88.0610 153.7386 36.3330 0.0000 0.0000 0.0000
# 3 35.1843 36.3330 75.1407 0.0000 0.0000 0.0000
# 4 0.0000 0.0000 0.0000 21.7806 0.0000 0.0000
# 5 0.0000 0.0000 0.0000 0.0000 10.7171 0.0000
# 6 0.0000 0.0000 0.0000 0.0000 0.0000 11.2077
#
#
#
# Elastic Compliance Matrix: (Units=1/GPa)
#
#
# Indices 1 2 3 4 5 6 
#
# 1 0.011540 -0.006021 -0.002492 0.000000 0.000000 0.000000
# 2 -0.006021 0.010485 -0.002251 0.000000 0.000000 0.000000
# 3 -0.002492 -0.002251 0.015564 0.000000 0.000000 0.000000
# 4 0.000000 0.000000 0.000000 0.045912 0.000000 0.000000
# 5 0.000000 0.000000 0.000000 0.000000 0.093309 0.000000
# 6 0.000000 0.000000 0.000000 0.000000 0.000000 0.089225
#
#
# Mechanical properties :
#
#
# Convention : Reuss Voigt Hill
#
# Bulk Modulus (GPa) = 62.26229 76.47062 69.36645
# Shear Modulus (GPa) = 17.06970 22.70779 19.88875
#
# Velocity S-wave (km/s) = 2.99593 3.45546 3.23387
# Velocity P-wave (km/s) = 6.68627 7.49200 7.10058
#
# Compressibility (1/GPa) = 0.01606109
#
# Stress axis : x y z
#
# Youngs Moduli (GPa) = 86.65475 95.37143 64.25266
#
# Poissons Ratio (x) = 0.57424 0.16013
# Poissons Ratio (y) = 0.52176 0.14461
# Poissons Ratio (z) = 0.21596 0.21465
#
# Static dielectric constant tensor:
#      x y z
#    x 3.843510 0.000000 0.000000 
#    y 0.000000 3.611690 0.000000 
#    z 0.000000 0.000000 3.084130 
# 
# 
# High freq. dielectric constant tensor:
#      x y z
#    x 1.742670 0.000000 0.000000 
#    y 0.000000 1.749600 0.000000 
#    z 0.000000 0.000000 1.704120 
# 
# From -- ./inp_files/13387.got.cif
#   From: 2010.06.25/outbox.cif.g09.slc.cpg/sg71_7_cif.got.tgz:13387.got - 2010.06.28 04:59:45.
