data_PCOD8291656
_publ_section_title
;
Structure prediction by ZEFSAII (Michael W. Deem and Ramdas Pophale) SiO2 
 PCOD8291656
Probable space group: I M M M
;
_chemical_formula_sum "Si O2"
_cell_formula_units_Z 88
_cell_length_a 23.859045
_cell_length_b 8.005483
_cell_length_c 22.713105
_cell_angle_alpha 90.000000
_cell_angle_beta 90.000000
_cell_angle_gamma 90.000000
_cell_volume 4338.275263
_symmetry_space_group_name_H-M "I M M M"
_symmetry_group_IT_number 71
_symmetry_cell_setting 'orthorhombic'
loop_
_space_group_symop_operation_xyz
x,y,z
-x,-y,z
x,-y,-z
-x,y,-z
-x,-y,-z
x,y,-z
-x,y,z
x,-y,z
1/2+x,1/2+y,1/2+z
1/2-x,1/2-y,1/2+z
1/2+x,1/2-y,1/2-z
1/2-x,1/2+y,1/2-z
1/2-x,1/2-y,1/2-z
1/2+x,1/2+y,1/2-z
1/2-x,1/2+y,1/2+z
1/2+x,1/2-y,1/2+z
loop_
_atom_site_type_symbol
_atom_site_label
_atom_site_fract_x
_atom_site_fract_y
_atom_site_fract_z
Si Si1 0.344400 0.684678 0.650637
Si Si2 0.753592 0.307686 0.065448
Si Si3 0.563896 0.807802 0.433628
Si Si4 0.135598 0.190522 0.616601
Si Si5 0.566333 0.000000 0.930674
Si Si6 0.811588 0.687569 0.266840
O O1 0.343674 0.500000 0.677218
O O2 0.287706 0.704561 0.613251
O O3 0.398362 0.703010 0.609999
O O4 0.347619 0.807300 0.706546
O O5 0.769887 0.500000 0.074319
O O6 0.687624 0.279002 0.073186
O O7 0.770182 0.247522 0.000000
O O8 0.572317 0.741436 0.500000
O O9 0.500000 0.784654 0.413771
O O10 0.582159 0.000000 0.430470
O O11 0.089711 0.331122 0.600380
O O12 0.157973 0.203213 0.683483
O O13 0.111912 0.000000 0.608253
O O14 0.500000 0.000000 0.920567
O O15 0.581187 0.000000 0.000000
O O16 0.808555 0.500000 0.290751
O O17 0.750000 0.750000 0.250000
#
# Coordination Sequence:
#
# PCOD8291656 Si02
#       6
#    16  16  16  16   8  16
#     4  12  24  35  54  89 124 162 209 258 315 378
#     4  10  21  36  56  86 125 166 207 257 320 383
#     4   9  19  38  61  82 112 159 209 257 311 368
#     4  11  23  43  68  99 134 173 219 271 331 396
#     4  11  26  48  74 104 136 176 224 276 340 407
#     4  12  23  40  63  92 129 171 215 261 322 392
#
# _framework density 20.284559000000002
#
# number of rings (size 3 to 8) (size 9 to 14) (size 15 to 20)
#    0.000    1.182    2.727    4.909    1.273    4.727 
#    0.000    2.727    0.000    2.182    0.000    0.000 
#    0.000    0.000    0.000    0.000    0.000    0.000 
#
# Total GULP energy -545622.490327 kJ/mol
# GULP energy per Si atom -12400.511144 kJ/mol
# Density = 2.023839 g / cm^3
# Si number density = 20.284559 Si / 1000 Ang^3
#
#
#
# Elastic Constant Matrix: (Units=GPa)
#
#
# Indices 1 2 3 4 5 6 
#
# 1 90.3716 40.4812 33.0495 0.0000 0.0000 0.0000
# 2 40.4812 111.3418 29.2183 0.0000 0.0000 0.0000
# 3 33.0495 29.2183 106.3886 0.0000 0.0000 0.0000
# 4 0.0000 0.0000 0.0000 27.3811 0.0000 0.0000
# 5 0.0000 0.0000 0.0000 0.0000 18.1787 0.0000
# 6 0.0000 0.0000 0.0000 0.0000 0.0000 31.7897
#
#
#
# Elastic Compliance Matrix: (Units=1/GPa)
#
#
# Indices 1 2 3 4 5 6 
#
# 1 0.014173 -0.004308 -0.003220 0.000000 0.000000 0.000000
# 2 -0.004308 0.010988 -0.001680 0.000000 0.000000 0.000000
# 3 -0.003220 -0.001680 0.010861 0.000000 0.000000 0.000000
# 4 0.000000 0.000000 0.000000 0.036522 0.000000 0.000000
# 5 0.000000 0.000000 0.000000 0.000000 0.055009 0.000000
# 6 0.000000 0.000000 0.000000 0.000000 0.000000 0.031457
#
#
# Mechanical properties :
#
#
# Convention : Reuss Voigt Hill
#
# Bulk Modulus (GPa) = 56.79322 57.06664 56.92993
# Shear Modulus (GPa) = 27.27873 29.16008 28.21941
#
# Velocity S-wave (km/s) = 3.67113 3.79562 3.73389
# Velocity P-wave (km/s) = 6.78444 6.88499 6.83490
#
# Compressibility (1/GPa) = 0.01760774
#
# Stress axis : x y z
#
# Youngs Moduli (GPa) = 70.55900 91.00540 92.07311
#
# Poissons Ratio (x) = 0.39204 0.29644
# Poissons Ratio (y) = 0.30396 0.15464
# Poissons Ratio (z) = 0.22717 0.15285
#
# Static dielectric constant tensor:
#      x y z
#    x 3.503020 0.000000 0.000000 
#    y 0.000000 3.715840 0.000000 
#    z 0.000000 0.000000 3.830810 
# 
# 
# High freq. dielectric constant tensor:
#      x y z
#    x 1.771470 0.000000 0.000000 
#    y 0.000000 1.797200 0.000000 
#    z 0.000000 0.000000 1.801800 
# 
# From -- ./inp_files/55557.got.cif
#   From: 2010.06.25/outbox.cif.g09.slc.cpg/sg71_28_cif.got.tgz:55557.got - 2010.06.28 04:59:45.
