data_PCOD8291943
_publ_section_title
;
Structure prediction by ZEFSAII (Michael W. Deem and Ramdas Pophale) SiO2 
 PCOD8291943
Probable space group: I M M M
;
_chemical_formula_sum "Si O2"
_cell_formula_units_Z 72
_cell_length_a 21.020685
_cell_length_b 20.385875
_cell_length_c 8.742437
_cell_angle_alpha 90.000000
_cell_angle_beta 90.000000
_cell_angle_gamma 90.000000
_cell_volume 3746.353312
_symmetry_space_group_name_H-M "I M M M"
_symmetry_group_IT_number 71
_symmetry_cell_setting 'orthorhombic'
loop_
_space_group_symop_operation_xyz
x,y,z
-x,-y,z
x,-y,-z
-x,y,-z
-x,-y,-z
x,y,-z
-x,y,z
x,-y,z
1/2+x,1/2+y,1/2+z
1/2-x,1/2-y,1/2+z
1/2+x,1/2-y,1/2-z
1/2-x,1/2+y,1/2-z
1/2-x,1/2-y,1/2-z
1/2+x,1/2+y,1/2-z
1/2-x,1/2+y,1/2+z
1/2+x,1/2-y,1/2+z
loop_
_atom_site_type_symbol
_atom_site_label
_atom_site_fract_x
_atom_site_fract_y
_atom_site_fract_z
Si Si1 0.300058 0.697532 0.320922
Si Si2 0.569877 0.000000 0.163282
Si Si3 0.246373 0.424273 0.173552
Si Si4 0.572301 0.255372 0.822377
Si Si5 0.607144 0.126359 0.327575
O O1 0.291354 0.705501 0.500000
O O2 0.250000 0.750000 0.250000
O O3 0.292337 0.620966 0.274711
O O4 0.373465 0.710180 0.277817
O O5 0.578886 0.941214 0.277481
O O6 0.500000 0.000000 0.100850
O O7 0.610285 0.000000 0.000000
O O8 0.239708 0.500000 0.235599
O O9 0.182431 0.382146 0.181396
O O10 0.271602 0.427454 0.000000
O O11 0.500000 0.277667 0.777867
O O12 0.579983 0.178380 0.791968
O O13 0.584904 0.269845 0.000000
O O14 0.586025 0.144798 0.500000
#
# Coordination Sequence:
#
# PCOD8291943 Si02
#       5
#    16   8  16  16  16
#     4  12  24  39  63  92 123 160 205 253 305 361
#     4  11  23  35  47  69 109 159 204 245 290 349
#     4  10  21  39  61  87 121 158 199 248 303 361
#     4  11  24  41  61  87 120 158 201 249 304 363
#     4  11  21  35  56  82 114 155 199 245 296 353
#
# _framework density 19.218689999999999
#
# number of rings (size 3 to 8) (size 9 to 14) (size 15 to 20)
#    0.000    1.000    3.333    4.333    0.000    6.667 
#    0.000    0.000    0.000    0.667    0.000    4.667 
#    0.000    0.000    0.000    0.000    0.000    0.000 
#
# Total GULP energy -445984.305101 kJ/mol
# GULP energy per Si atom -12388.452919 kJ/mol
# Density = 1.917495 g / cm^3
# Si number density = 19.218690 Si / 1000 Ang^3
#
#
#
# Elastic Constant Matrix: (Units=GPa)
#
#
# Indices 1 2 3 4 5 6 
#
# 1 97.7762 28.8525 46.6337 0.0000 0.0000 0.0000
# 2 28.8525 63.5799 33.4966 0.0000 0.0000 0.0000
# 3 46.6337 33.4966 97.2759 0.0000 0.0000 0.0000
# 4 0.0000 0.0000 0.0000 34.5326 0.0000 0.0000
# 5 0.0000 0.0000 0.0000 0.0000 28.1535 0.0000
# 6 0.0000 0.0000 0.0000 0.0000 0.0000 25.4301
#
#
#
# Elastic Compliance Matrix: (Units=1/GPa)
#
#
# Indices 1 2 3 4 5 6 
#
# 1 0.013836 -0.003401 -0.005462 0.000000 0.000000 0.000000
# 2 -0.003401 0.020050 -0.005274 0.000000 0.000000 0.000000
# 3 -0.005462 -0.005274 0.014714 0.000000 0.000000 0.000000
# 4 0.000000 0.000000 0.000000 0.028958 0.000000 0.000000
# 5 0.000000 0.000000 0.000000 0.000000 0.035520 0.000000
# 6 0.000000 0.000000 0.000000 0.000000 0.000000 0.039324
#
#
# Mechanical properties :
#
#
# Convention : Reuss Voigt Hill
#
# Bulk Modulus (GPa) = 49.19517 52.95527 51.07522
# Shear Modulus (GPa) = 26.67369 27.59986 27.13678
#
# Velocity S-wave (km/s) = 3.72950 3.79370 3.76173
# Velocity P-wave (km/s) = 6.64821 6.84130 6.74545
#
# Compressibility (1/GPa) = 0.02032720
#
# Stress axis : x y z
#
# Youngs Moduli (GPa) = 72.27497 49.87510 67.96113
#
# Poissons Ratio (x) = 0.16964 0.37118
# Poissons Ratio (y) = 0.24583 0.35840
# Poissons Ratio (z) = 0.39475 0.26302
#
# Static dielectric constant tensor:
#      x y z
#    x 3.728900 0.000000 0.000000 
#    y 0.000000 3.556250 0.000000 
#    z 0.000000 0.000000 3.649560 
# 
# 
# High freq. dielectric constant tensor:
#      x y z
#    x 1.734530 0.000000 0.000000 
#    y 0.000000 1.735980 0.000000 
#    z 0.000000 0.000000 1.760480 
# 
# From -- ./inp_files/9926.got.cif
#   From: 2010.06.25/outbox.cif.g09.slc.cpg/sg71_5_cif.got.tgz:9926.got - 2010.06.28 04:59:45.
