data_PCOD8291906
_publ_section_title
;
Structure prediction by ZEFSAII (Michael W. Deem and Ramdas Pophale) SiO2 
 PCOD8291906
Probable space group: I M M M
;
_chemical_formula_sum "Si O2"
_cell_formula_units_Z 72
_cell_length_a 14.271666
_cell_length_b 29.365205
_cell_length_c 8.734077
_cell_angle_alpha 90.000000
_cell_angle_beta 90.000000
_cell_angle_gamma 90.000000
_cell_volume 3660.367804
_symmetry_space_group_name_H-M "I M M M"
_symmetry_group_IT_number 71
_symmetry_cell_setting 'orthorhombic'
loop_
_space_group_symop_operation_xyz
x,y,z
-x,-y,z
x,-y,-z
-x,y,-z
-x,-y,-z
x,y,-z
-x,y,z
x,-y,z
1/2+x,1/2+y,1/2+z
1/2-x,1/2-y,1/2+z
1/2+x,1/2-y,1/2-z
1/2-x,1/2+y,1/2-z
1/2-x,1/2-y,1/2-z
1/2+x,1/2+y,1/2-z
1/2-x,1/2+y,1/2+z
1/2+x,1/2-y,1/2+z
loop_
_atom_site_type_symbol
_atom_site_label
_atom_site_fract_x
_atom_site_fract_y
_atom_site_fract_z
Si Si1 0.500000 0.054088 0.672181
Si Si2 0.689258 0.210453 0.322452
Si Si3 0.000000 0.735443 0.680941
Si Si4 0.808346 0.446486 0.677390
Si Si5 0.181856 0.875011 0.322841
Si Si6 0.000000 0.835319 0.179422
O O1 0.500000 0.073951 0.500000
O O2 0.407711 0.071676 0.758987
O O3 0.500000 0.000000 0.669837
O O4 0.675305 0.221457 0.500000
O O5 0.750000 0.250000 0.250000
O O6 0.589305 0.208128 0.241289
O O7 0.739539 0.162825 0.294003
O O8 0.000000 0.735688 0.500000
O O9 0.000000 0.787510 0.734111
O O10 0.802707 0.433618 0.500000
O O11 0.797486 0.500000 0.705316
O O12 0.723603 0.422946 0.767805
O O13 0.153006 0.877872 0.500000
O O14 0.090599 0.864308 0.224046
O O15 0.000000 0.825614 0.000000
#
# Coordination Sequence:
#
# PCOD8291906 Si02
#       6
#     8  16   8  16  16   8
#     4   9  17  32  57  86 117 156 197 239 296 359
#     4  11  23  39  61  88 120 157 199 248 302 358
#     4  12  24  39  61  89 124 162 205 250 300 362
#     4  10  21  38  61  90 124 161 203 251 304 361
#     4  11  24  41  63  90 122 158 203 251 304 364
#     4  12  24  40  64  88 118 159 204 249 303 364
#
# _framework density 19.670155000000001
#
# number of rings (size 3 to 8) (size 9 to 14) (size 15 to 20)
#    0.000    1.222    2.222    4.333    0.000    6.222 
#    0.000    1.667    0.000    3.333    0.000    0.000 
#    0.000    0.000    0.000    0.000    0.000    0.000 
#
# Total GULP energy -446628.582288 kJ/mol
# GULP energy per Si atom -12406.349508 kJ/mol
# Density = 1.962538 g / cm^3
# Si number density = 19.670155 Si / 1000 Ang^3
#
#
#
# Elastic Constant Matrix: (Units=GPa)
#
#
# Indices 1 2 3 4 5 6 
#
# 1 139.9249 32.3005 63.3574 -0.0006 -0.0008 0.0041
# 2 32.3005 54.1277 40.0802 -0.0021 -0.0017 0.0022
# 3 63.3574 40.0802 141.1263 -0.0167 0.0086 0.0042
# 4 -0.0006 -0.0021 -0.0167 31.4797 0.0015 0.0016
# 5 -0.0008 -0.0017 0.0086 0.0015 41.4668 -0.0042
# 6 0.0041 0.0022 0.0042 0.0016 -0.0042 3.6714
#
#
#
# Elastic Compliance Matrix: (Units=1/GPa)
#
#
# Indices 1 2 3 4 5 6 
#
# 1 0.009373 -0.003137 -0.003317 -0.000002 0.000001 -0.000005
# 2 -0.003137 0.024445 -0.005534 -0.000001 0.000002 -0.000005
# 3 -0.003317 -0.005534 0.010147 0.000005 -0.000002 -0.000005
# 4 -0.000002 -0.000001 0.000005 0.031767 -0.000001 -0.000014
# 5 0.000001 0.000002 -0.000002 -0.000001 0.024116 0.000028
# 6 -0.000005 -0.000005 -0.000005 -0.000014 0.000028 0.272373
#
#
# Mechanical properties :
#
#
# Convention : Reuss Voigt Hill
#
# Bulk Modulus (GPa) = 50.02971 67.40612 58.71792
# Shear Modulus (GPa) = 12.41133 28.61964 20.51548
#
# Velocity S-wave (km/s) = 2.51464 3.81856 3.23302
# Velocity P-wave (km/s) = 5.82415 7.33379 6.62213
#
# Compressibility (1/GPa) = 0.01998812
#
# Stress axis : x y z
#
# Youngs Moduli (GPa) = 106.69267 40.90876 98.55523
#
# Poissons Ratio (x) = 0.12833 0.32689
# Poissons Ratio (y) = 0.33470 0.54540
# Poissons Ratio (z) = 0.35388 0.22639
#
# Static dielectric constant tensor:
#      x y z
#    x 3.737750 -0.000010 0.000010 
#    y -0.000010 3.387360 -0.000010 
#    z 0.000010 -0.000010 3.788750 
# 
# 
# High freq. dielectric constant tensor:
#      x y z
#    x 1.775840 0.000000 0.000000 
#    y 0.000000 1.753120 0.000000 
#    z 0.000000 0.000000 1.786220 
# 
# From -- ./inp_files/6233.got.cif
#   From: 2010.06.25/outbox.cif.g09.slc.cpg/sg71_4_cif.got.tgz:6233.got - 2010.06.28 04:59:45.
