data_PCOD8291514
_publ_section_title
;
Structure prediction by ZEFSAII (Michael W. Deem and Ramdas Pophale) SiO2 
 PCOD8291514
Probable space group: I M M M
;
_chemical_formula_sum "Si O2"
_cell_formula_units_Z 96
_cell_length_a 11.899070
_cell_length_b 23.957277
_cell_length_c 17.681107
_cell_angle_alpha 90.000000
_cell_angle_beta 90.000000
_cell_angle_gamma 90.000000
_cell_volume 5040.341079
_symmetry_space_group_name_H-M "I M M M"
_symmetry_group_IT_number 71
_symmetry_cell_setting 'orthorhombic'
loop_
_space_group_symop_operation_xyz
x,y,z
-x,-y,z
x,-y,-z
-x,y,-z
-x,-y,-z
x,y,-z
-x,y,z
x,-y,z
1/2+x,1/2+y,1/2+z
1/2-x,1/2-y,1/2+z
1/2+x,1/2-y,1/2-z
1/2-x,1/2+y,1/2-z
1/2-x,1/2-y,1/2-z
1/2+x,1/2+y,1/2-z
1/2-x,1/2+y,1/2+z
1/2+x,1/2-y,1/2+z
loop_
_atom_site_type_symbol
_atom_site_label
_atom_site_fract_x
_atom_site_fract_y
_atom_site_fract_z
Si Si1 0.000000 0.128904 0.586726
Si Si2 0.871768 0.749078 0.839382
Si Si3 0.126017 0.711187 0.000000
Si Si4 0.710649 0.560896 0.865444
Si Si5 0.127501 0.562298 0.271297
Si Si6 0.871775 0.419712 0.000000
Si Si7 0.500000 0.239169 0.912072
Si Si8 0.672170 0.818936 0.806082
O O1 0.886725 0.106214 0.624961
O O2 0.000000 0.194586 0.595267
O O3 0.000000 0.109186 0.500000
O O4 0.803695 0.803303 0.811275
O O5 0.866441 0.697934 0.779105
O O6 0.000000 0.767987 0.847855
O O7 0.818481 0.731533 0.921183
O O8 0.131192 0.645827 0.000000
O O9 0.000000 0.733555 0.000000
O O10 0.652676 0.500000 0.861195
O O11 0.778675 0.574281 0.790374
O O12 0.805761 0.558127 0.928442
O O13 0.145847 0.500000 0.308335
O O14 0.147144 0.615770 0.325940
O O15 0.000000 0.564988 0.239209
O O16 0.000000 0.442229 0.000000
O O17 0.390610 0.216630 0.869779
O O18 0.500000 0.220823 0.000000
#
# Coordination Sequence:
#
# PCOD8291514 Si02
#       8
#     8  16   8  16  16   8   8  16
#     4  11  25  40  55  77 121 160 195 242 295 348
#     4  10  21  35  57  87 119 155 192 237 290 350
#     4   9  20  35  53  83 119 153 189 238 294 343
#     4  11  23  36  55  77 108 158 204 239 284 343
#     4  10  21  39  59  81 111 147 193 247 300 347
#     4  11  21  31  51  78 112 146 196 250 284 334
#     4  11  26  41  61  94 118 153 194 243 305 360
#     4  11  22  38  62  85 117 153 192 238 297 362
#
# _framework density 19.046330000000001
#
# number of rings (size 3 to 8) (size 9 to 14) (size 15 to 20)
#    0.000    1.500    2.500    2.000    8.167    3.000 
#    0.000    0.000    0.000    1.000    0.000    0.000 
#    0.000    2.000    0.000    0.000    0.000    0.000 
#
# Total GULP energy -594763.827111 kJ/mol
# GULP energy per Si atom -12390.913065 kJ/mol
# Density = 1.900298 g / cm^3
# Si number density = 19.046330 Si / 1000 Ang^3
#
#
#
# Elastic Constant Matrix: (Units=GPa)
#
#
# Indices 1 2 3 4 5 6 
#
# 1 100.1033 51.7118 26.5929 0.0000 0.0000 0.0000
# 2 51.7118 126.7985 36.9875 0.0001 0.0000 0.0000
# 3 26.5929 36.9875 93.9305 0.0001 0.0000 0.0000
# 4 0.0000 0.0001 0.0001 23.4596 0.0000 0.0000
# 5 0.0000 0.0000 0.0000 0.0000 13.8828 0.0000
# 6 0.0000 0.0000 0.0000 0.0000 0.0000 37.7232
#
#
#
# Elastic Compliance Matrix: (Units=1/GPa)
#
#
# Indices 1 2 3 4 5 6 
#
# 1 0.012916 -0.004746 -0.001788 0.000000 0.000000 0.000000
# 2 -0.004746 0.010654 -0.002852 0.000000 0.000000 0.000000
# 3 -0.001788 -0.002852 0.012275 0.000000 0.000000 0.000000
# 4 0.000000 0.000000 0.000000 0.042626 0.000000 0.000000
# 5 0.000000 0.000000 0.000000 0.000000 0.072032 0.000000
# 6 0.000000 0.000000 0.000000 0.000000 0.000000 0.026509
#
#
# Mechanical properties :
#
#
# Convention : Reuss Voigt Hill
#
# Bulk Modulus (GPa) = 58.56721 61.26852 59.91787
# Shear Modulus (GPa) = 24.81694 28.71580 26.76637
#
# Velocity S-wave (km/s) = 3.61359 3.88710 3.75284
# Velocity P-wave (km/s) = 6.94459 7.23768 7.09265
#
# Compressibility (1/GPa) = 0.01707440
#
# Stress axis : x y z
#
# Youngs Moduli (GPa) = 77.42089 93.86199 81.46492
#
# Poissons Ratio (x) = 0.44548 0.14565
# Poissons Ratio (y) = 0.36745 0.23230
# Poissons Ratio (z) = 0.13842 0.26765
#
# Static dielectric constant tensor:
#      x y z
#    x 3.607040 0.000000 0.000000 
#    y 0.000000 3.554810 0.000000 
#    z 0.000000 0.000000 3.497000 
# 
# 
# High freq. dielectric constant tensor:
#      x y z
#    x 1.751200 0.000000 0.000000 
#    y 0.000000 1.740190 0.000000 
#    z 0.000000 0.000000 1.711630 
# 
# From -- ./inp_files/43614.got.cif
#   From: 2010.06.25/outbox.cif.g09.slc.cpg/sg71_22_cif.got.tgz:43614.got - 2010.06.28 04:59:45.
