data_PCOD8291670
_publ_section_title
;
Structure prediction by ZEFSAII (Michael W. Deem and Ramdas Pophale) SiO2 
 PCOD8291670
Probable space group: I M M M
;
_chemical_formula_sum "Si O2"
_cell_formula_units_Z 104
_cell_length_a 26.908300
_cell_length_b 21.544267
_cell_length_c 9.114690
_cell_angle_alpha 90.000000
_cell_angle_beta 90.000000
_cell_angle_gamma 90.000000
_cell_volume 5283.964438
_symmetry_space_group_name_H-M "I M M M"
_symmetry_group_IT_number 71
_symmetry_cell_setting 'orthorhombic'
loop_
_space_group_symop_operation_xyz
x,y,z
-x,-y,z
x,-y,-z
-x,y,-z
-x,-y,-z
x,y,-z
-x,y,z
x,-y,z
1/2+x,1/2+y,1/2+z
1/2-x,1/2-y,1/2+z
1/2+x,1/2-y,1/2-z
1/2-x,1/2+y,1/2-z
1/2-x,1/2-y,1/2-z
1/2+x,1/2+y,1/2-z
1/2-x,1/2+y,1/2+z
1/2+x,1/2-y,1/2+z
loop_
_atom_site_type_symbol
_atom_site_label
_atom_site_fract_x
_atom_site_fract_y
_atom_site_fract_z
Si Si1 0.441195 0.131164 0.663308
Si Si2 0.726871 0.570932 0.827766
Si Si3 0.882466 0.275898 0.331028
Si Si4 0.443716 0.345492 0.830309
Si Si5 0.626551 0.572634 0.336765
Si Si6 0.946296 0.500000 0.827646
Si Si7 0.281773 0.196431 0.673389
O O1 0.422192 0.151276 0.500000
O O2 0.500000 0.124215 0.658890
O O3 0.427019 0.178231 0.790664
O O4 0.417366 0.063993 0.709991
O O5 0.743539 0.500000 0.779729
O O6 0.675415 0.591035 0.753635
O O7 0.765774 0.625488 0.783618
O O8 0.717458 0.571565 0.000000
O O9 0.866488 0.283288 0.500000
O O10 0.904152 0.208444 0.298276
O O11 0.837727 0.293287 0.224507
O O12 0.500000 0.327988 0.780529
O O13 0.423855 0.403177 0.737787
O O14 0.443819 0.363699 0.000000
O O15 0.631898 0.600718 0.500000
O O16 0.620316 0.500000 0.343545
O O17 0.000000 0.500000 0.747030
O O18 0.955589 0.500000 0.000000
O O19 0.277087 0.205709 0.500000
O O20 0.250000 0.250000 0.750000
#
# Coordination Sequence:
#
# PCOD8291670 Si02
#       7
#    16  16  16  16  16   8  16
#     4   9  17  32  55  80 106 140 183 227 272 324
#     4   9  19  38  62  85 111 148 192 233 276 334
#     4  11  23  38  55  79 112 147 185 230 282 333
#     4  10  22  39  57  78 108 150 195 233 271 324
#     4  10  21  36  57  87 118 145 176 222 281 338
#     4   7  12  26  49  75 101 133 175 219 261 311
#     4  11  23  39  60  85 113 145 187 236 287 341
#
# _framework density 19.682192000000001
#
# number of rings (size 3 to 8) (size 9 to 14) (size 15 to 20)
#    0.000    2.231    0.000    3.692    0.000    8.615 
#    1.385    1.923    0.000    1.385    0.000    0.000 
#    0.000    0.000    0.000    0.000    0.000    0.000 
#
# Total GULP energy -644378.527269 kJ/mol
# GULP energy per Si atom -12391.894755 kJ/mol
# Density = 1.963739 g / cm^3
# Si number density = 19.682192 Si / 1000 Ang^3
#
#
#
# Elastic Constant Matrix: (Units=GPa)
#
#
# Indices 1 2 3 4 5 6 
#
# 1 90.7865 42.8426 44.3248 0.0000 0.0000 0.0000
# 2 42.8426 70.7846 40.5444 0.0000 0.0000 0.0000
# 3 44.3248 40.5444 57.8886 0.0000 0.0000 0.0000
# 4 0.0000 0.0000 0.0000 29.5175 0.0000 0.0000
# 5 0.0000 0.0000 0.0000 0.0000 32.5390 0.0000
# 6 0.0000 0.0000 0.0000 0.0000 0.0000 22.4734
#
#
#
# Elastic Compliance Matrix: (Units=1/GPa)
#
#
# Indices 1 2 3 4 5 6 
#
# 1 0.018669 -0.005196 -0.010656 0.000000 0.000000 0.000000
# 2 -0.005196 0.025038 -0.013557 0.000000 0.000000 0.000000
# 3 -0.010656 -0.013557 0.034929 0.000000 0.000000 0.000000
# 4 0.000000 0.000000 0.000000 0.033878 0.000000 0.000000
# 5 0.000000 0.000000 0.000000 0.000000 0.030732 0.000000
# 6 0.000000 0.000000 0.000000 0.000000 0.000000 0.044497
#
#
# Mechanical properties :
#
#
# Convention : Reuss Voigt Hill
#
# Bulk Modulus (GPa) = 50.46033 52.76481 51.61257
# Shear Modulus (GPa) = 19.74969 23.02252 21.38611
#
# Velocity S-wave (km/s) = 3.17113 3.42382 3.29989
# Velocity P-wave (km/s) = 6.25310 6.51894 6.38741
#
# Compressibility (1/GPa) = 0.01981755
#
# Stress axis : x y z
#
# Youngs Moduli (GPa) = 53.56347 39.93931 28.62957
#
# Poissons Ratio (x) = 0.20754 0.30506
# Poissons Ratio (y) = 0.27834 0.38814
# Poissons Ratio (z) = 0.57075 0.54148
#
# Static dielectric constant tensor:
#      x y z
#    x 4.426300 0.000000 0.000000 
#    y 0.000000 4.071620 0.000000 
#    z 0.000000 0.000000 3.603990 
# 
# 
# High freq. dielectric constant tensor:
#      x y z
#    x 1.752860 0.000000 0.000000 
#    y 0.000000 1.781560 0.000000 
#    z 0.000000 0.000000 1.757730 
# 
# From -- ./inp_files/14975.got.cif
#   From: 2010.06.25/outbox.cif.g09.slc.cpg/sg71_8_cif.got.tgz:14975.got - 2010.06.28 04:59:45.
