data_PCOD8291082
_publ_section_title
;
Structure prediction by ZEFSAII (Michael W. Deem and Ramdas Pophale) SiO2 
 PCOD8291082
Probable space group: I M M M
;
_chemical_formula_sum "Si O2"
_cell_formula_units_Z 104
_cell_length_a 22.177631
_cell_length_b 7.703962
_cell_length_c 28.339994
_cell_angle_alpha 90.000000
_cell_angle_beta 90.000000
_cell_angle_gamma 90.000000
_cell_volume 4842.047429
_symmetry_space_group_name_H-M "I M M M"
_symmetry_group_IT_number 71
_symmetry_cell_setting 'orthorhombic'
loop_
_space_group_symop_operation_xyz
x,y,z
-x,-y,z
x,-y,-z
-x,y,-z
-x,-y,-z
x,y,-z
-x,y,z
x,-y,z
1/2+x,1/2+y,1/2+z
1/2-x,1/2-y,1/2+z
1/2+x,1/2-y,1/2-z
1/2-x,1/2+y,1/2-z
1/2-x,1/2-y,1/2-z
1/2+x,1/2+y,1/2-z
1/2-x,1/2+y,1/2+z
1/2+x,1/2-y,1/2+z
loop_
_atom_site_type_symbol
_atom_site_label
_atom_site_fract_x
_atom_site_fract_y
_atom_site_fract_z
Si Si1 0.677145 0.297626 0.447297
Si Si2 0.933173 0.706614 0.719536
Si Si3 0.746594 0.696975 0.137457
Si Si4 0.644745 0.195960 0.302806
Si Si5 0.071140 0.000000 0.555595
Si Si6 0.883935 0.696919 0.620325
Si Si7 0.067235 0.798774 0.886638
O O1 0.686244 0.226881 0.500000
O O2 0.693191 0.500000 0.443698
O O3 0.721783 0.193642 0.413484
O O4 0.607826 0.263618 0.432672
O O5 0.931126 0.500000 0.723743
O O6 0.882889 0.786494 0.755616
O O7 0.919811 0.764141 0.666158
O O8 0.000000 0.775576 0.732890
O O9 0.729752 0.500000 0.150802
O O10 0.793380 0.781412 0.176200
O O11 0.686328 0.809025 0.134404
O O12 0.592869 0.194769 0.342195
O O13 0.661953 0.000000 0.290564
O O14 0.101201 0.173004 0.577560
O O15 0.085170 0.000000 0.500000
O O16 0.000000 0.000000 0.565526
O O17 0.902966 0.500000 0.606137
O O18 0.000000 0.733367 0.898075
O O19 0.068412 0.000000 0.872629
#
# Coordination Sequence:
#
# PCOD8291082 Si02
#       7
#    16  16  16  16   8  16  16
#     4   9  18  32  50  72 100 142 194 247 305 365
#     4   9  18  34  58  88 120 157 204 253 303 365
#     4  10  20  36  56  83 120 158 201 253 307 363
#     4   9  18  33  55  81 114 158 203 246 298 358
#     4  11  26  48  72 100 132 162 201 257 314 374
#     4  11  23  42  68  96 127 166 204 250 309 370
#     4   9  17  29  45  70 106 144 189 245 300 357
#
# _framework density 21.478517
#
# number of rings (size 3 to 8) (size 9 to 14) (size 15 to 20)
#    0.000    2.385    0.769    1.385    0.000    4.615 
#    1.385    2.308    0.000    0.000    0.000    4.308 
#    0.000    0.000    0.000    0.000    0.000    0.000 
#
# Total GULP energy -644536.232966 kJ/mol
# GULP energy per Si atom -12394.927557 kJ/mol
# Density = 2.142963 g / cm^3
# Si number density = 21.478517 Si / 1000 Ang^3
#
#
#
# Elastic Constant Matrix: (Units=GPa)
#
#
# Indices 1 2 3 4 5 6 
#
# 1 123.5497 16.9916 42.8220 0.0000 0.0000 0.0000
# 2 16.9916 59.1152 30.0292 0.0000 0.0000 0.0000
# 3 42.8220 30.0292 129.4420 0.0000 0.0000 0.0000
# 4 0.0000 0.0000 0.0000 20.1597 0.0000 0.0000
# 5 0.0000 0.0000 0.0000 0.0000 27.2099 0.0000
# 6 0.0000 0.0000 0.0000 0.0000 0.0000 13.7009
#
#
#
# Elastic Compliance Matrix: (Units=1/GPa)
#
#
# Indices 1 2 3 4 5 6 
#
# 1 0.009223 -0.001248 -0.002762 0.000000 0.000000 0.000000
# 2 -0.001248 0.019345 -0.004075 0.000000 0.000000 0.000000
# 3 -0.002762 -0.004075 0.009584 0.000000 0.000000 0.000000
# 4 0.000000 0.000000 0.000000 0.049604 0.000000 0.000000
# 5 0.000000 0.000000 0.000000 0.000000 0.036751 0.000000
# 6 0.000000 0.000000 0.000000 0.000000 0.000000 0.072988
#
#
# Mechanical properties :
#
#
# Convention : Reuss Voigt Hill
#
# Bulk Modulus (GPa) = 45.48999 54.64361 50.06680
# Shear Modulus (GPa) = 22.62528 27.03170 24.82849
#
# Velocity S-wave (km/s) = 3.24912 3.55145 3.40364
# Velocity P-wave (km/s) = 5.94146 6.50487 6.22954
#
# Compressibility (1/GPa) = 0.02198286
#
# Stress axis : x y z
#
# Youngs Moduli (GPa) = 108.42818 51.69335 104.33656
#
# Poissons Ratio (x) = 0.06452 0.28813
# Poissons Ratio (y) = 0.13533 0.42516
# Poissons Ratio (z) = 0.29942 0.21065
#
# Static dielectric constant tensor:
#      x y z
#    x 4.005370 0.000000 0.000000 
#    y 0.000000 3.569630 0.000000 
#    z 0.000000 0.000000 3.876680 
# 
# 
# High freq. dielectric constant tensor:
#      x y z
#    x 1.847010 0.000000 0.000000 
#    y 0.000000 1.822140 0.000000 
#    z 0.000000 0.000000 1.832500 
# 
# From -- ./inp_files/66440.got.cif
#   From: 2010.06.25/outbox.cif.g09.slc.cpg/sg71_34_cif.got.tgz:66440.got - 2010.06.28 04:59:45.
