data_PCOD8291667
_publ_section_title
;
Structure prediction by ZEFSAII (Michael W. Deem and Ramdas Pophale) SiO2 
 PCOD8291667
Probable space group: I M M M
;
_chemical_formula_sum "Si O2"
_cell_formula_units_Z 104
_cell_length_a 18.555830
_cell_length_b 14.424662
_cell_length_c 19.019367
_cell_angle_alpha 90.000000
_cell_angle_beta 90.000000
_cell_angle_gamma 90.000000
_cell_volume 5090.753743
_symmetry_space_group_name_H-M "I M M M"
_symmetry_group_IT_number 71
_symmetry_cell_setting 'orthorhombic'
loop_
_space_group_symop_operation_xyz
x,y,z
-x,-y,z
x,-y,-z
-x,y,-z
-x,-y,-z
x,y,-z
-x,y,z
x,-y,z
1/2+x,1/2+y,1/2+z
1/2-x,1/2-y,1/2+z
1/2+x,1/2-y,1/2-z
1/2-x,1/2+y,1/2-z
1/2-x,1/2-y,1/2-z
1/2+x,1/2+y,1/2-z
1/2-x,1/2+y,1/2+z
1/2+x,1/2-y,1/2+z
loop_
_atom_site_type_symbol
_atom_site_label
_atom_site_fract_x
_atom_site_fract_y
_atom_site_fract_z
Si Si1 0.301944 0.393715 0.197380
Si Si2 0.914759 0.103571 0.500000
Si Si3 0.416491 0.281134 0.865606
Si Si4 0.346644 0.894636 0.081492
Si Si5 0.417671 0.734373 0.419481
Si Si6 0.198236 0.894643 0.144329
Si Si7 0.810633 0.393555 0.079319
O O1 0.324203 0.500000 0.181555
O O2 0.371870 0.327032 0.197467
O O3 0.271580 0.382828 0.276176
O O4 0.245018 0.358368 0.138938
O O5 0.888973 0.160470 0.567277
O O6 0.000000 0.095383 0.500000
O O7 0.880080 0.000000 0.500000
O O8 0.500000 0.293723 0.849362
O O9 0.399772 0.172488 0.875604
O O10 0.263703 0.864792 0.093443
O O11 0.359021 0.000000 0.108333
O O12 0.365849 0.886023 0.000000
O O13 0.414176 0.699885 0.500000
O O14 0.500000 0.737117 0.392470
O O15 0.372255 0.665154 0.371069
O O16 0.384548 0.837021 0.412541
O O17 0.175229 0.000000 0.130046
O O18 0.830704 0.500000 0.093109
O O19 0.778194 0.379850 0.000000
#
# Coordination Sequence:
#
# PCOD8291667 Si02
#       7
#    16   8  16  16  16  16  16
#     4  10  22  38  58  83 112 148 189 234 281 333
#     4   9  18  32  49  73 107 143 177 216 264 320
#     4  11  22  35  54  82 114 150 187 227 279 333
#     4  10  21  38  60  83 110 148 193 238 281 329
#     4  10  21  36  57  86 116 145 180 227 282 338
#     4  10  22  40  59  81 110 146 189 236 285 334
#     4   9  19  36  58  84 113 146 185 227 273 330
#
# _framework density 20.429196000000001
#
# number of rings (size 3 to 8) (size 9 to 14) (size 15 to 20)
#    0.000    2.077    0.769    1.846    1.077    7.077 
#    0.000    4.615    0.000    0.000    0.000    6.462 
#    0.000    0.000    0.000    0.000    0.000    0.000 
#
# Total GULP energy -644845.719979 kJ/mol
# GULP energy per Si atom -12400.879230 kJ/mol
# Density = 2.038270 g / cm^3
# Si number density = 20.429196 Si / 1000 Ang^3
#
#
#
# Elastic Constant Matrix: (Units=GPa)
#
#
# Indices 1 2 3 4 5 6 
#
# 1 80.3907 30.9808 17.9453 0.0000 0.0000 0.0000
# 2 30.9808 87.3446 21.3353 0.0000 0.0000 0.0000
# 3 17.9453 21.3353 56.3320 0.0000 0.0000 0.0000
# 4 0.0000 0.0000 0.0000 26.4584 0.0000 0.0000
# 5 0.0000 0.0000 0.0000 0.0000 19.3574 0.0000
# 6 0.0000 0.0000 0.0000 0.0000 0.0000 29.9024
#
#
#
# Elastic Compliance Matrix: (Units=1/GPa)
#
#
# Indices 1 2 3 4 5 6 
#
# 1 0.014860 -0.004534 -0.003017 0.000000 0.000000 0.000000
# 2 -0.004534 0.013999 -0.003858 0.000000 0.000000 0.000000
# 3 -0.003017 -0.003858 0.020174 0.000000 0.000000 0.000000
# 4 0.000000 0.000000 0.000000 0.037795 0.000000 0.000000
# 5 0.000000 0.000000 0.000000 0.000000 0.051660 0.000000
# 6 0.000000 0.000000 0.000000 0.000000 0.000000 0.033442
#
#
# Mechanical properties :
#
#
# Convention : Reuss Voigt Hill
#
# Bulk Modulus (GPa) = 38.14381 40.51004 39.32693
# Shear Modulus (GPa) = 24.57172 25.39737 24.98454
#
# Velocity S-wave (km/s) = 3.47187 3.52971 3.50091
# Velocity P-wave (km/s) = 5.89776 6.04023 5.96942
#
# Compressibility (1/GPa) = 0.02621657
#
# Stress axis : x y z
#
# Youngs Moduli (GPa) = 67.29519 71.43168 49.56869
#
# Poissons Ratio (x) = 0.32386 0.14953
# Poissons Ratio (y) = 0.30511 0.19123
# Poissons Ratio (z) = 0.20301 0.27557
#
# Static dielectric constant tensor:
#      x y z
#    x 3.444660 0.000000 0.000000 
#    y 0.000000 3.814180 0.000000 
#    z 0.000000 0.000000 3.662680 
# 
# 
# High freq. dielectric constant tensor:
#      x y z
#    x 1.780170 0.000000 0.000000 
#    y 0.000000 1.809610 0.000000 
#    z 0.000000 0.000000 1.789390 
# 
# From -- ./inp_files/54142.got.cif
#   From: 2010.06.25/outbox.cif.g09.slc.cpg/sg71_28_cif.got.tgz:54142.got - 2010.06.28 04:59:45.
