data_PCOD8291816
_publ_section_title
;
Structure prediction by ZEFSAII (Michael W. Deem and Ramdas Pophale) SiO2 
 PCOD8291816
Probable space group: I M M M
;
_chemical_formula_sum "Si O2"
_cell_formula_units_Z 104
_cell_length_a 23.019566
_cell_length_b 24.964170
_cell_length_c 8.915057
_cell_angle_alpha 90.000000
_cell_angle_beta 90.000000
_cell_angle_gamma 90.000000
_cell_volume 5123.165516
_symmetry_space_group_name_H-M "I M M M"
_symmetry_group_IT_number 71
_symmetry_cell_setting 'orthorhombic'
loop_
_space_group_symop_operation_xyz
x,y,z
-x,-y,z
x,-y,-z
-x,y,-z
-x,-y,-z
x,y,-z
-x,y,z
x,-y,z
1/2+x,1/2+y,1/2+z
1/2-x,1/2-y,1/2+z
1/2+x,1/2-y,1/2-z
1/2-x,1/2+y,1/2-z
1/2-x,1/2-y,1/2-z
1/2+x,1/2+y,1/2-z
1/2-x,1/2+y,1/2+z
1/2+x,1/2-y,1/2+z
loop_
_atom_site_type_symbol
_atom_site_label
_atom_site_fract_x
_atom_site_fract_y
_atom_site_fract_z
Si Si1 0.568905 0.000000 0.178430
Si Si2 0.150365 0.589017 0.178214
Si Si3 0.000000 0.752550 0.180811
Si Si4 0.608791 0.439960 0.330686
Si Si5 0.500000 0.373574 0.679002
Si Si6 0.207899 0.789724 0.169551
Si Si7 0.219094 0.902345 0.676924
Si Si8 0.613389 0.203589 0.669789
O O1 0.602502 0.948033 0.241914
O O2 0.500000 0.000000 0.225975
O O3 0.573875 0.000000 0.000000
O O4 0.217119 0.574693 0.223384
O O5 0.142540 0.650319 0.239697
O O6 0.142184 0.582603 0.000000
O O7 0.053203 0.718716 0.248765
O O8 0.000000 0.813262 0.241068
O O9 0.000000 0.754956 0.000000
O O10 0.623931 0.420954 0.500000
O O11 0.584003 0.500000 0.330736
O O12 0.558520 0.402399 0.260309
O O13 0.668103 0.440574 0.234771
O O14 0.500000 0.377793 0.500000
O O15 0.250000 0.750000 0.250000
O O16 0.204907 0.844646 0.256641
O O17 0.147062 0.759480 0.175919
O O18 0.228247 0.800476 0.000000
O O19 0.216854 0.896915 0.500000
O O20 0.601650 0.186580 0.500000
#
# Coordination Sequence:
#
# PCOD8291816 Si02
#       8
#     8  16   8  16   8  16  16  16
#     4  11  27  47  65  89 121 154 197 254 317 371
#     4  10  22  41  63  88 118 157 204 248 296 360
#     4   9  16  27  52  85 115 146 183 236 289 336
#     4  10  21  37  60  88 117 157 208 255 305 366
#     4   9  17  34  58  88 123 157 196 246 301 358
#     4  11  20  35  57  85 122 159 196 241 295 356
#     4  11  23  39  58  87 125 162 202 252 305 359
#     4   9  18  33  55  87 119 147 189 240 287 344
#
# _framework density 20.299949000000002
#
# number of rings (size 3 to 8) (size 9 to 14) (size 15 to 20)
#    0.000    1.923    1.538    2.308    2.154    5.538 
#    0.000    0.385    0.000    0.923    0.000    0.000 
#    0.000    0.000    0.000    0.000    0.000    0.000 
#
# Total GULP energy -644415.797150 kJ/mol
# GULP energy per Si atom -12392.611484 kJ/mol
# Density = 2.025375 g / cm^3
# Si number density = 20.299949 Si / 1000 Ang^3
#
#
#
# Elastic Constant Matrix: (Units=GPa)
#
#
# Indices 1 2 3 4 5 6 
#
# 1 158.4133 41.8853 40.8027 0.0000 0.0000 0.0000
# 2 41.8853 90.1745 20.0015 0.0000 0.0000 0.0000
# 3 40.8027 20.0015 58.7621 0.0000 0.0000 0.0000
# 4 0.0000 0.0000 0.0000 27.2166 0.0000 0.0000
# 5 0.0000 0.0000 0.0000 0.0000 26.1683 0.0000
# 6 0.0000 0.0000 0.0000 0.0000 0.0000 34.8060
#
#
#
# Elastic Compliance Matrix: (Units=1/GPa)
#
#
# Indices 1 2 3 4 5 6 
#
# 1 0.008286 -0.002783 -0.004807 0.000000 0.000000 0.000000
# 2 -0.002783 0.012930 -0.002469 0.000000 0.000000 0.000000
# 3 -0.004807 -0.002469 0.021196 0.000000 0.000000 0.000000
# 4 0.000000 0.000000 0.000000 0.036742 0.000000 0.000000
# 5 0.000000 0.000000 0.000000 0.000000 0.038214 0.000000
# 6 0.000000 0.000000 0.000000 0.000000 0.000000 0.028731
#
#
# Mechanical properties :
#
#
# Convention : Reuss Voigt Hill
#
# Bulk Modulus (GPa) = 44.85212 56.96987 50.91100
# Shear Modulus (GPa) = 28.79399 31.28221 30.03810
#
# Velocity S-wave (km/s) = 3.77029 3.92982 3.85088
# Velocity P-wave (km/s) = 6.41062 6.97970 6.70121
#
# Compressibility (1/GPa) = 0.02229549
#
# Stress axis : x y z
#
# Youngs Moduli (GPa) = 120.67900 77.34076 47.17939
#
# Poissons Ratio (x) = 0.21523 0.22677
# Poissons Ratio (y) = 0.33583 0.11647
# Poissons Ratio (z) = 0.58006 0.19094
#
# Static dielectric constant tensor:
#      x y z
#    x 3.903940 0.000000 0.000000 
#    y 0.000000 3.584740 0.000000 
#    z 0.000000 0.000000 5.009220 
# 
# 
# High freq. dielectric constant tensor:
#      x y z
#    x 1.808230 0.000000 0.000000 
#    y 0.000000 1.804250 0.000000 
#    z 0.000000 0.000000 1.751300 
# 
# From -- ./inp_files/11219.got.cif
#   From: 2010.06.25/outbox.cif.g09.slc.cpg/sg71_6_cif.got.tgz:11219.got - 2010.06.28 04:59:45.
