data_PCOD8291139
_publ_section_title
;
Structure prediction by ZEFSAII (Michael W. Deem and Ramdas Pophale) SiO2 
 PCOD8291139
Probable space group: I M M M
;
_chemical_formula_sum "Si O2"
_cell_formula_units_Z 120
_cell_length_a 13.931105
_cell_length_b 31.996190
_cell_length_c 14.270254
_cell_angle_alpha 90.000000
_cell_angle_beta 90.000000
_cell_angle_gamma 90.000000
_cell_volume 6360.855590
_symmetry_space_group_name_H-M "I M M M"
_symmetry_group_IT_number 71
_symmetry_cell_setting 'orthorhombic'
loop_
_space_group_symop_operation_xyz
x,y,z
-x,-y,z
x,-y,-z
-x,y,-z
-x,-y,-z
x,y,-z
-x,y,z
x,-y,z
1/2+x,1/2+y,1/2+z
1/2-x,1/2-y,1/2+z
1/2+x,1/2-y,1/2-z
1/2-x,1/2+y,1/2-z
1/2-x,1/2-y,1/2-z
1/2+x,1/2+y,1/2-z
1/2-x,1/2+y,1/2+z
1/2+x,1/2-y,1/2+z
loop_
_atom_site_type_symbol
_atom_site_label
_atom_site_fract_x
_atom_site_fract_y
_atom_site_fract_z
Si Si1 0.108190 0.837605 0.106218
Si Si2 0.111042 0.451467 0.732082
Si Si3 0.388728 0.719360 0.220709
Si Si4 0.247704 0.568698 0.892888
Si Si5 0.201566 0.382151 0.391774
Si Si6 0.887323 0.313534 0.734833
Si Si7 0.106145 0.000000 0.610896
Si Si8 0.249538 0.664074 0.893209
O O1 0.130950 0.799397 0.175999
O O2 0.184120 0.875004 0.123848
O O3 0.000000 0.854921 0.122957
O O4 0.119488 0.820437 0.000000
O O5 0.122311 0.500000 0.706238
O O6 0.151920 0.441675 0.834863
O O7 0.171181 0.425174 0.656614
O O8 0.000000 0.437600 0.730345
O O9 0.500000 0.718274 0.194659
O O10 0.349154 0.766607 0.217416
O O11 0.336116 0.692627 0.141875
O O12 0.336156 0.540914 0.855399
O O13 0.282028 0.616194 0.881850
O O14 0.222052 0.557664 0.000000
O O15 0.174031 0.385529 0.500000
O O16 0.145076 0.342523 0.350594
O O17 0.845919 0.329754 0.832796
O O18 0.000000 0.314555 0.745489
O O19 0.095757 0.000000 0.500000
O O20 0.000000 0.000000 0.657003
O O21 0.225273 0.675429 0.000000
#
# Coordination Sequence:
#
# PCOD8291139 Si02
#       8
#    16  16  16  16  16  16   8  16
#     4   9  18  35  62  91 116 150 195 240 288 341
#     4  11  23  39  61  85 115 152 191 238 288 342
#     4  10  21  38  58  83 118 154 196 245 289 344
#     4  10  20  36  58  86 119 153 193 234 282 347
#     4  11  23  40  63  86 113 149 192 243 294 348
#     4  11  23  39  58  82 115 156 201 244 291 341
#     4   9  18  34  57  85 118 153 191 235 279 337
#     4  11  23  37  57  85 120 157 192 236 292 349
#
# _framework density 18.865386999999998
#
# number of rings (size 3 to 8) (size 9 to 14) (size 15 to 20)
#    0.000    1.667    3.333    0.800    0.000    3.733 
#    0.000    7.333    0.000    0.000    0.000    1.867 
#    0.000    0.000    0.000    0.000    0.000    0.000 
#
# Total GULP energy -744097.811580 kJ/mol
# GULP energy per Si atom -12401.630193 kJ/mol
# Density = 1.882245 g / cm^3
# Si number density = 18.865387 Si / 1000 Ang^3
#
#
#
# Elastic Constant Matrix: (Units=GPa)
#
#
# Indices 1 2 3 4 5 6 
#
# 1 91.5536 58.0348 54.5694 -0.0001 0.0004 0.0000
# 2 58.0348 132.3635 60.4237 -0.0001 0.0002 0.0000
# 3 54.5694 60.4237 115.5906 -0.0021 0.0034 0.0007
# 4 -0.0001 -0.0001 -0.0021 22.1464 0.0017 0.0002
# 5 0.0004 0.0002 0.0034 0.0017 26.4029 -0.0001
# 6 0.0000 0.0000 0.0007 0.0002 -0.0001 29.0816
#
#
#
# Elastic Compliance Matrix: (Units=1/GPa)
#
#
# Indices 1 2 3 4 5 6 
#
# 1 0.017497 -0.005124 -0.005582 0.000000 0.000000 0.000000
# 2 -0.005124 0.011423 -0.003553 0.000000 0.000000 0.000000
# 3 -0.005582 -0.003553 0.013144 0.000001 -0.000002 0.000000
# 4 0.000000 0.000000 0.000001 0.045154 -0.000003 0.000000
# 5 0.000000 0.000000 -0.000002 -0.000003 0.037875 0.000000
# 6 0.000000 0.000000 0.000000 0.000000 0.000000 0.034386
#
#
# Mechanical properties :
#
#
# Convention : Reuss Voigt Hill
#
# Bulk Modulus (GPa) = 73.81313 76.17371 74.99342
# Shear Modulus (GPa) = 25.97253 26.62483 26.29868
#
# Velocity S-wave (km/s) = 3.71446 3.76081 3.73770
# Velocity P-wave (km/s) = 7.58995 7.70217 7.64627
#
# Compressibility (1/GPa) = 0.01354773
#
# Stress axis : x y z
#
# Youngs Moduli (GPa) = 57.15105 87.54195 76.08295
#
# Poissons Ratio (x) = 0.44852 0.42471
# Poissons Ratio (y) = 0.29282 0.27029
# Poissons Ratio (z) = 0.31903 0.31099
#
# Static dielectric constant tensor:
#      x y z
#    x 3.651310 0.000000 0.000000 
#    y 0.000000 3.602510 0.000000 
#    z 0.000000 0.000000 3.456860 
# 
# 
# High freq. dielectric constant tensor:
#      x y z
#    x 1.741260 0.000000 0.000000 
#    y 0.000000 1.734870 0.000000 
#    z 0.000000 0.000000 1.727430 
# 
# From -- ./inp_files/35459.got.cif
#   From: 2010.06.25/outbox.cif.g09.slc.cpg/sg71_18_cif.got.tgz:35459.got - 2010.06.28 04:59:45.
