data_PCOD8291583
_publ_section_title
;
Structure prediction by ZEFSAII (Michael W. Deem and Ramdas Pophale) SiO2 
 PCOD8291583
Probable space group: I M M M
;
_chemical_formula_sum "Si O2"
_cell_formula_units_Z 72
_cell_length_a 9.082755
_cell_length_b 28.547556
_cell_length_c 14.630056
_cell_angle_alpha 90.000000
_cell_angle_beta 90.000000
_cell_angle_gamma 90.000000
_cell_volume 3793.433906
_symmetry_space_group_name_H-M "I M M M"
_symmetry_group_IT_number 71
_symmetry_cell_setting 'orthorhombic'
loop_
_space_group_symop_operation_xyz
x,y,z
-x,-y,z
x,-y,-z
-x,y,-z
-x,-y,-z
x,y,-z
-x,y,z
x,-y,z
1/2+x,1/2+y,1/2+z
1/2-x,1/2-y,1/2+z
1/2+x,1/2-y,1/2-z
1/2-x,1/2+y,1/2-z
1/2-x,1/2-y,1/2-z
1/2+x,1/2+y,1/2-z
1/2-x,1/2+y,1/2+z
1/2+x,1/2-y,1/2+z
loop_
_atom_site_type_symbol
_atom_site_label
_atom_site_fract_x
_atom_site_fract_y
_atom_site_fract_z
Si Si1 0.833803 0.629502 0.600128
Si Si2 0.325705 0.200279 0.744443
Si Si3 0.174285 0.945643 0.000000
Si Si4 0.666602 0.360036 0.891840
Si Si5 0.335779 0.051331 0.391392
O O1 0.832682 0.654677 0.500000
O O2 0.769171 0.666012 0.674038
O O3 0.738407 0.581238 0.590640
O O4 0.000000 0.615376 0.628212
O O5 0.500000 0.206766 0.747785
O O6 0.250000 0.250000 0.750000
O O7 0.274479 0.178934 0.648393
O O8 0.000000 0.941336 0.000000
O O9 0.224544 0.000000 0.000000
O O10 0.500000 0.352101 0.858468
O O11 0.720163 0.410656 0.854725
O O12 0.679314 0.356739 0.000000
O O13 0.335499 0.050838 0.500000
O O14 0.500000 0.064188 0.356438
O O15 0.289218 0.000000 0.354609
#
# Coordination Sequence:
#
# PCOD8291583 Si02
#       5
#    16  16   8  16  16
#     4   8  18  37  58  81 111 146 183 227 281 344
#     4  11  23  39  59  82 109 145 189 238 290 341
#     4   9  17  31  57  91 121 147 181 231 286 339
#     4  10  21  36  54  79 113 150 187 231 278 328
#     4   8  14  27  49  75 103 137 176 218 264 315
#
# _framework density 18.980163999999998
#
# number of rings (size 3 to 8) (size 9 to 14) (size 15 to 20)
#    0.667    2.111    0.000    2.000    0.000    5.333 
#    0.000    5.556    0.000    1.333    0.000    0.000 
#    0.000    0.000    0.000    0.000    0.000    0.000 
#
# Total GULP energy -446079.010548 kJ/mol
# GULP energy per Si atom -12391.083626 kJ/mol
# Density = 1.893696 g / cm^3
# Si number density = 18.980164 Si / 1000 Ang^3
#
#
#
# Elastic Constant Matrix: (Units=GPa)
#
#
# Indices 1 2 3 4 5 6 
#
# 1 92.8127 70.7221 36.3241 0.0000 0.0000 0.0000
# 2 70.7221 161.6626 47.6668 0.0000 0.0000 0.0000
# 3 36.3241 47.6668 43.8393 0.0001 0.0000 0.0000
# 4 0.0000 0.0000 0.0001 30.6540 0.0000 0.0000
# 5 0.0000 0.0000 0.0000 0.0000 22.5577 0.0000
# 6 0.0000 0.0000 0.0000 0.0000 0.0000 39.2950
#
#
#
# Elastic Compliance Matrix: (Units=1/GPa)
#
#
# Indices 1 2 3 4 5 6 
#
# 1 0.018574 -0.005281 -0.009648 0.000000 0.000000 0.000000
# 2 -0.005281 0.010606 -0.007156 0.000000 0.000000 0.000000
# 3 -0.009648 -0.007156 0.038586 0.000000 0.000000 0.000000
# 4 0.000000 0.000000 0.000000 0.032622 0.000000 0.000000
# 5 0.000000 0.000000 0.000000 0.000000 0.044331 0.000000
# 6 0.000000 0.000000 0.000000 0.000000 0.000000 0.025449
#
#
# Mechanical properties :
#
#
# Convention : Reuss Voigt Hill
#
# Bulk Modulus (GPa) = 42.38123 67.52673 54.95398
# Shear Modulus (GPa) = 22.50179 28.07478 25.28828
#
# Velocity S-wave (km/s) = 3.44691 3.85016 3.65410
# Velocity P-wave (km/s) = 6.18217 7.44445 6.84248
#
# Compressibility (1/GPa) = 0.02359535
#
# Stress axis : x y z
#
# Youngs Moduli (GPa) = 53.83752 94.28603 25.91596
#
# Poissons Ratio (x) = 0.49791 0.25005
# Poissons Ratio (y) = 0.28431 0.18547
# Poissons Ratio (z) = 0.51944 0.67475
#
# Static dielectric constant tensor:
#      x y z
#    x 3.525620 0.000000 0.000000 
#    y 0.000000 3.043490 0.000000 
#    z 0.000000 0.000000 3.331920 
# 
# 
# High freq. dielectric constant tensor:
#      x y z
#    x 1.737910 0.000000 0.000000 
#    y 0.000000 1.735870 0.000000 
#    z 0.000000 0.000000 1.711220 
# 
# From -- ./inp_files/31666.got.cif
#   From: 2010.06.25/outbox.cif.g09.slc.cpg/sg71_16_cif.got.tgz:31666.got - 2010.06.28 04:59:45.
