data_PCOD8291923
_publ_section_title
;
Structure prediction by ZEFSAII (Michael W. Deem and Ramdas Pophale) SiO2 
 PCOD8291923
Probable space group: I M M M
;
_chemical_formula_sum "Si O2"
_cell_formula_units_Z 64
_cell_length_a 9.018901
_cell_length_b 16.321626
_cell_length_c 22.240613
_cell_angle_alpha 90.000000
_cell_angle_beta 90.000000
_cell_angle_gamma 90.000000
_cell_volume 3273.887826
_symmetry_space_group_name_H-M "I M M M"
_symmetry_group_IT_number 71
_symmetry_cell_setting 'orthorhombic'
loop_
_space_group_symop_operation_xyz
x,y,z
-x,-y,z
x,-y,-z
-x,y,-z
-x,-y,-z
x,y,-z
-x,y,z
x,-y,z
1/2+x,1/2+y,1/2+z
1/2-x,1/2-y,1/2+z
1/2+x,1/2-y,1/2-z
1/2-x,1/2+y,1/2-z
1/2-x,1/2-y,1/2-z
1/2+x,1/2+y,1/2-z
1/2-x,1/2+y,1/2+z
1/2+x,1/2-y,1/2+z
loop_
_atom_site_type_symbol
_atom_site_label
_atom_site_fract_x
_atom_site_fract_y
_atom_site_fract_z
Si Si1 0.829490 0.832882 0.232881
Si Si2 0.173862 0.328976 0.616620
Si Si3 0.166740 0.861895 0.364248
Si Si4 0.174120 0.903654 0.000000
Si Si5 0.326005 0.000000 0.566644
O O1 0.750000 0.750000 0.250000
O O2 0.745366 0.873039 0.175669
O O3 0.819548 0.886739 0.293618
O O4 0.000000 0.816427 0.215197
O O5 0.206449 0.232384 0.622114
O O6 0.251861 0.363858 0.558060
O O7 0.000000 0.348681 0.614353
O O8 0.277922 0.917718 0.400536
O O9 0.000000 0.879720 0.386185
O O10 0.000000 0.884291 0.000000
O O11 0.205843 0.000000 0.000000
O O12 0.500000 0.000000 0.564163
O O13 0.257377 0.000000 0.500000
#
# Coordination Sequence:
#
# PCOD8291923 Si02
#       5
#    16  16  16   8   8
#     4   9  17  33  58  88 117 149 192 240 290 347
#     4  10  21  38  63  91 117 152 196 241 295 354
#     4   9  20  38  60  86 116 155 195 235 289 350
#     4  11  25  43  61  86 119 156 195 239 294 353
#     4  11  25  39  53  83 121 156 199 246 287 335
#
# _framework density 19.548622000000002
#
# number of rings (size 3 to 8) (size 9 to 14) (size 15 to 20)
#    0.000    2.250    0.000    3.750    1.750    8.000 
#    2.250    0.000    0.000    0.000    0.000    0.000 
#    0.000    0.000    0.000    0.000    0.000    0.000 
#
# Total GULP energy -396668.634916 kJ/mol
# GULP energy per Si atom -12395.894841 kJ/mol
# Density = 1.950413 g / cm^3
# Si number density = 19.548622 Si / 1000 Ang^3
#
#
#
# Elastic Constant Matrix: (Units=GPa)
#
#
# Indices 1 2 3 4 5 6 
#
# 1 133.7163 45.8469 88.3201 0.0000 0.0000 0.0000
# 2 45.8469 64.0337 53.1700 0.0000 0.0000 0.0000
# 3 88.3201 53.1700 185.2234 0.0000 0.0000 0.0000
# 4 0.0000 0.0000 0.0000 14.8810 0.0000 0.0000
# 5 0.0000 0.0000 0.0000 0.0000 41.8150 0.0000
# 6 0.0000 0.0000 0.0000 0.0000 0.0000 29.2198
#
#
#
# Elastic Compliance Matrix: (Units=1/GPa)
#
#
# Indices 1 2 3 4 5 6 
#
# 1 0.012050 -0.005063 -0.004292 0.000000 0.000000 0.000000
# 2 -0.005063 0.022632 -0.004082 0.000000 0.000000 0.000000
# 3 -0.004292 -0.004082 0.008617 0.000000 0.000000 0.000000
# 4 0.000000 0.000000 0.000000 0.067200 0.000000 0.000000
# 5 0.000000 0.000000 0.000000 0.000000 0.023915 0.000000
# 6 0.000000 0.000000 0.000000 0.000000 0.000000 0.034223
#
#
# Mechanical properties :
#
#
# Convention : Reuss Voigt Hill
#
# Bulk Modulus (GPa) = 60.88957 84.18304 72.53630
# Shear Modulus (GPa) = 24.87733 30.22559 27.55146
#
# Velocity S-wave (km/s) = 3.57120 3.93641 3.75825
# Velocity P-wave (km/s) = 6.94406 7.98857 7.48456
#
# Compressibility (1/GPa) = 0.01642317
#
# Stress axis : x y z
#
# Youngs Moduli (GPa) = 82.99097 44.18577 116.04491
#
# Poissons Ratio (x) = 0.22373 0.49808
# Poissons Ratio (y) = 0.42021 0.47373
# Poissons Ratio (z) = 0.35621 0.18038
#
# Static dielectric constant tensor:
#      x y z
#    x 3.720190 0.000000 0.000000 
#    y 0.000000 3.257450 0.000000 
#    z 0.000000 0.000000 4.124350 
# 
# 
# High freq. dielectric constant tensor:
#      x y z
#    x 1.775490 0.000000 0.000000 
#    y 0.000000 1.731180 0.000000 
#    z 0.000000 0.000000 1.782240 
# 
# From -- ./inp_files/9553.got.cif
#   From: 2010.06.25/outbox.cif.g09.slc.cpg/sg71_5_cif.got.tgz:9553.got - 2010.06.28 04:59:45.
