data_PCOD8291860
_publ_section_title
;
Structure prediction by ZEFSAII (Michael W. Deem and Ramdas Pophale) SiO2 
 PCOD8291860
Probable space group: I M M M
;
_chemical_formula_sum "Si O2"
_cell_formula_units_Z 96
_cell_length_a 13.036869
_cell_length_b 13.091102
_cell_length_c 28.894585
_cell_angle_alpha 90.000000
_cell_angle_beta 90.000000
_cell_angle_gamma 90.000000
_cell_volume 4931.351613
_symmetry_space_group_name_H-M "I M M M"
_symmetry_group_IT_number 71
_symmetry_cell_setting 'orthorhombic'
loop_
_space_group_symop_operation_xyz
x,y,z
-x,-y,z
x,-y,-z
-x,y,-z
-x,-y,-z
x,y,-z
-x,y,z
x,-y,z
1/2+x,1/2+y,1/2+z
1/2-x,1/2-y,1/2+z
1/2+x,1/2-y,1/2-z
1/2-x,1/2+y,1/2-z
1/2-x,1/2-y,1/2-z
1/2+x,1/2+y,1/2-z
1/2-x,1/2+y,1/2+z
1/2+x,1/2-y,1/2+z
loop_
_atom_site_type_symbol
_atom_site_label
_atom_site_fract_x
_atom_site_fract_y
_atom_site_fract_z
Si Si1 0.377992 0.500000 0.447227
Si Si2 0.879145 0.386538 0.448341
Si Si3 0.703651 0.382846 0.289268
Si Si4 0.617780 0.274136 0.202935
Si Si5 0.305188 0.693571 0.894126
Si Si6 0.383115 0.500000 0.054628
Si Si7 0.881963 0.815471 0.884220
O O1 0.500000 0.500000 0.443327
O O2 0.339459 0.500000 0.500000
O O3 0.339165 0.396751 0.422043
O O4 0.844620 0.352773 0.500000
O O5 0.830540 0.500000 0.436864
O O6 0.849544 0.301259 0.411475
O O7 0.000000 0.398868 0.446732
O O8 0.732791 0.500000 0.285640
O O9 0.639210 0.351911 0.244343
O O10 0.811912 0.325491 0.292398
O O11 0.632055 0.362139 0.333364
O O12 0.500000 0.238951 0.203963
O O13 0.643415 0.332354 0.155065
O O14 0.325463 0.600910 0.928468
O O15 0.182605 0.710472 0.889151
O O16 0.500000 0.500000 0.072625
O O17 0.379436 0.500000 0.000000
O O18 0.000000 0.787582 0.892693
#
# Coordination Sequence:
#
# PCOD8291860 Si02
#       7
#     8  16  16  16  16   8  16
#     4   9  18  32  53  85 118 147 183 229 285 345
#     4   9  18  33  54  81 113 149 187 232 294 362
#     4  10  21  38  61  86 116 155 199 235 292 366
#     4  10  22  37  57  88 120 150 192 249 298 343
#     4  11  23  37  58  86 117 152 202 245 291 346
#     4  11  24  42  62  84 116 159 204 248 292 344
#     4  10  21  38  59  84 117 154 190 235 293 356
#
# _framework density 19.467279000000001
#
# number of rings (size 3 to 8) (size 9 to 14) (size 15 to 20)
#    0.000    2.000    0.833    3.000    2.333    4.667 
#    0.000    0.417    0.000    0.500    0.000    0.000 
#    0.000    0.000    0.000    0.000    0.000    0.000 
#
# Total GULP energy -595292.670246 kJ/mol
# GULP energy per Si atom -12401.930630 kJ/mol
# Density = 1.942297 g / cm^3
# Si number density = 19.467279 Si / 1000 Ang^3
#
#
#
# Elastic Constant Matrix: (Units=GPa)
#
#
# Indices 1 2 3 4 5 6 
#
# 1 100.2562 38.0730 29.5079 0.0000 0.0000 0.0000
# 2 38.0730 105.5122 39.1397 0.0000 0.0000 0.0000
# 3 29.5079 39.1397 126.8010 0.0000 0.0000 0.0000
# 4 0.0000 0.0000 0.0000 30.6326 0.0000 0.0000
# 5 0.0000 0.0000 0.0000 0.0000 25.9924 0.0000
# 6 0.0000 0.0000 0.0000 0.0000 0.0000 19.9506
#
#
#
# Elastic Compliance Matrix: (Units=1/GPa)
#
#
# Indices 1 2 3 4 5 6 
#
# 1 0.011847 -0.003673 -0.001623 0.000000 0.000000 0.000000
# 2 -0.003673 0.011842 -0.002800 0.000000 0.000000 0.000000
# 3 -0.001623 -0.002800 0.009129 0.000000 0.000000 0.000000
# 4 0.000000 0.000000 0.000000 0.032645 0.000000 0.000000
# 5 0.000000 0.000000 0.000000 0.000000 0.038473 0.000000
# 6 0.000000 0.000000 0.000000 0.000000 0.000000 0.050124
#
#
# Mechanical properties :
#
#
# Convention : Reuss Voigt Hill
#
# Bulk Modulus (GPa) = 60.15302 60.66783 60.41042
# Shear Modulus (GPa) = 28.44252 30.37170 29.40711
#
# Velocity S-wave (km/s) = 3.82651 3.95415 3.89085
# Velocity P-wave (km/s) = 7.10560 7.21656 7.16129
#
# Compressibility (1/GPa) = 0.01662427
#
# Stress axis : x y z
#
# Youngs Moduli (GPa) = 84.40994 84.44757 109.54645
#
# Poissons Ratio (x) = 0.31015 0.17782
# Poissons Ratio (y) = 0.31001 0.30678
# Poissons Ratio (z) = 0.13702 0.23649
#
# Static dielectric constant tensor:
#      x y z
#    x 3.631500 0.000000 0.000000 
#    y 0.000000 3.317400 0.000000 
#    z 0.000000 0.000000 3.806950 
# 
# 
# High freq. dielectric constant tensor:
#      x y z
#    x 1.771550 0.000000 0.000000 
#    y 0.000000 1.737360 0.000000 
#    z 0.000000 0.000000 1.772310 
# 
# From -- ./inp_files/69898.got.cif
#   From: 2010.06.25/outbox.cif.g09.slc.cpg/sg71_35_cif.got.tgz:69898.got - 2010.06.28 04:59:45.
