data_PCOD8291032
_publ_section_title
;
Structure prediction by ZEFSAII (Michael W. Deem and Ramdas Pophale) SiO2 
 PCOD8291032
Probable space group: I M M M
;
_chemical_formula_sum "Si O2"
_cell_formula_units_Z 88
_cell_length_a 24.309662
_cell_length_b 9.001724
_cell_length_c 20.105570
_cell_angle_alpha 90.000000
_cell_angle_beta 90.000000
_cell_angle_gamma 90.000000
_cell_volume 4399.679121
_symmetry_space_group_name_H-M "I M M M"
_symmetry_group_IT_number 71
_symmetry_cell_setting 'orthorhombic'
loop_
_space_group_symop_operation_xyz
x,y,z
-x,-y,z
x,-y,-z
-x,y,-z
-x,-y,-z
x,y,-z
-x,y,z
x,-y,z
1/2+x,1/2+y,1/2+z
1/2-x,1/2-y,1/2+z
1/2+x,1/2-y,1/2-z
1/2-x,1/2+y,1/2-z
1/2-x,1/2-y,1/2-z
1/2+x,1/2+y,1/2-z
1/2-x,1/2+y,1/2+z
1/2+x,1/2-y,1/2+z
loop_
_atom_site_type_symbol
_atom_site_label
_atom_site_fract_x
_atom_site_fract_y
_atom_site_fract_z
Si Si1 0.438522 0.324642 0.110150
Si Si2 0.253536 0.324071 0.322561
Si Si3 0.370232 0.324409 0.621176
Si Si4 0.065019 0.676821 0.000000
Si Si5 0.334038 0.170326 0.072452
Si Si6 0.940237 0.175980 0.757924
O O1 0.500000 0.278536 0.086719
O O2 0.432355 0.500000 0.105844
O O3 0.392342 0.251809 0.064907
O O4 0.427295 0.263421 0.184603
O O5 0.252429 0.500000 0.311037
O O6 0.250000 0.250000 0.250000
O O7 0.306552 0.282361 0.367812
O O8 0.203426 0.264322 0.368124
O O9 0.378393 0.500000 0.608644
O O10 0.401359 0.238231 0.562910
O O11 0.396186 0.266339 0.689932
O O12 0.068145 0.500000 0.000000
O O13 0.000000 0.727225 0.000000
O O14 0.345610 0.000000 0.088469
O O15 0.304744 0.187934 0.000000
O O16 0.000000 0.232694 0.781520
O O17 0.939933 0.000000 0.754276
#
# Coordination Sequence:
#
# PCOD8291032 Si02
#       6
#    16  16  16   8  16  16
#     4   9  18  34  57  84 112 142 183 235 284 331
#     4  10  22  39  62  89 117 151 193 244 295 347
#     4  10  20  35  60  85 108 149 200 242 284 346
#     4  11  25  41  55  81 123 161 194 245 312 367
#     4  10  22  38  55  78 114 154 188 226 278 340
#     4   8  14  27  50  80 108 133 172 229 282 326
#
# _framework density 20.001460000000002
#
# number of rings (size 3 to 8) (size 9 to 14) (size 15 to 20)
#    0.000    2.455    0.000    3.000    1.273    5.455 
#    0.000    2.727    0.000    1.091    0.000    0.000 
#    0.000    0.000    0.000    0.000    0.000    0.000 
#
# Total GULP energy -545187.681920 kJ/mol
# GULP energy per Si atom -12390.629135 kJ/mol
# Density = 1.995594 g / cm^3
# Si number density = 20.001460 Si / 1000 Ang^3
#
#
#
# Elastic Constant Matrix: (Units=GPa)
#
#
# Indices 1 2 3 4 5 6 
#
# 1 141.3832 40.2994 66.3653 0.0000 0.0000 0.0000
# 2 40.2994 42.6311 36.0517 0.0000 0.0000 0.0000
# 3 66.3653 36.0517 118.9888 0.0000 0.0000 0.0000
# 4 0.0000 0.0000 0.0000 28.9622 0.0000 0.0000
# 5 0.0000 0.0000 0.0000 0.0000 35.7927 0.0000
# 6 0.0000 0.0000 0.0000 0.0000 0.0000 27.2725
#
#
#
# Elastic Compliance Matrix: (Units=1/GPa)
#
#
# Indices 1 2 3 4 5 6 
#
# 1 0.010928 -0.006959 -0.003986 0.000000 0.000000 0.000000
# 2 -0.006959 0.035969 -0.007017 0.000000 0.000000 0.000000
# 3 -0.003986 -0.007017 0.012754 0.000000 0.000000 0.000000
# 4 0.000000 0.000000 0.000000 0.034528 0.000000 0.000000
# 5 0.000000 0.000000 0.000000 0.000000 0.027939 0.000000
# 6 0.000000 0.000000 0.000000 0.000000 0.000000 0.036667
#
#
# Mechanical properties :
#
#
# Convention : Reuss Voigt Hill
#
# Bulk Modulus (GPa) = 42.14747 65.38176 53.76462
# Shear Modulus (GPa) = 24.67712 29.09127 26.88420
#
# Velocity S-wave (km/s) = 3.51631 3.81787 3.67019
# Velocity P-wave (km/s) = 6.13220 7.22456 6.70068
#
# Compressibility (1/GPa) = 0.02372621
#
# Stress axis : x y z
#
# Youngs Moduli (GPa) = 91.51012 27.80160 78.40937
#
# Poissons Ratio (x) = 0.19347 0.31258
# Poissons Ratio (y) = 0.63680 0.55019
# Poissons Ratio (z) = 0.36480 0.19508
#
# Static dielectric constant tensor:
#      x y z
#    x 3.907660 0.000000 0.000000 
#    y 0.000000 3.260930 0.000000 
#    z 0.000000 0.000000 3.937280 
# 
# 
# High freq. dielectric constant tensor:
#      x y z
#    x 1.791710 0.000000 0.000000 
#    y 0.000000 1.742790 0.000000 
#    z 0.000000 0.000000 1.793970 
# 
# From -- ./inp_files/50515.got.cif
#   From: 2010.06.25/outbox.cif.g09.slc.cpg/sg71_26_cif.got.tgz:50515.got - 2010.06.28 04:59:45.
