data_PCOD8291262
_publ_section_title
;
Structure prediction by ZEFSAII (Michael W. Deem and Ramdas Pophale) SiO2 
 PCOD8291262
Probable space group: I M M M
;
_chemical_formula_sum "Si O2"
_cell_formula_units_Z 82
_cell_length_a 9.147790
_cell_length_b 19.577574
_cell_length_c 24.756028
_cell_angle_alpha 90.000000
_cell_angle_beta 90.000000
_cell_angle_gamma 90.000000
_cell_volume 4433.595071
_symmetry_space_group_name_H-M "I M M M"
_symmetry_group_IT_number 71
_symmetry_cell_setting 'orthorhombic'
loop_
_space_group_symop_operation_xyz
x,y,z
-x,-y,z
x,-y,-z
-x,y,-z
-x,-y,-z
x,y,-z
-x,y,z
x,-y,z
1/2+x,1/2+y,1/2+z
1/2-x,1/2-y,1/2+z
1/2+x,1/2-y,1/2-z
1/2-x,1/2+y,1/2-z
1/2-x,1/2-y,1/2-z
1/2+x,1/2+y,1/2-z
1/2-x,1/2+y,1/2+z
1/2+x,1/2-y,1/2+z
loop_
_atom_site_type_symbol
_atom_site_label
_atom_site_fract_x
_atom_site_fract_y
_atom_site_fract_z
Si Si1 0.842743 0.636546 0.500000
Si Si2 0.165712 0.803770 0.901519
Si Si3 0.669789 0.920450 0.291082
Si Si4 0.828263 0.075514 0.500000
Si Si5 0.825947 0.185721 0.778634
Si Si6 0.164183 0.356626 0.094442
Si Si7 0.500000 0.000000 0.000000
O O1 0.759787 0.656335 0.554714
O O2 0.000000 0.675549 0.500000
O O3 0.867601 0.555249 0.500000
O O4 0.221776 0.818769 0.841085
O O5 0.177456 0.723706 0.910946
O O6 0.000000 0.829049 0.908369
O O7 0.500000 0.910685 0.275712
O O8 0.770994 0.885477 0.246247
O O9 0.707200 0.882505 0.346545
O O10 0.711168 0.000000 0.295283
O O11 0.778008 0.112719 0.446539
O O12 0.000000 0.074052 0.500000
O O13 0.761145 0.000000 0.500000
O O14 0.750000 0.250000 0.750000
O O15 0.000000 0.194282 0.772604
O O16 0.000000 0.380887 0.080196
#
# Coordination Sequence:
#
# PCOD8291262 Si02
#       7
#     8  16  16   8  16  16   2
#     4  10  22  42  65  88 121 154 199 247 316 364
#     4  10  21  39  64  92 118 152 201 257 299 361
#     4  10  21  39  60  86 121 163 203 246 301 365
#     4  11  24  37  49  78 119 154 193 241 293 350
#     4  11  22  39  62  89 125 160 204 253 309 365
#     4  10  20  37  60  83 114 153 200 246 294 351
#     4   8  24  48  62  88 132 160 192 268 312 390
#
# _framework density 18.495149000000001
#
# number of rings (size 3 to 8) (size 9 to 14) (size 15 to 20)
#    0.293    1.463    1.951    2.341    0.000    7.415 
#    1.756    0.976    0.000    0.000    0.000    0.000 
#    0.000    0.000    0.000    0.000    0.000    0.000 
#
# Total GULP energy -507910.075389 kJ/mol
# GULP energy per Si atom -12388.050619 kJ/mol
# Density = 1.845305 g / cm^3
# Si number density = 18.495149 Si / 1000 Ang^3
#
#
#
# Elastic Constant Matrix: (Units=GPa)
#
#
# Indices 1 2 3 4 5 6 
#
# 1 83.7895 40.4819 69.0881 0.0000 0.0000 0.0000
# 2 40.4819 90.5879 52.5482 0.0000 0.0000 0.0000
# 3 69.0881 52.5482 140.0583 0.0000 0.0000 0.0000
# 4 0.0000 0.0000 0.0000 26.9609 0.0000 0.0000
# 5 0.0000 0.0000 0.0000 0.0000 41.2528 0.0000
# 6 0.0000 0.0000 0.0000 0.0000 0.0000 35.1963
#
#
#
# Elastic Compliance Matrix: (Units=1/GPa)
#
#
# Indices 1 2 3 4 5 6 
#
# 1 0.021405 -0.004398 -0.008909 0.000000 0.000000 0.000000
# 2 -0.004398 0.015013 -0.003464 0.000000 0.000000 0.000000
# 3 -0.008909 -0.003464 0.012834 0.000000 0.000000 0.000000
# 4 0.000000 0.000000 0.000000 0.037091 0.000000 0.000000
# 5 0.000000 0.000000 0.000000 0.000000 0.024241 0.000000
# 6 0.000000 0.000000 0.000000 0.000000 0.000000 0.028412
#
#
# Mechanical properties :
#
#
# Convention : Reuss Voigt Hill
#
# Bulk Modulus (GPa) = 63.64426 70.96355 67.30391
# Shear Modulus (GPa) = 28.12575 30.83652 29.48114
#
# Velocity S-wave (km/s) = 3.90386 4.08766 3.99682
# Velocity P-wave (km/s) = 7.40312 7.79299 7.60055
#
# Compressibility (1/GPa) = 0.01571234
#
# Stress axis : x y z
#
# Youngs Moduli (GPa) = 46.71811 66.60732 77.91887
#
# Poissons Ratio (x) = 0.29292 0.69416
# Poissons Ratio (y) = 0.20545 0.26988
# Poissons Ratio (z) = 0.41620 0.23070
#
# Static dielectric constant tensor:
#      x y z
#    x 3.476280 0.000000 0.000000 
#    y 0.000000 3.427150 0.000000 
#    z 0.000000 0.000000 3.459230 
# 
# 
# High freq. dielectric constant tensor:
#      x y z
#    x 1.721270 0.000000 0.000000 
#    y 0.000000 1.722400 0.000000 
#    z 0.000000 0.000000 1.720980 
# 
# From -- ./inp_files/57490.got.cif
#   From: 2010.06.25/outbox.cif.g09.slc.cpg/sg71_29_cif.got.tgz:57490.got - 2010.06.28 04:59:45.
