data_PCOD8291792
_publ_section_title
;
Structure prediction by ZEFSAII (Michael W. Deem and Ramdas Pophale) SiO2 
 PCOD8291792
Probable space group: I M M M
;
_chemical_formula_sum "Si O2"
_cell_formula_units_Z 72
_cell_length_a 15.403113
_cell_length_b 8.793048
_cell_length_c 26.556672
_cell_angle_alpha 90.000000
_cell_angle_beta 90.000000
_cell_angle_gamma 90.000000
_cell_volume 3596.843940
_symmetry_space_group_name_H-M "I M M M"
_symmetry_group_IT_number 71
_symmetry_cell_setting 'orthorhombic'
loop_
_space_group_symop_operation_xyz
x,y,z
-x,-y,z
x,-y,-z
-x,y,-z
-x,-y,-z
x,y,-z
-x,y,z
x,-y,z
1/2+x,1/2+y,1/2+z
1/2-x,1/2-y,1/2+z
1/2+x,1/2-y,1/2-z
1/2-x,1/2+y,1/2-z
1/2-x,1/2-y,1/2-z
1/2+x,1/2+y,1/2-z
1/2-x,1/2+y,1/2+z
1/2+x,1/2-y,1/2+z
loop_
_atom_site_type_symbol
_atom_site_label
_atom_site_fract_x
_atom_site_fract_y
_atom_site_fract_z
Si Si1 0.000000 0.819452 0.556202
Si Si2 0.676122 0.820425 0.783773
Si Si3 0.500000 0.179204 0.268880
Si Si4 0.664696 0.324018 0.558017
Si Si5 0.000000 0.820047 0.121306
Si Si6 0.824670 0.179481 0.608129
O O1 0.915153 0.760834 0.585247
O O2 0.000000 0.750279 0.500000
O O3 0.000000 0.000000 0.553171
O O4 0.750000 0.750000 0.750000
O O5 0.583242 0.766209 0.762716
O O6 0.690902 0.762969 0.839730
O O7 0.684726 0.000000 0.782688
O O8 0.500000 0.255659 0.322957
O O9 0.500000 0.000000 0.277270
O O10 0.638718 0.301715 0.500000
O O11 0.685276 0.500000 0.569842
O O12 0.585175 0.263005 0.591785
O O13 0.748640 0.223123 0.569763
O O14 0.000000 0.000000 0.123727
O O15 0.825622 0.000000 0.616881
#
# Coordination Sequence:
#
# PCOD8291792 Si02
#       6
#     8  16   8  16   8  16
#     4   9  19  36  57  82 114 151 190 231 276 332
#     4  11  23  40  60  84 115 150 189 233 283 337
#     4  10  23  40  58  82 114 149 186 233 284 334
#     4  10  21  38  59  84 115 151 191 234 280 332
#     4  10  21  37  59  84 112 149 190 231 278 336
#     4  11  22  37  59  86 115 149 190 234 282 335
#
# _framework density 20.017548999999999
#
# number of rings (size 3 to 8) (size 9 to 14) (size 15 to 20)
#    0.000    1.667    0.000    4.333    0.000    8.889 
#    0.000    1.667    0.000    6.000    0.000    0.000 
#    0.000    0.000    0.000    0.000    0.000    0.000 
#
# Total GULP energy -446600.595440 kJ/mol
# GULP energy per Si atom -12405.572096 kJ/mol
# Density = 1.997199 g / cm^3
# Si number density = 20.017549 Si / 1000 Ang^3
#
#
#
# Elastic Constant Matrix: (Units=GPa)
#
#
# Indices 1 2 3 4 5 6 
#
# 1 124.1478 31.3176 20.9137 0.0000 0.0000 0.0000
# 2 31.3176 45.6266 22.8986 0.0000 0.0000 0.0000
# 3 20.9137 22.8986 102.5815 0.0000 0.0000 0.0000
# 4 0.0000 0.0000 0.0000 35.0117 0.0000 0.0000
# 5 0.0000 0.0000 0.0000 0.0000 42.9519 0.0000
# 6 0.0000 0.0000 0.0000 0.0000 0.0000 30.0700
#
#
#
# Elastic Compliance Matrix: (Units=1/GPa)
#
#
# Indices 1 2 3 4 5 6 
#
# 1 0.009770 -0.006426 -0.000557 0.000000 0.000000 0.000000
# 2 -0.006426 0.028909 -0.005143 0.000000 0.000000 0.000000
# 3 -0.000557 -0.005143 0.011010 0.000000 0.000000 0.000000
# 4 0.000000 0.000000 0.000000 0.028562 0.000000 0.000000
# 5 0.000000 0.000000 0.000000 0.000000 0.023282 0.000000
# 6 0.000000 0.000000 0.000000 0.000000 0.000000 0.033256
#
#
# Mechanical properties :
#
#
# Convention : Reuss Voigt Hill
#
# Bulk Modulus (GPa) = 39.31477 46.95733 43.13605
# Shear Modulus (GPa) = 29.84715 34.75513 32.30114
#
# Velocity S-wave (km/s) = 3.86560 4.17133 4.02137
# Velocity P-wave (km/s) = 6.29338 6.83440 6.56946
#
# Compressibility (1/GPa) = 0.02543573
#
# Stress axis : x y z
#
# Youngs Moduli (GPa) = 102.35528 34.59122 90.82634
#
# Poissons Ratio (x) = 0.22229 0.05062
# Poissons Ratio (y) = 0.65776 0.46712
# Poissons Ratio (z) = 0.05705 0.17790
#
# Static dielectric constant tensor:
#      x y z
#    x 3.912780 0.000000 0.000000 
#    y 0.000000 3.480720 0.000000 
#    z 0.000000 0.000000 3.625330 
# 
# 
# High freq. dielectric constant tensor:
#      x y z
#    x 1.799780 0.000000 0.000000 
#    y 0.000000 1.766990 0.000000 
#    z 0.000000 0.000000 1.798380 
# 
# From -- ./inp_files/6183.got.cif
#   From: 2010.06.25/outbox.cif.g09.slc.cpg/sg71_4_cif.got.tgz:6183.got - 2010.06.28 04:59:45.
