data_PCOD8291541
_publ_section_title
;
Structure prediction by ZEFSAII (Michael W. Deem and Ramdas Pophale) SiO2 
 PCOD8291541
Probable space group: I M M M
;
_chemical_formula_sum "Si O2"
_cell_formula_units_Z 72
_cell_length_a 8.566591
_cell_length_b 29.321780
_cell_length_c 15.161742
_cell_angle_alpha 90.000000
_cell_angle_beta 90.000000
_cell_angle_gamma 90.000000
_cell_volume 3808.443050
_symmetry_space_group_name_H-M "I M M M"
_symmetry_group_IT_number 71
_symmetry_cell_setting 'orthorhombic'
loop_
_space_group_symop_operation_xyz
x,y,z
-x,-y,z
x,-y,-z
-x,y,-z
-x,-y,-z
x,y,-z
-x,y,z
x,-y,z
1/2+x,1/2+y,1/2+z
1/2-x,1/2-y,1/2+z
1/2+x,1/2-y,1/2-z
1/2-x,1/2+y,1/2-z
1/2-x,1/2-y,1/2-z
1/2+x,1/2+y,1/2-z
1/2-x,1/2+y,1/2+z
1/2+x,1/2-y,1/2+z
loop_
_atom_site_type_symbol
_atom_site_label
_atom_site_fract_x
_atom_site_fract_y
_atom_site_fract_z
Si Si1 0.818832 0.196180 0.101347
Si Si2 0.820950 0.792164 0.400175
Si Si3 0.818594 0.356575 0.240211
Si Si4 0.668416 0.053458 0.000000
Si Si5 0.185926 0.449681 0.311608
O O1 0.785305 0.248942 0.123873
O O2 0.715757 0.164827 0.164324
O O3 0.000000 0.186771 0.119137
O O4 0.772517 0.185422 0.000000
O O5 0.788992 0.808434 0.500000
O O6 0.781663 0.833869 0.336427
O O7 0.000000 0.777747 0.386768
O O8 0.769533 0.410253 0.242016
O O9 0.000000 0.350512 0.218314
O O10 0.758563 0.064760 0.091987
O O11 0.500000 0.078792 0.000000
O O12 0.639044 0.000000 0.000000
O O13 0.247000 0.500000 0.280913
O O14 0.000000 0.451624 0.323561
#
# Coordination Sequence:
#
# PCOD8291541 Si02
#       5
#    16  16  16   8  16
#     4  10  21  36  53  75 107 141 171 207 250 301
#     4  10  21  38  57  74  97 132 174 217 259 307
#     4  11  21  31  52  81 107 135 169 213 258 306
#     4   7  10  20  38  60  91 129 163 195 231 275
#     4   8  15  27  44  70 103 136 169 206 247 291
#
# _framework density 18.905363000000001
#
# number of rings (size 3 to 8) (size 9 to 14) (size 15 to 20)
#    0.000    2.556    0.000    4.000    1.556    2.667 
#    0.000    0.000    0.000    3.333    0.000    6.222 
#    0.000    0.000    0.000    0.000    0.000    0.000 
#
# Total GULP energy -446129.630441 kJ/mol
# GULP energy per Si atom -12392.489734 kJ/mol
# Density = 1.886233 g / cm^3
# Si number density = 18.905363 Si / 1000 Ang^3
#
#
#
# Elastic Constant Matrix: (Units=GPa)
#
#
# Indices 1 2 3 4 5 6 
#
# 1 33.9202 6.4808 12.0184 -0.0001 0.0000 0.0000
# 2 6.4808 93.5283 43.3477 -0.0001 0.0000 0.0000
# 3 12.0184 43.3477 68.9035 -0.0004 0.0002 0.0000
# 4 -0.0001 -0.0001 -0.0004 25.0326 0.0001 0.0000
# 5 0.0000 0.0000 0.0002 0.0001 22.4662 0.0000
# 6 0.0000 0.0000 0.0000 0.0000 0.0000 16.3772
#
#
#
# Elastic Compliance Matrix: (Units=1/GPa)
#
#
# Indices 1 2 3 4 5 6 
#
# 1 0.031440 0.000513 -0.005806 0.000000 0.000000 0.000000
# 2 0.000513 0.015101 -0.009589 0.000000 0.000000 0.000000
# 3 -0.005806 -0.009589 0.021559 0.000000 0.000000 0.000000
# 4 0.000000 0.000000 0.000000 0.039948 0.000000 0.000000
# 5 0.000000 0.000000 0.000000 0.000000 0.044511 0.000000
# 6 0.000000 0.000000 0.000000 0.000000 0.000000 0.061060
#
#
# Mechanical properties :
#
#
# Convention : Reuss Voigt Hill
#
# Bulk Modulus (GPa) = 26.08707 35.56063 30.82385
# Shear Modulus (GPa) = 19.51876 21.74221 20.63048
#
# Velocity S-wave (km/s) = 3.21665 3.39493 3.30699
# Velocity P-wave (km/s) = 5.25591 5.84962 5.56069
#
# Compressibility (1/GPa) = 0.03833317
#
# Stress axis : x y z
#
# Youngs Moduli (GPa) = 31.80634 66.22129 46.38514
#
# Poissons Ratio (x) = -0.03394 0.26933
# Poissons Ratio (y) = -0.01630 0.44481
# Poissons Ratio (z) = 0.18468 0.63503
#
# Static dielectric constant tensor:
#      x y z
#    x 3.126500 0.000000 0.000000 
#    y 0.000000 3.549370 0.000000 
#    z 0.000000 0.000000 3.478750 
# 
# 
# High freq. dielectric constant tensor:
#      x y z
#    x 1.708080 0.000000 0.000000 
#    y 0.000000 1.730340 0.000000 
#    z 0.000000 0.000000 1.719000 
# 
# From -- ./inp_files/6035.got.cif
#   From: 2010.06.25/outbox.cif.g09.slc.cpg/sg71_4_cif.got.tgz:6035.got - 2010.06.28 04:59:45.
