data_PCOD8291671
_publ_section_title
;
Structure prediction by ZEFSAII (Michael W. Deem and Ramdas Pophale) SiO2 
 PCOD8291671
Probable space group: I M M M
;
_chemical_formula_sum "Si O2"
_cell_formula_units_Z 104
_cell_length_a 21.304126
_cell_length_b 27.619673
_cell_length_c 9.123604
_cell_angle_alpha 90.000000
_cell_angle_beta 90.000000
_cell_angle_gamma 90.000000
_cell_volume 5368.447143
_symmetry_space_group_name_H-M "I M M M"
_symmetry_group_IT_number 71
_symmetry_cell_setting 'orthorhombic'
loop_
_space_group_symop_operation_xyz
x,y,z
-x,-y,z
x,-y,-z
-x,y,-z
-x,-y,-z
x,y,-z
-x,y,z
x,-y,z
1/2+x,1/2+y,1/2+z
1/2-x,1/2-y,1/2+z
1/2+x,1/2-y,1/2-z
1/2-x,1/2+y,1/2-z
1/2-x,1/2-y,1/2-z
1/2+x,1/2+y,1/2-z
1/2-x,1/2+y,1/2+z
1/2+x,1/2-y,1/2+z
loop_
_atom_site_type_symbol
_atom_site_label
_atom_site_fract_x
_atom_site_fract_y
_atom_site_fract_z
Si Si1 0.071488 0.303408 0.333917
Si Si2 0.500000 0.943482 0.337843
Si Si3 0.427837 0.706173 0.672790
Si Si4 0.426987 0.447506 0.340711
Si Si5 0.741623 0.056063 0.671492
Si Si6 0.619607 0.094095 0.171230
Si Si7 0.356920 0.624076 0.830501
O O1 0.079969 0.284360 0.500000
O O2 0.087954 0.260396 0.223360
O O3 0.118274 0.347947 0.301851
O O4 0.000000 0.321676 0.309764
O O5 0.500000 0.918909 0.500000
O O6 0.438959 0.929364 0.249345
O O7 0.500000 0.000000 0.359153
O O8 0.421261 0.703007 0.500000
O O9 0.500000 0.692291 0.719895
O O10 0.373373 0.672762 0.742253
O O11 0.403493 0.426940 0.500000
O O12 0.500000 0.454136 0.348476
O O13 0.395664 0.500000 0.312851
O O14 0.412840 0.412672 0.205698
O O15 0.727005 0.061948 0.500000
O O16 0.681394 0.070249 0.763845
O O17 0.794649 0.095006 0.720000
O O18 0.760799 0.000000 0.705192
O O19 0.615867 0.082142 0.000000
O O20 0.355240 0.637430 0.000000
#
# Coordination Sequence:
#
# PCOD8291671 Si02
#       7
#    16   8  16  16  16  16  16
#     4   9  18  36  59  85 118 149 180 228 289 343
#     4  11  23  37  57  87 123 159 191 229 282 343
#     4  10  21  36  57  87 118 148 189 239 289 344
#     4   9  18  32  50  74 105 139 178 231 291 345
#     4  10  23  42  59  79 113 155 197 239 285 342
#     4  11  22  38  61  90 118 148 190 239 289 340
#     4  11  22  36  55  78 108 150 195 238 286 340
#
# _framework density 19.372454999999999
#
# number of rings (size 3 to 8) (size 9 to 14) (size 15 to 20)
#    0.000    1.923    0.769    3.462    0.000    9.231 
#    0.000    1.538    0.000    0.000    0.000    0.000 
#    0.000    0.000    0.000    0.000    0.000    0.000 
#
# Total GULP energy -644467.135441 kJ/mol
# GULP energy per Si atom -12393.598758 kJ/mol
# Density = 1.932836 g / cm^3
# Si number density = 19.372455 Si / 1000 Ang^3
#
#
#
# Elastic Constant Matrix: (Units=GPa)
#
#
# Indices 1 2 3 4 5 6 
#
# 1 84.1843 48.0408 54.2456 0.0000 0.0000 0.0000
# 2 48.0408 100.3631 53.2081 0.0000 0.0000 0.0000
# 3 54.2456 53.2081 89.0447 0.0000 0.0000 0.0000
# 4 0.0000 0.0000 0.0000 35.9301 0.0000 0.0000
# 5 0.0000 0.0000 0.0000 0.0000 34.4405 0.0000
# 6 0.0000 0.0000 0.0000 0.0000 0.0000 -47.6341
#
#
#
# Elastic Compliance Matrix: (Units=1/GPa)
#
#
# Indices 1 2 3 4 5 6 
#
# 1 0.021019 -0.004790 -0.009942 0.000000 0.000000 0.000000
# 2 -0.004790 0.015676 -0.006449 0.000000 0.000000 0.000000
# 3 -0.009942 -0.006449 0.021140 0.000000 0.000000 0.000000
# 4 0.000000 0.000000 0.000000 0.027832 0.000000 0.000000
# 5 0.000000 0.000000 0.000000 0.000000 0.029036 0.000000
# 6 0.000000 0.000000 0.000000 0.000000 0.000000 -0.020993
#
#
# Mechanical properties :
#
#
# Convention : Reuss Voigt Hill
#
# Bulk Modulus (GPa) = 64.63021 64.95348 64.79185
# Shear Modulus (GPa) = 35.40371 12.42047 23.91209
#
# Velocity S-wave (km/s) = 4.27960 2.53482 3.51712
# Velocity P-wave (km/s) = 7.60620 6.49374 7.07188
#
# Compressibility (1/GPa) = 0.01547264
#
# Stress axis : x y z
#
# Youngs Moduli (GPa) = 47.57679 63.79370 47.30276
#
# Poissons Ratio (x) = 0.30558 0.47029
# Poissons Ratio (y) = 0.22790 0.30504
# Poissons Ratio (z) = 0.47302 0.41139
#
# Static dielectric constant tensor:
#      x y z
#    x 3.651090 0.000000 0.000000 
#    y 0.000000 3.641980 0.000000 
#    z 0.000000 0.000000 3.684870 
# 
# 
# High freq. dielectric constant tensor:
#      x y z
#    x 1.733540 0.000000 0.000000 
#    y 0.000000 1.761530 0.000000 
#    z 0.000000 0.000000 1.761000 
# 
# From -- ./inp_files/11135.got.cif
#   From: 2010.06.25/outbox.cif.g09.slc.cpg/sg71_6_cif.got.tgz:11135.got - 2010.06.28 04:59:45.
