data_PCOD8291407
_publ_section_title
;
Structure prediction by ZEFSAII (Michael W. Deem and Ramdas Pophale) SiO2 
 PCOD8291407
Probable space group: I M M M
;
_chemical_formula_sum "Si O2"
_cell_formula_units_Z 104
_cell_length_a 18.941582
_cell_length_b 7.912700
_cell_length_c 34.228155
_cell_angle_alpha 90.000000
_cell_angle_beta 90.000000
_cell_angle_gamma 90.000000
_cell_volume 5130.083556
_symmetry_space_group_name_H-M "I M M M"
_symmetry_group_IT_number 71
_symmetry_cell_setting 'orthorhombic'
loop_
_space_group_symop_operation_xyz
x,y,z
-x,-y,z
x,-y,-z
-x,y,-z
-x,-y,-z
x,y,-z
-x,y,z
x,-y,z
1/2+x,1/2+y,1/2+z
1/2-x,1/2-y,1/2+z
1/2+x,1/2-y,1/2-z
1/2-x,1/2+y,1/2-z
1/2-x,1/2-y,1/2-z
1/2+x,1/2+y,1/2-z
1/2-x,1/2+y,1/2+z
1/2+x,1/2-y,1/2+z
loop_
_atom_site_type_symbol
_atom_site_label
_atom_site_fract_x
_atom_site_fract_y
_atom_site_fract_z
Si Si1 0.422557 0.804758 0.245342
Si Si2 0.304276 0.690187 0.100641
Si Si3 0.812092 0.301250 0.684210
Si Si4 0.152261 0.192769 0.908251
Si Si5 0.920641 0.305188 0.454672
Si Si6 0.345519 0.302306 0.319086
Si Si7 0.917036 0.500000 0.045863
O O1 0.500000 0.720648 0.239596
O O2 0.365361 0.718830 0.216071
O O3 0.400106 0.786876 0.290333
O O4 0.428325 0.000000 0.234683
O O5 0.276872 0.500000 0.105713
O O6 0.338578 0.756837 0.140843
O O7 0.237189 0.801461 0.087593
O O8 0.365135 0.693144 0.068493
O O9 0.809832 0.500000 0.689861
O O10 0.732866 0.228221 0.689527
O O11 0.131588 0.236606 0.863546
O O12 0.115239 0.328334 0.936258
O O13 0.128762 0.000000 0.919003
O O14 0.906146 0.275632 0.500000
O O15 0.909939 0.500000 0.443382
O O16 0.000000 0.247476 0.444010
O O17 0.346860 0.500000 0.310893
O O18 0.000000 0.500000 0.054090
O O19 0.899666 0.500000 0.000000
#
# Coordination Sequence:
#
# PCOD8291407 Si02
#       7
#    16  16  16  16  16  16   8
#     4  10  21  34  51  79 114 152 195 246 303 361
#     4  11  21  35  59  89 119 155 203 258 312 363
#     4   9  19  36  54  76 110 152 198 242 296 366
#     4  10  22  43  67  94 126 162 208 256 309 370
#     4   9  19  36  56  79 111 154 200 244 299 365
#     4   9  19  35  58  83 109 150 199 246 297 355
#     4  11  26  46  68  98 131 163 203 251 312 382
#
# _framework density 20.272575
#
# number of rings (size 3 to 8) (size 9 to 14) (size 15 to 20)
#    0.000    2.231    0.769    3.231    1.077    4.615 
#    0.000    4.615    0.000    0.000    0.000    0.000 
#    0.000    0.000    0.000    0.000    0.000    0.000 
#
# Total GULP energy -644735.964004 kJ/mol
# GULP energy per Si atom -12398.768539 kJ/mol
# Density = 2.022643 g / cm^3
# Si number density = 20.272575 Si / 1000 Ang^3
#
#
#
# Elastic Constant Matrix: (Units=GPa)
#
#
# Indices 1 2 3 4 5 6 
#
# 1 103.0070 37.5686 70.7713 0.0000 0.0000 0.0000
# 2 37.5686 62.9371 40.7151 0.0000 0.0000 0.0000
# 3 70.7713 40.7151 116.0305 0.0000 0.0000 0.0000
# 4 0.0000 0.0000 0.0000 29.0509 0.0000 0.0000
# 5 0.0000 0.0000 0.0000 0.0000 27.2500 0.0000
# 6 0.0000 0.0000 0.0000 0.0000 0.0000 22.3472
#
#
#
# Elastic Compliance Matrix: (Units=1/GPa)
#
#
# Indices 1 2 3 4 5 6 
#
# 1 0.017697 -0.004632 -0.009168 0.000000 0.000000 0.000000
# 2 -0.004632 0.021768 -0.004813 0.000000 0.000000 0.000000
# 3 -0.009168 -0.004813 0.015899 0.000000 0.000000 0.000000
# 4 0.000000 0.000000 0.000000 0.034422 0.000000 0.000000
# 5 0.000000 0.000000 0.000000 0.000000 0.036697 0.000000
# 6 0.000000 0.000000 0.000000 0.000000 0.000000 0.044748
#
#
# Mechanical properties :
#
#
# Convention : Reuss Voigt Hill
#
# Bulk Modulus (GPa) = 55.13730 64.45384 59.79557
# Shear Modulus (GPa) = 23.30955 24.59091 23.95023
#
# Velocity S-wave (km/s) = 3.39456 3.48661 3.44089
# Velocity P-wave (km/s) = 6.52848 6.93334 6.73396
#
# Compressibility (1/GPa) = 0.01813654
#
# Stress axis : x y z
#
# Youngs Moduli (GPa) = 56.50737 45.94002 62.89552
#
# Poissons Ratio (x) = 0.21281 0.57665
# Poissons Ratio (y) = 0.26177 0.30270
# Poissons Ratio (z) = 0.51808 0.22110
#
# Static dielectric constant tensor:
#      x y z
#    x 3.807440 0.000000 0.000000 
#    y 0.000000 3.496130 0.000000 
#    z 0.000000 0.000000 3.648880 
# 
# 
# High freq. dielectric constant tensor:
#      x y z
#    x 1.787250 0.000000 0.000000 
#    y 0.000000 1.783350 0.000000 
#    z 0.000000 0.000000 1.789330 
# 
# From -- ./inp_files/70742.got.cif
#   From: 2010.06.25/outbox.cif.g09.slc.cpg/sg71_36_cif.got.tgz:70742.got - 2010.06.28 04:59:45.
