data_PCOD8291431
_publ_section_title
;
Structure prediction by ZEFSAII (Michael W. Deem and Ramdas Pophale) SiO2 
 PCOD8291431
Probable space group: I M M M
;
_chemical_formula_sum "Si O2"
_cell_formula_units_Z 120
_cell_length_a 26.547682
_cell_length_b 27.960441
_cell_length_c 9.029770
_cell_angle_alpha 90.000000
_cell_angle_beta 90.000000
_cell_angle_gamma 90.000000
_cell_volume 6702.661888
_symmetry_space_group_name_H-M "I M M M"
_symmetry_group_IT_number 71
_symmetry_cell_setting 'orthorhombic'
loop_
_space_group_symop_operation_xyz
x,y,z
-x,-y,z
x,-y,-z
-x,y,-z
-x,-y,-z
x,y,-z
-x,y,z
x,-y,z
1/2+x,1/2+y,1/2+z
1/2-x,1/2-y,1/2+z
1/2+x,1/2-y,1/2-z
1/2-x,1/2+y,1/2-z
1/2-x,1/2-y,1/2-z
1/2+x,1/2+y,1/2-z
1/2-x,1/2+y,1/2+z
1/2+x,1/2-y,1/2+z
loop_
_atom_site_type_symbol
_atom_site_label
_atom_site_fract_x
_atom_site_fract_y
_atom_site_fract_z
Si Si1 0.000000 0.946343 0.677179
Si Si2 0.703238 0.383238 0.828799
Si Si3 0.559052 0.282626 0.166956
Si Si4 0.591261 0.616098 0.174021
Si Si5 0.297231 0.054637 0.672304
Si Si6 0.758402 0.699298 0.674299
Si Si7 0.941997 0.313318 0.826419
Si Si8 0.146270 0.636728 0.674031
O O1 0.049805 0.919932 0.741278
O O2 0.000000 0.947007 0.500000
O O3 0.000000 0.000000 0.740236
O O4 0.647385 0.401907 0.787184
O O5 0.740730 0.426928 0.795653
O O6 0.715926 0.337079 0.730921
O O7 0.705886 0.367256 0.000000
O O8 0.500000 0.292088 0.166761
O O9 0.584900 0.329922 0.234790
O O10 0.574482 0.238959 0.271381
O O11 0.578045 0.271142 0.000000
O O12 0.581443 0.618636 0.000000
O O13 0.310694 0.059896 0.500000
O O14 0.336748 0.085292 0.765673
O O15 0.300565 0.000000 0.725309
O O16 0.752728 0.705663 0.500000
O O17 0.750000 0.750000 0.750000
O O18 0.813111 0.677653 0.716947
O O19 0.907465 0.352295 0.746735
O O20 0.000000 0.323897 0.784087
O O21 0.932938 0.316201 0.000000
O O22 0.139378 0.632807 0.500000
#
# Coordination Sequence:
#
# PCOD8291431 Si02
#       8
#     8  16  16  16  16  16  16  16
#     4   9  16  26  42  68 101 135 173 221 274 317
#     4   9  18  31  48  72 102 134 173 217 261 310
#     4   9  16  28  46  66  96 138 179 214 254 302
#     4   9  16  27  43  66  98 135 173 217 264 310
#     4   9  18  34  55  77 103 136 173 215 265 314
#     4  10  21  35  50  72 103 137 173 212 261 314
#     4  10  21  35  52  78 110 140 173 210 252 302
#     4  10  21  36  55  79 106 138 175 212 257 311
#
# _framework density 17.903334999999998
#
# number of rings (size 3 to 8) (size 9 to 14) (size 15 to 20)
#    0.000    2.600    0.667    1.200    1.867    3.200 
#    0.000    2.667    0.000    0.400    0.000    2.800 
#    0.000    3.733    0.000    0.000    0.000    0.000 
#
# Total GULP energy -743993.650648 kJ/mol
# GULP energy per Si atom -12399.894177 kJ/mol
# Density = 1.786259 g / cm^3
# Si number density = 17.903335 Si / 1000 Ang^3
#
#
#
# Elastic Constant Matrix: (Units=GPa)
#
#
# Indices 1 2 3 4 5 6 
#
# 1 117.6775 76.0555 42.9200 0.0000 0.0000 0.0000
# 2 76.0555 143.2985 52.2669 0.0000 0.0000 0.0000
# 3 42.9200 52.2669 60.2180 0.0000 0.0000 0.0000
# 4 0.0000 0.0000 0.0000 22.2197 0.0000 0.0000
# 5 0.0000 0.0000 0.0000 0.0000 20.2243 0.0000
# 6 0.0000 0.0000 0.0000 0.0000 0.0000 20.9745
#
#
#
# Elastic Compliance Matrix: (Units=1/GPa)
#
#
# Indices 1 2 3 4 5 6 
#
# 1 0.013945 -0.005525 -0.005143 0.000000 0.000000 0.000000
# 2 -0.005525 0.012400 -0.006825 0.000000 0.000000 0.000000
# 3 -0.005143 -0.006825 0.026196 0.000000 0.000000 0.000000
# 4 0.000000 0.000000 0.000000 0.045005 0.000000 0.000000
# 5 0.000000 0.000000 0.000000 0.000000 0.049445 0.000000
# 6 0.000000 0.000000 0.000000 0.000000 0.000000 0.047677
#
#
# Mechanical properties :
#
#
# Convention : Reuss Voigt Hill
#
# Bulk Modulus (GPa) = 56.96693 73.74209 65.35451
# Shear Modulus (GPa) = 21.23085 22.68049 21.95567
#
# Velocity S-wave (km/s) = 3.44737 3.56312 3.50572
# Velocity P-wave (km/s) = 6.90898 7.62930 7.27806
#
# Compressibility (1/GPa) = 0.01755404
#
# Stress axis : x y z
#
# Youngs Moduli (GPa) = 71.71232 80.64396 38.17379
#
# Poissons Ratio (x) = 0.44556 0.19634
# Poissons Ratio (y) = 0.39622 0.26053
# Poissons Ratio (z) = 0.36884 0.55039
#
# Static dielectric constant tensor:
#      x y z
#    x 3.374350 0.000000 0.000000 
#    y 0.000000 3.295720 0.000000 
#    z 0.000000 0.000000 3.120560 
# 
# 
# High freq. dielectric constant tensor:
#      x y z
#    x 1.693420 0.000000 0.000000 
#    y 0.000000 1.684050 0.000000 
#    z 0.000000 0.000000 1.671140 
# 
# From -- ./inp_files/15628.got.cif
#   From: 2010.06.25/outbox.cif.g09.slc.cpg/sg71_8_cif.got.tgz:15628.got - 2010.06.28 04:59:45.
