data_PCOD8291543
_publ_section_title
;
Structure prediction by ZEFSAII (Michael W. Deem and Ramdas Pophale) SiO2 
 PCOD8291543
Probable space group: I M M M
;
_chemical_formula_sum "Si O2"
_cell_formula_units_Z 72
_cell_length_a 12.883649
_cell_length_b 9.125717
_cell_length_c 32.083609
_cell_angle_alpha 90.000000
_cell_angle_beta 90.000000
_cell_angle_gamma 90.000000
_cell_volume 3772.151232
_symmetry_space_group_name_H-M "I M M M"
_symmetry_group_IT_number 71
_symmetry_cell_setting 'orthorhombic'
loop_
_space_group_symop_operation_xyz
x,y,z
-x,-y,z
x,-y,-z
-x,y,-z
-x,-y,-z
x,y,-z
-x,y,z
x,-y,z
1/2+x,1/2+y,1/2+z
1/2-x,1/2-y,1/2+z
1/2+x,1/2-y,1/2-z
1/2-x,1/2+y,1/2-z
1/2-x,1/2-y,1/2-z
1/2+x,1/2+y,1/2-z
1/2-x,1/2+y,1/2+z
1/2+x,1/2-y,1/2+z
loop_
_atom_site_type_symbol
_atom_site_label
_atom_site_fract_x
_atom_site_fract_y
_atom_site_fract_z
Si Si1 0.180508 0.671942 0.809903
Si Si2 0.880184 0.328161 0.099057
Si Si3 0.500000 0.333481 0.049619
Si Si4 0.705222 0.168259 0.950632
Si Si5 0.112766 0.833045 0.268950
O O1 0.161645 0.500000 0.808299
O O2 0.144582 0.731641 0.854607
O O3 0.112359 0.741046 0.773436
O O4 0.300840 0.717509 0.802234
O O5 0.854685 0.500000 0.095480
O O6 0.809211 0.241360 0.066816
O O7 0.000000 0.296381 0.088200
O O8 0.500000 0.500000 0.066588
O O9 0.397094 0.251691 0.066445
O O10 0.500000 0.331061 0.000000
O O11 0.698442 0.000000 0.936188
O O12 0.711249 0.180970 0.000000
O O13 0.000000 0.814009 0.290278
O O14 0.134429 0.000000 0.255952
#
# Coordination Sequence:
#
# PCOD8291543 Si02
#       5
#    16  16   8  16  16
#     4   9  18  33  51  73 103 137 175 218 265 316
#     4  10  21  36  53  76 107 143 185 230 273 322
#     4   9  17  33  59  85 107 135 173 213 259 319
#     4  10  21  37  57  81 110 142 177 221 272 324
#     4   9  17  30  50  75 102 133 171 215 264 318
#
# _framework density 19.087251999999999
#
# number of rings (size 3 to 8) (size 9 to 14) (size 15 to 20)
#    0.000    2.556    0.000    1.667    0.000    5.778 
#    2.000    2.222    0.000    0.000    0.000    0.000 
#    0.000    0.000    0.000    0.000    0.000    0.000 
#
# Total GULP energy -446353.451017 kJ/mol
# GULP energy per Si atom -12398.706973 kJ/mol
# Density = 1.904381 g / cm^3
# Si number density = 19.087252 Si / 1000 Ang^3
#
#
#
# Elastic Constant Matrix: (Units=GPa)
#
#
# Indices 1 2 3 4 5 6 
#
# 1 152.9582 61.8313 34.8185 0.0000 0.0000 0.0000
# 2 61.8313 87.2342 30.9008 0.0000 0.0000 0.0000
# 3 34.8185 30.9008 35.3986 0.0000 0.0000 0.0000
# 4 0.0000 0.0000 0.0000 26.7941 0.0000 0.0000
# 5 0.0000 0.0000 0.0000 0.0000 24.9116 0.0000
# 6 0.0000 0.0000 0.0000 0.0000 0.0000 27.7158
#
#
#
# Elastic Compliance Matrix: (Units=1/GPa)
#
#
# Indices 1 2 3 4 5 6 
#
# 1 0.009774 -0.005099 -0.005163 0.000000 0.000000 0.000000
# 2 -0.005099 0.019255 -0.011793 0.000000 0.000000 0.000000
# 3 -0.005163 -0.011793 0.043622 0.000000 0.000000 0.000000
# 4 0.000000 0.000000 0.000000 0.037322 0.000000 0.000000
# 5 0.000000 0.000000 0.000000 0.000000 0.040142 0.000000
# 6 0.000000 0.000000 0.000000 0.000000 0.000000 0.036080
#
#
# Mechanical properties :
#
#
# Convention : Reuss Voigt Hill
#
# Bulk Modulus (GPa) = 35.03611 58.96582 47.00096
# Shear Modulus (GPa) = 20.84900 25.75364 23.30132
#
# Velocity S-wave (km/s) = 3.30858 3.67721 3.49776
# Velocity P-wave (km/s) = 5.74380 6.99922 6.40235
#
# Compressibility (1/GPa) = 0.02854198
#
# Stress axis : x y z
#
# Youngs Moduli (GPa) = 102.30996 51.93454 22.92395
#
# Poissons Ratio (x) = 0.26482 0.11835
# Poissons Ratio (y) = 0.52169 0.27034
# Poissons Ratio (z) = 0.52821 0.61246
#
# Static dielectric constant tensor:
#      x y z
#    x 3.704120 0.000000 0.000000 
#    y 0.000000 3.505830 0.000000 
#    z 0.000000 0.000000 3.251160 
# 
# 
# High freq. dielectric constant tensor:
#      x y z
#    x 1.760050 0.000000 0.000000 
#    y 0.000000 1.738390 0.000000 
#    z 0.000000 0.000000 1.713320 
# 
# From -- ./inp_files/62868.got.cif
#   From: 2010.06.25/outbox.cif.g09.slc.cpg/sg71_32_cif.got.tgz:62868.got - 2010.06.28 04:59:45.
