data_PCOD8291870
_publ_section_title
;
Structure prediction by ZEFSAII (Michael W. Deem and Ramdas Pophale) SiO2 
 PCOD8291870
Probable space group: I M M M
;
_chemical_formula_sum "Si O2"
_cell_formula_units_Z 72
_cell_length_a 22.087456
_cell_length_b 19.141430
_cell_length_c 8.834270
_cell_angle_alpha 90.000000
_cell_angle_beta 90.000000
_cell_angle_gamma 90.000000
_cell_volume 3735.001196
_symmetry_space_group_name_H-M "I M M M"
_symmetry_group_IT_number 71
_symmetry_cell_setting 'orthorhombic'
loop_
_space_group_symop_operation_xyz
x,y,z
-x,-y,z
x,-y,-z
-x,y,-z
-x,-y,-z
x,y,-z
-x,y,z
x,-y,z
1/2+x,1/2+y,1/2+z
1/2-x,1/2-y,1/2+z
1/2+x,1/2-y,1/2-z
1/2-x,1/2+y,1/2-z
1/2-x,1/2-y,1/2-z
1/2+x,1/2+y,1/2-z
1/2-x,1/2+y,1/2+z
1/2+x,1/2-y,1/2+z
loop_
_atom_site_type_symbol
_atom_site_label
_atom_site_fract_x
_atom_site_fract_y
_atom_site_fract_z
Si Si1 0.155477 0.920927 0.825958
Si Si2 0.000000 0.582398 0.172946
Si Si3 0.888755 0.341428 0.321759
Si Si4 0.430575 0.703253 0.323339
Si Si5 0.780387 0.580661 0.176163
O O1 0.099381 0.871186 0.785491
O O2 0.211976 0.900601 0.721173
O O3 0.133970 0.000000 0.793513
O O4 0.175643 0.911886 0.000000
O O5 0.940420 0.610958 0.250805
O O6 0.000000 0.500000 0.186503
O O7 0.000000 0.607820 0.000000
O O8 0.894670 0.345155 0.500000
O O9 0.894818 0.261905 0.268639
O O10 0.823936 0.370068 0.271935
O O11 0.426097 0.721147 0.500000
O O12 0.500000 0.700604 0.269387
O O13 0.794628 0.500000 0.214733
O O14 0.789999 0.596207 0.000000
#
# Coordination Sequence:
#
# PCOD8291870 Si02
#       5
#    16   8  16  16  16
#     4   9  19  37  61  89 117 147 191 244 293 344
#     4  11  23  39  59  83 114 153 194 235 283 342
#     4  12  24  37  57  85 117 154 194 239 286 336
#     4  10  21  38  60  84 117 158 194 236 290 347
#     4  10  21  38  60  85 115 153 194 238 292 350
#
# _framework density 19.277103
#
# number of rings (size 3 to 8) (size 9 to 14) (size 15 to 20)
#    0.000    1.667    1.111    3.667    0.000    7.111 
#    0.000    2.222    0.000    0.000    0.000    4.667 
#    0.000    0.000    0.000    0.000    0.000    0.000 
#
# Total GULP energy -446590.405266 kJ/mol
# GULP energy per Si atom -12405.289035 kJ/mol
# Density = 1.923323 g / cm^3
# Si number density = 19.277103 Si / 1000 Ang^3
#
#
#
# Elastic Constant Matrix: (Units=GPa)
#
#
# Indices 1 2 3 4 5 6 
#
# 1 89.7499 69.5336 39.6650 0.0000 0.0000 0.0000
# 2 69.5336 118.6734 57.9939 0.0000 0.0000 0.0000
# 3 39.6650 57.9939 101.0068 0.0000 0.0000 0.0000
# 4 0.0000 0.0000 0.0000 21.8131 0.0000 0.0000
# 5 0.0000 0.0000 0.0000 0.0000 32.2961 0.0000
# 6 0.0000 0.0000 0.0000 0.0000 0.0000 25.9573
#
#
#
# Elastic Compliance Matrix: (Units=1/GPa)
#
#
# Indices 1 2 3 4 5 6 
#
# 1 0.020591 -0.011278 -0.001611 0.000000 0.000000 0.000000
# 2 -0.011278 0.017890 -0.005843 0.000000 0.000000 0.000000
# 3 -0.001611 -0.005843 0.013888 0.000000 0.000000 0.000000
# 4 0.000000 0.000000 0.000000 0.045844 0.000000 0.000000
# 5 0.000000 0.000000 0.000000 0.000000 0.030963 0.000000
# 6 0.000000 0.000000 0.000000 0.000000 0.000000 0.038525
#
#
# Mechanical properties :
#
#
# Convention : Reuss Voigt Hill
#
# Bulk Modulus (GPa) = 67.08823 71.53501 69.31162
# Shear Modulus (GPa) = 23.79448 25.49580 24.64514
#
# Velocity S-wave (km/s) = 3.51713 3.64070 3.57944
# Velocity P-wave (km/s) = 7.16737 7.40691 7.28812
#
# Compressibility (1/GPa) = 0.01490575
#
# Stress axis : x y z
#
# Youngs Moduli (GPa) = 48.56373 55.89812 72.00661
#
# Poissons Ratio (x) = 0.63041 0.11600
# Poissons Ratio (y) = 0.54769 0.42072
# Poissons Ratio (z) = 0.07823 0.32660
#
# Static dielectric constant tensor:
#      x y z
#    x 3.594240 0.000000 0.000000 
#    y 0.000000 3.633320 0.000000 
#    z 0.000000 0.000000 3.578670 
# 
# 
# High freq. dielectric constant tensor:
#      x y z
#    x 1.752650 0.000000 0.000000 
#    y 0.000000 1.756600 0.000000 
#    z 0.000000 0.000000 1.751580 
# 
# From -- ./inp_files/9901.got.cif
#   From: 2010.06.25/outbox.cif.g09.slc.cpg/sg71_5_cif.got.tgz:9901.got - 2010.06.28 04:59:45.
