data_PCOD8291718
_publ_section_title
;
Structure prediction by ZEFSAII (Michael W. Deem and Ramdas Pophale) SiO2 
 PCOD8291718
Probable space group: I M M M
;
_chemical_formula_sum "Si O2"
_cell_formula_units_Z 104
_cell_length_a 29.270207
_cell_length_b 19.166441
_cell_length_c 9.539342
_cell_angle_alpha 90.000000
_cell_angle_beta 90.000000
_cell_angle_gamma 90.000000
_cell_volume 5351.625194
_symmetry_space_group_name_H-M "I M M M"
_symmetry_group_IT_number 71
_symmetry_cell_setting 'orthorhombic'
loop_
_space_group_symop_operation_xyz
x,y,z
-x,-y,z
x,-y,-z
-x,y,-z
-x,-y,-z
x,y,-z
-x,y,z
x,-y,z
1/2+x,1/2+y,1/2+z
1/2-x,1/2-y,1/2+z
1/2+x,1/2-y,1/2-z
1/2-x,1/2+y,1/2-z
1/2-x,1/2-y,1/2-z
1/2+x,1/2+y,1/2-z
1/2-x,1/2+y,1/2+z
1/2+x,1/2-y,1/2+z
loop_
_atom_site_type_symbol
_atom_site_label
_atom_site_fract_x
_atom_site_fract_y
_atom_site_fract_z
Si Si1 0.162408 0.077588 0.657157
Si Si2 0.290466 0.785776 0.160342
Si Si3 0.607363 0.194191 0.163489
Si Si4 0.947386 0.580936 0.163912
Si Si5 0.755853 0.076875 0.842821
Si Si6 0.428211 0.340790 0.843099
Si Si7 0.000000 0.080575 0.165646
O O1 0.181081 0.074613 0.500000
O O2 0.202987 0.107053 0.750848
O O3 0.122772 0.132633 0.671340
O O4 0.146723 0.000000 0.706069
O O5 0.250000 0.750000 0.250000
O O6 0.342620 0.777713 0.215545
O O7 0.285585 0.869651 0.168169
O O8 0.285756 0.758408 0.000000
O O9 0.587952 0.128747 0.249749
O O10 0.571806 0.257971 0.184584
O O11 0.610854 0.172908 0.000000
O O12 0.936730 0.500000 0.197937
O O13 0.000000 0.597816 0.205367
O O14 0.939917 0.595957 0.000000
O O15 0.740047 0.000000 0.790159
O O16 0.774736 0.072219 0.000000
O O17 0.456274 0.380887 0.726395
O O18 0.447226 0.356631 0.000000
O O19 0.000000 0.000000 0.212211
O O20 0.000000 0.088377 0.000000
#
# Coordination Sequence:
#
# PCOD8291718 Si02
#       7
#    16  16  16  16  16  16   8
#     4   9  17  31  53  78 104 140 185 226 266 316
#     4  10  21  37  56  80 113 151 189 232 281 336
#     4  10  22  37  57  87 117 148 191 239 286 340
#     4   9  20  40  63  86 115 151 191 238 296 361
#     4   9  18  32  51  76 106 141 179 221 270 319
#     4  10  21  37  56  79 109 144 181 224 273 329
#     4  11  25  41  57  81 110 141 180 225 271 320
#
# _framework density 19.433350000000001
#
# number of rings (size 3 to 8) (size 9 to 14) (size 15 to 20)
#    0.000    2.385    0.000    2.077    1.077    6.154 
#    0.000    3.846    0.000    1.846    0.000    0.000 
#    0.000    0.000    0.000    0.000    0.000    0.000 
#
# Total GULP energy -644488.393857 kJ/mol
# GULP energy per Si atom -12394.007574 kJ/mol
# Density = 1.938912 g / cm^3
# Si number density = 19.433350 Si / 1000 Ang^3
#
#
#
# Elastic Constant Matrix: (Units=GPa)
#
#
# Indices 1 2 3 4 5 6 
#
# 1 92.1958 48.5978 51.4073 0.0000 0.0000 0.0000
# 2 48.5978 98.5019 47.5396 0.0000 0.0000 0.0000
# 3 51.4073 47.5396 77.7877 0.0000 0.0000 0.0000
# 4 0.0000 0.0000 0.0000 30.2597 0.0000 0.0000
# 5 0.0000 0.0000 0.0000 0.0000 34.1169 0.0000
# 6 0.0000 0.0000 0.0000 0.0000 0.0000 36.2399
#
#
#
# Elastic Compliance Matrix: (Units=1/GPa)
#
#
# Indices 1 2 3 4 5 6 
#
# 1 0.018528 -0.004584 -0.009443 0.000000 0.000000 0.000000
# 2 -0.004584 0.015533 -0.006464 0.000000 0.000000 0.000000
# 3 -0.009443 -0.006464 0.023047 0.000000 0.000000 0.000000
# 4 0.000000 0.000000 0.000000 0.033047 0.000000 0.000000
# 5 0.000000 0.000000 0.000000 0.000000 0.029311 0.000000
# 6 0.000000 0.000000 0.000000 0.000000 0.000000 0.027594
#
#
# Mechanical properties :
#
#
# Convention : Reuss Voigt Hill
#
# Bulk Modulus (GPa) = 62.01065 62.61944 62.31504
# Shear Modulus (GPa) = 25.85090 28.18603 27.01846
#
# Velocity S-wave (km/s) = 3.65119 3.81254 3.73274
# Velocity P-wave (km/s) = 7.05362 7.18841 7.12133
#
# Compressibility (1/GPa) = 0.01612626
#
# Stress axis : x y z
#
# Youngs Moduli (GPa) = 53.97224 64.37862 43.39018
#
# Poissons Ratio (x) = 0.29508 0.40975
# Poissons Ratio (y) = 0.24738 0.28047
# Poissons Ratio (z) = 0.50968 0.41614
#
# Static dielectric constant tensor:
#      x y z
#    x 3.075050 0.000000 0.000000 
#    y 0.000000 3.711040 0.000000 
#    z 0.000000 0.000000 3.538460 
# 
# 
# High freq. dielectric constant tensor:
#      x y z
#    x 1.745430 0.000000 0.000000 
#    y 0.000000 1.773040 0.000000 
#    z 0.000000 0.000000 1.746660 
# 
# From -- ./inp_files/17030.got.cif
#   From: 2010.06.25/outbox.cif.g09.slc.cpg/sg71_9_cif.got.tgz:17030.got - 2010.06.28 04:59:45.
