data_PCOD8291882
_publ_section_title
;
Structure prediction by ZEFSAII (Michael W. Deem and Ramdas Pophale) SiO2 
 PCOD8291882
Probable space group: I M M M
;
_chemical_formula_sum "Si O2"
_cell_formula_units_Z 104
_cell_length_a 18.337577
_cell_length_b 9.225071
_cell_length_c 31.776081
_cell_angle_alpha 90.000000
_cell_angle_beta 90.000000
_cell_angle_gamma 90.000000
_cell_volume 5375.415035
_symmetry_space_group_name_H-M "I M M M"
_symmetry_group_IT_number 71
_symmetry_cell_setting 'orthorhombic'
loop_
_space_group_symop_operation_xyz
x,y,z
-x,-y,z
x,-y,-z
-x,y,-z
-x,-y,-z
x,y,-z
-x,y,z
x,-y,z
1/2+x,1/2+y,1/2+z
1/2-x,1/2-y,1/2+z
1/2+x,1/2-y,1/2-z
1/2-x,1/2+y,1/2-z
1/2-x,1/2-y,1/2-z
1/2+x,1/2+y,1/2-z
1/2-x,1/2+y,1/2+z
1/2+x,1/2-y,1/2+z
loop_
_atom_site_type_symbol
_atom_site_label
_atom_site_fract_x
_atom_site_fract_y
_atom_site_fract_z
Si Si1 0.414726 0.330262 0.669356
Si Si2 0.699785 0.835797 0.047869
Si Si3 0.583508 0.329936 0.095288
Si Si4 0.325461 0.171536 0.258960
Si Si5 0.355110 0.667497 0.421758
Si Si6 0.083945 0.665266 0.322813
Si Si7 0.085444 0.339641 0.000000
O O1 0.500000 0.291674 0.674778
O O2 0.400579 0.500000 0.677880
O O3 0.365982 0.236100 0.700674
O O4 0.388961 0.286402 0.622739
O O5 0.632654 0.730579 0.057738
O O6 0.768157 0.803415 0.078317
O O7 0.672368 0.000000 0.053927
O O8 0.725373 0.808110 0.000000
O O9 0.500000 0.284065 0.086687
O O10 0.592642 0.500000 0.097698
O O11 0.612132 0.264050 0.139099
O O12 0.250000 0.250000 0.250000
O O13 0.374373 0.208262 0.218966
O O14 0.313845 0.000000 0.265330
O O15 0.371517 0.500000 0.431432
O O16 0.392005 0.758946 0.457918
O O17 0.098521 0.500000 0.336011
O O18 0.000000 0.695787 0.313190
O O19 0.121001 0.500000 0.000000
O O20 0.000000 0.352322 0.000000
#
# Coordination Sequence:
#
# PCOD8291882 Si02
#       7
#    16  16  16  16  16  16   8
#     4  10  22  40  63  91 122 158 200 247 299 355
#     4  10  21  38  60  86 116 154 199 245 291 344
#     4  10  22  38  58  87 120 153 191 239 296 353
#     4  11  24  40  60  88 122 159 199 244 296 352
#     4  10  21  40  63  87 117 157 203 245 291 351
#     4   9  19  38  62  84 110 150 196 239 284 340
#     4  11  23  37  57  89 124 155 194 245 297 348
#
# _framework density 19.347342000000001
#
# number of rings (size 3 to 8) (size 9 to 14) (size 15 to 20)
#    0.000    1.923    0.769    2.077    2.154    6.154 
#    0.000    3.077    0.000    0.000    0.000    0.000 
#    0.000    0.000    0.000    0.000    0.000    0.000 
#
# Total GULP energy -644954.042171 kJ/mol
# GULP energy per Si atom -12402.962349 kJ/mol
# Density = 1.930331 g / cm^3
# Si number density = 19.347342 Si / 1000 Ang^3
#
#
#
# Elastic Constant Matrix: (Units=GPa)
#
#
# Indices 1 2 3 4 5 6 
#
# 1 105.1223 57.6584 66.5478 0.0000 0.0000 0.0000
# 2 57.6584 86.0332 57.2439 0.0000 0.0000 0.0000
# 3 66.5478 57.2439 108.8376 0.0000 0.0000 0.0000
# 4 0.0000 0.0000 0.0000 47.2395 0.0000 0.0000
# 5 0.0000 0.0000 0.0000 0.0000 40.6562 0.0000
# 6 0.0000 0.0000 0.0000 0.0000 0.0000 31.9090
#
#
#
# Elastic Compliance Matrix: (Units=1/GPa)
#
#
# Indices 1 2 3 4 5 6 
#
# 1 0.018099 -0.007332 -0.007210 0.000000 0.000000 0.000000
# 2 -0.007332 0.020852 -0.006484 0.000000 0.000000 0.000000
# 3 -0.007210 -0.006484 0.017006 0.000000 0.000000 0.000000
# 4 0.000000 0.000000 0.000000 0.021169 0.000000 0.000000
# 5 0.000000 0.000000 0.000000 0.000000 0.024596 0.000000
# 6 0.000000 0.000000 0.000000 0.000000 0.000000 0.031339
#
#
# Mechanical properties :
#
#
# Convention : Reuss Voigt Hill
#
# Bulk Modulus (GPa) = 71.91635 73.65482 72.78559
# Shear Modulus (GPa) = 27.81683 31.86381 29.84032
#
# Velocity S-wave (km/s) = 3.79589 4.06265 3.93153
# Velocity P-wave (km/s) = 7.51423 7.75623 7.63619
#
# Compressibility (1/GPa) = 0.01390504
#
# Stress axis : x y z
#
# Youngs Moduli (GPa) = 55.25313 47.95818 58.80114
#
# Poissons Ratio (x) = 0.35164 0.42394
# Poissons Ratio (y) = 0.40513 0.38125
# Poissons Ratio (z) = 0.39836 0.31095
#
# Static dielectric constant tensor:
#      x y z
#    x 3.453010 0.000000 0.000000 
#    y 0.000000 3.591340 0.000000 
#    z 0.000000 0.000000 3.575780 
# 
# 
# High freq. dielectric constant tensor:
#      x y z
#    x 1.761620 0.000000 0.000000 
#    y 0.000000 1.752770 0.000000 
#    z 0.000000 0.000000 1.758760 
# 
# From -- ./inp_files/66408.got.cif
#   From: 2010.06.25/outbox.cif.g09.slc.cpg/sg71_34_cif.got.tgz:66408.got - 2010.06.28 04:59:45.
