data_PCOD8291117
_publ_section_title
;
Structure prediction by ZEFSAII (Michael W. Deem and Ramdas Pophale) SiO2 
 PCOD8291117
Probable space group: I M M M
;
_chemical_formula_sum "Si O2"
_cell_formula_units_Z 72
_cell_length_a 14.329473
_cell_length_b 30.023582
_cell_length_c 8.798052
_cell_angle_alpha 90.000000
_cell_angle_beta 90.000000
_cell_angle_gamma 90.000000
_cell_volume 3785.116474
_symmetry_space_group_name_H-M "I M M M"
_symmetry_group_IT_number 71
_symmetry_cell_setting 'orthorhombic'
loop_
_space_group_symop_operation_xyz
x,y,z
-x,-y,z
x,-y,-z
-x,y,-z
-x,-y,-z
x,y,-z
-x,y,z
x,-y,z
1/2+x,1/2+y,1/2+z
1/2-x,1/2-y,1/2+z
1/2+x,1/2-y,1/2-z
1/2-x,1/2+y,1/2-z
1/2-x,1/2-y,1/2-z
1/2+x,1/2+y,1/2-z
1/2-x,1/2+y,1/2+z
1/2+x,1/2-y,1/2+z
loop_
_atom_site_type_symbol
_atom_site_label
_atom_site_fract_x
_atom_site_fract_y
_atom_site_fract_z
Si Si1 0.500000 0.947042 0.170129
Si Si2 0.500000 0.235278 0.679957
Si Si3 0.187005 0.549620 0.176804
Si Si4 0.301100 0.366853 0.824445
Si Si5 0.000000 0.830726 0.675077
Si Si6 0.809251 0.710481 0.320810
O O1 0.593766 0.929388 0.249723
O O2 0.500000 0.000000 0.178050
O O3 0.500000 0.928505 0.000000
O O4 0.500000 0.230277 0.500000
O O5 0.500000 0.287355 0.720565
O O6 0.411349 0.210282 0.748777
O O7 0.210170 0.500000 0.241011
O O8 0.274077 0.582005 0.211935
O O9 0.166363 0.546624 0.000000
O O10 0.410219 0.360872 0.787767
O O11 0.240230 0.335863 0.715798
O O12 0.279629 0.354816 0.000000
O O13 0.000000 0.814829 0.500000
O O14 0.816284 0.717751 0.500000
O O15 0.750000 0.750000 0.250000
#
# Coordination Sequence:
#
# PCOD8291117 Si02
#       6
#     8   8  16  16   8  16
#     4   9  17  30  51  78 107 142 183 229 284 341
#     4  12  24  39  61  87 116 153 194 237 288 349
#     4   9  18  34  56  82 114 152 191 233 284 341
#     4  10  21  37  58  84 115 152 195 240 287 343
#     4  10  20  36  58  81 112 153 195 237 285 338
#     4  12  24  39  59  85 116 150 190 238 288 344
#
# _framework density 19.021871000000001
#
# number of rings (size 3 to 8) (size 9 to 14) (size 15 to 20)
#    0.000    1.667    2.222    3.333    0.000    3.111 
#    0.000    1.667    0.000    3.333    0.000    0.000 
#    0.000    6.222    0.000    0.000    0.000    0.000 
#
# Total GULP energy -446468.964667 kJ/mol
# GULP energy per Si atom -12401.915685 kJ/mol
# Density = 1.897858 g / cm^3
# Si number density = 19.021871 Si / 1000 Ang^3
#
#
#
# Elastic Constant Matrix: (Units=GPa)
#
#
# Indices 1 2 3 4 5 6 
#
# 1 165.7561 63.3780 57.8331 0.0013 -0.0017 -0.0008
# 2 63.3780 96.2183 38.8508 0.0007 -0.0021 -0.0013
# 3 57.8331 38.8508 109.5315 -0.0100 0.0163 0.0010
# 4 0.0013 0.0007 -0.0100 23.8406 0.0019 -0.0010
# 5 -0.0017 -0.0021 0.0163 0.0019 24.1235 -0.0016
# 6 -0.0008 -0.0013 0.0010 -0.0010 -0.0016 28.5726
#
#
#
# Elastic Compliance Matrix: (Units=1/GPa)
#
#
# Indices 1 2 3 4 5 6 
#
# 1 0.008855 -0.004604 -0.003042 -0.000002 0.000002 0.000000
# 2 -0.004604 0.014524 -0.002721 -0.000001 0.000003 0.000001
# 3 -0.003042 -0.002721 0.011701 0.000005 -0.000008 -0.000001
# 4 -0.000002 -0.000001 0.000005 0.041945 -0.000003 0.000001
# 5 0.000002 0.000003 -0.000008 -0.000003 0.041453 0.000002
# 6 0.000000 0.000001 -0.000001 0.000001 0.000002 0.034999
#
#
# Mechanical properties :
#
#
# Convention : Reuss Voigt Hill
#
# Bulk Modulus (GPa) = 69.70624 76.84774 73.27699
# Shear Modulus (GPa) = 27.93389 29.40361 28.66875
#
# Velocity S-wave (km/s) = 3.83628 3.93590 3.88641
# Velocity P-wave (km/s) = 7.50650 7.81937 7.66453
#
# Compressibility (1/GPa) = 0.01434592
#
# Stress axis : x y z
#
# Youngs Moduli (GPa) = 112.93191 68.84987 85.46133
#
# Poissons Ratio (x) = 0.31700 0.26000
# Poissons Ratio (y) = 0.51996 0.23252
# Poissons Ratio (z) = 0.34357 0.18732
#
# Static dielectric constant tensor:
#      x y z
#    x 3.712270 0.000000 0.000000 
#    y 0.000000 3.520280 -0.000010 
#    z 0.000000 -0.000010 3.538870 
# 
# 
# High freq. dielectric constant tensor:
#      x y z
#    x 1.745530 0.000000 0.000000 
#    y 0.000000 1.726520 0.000000 
#    z 0.000000 0.000000 1.738790 
# 
# From -- ./inp_files/6117.got.cif
#   From: 2010.06.25/outbox.cif.g09.slc.cpg/sg71_4_cif.got.tgz:6117.got - 2010.06.28 04:59:45.
