data_PCOD8291734
_publ_section_title
;
Structure prediction by ZEFSAII (Michael W. Deem and Ramdas Pophale) SiO2 
 PCOD8291734
Probable space group: I M M M
;
_chemical_formula_sum "Si O2"
_cell_formula_units_Z 88
_cell_length_a 18.315407
_cell_length_b 8.747628
_cell_length_c 28.565098
_cell_angle_alpha 90.000000
_cell_angle_beta 90.000000
_cell_angle_gamma 90.000000
_cell_volume 4576.596228
_symmetry_space_group_name_H-M "I M M M"
_symmetry_group_IT_number 71
_symmetry_cell_setting 'orthorhombic'
loop_
_space_group_symop_operation_xyz
x,y,z
-x,-y,z
x,-y,-z
-x,y,-z
-x,-y,-z
x,y,-z
-x,y,z
x,-y,z
1/2+x,1/2+y,1/2+z
1/2-x,1/2-y,1/2+z
1/2+x,1/2-y,1/2-z
1/2-x,1/2+y,1/2-z
1/2-x,1/2-y,1/2-z
1/2+x,1/2+y,1/2-z
1/2-x,1/2+y,1/2+z
1/2+x,1/2-y,1/2+z
loop_
_atom_site_type_symbol
_atom_site_label
_atom_site_fract_x
_atom_site_fract_y
_atom_site_fract_z
Si Si1 0.138201 0.679986 0.886948
Si Si2 0.500000 0.181944 0.553447
Si Si3 0.582636 0.324662 0.295571
Si Si4 0.790734 0.318871 0.383005
Si Si5 0.808710 0.176204 0.283315
Si Si6 0.080488 0.318329 0.447588
O O1 0.144236 0.500000 0.892027
O O2 0.125914 0.721936 0.832719
O O3 0.214720 0.752753 0.902843
O O4 0.072125 0.743184 0.919506
O O5 0.500000 0.243620 0.500000
O O6 0.500000 0.000000 0.553971
O O7 0.500000 0.266951 0.293798
O O8 0.589023 0.500000 0.312301
O O9 0.614177 0.306493 0.243329
O O10 0.785603 0.500000 0.384994
O O11 0.810148 0.268961 0.330908
O O12 0.856051 0.251707 0.414761
O O13 0.750000 0.250000 0.250000
O O14 0.789461 0.000000 0.293654
O O15 0.094078 0.257147 0.500000
O O16 0.083558 0.500000 0.447144
O O17 0.000000 0.264247 0.430113
#
# Coordination Sequence:
#
# PCOD8291734 Si02
#       6
#    16   8  16  16  16  16
#     4  11  21  35  57  81 107 149 195 233 279 340
#     4   9  20  38  57  81 113 147 189 241 290 339
#     4  10  21  37  57  79 107 144 185 232 282 330
#     4  11  22  35  56  87 119 148 185 239 289 336
#     4  11  22  36  55  80 112 150 186 225 275 333
#     4   8  16  34  59  84 112 148 189 233 283 338
#
# _framework density 19.228262999999998
#
# number of rings (size 3 to 8) (size 9 to 14) (size 15 to 20)
#    0.000    1.909    2.727    2.182    0.000    2.182 
#    0.000    0.000    0.000    7.091    0.000    5.091 
#    0.000    0.000    0.000    0.000    0.000    0.000 
#
# Total GULP energy -545582.861985 kJ/mol
# GULP energy per Si atom -12399.610500 kJ/mol
# Density = 1.918450 g / cm^3
# Si number density = 19.228263 Si / 1000 Ang^3
#
#
#
# Elastic Constant Matrix: (Units=GPa)
#
#
# Indices 1 2 3 4 5 6 
#
# 1 177.0863 37.6410 79.2900 0.0000 0.0000 0.0000
# 2 37.6410 55.9449 21.9894 0.0000 0.0000 0.0000
# 3 79.2900 21.9894 117.8527 0.0000 0.0000 0.0000
# 4 0.0000 0.0000 0.0000 19.6435 0.0000 0.0000
# 5 0.0000 0.0000 0.0000 0.0000 39.5248 0.0000
# 6 0.0000 0.0000 0.0000 0.0000 0.0000 23.3846
#
#
#
# Elastic Compliance Matrix: (Units=1/GPa)
#
#
# Indices 1 2 3 4 5 6 
#
# 1 0.008797 -0.003877 -0.005195 0.000000 0.000000 0.000000
# 2 -0.003877 0.020998 -0.001310 0.000000 0.000000 0.000000
# 3 -0.005195 -0.001310 0.012225 0.000000 0.000000 0.000000
# 4 0.000000 0.000000 0.000000 0.050907 0.000000 0.000000
# 5 0.000000 0.000000 0.000000 0.000000 0.025301 0.000000
# 6 0.000000 0.000000 0.000000 0.000000 0.000000 0.042763
#
#
# Mechanical properties :
#
#
# Convention : Reuss Voigt Hill
#
# Bulk Modulus (GPa) = 47.04448 69.85831 58.45139
# Shear Modulus (GPa) = 26.47742 30.64148 28.55945
#
# Velocity S-wave (km/s) = 3.71483 3.99628 3.85812
# Velocity P-wave (km/s) = 6.55129 7.59629 7.09306
#
# Compressibility (1/GPa) = 0.02125648
#
# Stress axis : x y z
#
# Youngs Moduli (GPa) = 113.67228 47.62378 81.80066
#
# Poissons Ratio (x) = 0.18463 0.42498
# Poissons Ratio (y) = 0.44070 0.10712
# Poissons Ratio (z) = 0.59056 0.06236
#
# Static dielectric constant tensor:
#      x y z
#    x 3.932920 0.000000 0.000000 
#    y 0.000000 3.296210 0.000000 
#    z 0.000000 0.000000 3.819820 
# 
# 
# High freq. dielectric constant tensor:
#      x y z
#    x 1.764940 0.000000 0.000000 
#    y 0.000000 1.726910 0.000000 
#    z 0.000000 0.000000 1.742700 
# 
# From -- ./inp_files/8743.got.cif
#   From: 2010.06.25/outbox.cif.g09.slc.cpg/sg71_5_cif.got.tgz:8743.got - 2010.06.28 04:59:45.
