data_PCOD8291506
_publ_section_title
;
Structure prediction by ZEFSAII (Michael W. Deem and Ramdas Pophale) SiO2 
 PCOD8291506
Probable space group: I M M M
;
_chemical_formula_sum "Si O2"
_cell_formula_units_Z 88
_cell_length_a 8.783064
_cell_length_b 18.249435
_cell_length_c 28.684561
_cell_angle_alpha 90.000000
_cell_angle_beta 90.000000
_cell_angle_gamma 90.000000
_cell_volume 4597.732270
_symmetry_space_group_name_H-M "I M M M"
_symmetry_group_IT_number 71
_symmetry_cell_setting 'orthorhombic'
loop_
_space_group_symop_operation_xyz
x,y,z
-x,-y,z
x,-y,-z
-x,y,-z
-x,-y,-z
x,y,-z
-x,y,z
x,-y,z
1/2+x,1/2+y,1/2+z
1/2-x,1/2-y,1/2+z
1/2+x,1/2-y,1/2-z
1/2-x,1/2+y,1/2-z
1/2-x,1/2-y,1/2-z
1/2+x,1/2+y,1/2-z
1/2-x,1/2+y,1/2+z
1/2+x,1/2-y,1/2+z
loop_
_atom_site_type_symbol
_atom_site_label
_atom_site_fract_x
_atom_site_fract_y
_atom_site_fract_z
Si Si1 0.680327 0.788637 0.884324
Si Si2 0.680963 0.919239 0.052271
Si Si3 0.180618 0.363418 0.885475
Si Si4 0.819014 0.500000 0.052957
Si Si5 0.320348 0.184278 0.221425
Si Si6 0.675825 0.585447 0.208812
O O1 0.500000 0.779200 0.889251
O O2 0.746081 0.855832 0.914672
O O3 0.758822 0.714723 0.903476
O O4 0.729456 0.807210 0.831854
O O5 0.500000 0.917231 0.053454
O O6 0.736523 0.000000 0.069147
O O7 0.740063 0.904570 0.000000
O O8 0.240324 0.427573 0.919995
O O9 0.244002 0.373813 0.833727
O O10 0.000000 0.363577 0.883524
O O11 0.000000 0.500000 0.051992
O O12 0.754608 0.500000 0.000000
O O13 0.500000 0.183545 0.226977
O O14 0.250000 0.250000 0.250000
O O15 0.252179 0.109297 0.242490
O O16 0.500000 0.608632 0.208819
O O17 0.699795 0.500000 0.202573
#
# Coordination Sequence:
#
# PCOD8291506 Si02
#       6
#    16  16  16   8  16  16
#     4  10  21  35  55  85 117 145 181 236 286 333
#     4   8  15  31  56  83 111 144 181 224 278 336
#     4  11  21  35  58  82 107 149 194 232 282 345
#     4   9  20  38  57  81 113 147 191 243 288 341
#     4  11  22  35  54  80 113 151 189 231 278 332
#     4  11  23  38  57  80 110 147 189 239 286 333
#
# _framework density 19.139869999999998
#
# number of rings (size 3 to 8) (size 9 to 14) (size 15 to 20)
#    0.000    1.909    2.727    2.182    0.000    3.273 
#    0.000    1.818    0.000    4.364    0.000    1.273 
#    0.000    0.000    0.000    0.000    0.000    0.000 
#
# Total GULP energy -545619.738754 kJ/mol
# GULP energy per Si atom -12400.448608 kJ/mol
# Density = 1.909631 g / cm^3
# Si number density = 19.139870 Si / 1000 Ang^3
#
#
#
# Elastic Constant Matrix: (Units=GPa)
#
#
# Indices 1 2 3 4 5 6 
#
# 1 47.3527 39.8119 28.1817 0.0000 0.0000 0.0000
# 2 39.8119 162.6587 88.0450 0.0000 0.0000 0.0000
# 3 28.1817 88.0450 119.5608 0.0000 0.0000 0.0000
# 4 0.0000 0.0000 0.0000 40.9580 0.0000 0.0000
# 5 0.0000 0.0000 0.0000 0.0000 16.7070 0.0000
# 6 0.0000 0.0000 0.0000 0.0000 0.0000 30.4736
#
#
#
# Elastic Compliance Matrix: (Units=1/GPa)
#
#
# Indices 1 2 3 4 5 6 
#
# 1 0.027029 -0.005266 -0.002493 0.000000 0.000000 0.000000
# 2 -0.005266 0.011249 -0.007042 0.000000 0.000000 0.000000
# 3 -0.002493 -0.007042 0.014138 0.000000 0.000000 0.000000
# 4 0.000000 0.000000 0.000000 0.024415 0.000000 0.000000
# 5 0.000000 0.000000 0.000000 0.000000 0.059855 0.000000
# 6 0.000000 0.000000 0.000000 0.000000 0.000000 0.032815
#
#
# Mechanical properties :
#
#
# Convention : Reuss Voigt Hill
#
# Bulk Modulus (GPa) = 43.83544 71.29438 57.56491
# Shear Modulus (GPa) = 24.18862 29.19660 26.69261
#
# Velocity S-wave (km/s) = 3.55883 3.90992 3.73850
# Velocity P-wave (km/s) = 6.31185 7.59693 6.98401
#
# Compressibility (1/GPa) = 0.02281259
#
# Stress axis : x y z
#
# Youngs Moduli (GPa) = 36.99670 88.89942 70.73375
#
# Poissons Ratio (x) = 0.46816 0.17634
# Poissons Ratio (y) = 0.19483 0.49813
# Poissons Ratio (z) = 0.09223 0.62605
#
# Static dielectric constant tensor:
#      x y z
#    x 3.316100 0.000000 0.000000 
#    y 0.000000 3.883040 0.000000 
#    z 0.000000 0.000000 3.862550 
# 
# 
# High freq. dielectric constant tensor:
#      x y z
#    x 1.720590 0.000000 0.000000 
#    y 0.000000 1.760490 0.000000 
#    z 0.000000 0.000000 1.741850 
# 
# From -- ./inp_files/67990.got.cif
#   From: 2010.06.25/outbox.cif.g09.slc.cpg/sg71_34_cif.got.tgz:67990.got - 2010.06.28 04:59:45.
