data_PCOD8291019
_publ_section_title
;
Structure prediction by ZEFSAII (Michael W. Deem and Ramdas Pophale) SiO2 
 PCOD8291019
Probable space group: I M M M
;
_chemical_formula_sum "Si O2"
_cell_formula_units_Z 56
_cell_length_a 10.551097
_cell_length_b 17.517469
_cell_length_c 15.588439
_cell_angle_alpha 90.000000
_cell_angle_beta 90.000000
_cell_angle_gamma 90.000000
_cell_volume 2881.188026
_symmetry_space_group_name_H-M "I M M M"
_symmetry_group_IT_number 71
_symmetry_cell_setting 'orthorhombic'
loop_
_space_group_symop_operation_xyz
x,y,z
-x,-y,z
x,-y,-z
-x,y,-z
-x,-y,-z
x,y,-z
-x,y,z
x,-y,z
1/2+x,1/2+y,1/2+z
1/2-x,1/2-y,1/2+z
1/2+x,1/2-y,1/2-z
1/2-x,1/2+y,1/2-z
1/2-x,1/2-y,1/2-z
1/2+x,1/2+y,1/2-z
1/2-x,1/2+y,1/2+z
1/2+x,1/2-y,1/2+z
loop_
_atom_site_type_symbol
_atom_site_label
_atom_site_fract_x
_atom_site_fract_y
_atom_site_fract_z
Si Si1 0.000000 0.909867 0.404648
Si Si2 0.140376 0.681282 0.000000
Si Si3 0.851073 0.415269 0.342142
Si Si4 0.151493 0.688845 0.500000
Si Si5 0.768392 0.409427 0.842941
O O1 0.876659 0.882075 0.353984
O O2 0.000000 0.873782 0.500000
O O3 0.000000 0.000000 0.413078
O O4 0.146180 0.628735 0.915647
O O5 0.259590 0.737709 0.000000
O O6 0.000000 0.720566 0.000000
O O7 0.791302 0.500000 0.355910
O O8 0.806729 0.359208 0.416946
O O9 0.809319 0.380696 0.250830
O O10 0.000000 0.423130 0.344404
O O11 0.000000 0.708675 0.500000
O O12 0.785137 0.500000 0.851810
#
# Coordination Sequence:
#
# PCOD8291019 Si02
#       5
#     8   8  16   8  16
#     4   9  16  30  52  83 117 147 183 226 275 340
#     4  12  25  37  54  84 123 156 186 233 287 345
#     4   9  18  37  64  89 110 140 192 248 288 331
#     4  10  23  41  61  83 112 157 198 231 283 343
#     4  10  20  35  59  87 116 148 190 240 288 337
#
# _framework density 19.436426999999998
#
# number of rings (size 3 to 8) (size 9 to 14) (size 15 to 20)
#    0.000    2.143    1.429    1.714    2.000    5.143 
#    2.571    0.000    0.000    0.857    0.000    0.000 
#    0.000    0.000    0.000    0.000    0.000    0.000 
#
# Total GULP energy -347112.129645 kJ/mol
# GULP energy per Si atom -12396.861773 kJ/mol
# Density = 1.939219 g / cm^3
# Si number density = 19.436427 Si / 1000 Ang^3
#
#
#
# Elastic Constant Matrix: (Units=GPa)
#
#
# Indices 1 2 3 4 5 6 
#
# 1 62.4170 32.7631 27.6444 0.0000 0.0000 0.0000
# 2 32.7631 65.1956 58.5143 0.0000 0.0000 0.0000
# 3 27.6444 58.5143 170.3681 0.0001 0.0000 0.0000
# 4 0.0000 0.0000 0.0001 -2.8500 0.0000 0.0000
# 5 0.0000 0.0000 0.0000 0.0000 30.2753 0.0000
# 6 0.0000 0.0000 0.0000 0.0000 0.0000 21.9929
#
#
#
# Elastic Compliance Matrix: (Units=1/GPa)
#
#
# Indices 1 2 3 4 5 6 
#
# 1 0.021774 -0.011234 0.000325 0.000000 0.000000 0.000000
# 2 -0.011234 0.027970 -0.007784 0.000000 0.000000 0.000000
# 3 0.000325 -0.007784 0.008490 0.000000 0.000000 0.000000
# 4 0.000000 0.000000 0.000000 -0.350876 0.000000 0.000000
# 5 0.000000 0.000000 0.000000 0.000000 0.033030 0.000000
# 6 0.000000 0.000000 0.000000 0.000000 0.000000 0.045469
#
#
# Mechanical properties :
#
#
# Convention : Reuss Voigt Hill
#
# Bulk Modulus (GPa) = 47.96335 59.53606 53.74971
# Shear Modulus (GPa) = -29.44519 21.82089 -3.81215
#
# Velocity S-wave (km/s) = -3.89646 3.35428 -1.40200
# Velocity P-wave (km/s) = 2.11836 6.76012 5.00933
#
# Compressibility (1/GPa) = 0.02084925
#
# Stress axis : x y z
#
# Youngs Moduli (GPa) = 45.92607 35.75248 117.78285
#
# Poissons Ratio (x) = 0.40166 -0.03832
# Poissons Ratio (y) = 0.51595 0.91678
# Poissons Ratio (z) = -0.01494 0.27828
#
# Static dielectric constant tensor:
#      x y z
#    x 3.547610 0.000000 0.000000 
#    y 0.000000 3.470510 0.000000 
#    z 0.000000 0.000000 3.969190 
# 
# 
# High freq. dielectric constant tensor:
#      x y z
#    x 1.747760 0.000000 0.000000 
#    y 0.000000 1.736640 0.000000 
#    z 0.000000 0.000000 1.766460 
# 
# From -- ./inp_files/23143.got.cif
#   From: 2010.06.25/outbox.cif.g09.slc.cpg/sg71_12_cif.got.tgz:23143.got - 2010.06.28 04:59:45.
