data_PCOD8291044
_publ_section_title
;
Structure prediction by ZEFSAII (Michael W. Deem and Ramdas Pophale) SiO2 
 PCOD8291044
Probable space group: I M M M
;
_chemical_formula_sum "Si O2"
_cell_formula_units_Z 80
_cell_length_a 20.101959
_cell_length_b 11.506632
_cell_length_c 17.338951
_cell_angle_alpha 90.000000
_cell_angle_beta 90.000000
_cell_angle_gamma 90.000000
_cell_volume 4010.600707
_symmetry_space_group_name_H-M "I M M M"
_symmetry_group_IT_number 71
_symmetry_cell_setting 'orthorhombic'
loop_
_space_group_symop_operation_xyz
x,y,z
-x,-y,z
x,-y,-z
-x,y,-z
-x,-y,-z
x,y,-z
-x,y,z
x,-y,z
1/2+x,1/2+y,1/2+z
1/2-x,1/2-y,1/2+z
1/2+x,1/2-y,1/2-z
1/2-x,1/2+y,1/2-z
1/2-x,1/2-y,1/2-z
1/2+x,1/2+y,1/2-z
1/2-x,1/2+y,1/2+z
1/2+x,1/2-y,1/2+z
loop_
_atom_site_type_symbol
_atom_site_label
_atom_site_fract_x
_atom_site_fract_y
_atom_site_fract_z
Si Si1 0.188247 0.000000 0.909320
Si Si2 0.578412 0.500000 0.718229
Si Si3 0.760163 0.264702 0.413575
Si Si4 0.500000 0.126893 0.632239
Si Si5 0.358786 0.862050 0.643947
Si Si6 0.500000 0.128577 0.184164
Si Si7 0.124732 0.233493 0.702431
O O1 0.232586 0.110811 0.885698
O O2 0.119763 0.000000 0.861434
O O3 0.170155 0.000000 0.000000
O O4 0.500000 0.500000 0.697926
O O5 0.596599 0.388932 0.769281
O O6 0.788488 0.273025 0.500000
O O7 0.699374 0.173022 0.413833
O O8 0.816934 0.214941 0.358730
O O9 0.570048 0.188480 0.609910
O O10 0.500000 0.118916 0.724187
O O11 0.500000 0.000000 0.593611
O O12 0.344463 0.806843 0.727228
O O13 0.364275 0.000000 0.653418
O O14 0.433881 0.196956 0.158430
O O15 0.500000 0.000000 0.146482
#
# Coordination Sequence:
#
# PCOD8291044 Si02
#       7
#     8   8  16   8  16   8  16
#     4  10  24  43  62  90 129 166 204 247 307 378
#     4  12  24  41  67  96 123 160 213 256 304 375
#     4  11  25  41  58  85 124 165 202 250 307 367
#     4   7  14  30  52  84 112 137 176 242 287 333
#     4  10  20  35  62  90 116 150 202 247 305 360
#     4   9  18  35  60  90 115 146 193 252 314 350
#     4  11  22  38  63  90 121 154 203 259 306 357
#
# _framework density 19.947136
#
# number of rings (size 3 to 8) (size 9 to 14) (size 15 to 20)
#    0.000    1.800    3.000    2.400    4.200    0.600 
#    0.000    1.000    0.000    3.000    0.000    0.000 
#    0.000    0.800    0.000    0.000    0.000    0.000 
#
# Total GULP energy -495832.382332 kJ/mol
# GULP energy per Si atom -12395.809558 kJ/mol
# Density = 1.990174 g / cm^3
# Si number density = 19.947136 Si / 1000 Ang^3
#
#
#
# Elastic Constant Matrix: (Units=GPa)
#
#
# Indices 1 2 3 4 5 6 
#
# 1 133.2416 35.9240 43.7585 0.0000 0.0000 0.0000
# 2 35.9240 101.0425 22.7983 0.0000 0.0000 0.0000
# 3 43.7585 22.7983 56.5413 0.0000 0.0000 0.0000
# 4 0.0000 0.0000 0.0000 11.6686 0.0000 0.0000
# 5 0.0000 0.0000 0.0000 0.0000 5.9439 0.0000
# 6 0.0000 0.0000 0.0000 0.0000 0.0000 29.6131
#
#
#
# Elastic Compliance Matrix: (Units=1/GPa)
#
#
# Indices 1 2 3 4 5 6 
#
# 1 0.010445 -0.002079 -0.007246 0.000000 0.000000 0.000000
# 2 -0.002079 0.011301 -0.002948 0.000000 0.000000 0.000000
# 3 -0.007246 -0.002948 0.024482 0.000000 0.000000 0.000000
# 4 0.000000 0.000000 0.000000 0.085700 0.000000 0.000000
# 5 0.000000 0.000000 0.000000 0.000000 0.168241 0.000000
# 6 0.000000 0.000000 0.000000 0.000000 0.000000 0.033769
#
#
# Mechanical properties :
#
#
# Convention : Reuss Voigt Hill
#
# Bulk Modulus (GPa) = 46.11697 55.08745 50.60221
# Shear Modulus (GPa) = 13.67201 22.00142 17.83672
#
# Velocity S-wave (km/s) = 2.62088 3.32473 2.99356
# Velocity P-wave (km/s) = 5.68581 6.51269 6.11325
#
# Compressibility (1/GPa) = 0.02168399
#
# Stress axis : x y z
#
# Youngs Moduli (GPa) = 95.73798 88.48739 40.84585
#
# Poissons Ratio (x) = 0.18395 0.29595
# Poissons Ratio (y) = 0.19902 0.12041
# Poissons Ratio (z) = 0.69367 0.26086
#
# Static dielectric constant tensor:
#      x y z
#    x 3.904970 0.000000 0.000000 
#    y 0.000000 3.770240 0.000000 
#    z 0.000000 0.000000 3.171860 
# 
# 
# High freq. dielectric constant tensor:
#      x y z
#    x 1.791570 0.000000 0.000000 
#    y 0.000000 1.783100 0.000000 
#    z 0.000000 0.000000 1.735560 
# 
# From -- ./inp_files/47081.got.cif
#   From: 2010.06.25/outbox.cif.g09.slc.cpg/sg71_24_cif.got.tgz:47081.got - 2010.06.28 04:59:45.
