data_PCOD8291445
_publ_section_title
;
Structure prediction by ZEFSAII (Michael W. Deem and Ramdas Pophale) SiO2 
 PCOD8291445
Probable space group: I M M M
;
_chemical_formula_sum "Si O2"
_cell_formula_units_Z 112
_cell_length_a 14.726173
_cell_length_b 31.503861
_cell_length_c 13.033869
_cell_angle_alpha 90.000000
_cell_angle_beta 90.000000
_cell_angle_gamma 90.000000
_cell_volume 6046.819884
_symmetry_space_group_name_H-M "I M M M"
_symmetry_group_IT_number 71
_symmetry_cell_setting 'orthorhombic'
loop_
_space_group_symop_operation_xyz
x,y,z
-x,-y,z
x,-y,-z
-x,y,-z
-x,-y,-z
x,y,-z
-x,y,z
x,-y,z
1/2+x,1/2+y,1/2+z
1/2-x,1/2-y,1/2+z
1/2+x,1/2-y,1/2-z
1/2-x,1/2+y,1/2-z
1/2-x,1/2-y,1/2-z
1/2+x,1/2+y,1/2-z
1/2-x,1/2+y,1/2+z
1/2+x,1/2-y,1/2+z
loop_
_atom_site_type_symbol
_atom_site_label
_atom_site_fract_x
_atom_site_fract_y
_atom_site_fract_z
Si Si1 0.742219 0.882462 0.384404
Si Si2 0.104316 0.655286 0.273011
Si Si3 0.601027 0.069391 0.118590
Si Si4 0.104881 0.171079 0.696212
Si Si5 0.107019 0.738623 0.384433
Si Si6 0.727217 0.547238 0.270350
Si Si7 0.604842 0.386309 0.383273
O O1 0.709085 0.888888 0.500000
O O2 0.663686 0.856961 0.325352
O O3 0.835670 0.856120 0.382711
O O4 0.762182 0.928759 0.337471
O O5 0.114008 0.619296 0.359359
O O6 0.145428 0.697971 0.323397
O O7 0.000000 0.661064 0.237188
O O8 0.500000 0.054777 0.151843
O O9 0.673294 0.041940 0.180582
O O10 0.617157 0.061106 0.000000
O O11 0.132137 0.220230 0.683479
O O12 0.125288 0.154963 0.812485
O O13 0.000000 0.163935 0.666410
O O14 0.148393 0.741834 0.500000
O O15 0.000000 0.733159 0.394519
O O16 0.687383 0.500000 0.252086
O O17 0.662395 0.573299 0.346789
O O18 0.631358 0.374574 0.500000
O O19 0.500000 0.399527 0.374746
#
# Coordination Sequence:
#
# PCOD8291445 Si02
#       7
#    16  16  16  16  16  16  16
#     4  10  21  36  53  71  94 129 168 203 248 300
#     4   9  18  32  49  72 102 132 165 203 240 286
#     4   9  17  30  49  72  99 129 156 189 241 297
#     4   9  18  33  52  75 102 130 165 206 242 282
#     4   9  16  28  50  77 103 133 168 206 246 284
#     4  10  21  35  51  73  98 122 158 207 249 293
#     4   9  18  33  52  73 101 136 165 192 237 296
#
# _framework density 18.522133
#
# number of rings (size 3 to 8) (size 9 to 14) (size 15 to 20)
#    0.000    2.714    0.000    1.286    0.000    5.429 
#    0.000    2.857    0.000    2.571    0.000    8.000 
#    0.000    0.000    0.000    0.000    0.000    0.000 
#
# Total GULP energy -694280.874795 kJ/mol
# GULP energy per Si atom -12397.872764 kJ/mol
# Density = 1.847998 g / cm^3
# Si number density = 18.522133 Si / 1000 Ang^3
#
#
#
# Elastic Constant Matrix: (Units=GPa)
#
#
# Indices 1 2 3 4 5 6 
#
# 1 51.7884 23.4201 28.1100 0.0004 -0.0003 0.0000
# 2 23.4201 124.0674 52.8342 -0.0006 -0.0003 0.0001
# 3 28.1100 52.8342 120.7715 -0.0051 0.0013 0.0000
# 4 0.0004 -0.0006 -0.0051 13.1759 0.0004 0.0000
# 5 -0.0003 -0.0003 0.0013 0.0004 21.8117 -0.0001
# 6 0.0000 0.0001 0.0000 0.0000 -0.0001 18.4328
#
#
#
# Elastic Compliance Matrix: (Units=1/GPa)
#
#
# Indices 1 2 3 4 5 6 
#
# 1 0.022717 -0.002503 -0.004192 -0.000002 0.000000 0.000000
# 2 -0.002503 0.010181 -0.003871 -0.000001 0.000000 0.000000
# 3 -0.004192 -0.003871 0.010950 0.000004 -0.000001 0.000000
# 4 -0.000002 -0.000001 0.000004 0.075896 -0.000002 0.000000
# 5 0.000000 0.000000 -0.000001 -0.000002 0.045847 0.000000
# 6 0.000000 0.000000 0.000000 0.000000 0.000000 0.054251
#
#
# Mechanical properties :
#
#
# Convention : Reuss Voigt Hill
#
# Bulk Modulus (GPa) = 44.02565 56.15065 50.08815
# Shear Modulus (GPa) = 20.11693 23.50161 21.80927
#
# Velocity S-wave (km/s) = 3.29918 3.56594 3.43515
# Velocity P-wave (km/s) = 6.19141 6.88010 6.54482
#
# Compressibility (1/GPa) = 0.02271403
#
# Stress axis : x y z
#
# Youngs Moduli (GPa) = 44.02023 98.21965 91.32777
#
# Poissons Ratio (x) = 0.24583 0.38289
# Poissons Ratio (y) = 0.11018 0.35357
# Poissons Ratio (z) = 0.18455 0.38025
#
# Static dielectric constant tensor:
#      x y z
#    x 3.461780 0.000000 0.000000 
#    y 0.000000 3.402390 0.000000 
#    z 0.000000 0.000000 3.283990 
# 
# 
# High freq. dielectric constant tensor:
#      x y z
#    x 1.716210 0.000000 0.000000 
#    y 0.000000 1.714700 0.000000 
#    z 0.000000 0.000000 1.705170 
# 
# From -- ./inp_files/22687.got.cif
#   From: 2010.06.25/outbox.cif.g09.slc.cpg/sg71_12_cif.got.tgz:22687.got - 2010.06.28 04:59:45.
