data_PCOD8291064
_publ_section_title
;
Structure prediction by ZEFSAII (Michael W. Deem and Ramdas Pophale) SiO2 
 PCOD8291064
Probable space group: I M M M
;
_chemical_formula_sum "Si O2"
_cell_formula_units_Z 96
_cell_length_a 24.188790
_cell_length_b 8.847758
_cell_length_c 23.681047
_cell_angle_alpha 90.000000
_cell_angle_beta 90.000000
_cell_angle_gamma 90.000000
_cell_volume 5068.136222
_symmetry_space_group_name_H-M "I M M M"
_symmetry_group_IT_number 71
_symmetry_cell_setting 'orthorhombic'
loop_
_space_group_symop_operation_xyz
x,y,z
-x,-y,z
x,-y,-z
-x,y,-z
-x,-y,-z
x,y,-z
-x,y,z
x,-y,z
1/2+x,1/2+y,1/2+z
1/2-x,1/2-y,1/2+z
1/2+x,1/2-y,1/2-z
1/2-x,1/2+y,1/2-z
1/2-x,1/2-y,1/2-z
1/2+x,1/2+y,1/2-z
1/2-x,1/2+y,1/2+z
1/2+x,1/2-y,1/2+z
loop_
_atom_site_type_symbol
_atom_site_label
_atom_site_fract_x
_atom_site_fract_y
_atom_site_fract_z
Si Si1 0.562604 0.675849 0.150122
Si Si2 0.156056 0.179309 0.141321
Si Si3 0.842705 0.822200 0.732392
Si Si4 0.268834 0.678282 0.131219
Si Si5 0.563448 0.177008 0.564548
Si Si6 0.864120 0.326901 0.434516
O O1 0.500000 0.712679 0.166514
O O2 0.571653 0.500000 0.135635
O O3 0.599822 0.725093 0.203243
O O4 0.579804 0.773525 0.095931
O O5 0.156713 0.248555 0.204986
O O6 0.212488 0.238538 0.113516
O O7 0.102970 0.234729 0.107096
O O8 0.154981 0.000000 0.140933
O O9 0.791469 0.766589 0.693004
O O10 0.838404 0.000000 0.738297
O O11 0.259200 0.500000 0.130053
O O12 0.313532 0.721597 0.084284
O O13 0.576930 0.224001 0.500000
O O14 0.500000 0.219188 0.578812
O O15 0.573318 0.000000 0.572552
O O16 0.874634 0.304632 0.500000
O O17 0.850759 0.500000 0.418946
#
# Coordination Sequence:
#
# PCOD8291064 Si02
#       6
#    16  16  16  16  16  16
#     4   9  18  34  55  77 104 140 180 217 254 305
#     4  11  21  33  55  85 111 135 168 211 260 314
#     4   8  17  33  52  77 108 140 172 211 259 305
#     4  10  20  36  56  76 104 141 178 214 254 307
#     4   9  20  40  60  76 101 138 177 216 256 301
#     4  10  21  36  53  75 105 138 174 221 271 311
#
# _framework density 18.941873999999999
#
# number of rings (size 3 to 8) (size 9 to 14) (size 15 to 20)
#    0.000    2.500    0.000    3.500    0.000    4.000 
#    0.000   11.667    0.000    0.000    0.000    0.000 
#    0.000    0.000    0.000    0.000    0.000    0.000 
#
# Total GULP energy -595137.642668 kJ/mol
# GULP energy per Si atom -12398.700889 kJ/mol
# Density = 1.889876 g / cm^3
# Si number density = 18.941874 Si / 1000 Ang^3
#
#
#
# Elastic Constant Matrix: (Units=GPa)
#
#
# Indices 1 2 3 4 5 6 
#
# 1 116.5663 35.2581 28.1797 0.0000 0.0000 0.0000
# 2 35.2581 56.3406 29.4586 0.0000 0.0000 0.0000
# 3 28.1797 29.4586 60.1814 0.0000 0.0000 0.0000
# 4 0.0000 0.0000 0.0000 26.4651 0.0000 0.0000
# 5 0.0000 0.0000 0.0000 0.0000 21.7834 0.0000
# 6 0.0000 0.0000 0.0000 0.0000 0.0000 29.8244
#
#
#
# Elastic Compliance Matrix: (Units=1/GPa)
#
#
# Indices 1 2 3 4 5 6 
#
# 1 0.010825 -0.005542 -0.002356 0.000000 0.000000 0.000000
# 2 -0.005542 0.026692 -0.010471 0.000000 0.000000 0.000000
# 3 -0.002356 -0.010471 0.022845 0.000000 0.000000 0.000000
# 4 0.000000 0.000000 0.000000 0.037786 0.000000 0.000000
# 5 0.000000 0.000000 0.000000 0.000000 0.045906 0.000000
# 6 0.000000 0.000000 0.000000 0.000000 0.000000 0.033530
#
#
# Mechanical properties :
#
#
# Convention : Reuss Voigt Hill
#
# Bulk Modulus (GPa) = 42.32892 46.54235 44.43563
# Shear Modulus (GPa) = 22.50268 24.96071 23.73169
#
# Velocity S-wave (km/s) = 3.45046 3.63402 3.54343
# Velocity P-wave (km/s) = 6.18623 6.49867 6.34437
#
# Compressibility (1/GPa) = 0.02362451
#
# Stress axis : x y z
#
# Youngs Moduli (GPa) = 92.38115 37.46385 43.77366
#
# Poissons Ratio (x) = 0.20764 0.10311
# Poissons Ratio (y) = 0.51202 0.45834
# Poissons Ratio (z) = 0.21762 0.39227
#
# Static dielectric constant tensor:
#      x y z
#    x 3.508740 0.000000 0.000000 
#    y 0.000000 3.345390 0.000000 
#    z 0.000000 0.000000 3.604320 
# 
# 
# High freq. dielectric constant tensor:
#      x y z
#    x 1.741460 0.000000 0.000000 
#    y 0.000000 1.724800 0.000000 
#    z 0.000000 0.000000 1.732490 
# 
# From -- ./inp_files/12838.got.cif
#   From: 2010.06.25/outbox.cif.g09.slc.cpg/sg71_7_cif.got.tgz:12838.got - 2010.06.28 04:59:45.
