data_PCOD8291852
_publ_section_title
;
Structure prediction by ZEFSAII (Michael W. Deem and Ramdas Pophale) SiO2 
 PCOD8291852
Probable space group: I M M M
;
_chemical_formula_sum "Si O2"
_cell_formula_units_Z 104
_cell_length_a 25.453793
_cell_length_b 8.544724
_cell_length_c 24.242789
_cell_angle_alpha 90.000000
_cell_angle_beta 90.000000
_cell_angle_gamma 90.000000
_cell_volume 5272.700810
_symmetry_space_group_name_H-M "I M M M"
_symmetry_group_IT_number 71
_symmetry_cell_setting 'orthorhombic'
loop_
_space_group_symop_operation_xyz
x,y,z
-x,-y,z
x,-y,-z
-x,y,-z
-x,-y,-z
x,y,-z
-x,y,z
x,-y,z
1/2+x,1/2+y,1/2+z
1/2-x,1/2-y,1/2+z
1/2+x,1/2-y,1/2-z
1/2-x,1/2+y,1/2-z
1/2-x,1/2-y,1/2-z
1/2+x,1/2+y,1/2-z
1/2-x,1/2+y,1/2+z
1/2+x,1/2-y,1/2+z
loop_
_atom_site_type_symbol
_atom_site_label
_atom_site_fract_x
_atom_site_fract_y
_atom_site_fract_z
Si Si1 0.305959 0.180977 0.736896
Si Si2 0.061008 0.173204 0.500000
Si Si3 0.657528 0.320626 0.154903
Si Si4 0.941051 0.685028 0.937731
Si Si5 0.841451 0.183756 0.123037
Si Si6 0.235350 0.314561 0.564103
Si Si7 0.939647 0.680323 0.387550
O O1 0.250000 0.250000 0.750000
O O2 0.336652 0.207796 0.793080
O O3 0.333398 0.266759 0.686042
O O4 0.302075 0.000000 0.721789
O O5 0.076719 0.283179 0.449820
O O6 0.000000 0.138609 0.500000
O O7 0.088983 0.000000 0.500000
O O8 0.671711 0.500000 0.168468
O O9 0.691176 0.266028 0.101923
O O10 0.595395 0.301695 0.146279
O O11 0.937704 0.500000 0.935756
O O12 0.897082 0.751695 0.897344
O O13 0.000000 0.738572 0.919306
O O14 0.930277 0.744803 0.000000
O O15 0.792725 0.242709 0.085275
O O16 0.844565 0.000000 0.119794
O O17 0.228422 0.263777 0.500000
O O18 0.229758 0.500000 0.570767
O O19 0.926201 0.500000 0.374762
O O20 0.000000 0.718045 0.374477
#
# Coordination Sequence:
#
# PCOD8291852 Si02
#       7
#    16   8  16  16  16  16  16
#     4  12  24  42  65  89 118 157 204 251 301 362
#     4   9  17  31  53  81 111 145 189 237 282 337
#     4  12  25  40  61  88 119 157 200 248 302 357
#     4   9  19  37  61  91 130 174 215 256 307 369
#     4  11  22  38  63  93 124 161 205 255 308 362
#     4  10  22  39  59  86 123 162 198 244 302 362
#     4  10  21  38  59  82 112 152 194 238 293 353
#
# _framework density 19.724236999999999
#
# number of rings (size 3 to 8) (size 9 to 14) (size 15 to 20)
#    0.000    1.462    1.538    4.846    1.077    4.000 
#    0.000    1.538    0.000    4.615    0.000    0.000 
#    0.000    0.000    0.000    0.000    0.000    0.000 
#
# Total GULP energy -644566.666295 kJ/mol
# GULP energy per Si atom -12395.512813 kJ/mol
# Density = 1.967934 g / cm^3
# Si number density = 19.724237 Si / 1000 Ang^3
#
#
#
# Elastic Constant Matrix: (Units=GPa)
#
#
# Indices 1 2 3 4 5 6 
#
# 1 132.4345 28.5643 56.9494 0.0000 0.0000 0.0000
# 2 28.5643 40.1502 2.7345 0.0000 0.0000 0.0000
# 3 56.9494 2.7345 110.4222 0.0000 0.0000 0.0000
# 4 0.0000 0.0000 0.0000 31.9686 0.0000 0.0000
# 5 0.0000 0.0000 0.0000 0.0000 26.6072 0.0000
# 6 0.0000 0.0000 0.0000 0.0000 0.0000 33.1186
#
#
#
# Elastic Compliance Matrix: (Units=1/GPa)
#
#
# Indices 1 2 3 4 5 6 
#
# 1 0.011811 -0.008001 -0.005893 0.000000 0.000000 0.000000
# 2 -0.008001 0.030369 0.003375 0.000000 0.000000 0.000000
# 3 -0.005893 0.003375 0.012012 0.000000 0.000000 0.000000
# 4 0.000000 0.000000 0.000000 0.031281 0.000000 0.000000
# 5 0.000000 0.000000 0.000000 0.000000 0.037584 0.000000
# 6 0.000000 0.000000 0.000000 0.000000 0.000000 0.030194
#
#
# Mechanical properties :
#
#
# Convention : Reuss Voigt Hill
#
# Bulk Modulus (GPa) = 30.16417 51.05591 40.61004
# Shear Modulus (GPa) = 26.97724 31.32280 29.15002
#
# Velocity S-wave (km/s) = 3.70228 3.98934 3.84849
# Velocity P-wave (km/s) = 5.79672 6.86737 6.35464
#
# Compressibility (1/GPa) = 0.03315191
#
# Stress axis : x y z
#
# Youngs Moduli (GPa) = 84.66783 32.92830 83.25036
#
# Poissons Ratio (x) = 0.26347 0.49061
# Poissons Ratio (y) = 0.67745 -0.28093
# Poissons Ratio (z) = 0.49897 -0.11112
#
# Static dielectric constant tensor:
#      x y z
#    x 3.751710 0.000000 0.000000 
#    y 0.000000 3.511150 0.000000 
#    z 0.000000 0.000000 3.197470 
# 
# 
# High freq. dielectric constant tensor:
#      x y z
#    x 1.774110 0.000000 0.000000 
#    y 0.000000 1.772580 0.000000 
#    z 0.000000 0.000000 1.764850 
# 
# From -- ./inp_files/61944.got.cif
#   From: 2010.06.25/outbox.cif.g09.slc.cpg/sg71_31_cif.got.tgz:61944.got - 2010.06.28 04:59:45.
