data_PCOD8291151
_publ_section_title
;
Structure prediction by ZEFSAII (Michael W. Deem and Ramdas Pophale) SiO2 
 PCOD8291151
Probable space group: I M M M
;
_chemical_formula_sum "Si O2"
_cell_formula_units_Z 64
_cell_length_a 12.486447
_cell_length_b 9.299343
_cell_length_c 29.605920
_cell_angle_alpha 90.000000
_cell_angle_beta 90.000000
_cell_angle_gamma 90.000000
_cell_volume 3437.713709
_symmetry_space_group_name_H-M "I M M M"
_symmetry_group_IT_number 71
_symmetry_cell_setting 'orthorhombic'
loop_
_space_group_symop_operation_xyz
x,y,z
-x,-y,z
x,-y,-z
-x,y,-z
-x,-y,-z
x,y,-z
-x,y,z
x,-y,z
1/2+x,1/2+y,1/2+z
1/2-x,1/2-y,1/2+z
1/2+x,1/2-y,1/2-z
1/2-x,1/2+y,1/2-z
1/2-x,1/2-y,1/2-z
1/2+x,1/2+y,1/2-z
1/2-x,1/2+y,1/2+z
1/2+x,1/2-y,1/2+z
loop_
_atom_site_type_symbol
_atom_site_label
_atom_site_fract_x
_atom_site_fract_y
_atom_site_fract_z
Si Si1 0.872344 0.671606 0.000000
Si Si2 0.235925 0.667715 0.322529
Si Si3 0.763844 0.670520 0.576162
Si Si4 0.500000 0.169923 0.050060
Si Si5 0.620464 0.342134 0.241377
O O1 0.814983 0.741089 0.043632
O O2 0.854482 0.500000 0.000000
O O3 0.000000 0.707619 0.000000
O O4 0.212567 0.500000 0.321733
O O5 0.271100 0.711084 0.372960
O O6 0.323618 0.721971 0.286285
O O7 0.129631 0.747007 0.304203
O O8 0.752326 0.500000 0.565440
O O9 0.888664 0.720941 0.572920
O O10 0.500000 0.000000 0.049211
O O11 0.500000 0.234949 0.000000
O O12 0.500000 0.352100 0.256417
O O13 0.667835 0.500000 0.230868
#
# Coordination Sequence:
#
# PCOD8291151 Si02
#       5
#     8  16  16   8  16
#     4  11  25  42  57  78 112 147 180 223 272 325
#     4   9  19  33  53  80 106 136 180 225 264 313
#     4  10  20  36  59  84 109 142 184 228 273 322
#     4   9  16  30  54  82 112 136 166 224 282 317
#     4   9  18  33  50  72 108 146 178 218 266 314
#
# _framework density 18.617023
#
# number of rings (size 3 to 8) (size 9 to 14) (size 15 to 20)
#    0.000    2.500    1.250    0.375    1.750    3.500 
#    0.000    3.750    0.000    0.000    0.000    0.000 
#    0.000    0.000    0.000    0.000    0.000    0.000 
#
# Total GULP energy -396421.703185 kJ/mol
# GULP energy per Si atom -12388.178225 kJ/mol
# Density = 1.857465 g / cm^3
# Si number density = 18.617023 Si / 1000 Ang^3
#
#
#
# Elastic Constant Matrix: (Units=GPa)
#
#
# Indices 1 2 3 4 5 6 
#
# 1 107.1596 46.5731 55.9511 0.0000 0.0000 0.0000
# 2 46.5731 57.6717 63.0646 0.0000 0.0000 0.0000
# 3 55.9511 63.0646 167.1048 0.0000 0.0000 0.0000
# 4 0.0000 0.0000 0.0000 28.4982 0.0000 0.0000
# 5 0.0000 0.0000 0.0000 0.0000 17.1610 0.0000
# 6 0.0000 0.0000 0.0000 0.0000 0.0000 25.5158
#
#
#
# Elastic Compliance Matrix: (Units=1/GPa)
#
#
# Indices 1 2 3 4 5 6 
#
# 1 0.014432 -0.010847 -0.000739 0.000000 0.000000 0.000000
# 2 -0.010847 0.037676 -0.010587 0.000000 0.000000 0.000000
# 3 -0.000739 -0.010587 0.010227 0.000000 0.000000 0.000000
# 4 0.000000 0.000000 0.000000 0.035090 0.000000 0.000000
# 5 0.000000 0.000000 0.000000 0.000000 0.058272 0.000000
# 6 0.000000 0.000000 0.000000 0.000000 0.000000 0.039191
#
#
# Mechanical properties :
#
#
# Convention : Reuss Voigt Hill
#
# Bulk Modulus (GPa) = 55.58643 73.67932 64.63287
# Shear Modulus (GPa) = 20.38915 25.32482 22.85698
#
# Velocity S-wave (km/s) = 3.31295 3.69223 3.50772
# Velocity P-wave (km/s) = 6.67509 7.60520 7.15527
#
# Compressibility (1/GPa) = 0.01799000
#
# Stress axis : x y z
#
# Youngs Moduli (GPa) = 69.29215 26.54230 97.78022
#
# Poissons Ratio (x) = 0.28790 0.07222
# Poissons Ratio (y) = 0.75159 1.03519
# Poissons Ratio (z) = 0.05118 0.28100
#
# Static dielectric constant tensor:
#      x y z
#    x 3.501700 0.000000 0.000000 
#    y 0.000000 3.429040 0.000000 
#    z 0.000000 0.000000 3.654720 
# 
# 
# High freq. dielectric constant tensor:
#      x y z
#    x 1.718950 0.000000 0.000000 
#    y 0.000000 1.702230 0.000000 
#    z 0.000000 0.000000 1.730680 
# 
# From -- ./inp_files/31358.got.cif
#   From: 2010.06.25/outbox.cif.g09.slc.cpg/sg71_16_cif.got.tgz:31358.got - 2010.06.28 04:59:45.
