data_PCOD8291393
_publ_section_title
;
Structure prediction by ZEFSAII (Michael W. Deem and Ramdas Pophale) SiO2 
 PCOD8291393
Probable space group: I M M M
;
_chemical_formula_sum "Si O2"
_cell_formula_units_Z 80
_cell_length_a 9.554275
_cell_length_b 30.169358
_cell_length_c 18.367005
_cell_angle_alpha 90.000000
_cell_angle_beta 90.000000
_cell_angle_gamma 90.000000
_cell_volume 5294.222021
_symmetry_space_group_name_H-M "I M M M"
_symmetry_group_IT_number 71
_symmetry_cell_setting 'orthorhombic'
loop_
_space_group_symop_operation_xyz
x,y,z
-x,-y,z
x,-y,-z
-x,y,-z
-x,-y,-z
x,y,-z
-x,y,z
x,-y,z
1/2+x,1/2+y,1/2+z
1/2-x,1/2-y,1/2+z
1/2+x,1/2-y,1/2-z
1/2-x,1/2+y,1/2-z
1/2-x,1/2-y,1/2-z
1/2+x,1/2+y,1/2-z
1/2-x,1/2+y,1/2+z
1/2+x,1/2-y,1/2+z
loop_
_atom_site_type_symbol
_atom_site_label
_atom_site_fract_x
_atom_site_fract_y
_atom_site_fract_z
Si Si1 0.661338 0.733150 0.000000
Si Si2 0.000000 0.950214 0.913859
Si Si3 0.836699 0.815418 0.230592
Si Si4 0.251903 0.391026 0.631235
Si Si5 0.657948 0.837372 0.000000
Si Si6 0.335622 0.227774 0.643103
Si Si7 0.500000 0.052304 0.912391
O O1 0.749108 0.717616 0.930020
O O2 0.500000 0.714493 0.000000
O O3 0.653033 0.785393 0.000000
O O4 0.128636 0.925321 0.881841
O O5 0.000000 0.000000 0.884271
O O6 0.000000 0.949497 0.000000
O O7 0.780611 0.863409 0.204673
O O8 0.735464 0.803224 0.296691
O O9 0.820625 0.779057 0.166552
O O10 0.000000 0.818002 0.254791
O O11 0.242126 0.353947 0.569389
O O12 0.122923 0.424012 0.630865
O O13 0.500000 0.856911 0.000000
O O14 0.500000 0.215448 0.633423
O O15 0.500000 0.000000 0.896983
O O16 0.500000 0.060624 0.000000
#
# Coordination Sequence:
#
# PCOD8291393 Si02
#       7
#     8   8  16  16   8  16   8
#     4  11  21  33  51  70 102 130 161 207 248 288
#     4  11  22  32  46  69  96 127 167 212 259 291
#     4  10  21  34  48  70  97 128 165 207 250 291
#     4  12  19  33  49  67  93 130 170 213 244 291
#     4  11  20  30  45  71  91 129 175 204 240 289
#     4  10  21  34  50  72  97 126 164 206 246 291
#     4  11  22  34  48  67  96 131 171 214 255 293
#
# _framework density 15.110813
#
# number of rings (size 3 to 8) (size 9 to 14) (size 15 to 20)
#    0.000    1.200    6.000    1.500    1.400    2.400 
#    1.800    0.000    0.000    0.000    0.000    0.000 
#    0.000    0.000    0.000    5.400    0.000    0.100 
#
# Total GULP energy -495680.995852 kJ/mol
# GULP energy per Si atom -12392.024896 kJ/mol
# Density = 1.507642 g / cm^3
# Si number density = 15.110813 Si / 1000 Ang^3
#
#
#
# Elastic Constant Matrix: (Units=GPa)
#
#
# Indices 1 2 3 4 5 6 
#
# 1 146.9384 51.1882 55.4099 0.0000 0.0000 0.0000
# 2 51.1882 84.1300 31.8461 0.0000 0.0000 0.0000
# 3 55.4099 31.8461 74.3977 -0.0002 0.0000 0.0000
# 4 0.0000 0.0000 -0.0002 26.0337 0.0000 0.0000
# 5 0.0000 0.0000 0.0000 0.0000 28.7202 0.0000
# 6 0.0000 0.0000 0.0000 0.0000 0.0000 27.1048
#
#
#
# Elastic Compliance Matrix: (Units=1/GPa)
#
#
# Indices 1 2 3 4 5 6 
#
# 1 0.010530 -0.004103 -0.006086 0.000000 0.000000 0.000000
# 2 -0.004103 0.015784 -0.003700 0.000000 0.000000 0.000000
# 3 -0.006086 -0.003700 0.019558 0.000000 0.000000 0.000000
# 4 0.000000 0.000000 0.000000 0.038412 0.000000 0.000000
# 5 0.000000 0.000000 0.000000 0.000000 0.034819 0.000000
# 6 0.000000 0.000000 0.000000 0.000000 0.000000 0.036894
#
#
# Mechanical properties :
#
#
# Convention : Reuss Voigt Hill
#
# Bulk Modulus (GPa) = 55.27158 64.70606 59.98882
# Shear Modulus (GPa) = 26.34269 27.50653 26.92461
#
# Velocity S-wave (km/s) = 4.17981 4.27115 4.22573
# Velocity P-wave (km/s) = 7.74283 8.19986 7.97462
#
# Compressibility (1/GPa) = 0.01809248
#
# Stress axis : x y z
#
# Youngs Moduli (GPa) = 94.96644 63.35718 51.12973
#
# Poissons Ratio (x) = 0.25996 0.31119
# Poissons Ratio (y) = 0.38965 0.18919
# Poissons Ratio (z) = 0.57799 0.23444
#
# Static dielectric constant tensor:
#      x y z
#    x 3.115970 0.000000 0.000000 
#    y 0.000000 2.866470 0.000000 
#    z 0.000000 0.000000 2.692530 
# 
# 
# High freq. dielectric constant tensor:
#      x y z
#    x 1.604120 0.000000 0.000000 
#    y 0.000000 1.561960 0.000000 
#    z 0.000000 0.000000 1.547350 
# 
# From -- ./inp_files/42419.got.cif
#   From: 2010.06.25/outbox.cif.g09.slc.cpg/sg71_22_cif.got.tgz:42419.got - 2010.06.28 04:59:45.
