data_PCOD8291244
_publ_section_title
;
Structure prediction by ZEFSAII (Michael W. Deem and Ramdas Pophale) SiO2 
 PCOD8291244
Probable space group: I M M M
;
_chemical_formula_sum "Si O2"
_cell_formula_units_Z 120
_cell_length_a 24.410739
_cell_length_b 9.654299
_cell_length_c 26.729339
_cell_angle_alpha 90.000000
_cell_angle_beta 90.000000
_cell_angle_gamma 90.000000
_cell_volume 6299.265182
_symmetry_space_group_name_H-M "I M M M"
_symmetry_group_IT_number 71
_symmetry_cell_setting 'orthorhombic'
loop_
_space_group_symop_operation_xyz
x,y,z
-x,-y,z
x,-y,-z
-x,y,-z
-x,-y,-z
x,y,-z
-x,y,z
x,-y,z
1/2+x,1/2+y,1/2+z
1/2-x,1/2-y,1/2+z
1/2+x,1/2-y,1/2-z
1/2-x,1/2+y,1/2-z
1/2-x,1/2-y,1/2-z
1/2+x,1/2+y,1/2-z
1/2-x,1/2+y,1/2+z
1/2+x,1/2-y,1/2+z
loop_
_atom_site_type_symbol
_atom_site_label
_atom_site_fract_x
_atom_site_fract_y
_atom_site_fract_z
Si Si1 0.780530 0.651880 0.712600
Si Si2 0.564875 0.836457 0.000000
Si Si3 0.142075 0.340654 0.878338
Si Si4 0.118658 0.841969 0.413889
Si Si5 0.891033 0.651636 0.232116
Si Si6 0.233445 0.155592 0.622432
Si Si7 0.561614 0.658037 0.558430
Si Si8 0.561965 0.656885 0.188653
O O1 0.752220 0.500000 0.709377
O O2 0.750000 0.750000 0.750000
O O3 0.841753 0.632994 0.730061
O O4 0.781198 0.722783 0.659491
O O5 0.590935 0.765538 0.951350
O O6 0.500000 0.811584 0.000000
O O7 0.578735 0.000000 0.000000
O O8 0.125815 0.500000 0.883715
O O9 0.131615 0.291137 0.821087
O O10 0.204786 0.317244 0.896705
O O11 0.103880 0.255239 0.914317
O O12 0.185315 0.834938 0.419379
O O13 0.101234 0.799290 0.357355
O O14 0.099061 0.000000 0.425465
O O15 0.919000 0.500000 0.224609
O O16 0.931950 0.755876 0.260012
O O17 0.231926 0.000000 0.646807
O O18 0.566394 0.686723 0.500000
O O19 0.500000 0.691459 0.576799
O O20 0.576377 0.500000 0.570940
O O21 0.500000 0.674145 0.169360
O O22 0.575353 0.500000 0.204147
#
# Coordination Sequence:
#
# PCOD8291244 Si02
#       8
#    16   8  16  16  16  16  16  16
#     4  11  20  32  53  79 111 153 196 233 274 328
#     4  11  25  43  63  87 115 149 194 249 302 351
#     4  10  21  37  57  87 122 152 188 232 279 339
#     4  10  21  39  64  86 111 150 194 242 294 350
#     4  10  21  35  52  78 115 154 188 228 281 335
#     4  10  20  37  58  84 117 151 190 236 288 343
#     4   9  20  41  65  86 111 145 188 237 285 334
#     4  10  21  36  56  83 112 147 195 245 289 338
#
# _framework density 19.049841000000001
#
# number of rings (size 3 to 8) (size 9 to 14) (size 15 to 20)
#    0.000    1.933    2.667    1.400    0.000    5.067 
#    1.200    3.333    0.000    0.000    0.000    0.000 
#    0.000    0.000    0.000    0.000    0.000    0.000 
#
# Total GULP energy -743609.190882 kJ/mol
# GULP energy per Si atom -12393.486515 kJ/mol
# Density = 1.900648 g / cm^3
# Si number density = 19.049841 Si / 1000 Ang^3
#
#
#
# Elastic Constant Matrix: (Units=GPa)
#
#
# Indices 1 2 3 4 5 6 
#
# 1 116.6837 60.1406 55.8086 0.0000 0.0000 0.0000
# 2 60.1406 109.7130 49.0173 0.0000 0.0000 0.0000
# 3 55.8086 49.0173 55.4621 0.0000 0.0000 0.0000
# 4 0.0000 0.0000 0.0000 27.0086 0.0000 0.0000
# 5 0.0000 0.0000 0.0000 0.0000 32.1583 0.0000
# 6 0.0000 0.0000 0.0000 0.0000 0.0000 30.6068
#
#
#
# Elastic Compliance Matrix: (Units=1/GPa)
#
#
# Indices 1 2 3 4 5 6 
#
# 1 0.017017 -0.002773 -0.014673 0.000000 0.000000 0.000000
# 2 -0.002773 0.015514 -0.010921 0.000000 0.000000 0.000000
# 3 -0.014673 -0.010921 0.042447 0.000000 0.000000 0.000000
# 4 0.000000 0.000000 0.000000 0.037025 0.000000 0.000000
# 5 0.000000 0.000000 0.000000 0.000000 0.031096 0.000000
# 6 0.000000 0.000000 0.000000 0.000000 0.000000 0.032672
#
#
# Mechanical properties :
#
#
# Convention : Reuss Voigt Hill
#
# Bulk Modulus (GPa) = 54.81102 67.97688 61.39395
# Shear Modulus (GPa) = 20.95664 25.74755 23.35209
#
# Velocity S-wave (km/s) = 3.32037 3.68038 3.50500
# Velocity P-wave (km/s) = 6.59808 7.33631 6.97697
#
# Compressibility (1/GPa) = 0.01824451
#
# Stress axis : x y z
#
# Youngs Moduli (GPa) = 58.76392 64.45835 23.55859
#
# Poissons Ratio (x) = 0.17872 0.34568
# Poissons Ratio (y) = 0.16293 0.25729
# Poissons Ratio (z) = 0.86225 0.70397
#
# Static dielectric constant tensor:
#      x y z
#    x 3.666960 0.000000 0.000000 
#    y 0.000000 3.551750 0.000000 
#    z 0.000000 0.000000 3.329160 
# 
# 
# High freq. dielectric constant tensor:
#      x y z
#    x 1.744860 0.000000 0.000000 
#    y 0.000000 1.746320 0.000000 
#    z 0.000000 0.000000 1.717690 
# 
# From -- ./inp_files/67148.got.cif
#   From: 2010.06.25/outbox.cif.g09.slc.cpg/sg71_34_cif.got.tgz:67148.got - 2010.06.28 04:59:45.
