data_PCOD8291065
_publ_section_title
;
Structure prediction by ZEFSAII (Michael W. Deem and Ramdas Pophale) SiO2 
 PCOD8291065
Probable space group: I M M M
;
_chemical_formula_sum "Si O2"
_cell_formula_units_Z 64
_cell_length_a 14.842640
_cell_length_b 8.787515
_cell_length_c 26.086055
_cell_angle_alpha 90.000000
_cell_angle_beta 90.000000
_cell_angle_gamma 90.000000
_cell_volume 3402.402110
_symmetry_space_group_name_H-M "I M M M"
_symmetry_group_IT_number 71
_symmetry_cell_setting 'orthorhombic'
loop_
_space_group_symop_operation_xyz
x,y,z
-x,-y,z
x,-y,-z
-x,y,-z
-x,-y,-z
x,y,-z
-x,y,z
x,-y,z
1/2+x,1/2+y,1/2+z
1/2-x,1/2-y,1/2+z
1/2+x,1/2-y,1/2-z
1/2-x,1/2+y,1/2-z
1/2-x,1/2-y,1/2-z
1/2+x,1/2+y,1/2-z
1/2-x,1/2+y,1/2+z
1/2+x,1/2-y,1/2+z
loop_
_atom_site_type_symbol
_atom_site_label
_atom_site_fract_x
_atom_site_fract_y
_atom_site_fract_z
Si Si1 0.834659 0.680225 0.604384
Si Si2 0.896444 0.819740 0.500000
Si Si3 0.500000 0.679313 0.555810
Si Si4 0.000000 0.319696 0.212550
Si Si5 0.500000 0.819547 0.171957
Si Si6 0.861165 0.820920 0.861558
O O1 0.838489 0.500000 0.595637
O O2 0.844102 0.758384 0.549437
O O3 0.912638 0.740431 0.641854
O O4 0.742063 0.728994 0.632130
O O5 0.000000 0.760886 0.500000
O O6 0.893160 0.000000 0.500000
O O7 0.500000 0.500000 0.548917
O O8 0.500000 0.758792 0.500000
O O9 0.411317 0.730594 0.586478
O O10 0.000000 0.255385 0.270454
O O11 0.908215 0.261597 0.186241
O O12 0.000000 0.500000 0.211353
O O13 0.500000 0.000000 0.173205
O O14 0.871543 0.000000 0.852228
#
# Coordination Sequence:
#
# PCOD8291065 Si02
#       6
#    16   8   8   8   8  16
#     4  10  20  36  59  82 107 144 191 230 266 320
#     4  11  23  37  53  80 119 150 177 221 278 328
#     4   8  14  26  45  71 102 129 164 218 266 306
#     4  10  20  36  56  76 110 149 178 223 288 334
#     4   9  19  35  55  81 107 140 188 234 271 322
#     4   9  19  34  54  80 107 138 184 231 270 319
#
# _framework density 18.81024
#
# number of rings (size 3 to 8) (size 9 to 14) (size 15 to 20)
#    0.000    2.500    1.250    1.500    1.750    2.500 
#    0.000    2.500    0.000    1.500    0.000    0.000 
#    0.000    0.000    0.000    0.000    0.000    0.000 
#
# Total GULP energy -396776.738383 kJ/mol
# GULP energy per Si atom -12399.273074 kJ/mol
# Density = 1.876743 g / cm^3
# Si number density = 18.810240 Si / 1000 Ang^3
#
#
#
# Elastic Constant Matrix: (Units=GPa)
#
#
# Indices 1 2 3 4 5 6 
#
# 1 173.9595 33.2631 83.4378 0.0000 0.0000 0.0000
# 2 33.2631 40.9051 34.8924 0.0000 0.0000 0.0000
# 3 83.4378 34.8924 180.6827 0.0000 0.0000 0.0000
# 4 0.0000 0.0000 0.0000 22.1157 0.0000 0.0000
# 5 0.0000 0.0000 0.0000 0.0000 17.9649 0.0000
# 6 0.0000 0.0000 0.0000 0.0000 0.0000 19.1951
#
#
#
# Elastic Compliance Matrix: (Units=1/GPa)
#
#
# Indices 1 2 3 4 5 6 
#
# 1 0.007885 -0.003958 -0.002877 0.000000 0.000000 0.000000
# 2 -0.003958 0.031255 -0.004208 0.000000 0.000000 0.000000
# 3 -0.002877 -0.004208 0.007676 0.000000 0.000000 0.000000
# 4 0.000000 0.000000 0.000000 0.045217 0.000000 0.000000
# 5 0.000000 0.000000 0.000000 0.000000 0.055664 0.000000
# 6 0.000000 0.000000 0.000000 0.000000 0.000000 0.052097
#
#
# Mechanical properties :
#
#
# Convention : Reuss Voigt Hill
#
# Bulk Modulus (GPa) = 40.43692 77.63710 59.03701
# Shear Modulus (GPa) = 21.72755 28.11873 24.92314
#
# Velocity S-wave (km/s) = 3.40235 3.87054 3.64397
# Velocity P-wave (km/s) = 6.08100 7.83187 7.01131
#
# Compressibility (1/GPa) = 0.02472988
#
# Stress axis : x y z
#
# Youngs Moduli (GPa) = 126.82016 31.99509 130.28043
#
# Poissons Ratio (x) = 0.12664 0.37481
# Poissons Ratio (y) = 0.50195 0.54822
# Poissons Ratio (z) = 0.36486 0.13464
#
# Static dielectric constant tensor:
#      x y z
#    x 3.673740 0.000000 0.000000 
#    y 0.000000 3.101230 0.000000 
#    z 0.000000 0.000000 3.636940 
# 
# 
# High freq. dielectric constant tensor:
#      x y z
#    x 1.739420 0.000000 0.000000 
#    y 0.000000 1.698450 0.000000 
#    z 0.000000 0.000000 1.737600 
# 
# From -- ./inp_files/5599.got.cif
#   From: 2010.06.25/outbox.cif.g09.slc.cpg/sg71_3_cif.got.tgz:5599.got - 2010.06.28 04:59:45.
