data_PCOD8291895
_publ_section_title
;
Structure prediction by ZEFSAII (Michael W. Deem and Ramdas Pophale) SiO2 
 PCOD8291895
Probable space group: I M M M
;
_chemical_formula_sum "Si O2"
_cell_formula_units_Z 104
_cell_length_a 8.970285
_cell_length_b 28.988692
_cell_length_c 20.150006
_cell_angle_alpha 90.000000
_cell_angle_beta 90.000000
_cell_angle_gamma 90.000000
_cell_volume 5239.743665
_symmetry_space_group_name_H-M "I M M M"
_symmetry_group_IT_number 71
_symmetry_cell_setting 'orthorhombic'
loop_
_space_group_symop_operation_xyz
x,y,z
-x,-y,z
x,-y,-z
-x,y,-z
-x,-y,-z
x,y,-z
-x,y,z
x,-y,z
1/2+x,1/2+y,1/2+z
1/2-x,1/2-y,1/2+z
1/2+x,1/2-y,1/2-z
1/2-x,1/2+y,1/2-z
1/2-x,1/2-y,1/2-z
1/2+x,1/2+y,1/2-z
1/2-x,1/2+y,1/2+z
1/2+x,1/2-y,1/2+z
loop_
_atom_site_type_symbol
_atom_site_label
_atom_site_fract_x
_atom_site_fract_y
_atom_site_fract_z
Si Si1 0.325613 0.698744 0.325176
Si Si2 0.669770 0.860842 0.574556
Si Si3 0.332315 0.447267 0.267575
Si Si4 0.674998 0.110093 0.126577
Si Si5 0.677266 0.947491 0.000000
Si Si6 0.673987 0.293869 0.173138
Si Si7 0.828589 0.947945 0.387075
O O1 0.500000 0.698860 0.338672
O O2 0.252431 0.659937 0.371565
O O3 0.287341 0.689794 0.247795
O O4 0.261936 0.747994 0.347023
O O5 0.683905 0.841110 0.500000
O O6 0.500000 0.856873 0.599752
O O7 0.778868 0.833903 0.623423
O O8 0.720104 0.914124 0.573280
O O9 0.500000 0.429373 0.282985
O O10 0.316378 0.500000 0.290197
O O11 0.212863 0.417157 0.306548
O O12 0.297343 0.441941 0.190614
O O13 0.500000 0.118074 0.121622
O O14 0.735106 0.080311 0.064360
O O15 0.500000 0.949831 0.000000
O O16 0.741438 0.000000 0.000000
O O17 0.500000 0.283693 0.165888
O O18 0.000000 0.936162 0.403389
O O19 0.792039 0.000000 0.409466
#
# Coordination Sequence:
#
# PCOD8291895 Si02
#       7
#    16  16  16  16   8  16  16
#     4  10  21  38  61  88 117 143 176 230 290 340
#     4  11  24  39  55  80 115 152 187 226 277 329
#     4   9  18  33  53  79 111 143 179 230 288 337
#     4  11  21  34  55  82 110 147 193 235 281 338
#     4   9  20  38  55  75 111 155 197 241 282 329
#     4  10  21  39  63  88 112 145 187 229 278 339
#     4   9  19  36  57  81 110 146 188 232 277 329
#
# _framework density 19.848299000000001
#
# number of rings (size 3 to 8) (size 9 to 14) (size 15 to 20)
#    0.000    2.077    0.000    4.154    0.000    8.923 
#    1.385    4.615    0.000    2.769    0.000    0.000 
#    0.000    0.000    0.000    0.000    0.000    0.000 
#
# Total GULP energy -644958.803807 kJ/mol
# GULP energy per Si atom -12403.053919 kJ/mol
# Density = 1.980312 g / cm^3
# Si number density = 19.848299 Si / 1000 Ang^3
#
#
#
# Elastic Constant Matrix: (Units=GPa)
#
#
# Indices 1 2 3 4 5 6 
#
# 1 73.6546 42.4699 27.1242 0.0000 0.0000 0.0000
# 2 42.4699 116.3414 42.5405 0.0000 0.0000 0.0000
# 3 27.1242 42.5405 57.6671 0.0000 0.0000 0.0000
# 4 0.0000 0.0000 0.0000 30.7416 0.0000 0.0000
# 5 0.0000 0.0000 0.0000 0.0000 25.6727 0.0000
# 6 0.0000 0.0000 0.0000 0.0000 0.0000 39.3197
#
#
#
# Elastic Compliance Matrix: (Units=1/GPa)
#
#
# Indices 1 2 3 4 5 6 
#
# 1 0.018195 -0.004810 -0.005010 0.000000 0.000000 0.000000
# 2 -0.004810 0.013042 -0.007358 0.000000 0.000000 0.000000
# 3 -0.005010 -0.007358 0.025126 0.000000 0.000000 0.000000
# 4 0.000000 0.000000 0.000000 0.032529 0.000000 0.000000
# 5 0.000000 0.000000 0.000000 0.000000 0.038952 0.000000
# 6 0.000000 0.000000 0.000000 0.000000 0.000000 0.025433
#
#
# Mechanical properties :
#
#
# Convention : Reuss Voigt Hill
#
# Bulk Modulus (GPa) = 45.44236 52.43693 48.93965
# Shear Modulus (GPa) = 25.64511 28.18206 26.91358
#
# Velocity S-wave (km/s) = 3.59842 3.77221 3.68634
# Velocity P-wave (km/s) = 6.34108 6.74158 6.54440
#
# Compressibility (1/GPa) = 0.02200590
#
# Stress axis : x y z
#
# Youngs Moduli (GPa) = 54.95868 76.67541 39.80014
#
# Poissons Ratio (x) = 0.36883 0.19939
# Poissons Ratio (y) = 0.26437 0.29287
# Poissons Ratio (z) = 0.27533 0.56421
#
# Static dielectric constant tensor:
#      x y z
#    x 3.492020 0.000000 0.000000 
#    y 0.000000 3.714970 0.000000 
#    z 0.000000 0.000000 3.487630 
# 
# 
# High freq. dielectric constant tensor:
#      x y z
#    x 1.768730 0.000000 0.000000 
#    y 0.000000 1.783650 0.000000 
#    z 0.000000 0.000000 1.762850 
# 
# From -- ./inp_files/11162.got.cif
#   From: 2010.06.25/outbox.cif.g09.slc.cpg/sg71_6_cif.got.tgz:11162.got - 2010.06.28 04:59:45.
