data_PCOD8291702
_publ_section_title
;
Structure prediction by ZEFSAII (Michael W. Deem and Ramdas Pophale) SiO2 
 PCOD8291702
Probable space group: I M M M
;
_chemical_formula_sum "Si O2"
_cell_formula_units_Z 96
_cell_length_a 23.692569
_cell_length_b 24.159590
_cell_length_c 8.987692
_cell_angle_alpha 90.000000
_cell_angle_beta 90.000000
_cell_angle_gamma 90.000000
_cell_volume 5144.579645
_symmetry_space_group_name_H-M "I M M M"
_symmetry_group_IT_number 71
_symmetry_cell_setting 'orthorhombic'
loop_
_space_group_symop_operation_xyz
x,y,z
-x,-y,z
x,-y,-z
-x,y,-z
-x,-y,-z
x,y,-z
-x,y,z
x,-y,z
1/2+x,1/2+y,1/2+z
1/2-x,1/2-y,1/2+z
1/2+x,1/2-y,1/2-z
1/2-x,1/2+y,1/2-z
1/2-x,1/2-y,1/2-z
1/2+x,1/2+y,1/2-z
1/2-x,1/2+y,1/2+z
1/2+x,1/2-y,1/2+z
loop_
_atom_site_type_symbol
_atom_site_label
_atom_site_fract_x
_atom_site_fract_y
_atom_site_fract_z
Si Si1 0.934106 0.939627 0.662784
Si Si2 0.368106 0.357012 0.327526
Si Si3 0.064478 0.351834 0.828699
Si Si4 0.643884 0.935554 0.170478
Si Si5 0.064567 0.762858 0.324300
Si Si6 0.271820 0.438091 0.676213
O O1 0.915041 0.915783 0.500000
O O2 0.917844 0.900619 0.799199
O O3 0.000000 0.945759 0.663945
O O4 0.906520 0.000000 0.687053
O O5 0.362055 0.342308 0.500000
O O6 0.386101 0.301647 0.241563
O O7 0.312101 0.388434 0.262828
O O8 0.102920 0.402384 0.777962
O O9 0.078858 0.298171 0.731990
O O10 0.000000 0.370101 0.804156
O O11 0.076669 0.337693 0.000000
O O12 0.707988 0.922909 0.220418
O O13 0.630240 0.000000 0.189463
O O14 0.634297 0.917227 0.000000
O O15 0.069675 0.764284 0.500000
O O16 0.000000 0.779835 0.276178
O O17 0.278349 0.440412 0.500000
O O18 0.287024 0.500000 0.738588
#
# Coordination Sequence:
#
# PCOD8291702 Si02
#       6
#    16  16  16  16  16  16
#     4   9  18  31  44  61  91 130 170 215 266 315
#     4  11  20  30  49  75 101 132 174 220 265 311
#     4  10  21  37  57  82 111 137 164 207 261 310
#     4   9  18  35  59  83 108 140 175 207 244 301
#     4  10  21  37  55  74 101 139 180 219 260 310
#     4   8  16  32  52  75 105 140 176 216 260 302
#
# _framework density 18.660416000000001
#
# number of rings (size 3 to 8) (size 9 to 14) (size 15 to 20)
#    0.000    2.500    0.000    4.000    0.000    6.000 
#    0.000    5.000    0.000    2.000    0.000    0.000 
#    0.000    0.000    0.000    0.000    0.000    0.000 
#
# Total GULP energy -594819.748464 kJ/mol
# GULP energy per Si atom -12392.078093 kJ/mol
# Density = 1.861794 g / cm^3
# Si number density = 18.660416 Si / 1000 Ang^3
#
#
#
# Elastic Constant Matrix: (Units=GPa)
#
#
# Indices 1 2 3 4 5 6 
#
# 1 91.7770 61.3491 33.8730 0.0000 0.0000 0.0000
# 2 61.3491 94.3262 36.0577 0.0000 0.0000 0.0000
# 3 33.8730 36.0577 56.7493 0.0000 0.0000 0.0000
# 4 0.0000 0.0000 0.0000 29.2044 0.0000 0.0000
# 5 0.0000 0.0000 0.0000 0.0000 25.0224 0.0000
# 6 0.0000 0.0000 0.0000 0.0000 0.0000 33.5967
#
#
#
# Elastic Compliance Matrix: (Units=1/GPa)
#
#
# Indices 1 2 3 4 5 6 
#
# 1 0.020264 -0.011301 -0.004915 0.000000 0.000000 0.000000
# 2 -0.011301 0.020305 -0.006156 0.000000 0.000000 0.000000
# 3 -0.004915 -0.006156 0.024467 0.000000 0.000000 0.000000
# 4 0.000000 0.000000 0.000000 0.034241 0.000000 0.000000
# 5 0.000000 0.000000 0.000000 0.000000 0.039964 0.000000
# 6 0.000000 0.000000 0.000000 0.000000 0.000000 0.029765
#
#
# Mechanical properties :
#
#
# Convention : Reuss Voigt Hill
#
# Bulk Modulus (GPa) = 49.28133 56.15691 52.71912
# Shear Modulus (GPa) = 22.67435 25.00287 23.83861
#
# Velocity S-wave (km/s) = 3.48962 3.66442 3.57809
# Velocity P-wave (km/s) = 6.53479 6.93278 6.73672
#
# Compressibility (1/GPa) = 0.02029166
#
# Stress axis : x y z
#
# Youngs Moduli (GPa) = 49.34825 49.24974 40.87211
#
# Poissons Ratio (x) = 0.55656 0.20089
# Poissons Ratio (y) = 0.55767 0.25161
# Poissons Ratio (z) = 0.24255 0.30318
#
# Static dielectric constant tensor:
#      x y z
#    x 3.463810 0.000000 0.000000 
#    y 0.000000 3.439120 0.000000 
#    z 0.000000 0.000000 3.357080 
# 
# 
# High freq. dielectric constant tensor:
#      x y z
#    x 1.714310 0.000000 0.000000 
#    y 0.000000 1.721780 0.000000 
#    z 0.000000 0.000000 1.711980 
# 
# From -- ./inp_files/12811.got.cif
#   From: 2010.06.25/outbox.cif.g09.slc.cpg/sg71_7_cif.got.tgz:12811.got - 2010.06.28 04:59:45.
