data_PCOD8291448
_publ_section_title
;
Structure prediction by ZEFSAII (Michael W. Deem and Ramdas Pophale) SiO2 
 PCOD8291448
Probable space group: I M M M
;
_chemical_formula_sum "Si O2"
_cell_formula_units_Z 96
_cell_length_a 27.398135
_cell_length_b 18.905027
_cell_length_c 9.345100
_cell_angle_alpha 90.000000
_cell_angle_beta 90.000000
_cell_angle_gamma 90.000000
_cell_volume 4840.411190
_symmetry_space_group_name_H-M "I M M M"
_symmetry_group_IT_number 71
_symmetry_cell_setting 'orthorhombic'
loop_
_space_group_symop_operation_xyz
x,y,z
-x,-y,z
x,-y,-z
-x,y,-z
-x,-y,-z
x,y,-z
-x,y,z
x,-y,z
1/2+x,1/2+y,1/2+z
1/2-x,1/2-y,1/2+z
1/2+x,1/2-y,1/2-z
1/2-x,1/2+y,1/2-z
1/2-x,1/2-y,1/2-z
1/2+x,1/2+y,1/2-z
1/2-x,1/2+y,1/2+z
1/2+x,1/2-y,1/2+z
loop_
_atom_site_type_symbol
_atom_site_label
_atom_site_fract_x
_atom_site_fract_y
_atom_site_fract_z
Si Si1 0.149850 0.078790 0.831397
Si Si2 0.944124 0.160690 0.166835
Si Si3 0.917623 0.579292 0.839559
Si Si4 0.262199 0.677507 0.669555
Si Si5 0.802702 0.419782 0.841452
Si Si6 0.055664 0.707786 0.655724
O O1 0.093734 0.098505 0.792105
O O2 0.187615 0.139255 0.775983
O O3 0.160358 0.000000 0.766529
O O4 0.156473 0.074671 0.000000
O O5 0.922806 0.230308 0.245177
O O6 0.000000 0.139586 0.209930
O O7 0.941736 0.178349 0.000000
O O8 0.933806 0.500000 0.798294
O O9 0.860136 0.587105 0.830426
O O10 0.941888 0.631689 0.728313
O O11 0.935660 0.597190 0.000000
O O12 0.262781 0.691159 0.500000
O O13 0.250000 0.750000 0.750000
O O14 0.218887 0.624985 0.711837
O O15 0.785619 0.500000 0.819890
O O16 0.785886 0.393281 0.000000
O O17 0.082034 0.706541 0.500000
O O18 0.000000 0.727437 0.632384
#
# Coordination Sequence:
#
# PCOD8291448 Si02
#       6
#    16  16  16  16  16  16
#     4   9  19  36  58  85 115 145 180 229 284 331
#     4   9  18  34  58  85 110 142 184 227 276 337
#     4   9  19  35  55  78 104 139 184 232 281 334
#     4  11  23  37  55  82 115 151 190 231 276 331
#     4   9  19  37  58  79 107 142 181 229 281 331
#     4  10  21  35  51  75 110 147 182 227 279 332
#
# _framework density 19.833026
#
# number of rings (size 3 to 8) (size 9 to 14) (size 15 to 20)
#    0.000    2.500    0.000    2.500    2.333    3.667 
#    0.000    5.833    0.000    2.500    0.000    2.333 
#    0.000    0.000    0.000    0.000    0.000    0.000 
#
# Total GULP energy -594830.719163 kJ/mol
# GULP energy per Si atom -12392.306649 kJ/mol
# Density = 1.978789 g / cm^3
# Si number density = 19.833026 Si / 1000 Ang^3
#
#
#
# Elastic Constant Matrix: (Units=GPa)
#
#
# Indices 1 2 3 4 5 6 
#
# 1 61.6396 53.9285 28.7595 0.0000 0.0000 0.0000
# 2 53.9285 133.4707 51.3173 0.0000 0.0000 0.0000
# 3 28.7595 51.3173 78.3577 0.0000 0.0000 0.0000
# 4 0.0000 0.0000 0.0000 26.8688 0.0000 0.0000
# 5 0.0000 0.0000 0.0000 0.0000 19.1538 0.0000
# 6 0.0000 0.0000 0.0000 0.0000 0.0000 32.4839
#
#
#
# Elastic Compliance Matrix: (Units=1/GPa)
#
#
# Indices 1 2 3 4 5 6 
#
# 1 0.025805 -0.009069 -0.003532 0.000000 0.000000 0.000000
# 2 -0.009069 0.013201 -0.005317 0.000000 0.000000 0.000000
# 3 -0.003532 -0.005317 0.017540 0.000000 0.000000 0.000000
# 4 0.000000 0.000000 0.000000 0.037218 0.000000 0.000000
# 5 0.000000 0.000000 0.000000 0.000000 0.052209 0.000000
# 6 0.000000 0.000000 0.000000 0.000000 0.000000 0.030784
#
#
# Mechanical properties :
#
#
# Convention : Reuss Voigt Hill
#
# Bulk Modulus (GPa) = 48.28275 60.16430 54.22353
# Shear Modulus (GPa) = 22.77934 24.99880 23.88907
#
# Velocity S-wave (km/s) = 3.39271 3.55415 3.47437
# Velocity P-wave (km/s) = 6.30435 6.87342 6.59503
#
# Compressibility (1/GPa) = 0.02071133
#
# Stress axis : x y z
#
# Youngs Moduli (GPa) = 38.75143 75.75398 57.01100
#
# Poissons Ratio (x) = 0.68698 0.20138
# Poissons Ratio (y) = 0.35142 0.30312
# Poissons Ratio (z) = 0.13688 0.40277
#
# Static dielectric constant tensor:
#      x y z
#    x 3.592170 0.000000 0.000000 
#    y 0.000000 3.986890 0.000000 
#    z 0.000000 0.000000 3.901060 
# 
# 
# High freq. dielectric constant tensor:
#      x y z
#    x 1.767500 0.000000 0.000000 
#    y 0.000000 1.776610 0.000000 
#    z 0.000000 0.000000 1.754450 
# 
# From -- ./inp_files/14848.got.cif
#   From: 2010.06.25/outbox.cif.g09.slc.cpg/sg71_8_cif.got.tgz:14848.got - 2010.06.28 04:59:45.
