data_PCOD8291552
_publ_section_title
;
Structure prediction by ZEFSAII (Michael W. Deem and Ramdas Pophale) SiO2 
 PCOD8291552
Probable space group: I M M M
;
_chemical_formula_sum "Si O2"
_cell_formula_units_Z 72
_cell_length_a 10.526998
_cell_length_b 15.315174
_cell_length_c 23.605958
_cell_angle_alpha 90.000000
_cell_angle_beta 90.000000
_cell_angle_gamma 90.000000
_cell_volume 3805.818789
_symmetry_space_group_name_H-M "I M M M"
_symmetry_group_IT_number 71
_symmetry_cell_setting 'orthorhombic'
loop_
_space_group_symop_operation_xyz
x,y,z
-x,-y,z
x,-y,-z
-x,y,-z
-x,-y,-z
x,y,-z
-x,y,z
x,-y,z
1/2+x,1/2+y,1/2+z
1/2-x,1/2-y,1/2+z
1/2+x,1/2-y,1/2-z
1/2-x,1/2+y,1/2-z
1/2-x,1/2-y,1/2-z
1/2+x,1/2+y,1/2-z
1/2-x,1/2+y,1/2+z
1/2+x,1/2-y,1/2+z
loop_
_atom_site_type_symbol
_atom_site_label
_atom_site_fract_x
_atom_site_fract_y
_atom_site_fract_z
Si Si1 0.263302 0.100554 0.132356
Si Si2 0.648555 0.904453 0.629807
Si Si3 0.000000 0.396296 0.437860
Si Si4 0.146408 0.758098 0.937072
Si Si5 0.650264 0.828549 0.751472
O O1 0.377400 0.137288 0.094312
O O2 0.152024 0.162477 0.108718
O O3 0.305065 0.110383 0.197049
O O4 0.226792 0.000000 0.120930
O O5 0.500000 0.907913 0.617902
O O6 0.710999 0.829135 0.590195
O O7 0.672418 0.884367 0.695518
O O8 0.708530 0.000000 0.616035
O O9 0.000000 0.500000 0.438855
O O10 0.000000 0.355278 0.500000
O O11 0.000000 0.738002 0.944979
O O12 0.204520 0.778479 0.000000
O O13 0.500000 0.800309 0.757189
O O14 0.750000 0.750000 0.750000
#
# Coordination Sequence:
#
# PCOD8291552 Si02
#       5
#    16  16   8  16  16
#     4  11  21  34  55  82 110 145 186 227 275 334
#     4   9  18  33  55  80 105 140 186 236 286 334
#     4   9  18  32  50  76 107 137 176 222 262 311
#     4  10  21  36  53  79 115 150 186 230 282 341
#     4  11  21  36  59  85 115 148 187 236 288 342
#
# _framework density 18.918399999999998
#
# number of rings (size 3 to 8) (size 9 to 14) (size 15 to 20)
#    0.000    1.889    3.333    1.333    0.000    3.111 
#    0.000    3.333    0.000    2.000    0.000    0.000 
#    0.000    4.444    0.000    0.000    0.000    0.000 
#
# Total GULP energy -445998.860877 kJ/mol
# GULP energy per Si atom -12388.857247 kJ/mol
# Density = 1.887534 g / cm^3
# Si number density = 18.918400 Si / 1000 Ang^3
#
#
#
# Elastic Constant Matrix: (Units=GPa)
#
#
# Indices 1 2 3 4 5 6 
#
# 1 35.4831 24.8728 17.7733 0.0000 0.0000 0.0000
# 2 24.8728 139.3546 44.7387 0.0000 0.0000 0.0000
# 3 17.7733 44.7387 121.7274 0.0000 0.0000 0.0000
# 4 0.0000 0.0000 0.0000 29.6281 0.0000 0.0000
# 5 0.0000 0.0000 0.0000 0.0000 25.4083 0.0000
# 6 0.0000 0.0000 0.0000 0.0000 0.0000 17.7251
#
#
#
# Elastic Compliance Matrix: (Units=1/GPa)
#
#
# Indices 1 2 3 4 5 6 
#
# 1 0.033166 -0.004949 -0.003024 0.000000 0.000000 0.000000
# 2 -0.004949 0.008874 -0.002539 0.000000 0.000000 0.000000
# 3 -0.003024 -0.002539 0.009590 0.000000 0.000000 0.000000
# 4 0.000000 0.000000 0.000000 0.033752 0.000000 0.000000
# 5 0.000000 0.000000 0.000000 0.000000 0.039357 0.000000
# 6 0.000000 0.000000 0.000000 0.000000 0.000000 0.056417
#
#
# Mechanical properties :
#
#
# Convention : Reuss Voigt Hill
#
# Bulk Modulus (GPa) = 32.67236 52.37052 42.52144
# Shear Modulus (GPa) = 23.54251 28.49766 26.02009
#
# Velocity S-wave (km/s) = 3.53147 3.88538 3.71264
# Velocity P-wave (km/s) = 5.82546 6.91886 6.39557
#
# Compressibility (1/GPa) = 0.03060691
#
# Stress axis : x y z
#
# Youngs Moduli (GPa) = 30.15132 112.68380 104.27812
#
# Poissons Ratio (x) = 0.55766 0.31530
# Poissons Ratio (y) = 0.14922 0.26477
# Poissons Ratio (z) = 0.09117 0.28611
#
# Static dielectric constant tensor:
#      x y z
#    x 3.246810 0.000000 0.000000 
#    y 0.000000 3.530240 0.000000 
#    z 0.000000 0.000000 3.916680 
# 
# 
# High freq. dielectric constant tensor:
#      x y z
#    x 1.694990 0.000000 0.000000 
#    y 0.000000 1.731840 0.000000 
#    z 0.000000 0.000000 1.754380 
# 
# From -- ./inp_files/6016.got.cif
#   From: 2010.06.25/outbox.cif.g09.slc.cpg/sg71_4_cif.got.tgz:6016.got - 2010.06.28 04:59:45.
