data_PCOD8291549
_publ_section_title
;
Structure prediction by ZEFSAII (Michael W. Deem and Ramdas Pophale) SiO2 
 PCOD8291549
Probable space group: I M M M
;
_chemical_formula_sum "Si O2"
_cell_formula_units_Z 72
_cell_length_a 19.208553
_cell_length_b 22.850447
_cell_length_c 8.781480
_cell_angle_alpha 90.000000
_cell_angle_beta 90.000000
_cell_angle_gamma 90.000000
_cell_volume 3854.402523
_symmetry_space_group_name_H-M "I M M M"
_symmetry_group_IT_number 71
_symmetry_cell_setting 'orthorhombic'
loop_
_space_group_symop_operation_xyz
x,y,z
-x,-y,z
x,-y,-z
-x,y,-z
-x,-y,-z
x,y,-z
-x,y,z
x,-y,z
1/2+x,1/2+y,1/2+z
1/2-x,1/2-y,1/2+z
1/2+x,1/2-y,1/2-z
1/2-x,1/2+y,1/2-z
1/2-x,1/2-y,1/2-z
1/2+x,1/2+y,1/2-z
1/2-x,1/2+y,1/2+z
1/2+x,1/2-y,1/2+z
loop_
_atom_site_type_symbol
_atom_site_label
_atom_site_fract_x
_atom_site_fract_y
_atom_site_fract_z
Si Si1 0.176432 0.233483 0.179817
Si Si2 0.419883 0.170870 0.820245
Si Si3 0.823788 0.101746 0.180263
Si Si4 0.577998 0.500000 0.318184
Si Si5 0.326562 0.065013 0.818888
O O1 0.250000 0.250000 0.250000
O O2 0.115024 0.274028 0.239891
O O3 0.157069 0.167484 0.229583
O O4 0.182910 0.239287 0.000000
O O5 0.500000 0.168578 0.771693
O O6 0.384332 0.110944 0.761424
O O7 0.410194 0.178105 0.000000
O O8 0.748420 0.084082 0.247474
O O9 0.882363 0.057639 0.243849
O O10 0.820106 0.096086 0.000000
O O11 0.500000 0.500000 0.251396
O O12 0.576315 0.500000 0.500000
O O13 0.345623 0.000000 0.758737
O O14 0.324165 0.065015 0.000000
#
# Coordination Sequence:
#
# PCOD8291549 Si02
#       5
#    16  16  16   8  16
#     4  11  21  34  55  80 108 141 181 221 265 320
#     4  10  21  36  53  78 111 142 177 223 272 320
#     4   9  16  27  46  72 100 132 168 212 261 314
#     4   9  16  26  42  70 106 134 159 206 269 316
#     4   9  15  27  50  76 102 132 173 221 269 315
#
# _framework density 18.679936999999999
#
# number of rings (size 3 to 8) (size 9 to 14) (size 15 to 20)
#    0.000    2.333    3.333    0.667    0.000    1.778 
#    0.000    4.444    0.000    0.667    0.000    3.889 
#    0.000    5.333    0.000    0.000    0.000    0.000 
#
# Total GULP energy -446336.344040 kJ/mol
# GULP energy per Si atom -12398.231779 kJ/mol
# Density = 1.863742 g / cm^3
# Si number density = 18.679937 Si / 1000 Ang^3
#
#
#
# Elastic Constant Matrix: (Units=GPa)
#
#
# Indices 1 2 3 4 5 6 
#
# 1 178.8963 112.2873 29.1873 0.0000 0.0000 0.0000
# 2 112.2873 212.6370 30.4211 0.0000 0.0000 0.0000
# 3 29.1873 30.4211 23.0301 0.0000 0.0000 0.0000
# 4 0.0000 0.0000 0.0000 22.9542 0.0000 0.0000
# 5 0.0000 0.0000 0.0000 0.0000 18.9459 0.0000
# 6 0.0000 0.0000 0.0000 0.0000 0.0000 38.9494
#
#
#
# Elastic Compliance Matrix: (Units=1/GPa)
#
#
# Indices 1 2 3 4 5 6 
#
# 1 0.009060 -0.003873 -0.006365 0.000000 0.000000 0.000000
# 2 -0.003873 0.007455 -0.004938 0.000000 0.000000 0.000000
# 3 -0.006365 -0.004938 0.058011 0.000000 0.000000 0.000000
# 4 0.000000 0.000000 0.000000 0.043565 0.000000 0.000000
# 5 0.000000 0.000000 0.000000 0.000000 0.052782 0.000000
# 6 0.000000 0.000000 0.000000 0.000000 0.000000 0.025674
#
#
# Mechanical properties :
#
#
# Convention : Reuss Voigt Hill
#
# Bulk Modulus (GPa) = 22.63868 84.26165 53.45016
# Shear Modulus (GPa) = 20.69326 32.34776 26.52051
#
# Velocity S-wave (km/s) = 3.33194 4.16587 3.77202
# Velocity P-wave (km/s) = 5.19115 8.26712 6.90266
#
# Compressibility (1/GPa) = 0.04417220
#
# Stress axis : x y z
#
# Youngs Moduli (GPa) = 110.38070 134.14193 17.23798
#
# Poissons Ratio (x) = 0.51959 0.10972
# Poissons Ratio (y) = 0.42755 0.08512
# Poissons Ratio (z) = 0.70259 0.66242
#
# Static dielectric constant tensor:
#      x y z
#    x 3.573650 0.000000 0.000000 
#    y 0.000000 3.820630 0.000000 
#    z 0.000000 0.000000 2.886480 
# 
# 
# High freq. dielectric constant tensor:
#      x y z
#    x 1.727270 0.000000 0.000000 
#    y 0.000000 1.746480 0.000000 
#    z 0.000000 0.000000 1.665170 
# 
# From -- ./inp_files/7921.got.cif
#   From: 2010.06.25/outbox.cif.g09.slc.cpg/sg71_4_cif.got.tgz:7921.got - 2010.06.28 04:59:45.
