data_PCOD8291199
_publ_section_title
;
Structure prediction by ZEFSAII (Michael W. Deem and Ramdas Pophale) SiO2 
 PCOD8291199
Probable space group: I M M M
;
_chemical_formula_sum "Si O2"
_cell_formula_units_Z 104
_cell_length_a 27.438063
_cell_length_b 9.084351
_cell_length_c 21.706560
_cell_angle_alpha 90.000000
_cell_angle_beta 90.000000
_cell_angle_gamma 90.000000
_cell_volume 5410.511919
_symmetry_space_group_name_H-M "I M M M"
_symmetry_group_IT_number 71
_symmetry_cell_setting 'orthorhombic'
loop_
_space_group_symop_operation_xyz
x,y,z
-x,-y,z
x,-y,-z
-x,y,-z
-x,-y,-z
x,y,-z
-x,y,z
x,-y,z
1/2+x,1/2+y,1/2+z
1/2-x,1/2-y,1/2+z
1/2+x,1/2-y,1/2-z
1/2-x,1/2+y,1/2-z
1/2-x,1/2-y,1/2-z
1/2+x,1/2+y,1/2-z
1/2-x,1/2+y,1/2+z
1/2+x,1/2-y,1/2+z
loop_
_atom_site_type_symbol
_atom_site_label
_atom_site_fract_x
_atom_site_fract_y
_atom_site_fract_z
Si Si1 0.000000 0.165558 0.073238
Si Si2 0.363384 0.170751 0.199174
Si Si3 0.323792 0.171342 0.668054
Si Si4 0.710025 0.675140 0.000000
Si Si5 0.404453 0.828614 0.429568
Si Si6 0.768130 0.326098 0.376338
Si Si7 0.901462 0.174449 0.500000
Si Si8 0.055294 0.174309 0.627251
O O1 0.951471 0.245153 0.097694
O O2 0.000000 0.000000 0.098520
O O3 0.000000 0.172393 0.000000
O O4 0.352230 0.209258 0.269634
O O5 0.318273 0.219200 0.156568
O O6 0.411286 0.260170 0.180729
O O7 0.374721 0.000000 0.190338
O O8 0.357751 0.214616 0.610572
O O9 0.275808 0.271421 0.666616
O O10 0.308672 0.000000 0.666333
O O11 0.736589 0.741189 0.059308
O O12 0.654166 0.728151 0.000000
O O13 0.715871 0.500000 0.000000
O O14 0.393260 0.782483 0.500000
O O15 0.416374 0.000000 0.424369
O O16 0.764394 0.500000 0.386599
O O17 0.928053 0.236996 0.439341
O O18 0.904266 0.000000 0.500000
O O19 0.000000 0.224050 0.639438
O O20 0.060700 0.000000 0.628400
#
# Coordination Sequence:
#
# PCOD8291199 Si02
#       8
#     8  16  16   8  16  16   8  16
#     4   9  17  31  53  79 107 139 171 212 275 336
#     4  10  22  40  58  80 116 156 194 235 285 350
#     4  10  22  39  59  84 112 151 196 234 282 348
#     4  11  21  36  61  87 114 157 199 237 290 353
#     4   9  18  34  56  80 105 137 183 232 273 325
#     4  11  23  38  58  86 118 150 188 241 295 341
#     4   9  17  33  58  87 115 149 194 242 290 341
#     4  10  20  36  60  88 117 151 197 249 295 345
#
# _framework density 19.221841000000001
#
# number of rings (size 3 to 8) (size 9 to 14) (size 15 to 20)
#    0.000    2.077    1.538    1.615    1.077    4.000 
#    1.385    0.385    0.000    0.923    0.000    0.000 
#    0.000    0.000    0.000    0.000    0.000    0.000 
#
# Total GULP energy -645010.806721 kJ/mol
# GULP energy per Si atom -12404.053975 kJ/mol
# Density = 1.917809 g / cm^3
# Si number density = 19.221841 Si / 1000 Ang^3
#
#
#
# Elastic Constant Matrix: (Units=GPa)
#
#
# Indices 1 2 3 4 5 6 
#
# 1 126.1302 48.9455 49.6925 0.0000 0.0000 0.0000
# 2 48.9455 59.8352 32.9505 0.0000 0.0000 0.0000
# 3 49.6925 32.9505 104.9829 0.0000 0.0000 0.0000
# 4 0.0000 0.0000 0.0000 24.0082 0.0000 0.0000
# 5 0.0000 0.0000 0.0000 0.0000 21.0550 0.0000
# 6 0.0000 0.0000 0.0000 0.0000 0.0000 30.5382
#
#
#
# Elastic Compliance Matrix: (Units=1/GPa)
#
#
# Indices 1 2 3 4 5 6 
#
# 1 0.012478 -0.008408 -0.003268 0.000000 0.000000 0.000000
# 2 -0.008408 0.025870 -0.004140 0.000000 0.000000 0.000000
# 3 -0.003268 -0.004140 0.012371 0.000000 0.000000 0.000000
# 4 0.000000 0.000000 0.000000 0.041652 0.000000 0.000000
# 5 0.000000 0.000000 0.000000 0.000000 0.047495 0.000000
# 6 0.000000 0.000000 0.000000 0.000000 0.000000 0.032746
#
#
# Mechanical properties :
#
#
# Convention : Reuss Voigt Hill
#
# Bulk Modulus (GPa) = 52.38603 61.56948 56.97776
# Shear Modulus (GPa) = 23.74092 25.74427 24.74260
#
# Velocity S-wave (km/s) = 3.51821 3.66365 3.59167
# Velocity P-wave (km/s) = 6.61939 7.07085 6.84884
#
# Compressibility (1/GPa) = 0.01908906
#
# Stress axis : x y z
#
# Youngs Moduli (GPa) = 80.13822 38.65452 80.83169
#
# Poissons Ratio (x) = 0.32501 0.26412
# Poissons Ratio (y) = 0.67381 0.33463
# Poissons Ratio (z) = 0.26186 0.16003
#
# Static dielectric constant tensor:
#      x y z
#    x 3.535910 0.000000 0.000000 
#    y 0.000000 3.351700 0.000000 
#    z 0.000000 0.000000 3.505100 
# 
# 
# High freq. dielectric constant tensor:
#      x y z
#    x 1.753910 0.000000 0.000000 
#    y 0.000000 1.734680 0.000000 
#    z 0.000000 0.000000 1.745480 
# 
# From -- ./inp_files/11176.got.cif
#   From: 2010.06.25/outbox.cif.g09.slc.cpg/sg71_6_cif.got.tgz:11176.got - 2010.06.28 04:59:45.
