data_PCOD8291664
_publ_section_title
;
Structure prediction by ZEFSAII (Michael W. Deem and Ramdas Pophale) SiO2 
 PCOD8291664
Probable space group: I M M M
;
_chemical_formula_sum "Si O2"
_cell_formula_units_Z 88
_cell_length_a 20.527040
_cell_length_b 12.295324
_cell_length_c 17.814041
_cell_angle_alpha 90.000000
_cell_angle_beta 90.000000
_cell_angle_gamma 90.000000
_cell_volume 4496.025375
_symmetry_space_group_name_H-M "I M M M"
_symmetry_group_IT_number 71
_symmetry_cell_setting 'orthorhombic'
loop_
_space_group_symop_operation_xyz
x,y,z
-x,-y,z
x,-y,-z
-x,y,-z
-x,-y,-z
x,y,-z
-x,y,z
x,-y,z
1/2+x,1/2+y,1/2+z
1/2-x,1/2-y,1/2+z
1/2+x,1/2-y,1/2-z
1/2-x,1/2+y,1/2-z
1/2-x,1/2-y,1/2-z
1/2+x,1/2+y,1/2-z
1/2-x,1/2+y,1/2+z
1/2+x,1/2-y,1/2+z
loop_
_atom_site_type_symbol
_atom_site_label
_atom_site_fract_x
_atom_site_fract_y
_atom_site_fract_z
Si Si1 0.000000 0.381732 0.086338
Si Si2 0.315587 0.000000 0.088960
Si Si3 0.928412 0.121535 0.294537
Si Si4 0.581334 0.000000 0.778101
Si Si5 0.392572 0.210519 0.321080
Si Si6 0.165964 0.124123 0.581477
Si Si7 0.274536 0.293898 0.584141
O O1 0.935022 0.317409 0.106472
O O2 0.000000 0.500000 0.128241
O O3 0.000000 0.402932 0.000000
O O4 0.270813 0.104742 0.108242
O O5 0.381748 0.000000 0.140160
O O6 0.335495 0.000000 0.000000
O O7 0.929044 0.193054 0.220779
O O8 0.881797 0.175074 0.356760
O O9 0.000000 0.119725 0.330229
O O10 0.905921 0.000000 0.272944
O O11 0.609181 0.894567 0.733687
O O12 0.500000 0.000000 0.786437
O O13 0.325986 0.263977 0.351027
O O14 0.131795 0.134819 0.500000
O O15 0.233451 0.184946 0.581134
O O16 0.181837 0.000000 0.600860
O O17 0.304155 0.315675 0.500000
#
# Coordination Sequence:
#
# PCOD8291664 Si02
#       7
#     8   8  16   8  16  16  16
#     4  11  22  40  65  91 119 158 200 251 315 372
#     4  10  24  45  64  89 128 168 212 252 299 375
#     4  10  21  36  57  83 118 158 194 239 293 351
#     4  12  24  41  66  98 127 159 203 265 320 366
#     4  12  22  40  60  89 125 155 198 256 307 365
#     4   9  19  36  57  85 117 150 197 247 294 354
#     4  10  23  41  61  86 119 161 204 251 302 363
#
# _framework density 19.572842999999999
#
# number of rings (size 3 to 8) (size 9 to 14) (size 15 to 20)
#    0.000    1.545    2.727    1.636    2.545    3.455 
#    0.000    1.818    0.000    6.000    0.000    0.000 
#    0.000    0.000    0.000    0.000    0.000    0.000 
#
# Total GULP energy -545104.903142 kJ/mol
# GULP energy per Si atom -12388.747799 kJ/mol
# Density = 1.952829 g / cm^3
# Si number density = 19.572843 Si / 1000 Ang^3
#
#
#
# Elastic Constant Matrix: (Units=GPa)
#
#
# Indices 1 2 3 4 5 6 
#
# 1 93.0695 40.0109 50.5431 0.0000 0.0000 0.0000
# 2 40.0109 87.4025 41.1080 0.0000 0.0000 0.0000
# 3 50.5431 41.1080 85.2642 0.0000 0.0000 0.0000
# 4 0.0000 0.0000 0.0000 27.9721 0.0000 0.0000
# 5 0.0000 0.0000 0.0000 0.0000 39.3925 0.0000
# 6 0.0000 0.0000 0.0000 0.0000 0.0000 27.4641
#
#
#
# Elastic Compliance Matrix: (Units=1/GPa)
#
#
# Indices 1 2 3 4 5 6 
#
# 1 0.016810 -0.003891 -0.008089 0.000000 0.000000 0.000000
# 2 -0.003891 0.015697 -0.005262 0.000000 0.000000 0.000000
# 3 -0.008089 -0.005262 0.019060 0.000000 0.000000 0.000000
# 4 0.000000 0.000000 0.000000 0.035750 0.000000 0.000000
# 5 0.000000 0.000000 0.000000 0.000000 0.025386 0.000000
# 6 0.000000 0.000000 0.000000 0.000000 0.000000 0.036411
#
#
# Mechanical properties :
#
#
# Convention : Reuss Voigt Hill
#
# Bulk Modulus (GPa) = 58.53214 58.78447 58.65830
# Shear Modulus (GPa) = 26.41430 27.90400 27.15915
#
# Velocity S-wave (km/s) = 3.67759 3.77987 3.72908
# Velocity P-wave (km/s) = 6.92839 7.01062 6.96963
#
# Compressibility (1/GPa) = 0.01708463
#
# Stress axis : x y z
#
# Youngs Moduli (GPa) = 59.48778 63.70589 52.46609
#
# Poissons Ratio (x) = 0.24787 0.42439
# Poissons Ratio (y) = 0.23146 0.27605
# Poissons Ratio (z) = 0.48119 0.33519
#
# Static dielectric constant tensor:
#      x y z
#    x 3.555990 0.000000 0.000000 
#    y 0.000000 3.726290 0.000000 
#    z 0.000000 0.000000 3.719300 
# 
# 
# High freq. dielectric constant tensor:
#      x y z
#    x 1.750390 0.000000 0.000000 
#    y 0.000000 1.777230 0.000000 
#    z 0.000000 0.000000 1.766660 
# 
# From -- ./inp_files/47146.got.cif
#   From: 2010.06.25/outbox.cif.g09.slc.cpg/sg71_24_cif.got.tgz:47146.got - 2010.06.28 04:59:45.
