data_PCOD8291941
_publ_section_title
;
Structure prediction by ZEFSAII (Michael W. Deem and Ramdas Pophale) SiO2 
 PCOD8291941
Probable space group: I M M M
;
_chemical_formula_sum "Si O2"
_cell_formula_units_Z 64
_cell_length_a 25.965424
_cell_length_b 7.952954
_cell_length_c 14.852893
_cell_angle_alpha 90.000000
_cell_angle_beta 90.000000
_cell_angle_gamma 90.000000
_cell_volume 3067.149476
_symmetry_space_group_name_H-M "I M M M"
_symmetry_group_IT_number 71
_symmetry_cell_setting 'orthorhombic'
loop_
_space_group_symop_operation_xyz
x,y,z
-x,-y,z
x,-y,-z
-x,y,-z
-x,-y,-z
x,y,-z
-x,y,z
x,-y,z
1/2+x,1/2+y,1/2+z
1/2-x,1/2-y,1/2+z
1/2+x,1/2-y,1/2-z
1/2-x,1/2+y,1/2-z
1/2-x,1/2-y,1/2-z
1/2+x,1/2+y,1/2-z
1/2-x,1/2+y,1/2+z
1/2+x,1/2-y,1/2+z
loop_
_atom_site_type_symbol
_atom_site_label
_atom_site_fract_x
_atom_site_fract_y
_atom_site_fract_z
Si Si1 0.611906 0.200552 0.601321
Si Si2 0.943856 0.500000 0.392846
Si Si3 0.620236 0.313278 0.896704
Si Si4 0.500000 0.815734 0.606868
Si Si5 0.308654 0.198281 0.246461
O O1 0.625077 0.264331 0.500000
O O2 0.555085 0.272985 0.633094
O O3 0.657615 0.261560 0.667707
O O4 0.608198 0.000000 0.601411
O O5 0.945948 0.500000 0.500000
O O6 0.917621 0.329417 0.357263
O O7 0.000000 0.500000 0.349860
O O8 0.595900 0.500000 0.885839
O O9 0.672616 0.297623 0.841578
O O10 0.633729 0.276379 0.000000
O O11 0.500000 0.833275 0.500000
O O12 0.500000 0.000000 0.651926
O O13 0.250000 0.250000 0.250000
O O14 0.314801 0.000000 0.233581
#
# Coordination Sequence:
#
# PCOD8291941 Si02
#       5
#    16   8  16   8  16
#     4   8  15  29  50  78 110 143 181 228 287 352
#     4   9  18  36  62  90 119 153 197 244 293 356
#     4  10  21  39  61  85 119 159 199 245 298 353
#     4   7  10  22  46  74 104 135 170 217 274 342
#     4  11  22  36  54  82 116 155 200 250 295 349
#
# _framework density 20.86628
#
# number of rings (size 3 to 8) (size 9 to 14) (size 15 to 20)
#    0.000    2.750    1.250    2.250    0.000    1.500 
#    2.250    5.000    0.000    2.250    0.000    0.000 
#    0.000   12.000    0.000    0.000    0.000    0.000 
#
# Total GULP energy -396425.487644 kJ/mol
# GULP energy per Si atom -12388.296489 kJ/mol
# Density = 2.081879 g / cm^3
# Si number density = 20.866280 Si / 1000 Ang^3
#
#
#
# Elastic Constant Matrix: (Units=GPa)
#
#
# Indices 1 2 3 4 5 6 
#
# 1 194.4119 42.6146 70.8833 0.0000 0.0000 0.0000
# 2 42.6146 98.2664 33.3354 0.0000 0.0000 0.0000
# 3 70.8833 33.3354 84.3359 0.0000 0.0000 0.0000
# 4 0.0000 0.0000 0.0000 15.1529 0.0000 0.0000
# 5 0.0000 0.0000 0.0000 0.0000 34.4545 0.0000
# 6 0.0000 0.0000 0.0000 0.0000 0.0000 23.1875
#
#
#
# Elastic Compliance Matrix: (Units=1/GPa)
#
#
# Indices 1 2 3 4 5 6 
#
# 1 0.007557 -0.001296 -0.005839 0.000000 0.000000 0.000000
# 2 -0.001296 0.011975 -0.003644 0.000000 0.000000 0.000000
# 3 -0.005839 -0.003644 0.018205 0.000000 0.000000 0.000000
# 4 0.000000 0.000000 0.000000 0.065994 0.000000 0.000000
# 5 0.000000 0.000000 0.000000 0.000000 0.029024 0.000000
# 6 0.000000 0.000000 0.000000 0.000000 0.000000 0.043127
#
#
# Mechanical properties :
#
#
# Convention : Reuss Voigt Hill
#
# Bulk Modulus (GPa) = 61.80988 74.52009 68.16499
# Shear Modulus (GPa) = 24.65094 29.90437 27.27765
#
# Velocity S-wave (km/s) = 3.44085 3.78979 3.61953
# Velocity P-wave (km/s) = 6.74330 7.41220 7.08565
#
# Compressibility (1/GPa) = 0.01617864
#
# Stress axis : x y z
#
# Youngs Moduli (GPa) = 132.33149 83.50972 54.92946
#
# Poissons Ratio (x) = 0.10825 0.32073
# Poissons Ratio (y) = 0.17154 0.20015
# Poissons Ratio (z) = 0.77268 0.30428
#
# Static dielectric constant tensor:
#      x y z
#    x 3.586730 0.000000 0.000000 
#    y 0.000000 3.572880 0.000000 
#    z 0.000000 0.000000 4.189630 
# 
# 
# High freq. dielectric constant tensor:
#      x y z
#    x 1.814590 0.000000 0.000000 
#    y 0.000000 1.788710 0.000000 
#    z 0.000000 0.000000 1.811220 
# 
# From -- ./inp_files/5860.got.cif
#   From: 2010.06.25/outbox.cif.g09.slc.cpg/sg71_3_cif.got.tgz:5860.got - 2010.06.28 04:59:45.
