data_PCOD8291301
_publ_section_title
;
Structure prediction by ZEFSAII (Michael W. Deem and Ramdas Pophale) SiO2 
 PCOD8291301
Probable space group: I M M M
;
_chemical_formula_sum "Si O2"
_cell_formula_units_Z 72
_cell_length_a 22.752532
_cell_length_b 18.966801
_cell_length_c 8.071719
_cell_angle_alpha 90.000000
_cell_angle_beta 90.000000
_cell_angle_gamma 90.000000
_cell_volume 3483.291788
_symmetry_space_group_name_H-M "I M M M"
_symmetry_group_IT_number 71
_symmetry_cell_setting 'orthorhombic'
loop_
_space_group_symop_operation_xyz
x,y,z
-x,-y,z
x,-y,-z
-x,y,-z
-x,-y,-z
x,y,-z
-x,y,z
x,-y,z
1/2+x,1/2+y,1/2+z
1/2-x,1/2-y,1/2+z
1/2+x,1/2-y,1/2-z
1/2-x,1/2+y,1/2-z
1/2-x,1/2-y,1/2-z
1/2+x,1/2+y,1/2-z
1/2-x,1/2+y,1/2+z
1/2+x,1/2-y,1/2+z
loop_
_atom_site_type_symbol
_atom_site_label
_atom_site_fract_x
_atom_site_fract_y
_atom_site_fract_z
Si Si1 0.567682 0.580886 0.500000
Si Si2 0.356465 0.921317 0.310937
Si Si3 0.123886 0.845650 0.311381
Si Si4 0.433567 0.199816 0.191748
Si Si5 0.768294 0.080847 0.810116
O O1 0.583884 0.500000 0.500000
O O2 0.500000 0.598347 0.500000
O O3 0.591669 0.608957 0.326547
O O4 0.336158 0.920443 0.500000
O O5 0.410706 0.868882 0.286320
O O6 0.299915 0.897348 0.204504
O O7 0.376809 0.000000 0.257961
O O8 0.102031 0.862308 0.500000
O O9 0.110396 0.764291 0.269556
O O10 0.192999 0.864703 0.298381
O O11 0.500000 0.217640 0.252278
O O12 0.433756 0.181176 0.000000
O O13 0.776737 0.000000 0.747804
O O14 0.788611 0.087939 0.000000
#
# Coordination Sequence:
#
# PCOD8291301 Si02
#       5
#     8  16  16  16  16
#     4  11  24  40  60  90 125 165 214 260 309 368
#     4  10  22  39  61  92 124 158 204 258 318 380
#     4  11  23  40  63  92 126 167 210 261 309 371
#     4  10  23  42  62  86 119 164 213 257 313 375
#     4  10  20  37  62  91 125 164 206 254 313 376
#
# _framework density 20.670102
#
# number of rings (size 3 to 8) (size 9 to 14) (size 15 to 20)
#    0.000    1.667    1.111    2.667    1.556    7.111 
#    0.000    3.333    0.000    0.000    0.000    0.000 
#    0.000    0.000    0.000    0.000    0.000    0.000 
#
# Total GULP energy -446367.992297 kJ/mol
# GULP energy per Si atom -12399.110897 kJ/mol
# Density = 2.062306 g / cm^3
# Si number density = 20.670102 Si / 1000 Ang^3
#
#
#
# Elastic Constant Matrix: (Units=GPa)
#
#
# Indices 1 2 3 4 5 6 
#
# 1 99.2099 61.9599 25.2722 0.0000 0.0000 0.0000
# 2 61.9599 136.4299 51.6961 0.0000 0.0000 0.0000
# 3 25.2722 51.6961 99.8548 0.0000 0.0000 0.0000
# 4 0.0000 0.0000 0.0000 33.3832 0.0000 0.0000
# 5 0.0000 0.0000 0.0000 0.0000 28.7693 0.0000
# 6 0.0000 0.0000 0.0000 0.0000 0.0000 82.3444
#
#
#
# Elastic Compliance Matrix: (Units=1/GPa)
#
#
# Indices 1 2 3 4 5 6 
#
# 1 0.014078 -0.006275 -0.000315 0.000000 0.000000 0.000000
# 2 -0.006275 0.011915 -0.004581 0.000000 0.000000 0.000000
# 3 -0.000315 -0.004581 0.012466 0.000000 0.000000 0.000000
# 4 0.000000 0.000000 0.000000 0.029955 0.000000 0.000000
# 5 0.000000 0.000000 0.000000 0.000000 0.034759 0.000000
# 6 0.000000 0.000000 0.000000 0.000000 0.000000 0.012144
#
#
# Mechanical properties :
#
#
# Convention : Reuss Voigt Hill
#
# Bulk Modulus (GPa) = 62.03651 68.15010 65.09331
# Shear Modulus (GPa) = 34.95761 42.00381 38.48071
#
# Velocity S-wave (km/s) = 4.11690 4.51278 4.31938
# Velocity P-wave (km/s) = 7.25785 7.75858 7.51238
#
# Compressibility (1/GPa) = 0.01611954
#
# Stress axis : x y z
#
# Youngs Moduli (GPa) = 71.03053 83.92764 80.22074
#
# Poissons Ratio (x) = 0.52661 0.02525
# Poissons Ratio (y) = 0.44568 0.36746
# Poissons Ratio (z) = 0.02235 0.38443
#
# Static dielectric constant tensor:
#      x y z
#    x 3.779260 0.000000 0.000000 
#    y 0.000000 3.699600 0.000000 
#    z 0.000000 0.000000 4.375870 
# 
# 
# High freq. dielectric constant tensor:
#      x y z
#    x 1.807480 0.000000 0.000000 
#    y 0.000000 1.802030 0.000000 
#    z 0.000000 0.000000 1.815840 
# 
# From -- ./inp_files/9941.got.cif
#   From: 2010.06.25/outbox.cif.g09.slc.cpg/sg71_5_cif.got.tgz:9941.got - 2010.06.28 04:59:45.
