data_PCOD8291838
_publ_section_title
;
Structure prediction by ZEFSAII (Michael W. Deem and Ramdas Pophale) SiO2 
 PCOD8291838
Probable space group: I M M M
;
_chemical_formula_sum "Si O2"
_cell_formula_units_Z 88
_cell_length_a 17.739023
_cell_length_b 17.829193
_cell_length_c 15.240543
_cell_angle_alpha 90.000000
_cell_angle_beta 90.000000
_cell_angle_gamma 90.000000
_cell_volume 4820.164098
_symmetry_space_group_name_H-M "I M M M"
_symmetry_group_IT_number 71
_symmetry_cell_setting 'orthorhombic'
loop_
_space_group_symop_operation_xyz
x,y,z
-x,-y,z
x,-y,-z
-x,y,-z
-x,-y,-z
x,y,-z
-x,y,z
x,-y,z
1/2+x,1/2+y,1/2+z
1/2-x,1/2-y,1/2+z
1/2+x,1/2-y,1/2-z
1/2-x,1/2+y,1/2-z
1/2-x,1/2-y,1/2-z
1/2+x,1/2+y,1/2-z
1/2-x,1/2+y,1/2+z
1/2+x,1/2-y,1/2+z
loop_
_atom_site_type_symbol
_atom_site_label
_atom_site_fract_x
_atom_site_fract_y
_atom_site_fract_z
Si Si1 0.196536 0.913598 0.899746
Si Si2 0.194689 0.693412 0.304484
Si Si3 0.412246 0.080255 0.500000
Si Si4 0.911649 0.803631 0.399861
Si Si5 0.915056 0.914334 0.748328
Si Si6 0.412495 0.910061 0.690037
O O1 0.262543 0.858204 0.873637
O O2 0.127595 0.892133 0.836694
O O3 0.221734 0.000000 0.886409
O O4 0.171753 0.899346 0.000000
O O5 0.250000 0.750000 0.250000
O O6 0.135186 0.733752 0.366392
O O7 0.147124 0.637155 0.244548
O O8 0.500000 0.063296 0.500000
O O9 0.393212 0.121025 0.408426
O O10 0.369836 0.000000 0.500000
O O11 0.890716 0.823685 0.500000
O O12 0.885930 0.872155 0.338067
O O13 0.000000 0.785409 0.391062
O O14 0.000000 0.892000 0.769328
O O15 0.904445 0.000000 0.723641
O O16 0.500000 0.892326 0.715107
O O17 0.398709 0.000000 0.698571
#
# Coordination Sequence:
#
# PCOD8291838 Si02
#       6
#    16  16   8  16  16  16
#     4  10  21  38  58  79 108 146 185 227 276 327
#     4  12  22  36  52  80 113 148 180 229 280 336
#     4   7  12  28  54  82 106 128 164 219 272 316
#     4  10  21  38  58  79 108 146 185 227 276 327
#     4   9  18  35  58  82 106 137 182 225 266 328
#     4   9  18  35  59  82 107 144 189 230 272 328
#
# _framework density 18.256639
#
# number of rings (size 3 to 8) (size 9 to 14) (size 15 to 20)
#    0.000    2.273    1.818    2.727    0.000    0.727 
#    3.273    3.636    0.000    0.000    0.000    7.636 
#    0.000    0.000    0.000    0.000    0.000    0.000 
#
# Total GULP energy -545082.975428 kJ/mol
# GULP energy per Si atom -12388.249442 kJ/mol
# Density = 1.821509 g / cm^3
# Si number density = 18.256639 Si / 1000 Ang^3
#
#
#
# Elastic Constant Matrix: (Units=GPa)
#
#
# Indices 1 2 3 4 5 6 
#
# 1 51.1157 50.6115 53.9640 0.0000 0.0000 0.0000
# 2 50.6115 79.1737 69.1734 0.0000 0.0000 0.0000
# 3 53.9640 69.1734 165.9097 0.0000 0.0000 0.0000
# 4 0.0000 0.0000 0.0000 50.8847 0.0000 0.0000
# 5 0.0000 0.0000 0.0000 0.0000 31.1271 0.0000
# 6 0.0000 0.0000 0.0000 0.0000 0.0000 35.0777
#
#
#
# Elastic Compliance Matrix: (Units=1/GPa)
#
#
# Indices 1 2 3 4 5 6 
#
# 1 0.055984 -0.031269 -0.005173 0.000000 0.000000 0.000000
# 2 -0.031269 0.037332 -0.005394 0.000000 0.000000 0.000000
# 3 -0.005173 -0.005394 0.009959 0.000000 0.000000 0.000000
# 4 0.000000 0.000000 0.000000 0.019652 0.000000 0.000000
# 5 0.000000 0.000000 0.000000 0.000000 0.032126 0.000000
# 6 0.000000 0.000000 0.000000 0.000000 0.000000 0.028508
#
#
# Mechanical properties :
#
#
# Convention : Reuss Voigt Hill
#
# Bulk Modulus (GPa) = 51.01015 71.52188 61.26601
# Shear Modulus (GPa) = 18.26365 31.58124 24.92244
#
# Velocity S-wave (km/s) = 3.16632 4.16366 3.69876
# Velocity P-wave (km/s) = 6.43185 7.89782 7.20223
#
# Compressibility (1/GPa) = 0.01960394
#
# Stress axis : x y z
#
# Youngs Moduli (GPa) = 17.86211 26.78680 100.41184
#
# Poissons Ratio (x) = 0.83758 0.51940
# Poissons Ratio (y) = 0.55852 0.54167
# Poissons Ratio (z) = 0.09239 0.14450
#
# Static dielectric constant tensor:
#      x y z
#    x 3.445630 0.000000 0.000000 
#    y 0.000000 3.371280 0.000000 
#    z 0.000000 0.000000 3.679620 
# 
# 
# High freq. dielectric constant tensor:
#      x y z
#    x 1.701230 0.000000 0.000000 
#    y 0.000000 1.702310 0.000000 
#    z 0.000000 0.000000 1.718520 
# 
# From -- ./inp_files/23968.got.cif
#   From: 2010.06.25/outbox.cif.g09.slc.cpg/sg71_12_cif.got.tgz:23968.got - 2010.06.28 04:59:45.
