data_PCOD8291938
_publ_section_title
;
Structure prediction by ZEFSAII (Michael W. Deem and Ramdas Pophale) SiO2 
 PCOD8291938
Probable space group: I M M M
;
_chemical_formula_sum "Si O2"
_cell_formula_units_Z 88
_cell_length_a 17.630080
_cell_length_b 9.102837
_cell_length_c 28.353648
_cell_angle_alpha 90.000000
_cell_angle_beta 90.000000
_cell_angle_gamma 90.000000
_cell_volume 4550.299602
_symmetry_space_group_name_H-M "I M M M"
_symmetry_group_IT_number 71
_symmetry_cell_setting 'orthorhombic'
loop_
_space_group_symop_operation_xyz
x,y,z
-x,-y,z
x,-y,-z
-x,y,-z
-x,-y,-z
x,y,-z
-x,y,z
x,-y,z
1/2+x,1/2+y,1/2+z
1/2-x,1/2-y,1/2+z
1/2+x,1/2-y,1/2-z
1/2-x,1/2+y,1/2-z
1/2-x,1/2-y,1/2-z
1/2+x,1/2+y,1/2-z
1/2-x,1/2+y,1/2+z
1/2+x,1/2-y,1/2+z
loop_
_atom_site_type_symbol
_atom_site_label
_atom_site_fract_x
_atom_site_fract_y
_atom_site_fract_z
Si Si1 0.587878 0.170939 0.890920
Si Si2 0.830043 0.168821 0.797013
Si Si3 0.500000 0.835152 0.444458
Si Si4 0.843025 0.671727 0.706469
Si Si5 0.141435 0.171989 0.901874
Si Si6 0.715005 0.671566 0.944767
O O1 0.500000 0.197981 0.901288
O O2 0.606806 0.224217 0.837788
O O3 0.633770 0.266808 0.928622
O O4 0.610242 0.000000 0.896707
O O5 0.872432 0.255043 0.754998
O O6 0.743264 0.222031 0.803022
O O7 0.872545 0.197310 0.846250
O O8 0.831908 0.000000 0.782700
O O9 0.500000 0.844762 0.500000
O O10 0.574192 0.749038 0.429203
O O11 0.500000 0.000000 0.423060
O O12 0.851003 0.500000 0.713576
O O13 0.220766 0.241298 0.916866
O O14 0.143093 0.000000 0.914238
O O15 0.720886 0.500000 0.932581
O O16 0.724999 0.699995 0.000000
#
# Coordination Sequence:
#
# PCOD8291938 Si02
#       6
#    16  16   8  16  16  16
#     4  10  21  39  61  85 117 156 201 249 293 347
#     4   9  18  33  56  85 115 147 188 238 287 341
#     4  11  25  43  61  87 123 157 195 245 300 355
#     4   9  17  33  55  83 116 149 189 236 288 343
#     4  11  22  40  64  89 119 154 197 244 291 351
#     4  11  24  40  60  87 118 152 194 245 299 356
#
# _framework density 19.339385
#
# number of rings (size 3 to 8) (size 9 to 14) (size 15 to 20)
#    0.000    1.909    1.818    1.909    0.000    7.273 
#    1.636    1.818    0.000    0.000    0.000    0.000 
#    0.000    0.000    0.000    0.000    0.000    0.000 
#
# Total GULP energy -545707.954174 kJ/mol
# GULP energy per Si atom -12402.453504 kJ/mol
# Density = 1.929537 g / cm^3
# Si number density = 19.339385 Si / 1000 Ang^3
#
#
#
# Elastic Constant Matrix: (Units=GPa)
#
#
# Indices 1 2 3 4 5 6 
#
# 1 71.6899 34.8458 16.0523 0.0000 0.0000 0.0000
# 2 34.8458 92.6758 45.0318 0.0000 0.0000 0.0000
# 3 16.0523 45.0318 74.1521 0.0000 0.0000 0.0000
# 4 0.0000 0.0000 0.0000 37.5984 0.0000 0.0000
# 5 0.0000 0.0000 0.0000 0.0000 26.3316 0.0000
# 6 0.0000 0.0000 0.0000 0.0000 0.0000 25.6380
#
#
#
# Elastic Compliance Matrix: (Units=1/GPa)
#
#
# Indices 1 2 3 4 5 6 
#
# 1 0.017073 -0.006559 0.000287 0.000000 0.000000 0.000000
# 2 -0.006559 0.017827 -0.009406 0.000000 0.000000 0.000000
# 3 0.000287 -0.009406 0.019136 0.000000 0.000000 0.000000
# 4 0.000000 0.000000 0.000000 0.026597 0.000000 0.000000
# 5 0.000000 0.000000 0.000000 0.000000 0.037977 0.000000
# 6 0.000000 0.000000 0.000000 0.000000 0.000000 0.039005
#
#
# Mechanical properties :
#
#
# Convention : Reuss Voigt Hill
#
# Bulk Modulus (GPa) = 44.09206 47.81974 45.95590
# Shear Modulus (GPa) = 25.44144 27.41948 26.43046
#
# Velocity S-wave (km/s) = 3.63095 3.76946 3.70085
# Velocity P-wave (km/s) = 6.35822 6.61252 6.48662
#
# Compressibility (1/GPa) = 0.02267982
#
# Stress axis : x y z
#
# Youngs Moduli (GPa) = 58.57325 56.09477 52.25771
#
# Poissons Ratio (x) = 0.36792 -0.01501
# Poissons Ratio (y) = 0.38417 0.49155
# Poissons Ratio (z) = -0.01682 0.52764
#
# Static dielectric constant tensor:
#      x y z
#    x 3.403730 0.000000 0.000000 
#    y 0.000000 3.586010 0.000000 
#    z 0.000000 0.000000 3.671500 
# 
# 
# High freq. dielectric constant tensor:
#      x y z
#    x 1.738890 0.000000 0.000000 
#    y 0.000000 1.754520 0.000000 
#    z 0.000000 0.000000 1.764100 
# 
# From -- ./inp_files/70380.got.cif
#   From: 2010.06.25/outbox.cif.g09.slc.cpg/sg71_36_cif.got.tgz:70380.got - 2010.06.28 04:59:45.
