data_PCOD8291928
_publ_section_title
;
Structure prediction by ZEFSAII (Michael W. Deem and Ramdas Pophale) SiO2 
 PCOD8291928
Probable space group: I M M M
;
_chemical_formula_sum "Si O2"
_cell_formula_units_Z 48
_cell_length_a 16.685373
_cell_length_b 18.151371
_cell_length_c 7.899101
_cell_angle_alpha 90.000000
_cell_angle_beta 90.000000
_cell_angle_gamma 90.000000
_cell_volume 2392.340652
_symmetry_space_group_name_H-M "I M M M"
_symmetry_group_IT_number 71
_symmetry_cell_setting 'orthorhombic'
loop_
_space_group_symop_operation_xyz
x,y,z
-x,-y,z
x,-y,-z
-x,y,-z
-x,-y,-z
x,y,-z
-x,y,z
x,-y,z
1/2+x,1/2+y,1/2+z
1/2-x,1/2-y,1/2+z
1/2+x,1/2-y,1/2-z
1/2-x,1/2+y,1/2-z
1/2-x,1/2-y,1/2-z
1/2+x,1/2+y,1/2-z
1/2-x,1/2+y,1/2+z
1/2+x,1/2-y,1/2+z
loop_
_atom_site_type_symbol
_atom_site_label
_atom_site_fract_x
_atom_site_fract_y
_atom_site_fract_z
Si Si1 0.412054 0.913890 0.000000
Si Si2 0.854517 0.815893 0.694936
Si Si3 0.172647 0.656886 0.812012
Si Si4 0.500000 0.416784 0.799002
O O1 0.367611 0.892223 0.170751
O O2 0.500000 0.876856 0.000000
O O3 0.420014 0.000000 0.000000
O O4 0.871460 0.794908 0.500000
O O5 0.857370 0.741014 0.801480
O O6 0.767573 0.851904 0.716618
O O7 0.920913 0.873177 0.764109
O O8 0.149913 0.628139 0.000000
O O9 0.500000 0.500000 0.723320
O O10 0.500000 0.421677 0.000000
#
# Coordination Sequence:
#
# PCOD8291928 Si02
#       4
#     8  16  16   8
#     4  11  26  44  62  87 119 159 205 257 320 368
#     4   9  18  34  60  92 125 160 203 246 291 359
#     4  10  21  38  64  92 118 157 207 253 301 357
#     4   9  18  32  55  89 127 165 197 236 299 368
#
# _framework density 20.064032999999998
#
# number of rings (size 3 to 8) (size 9 to 14) (size 15 to 20)
#    0.000    2.333    1.667    0.000    4.667    2.667 
#    0.000    5.000    0.000    1.000    0.000    0.000 
#    0.000    0.000    0.000    0.000    0.000    0.000 
#
# Total GULP energy -297574.686097 kJ/mol
# GULP energy per Si atom -12398.945254 kJ/mol
# Density = 2.001837 g / cm^3
# Si number density = 20.064033 Si / 1000 Ang^3
#
#
#
# Elastic Constant Matrix: (Units=GPa)
#
#
# Indices 1 2 3 4 5 6 
#
# 1 144.1199 71.6548 53.8175 0.0000 0.0000 0.0000
# 2 71.6548 84.0787 34.4713 0.0000 0.0000 0.0000
# 3 53.8175 34.4713 119.2229 0.0000 0.0000 0.0000
# 4 0.0000 0.0000 0.0000 14.8531 0.0000 0.0000
# 5 0.0000 0.0000 0.0000 0.0000 13.0082 0.0000
# 6 0.0000 0.0000 0.0000 0.0000 0.0000 26.2089
#
#
#
# Elastic Compliance Matrix: (Units=1/GPa)
#
#
# Indices 1 2 3 4 5 6 
#
# 1 0.012925 -0.009783 -0.003006 0.000000 0.000000 0.000000
# 2 -0.009783 0.020898 -0.001626 0.000000 0.000000 0.000000
# 3 -0.003006 -0.001626 0.010215 0.000000 0.000000 0.000000
# 4 0.000000 0.000000 0.000000 0.067326 0.000000 0.000000
# 5 0.000000 0.000000 0.000000 0.000000 0.076874 0.000000
# 6 0.000000 0.000000 0.000000 0.000000 0.000000 0.038155
#
#
# Mechanical properties :
#
#
# Convention : Reuss Voigt Hill
#
# Bulk Modulus (GPa) = 65.75669 74.14542 69.95106
# Shear Modulus (GPa) = 19.20924 23.31257 21.26091
#
# Velocity S-wave (km/s) = 3.09754 3.41238 3.25876
# Velocity P-wave (km/s) = 6.75556 7.24985 7.00707
#
# Compressibility (1/GPa) = 0.01520758
#
# Stress axis : x y z
#
# Youngs Moduli (GPa) = 77.36942 47.85248 97.89825
#
# Poissons Ratio (x) = 0.46813 0.29427
# Poissons Ratio (y) = 0.75689 0.15920
# Poissons Ratio (z) = 0.23256 0.07782
#
# Static dielectric constant tensor:
#      x y z
#    x 3.909470 0.000000 0.000000 
#    y 0.000000 3.512610 0.000000 
#    z 0.000000 0.000000 3.870160 
# 
# 
# High freq. dielectric constant tensor:
#      x y z
#    x 1.790560 0.000000 0.000000 
#    y 0.000000 1.767220 0.000000 
#    z 0.000000 0.000000 1.776370 
# 
# From -- ./inp_files/4651.got.cif
#   From: 2010.06.25/outbox.cif.g09.slc.cpg/sg71_3_cif.got.tgz:4651.got - 2010.06.28 04:59:45.
