data_PCOD8291976
_publ_section_title
;
Structure prediction by ZEFSAII (Michael W. Deem and Ramdas Pophale) SiO2 
 PCOD8291976
Probable space group: I M M M
;
_chemical_formula_sum "Si O2"
_cell_formula_units_Z 64
_cell_length_a 10.696969
_cell_length_b 33.256205
_cell_length_c 8.532890
_cell_angle_alpha 90.000000
_cell_angle_beta 90.000000
_cell_angle_gamma 90.000000
_cell_volume 3035.495357
_symmetry_space_group_name_H-M "I M M M"
_symmetry_group_IT_number 71
_symmetry_cell_setting 'orthorhombic'
loop_
_space_group_symop_operation_xyz
x,y,z
-x,-y,z
x,-y,-z
-x,y,-z
-x,-y,-z
x,y,-z
-x,y,z
x,-y,z
1/2+x,1/2+y,1/2+z
1/2-x,1/2-y,1/2+z
1/2+x,1/2-y,1/2-z
1/2-x,1/2+y,1/2-z
1/2-x,1/2-y,1/2-z
1/2+x,1/2+y,1/2-z
1/2-x,1/2+y,1/2+z
1/2+x,1/2-y,1/2+z
loop_
_atom_site_type_symbol
_atom_site_label
_atom_site_fract_x
_atom_site_fract_y
_atom_site_fract_z
Si Si1 0.255389 0.422904 0.815734
Si Si2 0.759642 0.833327 0.313619
Si Si3 0.500000 0.712009 0.315471
Si Si4 0.500000 0.954730 0.313191
Si Si5 0.500000 0.199789 0.185909
Si Si6 0.140379 0.000000 0.834278
O O1 0.299160 0.378641 0.762256
O O2 0.117895 0.430796 0.746670
O O3 0.341258 0.459181 0.761383
O O4 0.252749 0.424559 0.000000
O O5 0.743413 0.829104 0.500000
O O6 0.872872 0.805483 0.257733
O O7 0.626689 0.823435 0.233867
O O8 0.500000 0.704049 0.500000
O O9 0.500000 0.758849 0.279985
O O10 0.500000 0.956176 0.500000
O O11 0.500000 0.000000 0.246519
O O12 0.500000 0.207280 0.000000
O O13 0.000000 0.000000 0.882997
O O14 0.216911 0.000000 0.000000
#
# Coordination Sequence:
#
# PCOD8291976 Si02
#       6
#    16  16   8   8   8   8
#     4  10  21  39  64  90 120 162 211 259 309 375
#     4  11  24  43  68 100 134 171 220 274 327 389
#     4  12  26  45  69  97 133 174 216 269 330 394
#     4   9  15  30  58  87 113 145 196 253 302 353
#     4  12  25  45  71 100 134 173 214 262 328 399
#     4  11  25  40  55  82 124 169 210 261 318 371
#
# _framework density 21.083872
#
# number of rings (size 3 to 8) (size 9 to 14) (size 15 to 20)
#    0.000    1.250    1.250    4.875    1.750    5.000 
#    0.000    1.250    0.000    0.000    0.000    0.000 
#    0.000    0.000    0.000    0.000    0.000    0.000 
#
# Total GULP energy -396586.572439 kJ/mol
# GULP energy per Si atom -12393.330389 kJ/mol
# Density = 2.103588 g / cm^3
# Si number density = 21.083872 Si / 1000 Ang^3
#
#
#
# Elastic Constant Matrix: (Units=GPa)
#
#
# Indices 1 2 3 4 5 6 
#
# 1 114.7994 33.0212 24.8075 -0.0077 -0.0016 -0.0007
# 2 33.0212 142.0356 22.6271 -0.0037 -0.0029 0.0040
# 3 24.8075 22.6271 55.8305 -0.0373 0.0018 -0.0056
# 4 -0.0077 -0.0037 -0.0373 -19.8989 -0.0002 -0.0006
# 5 -0.0016 -0.0029 0.0018 -0.0002 30.6335 -0.0009
# 6 -0.0007 0.0040 -0.0056 -0.0006 -0.0009 -37.6782
#
#
#
# Elastic Compliance Matrix: (Units=1/GPa)
#
#
# Indices 1 2 3 4 5 6 
#
# 1 0.010019 -0.001732 -0.003750 0.000003 0.000001 0.000000
# 2 -0.001732 0.007826 -0.002402 0.000004 0.000001 0.000001
# 3 -0.003750 -0.002402 0.020551 -0.000037 -0.000002 -0.000003
# 4 0.000003 0.000004 -0.000037 -0.050254 0.000000 0.000001
# 5 0.000001 0.000001 -0.000002 0.000000 0.032644 -0.000001
# 6 0.000000 0.000001 -0.000003 0.000001 -0.000001 -0.026541
#
#
# Mechanical properties :
#
#
# Convention : Reuss Voigt Hill
#
# Bulk Modulus (GPa) = 44.19273 52.61969 48.40621
# Shear Modulus (GPa) = 284.79174 10.09193 147.44183
#
# Velocity S-wave (km/s) = 11.63481 2.19020 8.37155
# Velocity P-wave (km/s) = 14.19499 5.60423 10.79132
#
# Compressibility (1/GPa) = 0.02262815
#
# Stress axis : x y z
#
# Youngs Moduli (GPa) = 99.80636 127.78232 48.65913
#
# Poissons Ratio (x) = 0.22131 0.18247
# Poissons Ratio (y) = 0.17286 0.11688
# Poissons Ratio (z) = 0.37428 0.30694
#
# Static dielectric constant tensor:
#      x y z
#    x 3.977570 0.000000 0.000000 
#    y 0.000000 4.379700 -0.000020 
#    z 0.000000 -0.000020 3.713390 
# 
# 
# High freq. dielectric constant tensor:
#      x y z
#    x 1.834520 0.000000 0.000000 
#    y 0.000000 1.843000 0.000000 
#    z 0.000000 0.000000 1.820490 
# 
# From -- ./inp_files/3851.got.cif
#   From: 2010.06.25/outbox.cif.g09.slc.cpg/sg71_2_cif.got.tgz:3851.got - 2010.06.28 04:59:45.
