data_PCOD8291384
_publ_section_title
;
Structure prediction by ZEFSAII (Michael W. Deem and Ramdas Pophale) SiO2 
 PCOD8291384
Probable space group: I M M M
;
_chemical_formula_sum "Si O2"
_cell_formula_units_Z 96
_cell_length_a 16.441539
_cell_length_b 25.085356
_cell_length_c 12.154702
_cell_angle_alpha 90.000000
_cell_angle_beta 90.000000
_cell_angle_gamma 90.000000
_cell_volume 5013.107889
_symmetry_space_group_name_H-M "I M M M"
_symmetry_group_IT_number 71
_symmetry_cell_setting 'orthorhombic'
loop_
_space_group_symop_operation_xyz
x,y,z
-x,-y,z
x,-y,-z
-x,y,-z
-x,-y,-z
x,y,-z
-x,y,z
x,-y,z
1/2+x,1/2+y,1/2+z
1/2-x,1/2-y,1/2+z
1/2+x,1/2-y,1/2-z
1/2-x,1/2+y,1/2-z
1/2-x,1/2-y,1/2-z
1/2+x,1/2+y,1/2-z
1/2-x,1/2+y,1/2+z
1/2+x,1/2-y,1/2+z
loop_
_atom_site_type_symbol
_atom_site_label
_atom_site_fract_x
_atom_site_fract_y
_atom_site_fract_z
Si Si1 0.167401 0.372455 0.288485
Si Si2 0.908687 0.909004 0.874050
Si Si3 0.591071 0.563845 0.000000
Si Si4 0.687829 0.305251 0.625620
Si Si5 0.092005 0.296842 0.126865
Si Si6 0.200930 0.941641 0.692632
Si Si7 0.096906 0.436196 0.500000
O O1 0.228612 0.324856 0.320500
O O2 0.098196 0.346524 0.211629
O O3 0.214941 0.411297 0.206146
O O4 0.132534 0.406073 0.392170
O O5 0.884072 0.847723 0.856519
O O6 0.846890 0.946198 0.807915
O O7 0.000000 0.917449 0.830581
O O8 0.900972 0.926443 0.000000
O O9 0.640163 0.586118 0.105386
O O10 0.585728 0.500000 0.000000
O O11 0.500000 0.588028 0.000000
O O12 0.709538 0.297833 0.500000
O O13 0.653678 0.249053 0.670096
O O14 0.000000 0.275232 0.132805
O O15 0.111948 0.313450 0.000000
O O16 0.224106 0.000000 0.649990
O O17 0.119855 0.500000 0.500000
O O18 0.000000 0.429757 0.500000
#
# Coordination Sequence:
#
# PCOD8291384 Si02
#       7
#    16  16   8  16  16  16   8
#     4  11  21  37  59  85 114 148 193 244 286 345
#     4   9  17  29  48  76 111 145 179 221 273 333
#     4   9  18  34  52  71 101 142 184 221 269 334
#     4   9  17  33  55  84 112 147 183 225 283 343
#     4  10  21  36  58  85 114 147 185 232 289 357
#     4  10  21  33  51  75 103 143 189 235 281 329
#     4  11  24  42  64  87 117 160 202 245 300 350
#
# _framework density 19.149797
#
# number of rings (size 3 to 8) (size 9 to 14) (size 15 to 20)
#    0.000    2.167    0.833    2.500    2.333    3.333 
#    0.000    0.833    0.000    0.000    0.000    7.000 
#    0.000    0.000    0.000    0.000    0.000    0.000 
#
# Total GULP energy -594806.850193 kJ/mol
# GULP energy per Si atom -12391.809379 kJ/mol
# Density = 1.910621 g / cm^3
# Si number density = 19.149797 Si / 1000 Ang^3
#
#
#
# Elastic Constant Matrix: (Units=GPa)
#
#
# Indices 1 2 3 4 5 6 
#
# 1 94.9280 37.3532 36.4992 -0.0001 0.0000 0.0000
# 2 37.3532 83.4067 47.7568 -0.0001 0.0000 -0.0003
# 3 36.4992 47.7568 82.8848 0.0010 0.0000 -0.0010
# 4 -0.0001 -0.0001 0.0010 20.1195 0.0000 -0.0005
# 5 0.0000 0.0000 0.0000 0.0000 31.3999 0.0002
# 6 0.0000 -0.0003 -0.0010 -0.0005 0.0002 0.1624
#
#
#
# Elastic Compliance Matrix: (Units=1/GPa)
#
#
# Indices 1 2 3 4 5 6 
#
# 1 0.013497 -0.003942 -0.003672 0.000000 0.000000 -0.000027
# 2 -0.003942 0.019044 -0.009237 0.000001 0.000000 -0.000021
# 3 -0.003672 -0.009237 0.019004 -0.000001 0.000000 0.000099
# 4 0.000000 0.000001 -0.000001 0.049703 0.000000 0.000150
# 5 0.000000 0.000000 0.000000 0.000000 0.031847 -0.000035
# 6 -0.000027 -0.000021 0.000099 0.000150 -0.000035 6.156226
#
#
# Mechanical properties :
#
#
# Convention : Reuss Voigt Hill
#
# Bulk Modulus (GPa) = 56.04458 56.04869 56.04663
# Shear Modulus (GPa) = 0.79002 19.64372 10.21687
#
# Velocity S-wave (km/s) = 0.64299 3.20627 2.31232
# Velocity P-wave (km/s) = 5.46637 6.56041 6.03822
#
# Compressibility (1/GPa) = 0.01784294
#
# Stress axis : x y z
#
# Youngs Moduli (GPa) = 74.08794 52.51117 52.62010
#
# Poissons Ratio (x) = 0.20700 0.19324
# Poissons Ratio (y) = 0.29206 0.48603
# Poissons Ratio (z) = 0.27208 0.48503
#
# Static dielectric constant tensor:
#      x y z
#    x 3.534030 0.000000 0.000000 
#    y 0.000000 3.448460 0.000000 
#    z 0.000000 0.000000 3.526080 
# 
# 
# High freq. dielectric constant tensor:
#      x y z
#    x 1.743920 0.000000 0.000000 
#    y 0.000000 1.727960 0.000000 
#    z 0.000000 0.000000 1.744260 
# 
# From -- ./inp_files/22587.got.cif
#   From: 2010.06.25/outbox.cif.g09.slc.cpg/sg71_12_cif.got.tgz:22587.got - 2010.06.28 04:59:45.
