data_PCOD8291293
_publ_section_title
;
Structure prediction by ZEFSAII (Michael W. Deem and Ramdas Pophale) SiO2 
 PCOD8291293
Probable space group: I M M M
;
_chemical_formula_sum "Si O2"
_cell_formula_units_Z 64
_cell_length_a 23.960608
_cell_length_b 8.669141
_cell_length_c 15.481547
_cell_angle_alpha 90.000000
_cell_angle_beta 90.000000
_cell_angle_gamma 90.000000
_cell_volume 3215.794264
_symmetry_space_group_name_H-M "I M M M"
_symmetry_group_IT_number 71
_symmetry_cell_setting 'orthorhombic'
loop_
_space_group_symop_operation_xyz
x,y,z
-x,-y,z
x,-y,-z
-x,y,-z
-x,-y,-z
x,y,-z
-x,y,z
x,-y,z
1/2+x,1/2+y,1/2+z
1/2-x,1/2-y,1/2+z
1/2+x,1/2-y,1/2-z
1/2-x,1/2+y,1/2-z
1/2-x,1/2-y,1/2-z
1/2+x,1/2+y,1/2-z
1/2-x,1/2+y,1/2+z
1/2+x,1/2-y,1/2+z
loop_
_atom_site_type_symbol
_atom_site_label
_atom_site_fract_x
_atom_site_fract_y
_atom_site_fract_z
Si Si1 0.222456 0.317161 0.334607
Si Si2 0.612401 0.680205 0.099771
Si Si3 0.000000 0.317467 0.130134
Si Si4 0.500000 0.817802 0.829066
Si Si5 0.415799 0.683532 0.500000
Si Si6 0.710756 0.683066 0.500000
O O1 0.222899 0.500000 0.330370
O O2 0.250000 0.250000 0.250000
O O3 0.159097 0.259626 0.341212
O O4 0.257733 0.253290 0.415723
O O5 0.611529 0.500000 0.119730
O O6 0.553249 0.750657 0.123194
O O7 0.625541 0.715379 0.000000
O O8 0.000000 0.500000 0.118009
O O9 0.000000 0.266631 0.229361
O O10 0.944920 0.248129 0.085910
O O11 0.500000 0.000000 0.838392
O O12 0.419971 0.500000 0.500000
O O13 0.352496 0.743957 0.500000
O O14 0.711593 0.500000 0.500000
#
# Coordination Sequence:
#
# PCOD8291293 Si02
#       6
#    16  16   8   8   8   8
#     4  11  23  42  65  94 129 168 211 259 313 376
#     4  11  24  43  65  92 124 161 207 260 312 370
#     4  10  22  40  57  87 123 156 198 252 303 358
#     4  11  25  41  63  92 123 162 205 253 314 375
#     4  10  20  37  62  88 117 161 203 242 301 364
#     4   9  21  40  63  91 125 162 205 252 308 373
#
# _framework density 19.901771
#
# number of rings (size 3 to 8) (size 9 to 14) (size 15 to 20)
#    0.000    1.500    1.250    3.750    3.500    5.000 
#    0.000    3.750    0.000    0.000    0.000    0.000 
#    0.000    0.000    0.000    0.000    0.000    0.000 
#
# Total GULP energy -396981.326271 kJ/mol
# GULP energy per Si atom -12405.666446 kJ/mol
# Density = 1.985647 g / cm^3
# Si number density = 19.901771 Si / 1000 Ang^3
#
#
#
# Elastic Constant Matrix: (Units=GPa)
#
#
# Indices 1 2 3 4 5 6 
#
# 1 173.8760 46.2228 57.0218 0.0000 0.0000 0.0000
# 2 46.2228 93.9292 51.4066 0.0000 0.0000 0.0000
# 3 57.0218 51.4066 121.6045 0.0000 0.0000 0.0000
# 4 0.0000 0.0000 0.0000 34.8081 0.0000 0.0000
# 5 0.0000 0.0000 0.0000 0.0000 30.2709 0.0000
# 6 0.0000 0.0000 0.0000 0.0000 0.0000 31.6690
#
#
#
# Elastic Compliance Matrix: (Units=1/GPa)
#
#
# Indices 1 2 3 4 5 6 
#
# 1 0.007124 -0.002183 -0.002418 0.000000 0.000000 0.000000
# 2 -0.002183 0.014519 -0.005114 0.000000 0.000000 0.000000
# 3 -0.002418 -0.005114 0.011519 0.000000 0.000000 0.000000
# 4 0.000000 0.000000 0.000000 0.028729 0.000000 0.000000
# 5 0.000000 0.000000 0.000000 0.000000 0.033035 0.000000
# 6 0.000000 0.000000 0.000000 0.000000 0.000000 0.031577
#
#
# Mechanical properties :
#
#
# Convention : Reuss Voigt Hill
#
# Bulk Modulus (GPa) = 72.81736 77.63467 75.22601
# Shear Modulus (GPa) = 33.22000 35.00016 34.11008
#
# Velocity S-wave (km/s) = 4.09001 4.19817 4.14445
# Velocity P-wave (km/s) = 7.67933 7.91158 7.79632
#
# Compressibility (1/GPa) = 0.01373299
#
# Stress axis : x y z
#
# Youngs Moduli (GPa) = 140.36207 68.87312 86.81065
#
# Poissons Ratio (x) = 0.15032 0.20992
# Poissons Ratio (y) = 0.30635 0.44399
# Poissons Ratio (z) = 0.33941 0.35225
#
# Static dielectric constant tensor:
#      x y z
#    x 3.769390 0.000000 0.000000 
#    y 0.000000 3.609590 0.000000 
#    z 0.000000 0.000000 3.771660 
# 
# 
# High freq. dielectric constant tensor:
#      x y z
#    x 1.792410 0.000000 0.000000 
#    y 0.000000 1.779470 0.000000 
#    z 0.000000 0.000000 1.785880 
# 
# From -- ./inp_files/38807.got.cif
#   From: 2010.06.25/outbox.cif.g09.slc.cpg/sg71_20_cif.got.tgz:38807.got - 2010.06.28 04:59:45.
