data_PCOD8291807
_publ_section_title
;
Structure prediction by ZEFSAII (Michael W. Deem and Ramdas Pophale) SiO2 
 PCOD8291807
Probable space group: I M M M
;
_chemical_formula_sum "Si O2"
_cell_formula_units_Z 88
_cell_length_a 16.956636
_cell_length_b 28.590261
_cell_length_c 8.803803
_cell_angle_alpha 90.000000
_cell_angle_beta 90.000000
_cell_angle_gamma 90.000000
_cell_volume 4268.036585
_symmetry_space_group_name_H-M "I M M M"
_symmetry_group_IT_number 71
_symmetry_cell_setting 'orthorhombic'
loop_
_space_group_symop_operation_xyz
x,y,z
-x,-y,z
x,-y,-z
-x,y,-z
-x,-y,-z
x,y,-z
-x,y,z
x,-y,z
1/2+x,1/2+y,1/2+z
1/2-x,1/2-y,1/2+z
1/2+x,1/2-y,1/2-z
1/2-x,1/2+y,1/2-z
1/2-x,1/2-y,1/2-z
1/2+x,1/2+y,1/2-z
1/2-x,1/2+y,1/2+z
1/2+x,1/2-y,1/2+z
loop_
_atom_site_type_symbol
_atom_site_label
_atom_site_fract_x
_atom_site_fract_y
_atom_site_fract_z
Si Si1 0.412041 0.637398 0.179277
Si Si2 0.910692 0.312242 0.824035
Si Si3 0.196500 0.053674 0.677062
Si Si4 0.343626 0.898442 0.820710
Si Si5 0.830247 0.230753 0.679398
Si Si6 0.000000 0.448601 0.680335
O O1 0.500000 0.641277 0.251051
O O2 0.376375 0.586858 0.224148
O O3 0.354082 0.678725 0.238580
O O4 0.419208 0.642151 0.000000
O O5 0.844713 0.348323 0.762188
O O6 0.901199 0.264210 0.732124
O O7 0.000000 0.330392 0.796484
O O8 0.893222 0.303160 0.000000
O O9 0.217006 0.059505 0.500000
O O10 0.271242 0.069319 0.774138
O O11 0.174684 0.000000 0.716343
O O12 0.422202 0.923331 0.760600
O O13 0.342906 0.890384 0.000000
O O14 0.821070 0.231365 0.500000
O O15 0.750000 0.250000 0.750000
O O16 0.000000 0.500000 0.751823
O O17 0.000000 0.450688 0.500000
#
# Coordination Sequence:
#
# PCOD8291807 Si02
#       6
#    16  16  16  16  16   8
#     4   9  19  37  60  86 116 153 199 249 294 345
#     4  11  23  38  57  83 119 157 196 247 302 356
#     4  10  21  37  59  88 120 152 191 245 308 366
#     4  11  21  36  58  83 116 157 203 248 296 359
#     4  11  22  37  60  88 120 158 201 247 299 360
#     4   9  18  32  51  77 109 147 195 247 290 341
#
# _framework density 20.618379000000001
#
# number of rings (size 3 to 8) (size 9 to 14) (size 15 to 20)
#    0.000    1.727    0.909    3.818    0.000    4.727 
#    0.000    2.727    0.000    4.909    0.000    1.273 
#    0.000    0.000    0.000    0.000    0.000    0.000 
#
# Total GULP energy -545600.710895 kJ/mol
# GULP energy per Si atom -12400.016157 kJ/mol
# Density = 2.057145 g / cm^3
# Si number density = 20.618379 Si / 1000 Ang^3
#
#
#
# Elastic Constant Matrix: (Units=GPa)
#
#
# Indices 1 2 3 4 5 6 
#
# 1 135.4446 63.5302 30.7574 -0.0002 0.0001 0.0000
# 2 63.5302 168.0163 36.3613 -0.0006 0.0007 0.0001
# 3 30.7574 36.3613 59.1250 -0.0096 -0.0007 -0.0003
# 4 -0.0002 -0.0006 -0.0096 25.8462 -0.0002 -0.0003
# 5 0.0001 0.0007 -0.0007 -0.0002 26.9826 -0.0001
# 6 0.0000 0.0001 -0.0003 -0.0003 -0.0001 34.4507
#
#
#
# Elastic Compliance Matrix: (Units=1/GPa)
#
#
# Indices 1 2 3 4 5 6 
#
# 1 0.009454 -0.002896 -0.003137 -0.000001 0.000000 0.000000
# 2 -0.002896 0.007753 -0.003261 -0.000001 0.000000 0.000000
# 3 -0.003137 -0.003261 0.020551 0.000008 0.000001 0.000000
# 4 -0.000001 -0.000001 0.000008 0.038690 0.000000 0.000000
# 5 0.000000 0.000000 0.000001 0.000000 0.037061 0.000000
# 6 0.000000 0.000000 0.000000 0.000000 0.000000 0.029027
#
#
# Mechanical properties :
#
#
# Convention : Reuss Voigt Hill
#
# Bulk Modulus (GPa) = 52.16777 69.32039 60.74408
# Shear Modulus (GPa) = 29.84834 32.91835 31.38334
#
# Velocity S-wave (km/s) = 3.80894 4.00002 3.90565
# Velocity P-wave (km/s) = 6.68584 7.41804 7.06144
#
# Compressibility (1/GPa) = 0.01916892
#
# Stress axis : x y z
#
# Youngs Moduli (GPa) = 105.77858 128.98994 48.65951
#
# Poissons Ratio (x) = 0.37352 0.15265
# Poissons Ratio (y) = 0.30631 0.15870
# Poissons Ratio (z) = 0.33183 0.42068
#
# Static dielectric constant tensor:
#      x y z
#    x 3.817310 0.000000 0.000000 
#    y 0.000000 4.064190 -0.000010 
#    z 0.000000 -0.000010 3.434960 
# 
# 
# High freq. dielectric constant tensor:
#      x y z
#    x 1.810300 0.000000 0.000000 
#    y 0.000000 1.820870 0.000000 
#    z 0.000000 0.000000 1.778850 
# 
# From -- ./inp_files/8721.got.cif
#   From: 2010.06.25/outbox.cif.g09.slc.cpg/sg71_5_cif.got.tgz:8721.got - 2010.06.28 04:59:45.
