data_PCOD8291580
_publ_section_title
;
Structure prediction by ZEFSAII (Michael W. Deem and Ramdas Pophale) SiO2 
 PCOD8291580
Probable space group: I M M M
;
_chemical_formula_sum "Si O2"
_cell_formula_units_Z 72
_cell_length_a 9.063156
_cell_length_b 27.180050
_cell_length_c 15.867132
_cell_angle_alpha 90.000000
_cell_angle_beta 90.000000
_cell_angle_gamma 90.000000
_cell_volume 3908.662223
_symmetry_space_group_name_H-M "I M M M"
_symmetry_group_IT_number 71
_symmetry_cell_setting 'orthorhombic'
loop_
_space_group_symop_operation_xyz
x,y,z
-x,-y,z
x,-y,-z
-x,y,-z
-x,-y,-z
x,y,-z
-x,y,z
x,-y,z
1/2+x,1/2+y,1/2+z
1/2-x,1/2-y,1/2+z
1/2+x,1/2-y,1/2-z
1/2-x,1/2+y,1/2-z
1/2-x,1/2-y,1/2-z
1/2+x,1/2+y,1/2-z
1/2-x,1/2+y,1/2+z
1/2+x,1/2-y,1/2+z
loop_
_atom_site_type_symbol
_atom_site_label
_atom_site_fract_x
_atom_site_fract_y
_atom_site_fract_z
Si Si1 0.331158 0.556319 0.332846
Si Si2 0.167839 0.357607 0.403650
Si Si3 0.830252 0.895582 0.342626
Si Si4 0.826767 0.198373 0.761621
Si Si5 0.325154 0.943252 0.500000
O O1 0.500000 0.569954 0.354702
O O2 0.296208 0.500000 0.350255
O O3 0.223079 0.586474 0.393501
O O4 0.300638 0.568112 0.235220
O O5 0.179422 0.341069 0.500000
O O6 0.272753 0.322455 0.350434
O O7 0.000000 0.353524 0.371196
O O8 0.788060 0.839861 0.313900
O O9 0.729523 0.913651 0.418628
O O10 0.000000 0.897825 0.371821
O O11 0.750000 0.250000 0.750000
O O12 0.000000 0.206544 0.766756
O O13 0.500000 0.942612 0.500000
O O14 0.267261 0.000000 0.500000
#
# Coordination Sequence:
#
# PCOD8291580 Si02
#       5
#    16  16  16  16   8
#     4   9  18  33  54  79 107 143 185 226 271 322
#     4  10  21  36  54  79 111 145 180 220 266 319
#     4   9  19  36  56  78 106 143 184 224 270 330
#     4  10  21  39  62  84 107 139 180 227 280 332
#     4  11  23  35  51  81 117 149 185 231 278 325
#
# _framework density 18.420624
#
# number of rings (size 3 to 8) (size 9 to 14) (size 15 to 20)
#    0.000    2.333    0.000    3.667    0.000    8.889 
#    2.000    2.222    0.000    0.000    0.000    0.000 
#    0.000    0.000    0.000    0.000    0.000    0.000 
#
# Total GULP energy -446404.644552 kJ/mol
# GULP energy per Si atom -12400.129015 kJ/mol
# Density = 1.837870 g / cm^3
# Si number density = 18.420624 Si / 1000 Ang^3
#
#
#
# Elastic Constant Matrix: (Units=GPa)
#
#
# Indices 1 2 3 4 5 6 
#
# 1 97.9103 64.0680 51.1934 0.0001 0.0000 0.0000
# 2 64.0680 120.9410 52.6517 0.0002 0.0000 0.0000
# 3 51.1934 52.6517 83.1519 0.0003 0.0000 0.0000
# 4 0.0001 0.0002 0.0003 14.5849 0.0000 0.0000
# 5 0.0000 0.0000 0.0000 0.0000 33.5701 0.0000
# 6 0.0000 0.0000 0.0000 0.0000 0.0000 36.6164
#
#
#
# Elastic Compliance Matrix: (Units=1/GPa)
#
#
# Indices 1 2 3 4 5 6 
#
# 1 0.018196 -0.006575 -0.007040 0.000000 0.000000 0.000000
# 2 -0.006575 0.013791 -0.004685 0.000000 0.000000 0.000000
# 3 -0.007040 -0.004685 0.019327 0.000000 0.000000 0.000000
# 4 0.000000 0.000000 0.000000 0.068564 0.000000 0.000000
# 5 0.000000 0.000000 0.000000 0.000000 0.029788 0.000000
# 6 0.000000 0.000000 0.000000 0.000000 0.000000 0.027310
#
#
# Mechanical properties :
#
#
# Convention : Reuss Voigt Hill
#
# Bulk Modulus (GPa) = 67.95419 70.86992 69.41205
# Shear Modulus (GPa) = 22.88543 25.89362 24.38952
#
# Velocity S-wave (km/s) = 3.52857 3.75332 3.64267
# Velocity P-wave (km/s) = 7.31925 7.57231 7.44685
#
# Compressibility (1/GPa) = 0.01471580
#
# Stress axis : x y z
#
# Youngs Moduli (GPa) = 54.95590 72.51178 51.74242
#
# Poissons Ratio (x) = 0.47675 0.36425
# Poissons Ratio (y) = 0.36132 0.24239
# Poissons Ratio (z) = 0.38687 0.33969
#
# Static dielectric constant tensor:
#      x y z
#    x 3.471330 0.000000 0.000000 
#    y 0.000000 3.640110 0.000000 
#    z 0.000000 0.000000 3.294640 
# 
# 
# High freq. dielectric constant tensor:
#      x y z
#    x 1.720630 0.000000 0.000000 
#    y 0.000000 1.717300 0.000000 
#    z 0.000000 0.000000 1.707010 
# 
# From -- ./inp_files/6019.got.cif
#   From: 2010.06.25/outbox.cif.g09.slc.cpg/sg71_4_cif.got.tgz:6019.got - 2010.06.28 04:59:45.
