data_PCOD8291565
_publ_section_title
;
Structure prediction by ZEFSAII (Michael W. Deem and Ramdas Pophale) SiO2 
 PCOD8291565
Probable space group: I M M M
;
_chemical_formula_sum "Si O2"
_cell_formula_units_Z 80
_cell_length_a 28.803807
_cell_length_b 9.584700
_cell_length_c 15.743532
_cell_angle_alpha 90.000000
_cell_angle_beta 90.000000
_cell_angle_gamma 90.000000
_cell_volume 4346.408962
_symmetry_space_group_name_H-M "I M M M"
_symmetry_group_IT_number 71
_symmetry_cell_setting 'orthorhombic'
loop_
_space_group_symop_operation_xyz
x,y,z
-x,-y,z
x,-y,-z
-x,y,-z
-x,-y,-z
x,y,-z
-x,y,z
x,-y,z
1/2+x,1/2+y,1/2+z
1/2-x,1/2-y,1/2+z
1/2+x,1/2-y,1/2-z
1/2-x,1/2+y,1/2-z
1/2-x,1/2-y,1/2-z
1/2+x,1/2+y,1/2-z
1/2-x,1/2+y,1/2+z
1/2+x,1/2-y,1/2+z
loop_
_atom_site_type_symbol
_atom_site_label
_atom_site_fract_x
_atom_site_fract_y
_atom_site_fract_z
Si Si1 0.601788 0.161040 0.904286
Si Si2 0.197947 0.659372 0.669314
Si Si3 0.054373 0.837283 0.741368
Si Si4 0.199639 0.839528 0.833618
Si Si5 0.395001 0.336249 0.591736
O O1 0.657276 0.187812 0.898217
O O2 0.573525 0.256726 0.839995
O O3 0.590242 0.000000 0.883946
O O4 0.586586 0.199358 0.000000
O O5 0.196984 0.500000 0.700480
O O6 0.188281 0.753158 0.750203
O O7 0.248852 0.694315 0.629398
O O8 0.077021 0.774063 0.827873
O O9 0.000000 0.811994 0.748012
O O10 0.066783 0.000000 0.730133
O O11 0.160067 0.803199 0.901942
O O12 0.195819 0.000000 0.806284
O O13 0.411542 0.274225 0.500000
O O14 0.404456 0.500000 0.591147
#
# Coordination Sequence:
#
# PCOD8291565 Si02
#       5
#    16  16  16  16  16
#     4  10  21  36  54  77 105 137 172 210 256 309
#     4   9  17  29  48  74 103 135 169 205 246 294
#     4  10  21  37  56  77 102 132 169 216 264 306
#     4   9  16  28  49  75 103 135 169 204 244 294
#     4   9  17  30  51  79 106 132 165 205 251 302
#
# _framework density 18.405999000000001
#
# number of rings (size 3 to 8) (size 9 to 14) (size 15 to 20)
#    0.000    2.600    2.000    0.000    0.000    2.400 
#    0.000    8.000    0.000    2.400    0.000    7.000 
#    0.000    0.000    0.000    0.000    0.000    0.000 
#
# Total GULP energy -495690.950870 kJ/mol
# GULP energy per Si atom -12392.273772 kJ/mol
# Density = 1.836411 g / cm^3
# Si number density = 18.405999 Si / 1000 Ang^3
#
#
#
# Elastic Constant Matrix: (Units=GPa)
#
#
# Indices 1 2 3 4 5 6 
#
# 1 96.1368 35.3465 65.7086 0.0000 0.0000 0.0000
# 2 35.3465 42.9025 44.7458 0.0000 0.0000 0.0000
# 3 65.7086 44.7458 145.5324 0.0000 0.0000 0.0000
# 4 0.0000 0.0000 0.0000 19.3876 0.0000 0.0000
# 5 0.0000 0.0000 0.0000 0.0000 14.7912 0.0000
# 6 0.0000 0.0000 0.0000 0.0000 0.0000 23.4537
#
#
#
# Elastic Compliance Matrix: (Units=1/GPa)
#
#
# Indices 1 2 3 4 5 6 
#
# 1 0.017065 -0.008867 -0.004979 0.000000 0.000000 0.000000
# 2 -0.008867 0.038919 -0.007963 0.000000 0.000000 0.000000
# 3 -0.004979 -0.007963 0.011567 0.000000 0.000000 0.000000
# 4 0.000000 0.000000 0.000000 0.051579 0.000000 0.000000
# 5 0.000000 0.000000 0.000000 0.000000 0.067608 0.000000
# 6 0.000000 0.000000 0.000000 0.000000 0.000000 0.042637
#
#
# Mechanical properties :
#
#
# Convention : Reuss Voigt Hill
#
# Bulk Modulus (GPa) = 41.78039 64.01929 52.89984
# Shear Modulus (GPa) = 17.79554 20.77788 19.28671
#
# Velocity S-wave (km/s) = 3.11277 3.36350 3.24056
# Velocity P-wave (km/s) = 5.97225 7.06693 6.54252
#
# Compressibility (1/GPa) = 0.02393468
#
# Stress axis : x y z
#
# Youngs Moduli (GPa) = 58.60044 25.69471 86.44995
#
# Poissons Ratio (x) = 0.22783 0.43040
# Poissons Ratio (y) = 0.51960 0.68837
# Poissons Ratio (z) = 0.29175 0.20460
#
# Static dielectric constant tensor:
#      x y z
#    x 3.611490 0.000000 0.000000 
#    y 0.000000 3.198830 0.000000 
#    z 0.000000 0.000000 3.460900 
# 
# 
# High freq. dielectric constant tensor:
#      x y z
#    x 1.724900 0.000000 0.000000 
#    y 0.000000 1.683230 0.000000 
#    z 0.000000 0.000000 1.703890 
# 
# From -- ./inp_files/20121.got.cif
#   From: 2010.06.25/outbox.cif.g09.slc.cpg/sg71_11_cif.got.tgz:20121.got - 2010.06.28 04:59:45.
