data_PCOD8291954
_publ_section_title
;
Structure prediction by ZEFSAII (Michael W. Deem and Ramdas Pophale) SiO2 
 PCOD8291954
Probable space group: I M M M
;
_chemical_formula_sum "Si O2"
_cell_formula_units_Z 64
_cell_length_a 8.084919
_cell_length_b 25.593132
_cell_length_c 14.681658
_cell_angle_alpha 90.000000
_cell_angle_beta 90.000000
_cell_angle_gamma 90.000000
_cell_volume 3037.905171
_symmetry_space_group_name_H-M "I M M M"
_symmetry_group_IT_number 71
_symmetry_cell_setting 'orthorhombic'
loop_
_space_group_symop_operation_xyz
x,y,z
-x,-y,z
x,-y,-z
-x,y,-z
-x,-y,-z
x,y,-z
-x,y,z
x,-y,z
1/2+x,1/2+y,1/2+z
1/2-x,1/2-y,1/2+z
1/2+x,1/2-y,1/2-z
1/2-x,1/2+y,1/2-z
1/2-x,1/2-y,1/2-z
1/2+x,1/2+y,1/2-z
1/2-x,1/2+y,1/2+z
1/2+x,1/2-y,1/2+z
loop_
_atom_site_type_symbol
_atom_site_label
_atom_site_fract_x
_atom_site_fract_y
_atom_site_fract_z
Si Si1 0.691437 0.308806 0.754262
Si Si2 0.683258 0.118731 0.395521
Si Si3 0.000000 0.943365 0.608199
Si Si4 0.311327 0.500000 0.607588
Si Si5 0.306961 0.112384 0.895462
O O1 0.500000 0.311559 0.782031
O O2 0.750000 0.250000 0.750000
O O3 0.806420 0.329555 0.835837
O O4 0.716881 0.342543 0.662373
O O5 0.715002 0.133755 0.500000
O O6 0.500000 0.092968 0.383920
O O7 0.829904 0.082254 0.357251
O O8 0.000000 0.946061 0.500000
O O9 0.000000 0.000000 0.653135
O O10 0.500000 0.500000 0.639103
O O11 0.289130 0.500000 0.500000
O O12 0.229164 0.553936 0.644074
O O13 0.500000 0.123044 0.888365
O O14 0.244311 0.116970 0.000000
#
# Coordination Sequence:
#
# PCOD8291954 Si02
#       5
#    16  16   8   8  16
#     4  12  25  42  63  88 121 158 206 260 307 367
#     4  10  21  40  64  90 124 163 205 252 305 364
#     4   9  18  36  62  92 125 161 203 250 303 364
#     4   9  17  33  59  89 122 159 198 245 301 361
#     4  10  21  39  62  90 124 161 202 249 304 365
#
# _framework density 21.067148
#
# number of rings (size 3 to 8) (size 9 to 14) (size 15 to 20)
#    0.000    1.750    1.250    3.375    0.000    4.500 
#    2.250    2.500    0.000    0.000    0.000    0.000 
#    0.000    0.000    0.000    0.000    0.000    0.000 
#
# Total GULP energy -396636.493495 kJ/mol
# GULP energy per Si atom -12394.890422 kJ/mol
# Density = 2.101920 g / cm^3
# Si number density = 21.067148 Si / 1000 Ang^3
#
#
#
# Elastic Constant Matrix: (Units=GPa)
#
#
# Indices 1 2 3 4 5 6 
#
# 1 145.4333 49.1575 29.7415 -0.0001 0.0000 0.0000
# 2 49.1575 160.9377 49.0273 -0.0001 0.0000 0.0000
# 3 29.7415 49.0273 76.2265 -0.0004 -0.0001 -0.0001
# 4 -0.0001 -0.0001 -0.0004 31.2720 0.0000 0.0000
# 5 0.0000 0.0000 -0.0001 0.0000 28.4181 -0.0001
# 6 0.0000 0.0000 -0.0001 0.0000 -0.0001 33.0475
#
#
#
# Elastic Compliance Matrix: (Units=1/GPa)
#
#
# Indices 1 2 3 4 5 6 
#
# 1 0.007883 -0.001829 -0.001899 0.000000 0.000000 0.000000
# 2 -0.001829 0.008152 -0.004530 0.000000 0.000000 0.000000
# 3 -0.001899 -0.004530 0.016773 0.000000 0.000000 0.000000
# 4 0.000000 0.000000 0.000000 0.031977 0.000000 0.000000
# 5 0.000000 0.000000 0.000000 0.000000 0.035189 0.000000
# 6 0.000000 0.000000 0.000000 0.000000 0.000000 0.030260
#
#
# Mechanical properties :
#
#
# Convention : Reuss Voigt Hill
#
# Bulk Modulus (GPa) = 61.37922 70.93891 66.15906
# Shear Modulus (GPa) = 32.85576 35.52559 34.19068
#
# Velocity S-wave (km/s) = 3.95343 4.11092 4.03294
# Velocity P-wave (km/s) = 7.07374 7.50191 7.29097
#
# Compressibility (1/GPa) = 0.01629216
#
# Stress axis : x y z
#
# Youngs Moduli (GPa) = 126.86082 122.66664 59.61921
#
# Poissons Ratio (x) = 0.22438 0.11322
# Poissons Ratio (y) = 0.23205 0.27005
# Poissons Ratio (z) = 0.24092 0.55563
#
# Static dielectric constant tensor:
#      x y z
#    x 4.022830 0.000000 0.000000 
#    y 0.000000 3.850750 0.000000 
#    z 0.000000 0.000000 3.785350 
# 
# 
# High freq. dielectric constant tensor:
#      x y z
#    x 1.843570 0.000000 0.000000 
#    y 0.000000 1.816910 0.000000 
#    z 0.000000 0.000000 1.819030 
# 
# From -- ./inp_files/31201.got.cif
#   From: 2010.06.25/outbox.cif.g09.slc.cpg/sg71_16_cif.got.tgz:31201.got - 2010.06.28 04:59:45.
