data_PCOD8291221
_publ_section_title
;
Structure prediction by ZEFSAII (Michael W. Deem and Ramdas Pophale) SiO2 
 PCOD8291221
Probable space group: I M M M
;
_chemical_formula_sum "Si O2"
_cell_formula_units_Z 88
_cell_length_a 14.134142
_cell_length_b 14.037303
_cell_length_c 21.800342
_cell_angle_alpha 90.000000
_cell_angle_beta 90.000000
_cell_angle_gamma 90.000000
_cell_volume 4325.301954
_symmetry_space_group_name_H-M "I M M M"
_symmetry_group_IT_number 71
_symmetry_cell_setting 'orthorhombic'
loop_
_space_group_symop_operation_xyz
x,y,z
-x,-y,z
x,-y,-z
-x,y,-z
-x,-y,-z
x,y,-z
-x,y,z
x,-y,z
1/2+x,1/2+y,1/2+z
1/2-x,1/2-y,1/2+z
1/2+x,1/2-y,1/2-z
1/2-x,1/2+y,1/2-z
1/2-x,1/2-y,1/2-z
1/2+x,1/2+y,1/2-z
1/2-x,1/2+y,1/2+z
1/2+x,1/2-y,1/2+z
loop_
_atom_site_type_symbol
_atom_site_label
_atom_site_fract_x
_atom_site_fract_y
_atom_site_fract_z
Si Si1 0.897328 0.392259 0.353449
Si Si2 0.712809 0.613067 0.875210
Si Si3 0.144916 0.230600 0.731893
Si Si4 0.892137 0.112770 0.500000
Si Si5 0.395781 0.758029 0.636408
Si Si6 0.718124 0.391681 0.429150
O O1 0.876136 0.500000 0.332093
O O2 0.901648 0.326809 0.293695
O O3 0.814299 0.354231 0.397201
O O4 0.000000 0.387109 0.386948
O O5 0.723921 0.500000 0.871713
O O6 0.643408 0.646835 0.819457
O O7 0.664930 0.646371 0.939275
O O8 0.817638 0.658410 0.868466
O O9 0.250000 0.250000 0.750000
O O10 0.093892 0.208790 0.796167
O O11 0.000000 0.154073 0.500000
O O12 0.898221 0.000000 0.500000
O O13 0.500000 0.797378 0.617770
O O14 0.369445 0.673106 0.590242
O O15 0.738169 0.381445 0.500000
O O16 0.695089 0.500000 0.410672
#
# Coordination Sequence:
#
# PCOD8291221 Si02
#       6
#    16  16  16   8  16  16
#     4  10  20  36  62  92 121 152 188 240 307 370
#     4  10  22  40  62  91 124 158 199 250 305 358
#     4  10  20  38  57  86 120 156 196 243 296 356
#     4   9  20  40  63  87 118 155 197 243 297 363
#     4  11  24  41  61  87 120 160 207 254 299 353
#     4  10  22  41  62  87 121 157 198 247 299 359
#
# _framework density 20.345400000000001
#
# number of rings (size 3 to 8) (size 9 to 14) (size 15 to 20)
#    0.000    1.909    3.636    0.545    1.273    6.545 
#    0.000    2.727    0.000    1.636    0.000    0.000 
#    0.000    0.000    0.000    0.000    0.000    0.000 
#
# Total GULP energy -545263.027876 kJ/mol
# GULP energy per Si atom -12392.341543 kJ/mol
# Density = 2.029909 g / cm^3
# Si number density = 20.345400 Si / 1000 Ang^3
#
#
#
# Elastic Constant Matrix: (Units=GPa)
#
#
# Indices 1 2 3 4 5 6 
#
# 1 133.4341 30.4410 29.5306 0.0000 0.0000 0.0000
# 2 30.4410 77.2059 25.5135 0.0000 0.0000 0.0000
# 3 29.5306 25.5135 76.8207 0.0000 0.0000 0.0000
# 4 0.0000 0.0000 0.0000 29.5246 0.0000 0.0000
# 5 0.0000 0.0000 0.0000 0.0000 11.4971 0.0000
# 6 0.0000 0.0000 0.0000 0.0000 0.0000 24.2496
#
#
#
# Elastic Compliance Matrix: (Units=1/GPa)
#
#
# Indices 1 2 3 4 5 6 
#
# 1 0.008629 -0.002590 -0.002457 0.000000 0.000000 0.000000
# 2 -0.002590 0.015327 -0.004095 0.000000 0.000000 0.000000
# 3 -0.002457 -0.004095 0.015322 0.000000 0.000000 0.000000
# 4 0.000000 0.000000 0.000000 0.033870 0.000000 0.000000
# 5 0.000000 0.000000 0.000000 0.000000 0.086978 0.000000
# 6 0.000000 0.000000 0.000000 0.000000 0.000000 0.041238
#
#
# Mechanical properties :
#
#
# Convention : Reuss Voigt Hill
#
# Bulk Modulus (GPa) = 47.63261 50.93678 49.28469
# Shear Modulus (GPa) = 22.06096 26.51931 24.29014
#
# Velocity S-wave (km/s) = 3.29648 3.61426 3.45902
# Velocity P-wave (km/s) = 6.16050 6.51978 6.34269
#
# Compressibility (1/GPa) = 0.02099402
#
# Stress axis : x y z
#
# Youngs Moduli (GPa) = 115.88812 65.24510 65.26736
#
# Poissons Ratio (x) = 0.16901 0.16035
# Poissons Ratio (y) = 0.30020 0.26724
# Poissons Ratio (z) = 0.28471 0.26715
#
# Static dielectric constant tensor:
#      x y z
#    x 4.027260 0.000000 0.000000 
#    y 0.000000 3.616040 0.000000 
#    z 0.000000 0.000000 4.252540 
# 
# 
# High freq. dielectric constant tensor:
#      x y z
#    x 1.797530 0.000000 0.000000 
#    y 0.000000 1.786160 0.000000 
#    z 0.000000 0.000000 1.795080 
# 
# From -- ./inp_files/52888.got.cif
#   From: 2010.06.25/outbox.cif.g09.slc.cpg/sg71_27_cif.got.tgz:52888.got - 2010.06.28 04:59:45.
