data_PCOD8291361
_publ_section_title
;
Structure prediction by ZEFSAII (Michael W. Deem and Ramdas Pophale) SiO2 
 PCOD8291361
Probable space group: I M M M
;
_chemical_formula_sum "Si O2"
_cell_formula_units_Z 64
_cell_length_a 31.447997
_cell_length_b 11.140984
_cell_length_c 9.730153
_cell_angle_alpha 90.000000
_cell_angle_beta 90.000000
_cell_angle_gamma 90.000000
_cell_volume 3409.072279
_symmetry_space_group_name_H-M "I M M M"
_symmetry_group_IT_number 71
_symmetry_cell_setting 'orthorhombic'
loop_
_space_group_symop_operation_xyz
x,y,z
-x,-y,z
x,-y,-z
-x,y,-z
-x,-y,-z
x,y,-z
-x,y,z
x,-y,z
1/2+x,1/2+y,1/2+z
1/2-x,1/2-y,1/2+z
1/2+x,1/2-y,1/2-z
1/2-x,1/2+y,1/2-z
1/2-x,1/2-y,1/2-z
1/2+x,1/2+y,1/2-z
1/2-x,1/2+y,1/2+z
1/2+x,1/2-y,1/2+z
loop_
_atom_site_type_symbol
_atom_site_label
_atom_site_fract_x
_atom_site_fract_y
_atom_site_fract_z
Si Si1 0.702188 0.862427 0.500000
Si Si2 0.732059 0.141370 0.000000
Si Si3 0.546591 0.500000 0.161443
Si Si4 0.161164 0.365745 0.285414
Si Si5 0.572838 0.245381 0.841847
Si Si6 0.500000 0.859891 0.344657
O O1 0.733287 0.747556 0.500000
O O2 0.670632 0.848863 0.626530
O O3 0.723024 0.000000 0.500000
O O4 0.704042 0.167047 0.865922
O O5 0.748992 0.000000 0.000000
O O6 0.500000 0.500000 0.231371
O O7 0.571730 0.617287 0.208001
O O8 0.540848 0.500000 0.000000
O O9 0.147312 0.500000 0.322785
O O10 0.122076 0.285292 0.330304
O O11 0.542297 0.172807 0.740266
O O12 0.557370 0.228079 0.000000
O O13 0.500000 0.803031 0.500000
O O14 0.500000 0.000000 0.362548
#
# Coordination Sequence:
#
# PCOD8291361 Si02
#       6
#     8   8   8  16  16   8
#     4  10  22  40  60  85 120 159 187 232 307 364
#     4  10  20  40  62  87 116 147 195 250 289 346
#     4   9  18  36  58  82 116 152 188 242 292 338
#     4  10  21  37  60  86 116 151 195 242 288 344
#     4  11  21  39  62  85 115 155 201 238 290 345
#     4  11  25  38  57  88 120 153 192 241 290 347
#
# _framework density 18.773437000000001
#
# number of rings (size 3 to 8) (size 9 to 14) (size 15 to 20)
#    0.000    1.750    2.500    1.875    1.750    2.000 
#    4.500    1.250    0.000    0.000    0.000    0.000 
#    0.000    0.000    0.000    0.000    0.000    0.000 
#
# Total GULP energy -396553.002763 kJ/mol
# GULP energy per Si atom -12392.281336 kJ/mol
# Density = 1.873071 g / cm^3
# Si number density = 18.773437 Si / 1000 Ang^3
#
#
#
# Elastic Constant Matrix: (Units=GPa)
#
#
# Indices 1 2 3 4 5 6 
#
# 1 78.2405 60.9153 16.4513 0.0000 0.0000 0.0000
# 2 60.9153 130.7682 25.7373 0.0000 0.0000 0.0000
# 3 16.4513 25.7373 110.2715 0.0000 0.0000 0.0000
# 4 0.0000 0.0000 0.0000 19.8013 0.0000 0.0000
# 5 0.0000 0.0000 0.0000 0.0000 5.5349 0.0000
# 6 0.0000 0.0000 0.0000 0.0000 0.0000 42.1764
#
#
#
# Elastic Compliance Matrix: (Units=1/GPa)
#
#
# Indices 1 2 3 4 5 6 
#
# 1 0.020131 -0.009209 -0.000854 0.000000 0.000000 0.000000
# 2 -0.009209 0.012228 -0.001480 0.000000 0.000000 0.000000
# 3 -0.000854 -0.001480 0.009541 0.000000 0.000000 0.000000
# 4 0.000000 0.000000 0.000000 0.050502 0.000000 0.000000
# 5 0.000000 0.000000 0.000000 0.000000 0.180673 0.000000
# 6 0.000000 0.000000 0.000000 0.000000 0.000000 0.023710
#
#
# Mechanical properties :
#
#
# Convention : Reuss Voigt Hill
#
# Bulk Modulus (GPa) = 53.15251 58.38754 55.77002
# Shear Modulus (GPa) = 15.33069 27.91428 21.62248
#
# Velocity S-wave (km/s) = 2.86075 3.86022 3.39744
# Velocity P-wave (km/s) = 6.26785 7.14402 6.72023
#
# Compressibility (1/GPa) = 0.01881379
#
# Stress axis : x y z
#
# Youngs Moduli (GPa) = 49.67533 81.77677 104.80670
#
# Poissons Ratio (x) = 0.75311 0.08949
# Poissons Ratio (y) = 0.45748 0.15513
# Poissons Ratio (z) = 0.04241 0.12104
#
# Static dielectric constant tensor:
#      x y z
#    x 3.188150 0.000000 0.000000 
#    y 0.000000 3.259000 0.000000 
#    z 0.000000 0.000000 3.698610 
# 
# 
# High freq. dielectric constant tensor:
#      x y z
#    x 1.716860 0.000000 0.000000 
#    y 0.000000 1.735860 0.000000 
#    z 0.000000 0.000000 1.736110 
# 
# From -- ./inp_files/16204.got.cif
#   From: 2010.06.25/outbox.cif.g09.slc.cpg/sg71_9_cif.got.tgz:16204.got - 2010.06.28 04:59:45.
