data_PCOD8291776
_publ_section_title
;
Structure prediction by ZEFSAII (Michael W. Deem and Ramdas Pophale) SiO2 
 PCOD8291776
Probable space group: I M M M
;
_chemical_formula_sum "Si O2"
_cell_formula_units_Z 112
_cell_length_a 23.085290
_cell_length_b 18.030239
_cell_length_c 14.417718
_cell_angle_alpha 90.000000
_cell_angle_beta 90.000000
_cell_angle_gamma 90.000000
_cell_volume 6001.134285
_symmetry_space_group_name_H-M "I M M M"
_symmetry_group_IT_number 71
_symmetry_cell_setting 'orthorhombic'
loop_
_space_group_symop_operation_xyz
x,y,z
-x,-y,z
x,-y,-z
-x,y,-z
-x,-y,-z
x,y,-z
-x,y,z
x,-y,z
1/2+x,1/2+y,1/2+z
1/2-x,1/2-y,1/2+z
1/2+x,1/2-y,1/2-z
1/2-x,1/2+y,1/2-z
1/2-x,1/2-y,1/2-z
1/2+x,1/2+y,1/2-z
1/2-x,1/2+y,1/2+z
1/2+x,1/2-y,1/2+z
loop_
_atom_site_type_symbol
_atom_site_label
_atom_site_fract_x
_atom_site_fract_y
_atom_site_fract_z
Si Si1 0.763178 0.664097 0.250951
Si Si2 0.140937 0.911856 0.765484
Si Si3 0.935971 0.911880 0.398672
Si Si4 0.135560 0.662492 0.109648
Si Si5 0.157839 0.412635 0.608149
Si Si6 0.937474 0.413985 0.749330
Si Si7 0.932973 0.812331 0.108899
O O1 0.750000 0.750000 0.250000
O O2 0.705288 0.616509 0.250215
O O3 0.802626 0.650700 0.159986
O O4 0.792616 0.638139 0.346876
O O5 0.108351 0.880244 0.675386
O O6 0.104281 0.880956 0.852037
O O7 0.141786 0.000000 0.775141
O O8 0.915940 0.884399 0.500000
O O9 0.000000 0.881307 0.376177
O O10 0.936910 0.000000 0.395018
O O11 0.093198 0.600934 0.152172
O O12 0.104440 0.739863 0.135020
O O13 0.143762 0.650913 0.000000
O O14 0.152481 0.393574 0.500000
O O15 0.171468 0.500000 0.623830
O O16 0.099170 0.387762 0.660081
O O17 0.947217 0.500000 0.741799
O O18 0.000000 0.373576 0.745831
O O19 0.000000 0.808829 0.146257
O O20 0.935293 0.823202 0.000000
#
# Coordination Sequence:
#
# PCOD8291776 Si02
#       7
#    16  16  16  16  16  16  16
#     4  11  22  38  57  79 110 151 193 239 284 339
#     4  11  22  36  57  84 112 147 188 234 288 339
#     4   8  15  30  52  77 105 136 171 214 267 326
#     4  10  21  38  58  81 114 157 197 237 288 344
#     4   9  19  36  58  84 114 149 188 233 286 341
#     4   9  18  33  56  87 118 148 187 236 287 341
#     4  10  21  37  58  84 114 151 193 236 289 351
#
# _framework density 18.663138
#
# number of rings (size 3 to 8) (size 9 to 14) (size 15 to 20)
#    0.000    2.286    1.429    1.714    0.000    4.857 
#    0.000    2.857    0.000    0.000    0.000    0.000 
#    0.000    0.000    0.000    0.000    0.000    0.000 
#
# Total GULP energy -693965.751113 kJ/mol
# GULP energy per Si atom -12392.245556 kJ/mol
# Density = 1.862066 g / cm^3
# Si number density = 18.663138 Si / 1000 Ang^3
#
#
#
# Elastic Constant Matrix: (Units=GPa)
#
#
# Indices 1 2 3 4 5 6 
#
# 1 143.9460 31.6856 59.1212 0.0000 0.0000 0.0000
# 2 31.6856 37.4523 25.6781 0.0000 0.0000 0.0000
# 3 59.1212 25.6781 110.5441 0.0000 0.0000 0.0000
# 4 0.0000 0.0000 0.0000 25.2743 0.0000 0.0000
# 5 0.0000 0.0000 0.0000 0.0000 24.1543 0.0000
# 6 0.0000 0.0000 0.0000 0.0000 0.0000 18.1629
#
#
#
# Elastic Compliance Matrix: (Units=1/GPa)
#
#
# Indices 1 2 3 4 5 6 
#
# 1 0.009795 -0.005585 -0.003941 0.000000 0.000000 0.000000
# 2 -0.005585 0.034943 -0.005130 0.000000 0.000000 0.000000
# 3 -0.003941 -0.005130 0.012346 0.000000 0.000000 0.000000
# 4 0.000000 0.000000 0.000000 0.039566 0.000000 0.000000
# 5 0.000000 0.000000 0.000000 0.000000 0.041400 0.000000
# 6 0.000000 0.000000 0.000000 0.000000 0.000000 0.055057
#
#
# Mechanical properties :
#
#
# Convention : Reuss Voigt Hill
#
# Bulk Modulus (GPa) = 36.00820 58.32357 47.16588
# Shear Modulus (GPa) = 21.58183 25.21547 23.39865
#
# Velocity S-wave (km/s) = 3.40426 3.67970 3.54466
# Velocity P-wave (km/s) = 5.89810 7.02653 6.48690
#
# Compressibility (1/GPa) = 0.02777145
#
# Stress axis : x y z
#
# Youngs Moduli (GPa) = 102.09133 28.61835 80.99955
#
# Poissons Ratio (x) = 0.15982 0.31925
# Poissons Ratio (y) = 0.57014 0.41553
# Poissons Ratio (z) = 0.40238 0.14681
#
# Static dielectric constant tensor:
#      x y z
#    x 4.956160 0.000000 0.000000 
#    y 0.000000 3.559860 0.000000 
#    z 0.000000 0.000000 3.509500 
# 
# 
# High freq. dielectric constant tensor:
#      x y z
#    x 1.740540 0.000000 0.000000 
#    y 0.000000 1.707560 0.000000 
#    z 0.000000 0.000000 1.725470 
# 
# From -- ./inp_files/39288.got.cif
#   From: 2010.06.25/outbox.cif.g09.slc.cpg/sg71_20_cif.got.tgz:39288.got - 2010.06.28 04:59:45.
