data_PCOD8291914
_publ_section_title
;
Structure prediction by ZEFSAII (Michael W. Deem and Ramdas Pophale) SiO2 
 PCOD8291914
Probable space group: I M M M
;
_chemical_formula_sum "Si O2"
_cell_formula_units_Z 72
_cell_length_a 24.557205
_cell_length_b 18.137296
_cell_length_c 7.674482
_cell_angle_alpha 90.000000
_cell_angle_beta 90.000000
_cell_angle_gamma 90.000000
_cell_volume 3418.224229
_symmetry_space_group_name_H-M "I M M M"
_symmetry_group_IT_number 71
_symmetry_cell_setting 'orthorhombic'
loop_
_space_group_symop_operation_xyz
x,y,z
-x,-y,z
x,-y,-z
-x,y,-z
-x,-y,-z
x,y,-z
-x,y,z
x,-y,z
1/2+x,1/2+y,1/2+z
1/2-x,1/2-y,1/2+z
1/2+x,1/2-y,1/2-z
1/2-x,1/2+y,1/2-z
1/2-x,1/2-y,1/2-z
1/2+x,1/2+y,1/2-z
1/2-x,1/2+y,1/2+z
1/2+x,1/2-y,1/2+z
loop_
_atom_site_type_symbol
_atom_site_label
_atom_site_fract_x
_atom_site_fract_y
_atom_site_fract_z
Si Si1 0.936095 0.413247 0.000000
Si Si2 0.246794 0.580366 0.302018
Si Si3 0.938316 0.916144 0.202430
Si Si4 0.137480 0.345177 0.290129
Si Si5 0.156943 0.819838 0.306643
O O1 0.911977 0.378702 0.178539
O O2 0.924321 0.500000 0.000000
O O3 0.000000 0.395682 0.000000
O O4 0.232606 0.566414 0.500000
O O5 0.259996 0.500000 0.214661
O O6 0.192096 0.614576 0.221599
O O7 0.297539 0.635621 0.297427
O O8 0.899420 0.864154 0.312408
O O9 0.000000 0.891151 0.238275
O O10 0.929777 0.000000 0.263383
O O11 0.923603 0.908373 0.000000
O O12 0.126380 0.352192 0.500000
O O13 0.145337 0.260620 0.229763
O O14 0.180242 0.811210 0.500000
#
# Coordination Sequence:
#
# PCOD8291914 Si02
#       5
#     8  16  16  16  16
#     4  11  26  46  72 102 125 163 218 264 321 386
#     4  10  21  38  62  89 122 169 215 258 315 378
#     4   9  19  36  56  78 111 160 212 259 309 368
#     4  10  24  44  65  94 133 169 208 261 324 384
#     4  11  23  36  56  90 126 164 206 257 319 372
#
# _framework density 21.063569999999999
#
# number of rings (size 3 to 8) (size 9 to 14) (size 15 to 20)
#    0.000    1.889    0.000    3.333    4.667    6.667 
#    0.000    4.444    0.000    0.000    0.000    0.000 
#    0.000    0.000    0.000    0.000    0.000    0.000 
#
# Total GULP energy -446280.982084 kJ/mol
# GULP energy per Si atom -12396.693947 kJ/mol
# Density = 2.101563 g / cm^3
# Si number density = 21.063570 Si / 1000 Ang^3
#
#
#
# Elastic Constant Matrix: (Units=GPa)
#
#
# Indices 1 2 3 4 5 6 
#
# 1 144.7934 82.5695 35.9370 0.0000 0.0000 0.0000
# 2 82.5695 162.6914 38.1841 0.0000 0.0000 0.0000
# 3 35.9370 38.1841 60.7914 0.0000 0.0000 0.0000
# 4 0.0000 0.0000 0.0000 23.7331 0.0000 0.0000
# 5 0.0000 0.0000 0.0000 0.0000 33.6620 0.0000
# 6 0.0000 0.0000 0.0000 0.0000 0.0000 20.1467
#
#
#
# Elastic Compliance Matrix: (Units=1/GPa)
#
#
# Indices 1 2 3 4 5 6 
#
# 1 0.010246 -0.004432 -0.003273 0.000000 0.000000 0.000000
# 2 -0.004432 0.009126 -0.003113 0.000000 0.000000 0.000000
# 3 -0.003273 -0.003113 0.020340 0.000000 0.000000 0.000000
# 4 0.000000 0.000000 0.000000 0.042135 0.000000 0.000000
# 5 0.000000 0.000000 0.000000 0.000000 0.029707 0.000000
# 6 0.000000 0.000000 0.000000 0.000000 0.000000 0.049636
#
#
# Mechanical properties :
#
#
# Convention : Reuss Voigt Hill
#
# Bulk Modulus (GPa) = 55.31931 75.73970 65.52950
# Shear Modulus (GPa) = 26.47584 29.61407 28.04496
#
# Velocity S-wave (km/s) = 3.54919 3.75365 3.65285
# Velocity P-wave (km/s) = 6.56626 7.40421 6.99779
#
# Compressibility (1/GPa) = 0.01807687
#
# Stress axis : x y z
#
# Youngs Moduli (GPa) = 97.59788 109.57224 49.16487
#
# Poissons Ratio (x) = 0.48561 0.16093
# Poissons Ratio (y) = 0.43254 0.15303
# Poissons Ratio (z) = 0.31947 0.34105
#
# Static dielectric constant tensor:
#      x y z
#    x 3.704480 0.000000 0.000000 
#    y 0.000000 4.150550 0.000000 
#    z 0.000000 0.000000 3.589970 
# 
# 
# High freq. dielectric constant tensor:
#      x y z
#    x 1.824300 0.000000 0.000000 
#    y 0.000000 1.838330 0.000000 
#    z 0.000000 0.000000 1.816590 
# 
# From -- ./inp_files/7946.got.cif
#   From: 2010.06.25/outbox.cif.g09.slc.cpg/sg71_4_cif.got.tgz:7946.got - 2010.06.28 04:59:45.
