data_PCOD8291983
_publ_section_title
;
Structure prediction by ZEFSAII (Michael W. Deem and Ramdas Pophale) SiO2 
 PCOD8291983
Probable space group: I M M M
;
_chemical_formula_sum "Si O2"
_cell_formula_units_Z 88
_cell_length_a 20.536285
_cell_length_b 17.560934
_cell_length_c 11.962551
_cell_angle_alpha 90.000000
_cell_angle_beta 90.000000
_cell_angle_gamma 90.000000
_cell_volume 4314.130675
_symmetry_space_group_name_H-M "I M M M"
_symmetry_group_IT_number 71
_symmetry_cell_setting 'orthorhombic'
loop_
_space_group_symop_operation_xyz
x,y,z
-x,-y,z
x,-y,-z
-x,y,-z
-x,-y,-z
x,y,-z
-x,y,z
x,-y,z
1/2+x,1/2+y,1/2+z
1/2-x,1/2-y,1/2+z
1/2+x,1/2-y,1/2-z
1/2-x,1/2+y,1/2-z
1/2-x,1/2-y,1/2-z
1/2+x,1/2+y,1/2-z
1/2-x,1/2+y,1/2+z
1/2+x,1/2-y,1/2+z
loop_
_atom_site_type_symbol
_atom_site_label
_atom_site_fract_x
_atom_site_fract_y
_atom_site_fract_z
Si Si1 0.747449 0.587634 0.871934
Si Si2 0.500000 0.584950 0.126568
Si Si3 0.078021 0.000000 0.874590
Si Si4 0.426539 0.778246 0.373044
Si Si5 0.073587 0.589628 0.500000
Si Si6 0.878530 0.142181 0.260810
Si Si7 0.621319 0.911913 0.759080
O O1 0.725241 0.500000 0.867816
O O2 0.688122 0.639133 0.829828
O O3 0.806011 0.602435 0.785844
O O4 0.766407 0.609745 0.000000
O O5 0.500000 0.500000 0.187989
O O6 0.562340 0.636088 0.152472
O O7 0.500000 0.564004 0.000000
O O8 0.112340 0.925959 0.825266
O O9 0.000000 0.000000 0.865675
O O10 0.101209 0.000000 0.000000
O O11 0.401275 0.784000 0.500000
O O12 0.500000 0.745957 0.370418
O O13 0.379624 0.721965 0.304654
O O14 0.426270 0.861681 0.317367
O O15 0.066914 0.500000 0.500000
O O16 0.113521 0.614601 0.611237
O O17 0.000000 0.624820 0.500000
O O18 0.600916 0.000000 0.744459
#
# Coordination Sequence:
#
# PCOD8291983 Si02
#       7
#    16   8   8  16   8  16  16
#     4  10  21  39  64  92 127 168 214 263 312 375
#     4  11  20  34  58  86 119 160 219 276 316 374
#     4  11  20  34  56  82 116 166 218 264 315 376
#     4  11  24  41  62  91 126 161 208 271 322 372
#     4   9  18  38  68  96 124 156 196 256 312 367
#     4  12  20  38  56  86 123 168 210 260 321 378
#     4  10  22  43  66  94 125 163 206 254 316 385
#
# _framework density 20.398084000000001
#
# number of rings (size 3 to 8) (size 9 to 14) (size 15 to 20)
#    0.000    1.364    3.636    2.182    0.000    5.818 
#    6.545    0.909    0.000    0.000    0.000    0.000 
#    0.000    0.000    0.000    0.000    0.000    0.000 
#
# Total GULP energy -545512.418370 kJ/mol
# GULP energy per Si atom -12398.009508 kJ/mol
# Density = 2.035166 g / cm^3
# Si number density = 20.398084 Si / 1000 Ang^3
#
#
#
# Elastic Constant Matrix: (Units=GPa)
#
#
# Indices 1 2 3 4 5 6 
#
# 1 106.8010 23.9692 66.5293 0.0000 0.0000 0.0000
# 2 23.9692 83.6912 48.6086 0.0000 0.0000 0.0000
# 3 66.5293 48.6086 170.4987 0.0000 0.0000 0.0000
# 4 0.0000 0.0000 0.0000 22.4985 0.0000 0.0000
# 5 0.0000 0.0000 0.0000 0.0000 19.3247 0.0000
# 6 0.0000 0.0000 0.0000 0.0000 0.0000 44.5502
#
#
#
# Elastic Compliance Matrix: (Units=1/GPa)
#
#
# Indices 1 2 3 4 5 6 
#
# 1 0.012425 -0.000890 -0.004595 0.000000 0.000000 0.000000
# 2 -0.000890 0.014384 -0.003753 0.000000 0.000000 0.000000
# 3 -0.004595 -0.003753 0.008728 0.000000 0.000000 0.000000
# 4 0.000000 0.000000 0.000000 0.044447 0.000000 0.000000
# 5 0.000000 0.000000 0.000000 0.000000 0.051747 0.000000
# 6 0.000000 0.000000 0.000000 0.000000 0.000000 0.022447
#
#
# Mechanical properties :
#
#
# Convention : Reuss Voigt Hill
#
# Bulk Modulus (GPa) = 58.61415 71.02281 64.81848
# Shear Modulus (GPa) = 28.03621 32.06695 30.05158
#
# Velocity S-wave (km/s) = 3.71138 3.96922 3.84246
# Velocity P-wave (km/s) = 6.86756 7.47664 7.17856
#
# Compressibility (1/GPa) = 0.01706073
#
# Stress axis : x y z
#
# Youngs Moduli (GPa) = 80.48272 69.52361 114.57291
#
# Poissons Ratio (x) = 0.06187 0.52641
# Poissons Ratio (y) = 0.07163 0.43004
# Poissons Ratio (z) = 0.36978 0.26095
#
# Static dielectric constant tensor:
#      x y z
#    x 3.685740 0.000000 0.000000 
#    y 0.000000 2.255310 0.000000 
#    z 0.000000 0.000000 3.992070 
# 
# 
# High freq. dielectric constant tensor:
#      x y z
#    x 1.783370 0.000000 0.000000 
#    y 0.000000 1.781140 0.000000 
#    z 0.000000 0.000000 1.816030 
# 
# From -- ./inp_files/25687.got.cif
#   From: 2010.06.25/outbox.cif.g09.slc.cpg/sg71_13_cif.got.tgz:25687.got - 2010.06.28 04:59:45.
