data_PCOD8291200
_publ_section_title
;
Structure prediction by ZEFSAII (Michael W. Deem and Ramdas Pophale) SiO2 
 PCOD8291200
Probable space group: I M M M
;
_chemical_formula_sum "Si O2"
_cell_formula_units_Z 72
_cell_length_a 15.360350
_cell_length_b 26.551457
_cell_length_c 8.710715
_cell_angle_alpha 90.000000
_cell_angle_beta 90.000000
_cell_angle_gamma 90.000000
_cell_volume 3552.575153
_symmetry_space_group_name_H-M "I M M M"
_symmetry_group_IT_number 71
_symmetry_cell_setting 'orthorhombic'
loop_
_space_group_symop_operation_xyz
x,y,z
-x,-y,z
x,-y,-z
-x,y,-z
-x,-y,-z
x,y,-z
-x,y,z
x,-y,z
1/2+x,1/2+y,1/2+z
1/2-x,1/2-y,1/2+z
1/2+x,1/2-y,1/2-z
1/2-x,1/2+y,1/2-z
1/2-x,1/2-y,1/2-z
1/2+x,1/2+y,1/2-z
1/2-x,1/2+y,1/2+z
1/2+x,1/2-y,1/2+z
loop_
_atom_site_type_symbol
_atom_site_label
_atom_site_fract_x
_atom_site_fract_y
_atom_site_fract_z
Si Si1 0.149858 0.556956 0.177449
Si Si2 0.500000 0.878374 0.819700
Si Si3 0.327645 0.718220 0.680737
Si Si4 0.500000 0.235603 0.817487
Si Si5 0.000000 0.056143 0.682136
Si Si6 0.327154 0.388125 0.178390
O O1 0.138147 0.500000 0.237949
O O2 0.249200 0.572761 0.204002
O O3 0.086757 0.593662 0.268212
O O4 0.124067 0.560365 0.000000
O O5 0.500000 0.821561 0.753692
O O6 0.500000 0.875870 0.000000
O O7 0.331783 0.726788 0.500000
O O8 0.250000 0.750000 0.750000
O O9 0.416945 0.735100 0.756588
O O10 0.309354 0.660243 0.718100
O O11 0.500000 0.237229 0.000000
O O12 0.085199 0.085574 0.739082
O O13 0.000000 0.052303 0.500000
O O14 0.000000 0.000000 0.753072
O O15 0.334945 0.372272 0.000000
#
# Coordination Sequence:
#
# PCOD8291200 Si02
#       6
#    16   8  16   8   8  16
#     4  10  21  37  58  85 117 154 196 239 284 342
#     4  11  24  39  58  84 112 147 192 243 298 352
#     4  12  25  41  62  89 121 157 200 247 299 357
#     4  11  24  43  64  88 120 157 200 247 298 356
#     4   9  17  32  58  90 120 151 190 235 282 340
#     4  10  20  36  60  88 119 155 195 239 289 344
#
# _framework density 20.266988000000001
#
# number of rings (size 3 to 8) (size 9 to 14) (size 15 to 20)
#    0.000    1.444    0.000    5.667    0.000   11.556 
#    0.000    0.000    0.000    2.667    0.000    0.000 
#    0.000    0.000    0.000    0.000    0.000    0.000 
#
# Total GULP energy -446597.907744 kJ/mol
# GULP energy per Si atom -12405.497437 kJ/mol
# Density = 2.022086 g / cm^3
# Si number density = 20.266988 Si / 1000 Ang^3
#
#
#
# Elastic Constant Matrix: (Units=GPa)
#
#
# Indices 1 2 3 4 5 6 
#
# 1 104.2030 10.4390 21.9427 0.0006 -0.0004 0.0004
# 2 10.4390 107.4306 24.6067 -0.0003 0.0002 0.0004
# 3 21.9427 24.6067 72.0383 -0.0038 0.0026 -0.0031
# 4 0.0006 -0.0003 -0.0038 31.9605 0.0010 -0.0004
# 5 -0.0004 0.0002 0.0026 0.0010 23.9994 0.0001
# 6 0.0004 0.0004 -0.0031 -0.0004 0.0001 38.9391
#
#
#
# Elastic Compliance Matrix: (Units=1/GPa)
#
#
# Indices 1 2 3 4 5 6 
#
# 1 0.010264 -0.000305 -0.003022 -0.000001 0.000000 0.000000
# 2 -0.000305 0.010107 -0.003360 0.000000 0.000000 0.000000
# 3 -0.003022 -0.003360 0.015950 0.000002 -0.000002 0.000001
# 4 -0.000001 0.000000 0.000002 0.031289 -0.000001 0.000000
# 5 0.000000 0.000000 -0.000002 -0.000001 0.041668 0.000000
# 6 0.000000 0.000000 0.000001 0.000000 0.000000 0.025681
#
#
# Mechanical properties :
#
#
# Convention : Reuss Voigt Hill
#
# Bulk Modulus (GPa) = 43.57827 44.18315 43.88071
# Shear Modulus (GPa) = 32.05526 34.09203 33.07364
#
# Velocity S-wave (km/s) = 3.98131 4.10585 4.04406
# Velocity P-wave (km/s) = 6.53324 6.65772 6.59577
#
# Compressibility (1/GPa) = 0.02294722
#
# Stress axis : x y z
#
# Youngs Moduli (GPa) = 97.43181 98.93660 62.69762
#
# Poissons Ratio (x) = 0.03019 0.18947
# Poissons Ratio (y) = 0.02973 0.21064
# Poissons Ratio (z) = 0.29444 0.33238
#
# Static dielectric constant tensor:
#      x y z
#    x 3.829490 0.000000 0.000000 
#    y 0.000000 3.815150 -0.000010 
#    z 0.000000 -0.000010 3.536960 
# 
# 
# High freq. dielectric constant tensor:
#      x y z
#    x 1.811760 0.000000 0.000000 
#    y 0.000000 1.810040 0.000000 
#    z 0.000000 0.000000 1.772730 
# 
# From -- ./inp_files/6120.got.cif
#   From: 2010.06.25/outbox.cif.g09.slc.cpg/sg71_4_cif.got.tgz:6120.got - 2010.06.28 04:59:45.
