data_PCOD8291788
_publ_section_title
;
Structure prediction by ZEFSAII (Michael W. Deem and Ramdas Pophale) SiO2 
 PCOD8291788
Probable space group: I M M M
;
_chemical_formula_sum "Si O2"
_cell_formula_units_Z 80
_cell_length_a 27.690157
_cell_length_b 8.163815
_cell_length_c 16.755783
_cell_angle_alpha 90.000000
_cell_angle_beta 90.000000
_cell_angle_gamma 90.000000
_cell_volume 3787.767384
_symmetry_space_group_name_H-M "I M M M"
_symmetry_group_IT_number 71
_symmetry_cell_setting 'orthorhombic'
loop_
_space_group_symop_operation_xyz
x,y,z
-x,-y,z
x,-y,-z
-x,y,-z
-x,-y,-z
x,y,-z
-x,y,z
x,-y,z
1/2+x,1/2+y,1/2+z
1/2-x,1/2-y,1/2+z
1/2+x,1/2-y,1/2-z
1/2-x,1/2+y,1/2-z
1/2-x,1/2-y,1/2-z
1/2+x,1/2+y,1/2-z
1/2-x,1/2+y,1/2+z
1/2+x,1/2-y,1/2+z
loop_
_atom_site_type_symbol
_atom_site_label
_atom_site_fract_x
_atom_site_fract_y
_atom_site_fract_z
Si Si1 0.443895 0.000000 0.588005
Si Si2 0.616313 0.312659 0.145374
Si Si3 0.694578 0.685677 0.588035
Si Si4 0.901944 0.812280 0.174893
Si Si5 0.721460 0.314846 0.825882
Si Si6 0.446336 0.810981 0.000000
O O1 0.431957 0.169163 0.633157
O O2 0.500000 0.000000 0.576563
O O3 0.419098 0.000000 0.500000
O O4 0.621354 0.500000 0.118645
O O5 0.589938 0.295812 0.230701
O O6 0.669946 0.229793 0.152761
O O7 0.583732 0.227915 0.079246
O O8 0.673164 0.721647 0.500000
O O9 0.712627 0.500000 0.595615
O O10 0.654013 0.721701 0.654076
O O11 0.741675 0.797964 0.600403
O O12 0.916002 0.000000 0.147104
O O13 0.707947 0.500000 0.806821
O O14 0.750000 0.250000 0.750000
O O15 0.500000 0.724892 0.000000
O O16 0.456148 0.000000 0.000000
#
# Coordination Sequence:
#
# PCOD8291788 Si02
#       6
#     8  16  16  16  16   8
#     4  11  26  44  66  99 133 167 213 272 332 392
#     4  10  23  43  66  93 129 171 219 274 336 403
#     4  10  21  37  58  89 129 171 213 255 312 385
#     4  10  22  43  68  95 129 174 220 269 328 400
#     4  11  22  37  59  89 127 169 215 264 321 390
#     4  11  27  47  69  97 127 167 225 293 355 408
#
# _framework density 21.120622000000001
#
# number of rings (size 3 to 8) (size 9 to 14) (size 15 to 20)
#    0.000    1.600    2.000    1.500    4.200    5.200 
#    0.000    3.000    0.000    0.000    0.000    0.000 
#    0.000    0.000    0.000    0.000    0.000    0.000 
#
# Total GULP energy -495736.537066 kJ/mol
# GULP energy per Si atom -12393.413427 kJ/mol
# Density = 2.107255 g / cm^3
# Si number density = 21.120622 Si / 1000 Ang^3
#
#
#
# Elastic Constant Matrix: (Units=GPa)
#
#
# Indices 1 2 3 4 5 6 
#
# 1 127.3837 42.9524 59.2244 0.0000 0.0000 0.0000
# 2 42.9524 90.5243 40.4344 0.0000 0.0000 0.0000
# 3 59.2244 40.4344 136.7307 0.0000 0.0000 0.0000
# 4 0.0000 0.0000 0.0000 30.1596 0.0000 0.0000
# 5 0.0000 0.0000 0.0000 0.0000 25.7307 0.0000
# 6 0.0000 0.0000 0.0000 0.0000 0.0000 30.0969
#
#
#
# Elastic Compliance Matrix: (Units=1/GPa)
#
#
# Indices 1 2 3 4 5 6 
#
# 1 0.010696 -0.003463 -0.003609 0.000000 0.000000 0.000000
# 2 -0.003463 0.013849 -0.002596 0.000000 0.000000 0.000000
# 3 -0.003609 -0.002596 0.009644 0.000000 0.000000 0.000000
# 4 0.000000 0.000000 0.000000 0.033157 0.000000 0.000000
# 5 0.000000 0.000000 0.000000 0.000000 0.038864 0.000000
# 6 0.000000 0.000000 0.000000 0.000000 0.000000 0.033226
#
#
# Mechanical properties :
#
#
# Convention : Reuss Voigt Hill
#
# Bulk Modulus (GPa) = 67.31873 71.09568 69.20720
# Shear Modulus (GPa) = 30.53943 31.33260 30.93602
#
# Velocity S-wave (km/s) = 3.80669 3.85581 3.83133
# Velocity P-wave (km/s) = 7.15988 7.31832 7.23954
#
# Compressibility (1/GPa) = 0.01485471
#
# Stress axis : x y z
#
# Youngs Moduli (GPa) = 93.49438 72.20589 103.68803
#
# Poissons Ratio (x) = 0.25006 0.37418
# Poissons Ratio (y) = 0.32378 0.26912
# Poissons Ratio (z) = 0.33740 0.18741
#
# Static dielectric constant tensor:
#      x y z
#    x 4.069950 0.000000 0.000000 
#    y 0.000000 3.984610 0.000000 
#    z 0.000000 0.000000 4.017680 
# 
# 
# High freq. dielectric constant tensor:
#      x y z
#    x 1.821400 0.000000 0.000000 
#    y 0.000000 1.820010 0.000000 
#    z 0.000000 0.000000 1.837710 
# 
# From -- ./inp_files/48591.got.cif
#   From: 2010.06.25/outbox.cif.g09.slc.cpg/sg71_25_cif.got.tgz:48591.got - 2010.06.28 04:59:45.
