data_PCOD8291018
_publ_section_title
;
Structure prediction by ZEFSAII (Michael W. Deem and Ramdas Pophale) SiO2 
 PCOD8291018
Probable space group: I M M M
;
_chemical_formula_sum "Si O2"
_cell_formula_units_Z 72
_cell_length_a 18.917616
_cell_length_b 22.381004
_cell_length_c 9.312330
_cell_angle_alpha 90.000000
_cell_angle_beta 90.000000
_cell_angle_gamma 90.000000
_cell_volume 3942.796189
_symmetry_space_group_name_H-M "I M M M"
_symmetry_group_IT_number 71
_symmetry_cell_setting 'orthorhombic'
loop_
_space_group_symop_operation_xyz
x,y,z
-x,-y,z
x,-y,-z
-x,y,-z
-x,-y,-z
x,y,-z
-x,y,z
x,-y,z
1/2+x,1/2+y,1/2+z
1/2-x,1/2-y,1/2+z
1/2+x,1/2-y,1/2-z
1/2-x,1/2+y,1/2-z
1/2-x,1/2-y,1/2-z
1/2+x,1/2+y,1/2-z
1/2-x,1/2+y,1/2+z
1/2+x,1/2-y,1/2+z
loop_
_atom_site_type_symbol
_atom_site_label
_atom_site_fract_x
_atom_site_fract_y
_atom_site_fract_z
Si Si1 0.916724 0.000000 0.832934
Si Si2 0.172813 0.430932 0.836168
Si Si3 0.580102 0.160670 0.831112
Si Si4 0.331241 0.402758 0.832249
Si Si5 0.819967 0.233193 0.333504
O O1 0.886100 0.059290 0.759669
O O2 0.000000 0.000000 0.809321
O O3 0.896228 0.000000 0.000000
O O4 0.153589 0.500000 0.820028
O O5 0.117751 0.395216 0.741062
O O6 0.252248 0.419213 0.782009
O O7 0.165928 0.409081 0.000000
O O8 0.500000 0.164300 0.775436
O O9 0.617576 0.222442 0.786794
O O10 0.583422 0.150303 0.000000
O O11 0.345942 0.333494 0.798104
O O12 0.341598 0.418094 0.000000
O O13 0.801097 0.239395 0.500000
O O14 0.750000 0.250000 0.250000
#
# Coordination Sequence:
#
# PCOD8291018 Si02
#       5
#     8  16  16  16  16
#     4  11  25  41  57  85 122 153 188 239 293 342
#     4  10  20  36  58  84 112 143 189 237 277 329
#     4  10  22  38  55  82 118 150 184 229 282 337
#     4  10  20  37  61  87 113 149 194 235 281 344
#     4  10  20  35  59  87 114 147 189 235 281 337
#
# _framework density 18.261151000000002
#
# number of rings (size 3 to 8) (size 9 to 14) (size 15 to 20)
#    0.000    1.889    3.333    0.333    0.000    4.889 
#    0.000    4.444    0.000    0.000    0.000    0.000 
#    0.000    0.000    0.000    0.000    0.000    0.000 
#
# Total GULP energy -446545.026013 kJ/mol
# GULP energy per Si atom -12404.028500 kJ/mol
# Density = 1.821959 g / cm^3
# Si number density = 18.261151 Si / 1000 Ang^3
#
#
#
# Elastic Constant Matrix: (Units=GPa)
#
#
# Indices 1 2 3 4 5 6 
#
# 1 145.1408 70.4330 60.7227 0.0000 0.0000 0.0000
# 2 70.4330 127.6949 47.4605 0.0000 0.0000 0.0000
# 3 60.7227 47.4605 58.3266 0.0000 0.0000 0.0000
# 4 0.0000 0.0000 0.0000 31.3401 0.0000 0.0000
# 5 0.0000 0.0000 0.0000 0.0000 30.6714 0.0000
# 6 0.0000 0.0000 0.0000 0.0000 0.0000 33.1452
#
#
#
# Elastic Compliance Matrix: (Units=1/GPa)
#
#
# Indices 1 2 3 4 5 6 
#
# 1 0.012993 -0.003067 -0.011032 0.000000 0.000000 0.000000
# 2 -0.003067 0.011950 -0.006531 0.000000 0.000000 0.000000
# 3 -0.011032 -0.006531 0.033944 0.000000 0.000000 0.000000
# 4 0.000000 0.000000 0.000000 0.031908 0.000000 0.000000
# 5 0.000000 0.000000 0.000000 0.000000 0.032604 0.000000
# 6 0.000000 0.000000 0.000000 0.000000 0.000000 0.030170
#
#
# Mechanical properties :
#
#
# Convention : Reuss Voigt Hill
#
# Bulk Modulus (GPa) = 56.72646 76.48829 66.60737
# Shear Modulus (GPa) = 24.91211 29.20109 27.05660
#
# Velocity S-wave (km/s) = 3.69753 4.00319 3.85339
# Velocity P-wave (km/s) = 7.02570 7.95890 7.50682
#
# Compressibility (1/GPa) = 0.01762846
#
# Stress axis : x y z
#
# Youngs Moduli (GPa) = 76.96209 83.68141 29.45986
#
# Poissons Ratio (x) = 0.25661 0.32500
# Poissons Ratio (y) = 0.23601 0.19241
# Poissons Ratio (z) = 0.84904 0.54655
#
# Static dielectric constant tensor:
#      x y z
#    x 3.499330 0.000000 0.000000 
#    y 0.000000 3.874950 0.000000 
#    z 0.000000 0.000000 3.322810 
# 
# 
# High freq. dielectric constant tensor:
#      x y z
#    x 1.705940 0.000000 0.000000 
#    y 0.000000 1.724150 0.000000 
#    z 0.000000 0.000000 1.701090 
# 
# From -- ./inp_files/7897.got.cif
#   From: 2010.06.25/outbox.cif.g09.slc.cpg/sg71_4_cif.got.tgz:7897.got - 2010.06.28 04:59:45.
