data_PCOD8291872
_publ_section_title
;
Structure prediction by ZEFSAII (Michael W. Deem and Ramdas Pophale) SiO2 
 PCOD8291872
Probable space group: I M M M
;
_chemical_formula_sum "Si O2"
_cell_formula_units_Z 96
_cell_length_a 20.089337
_cell_length_b 27.849122
_cell_length_c 8.753076
_cell_angle_alpha 90.000000
_cell_angle_beta 90.000000
_cell_angle_gamma 90.000000
_cell_volume 4897.086905
_symmetry_space_group_name_H-M "I M M M"
_symmetry_group_IT_number 71
_symmetry_cell_setting 'orthorhombic'
loop_
_space_group_symop_operation_xyz
x,y,z
-x,-y,z
x,-y,-z
-x,y,-z
-x,-y,-z
x,y,-z
-x,y,z
x,-y,z
1/2+x,1/2+y,1/2+z
1/2-x,1/2-y,1/2+z
1/2+x,1/2-y,1/2-z
1/2-x,1/2+y,1/2-z
1/2-x,1/2-y,1/2-z
1/2+x,1/2+y,1/2-z
1/2-x,1/2+y,1/2+z
1/2+x,1/2-y,1/2+z
loop_
_atom_site_type_symbol
_atom_site_label
_atom_site_fract_x
_atom_site_fract_y
_atom_site_fract_z
Si Si1 0.923153 0.445100 0.323055
Si Si2 0.316315 0.446797 0.180948
Si Si3 0.806392 0.283431 0.679929
Si Si4 0.423488 0.728594 0.678447
Si Si5 0.423874 0.371952 0.822117
Si Si6 0.809658 0.386323 0.820786
O O1 0.905941 0.436673 0.500000
O O2 0.907470 0.500000 0.276721
O O3 0.880689 0.409007 0.220352
O O4 0.000000 0.433346 0.290972
O O5 0.321449 0.500000 0.253549
O O6 0.378309 0.415168 0.239761
O O7 0.247046 0.423379 0.232647
O O8 0.319366 0.450393 0.000000
O O9 0.800943 0.280082 0.500000
O O10 0.750000 0.250000 0.750000
O O11 0.879426 0.266994 0.732339
O O12 0.795466 0.337611 0.731892
O O13 0.409682 0.733963 0.500000
O O14 0.500000 0.739249 0.720537
O O15 0.403613 0.675146 0.728776
O O16 0.500000 0.386803 0.792177
O O17 0.410575 0.361105 0.000000
O O18 0.806811 0.375474 0.000000
#
# Coordination Sequence:
#
# PCOD8291872 Si02
#       6
#    16  16  16  16  16  16
#     4   9  19  37  59  82 111 148 189 234 285 339
#     4   9  18  32  51  78 111 144 180 225 272 317
#     4  12  25  41  61  84 113 148 188 235 286 342
#     4  10  21  38  60  85 114 148 187 231 279 334
#     4   9  17  31  54  82 111 146 186 226 271 323
#     4  11  22  36  56  82 112 147 187 232 283 338
#
# _framework density 19.603491000000002
#
# number of rings (size 3 to 8) (size 9 to 14) (size 15 to 20)
#    0.000    2.000    0.000    4.500    0.000    4.667 
#    0.000    3.333    0.000    2.500    0.000    2.333 
#    0.000    0.000    0.000    0.000    0.000    0.000 
#
# Total GULP energy -595383.953538 kJ/mol
# GULP energy per Si atom -12403.832365 kJ/mol
# Density = 1.955887 g / cm^3
# Si number density = 19.603491 Si / 1000 Ang^3
#
#
#
# Elastic Constant Matrix: (Units=GPa)
#
#
# Indices 1 2 3 4 5 6 
#
# 1 84.0827 34.8750 31.3948 0.0000 0.0000 0.0000
# 2 34.8750 91.2632 35.1442 0.0000 0.0000 0.0000
# 3 31.3948 35.1442 84.1726 0.0000 0.0000 0.0000
# 4 0.0000 0.0000 0.0000 31.1576 0.0000 0.0000
# 5 0.0000 0.0000 0.0000 0.0000 27.5402 0.0000
# 6 0.0000 0.0000 0.0000 0.0000 0.0000 38.7328
#
#
#
# Elastic Compliance Matrix: (Units=1/GPa)
#
#
# Indices 1 2 3 4 5 6 
#
# 1 0.015109 -0.004294 -0.003842 0.000000 0.000000 0.000000
# 2 -0.004294 0.014277 -0.004359 0.000000 0.000000 0.000000
# 3 -0.003842 -0.004359 0.015134 0.000000 0.000000 0.000000
# 4 0.000000 0.000000 0.000000 0.032095 0.000000 0.000000
# 5 0.000000 0.000000 0.000000 0.000000 0.036311 0.000000
# 6 0.000000 0.000000 0.000000 0.000000 0.000000 0.025818
#
#
# Mechanical properties :
#
#
# Convention : Reuss Voigt Hill
#
# Bulk Modulus (GPa) = 51.20919 51.37184 51.29052
# Shear Modulus (GPa) = 29.36968 30.02642 29.69805
#
# Velocity S-wave (km/s) = 3.87484 3.91792 3.89644
# Velocity P-wave (km/s) = 6.79694 6.83587 6.81643
#
# Compressibility (1/GPa) = 0.01952774
#
# Stress axis : x y z
#
# Youngs Moduli (GPa) = 66.18680 70.04298 66.07776
#
# Poissons Ratio (x) = 0.30076 0.25390
# Poissons Ratio (y) = 0.28420 0.28806
# Poissons Ratio (z) = 0.25432 0.30535
#
# Static dielectric constant tensor:
#      x y z
#    x 3.734960 0.000000 0.000000 
#    y 0.000000 3.883970 0.000000 
#    z 0.000000 0.000000 3.404740 
# 
# 
# High freq. dielectric constant tensor:
#      x y z
#    x 1.776530 0.000000 0.000000 
#    y 0.000000 1.768190 0.000000 
#    z 0.000000 0.000000 1.749130 
# 
# From -- ./inp_files/10976.got.cif
#   From: 2010.06.25/outbox.cif.g09.slc.cpg/sg71_6_cif.got.tgz:10976.got - 2010.06.28 04:59:45.
