data_PCOD8291331
_publ_section_title
;
Structure prediction by ZEFSAII (Michael W. Deem and Ramdas Pophale) SiO2 
 PCOD8291331
Probable space group: I M M M
;
_chemical_formula_sum "Si O2"
_cell_formula_units_Z 80
_cell_length_a 19.686456
_cell_length_b 11.737691
_cell_length_c 18.779497
_cell_angle_alpha 90.000000
_cell_angle_beta 90.000000
_cell_angle_gamma 90.000000
_cell_volume 4339.444803
_symmetry_space_group_name_H-M "I M M M"
_symmetry_group_IT_number 71
_symmetry_cell_setting 'orthorhombic'
loop_
_space_group_symop_operation_xyz
x,y,z
-x,-y,z
x,-y,-z
-x,y,-z
-x,-y,-z
x,y,-z
-x,y,z
x,-y,z
1/2+x,1/2+y,1/2+z
1/2-x,1/2-y,1/2+z
1/2+x,1/2-y,1/2-z
1/2-x,1/2+y,1/2-z
1/2-x,1/2-y,1/2-z
1/2+x,1/2+y,1/2-z
1/2-x,1/2+y,1/2+z
1/2+x,1/2-y,1/2+z
loop_
_atom_site_type_symbol
_atom_site_label
_atom_site_fract_x
_atom_site_fract_y
_atom_site_fract_z
Si Si1 0.579789 0.631121 0.186935
Si Si2 0.277624 0.000000 0.915845
Si Si3 0.677653 0.756076 0.083553
Si Si4 0.922262 0.220627 0.159727
Si Si5 0.875233 0.000000 0.915724
Si Si6 0.816426 0.632392 0.082121
O O1 0.500000 0.640390 0.173634
O O2 0.603202 0.500000 0.188768
O O3 0.615918 0.695770 0.122742
O O4 0.601143 0.689834 0.260674
O O5 0.318425 0.887809 0.891308
O O6 0.201374 0.000000 0.884200
O O7 0.269735 0.000000 0.000000
O O8 0.748279 0.697199 0.104452
O O9 0.663330 0.744708 0.000000
O O10 0.914850 0.110667 0.110229
O O11 0.877530 0.324650 0.131164
O O12 0.000000 0.261230 0.158305
O O13 0.874821 0.000000 0.000000
O O14 0.804964 0.500000 0.096339
O O15 0.834538 0.657779 0.000000
#
# Coordination Sequence:
#
# PCOD8291331 Si02
#       6
#    16   8  16  16   8  16
#     4  10  22  40  59  82 115 148 183 234 284 327
#     4   9  18  35  59  87 115 138 175 237 284 318
#     4  10  20  38  62  86 112 144 185 232 282 336
#     4  11  22  37  55  81 117 152 188 232 278 328
#     4  11  19  34  59  85 111 146 189 230 275 329
#     4  10  21  37  57  84 116 149 188 233 277 328
#
# _framework density 18.435538000000001
#
# number of rings (size 3 to 8) (size 9 to 14) (size 15 to 20)
#    0.000    1.800    3.000    1.500    0.000    4.800 
#    1.800    2.500    0.000    1.800    0.000    0.000 
#    0.000    0.000    0.000    0.000    0.000    0.000 
#
# Total GULP energy -496144.785764 kJ/mol
# GULP energy per Si atom -12403.619644 kJ/mol
# Density = 1.839358 g / cm^3
# Si number density = 18.435538 Si / 1000 Ang^3
#
#
#
# Elastic Constant Matrix: (Units=GPa)
#
#
# Indices 1 2 3 4 5 6 
#
# 1 69.9057 51.7416 49.3032 0.0000 0.0000 0.0000
# 2 51.7416 128.5827 45.4197 0.0000 0.0000 0.0000
# 3 49.3032 45.4197 80.3200 0.0000 0.0000 0.0000
# 4 0.0000 0.0000 0.0000 31.7009 0.0000 0.0000
# 5 0.0000 0.0000 0.0000 0.0000 30.5088 0.0000
# 6 0.0000 0.0000 0.0000 0.0000 0.0000 37.7411
#
#
#
# Elastic Compliance Matrix: (Units=1/GPa)
#
#
# Indices 1 2 3 4 5 6 
#
# 1 0.029318 -0.006799 -0.014152 0.000000 0.000000 0.000000
# 2 -0.006799 0.011295 -0.002214 0.000000 0.000000 0.000000
# 3 -0.014152 -0.002214 0.022389 0.000000 0.000000 0.000000
# 4 0.000000 0.000000 0.000000 0.031545 0.000000 0.000000
# 5 0.000000 0.000000 0.000000 0.000000 0.032777 0.000000
# 6 0.000000 0.000000 0.000000 0.000000 0.000000 0.026496
#
#
# Mechanical properties :
#
#
# Convention : Reuss Voigt Hill
#
# Bulk Modulus (GPa) = 59.97650 63.52637 61.75143
# Shear Modulus (GPa) = 24.30637 28.81310 26.55974
#
# Velocity S-wave (km/s) = 3.63499 3.95766 3.79975
# Velocity P-wave (km/s) = 7.08669 7.44429 7.26769
#
# Compressibility (1/GPa) = 0.01667320
#
# Stress axis : x y z
#
# Youngs Moduli (GPa) = 34.10848 88.53571 44.66471
#
# Poissons Ratio (x) = 0.60193 0.63209
# Poissons Ratio (y) = 0.23189 0.09888
# Poissons Ratio (z) = 0.48270 0.19600
#
# Static dielectric constant tensor:
#      x y z
#    x 3.304170 0.000000 0.000000 
#    y 0.000000 3.418320 0.000000 
#    z 0.000000 0.000000 3.303140 
# 
# 
# High freq. dielectric constant tensor:
#      x y z
#    x 1.710260 0.000000 0.000000 
#    y 0.000000 1.723300 0.000000 
#    z 0.000000 0.000000 1.706300 
# 
# From -- ./inp_files/23853.got.cif
#   From: 2010.06.25/outbox.cif.g09.slc.cpg/sg71_12_cif.got.tgz:23853.got - 2010.06.28 04:59:45.
