data_PCOD8291810
_publ_section_title
;
Structure prediction by ZEFSAII (Michael W. Deem and Ramdas Pophale) SiO2 
 PCOD8291810
Probable space group: I M M M
;
_chemical_formula_sum "Si O2"
_cell_formula_units_Z 104
_cell_length_a 22.892979
_cell_length_b 9.005291
_cell_length_c 26.525128
_cell_angle_alpha 90.000000
_cell_angle_beta 90.000000
_cell_angle_gamma 90.000000
_cell_volume 5468.365687
_symmetry_space_group_name_H-M "I M M M"
_symmetry_group_IT_number 71
_symmetry_cell_setting 'orthorhombic'
loop_
_space_group_symop_operation_xyz
x,y,z
-x,-y,z
x,-y,-z
-x,y,-z
-x,-y,-z
x,y,-z
-x,y,z
x,-y,z
1/2+x,1/2+y,1/2+z
1/2-x,1/2-y,1/2+z
1/2+x,1/2-y,1/2-z
1/2-x,1/2+y,1/2-z
1/2-x,1/2-y,1/2-z
1/2+x,1/2+y,1/2-z
1/2-x,1/2+y,1/2+z
1/2+x,1/2-y,1/2+z
loop_
_atom_site_type_symbol
_atom_site_label
_atom_site_fract_x
_atom_site_fract_y
_atom_site_fract_z
Si Si1 0.933564 0.826696 0.284836
Si Si2 0.742344 0.824880 0.057516
Si Si3 0.066947 0.673820 0.179904
Si Si4 0.628274 0.324316 0.410172
Si Si5 0.068317 0.334964 0.000000
Si Si6 0.567824 0.838306 0.055267
Si Si7 0.145252 0.170188 0.622373
O O1 0.920906 0.728275 0.236215
O O2 0.881706 0.781625 0.323611
O O3 0.000000 0.793528 0.305210
O O4 0.928666 0.000000 0.271109
O O5 0.806451 0.776627 0.075133
O O6 0.699272 0.763946 0.100839
O O7 0.735461 0.000000 0.057213
O O8 0.731230 0.764614 0.000000
O O9 0.080338 0.500000 0.176502
O O10 0.111670 0.760589 0.144246
O O11 0.000000 0.708151 0.164299
O O12 0.620541 0.500000 0.410013
O O13 0.585223 0.254948 0.450641
O O14 0.096946 0.500000 0.000000
O O15 0.000000 0.352974 0.000000
O O16 0.500000 0.816247 0.050341
O O17 0.591586 0.697982 0.085074
O O18 0.582599 0.000000 0.080322
O O19 0.596811 0.836893 0.000000
O O20 0.164185 0.000000 0.622613
#
# Coordination Sequence:
#
# PCOD8291810 Si02
#       7
#    16  16  16  16   8  16  16
#     4   9  19  37  58  81 113 150 187 232 285 341
#     4  10  22  41  59  78 110 152 197 239 279 332
#     4  10  21  37  59  89 120 147 181 229 286 344
#     4  11  22  39  61  85 114 153 196 232 277 337
#     4  11  23  37  57  89 125 153 182 229 284 337
#     4   9  18  32  49  71 102 141 182 226 282 345
#     4  11  22  34  53  82 110 142 189 239 289 340
#
# _framework density 19.018478000000002
#
# number of rings (size 3 to 8) (size 9 to 14) (size 15 to 20)
#    0.000    1.923    0.769    3.462    0.000    9.231 
#    0.000    3.077    0.000    0.000    0.000    0.000 
#    0.000    0.000    0.000    0.000    0.000    0.000 
#
# Total GULP energy -644475.141603 kJ/mol
# GULP energy per Si atom -12393.752723 kJ/mol
# Density = 1.897519 g / cm^3
# Si number density = 19.018478 Si / 1000 Ang^3
#
#
#
# Elastic Constant Matrix: (Units=GPa)
#
#
# Indices 1 2 3 4 5 6 
#
# 1 92.5899 41.1568 61.1285 0.0000 0.0000 0.0000
# 2 41.1568 61.7457 45.8372 0.0000 0.0000 0.0000
# 3 61.1285 45.8372 105.0123 0.0000 0.0000 0.0000
# 4 0.0000 0.0000 0.0000 34.9689 0.0000 0.0000
# 5 0.0000 0.0000 0.0000 0.0000 32.1489 0.0000
# 6 0.0000 0.0000 0.0000 0.0000 0.0000 30.6114
#
#
#
# Elastic Compliance Matrix: (Units=1/GPa)
#
#
# Indices 1 2 3 4 5 6 
#
# 1 0.019236 -0.006671 -0.008285 0.000000 0.000000 0.000000
# 2 -0.006671 0.026272 -0.007585 0.000000 0.000000 0.000000
# 3 -0.008285 -0.007585 0.017656 0.000000 0.000000 0.000000
# 4 0.000000 0.000000 0.000000 0.028597 0.000000 0.000000
# 5 0.000000 0.000000 0.000000 0.000000 0.031105 0.000000
# 6 0.000000 0.000000 0.000000 0.000000 0.000000 0.032668
#
#
# Mechanical properties :
#
#
# Convention : Reuss Voigt Hill
#
# Bulk Modulus (GPa) = 55.30168 61.73255 58.51711
# Shear Modulus (GPa) = 24.19630 26.96088 25.57859
#
# Velocity S-wave (km/s) = 3.57073 3.76921 3.67131
# Velocity P-wave (km/s) = 6.79273 7.17442 6.98618
#
# Compressibility (1/GPa) = 0.01808263
#
# Stress axis : x y z
#
# Youngs Moduli (GPa) = 51.98677 38.06285 56.63690
#
# Poissons Ratio (x) = 0.25391 0.46926
# Poissons Ratio (y) = 0.34680 0.42957
# Poissons Ratio (z) = 0.43073 0.28869
#
# Static dielectric constant tensor:
#      x y z
#    x 3.517220 0.000000 0.000000 
#    y 0.000000 3.571480 0.000000 
#    z 0.000000 0.000000 3.047140 
# 
# 
# High freq. dielectric constant tensor:
#      x y z
#    x 1.736220 0.000000 0.000000 
#    y 0.000000 1.741340 0.000000 
#    z 0.000000 0.000000 1.737910 
# 
# From -- ./inp_files/66803.got.cif
#   From: 2010.06.25/outbox.cif.g09.slc.cpg/sg71_34_cif.got.tgz:66803.got - 2010.06.28 04:59:45.
