data_PCOD8291193
_publ_section_title
;
Structure prediction by ZEFSAII (Michael W. Deem and Ramdas Pophale) SiO2 
 PCOD8291193
Probable space group: I M M M
;
_chemical_formula_sum "Si O2"
_cell_formula_units_Z 104
_cell_length_a 28.726473
_cell_length_b 20.956955
_cell_length_c 8.778979
_cell_angle_alpha 90.000000
_cell_angle_beta 90.000000
_cell_angle_gamma 90.000000
_cell_volume 5285.115687
_symmetry_space_group_name_H-M "I M M M"
_symmetry_group_IT_number 71
_symmetry_cell_setting 'orthorhombic'
loop_
_space_group_symop_operation_xyz
x,y,z
-x,-y,z
x,-y,-z
-x,y,-z
-x,-y,-z
x,y,-z
-x,y,z
x,-y,z
1/2+x,1/2+y,1/2+z
1/2-x,1/2-y,1/2+z
1/2+x,1/2-y,1/2-z
1/2-x,1/2+y,1/2-z
1/2-x,1/2-y,1/2-z
1/2+x,1/2+y,1/2-z
1/2-x,1/2+y,1/2+z
1/2+x,1/2-y,1/2+z
loop_
_atom_site_type_symbol
_atom_site_label
_atom_site_fract_x
_atom_site_fract_y
_atom_site_fract_z
Si Si1 0.054365 0.270805 0.172491
Si Si2 0.892027 0.380855 0.321751
Si Si3 0.692308 0.183294 0.320814
Si Si4 0.554157 0.000000 0.680896
Si Si5 0.361952 0.570383 0.821945
Si Si6 0.551401 0.626676 0.679627
Si Si7 0.201061 0.815549 0.320027
O O1 0.080228 0.315970 0.290770
O O2 0.064654 0.198870 0.225889
O O3 0.000000 0.285929 0.177874
O O4 0.072825 0.282695 0.000000
O O5 0.889674 0.395405 0.500000
O O6 0.839634 0.370864 0.257948
O O7 0.918786 0.438227 0.240230
O O8 0.684470 0.179048 0.500000
O O9 0.745640 0.171239 0.273488
O O10 0.679088 0.254230 0.263556
O O11 0.500000 0.000000 0.736621
O O12 0.555754 0.000000 0.500000
O O13 0.342744 0.500000 0.781176
O O14 0.412735 0.577408 0.750404
O O15 0.326449 0.622929 0.757938
O O16 0.367385 0.579588 0.000000
O O17 0.551923 0.620179 0.500000
O O18 0.500000 0.609908 0.742026
O O19 0.196399 0.804772 0.500000
#
# Coordination Sequence:
#
# PCOD8291193 Si02
#       7
#    16  16  16   8  16  16  16
#     4   9  18  34  56  81 109 142 183 230 278 330
#     4  12  24  37  56  85 119 151 186 234 288 342
#     4  10  20  36  60  87 113 145 186 233 287 344
#     4  11  25  45  65  83 111 155 203 245 290 353
#     4  10  21  36  53  76 108 143 181 223 271 327
#     4   9  19  35  54  78 108 142 183 229 271 318
#     4   9  19  37  59  85 113 145 186 235 289 340
#
# _framework density 19.677903000000001
#
# number of rings (size 3 to 8) (size 9 to 14) (size 15 to 20)
#    0.000    2.077    0.000    4.385    0.000    8.000 
#    1.385    3.077    0.000    0.000    0.000    0.000 
#    0.000    0.000    0.000    0.000    0.000    0.000 
#
# Total GULP energy -644832.369315 kJ/mol
# GULP energy per Si atom -12400.622487 kJ/mol
# Density = 1.963312 g / cm^3
# Si number density = 19.677903 Si / 1000 Ang^3
#
#
#
# Elastic Constant Matrix: (Units=GPa)
#
#
# Indices 1 2 3 4 5 6 
#
# 1 101.3715 56.1473 33.4861 0.0000 0.0000 0.0000
# 2 56.1473 87.5185 42.8926 0.0000 0.0000 0.0000
# 3 33.4861 42.8926 59.6533 0.0000 0.0000 0.0000
# 4 0.0000 0.0000 0.0000 29.5454 0.0000 0.0000
# 5 0.0000 0.0000 0.0000 0.0000 29.2622 0.0000
# 6 0.0000 0.0000 0.0000 0.0000 0.0000 31.8015
#
#
#
# Elastic Compliance Matrix: (Units=1/GPa)
#
#
# Indices 1 2 3 4 5 6 
#
# 1 0.015521 -0.008782 -0.002398 0.000000 0.000000 0.000000
# 2 -0.008782 0.022613 -0.011330 0.000000 0.000000 0.000000
# 3 -0.002398 -0.011330 0.026256 0.000000 0.000000 0.000000
# 4 0.000000 0.000000 0.000000 0.033846 0.000000 0.000000
# 5 0.000000 0.000000 0.000000 0.000000 0.034174 0.000000
# 6 0.000000 0.000000 0.000000 0.000000 0.000000 0.031445
#
#
# Mechanical properties :
#
#
# Convention : Reuss Voigt Hill
#
# Bulk Modulus (GPa) = 51.62511 57.06613 54.34562
# Shear Modulus (GPa) = 23.22000 25.85630 24.53815
#
# Velocity S-wave (km/s) = 3.43885 3.62881 3.53511
# Velocity P-wave (km/s) = 6.48533 6.82794 6.65884
#
# Compressibility (1/GPa) = 0.01937042
#
# Stress axis : x y z
#
# Youngs Moduli (GPa) = 64.42825 44.22232 38.08667
#
# Poissons Ratio (x) = 0.38837 0.09133
# Poissons Ratio (y) = 0.56583 0.43150
# Poissons Ratio (z) = 0.15450 0.50102
#
# Static dielectric constant tensor:
#      x y z
#    x 3.685350 0.000000 0.000000 
#    y 0.000000 3.658290 0.000000 
#    z 0.000000 0.000000 3.430720 
# 
# 
# High freq. dielectric constant tensor:
#      x y z
#    x 1.777370 0.000000 0.000000 
#    y 0.000000 1.761890 0.000000 
#    z 0.000000 0.000000 1.758150 
# 
# From -- ./inp_files/14987.got.cif
#   From: 2010.06.25/outbox.cif.g09.slc.cpg/sg71_8_cif.got.tgz:14987.got - 2010.06.28 04:59:45.
