data_PCOD8291442
_publ_section_title
;
Structure prediction by ZEFSAII (Michael W. Deem and Ramdas Pophale) SiO2 
 PCOD8291442
Probable space group: I M M M
;
_chemical_formula_sum "Si O2"
_cell_formula_units_Z 120
_cell_length_a 9.046532
_cell_length_b 27.089550
_cell_length_c 27.343667
_cell_angle_alpha 90.000000
_cell_angle_beta 90.000000
_cell_angle_gamma 90.000000
_cell_volume 6701.016248
_symmetry_space_group_name_H-M "I M M M"
_symmetry_group_IT_number 71
_symmetry_cell_setting 'orthorhombic'
loop_
_space_group_symop_operation_xyz
x,y,z
-x,-y,z
x,-y,-z
-x,y,-z
-x,-y,-z
x,y,-z
-x,y,z
x,-y,z
1/2+x,1/2+y,1/2+z
1/2-x,1/2-y,1/2+z
1/2+x,1/2-y,1/2-z
1/2-x,1/2+y,1/2-z
1/2-x,1/2-y,1/2-z
1/2+x,1/2+y,1/2-z
1/2-x,1/2+y,1/2+z
1/2+x,1/2-y,1/2+z
loop_
_atom_site_type_symbol
_atom_site_label
_atom_site_fract_x
_atom_site_fract_y
_atom_site_fract_z
Si Si1 0.829876 0.388923 0.218961
Si Si2 0.670932 0.192069 0.556804
Si Si3 0.323372 0.000000 0.555321
Si Si4 0.672627 0.792754 0.056731
Si Si5 0.673892 0.645870 0.363122
Si Si6 0.173008 0.199695 0.235786
Si Si7 0.828503 0.556246 0.683663
Si Si8 0.173727 0.404842 0.890381
O O1 0.727643 0.341695 0.226848
O O2 0.799498 0.430580 0.259561
O O3 0.787581 0.411326 0.166543
O O4 0.000000 0.371327 0.220159
O O5 0.691959 0.179223 0.500000
O O6 0.500000 0.202749 0.569324
O O7 0.762481 0.240001 0.572474
O O8 0.736554 0.146376 0.587814
O O9 0.256924 0.951577 0.581623
O O10 0.500000 0.000000 0.558454
O O11 0.267078 0.000000 0.500000
O O12 0.500000 0.792750 0.068252
O O13 0.750207 0.835734 0.087413
O O14 0.706076 0.803458 0.000000
O O15 0.500000 0.642507 0.371232
O O16 0.715202 0.683421 0.319289
O O17 0.733282 0.591204 0.351428
O O18 0.250000 0.250000 0.250000
O O19 0.000000 0.206610 0.241927
O O20 0.777953 0.500000 0.675127
O O21 0.000000 0.563505 0.670518
O O22 0.000000 0.404098 0.899933
#
# Coordination Sequence:
#
# PCOD8291442 Si02
#       8
#    16  16   8  16  16  16  16  16
#     4   9  18  31  47  72 103 134 172 215 258 305
#     4   9  17  30  47  69 100 137 175 216 262 310
#     4   9  16  26  42  68 101 135 173 221 274 317
#     4  10  21  36  55  80 108 138 172 211 256 308
#     4  10  21  36  55  79 106 138 175 213 260 313
#     4  10  21  35  51  73 103 137 172 211 257 309
#     4   9  18  33  54  77 104 138 174 214 261 312
#     4   9  17  27  44  69  99 134 173 219 267 312
#
# _framework density 17.907731999999999
#
# number of rings (size 3 to 8) (size 9 to 14) (size 15 to 20)
#    0.000    2.600    0.000    1.600    2.800    4.267 
#    0.000    0.000    0.000    0.400    0.000    4.200 
#    0.000    4.267    0.000    0.000    0.000    0.000 
#
# Total GULP energy -744088.605683 kJ/mol
# GULP energy per Si atom -12401.476761 kJ/mol
# Density = 1.786697 g / cm^3
# Si number density = 17.907732 Si / 1000 Ang^3
#
#
#
# Elastic Constant Matrix: (Units=GPa)
#
#
# Indices 1 2 3 4 5 6 
#
# 1 64.5758 58.4832 42.2462 0.0000 0.0000 0.0000
# 2 58.4832 152.5571 75.4046 0.0000 0.0000 0.0000
# 3 42.2462 75.4046 103.2310 0.0000 0.0000 0.0000
# 4 0.0000 0.0000 0.0000 27.2355 0.0000 0.0000
# 5 0.0000 0.0000 0.0000 0.0000 21.0089 0.0000
# 6 0.0000 0.0000 0.0000 0.0000 0.0000 22.8227
#
#
#
# Elastic Compliance Matrix: (Units=1/GPa)
#
#
# Indices 1 2 3 4 5 6 
#
# 1 0.025343 -0.007182 -0.005125 0.000000 0.000000 0.000000
# 2 -0.007182 0.012294 -0.006041 0.000000 0.000000 0.000000
# 3 -0.005125 -0.006041 0.016197 0.000000 0.000000 0.000000
# 4 0.000000 0.000000 0.000000 0.036717 0.000000 0.000000
# 5 0.000000 0.000000 0.000000 0.000000 0.047599 0.000000
# 6 0.000000 0.000000 0.000000 0.000000 0.000000 0.043816
#
#
# Mechanical properties :
#
#
# Convention : Reuss Voigt Hill
#
# Bulk Modulus (GPa) = 58.35112 74.73686 66.54399
# Shear Modulus (GPa) = 22.28410 23.82875 23.05643
#
# Velocity S-wave (km/s) = 3.53141 3.65175 3.59208
# Velocity P-wave (km/s) = 7.02018 7.72045 7.37863
#
# Compressibility (1/GPa) = 0.01713763
#
# Stress axis : x y z
#
# Youngs Moduli (GPa) = 39.45834 81.34012 61.73950
#
# Poissons Ratio (x) = 0.58419 0.31644
# Poissons Ratio (y) = 0.28339 0.37297
# Poissons Ratio (z) = 0.20224 0.49137
#
# Static dielectric constant tensor:
#      x y z
#    x 3.138630 0.000000 0.000000 
#    y 0.000000 3.460980 0.000000 
#    z 0.000000 0.000000 3.306710 
# 
# 
# High freq. dielectric constant tensor:
#      x y z
#    x 1.672080 0.000000 0.000000 
#    y 0.000000 1.693440 0.000000 
#    z 0.000000 0.000000 1.690310 
# 
# From -- ./inp_files/63765.got.cif
#   From: 2010.06.25/outbox.cif.g09.slc.cpg/sg71_32_cif.got.tgz:63765.got - 2010.06.28 04:59:45.
