data_PCOD8291751
_publ_section_title
;
Structure prediction by ZEFSAII (Michael W. Deem and Ramdas Pophale) SiO2 
 PCOD8291751
Probable space group: I M M M
;
_chemical_formula_sum "Si O2"
_cell_formula_units_Z 72
_cell_length_a 19.252752
_cell_length_b 8.926732
_cell_length_c 22.021785
_cell_angle_alpha 90.000000
_cell_angle_beta 90.000000
_cell_angle_gamma 90.000000
_cell_volume 3784.755523
_symmetry_space_group_name_H-M "I M M M"
_symmetry_group_IT_number 71
_symmetry_cell_setting 'orthorhombic'
loop_
_space_group_symop_operation_xyz
x,y,z
-x,-y,z
x,-y,-z
-x,y,-z
-x,-y,-z
x,y,-z
-x,y,z
x,-y,z
1/2+x,1/2+y,1/2+z
1/2-x,1/2-y,1/2+z
1/2+x,1/2-y,1/2-z
1/2-x,1/2+y,1/2-z
1/2-x,1/2-y,1/2-z
1/2+x,1/2+y,1/2-z
1/2-x,1/2+y,1/2+z
1/2+x,1/2-y,1/2+z
loop_
_atom_site_type_symbol
_atom_site_label
_atom_site_fract_x
_atom_site_fract_y
_atom_site_fract_z
Si Si1 0.920141 0.674997 0.777776
Si Si2 0.921467 0.171943 0.653329
Si Si3 0.162394 0.822444 0.884282
Si Si4 0.296268 0.325083 0.069184
Si Si5 0.922256 0.178191 0.000000
O O1 0.906098 0.500000 0.784849
O O2 0.901155 0.723706 0.709744
O O3 0.870135 0.763534 0.822470
O O4 0.000000 0.716398 0.792552
O O5 0.871761 0.209780 0.596969
O O6 0.000000 0.204442 0.631535
O O7 0.912899 0.000000 0.674214
O O8 0.240277 0.763077 0.890952
O O9 0.117019 0.761176 0.940637
O O10 0.163528 0.000000 0.882620
O O11 0.278608 0.500000 0.072056
O O12 0.295860 0.266494 0.000000
O O13 0.000000 0.244303 0.000000
O O14 0.923872 0.000000 0.000000
#
# Coordination Sequence:
#
# PCOD8291751 Si02
#       5
#    16  16  16  16   8
#     4  10  21  37  57  83 114 146 183 231 283 330
#     4   9  19  37  60  84 109 143 187 230 277 334
#     4  11  21  35  56  81 112 150 188 227 272 328
#     4  10  21  37  57  82 115 148 181 230 283 330
#     4   9  18  32  51  77 106 139 182 226 265 311
#
# _framework density 19.023685
#
# number of rings (size 3 to 8) (size 9 to 14) (size 15 to 20)
#    0.000    2.111    1.111    2.000    0.000    4.444 
#    0.000    2.222    0.000    2.667    0.000    4.667 
#    0.000    0.000    0.000    0.000    0.000    0.000 
#
# Total GULP energy -446544.797531 kJ/mol
# GULP energy per Si atom -12404.022154 kJ/mol
# Density = 1.898039 g / cm^3
# Si number density = 19.023685 Si / 1000 Ang^3
#
#
#
# Elastic Constant Matrix: (Units=GPa)
#
#
# Indices 1 2 3 4 5 6 
#
# 1 124.4932 43.0043 62.5423 0.0000 0.0000 0.0000
# 2 43.0043 59.8306 36.0145 0.0000 0.0000 0.0000
# 3 62.5423 36.0145 91.8469 0.0000 0.0000 0.0000
# 4 0.0000 0.0000 0.0000 23.4141 0.0000 0.0000
# 5 0.0000 0.0000 0.0000 0.0000 36.8768 0.0000
# 6 0.0000 0.0000 0.0000 0.0000 0.0000 27.8280
#
#
#
# Elastic Compliance Matrix: (Units=1/GPa)
#
#
# Indices 1 2 3 4 5 6 
#
# 1 0.013435 -0.005432 -0.007018 0.000000 0.000000 0.000000
# 2 -0.005432 0.024074 -0.005741 0.000000 0.000000 0.000000
# 3 -0.007018 -0.005741 0.017918 0.000000 0.000000 0.000000
# 4 0.000000 0.000000 0.000000 0.042709 0.000000 0.000000
# 5 0.000000 0.000000 0.000000 0.000000 0.027117 0.000000
# 6 0.000000 0.000000 0.000000 0.000000 0.000000 0.035935
#
#
# Mechanical properties :
#
#
# Convention : Reuss Voigt Hill
#
# Bulk Modulus (GPa) = 52.50953 62.14368 57.32661
# Shear Modulus (GPa) = 24.51961 26.59776 25.55869
#
# Velocity S-wave (km/s) = 3.59402 3.74323 3.66938
# Velocity P-wave (km/s) = 6.69961 7.17075 6.93918
#
# Compressibility (1/GPa) = 0.01904416
#
# Stress axis : x y z
#
# Youngs Moduli (GPa) = 74.43370 41.53897 55.81019
#
# Poissons Ratio (x) = 0.22563 0.39170
# Poissons Ratio (y) = 0.40431 0.32040
# Poissons Ratio (z) = 0.52240 0.23847
#
# Static dielectric constant tensor:
#      x y z
#    x 3.594340 0.000000 0.000000 
#    y 0.000000 3.356130 0.000000 
#    z 0.000000 0.000000 3.477110 
# 
# 
# High freq. dielectric constant tensor:
#      x y z
#    x 1.745690 0.000000 0.000000 
#    y 0.000000 1.729410 0.000000 
#    z 0.000000 0.000000 1.739900 
# 
# From -- ./inp_files/7970.got.cif
#   From: 2010.06.25/outbox.cif.g09.slc.cpg/sg71_4_cif.got.tgz:7970.got - 2010.06.28 04:59:45.
