data_PCOD8291225
_publ_section_title
;
Structure prediction by ZEFSAII (Michael W. Deem and Ramdas Pophale) SiO2 
 PCOD8291225
Probable space group: I M M M
;
_chemical_formula_sum "Si O2"
_cell_formula_units_Z 88
_cell_length_a 14.724136
_cell_length_b 26.775092
_cell_length_c 11.093941
_cell_angle_alpha 90.000000
_cell_angle_beta 90.000000
_cell_angle_gamma 90.000000
_cell_volume 4373.676365
_symmetry_space_group_name_H-M "I M M M"
_symmetry_group_IT_number 71
_symmetry_cell_setting 'orthorhombic'
loop_
_space_group_symop_operation_xyz
x,y,z
-x,-y,z
x,-y,-z
-x,y,-z
-x,-y,-z
x,y,-z
-x,y,z
x,-y,z
1/2+x,1/2+y,1/2+z
1/2-x,1/2-y,1/2+z
1/2+x,1/2-y,1/2-z
1/2-x,1/2+y,1/2-z
1/2-x,1/2-y,1/2-z
1/2+x,1/2+y,1/2-z
1/2-x,1/2+y,1/2+z
1/2+x,1/2-y,1/2+z
loop_
_atom_site_type_symbol
_atom_site_label
_atom_site_fract_x
_atom_site_fract_y
_atom_site_fract_z
Si Si1 0.399055 0.941541 0.639076
Si Si2 0.782377 0.085731 0.249639
Si Si3 0.399312 0.500000 0.859842
Si Si4 0.607850 0.846119 0.000000
Si Si5 0.691724 0.238897 0.869029
Si Si6 0.777115 0.557769 0.500000
Si Si7 0.600871 0.662566 0.864323
O O1 0.389575 0.927240 0.500000
O O2 0.500000 0.926786 0.685669
O O3 0.323621 0.912175 0.713777
O O4 0.382474 0.000000 0.658604
O O5 0.842118 0.048559 0.328070
O O6 0.825500 0.140120 0.270974
O O7 0.788561 0.068544 0.112041
O O8 0.500000 0.500000 0.798307
O O9 0.413939 0.500000 0.000000
O O10 0.648661 0.817228 0.880538
O O11 0.500000 0.844238 0.000000
O O12 0.637910 0.904063 0.000000
O O13 0.750000 0.250000 0.750000
O O14 0.608426 0.277650 0.860888
O O15 0.743279 0.249046 0.000000
O O16 0.812034 0.500000 0.500000
O O17 0.500000 0.647276 0.822486
O O18 0.618882 0.642380 0.000000
#
# Coordination Sequence:
#
# PCOD8291225 Si02
#       7
#    16  16   8   8  16   8  16
#     4   9  17  31  53  80 109 149 201 257 317 370
#     4  12  22  38  58  83 128 170 210 263 318 380
#     4  11  22  37  60  88 117 155 213 274 329 386
#     4  10  22  41  70  94 126 171 222 275 328 393
#     4   9  19  37  66  98 131 166 213 266 332 396
#     4  12  26  43  58  86 126 176 229 261 309 378
#     4  10  20  36  63  97 128 159 207 268 329 393
#
# _framework density 20.120373000000001
#
# number of rings (size 3 to 8) (size 9 to 14) (size 15 to 20)
#    0.545    1.182    1.818    4.364    0.000    2.364 
#    0.000    2.273    0.000    1.636    0.000    2.545 
#    0.000    0.000    0.000    0.000    0.000    0.000 
#
# Total GULP energy -545161.248445 kJ/mol
# GULP energy per Si atom -12390.028374 kJ/mol
# Density = 2.007458 g / cm^3
# Si number density = 20.120373 Si / 1000 Ang^3
#
#
#
# Elastic Constant Matrix: (Units=GPa)
#
#
# Indices 1 2 3 4 5 6 
#
# 1 130.6158 40.6370 57.1143 0.0001 0.0000 0.0000
# 2 40.6370 110.6907 32.9913 -0.0001 0.0000 -0.0001
# 3 57.1143 32.9913 110.4440 0.0007 0.0001 0.0000
# 4 0.0001 -0.0001 0.0007 12.0120 0.0000 -0.0001
# 5 0.0000 0.0000 0.0001 0.0000 11.4685 0.0000
# 6 0.0000 -0.0001 0.0000 -0.0001 0.0000 25.3043
#
#
#
# Elastic Compliance Matrix: (Units=1/GPa)
#
#
# Indices 1 2 3 4 5 6 
#
# 1 0.010464 -0.002447 -0.004680 0.000000 0.000000 0.000000
# 2 -0.002447 0.010489 -0.001868 0.000000 0.000000 0.000000
# 3 -0.004680 -0.001868 0.012033 -0.000001 0.000000 0.000000
# 4 0.000000 0.000000 -0.000001 0.083250 0.000000 0.000000
# 5 0.000000 0.000000 0.000000 0.000000 0.087195 0.000000
# 6 0.000000 0.000000 0.000000 0.000000 0.000000 0.039519
#
#
# Mechanical properties :
#
#
# Convention : Reuss Voigt Hill
#
# Bulk Modulus (GPa) = 66.68557 68.13732 67.41144
# Shear Modulus (GPa) = 18.80136 24.49084 21.64610
#
# Velocity S-wave (km/s) = 3.06018 3.49265 3.28354
# Velocity P-wave (km/s) = 6.76029 7.08542 6.92476
#
# Compressibility (1/GPa) = 0.01499575
#
# Stress axis : x y z
#
# Youngs Moduli (GPa) = 95.56783 95.33678 83.10644
#
# Poissons Ratio (x) = 0.23324 0.38897
# Poissons Ratio (y) = 0.23381 0.15525
# Poissons Ratio (z) = 0.44729 0.17810
#
# Static dielectric constant tensor:
#      x y z
#    x 3.800380 0.000000 0.000000 
#    y 0.000000 3.748790 0.000000 
#    z 0.000000 0.000000 3.654050 
# 
# 
# High freq. dielectric constant tensor:
#      x y z
#    x 1.774710 0.000000 0.000000 
#    y 0.000000 1.785390 0.000000 
#    z 0.000000 0.000000 1.774570 
# 
# From -- ./inp_files/22388.got.cif
#   From: 2010.06.25/outbox.cif.g09.slc.cpg/sg71_12_cif.got.tgz:22388.got - 2010.06.28 04:59:45.
