data_PCOD8291364
_publ_section_title
;
Structure prediction by ZEFSAII (Michael W. Deem and Ramdas Pophale) SiO2 
 PCOD8291364
Probable space group: I M M M
;
_chemical_formula_sum "Si O2"
_cell_formula_units_Z 80
_cell_length_a 14.801136
_cell_length_b 22.731667
_cell_length_c 12.153121
_cell_angle_alpha 90.000000
_cell_angle_beta 90.000000
_cell_angle_gamma 90.000000
_cell_volume 4088.972186
_symmetry_space_group_name_H-M "I M M M"
_symmetry_group_IT_number 71
_symmetry_cell_setting 'orthorhombic'
loop_
_space_group_symop_operation_xyz
x,y,z
-x,-y,z
x,-y,-z
-x,y,-z
-x,-y,-z
x,y,-z
-x,y,z
x,-y,z
1/2+x,1/2+y,1/2+z
1/2-x,1/2-y,1/2+z
1/2+x,1/2-y,1/2-z
1/2-x,1/2+y,1/2-z
1/2-x,1/2-y,1/2-z
1/2+x,1/2+y,1/2-z
1/2-x,1/2+y,1/2+z
1/2+x,1/2-y,1/2+z
loop_
_atom_site_type_symbol
_atom_site_label
_atom_site_fract_x
_atom_site_fract_y
_atom_site_fract_z
Si Si1 0.841178 0.622686 0.781493
Si Si2 0.398105 0.500000 0.193359
Si Si3 0.500000 0.833876 0.130590
Si Si4 0.399117 0.316454 0.500000
Si Si5 0.639381 0.626761 0.726760
Si Si6 0.393221 0.811070 0.500000
Si Si7 0.000000 0.195010 0.629508
Si Si8 0.200572 0.500000 0.123737
O O1 0.743740 0.641211 0.739353
O O2 0.840517 0.553944 0.809050
O O3 0.912235 0.636822 0.685432
O O4 0.859093 0.657561 0.891779
O O5 0.500000 0.500000 0.137929
O O6 0.388567 0.558543 0.266003
O O7 0.311042 0.500000 0.112187
O O8 0.500000 0.764305 0.154829
O O9 0.500000 0.846808 0.000000
O O10 0.500000 0.293293 0.500000
O O11 0.383630 0.356164 0.604401
O O12 0.346945 0.253997 0.500000
O O13 0.588239 0.665715 0.817607
O O14 0.500000 0.813470 0.500000
O O15 0.000000 0.181644 0.500000
O O16 0.162469 0.500000 0.000000
#
# Coordination Sequence:
#
# PCOD8291364 Si02
#       8
#    16   8   8   8  16   8   8   8
#     4  11  24  43  65  95 130 162 215 263 320 379
#     4  10  20  40  63  90 130 171 203 252 316 370
#     4  11  26  46  65  89 130 174 214 264 317 380
#     4  11  22  39  63  90 128 167 213 262 309 371
#     4  11  24  41  63  96 129 167 214 259 313 382
#     4  11  22  39  65  92 123 166 207 272 322 362
#     4  11  24  42  64  94 132 170 211 262 320 382
#     4  10  22  40  65  99 127 160 206 265 319 373
#
# _framework density 19.564817999999999
#
# number of rings (size 3 to 8) (size 9 to 14) (size 15 to 20)
#    0.000    1.200    4.000    1.200    2.800    5.000 
#    0.000    3.000    0.000    0.000    0.000    0.000 
#    0.000    0.000    0.000    0.000    0.000    0.000 
#
# Total GULP energy -495841.016779 kJ/mol
# GULP energy per Si atom -12396.025419 kJ/mol
# Density = 1.952029 g / cm^3
# Si number density = 19.564818 Si / 1000 Ang^3
#
#
#
# Elastic Constant Matrix: (Units=GPa)
#
#
# Indices 1 2 3 4 5 6 
#
# 1 140.3743 56.2204 55.6502 -0.0001 0.0000 0.0000
# 2 56.2204 151.2617 73.7782 -0.0001 0.0000 0.0000
# 3 55.6502 73.7782 155.2844 -0.0005 0.0000 0.0000
# 4 -0.0001 -0.0001 -0.0005 50.0963 0.0001 0.0000
# 5 0.0000 0.0000 0.0000 0.0001 34.1278 0.0000
# 6 0.0000 0.0000 0.0000 0.0000 0.0000 32.3436
#
#
#
# Elastic Compliance Matrix: (Units=1/GPa)
#
#
# Indices 1 2 3 4 5 6 
#
# 1 0.008865 -0.002272 -0.002098 0.000000 0.000000 0.000000
# 2 -0.002272 0.009187 -0.003551 0.000000 0.000000 0.000000
# 3 -0.002098 -0.003551 0.008879 0.000000 0.000000 0.000000
# 4 0.000000 0.000000 0.000000 0.019962 0.000000 0.000000
# 5 0.000000 0.000000 0.000000 0.000000 0.029302 0.000000
# 6 0.000000 0.000000 0.000000 0.000000 0.000000 0.030918
#
#
# Mechanical properties :
#
#
# Convention : Reuss Voigt Hill
#
# Bulk Modulus (GPa) = 90.16793 90.91311 90.54052
# Shear Modulus (GPa) = 39.47875 40.73166 40.10521
#
# Velocity S-wave (km/s) = 4.49692 4.56772 4.53245
# Velocity P-wave (km/s) = 8.55277 8.62480 8.58886
#
# Compressibility (1/GPa) = 0.01109042
#
# Stress axis : x y z
#
# Youngs Moduli (GPa) = 112.79911 108.84442 112.62953
#
# Poissons Ratio (x) = 0.24728 0.23626
# Poissons Ratio (y) = 0.25626 0.39994
# Poissons Ratio (z) = 0.23662 0.38650
#
# Static dielectric constant tensor:
#      x y z
#    x 3.682900 0.000000 0.000000 
#    y 0.000000 3.834450 0.000000 
#    z 0.000000 0.000000 3.588570 
# 
# 
# High freq. dielectric constant tensor:
#      x y z
#    x 1.770900 0.000000 0.000000 
#    y 0.000000 1.781390 0.000000 
#    z 0.000000 0.000000 1.761600 
# 
# From -- ./inp_files/21977.got.cif
#   From: 2010.06.25/outbox.cif.g09.slc.cpg/sg71_11_cif.got.tgz:21977.got - 2010.06.28 04:59:45.
