data_PCOD8291925
_publ_section_title
;
Structure prediction by ZEFSAII (Michael W. Deem and Ramdas Pophale) SiO2 
 PCOD8291925
Probable space group: I M M M
;
_chemical_formula_sum "Si O2"
_cell_formula_units_Z 64
_cell_length_a 27.060903
_cell_length_b 13.574709
_cell_length_c 8.530365
_cell_angle_alpha 90.000000
_cell_angle_beta 90.000000
_cell_angle_gamma 90.000000
_cell_volume 3133.577407
_symmetry_space_group_name_H-M "I M M M"
_symmetry_group_IT_number 71
_symmetry_cell_setting 'orthorhombic'
loop_
_space_group_symop_operation_xyz
x,y,z
-x,-y,z
x,-y,-z
-x,y,-z
-x,-y,-z
x,y,-z
-x,y,z
x,-y,z
1/2+x,1/2+y,1/2+z
1/2-x,1/2-y,1/2+z
1/2+x,1/2-y,1/2-z
1/2-x,1/2+y,1/2-z
1/2-x,1/2-y,1/2-z
1/2+x,1/2+y,1/2-z
1/2-x,1/2+y,1/2+z
1/2+x,1/2-y,1/2+z
loop_
_atom_site_type_symbol
_atom_site_label
_atom_site_fract_x
_atom_site_fract_y
_atom_site_fract_z
Si Si1 0.193064 0.000000 0.179047
Si Si2 0.621291 0.109572 0.314475
Si Si3 0.056558 0.208625 0.181791
Si Si4 0.911472 0.000000 0.680543
Si Si5 0.266104 0.851417 0.314676
O O1 0.227130 0.909284 0.213668
O O2 0.146638 0.000000 0.293487
O O3 0.174142 0.000000 0.000000
O O4 0.615671 0.112302 0.500000
O O5 0.589213 0.201142 0.243978
O O6 0.678151 0.123298 0.265323
O O7 0.604013 0.000000 0.254443
O O8 0.066082 0.100783 0.251449
O O9 0.000000 0.238292 0.211156
O O10 0.069612 0.199600 0.000000
O O11 0.924693 0.000000 0.500000
O O12 0.258654 0.866585 0.500000
O O13 0.250000 0.750000 0.250000
#
# Coordination Sequence:
#
# PCOD8291925 Si02
#       5
#     8  16  16   8  16
#     4  12  24  39  59  86 119 156 200 253 313 370
#     4   9  18  35  59  87 122 161 200 248 300 357
#     4  10  21  38  63  93 123 158 203 255 310 368
#     4  12  25  41  62  87 120 161 207 258 315 381
#     4  11  21  36  58  86 122 164 206 250 299 363
#
# _framework density 20.423942
#
# number of rings (size 3 to 8) (size 9 to 14) (size 15 to 20)
#    0.000    1.500    1.250    4.875    0.000    4.500 
#    0.000    3.750    0.000    0.000    0.000    1.750 
#    0.000    0.000    0.000    0.000    0.000    0.000 
#
# Total GULP energy -396448.865257 kJ/mol
# GULP energy per Si atom -12389.027039 kJ/mol
# Density = 2.037746 g / cm^3
# Si number density = 20.423942 Si / 1000 Ang^3
#
#
#
# Elastic Constant Matrix: (Units=GPa)
#
#
# Indices 1 2 3 4 5 6 
#
# 1 84.1315 43.2295 29.6752 0.0000 0.0000 0.0000
# 2 43.2295 183.9434 27.7662 0.0000 0.0000 0.0000
# 3 29.6752 27.7662 43.9835 0.0000 0.0000 0.0000
# 4 0.0000 0.0000 0.0000 22.7290 0.0000 0.0000
# 5 0.0000 0.0000 0.0000 0.0000 23.2709 0.0000
# 6 0.0000 0.0000 0.0000 0.0000 0.0000 36.8353
#
#
#
# Elastic Compliance Matrix: (Units=1/GPa)
#
#
# Indices 1 2 3 4 5 6 
#
# 1 0.016528 -0.002433 -0.009615 0.000000 0.000000 0.000000
# 2 -0.002433 0.006367 -0.002378 0.000000 0.000000 0.000000
# 3 -0.009615 -0.002378 0.030724 0.000000 0.000000 0.000000
# 4 0.000000 0.000000 0.000000 0.043997 0.000000 0.000000
# 5 0.000000 0.000000 0.000000 0.000000 0.042972 0.000000
# 6 0.000000 0.000000 0.000000 0.000000 0.000000 0.027148
#
#
# Mechanical properties :
#
#
# Convention : Reuss Voigt Hill
#
# Bulk Modulus (GPa) = 40.37650 57.04447 48.71048
# Shear Modulus (GPa) = 24.40882 30.65956 27.53419
#
# Velocity S-wave (km/s) = 3.46078 3.87868 3.67568
# Velocity P-wave (km/s) = 5.98176 6.93179 6.47423
#
# Compressibility (1/GPa) = 0.02476688
#
# Stress axis : x y z
#
# Youngs Moduli (GPa) = 60.50424 157.05533 32.54741
#
# Poissons Ratio (x) = 0.38209 0.31295
# Poissons Ratio (y) = 0.14720 0.07740
# Poissons Ratio (z) = 0.58177 0.37349
#
# Static dielectric constant tensor:
#      x y z
#    x 3.032910 0.000000 0.000000 
#    y 0.000000 4.136940 0.000000 
#    z 0.000000 0.000000 3.533900 
# 
# 
# High freq. dielectric constant tensor:
#      x y z
#    x 1.804750 0.000000 0.000000 
#    y 0.000000 1.829780 0.000000 
#    z 0.000000 0.000000 1.765860 
# 
# From -- ./inp_files/11977.got.cif
#   From: 2010.06.25/outbox.cif.g09.slc.cpg/sg71_6_cif.got.tgz:11977.got - 2010.06.28 04:59:45.
