data_PCOD8291566
_publ_section_title
;
Structure prediction by ZEFSAII (Michael W. Deem and Ramdas Pophale) SiO2 
 PCOD8291566
Probable space group: I M M M
;
_chemical_formula_sum "Si O2"
_cell_formula_units_Z 104
_cell_length_a 21.553414
_cell_length_b 25.870931
_cell_length_c 10.028396
_cell_angle_alpha 90.000000
_cell_angle_beta 90.000000
_cell_angle_gamma 90.000000
_cell_volume 5591.902669
_symmetry_space_group_name_H-M "I M M M"
_symmetry_group_IT_number 71
_symmetry_cell_setting 'orthorhombic'
loop_
_space_group_symop_operation_xyz
x,y,z
-x,-y,z
x,-y,-z
-x,y,-z
-x,-y,-z
x,y,-z
-x,y,z
x,-y,z
1/2+x,1/2+y,1/2+z
1/2-x,1/2-y,1/2+z
1/2+x,1/2-y,1/2-z
1/2-x,1/2+y,1/2-z
1/2-x,1/2-y,1/2-z
1/2+x,1/2+y,1/2-z
1/2-x,1/2+y,1/2+z
1/2+x,1/2-y,1/2+z
loop_
_atom_site_type_symbol
_atom_site_label
_atom_site_fract_x
_atom_site_fract_y
_atom_site_fract_z
Si Si1 0.930185 0.870612 0.350208
Si Si2 0.570257 0.000000 0.156869
Si Si3 0.886122 0.611909 0.346869
Si Si4 0.319636 0.558500 0.151619
Si Si5 0.745111 0.367516 0.650209
Si Si6 0.930654 0.693565 0.849704
Si Si7 0.135389 0.795974 0.152906
O O1 0.922440 0.847946 0.500000
O O2 0.889738 0.921959 0.332225
O O3 0.910330 0.827413 0.246640
O O4 0.000000 0.887640 0.320997
O O5 0.608222 0.948231 0.200397
O O6 0.500000 0.000000 0.217529
O O7 0.564655 0.000000 0.000000
O O8 0.908839 0.616773 0.500000
O O9 0.818365 0.637501 0.331450
O O10 0.929248 0.645768 0.251662
O O11 0.318339 0.500000 0.198868
O O12 0.274101 0.589105 0.246591
O O13 0.296148 0.565207 0.000000
O O14 0.729789 0.386209 0.500000
O O15 0.707284 0.313723 0.678849
O O16 0.877468 0.735881 0.814024
O O17 0.000000 0.717989 0.839291
O O18 0.918822 0.673070 0.000000
O O19 0.116762 0.806993 0.000000
#
# Coordination Sequence:
#
# PCOD8291566 Si02
#       7
#    16   8  16  16  16  16  16
#     4   9  17  29  46  70  99 132 174 220 262 305
#     4   9  18  34  55  77 103 135 168 207 258 310
#     4  10  21  36  56  81 105 134 173 217 262 310
#     4   9  18  31  47  69  99 135 173 215 263 314
#     4   9  19  34  53  77 103 133 174 217 259 306
#     4  10  21  36  54  77 106 139 173 210 257 313
#     4   9  18  34  53  74 103 139 173 209 256 311
#
# _framework density 18.598320000000001
#
# number of rings (size 3 to 8) (size 9 to 14) (size 15 to 20)
#    0.000    2.692    0.000    0.923    1.077    4.308 
#    0.000    1.923    0.000    1.385    0.000    4.308 
#    0.000    0.000    0.000    0.000    0.000    0.000 
#
# Total GULP energy -644438.616339 kJ/mol
# GULP energy per Si atom -12393.050314 kJ/mol
# Density = 1.855599 g / cm^3
# Si number density = 18.598320 Si / 1000 Ang^3
#
#
#
# Elastic Constant Matrix: (Units=GPa)
#
#
# Indices 1 2 3 4 5 6 
#
# 1 78.0731 34.8323 27.8118 0.0000 0.0000 0.0000
# 2 34.8323 115.5445 49.7584 0.0000 0.0000 0.0000
# 3 27.8118 49.7584 65.9549 0.0000 0.0000 0.0000
# 4 0.0000 0.0000 0.0000 29.0631 0.0000 0.0000
# 5 0.0000 0.0000 0.0000 0.0000 23.5986 0.0000
# 6 0.0000 0.0000 0.0000 0.0000 0.0000 20.4853
#
#
#
# Elastic Compliance Matrix: (Units=1/GPa)
#
#
# Indices 1 2 3 4 5 6 
#
# 1 0.015653 -0.002779 -0.004504 0.000000 0.000000 0.000000
# 2 -0.002779 0.013313 -0.008872 0.000000 0.000000 0.000000
# 3 -0.004504 -0.008872 0.023754 0.000000 0.000000 0.000000
# 4 0.000000 0.000000 0.000000 0.034408 0.000000 0.000000
# 5 0.000000 0.000000 0.000000 0.000000 0.042375 0.000000
# 6 0.000000 0.000000 0.000000 0.000000 0.000000 0.048815
#
#
# Mechanical properties :
#
#
# Convention : Reuss Voigt Hill
#
# Bulk Modulus (GPa) = 48.99444 53.81972 51.40708
# Shear Modulus (GPa) = 22.99567 24.44072 23.71820
#
# Velocity S-wave (km/s) = 3.52012 3.62903 3.57499
# Velocity P-wave (km/s) = 6.55151 6.82353 6.68891
#
# Compressibility (1/GPa) = 0.02041048
#
# Stress axis : x y z
#
# Youngs Moduli (GPa) = 63.88627 75.11379 42.09772
#
# Poissons Ratio (x) = 0.20876 0.18960
# Poissons Ratio (y) = 0.17755 0.37349
# Poissons Ratio (z) = 0.28773 0.66640
#
# Static dielectric constant tensor:
#      x y z
#    x 3.435230 0.000000 0.000000 
#    y 0.000000 3.326210 0.000000 
#    z 0.000000 0.000000 3.485540 
# 
# 
# High freq. dielectric constant tensor:
#      x y z
#    x 1.721720 0.000000 0.000000 
#    y 0.000000 1.707890 0.000000 
#    z 0.000000 0.000000 1.721000 
# 
# From -- ./inp_files/13346.got.cif
#   From: 2010.06.25/outbox.cif.g09.slc.cpg/sg71_7_cif.got.tgz:13346.got - 2010.06.28 04:59:45.
