data_PCOD8291416
_publ_section_title
;
Structure prediction by ZEFSAII (Michael W. Deem and Ramdas Pophale) SiO2 
 PCOD8291416
Probable space group: I M M M
;
_chemical_formula_sum "Si O2"
_cell_formula_units_Z 80
_cell_length_a 17.121218
_cell_length_b 20.630496
_cell_length_c 11.524481
_cell_angle_alpha 90.000000
_cell_angle_beta 90.000000
_cell_angle_gamma 90.000000
_cell_volume 4070.668184
_symmetry_space_group_name_H-M "I M M M"
_symmetry_group_IT_number 71
_symmetry_cell_setting 'orthorhombic'
loop_
_space_group_symop_operation_xyz
x,y,z
-x,-y,z
x,-y,-z
-x,y,-z
-x,-y,-z
x,y,-z
-x,y,z
x,-y,z
1/2+x,1/2+y,1/2+z
1/2-x,1/2-y,1/2+z
1/2+x,1/2-y,1/2-z
1/2-x,1/2+y,1/2-z
1/2-x,1/2-y,1/2-z
1/2+x,1/2+y,1/2-z
1/2-x,1/2+y,1/2+z
1/2+x,1/2-y,1/2+z
loop_
_atom_site_type_symbol
_atom_site_label
_atom_site_fract_x
_atom_site_fract_y
_atom_site_fract_z
Si Si1 0.591120 0.000000 0.869110
Si Si2 0.819294 0.617452 0.289888
Si Si3 0.657146 0.253727 0.738517
Si Si4 0.906167 0.807147 0.000000
Si Si5 0.587149 0.500000 0.861505
Si Si6 0.678170 0.622938 0.136046
Si Si7 0.709272 0.579143 0.500000
O O1 0.616594 0.061692 0.795001
O O2 0.500000 0.000000 0.883339
O O3 0.629190 0.000000 0.000000
O O4 0.869587 0.684529 0.292878
O O5 0.769225 0.617487 0.171408
O O6 0.756182 0.606147 0.390248
O O7 0.750000 0.250000 0.750000
O O8 0.624697 0.265647 0.609688
O O9 0.631694 0.313953 0.818272
O O10 0.872752 0.881186 0.000000
O O11 0.000000 0.810710 0.000000
O O12 0.500000 0.500000 0.811275
O O13 0.631805 0.437931 0.811188
O O14 0.586880 0.500000 0.000000
O O15 0.674434 0.623468 0.000000
O O16 0.697608 0.500000 0.500000
#
# Coordination Sequence:
#
# PCOD8291416 Si02
#       7
#     8  16  16   8   8  16   8
#     4  11  23  40  63  93 124 161 212 291 358 393
#     4  11  21  38  68  88 125 161 218 274 325 396
#     4  10  23  38  67  91 125 173 223 263 323 397
#     4  12  26  45  64 103 146 172 217 285 346 394
#     4   9  19  36  52  75 123 164 190 245 305 361
#     4  10  21  34  59  94 117 158 222 255 305 384
#     4  12  22  41  70 104 125 177 226 276 335 407
#
# _framework density 19.652794
#
# number of rings (size 3 to 8) (size 9 to 14) (size 15 to 20)
#    0.000    1.400    6.000    0.600    7.000    1.800 
#    0.000    0.000    0.000    3.000    0.000    0.000 
#    0.000    0.000    0.000    0.000    0.000    0.000 
#
# Total GULP energy -495674.434567 kJ/mol
# GULP energy per Si atom -12391.860864 kJ/mol
# Density = 1.960806 g / cm^3
# Si number density = 19.652794 Si / 1000 Ang^3
#
#
#
# Elastic Constant Matrix: (Units=GPa)
#
#
# Indices 1 2 3 4 5 6 
#
# 1 84.0709 55.8689 32.1218 0.0000 0.0000 0.0000
# 2 55.8689 227.3313 60.6348 0.0000 0.0000 0.0000
# 3 32.1218 60.6348 84.0949 0.0000 0.0000 0.0000
# 4 0.0000 0.0000 0.0000 44.2899 0.0000 0.0000
# 5 0.0000 0.0000 0.0000 0.0000 19.0401 0.0000
# 6 0.0000 0.0000 0.0000 0.0000 0.0000 8.2984
#
#
#
# Elastic Compliance Matrix: (Units=1/GPa)
#
#
# Indices 1 2 3 4 5 6 
#
# 1 0.015157 -0.002700 -0.003843 0.000000 0.000000 0.000000
# 2 -0.002700 0.005927 -0.003242 0.000000 0.000000 0.000000
# 3 -0.003843 -0.003242 0.015697 0.000000 0.000000 0.000000
# 4 0.000000 0.000000 0.000000 0.022579 0.000000 0.000000
# 5 0.000000 0.000000 0.000000 0.000000 0.052521 0.000000
# 6 0.000000 0.000000 0.000000 0.000000 0.000000 0.120505
#
#
# Mechanical properties :
#
#
# Convention : Reuss Voigt Hill
#
# Bulk Modulus (GPa) = 58.10222 76.97201 67.53712
# Shear Modulus (GPa) = 19.40292 30.78379 25.09336
#
# Velocity S-wave (km/s) = 3.14552 3.96205 3.57716
# Velocity P-wave (km/s) = 6.54377 7.75767 7.17643
#
# Compressibility (1/GPa) = 0.01721105
#
# Stress axis : x y z
#
# Youngs Moduli (GPa) = 65.97470 168.71209 63.70646
#
# Poissons Ratio (x) = 0.45554 0.24481
# Poissons Ratio (y) = 0.17814 0.20656
# Poissons Ratio (z) = 0.25353 0.54703
#
# Static dielectric constant tensor:
#      x y z
#    x 3.372920 0.000000 0.000000 
#    y 0.000000 4.657450 0.000000 
#    z 0.000000 0.000000 3.629460 
# 
# 
# High freq. dielectric constant tensor:
#      x y z
#    x 1.738050 0.000000 0.000000 
#    y 0.000000 1.792120 0.000000 
#    z 0.000000 0.000000 1.758940 
# 
# From -- ./inp_files/23907.got.cif
#   From: 2010.06.25/outbox.cif.g09.slc.cpg/sg71_12_cif.got.tgz:23907.got - 2010.06.28 04:59:45.
