data_PCOD8291269
_publ_section_title
;
Structure prediction by ZEFSAII (Michael W. Deem and Ramdas Pophale) SiO2 
 PCOD8291269
Probable space group: I M M M
;
_chemical_formula_sum "Si O2"
_cell_formula_units_Z 96
_cell_length_a 20.851170
_cell_length_b 21.923411
_cell_length_c 11.850716
_cell_angle_alpha 90.000000
_cell_angle_beta 90.000000
_cell_angle_gamma 90.000000
_cell_volume 5417.303226
_symmetry_space_group_name_H-M "I M M M"
_symmetry_group_IT_number 71
_symmetry_cell_setting 'orthorhombic'
loop_
_space_group_symop_operation_xyz
x,y,z
-x,-y,z
x,-y,-z
-x,y,-z
-x,-y,-z
x,y,-z
-x,y,z
x,-y,z
1/2+x,1/2+y,1/2+z
1/2-x,1/2-y,1/2+z
1/2+x,1/2-y,1/2-z
1/2-x,1/2+y,1/2-z
1/2-x,1/2-y,1/2-z
1/2+x,1/2+y,1/2-z
1/2-x,1/2+y,1/2+z
1/2+x,1/2-y,1/2+z
loop_
_atom_site_type_symbol
_atom_site_label
_atom_site_fract_x
_atom_site_fract_y
_atom_site_fract_z
Si Si1 0.500000 0.070389 0.621576
Si Si2 0.117649 0.612322 0.736804
Si Si3 0.427593 0.928294 0.000000
Si Si4 0.577380 0.314951 0.000000
Si Si5 0.781469 0.818156 0.872229
Si Si6 0.245284 0.929858 0.724404
Si Si7 0.850118 0.742755 0.692141
Si Si8 0.165165 0.070961 0.500000
O O1 0.500000 0.104467 0.500000
O O2 0.439225 0.085888 0.693365
O O3 0.500000 0.000000 0.597823
O O4 0.113398 0.593147 0.606448
O O5 0.180316 0.584631 0.796474
O O6 0.112951 0.685120 0.743128
O O7 0.500000 0.900164 0.000000
O O8 0.433400 0.000000 0.000000
O O9 0.603522 0.279262 0.891360
O O10 0.500000 0.316248 0.000000
O O11 0.603386 0.384716 0.000000
O O12 0.776760 0.887270 0.827336
O O13 0.834746 0.785254 0.797816
O O14 0.714481 0.781306 0.868317
O O15 0.805970 0.820545 0.000000
O O16 0.207741 0.913923 0.609646
O O17 0.234451 0.000000 0.759185
O O18 0.142814 0.000000 0.500000
#
# Coordination Sequence:
#
# PCOD8291269 Si02
#       8
#     8  16   8   8  16  16  16   8
#     4  11  24  39  53  73 111 156 207 244 278 338
#     4  11  23  36  54  81 113 159 195 242 289 339
#     4  11  21  35  54  76 115 159 196 240 284 332
#     4  12  23  39  67  89 121 154 195 249 297 363
#     4  10  20  37  60  84 119 153 186 242 292 343
#     4  10  21  36  59  86 116 149 193 244 295 355
#     4  10  22  37  56  87 116 150 197 233 293 352
#     4  10  22  42  63  90 119 146 192 254 317 359
#
# _framework density 17.720994000000001
#
# number of rings (size 3 to 8) (size 9 to 14) (size 15 to 20)
#    0.000    1.500    3.333    2.000    5.833    1.833 
#    0.000    0.000    0.000    0.000    0.000    0.000 
#    0.000    2.667    0.000    0.000    0.000    0.000 
#
# Total GULP energy -595177.816793 kJ/mol
# GULP energy per Si atom -12399.537850 kJ/mol
# Density = 1.768066 g / cm^3
# Si number density = 17.720994 Si / 1000 Ang^3
#
#
#
# Elastic Constant Matrix: (Units=GPa)
#
#
# Indices 1 2 3 4 5 6 
#
# 1 95.7503 56.3225 55.6234 0.0000 0.0000 0.0000
# 2 56.3225 114.8646 55.4016 0.0000 0.0000 0.0000
# 3 55.6234 55.4016 137.4247 0.0000 0.0000 0.0000
# 4 0.0000 0.0000 0.0000 27.5169 0.0000 0.0000
# 5 0.0000 0.0000 0.0000 0.0000 29.2796 0.0000
# 6 0.0000 0.0000 0.0000 0.0000 0.0000 37.3923
#
#
#
# Elastic Compliance Matrix: (Units=1/GPa)
#
#
# Indices 1 2 3 4 5 6 
#
# 1 0.016443 -0.006024 -0.004227 0.000000 0.000000 0.000000
# 2 -0.006024 0.013014 -0.002808 0.000000 0.000000 0.000000
# 3 -0.004227 -0.002808 0.010120 0.000000 0.000000 0.000000
# 4 0.000000 0.000000 0.000000 0.036341 0.000000 0.000000
# 5 0.000000 0.000000 0.000000 0.000000 0.034153 0.000000
# 6 0.000000 0.000000 0.000000 0.000000 0.000000 0.026743
#
#
# Mechanical properties :
#
#
# Convention : Reuss Voigt Hill
#
# Bulk Modulus (GPa) = 74.30229 75.85940 75.08085
# Shear Modulus (GPa) = 29.86526 30.88392 30.37459
#
# Velocity S-wave (km/s) = 4.10970 4.17920 4.14459
# Velocity P-wave (km/s) = 8.03365 8.13561 8.08479
#
# Compressibility (1/GPa) = 0.01345853
#
# Stress axis : x y z
#
# Youngs Moduli (GPa) = 60.81776 76.83960 98.81705
#
# Poissons Ratio (x) = 0.46286 0.41768
# Poissons Ratio (y) = 0.36635 0.27752
# Poissons Ratio (z) = 0.25706 0.21580
#
# Static dielectric constant tensor:
#      x y z
#    x 3.141510 0.000000 0.000000 
#    y 0.000000 3.483310 0.000000 
#    z 0.000000 0.000000 3.331480 
# 
# 
# High freq. dielectric constant tensor:
#      x y z
#    x 1.664200 0.000000 0.000000 
#    y 0.000000 1.698220 0.000000 
#    z 0.000000 0.000000 1.691180 
# 
# From -- ./inp_files/26052.got.cif
#   From: 2010.06.25/outbox.cif.g09.slc.cpg/sg71_14_cif.got.tgz:26052.got - 2010.06.28 04:59:45.
