data_PCOD8291713
_publ_section_title
;
Structure prediction by ZEFSAII (Michael W. Deem and Ramdas Pophale) SiO2 
 PCOD8291713
Probable space group: I M M M
;
_chemical_formula_sum "Si O2"
_cell_formula_units_Z 96
_cell_length_a 14.579043
_cell_length_b 14.454383
_cell_length_c 21.227549
_cell_angle_alpha 90.000000
_cell_angle_beta 90.000000
_cell_angle_gamma 90.000000
_cell_volume 4473.304142
_symmetry_space_group_name_H-M "I M M M"
_symmetry_group_IT_number 71
_symmetry_cell_setting 'orthorhombic'
loop_
_space_group_symop_operation_xyz
x,y,z
-x,-y,z
x,-y,-z
-x,y,-z
-x,-y,-z
x,y,-z
-x,y,z
x,-y,z
1/2+x,1/2+y,1/2+z
1/2-x,1/2-y,1/2+z
1/2+x,1/2-y,1/2-z
1/2-x,1/2+y,1/2-z
1/2-x,1/2-y,1/2-z
1/2+x,1/2+y,1/2-z
1/2-x,1/2+y,1/2+z
1/2+x,1/2-y,1/2+z
loop_
_atom_site_type_symbol
_atom_site_label
_atom_site_fract_x
_atom_site_fract_y
_atom_site_fract_z
Si Si1 0.785675 0.897109 0.569447
Si Si2 0.281325 0.703504 0.568592
Si Si3 0.609296 0.288428 0.687167
Si Si4 0.605321 0.107884 0.885102
Si Si5 0.607807 0.899935 0.258814
Si Si6 0.602359 0.606844 0.192493
O O1 0.834096 0.896458 0.500000
O O2 0.710971 0.815516 0.570122
O O3 0.855792 0.871892 0.624726
O O4 0.742255 0.000000 0.580867
O O5 0.317470 0.669266 0.500000
O O6 0.345990 0.666436 0.624720
O O7 0.176136 0.669024 0.574726
O O8 0.500000 0.299818 0.682001
O O9 0.640814 0.180825 0.694122
O O10 0.649926 0.340707 0.748742
O O11 0.500000 0.137311 0.899825
O O12 0.631290 0.127190 0.812623
O O13 0.618505 0.000000 0.901499
O O14 0.500000 0.911260 0.264045
O O15 0.653364 0.000000 0.277063
O O16 0.500000 0.645663 0.187601
O O17 0.605432 0.500000 0.209657
#
# Coordination Sequence:
#
# PCOD8291713 Si02
#       6
#    16  16  16  16  16  16
#     4   9  19  35  53  78 115 150 176 212 267 329
#     4  11  24  38  54  79 108 144 192 235 273 324
#     4  10  21  37  56  78 108 145 186 235 280 315
#     4   9  19  37  60  86 115 141 168 214 276 337
#     4   8  15  30  54  84 113 139 172 217 272 335
#     4   9  18  33  54  80 108 140 180 222 267 326
#
# _framework density 21.460646000000001
#
# number of rings (size 3 to 8) (size 9 to 14) (size 15 to 20)
#    0.000    2.667    0.000    2.000    0.000    7.333 
#    0.000    7.500    0.000    0.000    0.000    8.167 
#    0.000    0.000    0.000    0.000    0.000    0.000 
#
# Total GULP energy -594704.973170 kJ/mol
# GULP energy per Si atom -12389.686941 kJ/mol
# Density = 2.141180 g / cm^3
# Si number density = 21.460646 Si / 1000 Ang^3
#
#
#
# Elastic Constant Matrix: (Units=GPa)
#
#
# Indices 1 2 3 4 5 6 
#
# 1 38.2873 13.3150 40.8473 0.0000 0.0000 0.0000
# 2 13.3150 51.1943 33.7962 0.0000 0.0000 0.0000
# 3 40.8473 33.7962 168.0102 0.0000 0.0000 0.0000
# 4 0.0000 0.0000 0.0000 33.2480 0.0000 0.0000
# 5 0.0000 0.0000 0.0000 0.0000 22.5029 0.0000
# 6 0.0000 0.0000 0.0000 0.0000 0.0000 13.8001
#
#
#
# Elastic Compliance Matrix: (Units=1/GPa)
#
#
# Indices 1 2 3 4 5 6 
#
# 1 0.036009 -0.004135 -0.007923 0.000000 0.000000 0.000000
# 2 -0.004135 0.022999 -0.003621 0.000000 0.000000 0.000000
# 3 -0.007923 -0.003621 0.008607 0.000000 0.000000 0.000000
# 4 0.000000 0.000000 0.000000 0.030077 0.000000 0.000000
# 5 0.000000 0.000000 0.000000 0.000000 0.044439 0.000000
# 6 0.000000 0.000000 0.000000 0.000000 0.000000 0.072463
#
#
# Mechanical properties :
#
#
# Convention : Reuss Voigt Hill
#
# Bulk Modulus (GPa) = 27.58103 48.15653 37.86878
# Shear Modulus (GPa) = 19.37699 25.21241 22.29470
#
# Velocity S-wave (km/s) = 3.00810 3.43128 3.22664
# Velocity P-wave (km/s) = 4.99447 6.17952 5.61833
#
# Compressibility (1/GPa) = 0.03625680
#
# Stress axis : x y z
#
# Youngs Moduli (GPa) = 27.77082 43.47937 116.18918
#
# Poissons Ratio (x) = 0.17980 0.92055
# Poissons Ratio (y) = 0.11484 0.42073
# Poissons Ratio (z) = 0.22002 0.15744
#
# Static dielectric constant tensor:
#      x y z
#    x 3.369830 0.000000 0.000000 
#    y 0.000000 4.866820 0.000000 
#    z 0.000000 0.000000 3.986340 
# 
# 
# High freq. dielectric constant tensor:
#      x y z
#    x 1.798320 0.000000 0.000000 
#    y 0.000000 1.850630 0.000000 
#    z 0.000000 0.000000 1.846130 
# 
# From -- ./inp_files/34498.got.cif
#   From: 2010.06.25/outbox.cif.g09.slc.cpg/sg71_18_cif.got.tgz:34498.got - 2010.06.28 04:59:45.
