data_PCOD8291557
_publ_section_title
;
Structure prediction by ZEFSAII (Michael W. Deem and Ramdas Pophale) SiO2 
 PCOD8291557
Probable space group: I M M M
;
_chemical_formula_sum "Si O2"
_cell_formula_units_Z 56
_cell_length_a 9.196919
_cell_length_b 9.107025
_cell_length_c 36.232577
_cell_angle_alpha 90.000000
_cell_angle_beta 90.000000
_cell_angle_gamma 90.000000
_cell_volume 3034.716417
_symmetry_space_group_name_H-M "I M M M"
_symmetry_group_IT_number 71
_symmetry_cell_setting 'orthorhombic'
loop_
_space_group_symop_operation_xyz
x,y,z
-x,-y,z
x,-y,-z
-x,y,-z
-x,-y,-z
x,y,-z
-x,y,z
x,-y,z
1/2+x,1/2+y,1/2+z
1/2-x,1/2-y,1/2+z
1/2+x,1/2-y,1/2-z
1/2-x,1/2+y,1/2-z
1/2-x,1/2-y,1/2-z
1/2+x,1/2+y,1/2-z
1/2-x,1/2+y,1/2+z
1/2+x,1/2-y,1/2+z
loop_
_atom_site_type_symbol
_atom_site_label
_atom_site_fract_x
_atom_site_fract_y
_atom_site_fract_z
Si Si1 0.829363 0.330749 0.717121
Si Si2 0.835791 0.325188 0.071061
Si Si3 0.664606 0.675251 0.000000
Si Si4 0.668775 0.670455 0.143138
O O1 0.783705 0.500000 0.717133
O O2 0.750000 0.250000 0.750000
O O3 0.778577 0.260631 0.678600
O O4 0.000000 0.308876 0.722694
O O5 0.834708 0.500000 0.070054
O O6 0.747234 0.263486 0.036041
O O7 0.759489 0.269633 0.108402
O O8 0.000000 0.264407 0.069561
O O9 0.664709 0.500000 0.000000
O O10 0.500000 0.735312 0.000000
O O11 0.500000 0.697283 0.134322
O O12 0.700645 0.500000 0.150919
#
# Coordination Sequence:
#
# PCOD8291557 Si02
#       4
#    16  16   8  16
#     4  10  21  36  54  76 101 130 165 205 249 298
#     4   9  16  25  39  62  92 124 159 200 242 283
#     4   9  15  23  37  59  90 127 162 195 236 286
#     4   9  17  30  47  67  94 128 163 199 242 292
#
# _framework density 18.453123999999999
#
# number of rings (size 3 to 8) (size 9 to 14) (size 15 to 20)
#    0.000    2.714    0.000    2.143    0.000    8.000 
#    0.000    2.857    0.000    0.000    0.000    1.000 
#    0.000    8.000    0.000    0.000    0.000    0.000 
#
# Total GULP energy -347231.795287 kJ/mol
# GULP energy per Si atom -12401.135546 kJ/mol
# Density = 1.841112 g / cm^3
# Si number density = 18.453124 Si / 1000 Ang^3
#
#
#
# Elastic Constant Matrix: (Units=GPa)
#
#
# Indices 1 2 3 4 5 6 
#
# 1 118.2536 35.2660 100.0532 0.0000 0.0000 0.0000
# 2 35.2660 56.6618 61.2002 0.0000 0.0000 0.0000
# 3 100.0532 61.2002 211.5513 0.0000 0.0000 0.0000
# 4 0.0000 0.0000 0.0000 20.7658 0.0000 0.0000
# 5 0.0000 0.0000 0.0000 0.0000 43.0571 0.0000
# 6 0.0000 0.0000 0.0000 0.0000 0.0000 14.5894
#
#
#
# Elastic Compliance Matrix: (Units=1/GPa)
#
#
# Indices 1 2 3 4 5 6 
#
# 1 0.014305 -0.002321 -0.006094 0.000000 0.000000 0.000000
# 2 -0.002321 0.026046 -0.006437 0.000000 0.000000 0.000000
# 3 -0.006094 -0.006437 0.009471 0.000000 0.000000 0.000000
# 4 0.000000 0.000000 0.000000 0.048156 0.000000 0.000000
# 5 0.000000 0.000000 0.000000 0.000000 0.023225 0.000000
# 6 0.000000 0.000000 0.000000 0.000000 0.000000 0.068543
#
#
# Mechanical properties :
#
#
# Convention : Reuss Voigt Hill
#
# Bulk Modulus (GPa) = 49.70777 86.61171 68.15974
# Shear Modulus (GPa) = 22.10866 28.34561 25.22714
#
# Velocity S-wave (km/s) = 3.46511 3.92355 3.70143
# Velocity P-wave (km/s) = 6.55783 8.21971 7.43535
#
# Compressibility (1/GPa) = 0.02011758
#
# Stress axis : x y z
#
# Youngs Moduli (GPa) = 69.90767 38.39371 105.58229
#
# Poissons Ratio (x) = 0.08912 0.64340
# Poissons Ratio (y) = 0.16227 0.67964
# Poissons Ratio (z) = 0.42601 0.24714
#
# Static dielectric constant tensor:
#      x y z
#    x 3.483830 0.000000 0.000000 
#    y 0.000000 2.967270 0.000000 
#    z 0.000000 0.000000 3.620340 
# 
# 
# High freq. dielectric constant tensor:
#      x y z
#    x 1.718920 0.000000 0.000000 
#    y 0.000000 1.663310 0.000000 
#    z 0.000000 0.000000 1.733840 
# 
# From -- ./inp_files/3588.got.cif
#   From: 2010.06.25/outbox.cif.g09.slc.cpg/sg71_2_cif.got.tgz:3588.got - 2010.06.28 04:59:45.
