data_PCOD8291797
_publ_section_title
;
Structure prediction by ZEFSAII (Michael W. Deem and Ramdas Pophale) SiO2 
 PCOD8291797
Probable space group: I M M M
;
_chemical_formula_sum "Si O2"
_cell_formula_units_Z 104
_cell_length_a 29.337030
_cell_length_b 7.712269
_cell_length_c 22.151205
_cell_angle_alpha 90.000000
_cell_angle_beta 90.000000
_cell_angle_gamma 90.000000
_cell_volume 5011.822372
_symmetry_space_group_name_H-M "I M M M"
_symmetry_group_IT_number 71
_symmetry_cell_setting 'orthorhombic'
loop_
_space_group_symop_operation_xyz
x,y,z
-x,-y,z
x,-y,-z
-x,y,-z
-x,-y,-z
x,y,-z
-x,y,z
x,-y,z
1/2+x,1/2+y,1/2+z
1/2-x,1/2-y,1/2+z
1/2+x,1/2-y,1/2-z
1/2-x,1/2+y,1/2-z
1/2-x,1/2-y,1/2-z
1/2+x,1/2+y,1/2-z
1/2-x,1/2+y,1/2+z
1/2+x,1/2-y,1/2+z
loop_
_atom_site_type_symbol
_atom_site_label
_atom_site_fract_x
_atom_site_fract_y
_atom_site_fract_z
Si Si1 0.206593 0.800869 0.828190
Si Si2 0.805575 0.703067 0.302295
Si Si3 0.143782 0.793558 0.933196
Si Si4 0.450481 0.694906 0.608128
Si Si5 0.398312 0.796387 0.142285
Si Si6 0.552633 0.500000 0.928642
Si Si7 0.551428 0.803462 0.261781
O O1 0.181701 0.780717 0.763483
O O2 0.257445 0.716948 0.825318
O O3 0.177241 0.712594 0.882213
O O4 0.211871 0.000000 0.845480
O O5 0.800697 0.500000 0.291690
O O6 0.844171 0.742586 0.352519
O O7 0.092424 0.715359 0.925213
O O8 0.140749 0.000000 0.924945
O O9 0.161668 0.742758 0.000000
O O10 0.500000 0.789161 0.596596
O O11 0.455073 0.500000 0.584392
O O12 0.439638 0.687935 0.679536
O O13 0.421580 0.674458 0.092670
O O14 0.417224 0.741181 0.207306
O O15 0.408036 0.000000 0.127261
O O16 0.500000 0.500000 0.906207
O O17 0.554676 0.500000 0.000000
O O18 0.500000 0.784330 0.238274
O O19 0.562895 0.000000 0.280098
#
# Coordination Sequence:
#
# PCOD8291797 Si02
#       7
#    16  16  16  16  16   8  16
#     4   9  17  30  51  79 108 143 183 224 280 338
#     4   9  18  32  52  83 112 137 175 227 287 346
#     4   9  17  29  45  66  95 133 177 219 258 310
#     4   9  17  27  42  68  99 132 173 220 267 312
#     4  10  21  37  59  86 116 148 187 235 289 346
#     4  11  26  44  62  86 114 152 199 241 290 354
#     4   9  17  29  47  73 103 133 164 206 265 320
#
# _framework density 20.750934000000001
#
# number of rings (size 3 to 8) (size 9 to 14) (size 15 to 20)
#    0.000    2.692    0.000    1.385    2.154    1.538 
#    0.000    3.077    0.000    4.615    0.000    2.154 
#    0.000    0.000    0.000    0.000    0.000    0.000 
#
# Total GULP energy -644362.203922 kJ/mol
# GULP energy per Si atom -12391.580845 kJ/mol
# Density = 2.070370 g / cm^3
# Si number density = 20.750934 Si / 1000 Ang^3
#
#
#
# Elastic Constant Matrix: (Units=GPa)
#
#
# Indices 1 2 3 4 5 6 
#
# 1 133.8233 25.5144 73.3709 0.0000 0.0000 0.0000
# 2 25.5144 44.0029 19.3369 0.0000 0.0000 0.0000
# 3 73.3709 19.3369 108.8990 0.0000 0.0000 0.0000
# 4 0.0000 0.0000 0.0000 15.0958 0.0000 0.0000
# 5 0.0000 0.0000 0.0000 0.0000 28.5877 0.0000
# 6 0.0000 0.0000 0.0000 0.0000 0.0000 14.1201
#
#
#
# Elastic Compliance Matrix: (Units=1/GPa)
#
#
# Indices 1 2 3 4 5 6 
#
# 1 0.012415 -0.003821 -0.007686 0.000000 0.000000 0.000000
# 2 -0.003821 0.025825 -0.002011 0.000000 0.000000 0.000000
# 3 -0.007686 -0.002011 0.014719 0.000000 0.000000 0.000000
# 4 0.000000 0.000000 0.000000 0.066243 0.000000 0.000000
# 5 0.000000 0.000000 0.000000 0.000000 0.034980 0.000000
# 6 0.000000 0.000000 0.000000 0.000000 0.000000 0.070821
#
#
# Mechanical properties :
#
#
# Convention : Reuss Voigt Hill
#
# Bulk Modulus (GPa) = 38.57760 58.12997 48.35378
# Shear Modulus (GPa) = 19.18053 22.79427 20.98740
#
# Velocity S-wave (km/s) = 3.04356 3.31791 3.18369
# Velocity P-wave (km/s) = 5.56616 6.53851 6.07183
#
# Compressibility (1/GPa) = 0.02592178
#
# Stress axis : x y z
#
# Youngs Moduli (GPa) = 80.54661 38.72191 67.94128
#
# Poissons Ratio (x) = 0.14796 0.52221
# Poissons Ratio (y) = 0.30777 0.13665
# Poissons Ratio (z) = 0.61910 0.07788
#
# Static dielectric constant tensor:
#      x y z
#    x 4.247960 0.000000 0.000000 
#    y 0.000000 3.432050 0.000000 
#    z 0.000000 0.000000 3.559170 
# 
# 
# High freq. dielectric constant tensor:
#      x y z
#    x 1.824580 0.000000 0.000000 
#    y 0.000000 1.784080 0.000000 
#    z 0.000000 0.000000 1.783210 
# 
# From -- ./inp_files/62311.got.cif
#   From: 2010.06.25/outbox.cif.g09.slc.cpg/sg71_32_cif.got.tgz:62311.got - 2010.06.28 04:59:45.
