data_PCOD8291080
_publ_section_title
;
Structure prediction by ZEFSAII (Michael W. Deem and Ramdas Pophale) SiO2 
 PCOD8291080
Probable space group: I M M M
;
_chemical_formula_sum "Si O2"
_cell_formula_units_Z 104
_cell_length_a 20.239298
_cell_length_b 32.132644
_cell_length_c 8.324169
_cell_angle_alpha 90.000000
_cell_angle_beta 90.000000
_cell_angle_gamma 90.000000
_cell_volume 5413.558026
_symmetry_space_group_name_H-M "I M M M"
_symmetry_group_IT_number 71
_symmetry_cell_setting 'orthorhombic'
loop_
_space_group_symop_operation_xyz
x,y,z
-x,-y,z
x,-y,-z
-x,y,-z
-x,-y,-z
x,y,-z
-x,y,z
x,-y,z
1/2+x,1/2+y,1/2+z
1/2-x,1/2-y,1/2+z
1/2+x,1/2-y,1/2-z
1/2-x,1/2+y,1/2-z
1/2-x,1/2-y,1/2-z
1/2+x,1/2+y,1/2-z
1/2-x,1/2+y,1/2+z
1/2+x,1/2-y,1/2+z
loop_
_atom_site_type_symbol
_atom_site_label
_atom_site_fract_x
_atom_site_fract_y
_atom_site_fract_z
Si Si1 0.930480 0.047421 0.000000
Si Si2 0.791083 0.453741 0.818505
Si Si3 0.142486 0.070159 0.676828
Si Si4 0.575603 0.280179 0.814888
Si Si5 0.926177 0.307798 0.817603
Si Si6 0.172705 0.153694 0.815872
Si Si7 0.179308 0.366159 0.681953
O O1 0.895795 0.055549 0.168038
O O2 0.000000 0.072623 0.000000
O O3 0.947040 0.000000 0.000000
O O4 0.812398 0.500000 0.754094
O O5 0.712355 0.452329 0.814918
O O6 0.818994 0.415883 0.712833
O O7 0.816967 0.447944 0.000000
O O8 0.110167 0.060313 0.500000
O O9 0.147088 0.119875 0.689859
O O10 0.500000 0.289981 0.756531
O O11 0.591108 0.231426 0.794270
O O12 0.631061 0.304521 0.713117
O O13 0.583563 0.292199 0.000000
O O14 0.875904 0.345554 0.792526
O O15 0.000000 0.324162 0.778971
O O16 0.921041 0.292227 0.000000
O O17 0.251372 0.157704 0.784786
O O18 0.161450 0.138695 0.000000
O O19 0.157348 0.359693 0.500000
#
# Coordination Sequence:
#
# PCOD8291080 Si02
#       7
#     8  16  16  16  16  16  16
#     4  11  24  38  52  74 104 142 189 237 285 343
#     4   9  18  33  56  84 110 140 180 227 279 334
#     4  10  20  37  57  78 107 145 186 234 290 346
#     4  10  21  36  55  80 109 146 192 237 281 334
#     4  10  21  38  59  81 108 146 187 226 275 337
#     4  10  20  36  56  82 114 146 185 234 285 337
#     4  10  21  35  55  84 114 146 182 226 281 335
#
# _framework density 19.211024999999999
#
# number of rings (size 3 to 8) (size 9 to 14) (size 15 to 20)
#    0.000    2.077    0.769    2.308    1.077    6.462 
#    0.000    0.769    0.000    0.462    0.000    3.231 
#    0.000    0.000    0.000    0.000    0.000    0.000 
#
# Total GULP energy -644385.465470 kJ/mol
# GULP energy per Si atom -12392.028182 kJ/mol
# Density = 1.916730 g / cm^3
# Si number density = 19.211025 Si / 1000 Ang^3
#
#
#
# Elastic Constant Matrix: (Units=GPa)
#
#
# Indices 1 2 3 4 5 6 
#
# 1 79.8912 52.4800 37.8444 0.0000 0.0005 -0.0001
# 2 52.4800 95.0790 24.1472 0.0003 0.0002 0.0000
# 3 37.8444 24.1472 102.4706 -0.0007 -0.0049 0.0003
# 4 0.0000 0.0003 -0.0007 24.3312 -0.0008 0.0004
# 5 0.0005 0.0002 -0.0049 -0.0008 23.2298 0.0001
# 6 -0.0001 0.0000 0.0003 0.0004 0.0001 16.4099
#
#
#
# Elastic Compliance Matrix: (Units=1/GPa)
#
#
# Indices 1 2 3 4 5 6 
#
# 1 0.022379 -0.010906 -0.005695 0.000000 -0.000002 0.000000
# 2 -0.010906 0.016502 0.000139 0.000000 0.000000 0.000000
# 3 -0.005695 0.000139 0.011829 0.000000 0.000003 0.000000
# 4 0.000000 0.000000 0.000000 0.041100 0.000001 -0.000001
# 5 -0.000002 0.000000 0.000003 0.000001 0.043048 0.000000
# 6 0.000000 0.000000 0.000000 -0.000001 0.000000 0.060939
#
#
# Mechanical properties :
#
#
# Convention : Reuss Voigt Hill
#
# Bulk Modulus (GPa) = 56.22230 56.26487 56.24358
# Shear Modulus (GPa) = 21.30844 23.65878 22.48361
#
# Velocity S-wave (km/s) = 3.33405 3.51311 3.42475
# Velocity P-wave (km/s) = 6.64457 6.76811 6.70662
#
# Compressibility (1/GPa) = 0.01778654
#
# Stress axis : x y z
#
# Youngs Moduli (GPa) = 44.68540 60.59925 84.53533
#
# Poissons Ratio (x) = 0.66089 0.48142
# Poissons Ratio (y) = 0.48733 -0.01176
# Poissons Ratio (z) = 0.25448 -0.00843
#
# Static dielectric constant tensor:
#      x y z
#    x 1.926660 0.000010 0.000020 
#    y 0.000010 3.402770 0.000000 
#    z 0.000020 0.000000 3.573190 
# 
# 
# High freq. dielectric constant tensor:
#      x y z
#    x 1.721250 0.000000 0.000000 
#    y 0.000000 1.742390 0.000000 
#    z 0.000000 0.000000 1.760390 
# 
# From -- ./inp_files/11460.got.cif
#   From: 2010.06.25/outbox.cif.g09.slc.cpg/sg71_6_cif.got.tgz:11460.got - 2010.06.28 04:59:45.
