data_PCOD8291102
_publ_section_title
;
Structure prediction by ZEFSAII (Michael W. Deem and Ramdas Pophale) SiO2 
 PCOD8291102
Probable space group: I M M M
;
_chemical_formula_sum "Si O2"
_cell_formula_units_Z 64
_cell_length_a 24.095440
_cell_length_b 8.709335
_cell_length_c 15.654327
_cell_angle_alpha 90.000000
_cell_angle_beta 90.000000
_cell_angle_gamma 90.000000
_cell_volume 3285.142846
_symmetry_space_group_name_H-M "I M M M"
_symmetry_group_IT_number 71
_symmetry_cell_setting 'orthorhombic'
loop_
_space_group_symop_operation_xyz
x,y,z
-x,-y,z
x,-y,-z
-x,y,-z
-x,-y,-z
x,y,-z
-x,y,z
x,-y,z
1/2+x,1/2+y,1/2+z
1/2-x,1/2-y,1/2+z
1/2+x,1/2-y,1/2-z
1/2-x,1/2+y,1/2-z
1/2-x,1/2-y,1/2-z
1/2+x,1/2+y,1/2-z
1/2-x,1/2+y,1/2+z
1/2+x,1/2-y,1/2+z
loop_
_atom_site_type_symbol
_atom_site_label
_atom_site_fract_x
_atom_site_fract_y
_atom_site_fract_z
Si Si1 0.000000 0.682581 0.325108
Si Si2 0.288171 0.817229 0.500000
Si Si3 0.223015 0.181716 0.665955
Si Si4 0.000000 0.317276 0.865650
Si Si5 0.587793 0.817334 0.500000
Si Si6 0.884913 0.318494 0.402332
O O1 0.000000 0.751933 0.229387
O O2 0.945586 0.741023 0.374594
O O3 0.000000 0.500000 0.322115
O O4 0.256879 0.756092 0.416001
O O5 0.350388 0.748022 0.500000
O O6 0.289386 0.000000 0.500000
O O7 0.250000 0.250000 0.750000
O O8 0.159764 0.237415 0.658315
O O9 0.224879 0.000000 0.671479
O O10 0.000000 0.500000 0.862463
O O11 0.055021 0.260270 0.915627
O O12 0.590520 0.000000 0.500000
O O13 0.874827 0.269095 0.500000
O O14 0.879874 0.500000 0.390223
#
# Coordination Sequence:
#
# PCOD8291102 Si02
#       6
#     8   8  16   8   8  16
#     4   9  18  30  51  81 110 145 188 233 283 336
#     4   9  19  34  54  78 111 146 184 231 285 341
#     4  11  23  39  58  84 115 152 194 239 288 347
#     4   8  14  24  42  71 104 133 169 217 270 325
#     4   8  14  25  42  69 103 135 167 215 274 327
#     4  10  20  36  57  82 114 149 188 238 290 342
#
# _framework density 19.481648
#
# number of rings (size 3 to 8) (size 9 to 14) (size 15 to 20)
#    0.000    2.500    1.250    1.875    3.500    1.500 
#    0.000    0.625    0.000    1.500    0.000    0.000 
#    0.000    2.000    0.000    0.000    0.000    0.000 
#
# Total GULP energy -396788.150115 kJ/mol
# GULP energy per Si atom -12399.629691 kJ/mol
# Density = 1.943731 g / cm^3
# Si number density = 19.481648 Si / 1000 Ang^3
#
#
#
# Elastic Constant Matrix: (Units=GPa)
#
#
# Indices 1 2 3 4 5 6 
#
# 1 182.7545 30.6863 77.2005 0.0000 0.0000 0.0000
# 2 30.6863 31.0333 33.1432 0.0000 0.0000 0.0000
# 3 77.2005 33.1432 154.5134 0.0000 0.0000 0.0000
# 4 0.0000 0.0000 0.0000 19.2950 0.0000 0.0000
# 5 0.0000 0.0000 0.0000 0.0000 33.1761 0.0000
# 6 0.0000 0.0000 0.0000 0.0000 0.0000 21.3842
#
#
#
# Elastic Compliance Matrix: (Units=1/GPa)
#
#
# Indices 1 2 3 4 5 6 
#
# 1 0.007362 -0.004347 -0.002746 0.000000 0.000000 0.000000
# 2 -0.004347 0.044366 -0.007345 0.000000 0.000000 0.000000
# 3 -0.002746 -0.007345 0.009419 0.000000 0.000000 0.000000
# 4 0.000000 0.000000 0.000000 0.051827 0.000000 0.000000
# 5 0.000000 0.000000 0.000000 0.000000 0.030142 0.000000
# 6 0.000000 0.000000 0.000000 0.000000 0.000000 0.046763
#
#
# Mechanical properties :
#
#
# Convention : Reuss Voigt Hill
#
# Bulk Modulus (GPa) = 30.98651 72.26235 51.62443
# Shear Modulus (GPa) = 21.78546 29.92247 25.85397
#
# Velocity S-wave (km/s) = 3.34766 3.92335 3.64688
# Velocity P-wave (km/s) = 5.55720 7.59583 6.65504
#
# Compressibility (1/GPa) = 0.03227211
#
# Stress axis : x y z
#
# Youngs Moduli (GPa) = 135.84080 22.53992 106.16603
#
# Poissons Ratio (x) = 0.09798 0.29150
# Poissons Ratio (y) = 0.59048 0.77975
# Poissons Ratio (z) = 0.37298 0.16555
#
# Static dielectric constant tensor:
#      x y z
#    x 3.843750 0.000000 0.000000 
#    y 0.000000 2.972000 0.000000 
#    z 0.000000 0.000000 3.779560 
# 
# 
# High freq. dielectric constant tensor:
#      x y z
#    x 1.775370 0.000000 0.000000 
#    y 0.000000 1.700880 0.000000 
#    z 0.000000 0.000000 1.769540 
# 
# From -- ./inp_files/5950.got.cif
#   From: 2010.06.25/outbox.cif.g09.slc.cpg/sg71_3_cif.got.tgz:5950.got - 2010.06.28 04:59:45.
