data_PCOD8291252
_publ_section_title
;
Structure prediction by ZEFSAII (Michael W. Deem and Ramdas Pophale) SiO2 
 PCOD8291252
Probable space group: I M M M
;
_chemical_formula_sum "Si O2"
_cell_formula_units_Z 104
_cell_length_a 13.902395
_cell_length_b 17.849900
_cell_length_c 22.016392
_cell_angle_alpha 90.000000
_cell_angle_beta 90.000000
_cell_angle_gamma 90.000000
_cell_volume 5463.507710
_symmetry_space_group_name_H-M "I M M M"
_symmetry_group_IT_number 71
_symmetry_cell_setting 'orthorhombic'
loop_
_space_group_symop_operation_xyz
x,y,z
-x,-y,z
x,-y,-z
-x,y,-z
-x,-y,-z
x,y,-z
-x,y,z
x,-y,z
1/2+x,1/2+y,1/2+z
1/2-x,1/2-y,1/2+z
1/2+x,1/2-y,1/2-z
1/2-x,1/2+y,1/2-z
1/2-x,1/2-y,1/2-z
1/2+x,1/2+y,1/2-z
1/2-x,1/2+y,1/2+z
1/2+x,1/2-y,1/2+z
loop_
_atom_site_type_symbol
_atom_site_label
_atom_site_fract_x
_atom_site_fract_y
_atom_site_fract_z
Si Si1 0.888903 0.653524 0.070882
Si Si2 0.109861 0.808425 0.139175
Si Si3 0.605625 0.910629 0.000000
Si Si4 0.274898 0.912781 0.672458
Si Si5 0.610769 0.862294 0.215683
Si Si6 0.730293 0.084476 0.891047
Si Si7 0.610924 0.308508 0.779581
O O1 0.871096 0.731703 0.104475
O O2 0.816708 0.595346 0.103975
O O3 0.000000 0.627935 0.077672
O O4 0.860802 0.659317 0.000000
O O5 0.170244 0.871937 0.106167
O O6 0.142936 0.804926 0.209227
O O7 0.000000 0.832824 0.134469
O O8 0.659394 0.880153 0.059228
O O9 0.500000 0.874708 0.000000
O O10 0.599194 0.000000 0.000000
O O11 0.357658 0.878828 0.715582
O O12 0.176144 0.866424 0.682637
O O13 0.253686 0.000000 0.685596
O O14 0.500000 0.886123 0.209365
O O15 0.676888 0.913178 0.173318
O O16 0.625027 0.775791 0.196024
O O17 0.756908 0.000000 0.907370
O O18 0.500000 0.334051 0.786223
#
# Coordination Sequence:
#
# PCOD8291252 Si02
#       7
#    16  16   8  16  16  16  16
#     4  10  22  40  61  85 114 154 201 245 293 348
#     4  10  20  37  59  82 112 152 196 238 283 339
#     4   9  20  38  53  69 105 151 185 220 278 344
#     4  12  23  36  58  89 121 151 188 238 297 353
#     4  11  21  35  57  83 111 147 191 237 285 342
#     4  11  22  35  53  81 115 151 188 234 288 345
#     4  10  21  39  61  83 115 153 188 232 286 344
#
# _framework density 19.035388999999999
#
# number of rings (size 3 to 8) (size 9 to 14) (size 15 to 20)
#    0.000    1.462    3.077    2.769    1.077    3.692 
#    0.000    2.308    0.000    1.846    0.000    1.077 
#    0.000    0.000    0.000    0.000    0.000    0.000 
#
# Total GULP energy -644881.361325 kJ/mol
# GULP energy per Si atom -12401.564641 kJ/mol
# Density = 1.899206 g / cm^3
# Si number density = 19.035389 Si / 1000 Ang^3
#
#
#
# Elastic Constant Matrix: (Units=GPa)
#
#
# Indices 1 2 3 4 5 6 
#
# 1 77.0635 35.0402 32.7115 0.0000 0.0000 0.0000
# 2 35.0402 78.7831 19.2519 0.0000 0.0000 0.0000
# 3 32.7115 19.2519 100.8952 0.0000 0.0000 0.0000
# 4 0.0000 0.0000 0.0000 15.2576 0.0000 0.0000
# 5 0.0000 0.0000 0.0000 0.0000 33.3300 0.0000
# 6 0.0000 0.0000 0.0000 0.0000 0.0000 26.9636
#
#
#
# Elastic Compliance Matrix: (Units=1/GPa)
#
#
# Indices 1 2 3 4 5 6 
#
# 1 0.018045 -0.006919 -0.004530 0.000000 0.000000 0.000000
# 2 -0.006919 0.015967 -0.000803 0.000000 0.000000 0.000000
# 3 -0.004530 -0.000803 0.011533 0.000000 0.000000 0.000000
# 4 0.000000 0.000000 0.000000 0.065541 0.000000 0.000000
# 5 0.000000 0.000000 0.000000 0.000000 0.030003 0.000000
# 6 0.000000 0.000000 0.000000 0.000000 0.000000 0.037087
#
#
# Mechanical properties :
#
#
# Convention : Reuss Voigt Hill
#
# Bulk Modulus (GPa) = 47.52834 47.86100 47.69467
# Shear Modulus (GPa) = 23.84417 26.42614 25.13515
#
# Velocity S-wave (km/s) = 3.54308 3.72998 3.63773
# Velocity P-wave (km/s) = 6.46224 6.61424 6.53868
#
# Compressibility (1/GPa) = 0.02104008
#
# Stress axis : x y z
#
# Youngs Moduli (GPa) = 55.41614 62.63026 86.70503
#
# Poissons Ratio (x) = 0.43333 0.39280
# Poissons Ratio (y) = 0.38342 0.06966
# Poissons Ratio (z) = 0.25105 0.05032
#
# Static dielectric constant tensor:
#      x y z
#    x 3.543050 0.000000 0.000000 
#    y 0.000000 3.286230 0.000000 
#    z 0.000000 0.000000 3.488190 
# 
# 
# High freq. dielectric constant tensor:
#      x y z
#    x 1.746310 0.000000 0.000000 
#    y 0.000000 1.725080 0.000000 
#    z 0.000000 0.000000 1.733150 
# 
# From -- ./inp_files/47313.got.cif
#   From: 2010.06.25/outbox.cif.g09.slc.cpg/sg71_24_cif.got.tgz:47313.got - 2010.06.28 04:59:45.
