data_PCOD8291449
_publ_section_title
;
Structure prediction by ZEFSAII (Michael W. Deem and Ramdas Pophale) SiO2 
 PCOD8291449
Probable space group: I M M M
;
_chemical_formula_sum "Si O2"
_cell_formula_units_Z 104
_cell_length_a 8.733760
_cell_length_b 22.906954
_cell_length_c 27.990307
_cell_angle_alpha 90.000000
_cell_angle_beta 90.000000
_cell_angle_gamma 90.000000
_cell_volume 5599.848261
_symmetry_space_group_name_H-M "I M M M"
_symmetry_group_IT_number 71
_symmetry_cell_setting 'orthorhombic'
loop_
_space_group_symop_operation_xyz
x,y,z
-x,-y,z
x,-y,-z
-x,y,-z
-x,-y,-z
x,y,-z
-x,y,z
x,-y,z
1/2+x,1/2+y,1/2+z
1/2-x,1/2-y,1/2+z
1/2+x,1/2-y,1/2-z
1/2-x,1/2+y,1/2-z
1/2-x,1/2-y,1/2-z
1/2+x,1/2+y,1/2-z
1/2-x,1/2+y,1/2+z
1/2+x,1/2-y,1/2+z
loop_
_atom_site_type_symbol
_atom_site_label
_atom_site_fract_x
_atom_site_fract_y
_atom_site_fract_z
Si Si1 0.823052 0.140578 0.681436
Si Si2 0.178953 0.756630 0.197543
Si Si3 0.176372 0.568736 0.897728
Si Si4 0.677350 0.565934 0.272546
Si Si5 0.179695 0.367696 0.646154
Si Si6 0.818197 0.565806 0.553412
Si Si7 0.669313 0.069112 0.500000
O O1 0.719705 0.196950 0.670451
O O2 0.792082 0.094990 0.639995
O O3 0.775031 0.110978 0.731278
O O4 0.000000 0.158596 0.681988
O O5 0.250000 0.750000 0.250000
O O6 0.239152 0.809480 0.165147
O O7 0.000000 0.765529 0.203860
O O8 0.184151 0.500000 0.891951
O O9 0.244748 0.588832 0.949823
O O10 0.000000 0.589479 0.890767
O O11 0.500000 0.574150 0.286210
O O12 0.710206 0.500000 0.255289
O O13 0.781540 0.579268 0.318259
O O14 0.240302 0.387936 0.593517
O O15 0.000000 0.355797 0.645288
O O16 0.764673 0.585650 0.500000
O O17 0.756109 0.500000 0.563823
O O18 0.000000 0.563947 0.555622
O O19 0.500000 0.095725 0.500000
O O20 0.657254 0.000000 0.500000
#
# Coordination Sequence:
#
# PCOD8291449 Si02
#       7
#    16  16  16  16  16  16   8
#     4  11  22  36  54  77 107 144 182 224 273 323
#     4  12  24  40  59  79 104 141 185 227 272 323
#     4   9  17  31  53  80 109 142 179 220 268 324
#     4  10  21  35  51  75 111 149 179 216 269 322
#     4  11  21  34  57  85 111 145 187 228 271 326
#     4   8  15  30  54  86 121 151 181 223 275 328
#     4   7  12  26  49  75 103 137 175 213 258 313
#
# _framework density 18.571933000000001
#
# number of rings (size 3 to 8) (size 9 to 14) (size 15 to 20)
#    0.000    2.077    1.538    4.615    0.000    2.462 
#    0.000    0.385    1.692    3.231    0.000    5.385 
#    0.000    0.000    0.000    0.000    0.000    0.000 
#
# Total GULP energy -644419.245222 kJ/mol
# GULP energy per Si atom -12392.677793 kJ/mol
# Density = 1.852966 g / cm^3
# Si number density = 18.571933 Si / 1000 Ang^3
#
#
#
# Elastic Constant Matrix: (Units=GPa)
#
#
# Indices 1 2 3 4 5 6 
#
# 1 64.6804 39.0689 41.8397 0.0000 0.0000 0.0000
# 2 39.0689 93.7895 54.1196 0.0000 0.0000 0.0000
# 3 41.8397 54.1196 148.1149 0.0000 0.0000 0.0000
# 4 0.0000 0.0000 0.0000 17.9519 0.0000 0.0000
# 5 0.0000 0.0000 0.0000 0.0000 17.4237 0.0000
# 6 0.0000 0.0000 0.0000 0.0000 0.0000 28.2145
#
#
#
# Elastic Compliance Matrix: (Units=1/GPa)
#
#
# Indices 1 2 3 4 5 6 
#
# 1 0.022114 -0.007105 -0.003651 0.000000 0.000000 0.000000
# 2 -0.007105 0.015794 -0.003764 0.000000 0.000000 0.000000
# 3 -0.003651 -0.003764 0.009158 0.000000 0.000000 0.000000
# 4 0.000000 0.000000 0.000000 0.055705 0.000000 0.000000
# 5 0.000000 0.000000 0.000000 0.000000 0.057393 0.000000
# 6 0.000000 0.000000 0.000000 0.000000 0.000000 0.035443
#
#
# Mechanical properties :
#
#
# Convention : Reuss Voigt Hill
#
# Bulk Modulus (GPa) = 55.47415 64.07124 59.77270
# Shear Modulus (GPa) = 21.67750 24.15512 22.91631
#
# Velocity S-wave (km/s) = 3.42016 3.61033 3.51653
# Velocity P-wave (km/s) = 6.74770 7.20786 6.98157
#
# Compressibility (1/GPa) = 0.01802641
#
# Stress axis : x y z
#
# Youngs Moduli (GPa) = 45.22054 63.31621 109.19446
#
# Poissons Ratio (x) = 0.44988 0.39862
# Poissons Ratio (y) = 0.32130 0.41098
# Poissons Ratio (z) = 0.16508 0.23831
#
# Static dielectric constant tensor:
#      x y z
#    x 3.210840 0.000000 0.000000 
#    y 0.000000 3.470670 0.000000 
#    z 0.000000 0.000000 3.778440 
# 
# 
# High freq. dielectric constant tensor:
#      x y z
#    x 1.699050 0.000000 0.000000 
#    y 0.000000 1.710470 0.000000 
#    z 0.000000 0.000000 1.727000 
# 
# From -- ./inp_files/63562.got.cif
#   From: 2010.06.25/outbox.cif.g09.slc.cpg/sg71_32_cif.got.tgz:63562.got - 2010.06.28 04:59:45.
