data_PCOD8291017
_publ_section_title
;
Structure prediction by ZEFSAII (Michael W. Deem and Ramdas Pophale) SiO2 
 PCOD8291017
Probable space group: I M M M
;
_chemical_formula_sum "Si O2"
_cell_formula_units_Z 88
_cell_length_a 27.346850
_cell_length_b 8.540978
_cell_length_c 19.279287
_cell_angle_alpha 90.000000
_cell_angle_beta 90.000000
_cell_angle_gamma 90.000000
_cell_volume 4503.040782
_symmetry_space_group_name_H-M "I M M M"
_symmetry_group_IT_number 71
_symmetry_cell_setting 'orthorhombic'
loop_
_space_group_symop_operation_xyz
x,y,z
-x,-y,z
x,-y,-z
-x,y,-z
-x,-y,-z
x,y,-z
-x,y,z
x,-y,z
1/2+x,1/2+y,1/2+z
1/2-x,1/2-y,1/2+z
1/2+x,1/2-y,1/2-z
1/2-x,1/2+y,1/2-z
1/2-x,1/2-y,1/2-z
1/2+x,1/2+y,1/2-z
1/2-x,1/2+y,1/2+z
1/2+x,1/2-y,1/2+z
loop_
_atom_site_type_symbol
_atom_site_label
_atom_site_fract_x
_atom_site_fract_y
_atom_site_fract_z
Si Si1 0.684535 0.319025 0.806586
Si Si2 0.256545 0.316328 0.421193
Si Si3 0.947080 0.676427 0.822672
Si Si4 0.500000 0.813174 0.924183
Si Si5 0.160168 0.314664 0.160948
Si Si6 0.415397 0.177373 0.830591
O O1 0.699210 0.500000 0.803279
O O2 0.717615 0.236859 0.864339
O O3 0.689142 0.246982 0.729263
O O4 0.629190 0.296917 0.830576
O O5 0.240611 0.270452 0.500000
O O6 0.264236 0.500000 0.414777
O O7 0.308658 0.233700 0.405901
O O8 0.948500 0.500000 0.851392
O O9 0.895556 0.755341 0.848143
O O10 0.945770 0.677521 0.739975
O O11 0.000000 0.756190 0.844950
O O12 0.549115 0.752903 0.888520
O O13 0.500000 0.000000 0.921779
O O14 0.500000 0.741518 0.000000
O O15 0.155759 0.500000 0.169881
O O16 0.396855 0.000000 0.846478
#
# Coordination Sequence:
#
# PCOD8291017 Si02
#       6
#    16  16  16   8  16  16
#     4  11  22  36  56  81 111 144 182 228 275 327
#     4  11  24  41  59  78 106 144 185 229 278 334
#     4   8  13  25  49  78 105 135 171 215 261 305
#     4   9  16  26  45  71  99 137 182 225 266 315
#     4  10  20  35  59  87 114 143 180 227 273 323
#     4   9  16  29  49  73 103 138 180 226 266 311
#
# _framework density 19.542349999999999
#
# number of rings (size 3 to 8) (size 9 to 14) (size 15 to 20)
#    0.000    2.273    0.909    4.364    0.000    2.182 
#    0.000    2.273    0.000    2.727    0.000    3.818 
#    0.000    0.000    0.000    0.000    0.000    0.000 
#
# Total GULP energy -545110.852274 kJ/mol
# GULP energy per Si atom -12388.883006 kJ/mol
# Density = 1.949787 g / cm^3
# Si number density = 19.542350 Si / 1000 Ang^3
#
#
#
# Elastic Constant Matrix: (Units=GPa)
#
#
# Indices 1 2 3 4 5 6 
#
# 1 93.6466 8.3411 32.2624 0.0000 0.0000 0.0000
# 2 8.3411 40.5440 18.2600 0.0000 0.0000 0.0000
# 3 32.2624 18.2600 59.8616 0.0000 0.0000 0.0000
# 4 0.0000 0.0000 0.0000 21.4961 0.0000 0.0000
# 5 0.0000 0.0000 0.0000 0.0000 22.6165 0.0000
# 6 0.0000 0.0000 0.0000 0.0000 0.0000 21.1936
#
#
#
# Elastic Compliance Matrix: (Units=1/GPa)
#
#
# Indices 1 2 3 4 5 6 
#
# 1 0.013124 0.000563 -0.007245 0.000000 0.000000 0.000000
# 2 0.000563 0.028617 -0.009033 0.000000 0.000000 0.000000
# 3 -0.007245 -0.009033 0.023365 0.000000 0.000000 0.000000
# 4 0.000000 0.000000 0.000000 0.046520 0.000000 0.000000
# 5 0.000000 0.000000 0.000000 0.000000 0.044216 0.000000
# 6 0.000000 0.000000 0.000000 0.000000 0.000000 0.047184
#
#
# Mechanical properties :
#
#
# Convention : Reuss Voigt Hill
#
# Bulk Modulus (GPa) = 29.69395 34.64212 32.16804
# Shear Modulus (GPa) = 20.35160 22.07382 21.21271
#
# Velocity S-wave (km/s) = 3.23059 3.36451 3.29823
# Velocity P-wave (km/s) = 5.39845 5.73222 5.56784
#
# Compressibility (1/GPa) = 0.03367690
#
# Stress axis : x y z
#
# Youngs Moduli (GPa) = 76.19447 34.94455 42.79875
#
# Poissons Ratio (x) = -0.01967 0.31008
# Poissons Ratio (y) = -0.04289 0.38658
# Poissons Ratio (z) = 0.55203 0.31564
#
# Static dielectric constant tensor:
#      x y z
#    x 3.913140 0.000000 0.000000 
#    y 0.000000 3.251370 0.000000 
#    z 0.000000 0.000000 3.451030 
# 
# 
# High freq. dielectric constant tensor:
#      x y z
#    x 1.782520 0.000000 0.000000 
#    y 0.000000 1.727620 0.000000 
#    z 0.000000 0.000000 1.731950 
# 
# From -- ./inp_files/56145.got.cif
#   From: 2010.06.25/outbox.cif.g09.slc.cpg/sg71_29_cif.got.tgz:56145.got - 2010.06.28 04:59:45.
