data_PCOD8291295
_publ_section_title
;
Structure prediction by ZEFSAII (Michael W. Deem and Ramdas Pophale) SiO2 
 PCOD8291295
Probable space group: I M M M
;
_chemical_formula_sum "Si O2"
_cell_formula_units_Z 72
_cell_length_a 7.578925
_cell_length_b 18.821369
_cell_length_c 25.768201
_cell_angle_alpha 90.000000
_cell_angle_beta 90.000000
_cell_angle_gamma 90.000000
_cell_volume 3675.724204
_symmetry_space_group_name_H-M "I M M M"
_symmetry_group_IT_number 71
_symmetry_cell_setting 'orthorhombic'
loop_
_space_group_symop_operation_xyz
x,y,z
-x,-y,z
x,-y,-z
-x,y,-z
-x,-y,-z
x,y,-z
-x,y,z
x,-y,z
1/2+x,1/2+y,1/2+z
1/2-x,1/2-y,1/2+z
1/2+x,1/2-y,1/2-z
1/2-x,1/2+y,1/2-z
1/2-x,1/2-y,1/2-z
1/2+x,1/2+y,1/2-z
1/2-x,1/2+y,1/2+z
1/2+x,1/2-y,1/2+z
loop_
_atom_site_type_symbol
_atom_site_label
_atom_site_fract_x
_atom_site_fract_y
_atom_site_fract_z
Si Si1 0.707113 0.696813 0.058478
Si Si2 0.792018 0.654010 0.603648
Si Si3 0.500000 0.585578 0.327313
Si Si4 0.696601 0.080866 0.635039
Si Si5 0.500000 0.416083 0.790420
Si Si6 0.291026 0.078268 0.000000
O O1 0.500000 0.686011 0.055431
O O2 0.751777 0.762946 0.096168
O O3 0.793631 0.626739 0.082646
O O4 0.780939 0.708679 0.000000
O O5 0.678008 0.619197 0.649236
O O6 0.725285 0.617751 0.550948
O O7 0.000000 0.640889 0.614839
O O8 0.500000 0.500000 0.333487
O O9 0.500000 0.612317 0.267982
O O10 0.500000 0.084634 0.658258
O O11 0.827559 0.111661 0.678929
O O12 0.747545 0.000000 0.620240
O O13 0.500000 0.500000 0.788056
O O14 0.500000 0.076532 0.000000
O O15 0.208474 0.000000 0.000000
#
# Coordination Sequence:
#
# PCOD8291295 Si02
#       6
#    16  16   8  16   8   8
#     4  10  20  37  62  88 122 163 193 235 297 357
#     4  10  21  38  57  84 122 159 194 240 296 352
#     4  11  24  39  62  90 115 153 206 254 295 345
#     4  10  21  38  63  89 116 155 198 241 298 359
#     4   9  20  42  62  84 118 151 197 256 300 342
#     4   9  16  31  55  79 111 153 192 233 284 344
#
# _framework density 19.587976000000001
#
# number of rings (size 3 to 8) (size 9 to 14) (size 15 to 20)
#    0.000    2.111    2.222    0.667    1.556    3.556 
#    0.000    6.667    0.000    0.000    0.000    0.000 
#    0.000    0.000    0.000    0.000    0.000    0.000 
#
# Total GULP energy -446332.723845 kJ/mol
# GULP energy per Si atom -12398.131218 kJ/mol
# Density = 1.954339 g / cm^3
# Si number density = 19.587976 Si / 1000 Ang^3
#
#
#
# Elastic Constant Matrix: (Units=GPa)
#
#
# Indices 1 2 3 4 5 6 
#
# 1 103.2414 41.6542 58.4766 0.0000 0.0000 0.0000
# 2 41.6542 105.3967 49.4479 0.0000 0.0000 0.0000
# 3 58.4766 49.4479 119.2996 0.0000 0.0000 0.0000
# 4 0.0000 0.0000 0.0000 14.6738 0.0000 0.0000
# 5 0.0000 0.0000 0.0000 0.0000 9.3612 0.0000
# 6 0.0000 0.0000 0.0000 0.0000 0.0000 24.9089
#
#
#
# Elastic Compliance Matrix: (Units=1/GPa)
#
#
# Indices 1 2 3 4 5 6 
#
# 1 0.014083 -0.002889 -0.005706 0.000000 0.000000 0.000000
# 2 -0.002889 0.012371 -0.003711 0.000000 0.000000 0.000000
# 3 -0.005706 -0.003711 0.012717 0.000000 0.000000 0.000000
# 4 0.000000 0.000000 0.000000 0.068149 0.000000 0.000000
# 5 0.000000 0.000000 0.000000 0.000000 0.106824 0.000000
# 6 0.000000 0.000000 0.000000 0.000000 0.000000 0.040146
#
#
# Mechanical properties :
#
#
# Convention : Reuss Voigt Hill
#
# Bulk Modulus (GPa) = 68.68480 69.67722 69.18101
# Shear Modulus (GPa) = 17.62075 21.67939 19.65007
#
# Velocity S-wave (km/s) = 3.00254 3.33043 3.17072
# Velocity P-wave (km/s) = 6.86740 7.10194 6.98566
#
# Compressibility (1/GPa) = 0.01455926
#
# Stress axis : x y z
#
# Youngs Moduli (GPa) = 71.00540 80.83394 78.63253
#
# Poissons Ratio (x) = 0.23353 0.44866
# Poissons Ratio (y) = 0.20514 0.29184
# Poissons Ratio (z) = 0.40514 0.30001
#
# Static dielectric constant tensor:
#      x y z
#    x 3.542510 0.000000 0.000000 
#    y 0.000000 3.653010 0.000000 
#    z 0.000000 0.000000 3.645720 
# 
# 
# High freq. dielectric constant tensor:
#      x y z
#    x 1.766660 0.000000 0.000000 
#    y 0.000000 1.761640 0.000000 
#    z 0.000000 0.000000 1.746500 
# 
# From -- ./inp_files/50243.got.cif
#   From: 2010.06.25/outbox.cif.g09.slc.cpg/sg71_26_cif.got.tgz:50243.got - 2010.06.28 04:59:45.
