data_PCOD8291074
_publ_section_title
;
Structure prediction by ZEFSAII (Michael W. Deem and Ramdas Pophale) SiO2 
 PCOD8291074
Probable space group: I M M M
;
_chemical_formula_sum "Si O2"
_cell_formula_units_Z 120
_cell_length_a 20.978745
_cell_length_b 21.047499
_cell_length_c 14.356284
_cell_angle_alpha 90.000000
_cell_angle_beta 90.000000
_cell_angle_gamma 90.000000
_cell_volume 6339.018843
_symmetry_space_group_name_H-M "I M M M"
_symmetry_group_IT_number 71
_symmetry_cell_setting 'orthorhombic'
loop_
_space_group_symop_operation_xyz
x,y,z
-x,-y,z
x,-y,-z
-x,y,-z
-x,-y,-z
x,y,-z
-x,y,z
x,-y,z
1/2+x,1/2+y,1/2+z
1/2-x,1/2-y,1/2+z
1/2+x,1/2-y,1/2-z
1/2-x,1/2+y,1/2-z
1/2-x,1/2-y,1/2-z
1/2+x,1/2+y,1/2-z
1/2-x,1/2+y,1/2+z
1/2+x,1/2-y,1/2+z
loop_
_atom_site_type_symbol
_atom_site_label
_atom_site_fract_x
_atom_site_fract_y
_atom_site_fract_z
Si Si1 0.141889 0.070186 0.721578
Si Si2 0.763728 0.652364 0.230246
Si Si3 0.926439 0.905683 0.899468
Si Si4 0.125880 0.637254 0.105005
Si Si5 0.696801 0.241612 0.892880
Si Si6 0.927422 0.191245 0.654329
Si Si7 0.000000 0.429445 0.110635
Si Si8 0.429119 0.732152 0.363638
O O1 0.209828 0.100279 0.746849
O O2 0.110296 0.056107 0.821263
O O3 0.098749 0.118257 0.659574
O O4 0.148178 0.000000 0.673286
O O5 0.819155 0.615601 0.174934
O O6 0.738239 0.705264 0.158789
O O7 0.791539 0.678997 0.328671
O O8 0.902851 0.832784 0.907552
O O9 0.000000 0.904763 0.869178
O O10 0.916666 0.938714 0.000000
O O11 0.119485 0.713551 0.105539
O O12 0.061969 0.606893 0.147072
O O13 0.140621 0.613568 0.000000
O O14 0.622744 0.264814 0.901658
O O15 0.719799 0.229815 0.000000
O O16 0.929354 0.223911 0.753781
O O17 0.000000 0.190816 0.611730
O O18 0.000000 0.500000 0.152409
O O19 0.000000 0.430233 0.000000
O O20 0.500000 0.748882 0.400758
#
# Coordination Sequence:
#
# PCOD8291074 Si02
#       8
#    16  16  16  16  16  16   8  16
#     4  10  21  36  52  71 103 149 191 222 260 312
#     4  10  22  37  51  78 109 141 184 223 258 326
#     4   9  18  30  47  76 111 138 167 214 265 320
#     4  11  19  30  53  78 105 141 171 214 272 324
#     4  10  20  36  56  79 110 141 172 221 281 327
#     4   9  18  33  55  80 110 137 170 226 273 320
#     4   9  20  34  48  76 111 141 178 220 266 325
#     4   9  15  27  47  77 109 134 161 202 262 323
#
# _framework density 18.930375000000002
#
# number of rings (size 3 to 8) (size 9 to 14) (size 15 to 20)
#    0.000    2.333    2.000    2.000    1.867    3.200 
#    0.000    0.667    0.000    9.600    0.000    3.733 
#    0.000    0.533    0.000    0.000    0.000    0.000 
#
# Total GULP energy -743426.958651 kJ/mol
# GULP energy per Si atom -12390.449311 kJ/mol
# Density = 1.888729 g / cm^3
# Si number density = 18.930375 Si / 1000 Ang^3
#
#
#
# Elastic Constant Matrix: (Units=GPa)
#
#
# Indices 1 2 3 4 5 6 
#
# 1 108.1777 35.2686 26.6053 0.0000 0.0000 0.0000
# 2 35.2686 81.2157 12.1681 0.0000 0.0000 0.0000
# 3 26.6053 12.1681 86.1781 0.0000 0.0000 0.0000
# 4 0.0000 0.0000 0.0000 0.6408 0.0000 0.0000
# 5 0.0000 0.0000 0.0000 0.0000 22.0559 0.0000
# 6 0.0000 0.0000 0.0000 0.0000 0.0000 10.6287
#
#
#
# Elastic Compliance Matrix: (Units=1/GPa)
#
#
# Indices 1 2 3 4 5 6 
#
# 1 0.011432 -0.004532 -0.002890 0.000000 0.000000 0.000000
# 2 -0.004532 0.014375 -0.000631 0.000000 0.000000 0.000000
# 3 -0.002890 -0.000631 0.012585 0.000000 0.000000 0.000000
# 4 0.000000 0.000000 0.000000 1.560643 0.000000 0.000000
# 5 0.000000 0.000000 0.000000 0.000000 0.045339 0.000000
# 6 0.000000 0.000000 0.000000 0.000000 0.000000 0.094085
#
#
# Mechanical properties :
#
#
# Convention : Reuss Voigt Hill
#
# Bulk Modulus (GPa) = 44.86579 47.07284 45.96932
# Shear Modulus (GPa) = 2.83770 20.10037 11.46903
#
# Velocity S-wave (km/s) = 1.22567 3.26207 2.46408
# Velocity P-wave (km/s) = 5.07493 6.25367 5.69488
#
# Compressibility (1/GPa) = 0.02228870
#
# Stress axis : x y z
#
# Youngs Moduli (GPa) = 87.47303 69.56399 79.45962
#
# Poissons Ratio (x) = 0.31523 0.22960
# Poissons Ratio (y) = 0.39639 0.05012
# Poissons Ratio (z) = 0.25276 0.04388
#
# Static dielectric constant tensor:
#      x y z
#    x 3.721820 0.000000 0.000000 
#    y 0.000000 3.315940 0.000000 
#    z 0.000000 0.000000 3.362490 
# 
# 
# High freq. dielectric constant tensor:
#      x y z
#    x 1.739620 0.000000 0.000000 
#    y 0.000000 1.712760 0.000000 
#    z 0.000000 0.000000 1.710580 
# 
# From -- ./inp_files/38445.got.cif
#   From: 2010.06.25/outbox.cif.g09.slc.cpg/sg71_20_cif.got.tgz:38445.got - 2010.06.28 04:59:45.
