data_PCOD8291197
_publ_section_title
;
Structure prediction by ZEFSAII (Michael W. Deem and Ramdas Pophale) SiO2 
 PCOD8291197
Probable space group: I M M M
;
_chemical_formula_sum "Si O2"
_cell_formula_units_Z 72
_cell_length_a 17.686757
_cell_length_b 23.346079
_cell_length_c 8.895465
_cell_angle_alpha 90.000000
_cell_angle_beta 90.000000
_cell_angle_gamma 90.000000
_cell_volume 3673.083617
_symmetry_space_group_name_H-M "I M M M"
_symmetry_group_IT_number 71
_symmetry_cell_setting 'orthorhombic'
loop_
_space_group_symop_operation_xyz
x,y,z
-x,-y,z
x,-y,-z
-x,y,-z
-x,-y,-z
x,y,-z
-x,y,z
x,-y,z
1/2+x,1/2+y,1/2+z
1/2-x,1/2-y,1/2+z
1/2+x,1/2-y,1/2-z
1/2-x,1/2+y,1/2-z
1/2-x,1/2-y,1/2-z
1/2+x,1/2+y,1/2-z
1/2-x,1/2+y,1/2+z
1/2+x,1/2-y,1/2+z
loop_
_atom_site_type_symbol
_atom_site_label
_atom_site_fract_x
_atom_site_fract_y
_atom_site_fract_z
Si Si1 0.411879 0.737055 0.174360
Si Si2 0.500000 0.567728 0.169946
Si Si3 0.640539 0.626217 0.677197
Si Si4 0.585305 0.146282 0.672636
Si Si5 0.778783 0.433920 0.825958
O O1 0.500000 0.725268 0.208359
O O2 0.362309 0.691205 0.264378
O O3 0.388190 0.800139 0.227520
O O4 0.392816 0.731239 0.000000
O O5 0.500000 0.500000 0.169848
O O6 0.425651 0.588782 0.252272
O O7 0.500000 0.592142 0.000000
O O8 0.631385 0.625770 0.500000
O O9 0.719831 0.598896 0.722278
O O10 0.590405 0.165861 0.500000
O O11 0.500000 0.127633 0.714869
O O12 0.638627 0.092289 0.705266
O O13 0.781709 0.500000 0.778583
O O14 0.755089 0.426941 0.000000
#
# Coordination Sequence:
#
# PCOD8291197 Si02
#       5
#    16   8  16  16  16
#     4  10  20  36  60  87 118 154 194 240 293 354
#     4  11  23  39  59  83 115 157 200 239 286 347
#     4  12  24  37  58  86 118 156 197 244 291 340
#     4   9  19  37  62  90 118 149 192 246 298 351
#     4  10  22  40  60  84 118 158 197 241 295 353
#
# _framework density 19.602058
#
# number of rings (size 3 to 8) (size 9 to 14) (size 15 to 20)
#    0.000    1.667    1.111    3.667    0.000    7.111 
#    0.000    2.222    0.000    0.000    0.000    4.667 
#    0.000    0.000    0.000    0.000    0.000    0.000 
#
# Total GULP energy -446597.944975 kJ/mol
# GULP energy per Si atom -12405.498472 kJ/mol
# Density = 1.955744 g / cm^3
# Si number density = 19.602058 Si / 1000 Ang^3
#
#
#
# Elastic Constant Matrix: (Units=GPa)
#
#
# Indices 1 2 3 4 5 6 
#
# 1 100.1418 52.4838 45.6942 0.0000 0.0000 0.0000
# 2 52.4838 104.9480 49.3520 0.0000 0.0000 0.0000
# 3 45.6942 49.3520 119.7323 0.0000 0.0000 0.0000
# 4 0.0000 0.0000 0.0000 30.0455 0.0000 0.0000
# 5 0.0000 0.0000 0.0000 0.0000 10.1682 0.0000
# 6 0.0000 0.0000 0.0000 0.0000 0.0000-1799.8044
#
#
#
# Elastic Compliance Matrix: (Units=1/GPa)
#
#
# Indices 1 2 3 4 5 6 
#
# 1 0.014426 -0.005737 -0.003141 0.000000 0.000000 0.000000
# 2 -0.005737 0.014101 -0.003623 0.000000 0.000000 0.000000
# 3 -0.003141 -0.003623 0.011044 0.000000 0.000000 0.000000
# 4 0.000000 0.000000 0.000000 0.033283 0.000000 0.000000
# 5 0.000000 0.000000 0.000000 0.000000 0.098346 0.000000
# 6 0.000000 0.000000 0.000000 0.000000 0.000000 -0.000556
#
#
# Mechanical properties :
#
#
# Convention : Reuss Voigt Hill
#
# Bulk Modulus (GPa) = 68.63655 68.87580 68.75618
# Shear Modulus (GPa) = 24.93738 -340.09868 -157.58065
#
# Velocity S-wave (km/s) = 3.57064 -13.18629 -8.97577
# Velocity P-wave (km/s) = 7.21736 14.02228 8.50100
#
# Compressibility (1/GPa) = 0.01456950
#
# Stress axis : x y z
#
# Youngs Moduli (GPa) = 69.32035 70.91502 90.54875
#
# Poissons Ratio (x) = 0.40687 0.28437
# Poissons Ratio (y) = 0.39772 0.32804
# Poissons Ratio (z) = 0.21770 0.25691
#
# Static dielectric constant tensor:
#      x y z
#    x 3.499950 0.000000 0.000000 
#    y 0.000000 3.626040 0.000000 
#    z 0.000000 0.000000 3.624170 
# 
# 
# High freq. dielectric constant tensor:
#      x y z
#    x 1.760500 0.000000 0.000000 
#    y 0.000000 1.771520 0.000000 
#    z 0.000000 0.000000 1.765160 
# 
# From -- ./inp_files/6060.got.cif
#   From: 2010.06.25/outbox.cif.g09.slc.cpg/sg71_4_cif.got.tgz:6060.got - 2010.06.28 04:59:45.
