data_PCOD8291920
_publ_section_title
;
Structure prediction by ZEFSAII (Michael W. Deem and Ramdas Pophale) SiO2 
 PCOD8291920
Probable space group: I M M M
;
_chemical_formula_sum "Si O2"
_cell_formula_units_Z 64
_cell_length_a 9.003644
_cell_length_b 13.355854
_cell_length_c 26.684213
_cell_angle_alpha 90.000000
_cell_angle_beta 90.000000
_cell_angle_gamma 90.000000
_cell_volume 3208.812763
_symmetry_space_group_name_H-M "I M M M"
_symmetry_group_IT_number 71
_symmetry_cell_setting 'orthorhombic'
loop_
_space_group_symop_operation_xyz
x,y,z
-x,-y,z
x,-y,-z
-x,y,-z
-x,-y,-z
x,y,-z
-x,y,z
x,-y,z
1/2+x,1/2+y,1/2+z
1/2-x,1/2-y,1/2+z
1/2+x,1/2-y,1/2-z
1/2-x,1/2+y,1/2-z
1/2-x,1/2-y,1/2-z
1/2+x,1/2+y,1/2-z
1/2-x,1/2+y,1/2+z
1/2+x,1/2-y,1/2+z
loop_
_atom_site_type_symbol
_atom_site_label
_atom_site_fract_x
_atom_site_fract_y
_atom_site_fract_z
Si Si1 0.826149 0.113010 0.376250
Si Si2 0.826670 0.000000 0.906756
Si Si3 0.158741 0.500000 0.691175
Si Si4 0.173237 0.215748 0.942059
Si Si5 0.666989 0.161060 0.274733
O O1 0.756863 0.197943 0.411520
O O2 0.754780 0.116225 0.321450
O O3 0.000000 0.135385 0.371406
O O4 0.798829 0.000000 0.397735
O O5 0.793058 0.000000 0.847874
O O6 0.762731 0.896288 0.930367
O O7 0.000000 0.000000 0.916999
O O8 0.166768 0.592185 0.727125
O O9 0.000000 0.500000 0.661770
O O10 0.000000 0.220771 0.927702
O O11 0.200409 0.239001 0.000000
O O12 0.500000 0.187256 0.292707
O O13 0.750000 0.250000 0.250000
#
# Coordination Sequence:
#
# PCOD8291920 Si02
#       5
#    16   8   8  16  16
#     4  11  24  41  61  88 124 164 208 257 308 365
#     4  10  21  38  62  92 124 157 199 252 307 370
#     4  10  22  37  55  83 119 155 192 234 289 353
#     4  10  22  41  65  91 120 159 206 257 316 376
#     4  11  22  38  59  86 120 159 201 246 297 357
#
# _framework density 19.945072
#
# number of rings (size 3 to 8) (size 9 to 14) (size 15 to 20)
#    0.000    1.500    1.250    3.375    0.000   11.000 
#    0.000    2.500    0.000    2.250    0.000    0.000 
#    0.000    0.000    0.000    0.000    0.000    0.000 
#
# Total GULP energy -396548.476771 kJ/mol
# GULP energy per Si atom -12392.139899 kJ/mol
# Density = 1.989968 g / cm^3
# Si number density = 19.945072 Si / 1000 Ang^3
#
#
#
# Elastic Constant Matrix: (Units=GPa)
#
#
# Indices 1 2 3 4 5 6 
#
# 1 96.2800 63.7352 38.8218 0.0000 0.0000 0.0000
# 2 63.7352 156.5832 38.1314 0.0000 0.0000 0.0000
# 3 38.8218 38.1314 85.6939 0.0000 0.0000 0.0000
# 4 0.0000 0.0000 0.0000 -33.1982 0.0000 0.0000
# 5 0.0000 0.0000 0.0000 0.0000 34.3335 0.0000
# 6 0.0000 0.0000 0.0000 0.0000 0.0000 16.4690
#
#
#
# Elastic Compliance Matrix: (Units=1/GPa)
#
#
# Indices 1 2 3 4 5 6 
#
# 1 0.015815 -0.005263 -0.004823 0.000000 0.000000 0.000000
# 2 -0.005263 0.008914 -0.001582 0.000000 0.000000 0.000000
# 3 -0.004823 -0.001582 0.014558 0.000000 0.000000 0.000000
# 4 0.000000 0.000000 0.000000 -0.030122 0.000000 0.000000
# 5 0.000000 0.000000 0.000000 0.000000 0.029126 0.000000
# 6 0.000000 0.000000 0.000000 0.000000 0.000000 0.060720
#
#
# Mechanical properties :
#
#
# Convention : Reuss Voigt Hill
#
# Bulk Modulus (GPa) = 62.69020 68.88154 65.78587
# Shear Modulus (GPa) = 39.16537 16.71211 27.93874
#
# Velocity S-wave (km/s) = 4.43613 2.89780 3.74677
# Velocity P-wave (km/s) = 7.59860 6.76808 7.19533
#
# Compressibility (1/GPa) = 0.01595146
#
# Stress axis : x y z
#
# Youngs Moduli (GPa) = 63.23174 112.18512 68.68915
#
# Poissons Ratio (x) = 0.59041 0.33127
# Poissons Ratio (y) = 0.33278 0.10868
# Poissons Ratio (z) = 0.30495 0.17750
#
# Static dielectric constant tensor:
#      x y z
#    x 3.974650 0.000000 0.000000 
#    y 0.000000 3.934800 0.000000 
#    z 0.000000 0.000000 3.374510 
# 
# 
# High freq. dielectric constant tensor:
#      x y z
#    x 1.778080 0.000000 0.000000 
#    y 0.000000 1.802250 0.000000 
#    z 0.000000 0.000000 1.776590 
# 
# From -- ./inp_files/26869.got.cif
#   From: 2010.06.25/outbox.cif.g09.slc.cpg/sg71_14_cif.got.tgz:26869.got - 2010.06.28 04:59:45.
