data_PCOD8291848
_publ_section_title
;
Structure prediction by ZEFSAII (Michael W. Deem and Ramdas Pophale) SiO2 
 PCOD8291848
Probable space group: I M M M
;
_chemical_formula_sum "Si O2"
_cell_formula_units_Z 88
_cell_length_a 22.303781
_cell_length_b 22.443885
_cell_length_c 9.123631
_cell_angle_alpha 90.000000
_cell_angle_beta 90.000000
_cell_angle_gamma 90.000000
_cell_volume 4567.139101
_symmetry_space_group_name_H-M "I M M M"
_symmetry_group_IT_number 71
_symmetry_cell_setting 'orthorhombic'
loop_
_space_group_symop_operation_xyz
x,y,z
-x,-y,z
x,-y,-z
-x,y,-z
-x,-y,-z
x,y,-z
-x,y,z
x,-y,z
1/2+x,1/2+y,1/2+z
1/2-x,1/2-y,1/2+z
1/2+x,1/2-y,1/2-z
1/2-x,1/2+y,1/2-z
1/2-x,1/2-y,1/2-z
1/2+x,1/2+y,1/2-z
1/2-x,1/2+y,1/2+z
1/2+x,1/2-y,1/2+z
loop_
_atom_site_type_symbol
_atom_site_label
_atom_site_fract_x
_atom_site_fract_y
_atom_site_fract_z
Si Si1 0.088248 0.657838 0.169750
Si Si2 0.066546 0.222808 0.334170
Si Si3 0.787085 0.387589 0.833824
Si Si4 0.000000 0.429257 0.325564
Si Si5 0.290086 0.000000 0.160753
Si Si6 0.351993 0.500000 0.335973
Si Si7 0.652334 0.381103 0.173088
O O1 0.064903 0.719509 0.233040
O O2 0.160931 0.661358 0.185075
O O3 0.058830 0.602349 0.256454
O O4 0.069519 0.652184 0.000000
O O5 0.084986 0.240961 0.500000
O O6 0.112618 0.174010 0.271010
O O7 0.000000 0.194614 0.332612
O O8 0.813191 0.442185 0.742463
O O9 0.721338 0.366027 0.780630
O O10 0.780561 0.409512 0.000000
O O11 0.000000 0.500000 0.287970
O O12 0.000000 0.419081 0.500000
O O13 0.218963 0.000000 0.156500
O O14 0.318853 0.000000 0.000000
O O15 0.379519 0.500000 0.500000
O O16 0.372487 0.559270 0.250408
O O17 0.645328 0.390330 0.000000
#
# Coordination Sequence:
#
# PCOD8291848 Si02
#       7
#    16  16  16   8   8   8  16
#     4  11  23  38  58  83 112 147 186 230 280 333
#     4  10  21  38  59  81 108 147 192 232 274 328
#     4   9  19  34  52  79 111 144 182 225 277 334
#     4  11  25  43  61  83 113 150 191 234 273 321
#     4   9  17  29  49  77 109 143 180 219 271 330
#     4   9  17  31  52  82 114 141 176 227 278 326
#     4   9  18  35  58  81 111 150 186 225 275 333
#
# _framework density 19.268079
#
# number of rings (size 3 to 8) (size 9 to 14) (size 15 to 20)
#    0.000    2.273    0.909    1.364    1.273    5.818 
#    0.000    0.455    0.000    2.727    0.000    0.000 
#    0.000    0.000    0.000    0.000    0.000    0.000 
#
# Total GULP energy -545403.321249 kJ/mol
# GULP energy per Si atom -12395.530028 kJ/mol
# Density = 1.922422 g / cm^3
# Si number density = 19.268079 Si / 1000 Ang^3
#
#
#
# Elastic Constant Matrix: (Units=GPa)
#
#
# Indices 1 2 3 4 5 6 
#
# 1 103.1713 58.3163 34.2662 0.0000 0.0000 0.0000
# 2 58.3163 120.8551 48.5037 0.0000 0.0000 0.0000
# 3 34.2662 48.5037 84.1886 0.0000 0.0000 0.0000
# 4 0.0000 0.0000 0.0000 19.8259 0.0000 0.0000
# 5 0.0000 0.0000 0.0000 0.0000 19.9817 0.0000
# 6 0.0000 0.0000 0.0000 0.0000 0.0000 30.2610
#
#
#
# Elastic Compliance Matrix: (Units=1/GPa)
#
#
# Indices 1 2 3 4 5 6 
#
# 1 0.013660 -0.005671 -0.002292 0.000000 0.000000 0.000000
# 2 -0.005671 0.013118 -0.005249 0.000000 0.000000 0.000000
# 3 -0.002292 -0.005249 0.015835 0.000000 0.000000 0.000000
# 4 0.000000 0.000000 0.000000 0.050439 0.000000 0.000000
# 5 0.000000 0.000000 0.000000 0.000000 0.050046 0.000000
# 6 0.000000 0.000000 0.000000 0.000000 0.000000 0.033046
#
#
# Mechanical properties :
#
#
# Convention : Reuss Voigt Hill
#
# Bulk Modulus (GPa) = 61.77764 65.59860 63.68812
# Shear Modulus (GPa) = 24.04261 25.15564 24.59912
#
# Velocity S-wave (km/s) = 3.53625 3.61717 3.57694
# Velocity P-wave (km/s) = 6.98607 7.18083 7.08412
#
# Compressibility (1/GPa) = 0.01618709
#
# Stress axis : x y z
#
# Youngs Moduli (GPa) = 73.20909 76.23371 63.14991
#
# Poissons Ratio (x) = 0.43233 0.14476
# Poissons Ratio (y) = 0.41518 0.33149
# Poissons Ratio (z) = 0.16782 0.40017
#
# Static dielectric constant tensor:
#      x y z
#    x 3.555520 0.000000 0.000000 
#    y 0.000000 3.405790 0.000000 
#    z 0.000000 0.000000 3.638190 
# 
# 
# High freq. dielectric constant tensor:
#      x y z
#    x 1.747290 0.000000 0.000000 
#    y 0.000000 1.734630 0.000000 
#    z 0.000000 0.000000 1.751040 
# 
# From -- ./inp_files/12610.got.cif
#   From: 2010.06.25/outbox.cif.g09.slc.cpg/sg71_7_cif.got.tgz:12610.got - 2010.06.28 04:59:45.
