data_PCOD8291228
_publ_section_title
;
Structure prediction by ZEFSAII (Michael W. Deem and Ramdas Pophale) SiO2 
 PCOD8291228
Probable space group: I M M M
;
_chemical_formula_sum "Si O2"
_cell_formula_units_Z 88
_cell_length_a 17.408944
_cell_length_b 18.420084
_cell_length_c 14.707435
_cell_angle_alpha 90.000000
_cell_angle_beta 90.000000
_cell_angle_gamma 90.000000
_cell_volume 4716.295112
_symmetry_space_group_name_H-M "I M M M"
_symmetry_group_IT_number 71
_symmetry_cell_setting 'orthorhombic'
loop_
_space_group_symop_operation_xyz
x,y,z
-x,-y,z
x,-y,-z
-x,y,-z
-x,-y,-z
x,y,-z
-x,y,z
x,-y,z
1/2+x,1/2+y,1/2+z
1/2-x,1/2-y,1/2+z
1/2+x,1/2-y,1/2-z
1/2-x,1/2+y,1/2-z
1/2-x,1/2-y,1/2-z
1/2+x,1/2+y,1/2-z
1/2-x,1/2+y,1/2+z
1/2+x,1/2-y,1/2+z
loop_
_atom_site_type_symbol
_atom_site_label
_atom_site_fract_x
_atom_site_fract_y
_atom_site_fract_z
Si Si1 0.912647 0.579494 0.500000
Si Si2 0.732082 0.000000 0.395862
Si Si3 0.090896 0.500000 0.790575
Si Si4 0.637805 0.859238 0.817739
Si Si5 0.215211 0.206360 0.893962
Si Si6 0.912205 0.210345 0.753455
Si Si7 0.805735 0.147871 0.605396
O O1 0.868999 0.500000 0.500000
O O2 0.894775 0.631914 0.417583
O O3 0.000000 0.558134 0.500000
O O4 0.769848 0.073154 0.355386
O O5 0.750619 0.000000 0.500000
O O6 0.639504 0.000000 0.383532
O O7 0.120372 0.568200 0.735427
O O8 0.000000 0.500000 0.809224
O O9 0.728043 0.842190 0.831624
O O10 0.592814 0.795497 0.767402
O O11 0.132170 0.195212 0.848182
O O12 0.240632 0.290266 0.885220
O O13 0.212844 0.181824 0.000000
O O14 0.878828 0.166032 0.667599
O O15 0.000000 0.186695 0.768048
O O16 0.832278 0.141932 0.500000
#
# Coordination Sequence:
#
# PCOD8291228 Si02
#       7
#     8   8   8  16  16  16  16
#     4  11  20  32  50  80 117 140 166 212 258 312
#     4  10  20  37  58  77 103 142 183 220 259 315
#     4  12  22  32  52  83 117 146 171 208 260 316
#     4  11  21  36  52  78 110 144 177 209 260 322
#     4  10  20  37  56  76 104 143 184 218 259 316
#     4  11  22  35  54  80 108 138 177 226 272 314
#     4   9  19  36  57  80 104 136 177 221 266 319
#
# _framework density 18.658715000000001
#
# number of rings (size 3 to 8) (size 9 to 14) (size 15 to 20)
#    0.000    1.545    1.818    6.000    1.273    0.909 
#    0.000    0.455    0.000    7.091    0.000    0.000 
#    0.000    5.091    0.000    0.000    0.000    0.364 
#
# Total GULP energy -545408.723796 kJ/mol
# GULP energy per Si atom -12395.652814 kJ/mol
# Density = 1.861625 g / cm^3
# Si number density = 18.658715 Si / 1000 Ang^3
#
#
#
# Elastic Constant Matrix: (Units=GPa)
#
#
# Indices 1 2 3 4 5 6 
#
# 1 143.3014 43.6702 38.5361 0.0000 0.0000 0.0000
# 2 43.6702 97.7480 12.5636 0.0000 0.0000 0.0000
# 3 38.5361 12.5636 45.5443 0.0000 0.0000 0.0000
# 4 0.0000 0.0000 0.0000 25.5877 0.0000 0.0000
# 5 0.0000 0.0000 0.0000 0.0000 -12.8883 0.0000
# 6 0.0000 0.0000 0.0000 0.0000 0.0000 15.7110
#
#
#
# Elastic Compliance Matrix: (Units=1/GPa)
#
#
# Indices 1 2 3 4 5 6 
#
# 1 0.010089 -0.003536 -0.007561 0.000000 0.000000 0.000000
# 2 -0.003536 0.011845 -0.000276 0.000000 0.000000 0.000000
# 3 -0.007561 -0.000276 0.028431 0.000000 0.000000 0.000000
# 4 0.000000 0.000000 0.000000 0.039081 0.000000 0.000000
# 5 0.000000 0.000000 0.000000 0.000000 -0.077590 0.000000
# 6 0.000000 0.000000 0.000000 0.000000 0.000000 0.063650
#
#
# Mechanical properties :
#
#
# Convention : Reuss Voigt Hill
#
# Bulk Modulus (GPa) = 36.20674 52.90373 44.55524
# Shear Modulus (GPa) = 46.52950 18.47034 32.49992
#
# Velocity S-wave (km/s) = 4.99913 3.14969 4.17803
# Velocity P-wave (km/s) = 7.26420 6.45308 6.87062
#
# Compressibility (1/GPa) = 0.02761916
#
# Stress axis : x y z
#
# Youngs Moduli (GPa) = 99.11689 84.42071 35.17338
#
# Poissons Ratio (x) = 0.29848 0.26596
# Poissons Ratio (y) = 0.35043 0.00971
# Poissons Ratio (z) = 0.74945 0.02331
#
# Static dielectric constant tensor:
#      x y z
#    x 3.311990 0.000000 0.000000 
#    y 0.000000 3.730860 0.000000 
#    z 0.000000 0.000000 3.544510 
# 
# 
# High freq. dielectric constant tensor:
#      x y z
#    x 1.704890 0.000000 0.000000 
#    y 0.000000 1.723180 0.000000 
#    z 0.000000 0.000000 1.732020 
# 
# From -- ./inp_files/36430.got.cif
#   From: 2010.06.25/outbox.cif.g09.slc.cpg/sg71_19_cif.got.tgz:36430.got - 2010.06.28 04:59:45.
