data_PCOD8291821
_publ_section_title
;
Structure prediction by ZEFSAII (Michael W. Deem and Ramdas Pophale) SiO2 
 PCOD8291821
Probable space group: I M M M
;
_chemical_formula_sum "Si O2"
_cell_formula_units_Z 88
_cell_length_a 24.289778
_cell_length_b 8.703319
_cell_length_c 19.997662
_cell_angle_alpha 90.000000
_cell_angle_beta 90.000000
_cell_angle_gamma 90.000000
_cell_volume 4227.539470
_symmetry_space_group_name_H-M "I M M M"
_symmetry_group_IT_number 71
_symmetry_cell_setting 'orthorhombic'
loop_
_space_group_symop_operation_xyz
x,y,z
-x,-y,z
x,-y,-z
-x,y,-z
-x,-y,-z
x,y,-z
-x,y,z
x,-y,z
1/2+x,1/2+y,1/2+z
1/2-x,1/2-y,1/2+z
1/2+x,1/2-y,1/2-z
1/2-x,1/2+y,1/2-z
1/2-x,1/2-y,1/2-z
1/2+x,1/2+y,1/2-z
1/2-x,1/2+y,1/2+z
1/2+x,1/2-y,1/2+z
loop_
_atom_site_type_symbol
_atom_site_label
_atom_site_fract_x
_atom_site_fract_y
_atom_site_fract_z
Si Si1 0.756964 0.819978 0.323641
Si Si2 0.063100 0.317066 0.500000
Si Si3 0.675825 0.679639 0.426085
Si Si4 0.632289 0.178617 0.127100
Si Si5 0.941069 0.181535 0.886978
Si Si6 0.937397 0.826350 0.735642
O O1 0.750000 0.750000 0.250000
O O2 0.705031 0.777913 0.369285
O O3 0.809747 0.763008 0.364885
O O4 0.760632 0.000000 0.313876
O O5 0.060230 0.500000 0.500000
O O6 0.097076 0.256924 0.435623
O O7 0.000000 0.252194 0.500000
O O8 0.700927 0.710205 0.500000
O O9 0.680545 0.500000 0.407182
O O10 0.611746 0.733536 0.429441
O O11 0.597245 0.206076 0.193280
O O12 0.644940 0.000000 0.117649
O O13 0.932219 0.233890 0.810843
O O14 0.000000 0.249235 0.913941
O O15 0.946268 0.000000 0.888473
O O16 0.000000 0.822692 0.710684
O O17 0.913707 0.000000 0.727926
#
# Coordination Sequence:
#
# PCOD8291821 Si02
#       6
#    16   8  16  16  16  16
#     4  12  26  44  65  89 119 157 207 263 320 379
#     4   9  20  38  59  87 125 167 208 251 304 373
#     4  10  21  37  60  90 125 162 201 245 296 358
#     4  11  22  37  60  87 117 158 207 258 312 372
#     4   8  15  30  54  84 117 153 193 237 287 345
#     4   9  17  31  53  82 117 157 202 253 303 353
#
# _framework density 20.815892000000002
#
# number of rings (size 3 to 8) (size 9 to 14) (size 15 to 20)
#    0.000    2.091    0.000    4.909    1.273    3.273 
#    0.000    3.182    0.000    4.909    0.000    1.273 
#    0.000    0.000    0.000    0.000    0.000    0.000 
#
# Total GULP energy -545396.355771 kJ/mol
# GULP energy per Si atom -12395.371722 kJ/mol
# Density = 2.076851 g / cm^3
# Si number density = 20.815892 Si / 1000 Ang^3
#
#
#
# Elastic Constant Matrix: (Units=GPa)
#
#
# Indices 1 2 3 4 5 6 
#
# 1 124.9649 35.1937 60.0088 0.0000 0.0000 0.0000
# 2 35.1937 76.6369 32.7040 0.0000 0.0000 0.0000
# 3 60.0088 32.7040 102.5393 0.0000 0.0000 0.0000
# 4 0.0000 0.0000 0.0000 22.1585 0.0000 0.0000
# 5 0.0000 0.0000 0.0000 0.0000 39.6255 0.0000
# 6 0.0000 0.0000 0.0000 0.0000 0.0000 28.7465
#
#
#
# Elastic Compliance Matrix: (Units=1/GPa)
#
#
# Indices 1 2 3 4 5 6 
#
# 1 0.011634 -0.002821 -0.005909 0.000000 0.000000 0.000000
# 2 -0.002821 0.015788 -0.003385 0.000000 0.000000 0.000000
# 3 -0.005909 -0.003385 0.014290 0.000000 0.000000 0.000000
# 4 0.000000 0.000000 0.000000 0.045130 0.000000 0.000000
# 5 0.000000 0.000000 0.000000 0.000000 0.025236 0.000000
# 6 0.000000 0.000000 0.000000 0.000000 0.000000 0.034787
#
#
# Mechanical properties :
#
#
# Convention : Reuss Voigt Hill
#
# Bulk Modulus (GPa) = 57.19742 62.21711 59.70726
# Shear Modulus (GPa) = 28.26100 29.85506 29.05803
#
# Velocity S-wave (km/s) = 3.68865 3.79125 3.74030
# Velocity P-wave (km/s) = 6.75862 7.00849 6.88469
#
# Compressibility (1/GPa) = 0.01748331
#
# Stress axis : x y z
#
# Youngs Moduli (GPa) = 85.95301 63.33755 69.97960
#
# Poissons Ratio (x) = 0.17869 0.41350
# Poissons Ratio (y) = 0.24249 0.23685
# Poissons Ratio (z) = 0.50789 0.21437
#
# Static dielectric constant tensor:
#      x y z
#    x 2.153840 0.000000 0.000000 
#    y 0.000000 3.382670 0.000000 
#    z 0.000000 0.000000 3.849730 
# 
# 
# High freq. dielectric constant tensor:
#      x y z
#    x 1.831750 0.000000 0.000000 
#    y 0.000000 1.772620 0.000000 
#    z 0.000000 0.000000 1.819430 
# 
# From -- ./inp_files/55562.got.cif
#   From: 2010.06.25/outbox.cif.g09.slc.cpg/sg71_28_cif.got.tgz:55562.got - 2010.06.28 04:59:45.
