data_PCOD8291814
_publ_section_title
;
Structure prediction by ZEFSAII (Michael W. Deem and Ramdas Pophale) SiO2 
 PCOD8291814
Probable space group: I M M M
;
_chemical_formula_sum "Si O2"
_cell_formula_units_Z 72
_cell_length_a 34.326558
_cell_length_b 12.981275
_cell_length_c 8.730782
_cell_angle_alpha 90.000000
_cell_angle_beta 90.000000
_cell_angle_gamma 90.000000
_cell_volume 3890.458192
_symmetry_space_group_name_H-M "I M M M"
_symmetry_group_IT_number 71
_symmetry_cell_setting 'orthorhombic'
loop_
_space_group_symop_operation_xyz
x,y,z
-x,-y,z
x,-y,-z
-x,y,-z
-x,-y,-z
x,y,-z
-x,y,z
x,-y,z
1/2+x,1/2+y,1/2+z
1/2-x,1/2-y,1/2+z
1/2+x,1/2-y,1/2-z
1/2-x,1/2+y,1/2-z
1/2-x,1/2-y,1/2-z
1/2+x,1/2+y,1/2-z
1/2-x,1/2+y,1/2+z
1/2+x,1/2-y,1/2+z
loop_
_atom_site_type_symbol
_atom_site_label
_atom_site_fract_x
_atom_site_fract_y
_atom_site_fract_z
Si Si1 0.250964 0.000000 0.823861
Si Si2 0.000000 0.121154 0.329798
Si Si3 0.419558 0.381285 0.318740
Si Si4 0.781581 0.182839 0.672264
Si Si5 0.162438 0.500000 0.182110
Si Si6 0.363756 0.789542 0.173788
O O1 0.219867 0.913437 0.782729
O O2 0.292325 0.000000 0.735309
O O3 0.263062 0.000000 0.000000
O O4 0.961872 0.155820 0.237579
O O5 0.000000 0.171141 0.500000
O O6 0.000000 0.000000 0.345535
O O7 0.418484 0.377432 0.500000
O O8 0.410197 0.500000 0.263648
O O9 0.390128 0.296430 0.254395
O O10 0.769771 0.151602 0.500000
O O11 0.750000 0.250000 0.750000
O O12 0.821370 0.242513 0.673845
O O13 0.138618 0.399542 0.240596
O O14 0.161819 0.500000 0.000000
O O15 0.378470 0.807670 0.000000
#
# Coordination Sequence:
#
# PCOD8291814 Si02
#       6
#     8   8  16  16   8  16
#     4  12  24  38  56  78 109 146 191 242 294 350
#     4   9  17  33  59  88 119 156 191 227 280 343
#     4  10  21  37  59  90 124 155 190 234 285 341
#     4  11  23  38  57  80 109 147 193 242 293 344
#     4  12  24  40  62  81 109 150 199 245 292 346
#     4  11  24  40  59  84 116 152 195 242 291 344
#
# _framework density 18.506817000000002
#
# number of rings (size 3 to 8) (size 9 to 14) (size 15 to 20)
#    0.000    1.222    2.222    4.333    1.556    5.333 
#    0.000    0.000    0.000    0.667    0.000    4.667 
#    0.000    0.000    0.000    0.000    0.000    0.000 
#
# Total GULP energy -445990.485022 kJ/mol
# GULP energy per Si atom -12388.624584 kJ/mol
# Density = 1.846469 g / cm^3
# Si number density = 18.506817 Si / 1000 Ang^3
#
#
#
# Elastic Constant Matrix: (Units=GPa)
#
#
# Indices 1 2 3 4 5 6 
#
# 1 69.2912 33.7968 47.9106 0.0000 0.0000 0.0000
# 2 33.7968 129.0382 59.6602 0.0000 0.0000 0.0000
# 3 47.9106 59.6602 146.7883 0.0002 0.0001 0.0000
# 4 0.0000 0.0000 0.0002 33.9355 0.0001 0.0000
# 5 0.0000 0.0000 0.0001 0.0001 33.6199 0.0000
# 6 0.0000 0.0000 0.0000 0.0000 0.0000 27.2525
#
#
#
# Elastic Compliance Matrix: (Units=1/GPa)
#
#
# Indices 1 2 3 4 5 6 
#
# 1 0.019344 -0.002644 -0.005239 0.000000 0.000000 0.000000
# 2 -0.002644 0.009904 -0.003162 0.000000 0.000000 0.000000
# 3 -0.005239 -0.003162 0.009808 0.000000 0.000000 0.000000
# 4 0.000000 0.000000 0.000000 0.029468 0.000000 0.000000
# 5 0.000000 0.000000 0.000000 0.000000 0.029744 0.000000
# 6 0.000000 0.000000 0.000000 0.000000 0.000000 0.036694
#
#
# Mechanical properties :
#
#
# Convention : Reuss Voigt Hill
#
# Bulk Modulus (GPa) = 58.94545 69.76141 64.35343
# Shear Modulus (GPa) = 30.72983 32.54492 31.63738
#
# Velocity S-wave (km/s) = 4.07930 4.19804 4.13909
# Velocity P-wave (km/s) = 7.35577 7.82783 7.59547
#
# Compressibility (1/GPa) = 0.01696484
#
# Stress axis : x y z
#
# Youngs Moduli (GPa) = 51.69556 100.96591 101.95915
#
# Poissons Ratio (x) = 0.26697 0.53417
# Poissons Ratio (y) = 0.13669 0.32244
# Poissons Ratio (z) = 0.27084 0.31930
#
# Static dielectric constant tensor:
#      x y z
#    x 3.319800 0.000000 0.000000 
#    y 0.000000 3.542040 0.000000 
#    z 0.000000 0.000000 3.761030 
# 
# 
# High freq. dielectric constant tensor:
#      x y z
#    x 1.703940 0.000000 0.000000 
#    y 0.000000 1.719930 0.000000 
#    z 0.000000 0.000000 1.739040 
# 
# From -- ./inp_files/14382.got.cif
#   From: 2010.06.25/outbox.cif.g09.slc.cpg/sg71_8_cif.got.tgz:14382.got - 2010.06.28 04:59:45.
