data_PCOD8291736
_publ_section_title
;
Structure prediction by ZEFSAII (Michael W. Deem and Ramdas Pophale) SiO2 
 PCOD8291736
Probable space group: I M M M
;
_chemical_formula_sum "Si O2"
_cell_formula_units_Z 80
_cell_length_a 15.110400
_cell_length_b 31.208798
_cell_length_c 8.980431
_cell_angle_alpha 90.000000
_cell_angle_beta 90.000000
_cell_angle_gamma 90.000000
_cell_volume 4234.968493
_symmetry_space_group_name_H-M "I M M M"
_symmetry_group_IT_number 71
_symmetry_cell_setting 'orthorhombic'
loop_
_space_group_symop_operation_xyz
x,y,z
-x,-y,z
x,-y,-z
-x,y,-z
-x,-y,-z
x,y,-z
-x,y,z
x,-y,z
1/2+x,1/2+y,1/2+z
1/2-x,1/2-y,1/2+z
1/2+x,1/2-y,1/2-z
1/2-x,1/2+y,1/2-z
1/2-x,1/2-y,1/2-z
1/2+x,1/2+y,1/2-z
1/2-x,1/2+y,1/2+z
1/2+x,1/2-y,1/2+z
loop_
_atom_site_type_symbol
_atom_site_label
_atom_site_fract_x
_atom_site_fract_y
_atom_site_fract_z
Si Si1 0.216968 0.047415 0.827075
Si Si2 0.165495 0.867293 0.323723
Si Si3 0.643319 0.160170 0.675327
Si Si4 0.000000 0.725609 0.822888
Si Si5 0.000000 0.177605 0.177349
Si Si6 0.404885 0.076541 0.831101
O O1 0.170084 0.082948 0.725498
O O2 0.322468 0.045984 0.792614
O O3 0.180018 0.000000 0.787376
O O4 0.198606 0.058104 0.000000
O O5 0.150193 0.865630 0.500000
O O6 0.253932 0.841458 0.273156
O O7 0.085879 0.845533 0.238719
O O8 0.639802 0.159727 0.500000
O O9 0.589444 0.201682 0.735505
O O10 0.593496 0.118175 0.729122
O O11 0.000000 0.773788 0.761350
O O12 0.000000 0.726013 0.000000
O O13 0.000000 0.175473 0.000000
O O14 0.500000 0.052660 0.807899
O O15 0.395235 0.092723 0.000000
#
# Coordination Sequence:
#
# PCOD8291736 Si02
#       6
#    16  16  16   8   8  16
#     4   9  18  33  53  77 106 141 179 217 260 315
#     4  10  21  37  57  80 108 140 175 221 271 314
#     4   9  17  32  54  77 106 145 180 211 256 311
#     4   9  18  33  55  82 109 140 181 216 251 311
#     4  11  23  39  58  78 103 138 178 224 273 321
#     4   9  16  26  44  74 110 144 178 214 254 300
#
# _framework density 18.890340999999999
#
# number of rings (size 3 to 8) (size 9 to 14) (size 15 to 20)
#    0.000    2.600    1.000    0.900    0.000    2.400 
#    0.000    4.500    0.000    3.000    0.000    5.600 
#    0.000    0.000    0.000    0.000    0.000    0.000 
#
# Total GULP energy -495687.412013 kJ/mol
# GULP energy per Si atom -12392.185300 kJ/mol
# Density = 1.884735 g / cm^3
# Si number density = 18.890341 Si / 1000 Ang^3
#
#
#
# Elastic Constant Matrix: (Units=GPa)
#
#
# Indices 1 2 3 4 5 6 
#
# 1 109.8560 62.6371 41.2674 0.0002 -0.0001 0.0002
# 2 62.6371 123.9448 33.4280 -0.0003 -0.0006 -0.0003
# 3 41.2674 33.4280 36.9384 -0.0200 0.0027 0.0020
# 4 0.0002 -0.0003 -0.0200 22.6314 0.0034 0.0028
# 5 -0.0001 -0.0006 0.0027 0.0034 21.5365 -0.0001
# 6 0.0002 -0.0003 0.0020 0.0028 -0.0001 20.4151
#
#
#
# Elastic Compliance Matrix: (Units=1/GPa)
#
#
# Indices 1 2 3 4 5 6 
#
# 1 0.017567 -0.004742 -0.015334 -0.000014 0.000002 0.000001
# 2 -0.004742 0.011953 -0.005519 -0.000005 0.000001 0.000001
# 3 -0.015334 -0.005519 0.049199 0.000044 -0.000006 -0.000005
# 4 -0.000014 -0.000005 0.000044 0.044186 -0.000007 -0.000006
# 5 0.000002 0.000001 -0.000006 -0.000007 0.046433 0.000000
# 6 0.000001 0.000001 -0.000005 -0.000006 0.000000 0.048983
#
#
# Mechanical properties :
#
#
# Convention : Reuss Voigt Hill
#
# Bulk Modulus (GPa) = 36.32795 60.60047 48.46421
# Shear Modulus (GPa) = 17.94115 21.81037 19.87576
#
# Velocity S-wave (km/s) = 3.08515 3.40159 3.24723
# Velocity P-wave (km/s) = 5.65363 6.89765 6.30639
#
# Compressibility (1/GPa) = 0.02752702
#
# Stress axis : x y z
#
# Youngs Moduli (GPa) = 56.92501 83.66012 20.32576
#
# Poissons Ratio (x) = 0.39672 0.31168
# Poissons Ratio (y) = 0.26994 0.11219
# Poissons Ratio (z) = 0.87291 0.46176
#
# Static dielectric constant tensor:
#      x y z
#    x 3.661360 0.000010 0.000000 
#    y 0.000010 3.571880 0.000000 
#    z 0.000000 0.000000 3.326560 
# 
# 
# High freq. dielectric constant tensor:
#      x y z
#    x 1.735600 0.000000 0.000000 
#    y 0.000000 1.721450 0.000000 
#    z 0.000000 0.000000 1.719760 
# 
# From -- ./inp_files/8420.got.cif
#   From: 2010.06.25/outbox.cif.g09.slc.cpg/sg71_5_cif.got.tgz:8420.got - 2010.06.28 04:59:45.
