data_PCOD8291381
_publ_section_title
;
Structure prediction by ZEFSAII (Michael W. Deem and Ramdas Pophale) SiO2 
 PCOD8291381
Probable space group: I M M M
;
_chemical_formula_sum "Si O2"
_cell_formula_units_Z 80
_cell_length_a 11.921029
_cell_length_b 12.827966
_cell_length_c 28.673833
_cell_angle_alpha 90.000000
_cell_angle_beta 90.000000
_cell_angle_gamma 90.000000
_cell_volume 4384.875795
_symmetry_space_group_name_H-M "I M M M"
_symmetry_group_IT_number 71
_symmetry_cell_setting 'orthorhombic'
loop_
_space_group_symop_operation_xyz
x,y,z
-x,-y,z
x,-y,-z
-x,y,-z
-x,-y,-z
x,y,-z
-x,y,z
x,-y,z
1/2+x,1/2+y,1/2+z
1/2-x,1/2-y,1/2+z
1/2+x,1/2-y,1/2-z
1/2-x,1/2+y,1/2-z
1/2-x,1/2-y,1/2-z
1/2+x,1/2+y,1/2-z
1/2-x,1/2+y,1/2+z
1/2+x,1/2-y,1/2+z
loop_
_atom_site_type_symbol
_atom_site_label
_atom_site_fract_x
_atom_site_fract_y
_atom_site_fract_z
Si Si1 0.628040 0.623049 0.811920
Si Si2 0.000000 0.376456 0.260362
Si Si3 0.500000 0.876950 0.655082
Si Si4 0.790743 0.746668 0.133160
Si Si5 0.245260 0.623197 0.718181
Si Si6 0.629449 0.620477 0.446716
O O1 0.500000 0.656398 0.802315
O O2 0.637654 0.500000 0.820271
O O3 0.675894 0.682184 0.857630
O O4 0.704191 0.659478 0.767976
O O5 0.000000 0.334525 0.207795
O O6 0.885642 0.339954 0.286066
O O7 0.000000 0.500000 0.258034
O O8 0.609363 0.835690 0.629008
O O9 0.500000 0.000000 0.652286
O O10 0.813169 0.827573 0.175434
O O11 0.786684 0.811204 0.085052
O O12 0.258219 0.500000 0.714452
O O13 0.647402 0.655130 0.500000
O O14 0.500000 0.638311 0.431786
O O15 0.661661 0.500000 0.440401
#
# Coordination Sequence:
#
# PCOD8291381 Si02
#       6
#    16   8   8  16  16  16
#     4  10  22  36  50  75 112 148 182 222 260 301
#     4   9  18  34  48  68 109 149 175 213 264 302
#     4  11  22  34  50  76 107 143 183 220 262 314
#     4  12  21  32  57  79 103 144 183 215 263 325
#     4  10  21  33  49  77 111 143 182 224 260 308
#     4   9  19  37  59  85 113 133 161 216 278 327
#
# _framework density 18.244530999999998
#
# number of rings (size 3 to 8) (size 9 to 14) (size 15 to 20)
#    0.000    1.800    3.000    2.400    2.800    0.000 
#    0.000    0.000    0.000    3.600    0.000    2.800 
#    0.000    0.000    0.000    0.000    0.000    0.000 
#
# Total GULP energy -496041.888836 kJ/mol
# GULP energy per Si atom -12401.047221 kJ/mol
# Density = 1.820301 g / cm^3
# Si number density = 18.244531 Si / 1000 Ang^3
#
#
#
# Elastic Constant Matrix: (Units=GPa)
#
#
# Indices 1 2 3 4 5 6 
#
# 1 107.1192 45.3576 37.1811 0.0000 0.0000 0.0000
# 2 45.3576 58.2602 45.4171 0.0000 0.0000 0.0000
# 3 37.1811 45.4171 93.5209 0.0000 0.0000 0.0000
# 4 0.0000 0.0000 0.0000 31.3228 0.0000 0.0000
# 5 0.0000 0.0000 0.0000 0.0000 23.9518 0.0000
# 6 0.0000 0.0000 0.0000 0.0000 0.0000 35.3153
#
#
#
# Elastic Compliance Matrix: (Units=1/GPa)
#
#
# Indices 1 2 3 4 5 6 
#
# 1 0.013937 -0.010510 -0.000437 0.000000 0.000000 0.000000
# 2 -0.010510 0.035547 -0.013084 0.000000 0.000000 0.000000
# 3 -0.000437 -0.013084 0.017221 0.000000 0.000000 0.000000
# 4 0.000000 0.000000 0.000000 0.031926 0.000000 0.000000
# 5 0.000000 0.000000 0.000000 0.000000 0.041751 0.000000
# 6 0.000000 0.000000 0.000000 0.000000 0.000000 0.028316
#
#
# Mechanical properties :
#
#
# Convention : Reuss Voigt Hill
#
# Bulk Modulus (GPa) = 53.64191 57.20132 55.42161
# Shear Modulus (GPa) = 22.42412 26.84762 24.63587
#
# Velocity S-wave (km/s) = 3.50964 3.84023 3.67865
# Velocity P-wave (km/s) = 6.77413 7.14729 6.96321
#
# Compressibility (1/GPa) = 0.01864214
#
# Stress axis : x y z
#
# Youngs Moduli (GPa) = 71.74967 28.13195 58.06946
#
# Poissons Ratio (x) = 0.29567 0.02538
# Poissons Ratio (y) = 0.75409 0.75980
# Poissons Ratio (z) = 0.03136 0.36809
#
# Static dielectric constant tensor:
#      x y z
#    x 3.411690 0.000000 0.000000 
#    y 0.000000 3.532200 0.000000 
#    z 0.000000 0.000000 3.036580 
# 
# 
# High freq. dielectric constant tensor:
#      x y z
#    x 1.698290 0.000000 0.000000 
#    y 0.000000 1.737820 0.000000 
#    z 0.000000 0.000000 1.658400 
# 
# From -- ./inp_files/64363.got.cif
#   From: 2010.06.25/outbox.cif.g09.slc.cpg/sg71_33_cif.got.tgz:64363.got - 2010.06.28 04:59:45.
