data_PCOD8291761
_publ_section_title
;
Structure prediction by ZEFSAII (Michael W. Deem and Ramdas Pophale) SiO2 
 PCOD8291761
Probable space group: I M M M
;
_chemical_formula_sum "Si O2"
_cell_formula_units_Z 72
_cell_length_a 13.057573
_cell_length_b 8.827995
_cell_length_c 31.373790
_cell_angle_alpha 90.000000
_cell_angle_beta 90.000000
_cell_angle_gamma 90.000000
_cell_volume 3616.525455
_symmetry_space_group_name_H-M "I M M M"
_symmetry_group_IT_number 71
_symmetry_cell_setting 'orthorhombic'
loop_
_space_group_symop_operation_xyz
x,y,z
-x,-y,z
x,-y,-z
-x,y,-z
-x,-y,-z
x,y,-z
-x,y,z
x,-y,z
1/2+x,1/2+y,1/2+z
1/2-x,1/2-y,1/2+z
1/2+x,1/2-y,1/2-z
1/2-x,1/2+y,1/2-z
1/2-x,1/2-y,1/2-z
1/2+x,1/2+y,1/2-z
1/2-x,1/2+y,1/2+z
1/2+x,1/2-y,1/2+z
loop_
_atom_site_type_symbol
_atom_site_label
_atom_site_fract_x
_atom_site_fract_y
_atom_site_fract_z
Si Si1 0.000000 0.328597 0.050355
Si Si2 0.113149 0.828592 0.738133
Si Si3 0.807304 0.821642 0.093653
Si Si4 0.883286 0.177027 0.450796
Si Si5 0.301333 0.176068 0.683331
O O1 0.897232 0.247249 0.065405
O O2 0.000000 0.500000 0.067920
O O3 0.000000 0.326003 0.000000
O O4 0.187944 0.780868 0.699892
O O5 0.120860 0.719639 0.778972
O O6 0.000000 0.815046 0.718966
O O7 0.138784 0.000000 0.752913
O O8 0.695721 0.767678 0.078360
O O9 0.826234 0.774222 0.142176
O O10 0.813139 0.000000 0.089543
O O11 0.862756 0.217545 0.500000
O O12 0.000000 0.221555 0.438478
O O13 0.865529 0.000000 0.442778
O O14 0.312952 0.000000 0.671831
#
# Coordination Sequence:
#
# PCOD8291761 Si02
#       5
#     8  16  16  16  16
#     4  11  25  45  67  89 117 159 209 257 307 367
#     4   9  19  37  60  83 112 149 191 244 299 348
#     4  12  25  39  59  89 125 160 197 249 303 358
#     4   9  19  38  63  88 116 154 198 243 294 355
#     4  10  21  37  57  84 115 152 197 240 289 352
#
# _framework density 19.908611000000001
#
# number of rings (size 3 to 8) (size 9 to 14) (size 15 to 20)
#    0.000    1.889    0.000    4.333    1.556    6.667 
#    0.000    3.333    0.000    0.000    0.000    0.000 
#    0.000    0.000    0.000    0.000    0.000    0.000 
#
# Total GULP energy -446478.728317 kJ/mol
# GULP energy per Si atom -12402.186898 kJ/mol
# Density = 1.986330 g / cm^3
# Si number density = 19.908611 Si / 1000 Ang^3
#
#
#
# Elastic Constant Matrix: (Units=GPa)
#
#
# Indices 1 2 3 4 5 6 
#
# 1 101.8393 38.8350 20.7194 0.0000 0.0000 0.0000
# 2 38.8350 107.5590 34.1664 0.0000 0.0000 0.0000
# 3 20.7194 34.1664 65.3747 0.0000 0.0000 0.0000
# 4 0.0000 0.0000 0.0000 32.7626 0.0000 0.0000
# 5 0.0000 0.0000 0.0000 0.0000 12.9968 0.0000
# 6 0.0000 0.0000 0.0000 0.0000 0.0000 9.2337
#
#
#
# Elastic Compliance Matrix: (Units=1/GPa)
#
#
# Indices 1 2 3 4 5 6 
#
# 1 0.011557 -0.003608 -0.001777 0.000000 0.000000 0.000000
# 2 -0.003608 0.012274 -0.005271 0.000000 0.000000 0.000000
# 3 -0.001777 -0.005271 0.018615 0.000000 0.000000 0.000000
# 4 0.000000 0.000000 0.000000 0.030523 0.000000 0.000000
# 5 0.000000 0.000000 0.000000 0.000000 0.076942 0.000000
# 6 0.000000 0.000000 0.000000 0.000000 0.000000 0.108299
#
#
# Mechanical properties :
#
#
# Convention : Reuss Voigt Hill
#
# Bulk Modulus (GPa) = 47.32002 51.35719 49.33861
# Shear Modulus (GPa) = 17.44790 23.06876 20.25833
#
# Velocity S-wave (km/s) = 2.96362 3.40771 3.19339
# Velocity P-wave (km/s) = 5.96078 6.42929 6.19946
#
# Compressibility (1/GPa) = 0.02113270
#
# Stress axis : x y z
#
# Youngs Moduli (GPa) = 86.52858 81.47000 53.72138
#
# Poissons Ratio (x) = 0.29396 0.09546
# Poissons Ratio (y) = 0.31221 0.28318
# Poissons Ratio (z) = 0.15376 0.42946
#
# Static dielectric constant tensor:
#      x y z
#    x 3.754280 0.000000 0.000000 
#    y 0.000000 3.659500 0.000000 
#    z 0.000000 0.000000 3.493820 
# 
# 
# High freq. dielectric constant tensor:
#      x y z
#    x 1.789120 0.000000 0.000000 
#    y 0.000000 1.776620 0.000000 
#    z 0.000000 0.000000 1.771680 
# 
# From -- ./inp_files/65171.got.cif
#   From: 2010.06.25/outbox.cif.g09.slc.cpg/sg71_33_cif.got.tgz:65171.got - 2010.06.28 04:59:45.
