data_PCOD8291378
_publ_section_title
;
Structure prediction by ZEFSAII (Michael W. Deem and Ramdas Pophale) SiO2 
 PCOD8291378
Probable space group: I M M M
;
_chemical_formula_sum "Si O2"
_cell_formula_units_Z 104
_cell_length_a 32.852927
_cell_length_b 13.788710
_cell_length_c 13.164838
_cell_angle_alpha 90.000000
_cell_angle_beta 90.000000
_cell_angle_gamma 90.000000
_cell_volume 5963.664808
_symmetry_space_group_name_H-M "I M M M"
_symmetry_group_IT_number 71
_symmetry_cell_setting 'orthorhombic'
loop_
_space_group_symop_operation_xyz
x,y,z
-x,-y,z
x,-y,-z
-x,y,-z
-x,-y,-z
x,y,-z
-x,y,z
x,-y,z
1/2+x,1/2+y,1/2+z
1/2-x,1/2-y,1/2+z
1/2+x,1/2-y,1/2-z
1/2-x,1/2+y,1/2-z
1/2-x,1/2-y,1/2-z
1/2+x,1/2+y,1/2-z
1/2-x,1/2+y,1/2+z
1/2+x,1/2-y,1/2+z
loop_
_atom_site_type_symbol
_atom_site_label
_atom_site_fract_x
_atom_site_fract_y
_atom_site_fract_z
Si Si1 0.548075 0.890052 0.385770
Si Si2 0.278180 0.110915 0.115808
Si Si3 0.000000 0.884201 0.378621
Si Si4 0.343675 0.264340 0.883416
Si Si5 0.199233 0.885117 0.228099
Si Si6 0.121872 0.886065 0.110356
Si Si7 0.926568 0.778502 0.734979
O O1 0.563776 0.860893 0.500000
O O2 0.500000 0.885406 0.386759
O O3 0.562852 0.819738 0.295510
O O4 0.562656 0.000000 0.360815
O O5 0.321092 0.162556 0.134456
O O6 0.242941 0.153400 0.189388
O O7 0.286437 0.000000 0.142097
O O8 0.263082 0.124331 0.000000
O O9 0.961545 0.826585 0.333245
O O10 0.000000 0.872389 0.500000
O O11 0.000000 0.000000 0.350675
O O12 0.313428 0.346033 0.838384
O O13 0.388084 0.256536 0.835543
O O14 0.349468 0.291349 0.000000
O O15 0.164734 0.845243 0.151362
O O16 0.199514 0.000000 0.232241
O O17 0.084361 0.858834 0.181710
O O18 0.124235 0.000000 0.103715
O O19 0.114301 0.839923 0.000000
#
# Coordination Sequence:
#
# PCOD8291378 Si02
#       7
#    16  16   8  16  16  16  16
#     4   9  18  34  57  82 104 129 165 210 264 323
#     4   9  17  31  51  74  99 128 164 207 256 307
#     4  11  24  40  56  73  98 136 180 221 260 308
#     4  10  21  33  48  73 103 136 174 215 255 299
#     4   9  17  30  50  72  98 134 171 205 247 303
#     4   9  17  29  47  75 106 131 160 203 255 309
#     4  11  20  35  54  75 102 137 175 215 260 310
#
# _framework density 17.438941
#
# number of rings (size 3 to 8) (size 9 to 14) (size 15 to 20)
#    0.000    2.385    0.769    2.769    0.000    3.385 
#    0.000    0.000    0.000    4.615    0.000    0.000 
#    0.000    0.000    0.000    0.000    0.000    0.000 
#
# Total GULP energy -644399.096849 kJ/mol
# GULP energy per Si atom -12392.290324 kJ/mol
# Density = 1.739925 g / cm^3
# Si number density = 17.438941 Si / 1000 Ang^3
#
#
#
# Elastic Constant Matrix: (Units=GPa)
#
#
# Indices 1 2 3 4 5 6 
#
# 1 111.0227 43.5887 65.1516 0.0000 0.0000 0.0000
# 2 43.5887 61.3840 50.7457 0.0000 0.0000 0.0000
# 3 65.1516 50.7457 134.7240 0.0000 0.0000 0.0000
# 4 0.0000 0.0000 0.0000 30.3091 0.0000 0.0000
# 5 0.0000 0.0000 0.0000 0.0000 23.8042 0.0000
# 6 0.0000 0.0000 0.0000 0.0000 0.0000 22.9844
#
#
#
# Elastic Compliance Matrix: (Units=1/GPa)
#
#
# Indices 1 2 3 4 5 6 
#
# 1 0.014098 -0.006353 -0.004425 0.000000 0.000000 0.000000
# 2 -0.006353 0.026520 -0.006917 0.000000 0.000000 0.000000
# 3 -0.004425 -0.006917 0.012168 0.000000 0.000000 0.000000
# 4 0.000000 0.000000 0.000000 0.032993 0.000000 0.000000
# 5 0.000000 0.000000 0.000000 0.000000 0.042009 0.000000
# 6 0.000000 0.000000 0.000000 0.000000 0.000000 0.043508
#
#
# Mechanical properties :
#
#
# Convention : Reuss Voigt Hill
#
# Bulk Modulus (GPa) = 57.48257 69.56697 63.52477
# Shear Modulus (GPa) = 23.53105 25.26253 24.39679
#
# Velocity S-wave (km/s) = 3.67732 3.81021 3.74436
# Velocity P-wave (km/s) = 7.14591 7.70294 7.42965
#
# Compressibility (1/GPa) = 0.01739658
#
# Stress axis : x y z
#
# Youngs Moduli (GPa) = 70.93195 37.70672 82.18461
#
# Poissons Ratio (x) = 0.23956 0.36364
# Poissons Ratio (y) = 0.45064 0.56847
# Poissons Ratio (z) = 0.31385 0.26082
#
# Static dielectric constant tensor:
#      x y z
#    x 3.247960 0.000000 0.000000 
#    y 0.000000 3.259080 0.000000 
#    z 0.000000 0.000000 3.491360 
# 
# 
# High freq. dielectric constant tensor:
#      x y z
#    x 1.672870 0.000000 0.000000 
#    y 0.000000 1.666410 0.000000 
#    z 0.000000 0.000000 1.680160 
# 
# From -- ./inp_files/22684.got.cif
#   From: 2010.06.25/outbox.cif.g09.slc.cpg/sg71_12_cif.got.tgz:22684.got - 2010.06.28 04:59:45.
