data_PCOD8291819
_publ_section_title
;
Structure prediction by ZEFSAII (Michael W. Deem and Ramdas Pophale) SiO2 
 PCOD8291819
Probable space group: I M M M
;
_chemical_formula_sum "Si O2"
_cell_formula_units_Z 64
_cell_length_a 8.039226
_cell_length_b 36.435038
_cell_length_c 11.126619
_cell_angle_alpha 90.000000
_cell_angle_beta 90.000000
_cell_angle_gamma 90.000000
_cell_volume 3259.092461
_symmetry_space_group_name_H-M "I M M M"
_symmetry_group_IT_number 71
_symmetry_cell_setting 'orthorhombic'
loop_
_space_group_symop_operation_xyz
x,y,z
-x,-y,z
x,-y,-z
-x,y,-z
-x,-y,-z
x,y,-z
-x,y,z
x,-y,z
1/2+x,1/2+y,1/2+z
1/2-x,1/2-y,1/2+z
1/2+x,1/2-y,1/2-z
1/2-x,1/2+y,1/2-z
1/2-x,1/2-y,1/2-z
1/2+x,1/2+y,1/2-z
1/2-x,1/2+y,1/2+z
1/2+x,1/2-y,1/2+z
loop_
_atom_site_type_symbol
_atom_site_label
_atom_site_fract_x
_atom_site_fract_y
_atom_site_fract_z
Si Si1 0.809225 0.424940 0.743749
Si Si2 0.301567 0.543513 0.500000
Si Si3 0.500000 0.457514 0.872402
Si Si4 0.310416 0.149596 0.635423
Si Si5 0.311842 0.271770 0.133722
O O1 0.788872 0.435075 0.606087
O O2 0.672211 0.449362 0.807817
O O3 0.765957 0.382387 0.770022
O O4 0.000000 0.433279 0.786369
O O5 0.260669 0.500000 0.500000
O O6 0.500000 0.549586 0.500000
O O7 0.500000 0.500000 0.892021
O O8 0.500000 0.436650 0.000000
O O9 0.277108 0.134889 0.500000
O O10 0.500000 0.162229 0.650545
O O11 0.200227 0.185083 0.663869
O O12 0.500000 0.260245 0.118693
O O13 0.250000 0.250000 0.250000
O O14 0.226538 0.263875 0.000000
#
# Coordination Sequence:
#
# PCOD8291819 Si02
#       5
#    16   8   8  16  16
#     4  11  23  40  63  90 119 157 205 253 307 365
#     4  11  23  41  63  86 119 163 208 255 311 374
#     4  11  24  39  59  89 123 158 199 251 309 365
#     4   9  19  37  61  88 119 154 195 246 302 361
#     4  10  21  37  60  90 121 160 203 245 298 360
#
# _framework density 19.637369
#
# number of rings (size 3 to 8) (size 9 to 14) (size 15 to 20)
#    0.000    1.750    1.250    2.625    1.750    5.500 
#    2.250    1.250    0.000    0.000    0.000    0.000 
#    0.000    0.000    0.000    0.000    0.000    0.000 
#
# Total GULP energy -396424.320872 kJ/mol
# GULP energy per Si atom -12388.260027 kJ/mol
# Density = 1.959267 g / cm^3
# Si number density = 19.637369 Si / 1000 Ang^3
#
#
#
# Elastic Constant Matrix: (Units=GPa)
#
#
# Indices 1 2 3 4 5 6 
#
# 1 96.0088 30.1482 43.5295 0.0002 0.0000 0.0000
# 2 30.1482 103.3549 76.0764 0.0007 0.0000 0.0001
# 3 43.5295 76.0764 160.6534 0.0010 -0.0002 0.0001
# 4 0.0002 0.0007 0.0010 42.0131 0.0002 0.0001
# 5 0.0000 0.0000 -0.0002 0.0002 19.2644 0.0000
# 6 0.0000 0.0001 0.0001 0.0001 0.0000 32.5922
#
#
#
# Elastic Compliance Matrix: (Units=1/GPa)
#
#
# Indices 1 2 3 4 5 6 
#
# 1 0.012068 -0.001709 -0.002461 0.000000 0.000000 0.000000
# 2 -0.001709 0.015094 -0.006685 0.000000 0.000000 0.000000
# 3 -0.002461 -0.006685 0.010057 0.000000 0.000000 0.000000
# 4 0.000000 0.000000 0.000000 0.023802 0.000000 0.000000
# 5 0.000000 0.000000 0.000000 0.000000 0.051909 0.000000
# 6 0.000000 0.000000 0.000000 0.000000 0.000000 0.030682
#
#
# Mechanical properties :
#
#
# Convention : Reuss Voigt Hill
#
# Bulk Modulus (GPa) = 64.47277 73.28059 68.87668
# Shear Modulus (GPa) = 29.32698 32.79149 31.05923
#
# Velocity S-wave (km/s) = 3.86868 4.09081 3.98130
# Velocity P-wave (km/s) = 7.27039 7.72729 7.50232
#
# Compressibility (1/GPa) = 0.01551042
#
# Stress axis : x y z
#
# Youngs Moduli (GPa) = 82.86403 66.24980 99.43505
#
# Poissons Ratio (x) = 0.11322 0.24466
# Poissons Ratio (y) = 0.14162 0.66470
# Poissons Ratio (z) = 0.20389 0.44287
#
# Static dielectric constant tensor:
#      x y z
#    x 2.892170 -0.000010 -0.000030 
#    y -0.000010 3.460660 0.000000 
#    z -0.000030 0.000000 4.484810 
# 
# 
# High freq. dielectric constant tensor:
#      x y z
#    x 1.772660 0.000000 0.000000 
#    y 0.000000 1.755780 0.000000 
#    z 0.000000 0.000000 1.770980 
# 
# From -- ./inp_files/16193.got.cif
#   From: 2010.06.25/outbox.cif.g09.slc.cpg/sg71_9_cif.got.tgz:16193.got - 2010.06.28 04:59:45.
