data_PCOD8291258
_publ_section_title
;
Structure prediction by ZEFSAII (Michael W. Deem and Ramdas Pophale) SiO2 
 PCOD8291258
Probable space group: I M M M
;
_chemical_formula_sum "Si O2"
_cell_formula_units_Z 88
_cell_length_a 14.011999
_cell_length_b 14.327088
_cell_length_c 23.439956
_cell_angle_alpha 90.000000
_cell_angle_beta 90.000000
_cell_angle_gamma 90.000000
_cell_volume 4705.597953
_symmetry_space_group_name_H-M "I M M M"
_symmetry_group_IT_number 71
_symmetry_cell_setting 'orthorhombic'
loop_
_space_group_symop_operation_xyz
x,y,z
-x,-y,z
x,-y,-z
-x,y,-z
-x,-y,-z
x,y,-z
-x,y,z
x,-y,z
1/2+x,1/2+y,1/2+z
1/2-x,1/2-y,1/2+z
1/2+x,1/2-y,1/2-z
1/2-x,1/2+y,1/2-z
1/2-x,1/2-y,1/2-z
1/2+x,1/2+y,1/2-z
1/2-x,1/2+y,1/2+z
1/2+x,1/2-y,1/2+z
loop_
_atom_site_type_symbol
_atom_site_label
_atom_site_fract_x
_atom_site_fract_y
_atom_site_fract_z
Si Si1 0.886959 0.500000 0.063876
Si Si2 0.793072 0.263990 0.362180
Si Si3 0.108836 0.337153 0.853642
Si Si4 0.112893 0.106359 0.565018
Si Si5 0.890675 0.395820 0.725787
Si Si6 0.604121 0.101435 0.934432
O O1 0.854610 0.407115 0.096982
O O2 0.000000 0.500000 0.061803
O O3 0.842958 0.500000 0.000000
O O4 0.679759 0.251110 0.354341
O O5 0.841966 0.167984 0.383819
O O6 0.835085 0.310111 0.304315
O O7 0.809192 0.338374 0.411755
O O8 0.118438 0.388372 0.793529
O O9 0.000000 0.303232 0.864104
O O10 0.138636 0.140903 0.500000
O O11 0.000000 0.109428 0.572738
O O12 0.150393 0.000000 0.572836
O O13 0.852296 0.500000 0.709565
O O14 0.000000 0.386330 0.706291
O O15 0.500000 0.148548 0.922329
O O16 0.605901 0.000000 0.904653
O O17 0.621063 0.087954 0.000000
#
# Coordination Sequence:
#
# PCOD8291258 Si02
#       6
#     8  16  16  16  16  16
#     4   9  18  36  60  78  97 135 186 232 275 320
#     4  12  21  30  54  85 105 138 186 229 265 329
#     4  10  22  39  54  75 109 144 177 228 285 323
#     4   9  19  34  49  72 113 155 183 217 272 334
#     4  10  20  37  60  81 107 140 178 229 284 333
#     4   9  18  33  53  80 114 144 175 224 278 323
#
# _framework density 18.701129999999999
#
# number of rings (size 3 to 8) (size 9 to 14) (size 15 to 20)
#    0.000    2.091    0.909    4.364    1.273    4.364 
#    0.000    0.000    0.000    2.182    0.000    3.818 
#    0.000    0.000    0.000    0.000    0.000    0.000 
#
# Total GULP energy -545165.346776 kJ/mol
# GULP energy per Si atom -12390.121518 kJ/mol
# Density = 1.865857 g / cm^3
# Si number density = 18.701130 Si / 1000 Ang^3
#
#
#
# Elastic Constant Matrix: (Units=GPa)
#
#
# Indices 1 2 3 4 5 6 
#
# 1 90.7106 54.7669 33.3421 0.0000 0.0000 0.0000
# 2 54.7669 96.9028 43.2671 0.0000 0.0000 0.0000
# 3 33.3421 43.2671 106.0810 0.0000 0.0000 0.0000
# 4 0.0000 0.0000 0.0000 36.0252 0.0000 0.0000
# 5 0.0000 0.0000 0.0000 0.0000 13.6084 0.0000
# 6 0.0000 0.0000 0.0000 0.0000 0.0000 35.3827
#
#
#
# Elastic Compliance Matrix: (Units=1/GPa)
#
#
# Indices 1 2 3 4 5 6 
#
# 1 0.016993 -0.008827 -0.001741 0.000000 0.000000 0.000000
# 2 -0.008827 0.017202 -0.004242 0.000000 0.000000 0.000000
# 3 -0.001741 -0.004242 0.011704 0.000000 0.000000 0.000000
# 4 0.000000 0.000000 0.000000 0.027758 0.000000 0.000000
# 5 0.000000 0.000000 0.000000 0.000000 0.073484 0.000000
# 6 0.000000 0.000000 0.000000 0.000000 0.000000 0.028262
#
#
# Mechanical properties :
#
#
# Convention : Reuss Voigt Hill
#
# Bulk Modulus (GPa) = 61.42400 61.82740 61.62570
# Shear Modulus (GPa) = 23.75855 27.82446 25.79151
#
# Velocity S-wave (km/s) = 3.56818 3.86145 3.71771
# Velocity P-wave (km/s) = 7.06345 7.28104 7.17307
#
# Compressibility (1/GPa) = 0.01628028
#
# Stress axis : x y z
#
# Youngs Moduli (GPa) = 58.84713 58.13176 85.44011
#
# Poissons Ratio (x) = 0.51312 0.14875
# Poissons Ratio (y) = 0.51943 0.36243
# Poissons Ratio (z) = 0.10245 0.24659
#
# Static dielectric constant tensor:
#      x y z
#    x 3.307760 0.000000 0.000000 
#    y 0.000000 3.640680 0.000000 
#    z 0.000000 0.000000 3.576620 
# 
# 
# High freq. dielectric constant tensor:
#      x y z
#    x 1.706040 0.000000 0.000000 
#    y 0.000000 1.718310 0.000000 
#    z 0.000000 0.000000 1.737250 
# 
# From -- ./inp_files/39145.got.cif
#   From: 2010.06.25/outbox.cif.g09.slc.cpg/sg71_20_cif.got.tgz:39145.got - 2010.06.28 04:59:45.
