data_PCOD8291949
_publ_section_title
;
Structure prediction by ZEFSAII (Michael W. Deem and Ramdas Pophale) SiO2 
 PCOD8291949
Probable space group: I M M M
;
_chemical_formula_sum "Si O2"
_cell_formula_units_Z 72
_cell_length_a 9.854244
_cell_length_b 26.876105
_cell_length_c 13.921669
_cell_angle_alpha 90.000000
_cell_angle_beta 90.000000
_cell_angle_gamma 90.000000
_cell_volume 3687.066279
_symmetry_space_group_name_H-M "I M M M"
_symmetry_group_IT_number 71
_symmetry_cell_setting 'orthorhombic'
loop_
_space_group_symop_operation_xyz
x,y,z
-x,-y,z
x,-y,-z
-x,y,-z
-x,-y,-z
x,y,-z
-x,y,z
x,-y,z
1/2+x,1/2+y,1/2+z
1/2-x,1/2-y,1/2+z
1/2+x,1/2-y,1/2-z
1/2-x,1/2+y,1/2-z
1/2-x,1/2-y,1/2-z
1/2+x,1/2+y,1/2-z
1/2-x,1/2+y,1/2+z
1/2+x,1/2-y,1/2+z
loop_
_atom_site_type_symbol
_atom_site_label
_atom_site_fract_x
_atom_site_fract_y
_atom_site_fract_z
Si Si1 0.000000 0.330946 0.395339
Si Si2 0.500000 0.556989 0.763782
Si Si3 0.000000 0.142826 0.117692
Si Si4 0.260963 0.057639 0.611183
Si Si5 0.500000 0.789961 0.598267
Si Si6 0.724175 0.719360 0.345619
Si Si7 0.000000 0.615270 0.210595
O O1 0.130766 0.295220 0.388050
O O2 0.000000 0.355727 0.500000
O O3 0.000000 0.379859 0.326006
O O4 0.500000 0.500000 0.729798
O O5 0.500000 0.588021 0.665016
O O6 0.376260 0.569038 0.833915
O O7 0.866031 0.169172 0.161759
O O8 0.000000 0.140002 0.000000
O O9 0.250013 0.074555 0.500000
O O10 0.369965 0.089368 0.668069
O O11 0.302575 0.000000 0.616492
O O12 0.500000 0.822563 0.500000
O O13 0.365718 0.756148 0.590062
O O14 0.500000 0.825682 0.688898
O O15 0.750000 0.750000 0.250000
#
# Coordination Sequence:
#
# PCOD8291949 Si02
#       7
#     8   8   8  16   8  16   8
#     4  12  23  38  60  83 115 156 197 240 291 347
#     4  10  22  39  64  93 123 157 203 260 302 356
#     4  11  23  41  64  86 124 172 206 244 308 367
#     4  10  21  39  62  87 118 155 192 239 307 370
#     4  11  22  37  57  82 116 152 190 243 298 352
#     4  11  21  40  59  83 116 158 202 248 293 355
#     4  12  22  37  58  87 118 149 197 244 290 358
#
# _framework density 19.527719999999999
#
# number of rings (size 3 to 8) (size 9 to 14) (size 15 to 20)
#    0.000    1.111    2.222    6.333    0.000    2.444 
#    0.000    0.000    0.000    2.667    0.000    0.000 
#    0.000    0.000    0.000    0.000    0.000    0.000 
#
# Total GULP energy -446041.446470 kJ/mol
# GULP energy per Si atom -12390.040180 kJ/mol
# Density = 1.948327 g / cm^3
# Si number density = 19.527720 Si / 1000 Ang^3
#
#
#
# Elastic Constant Matrix: (Units=GPa)
#
#
# Indices 1 2 3 4 5 6 
#
# 1 166.8429 61.9885 56.6202 0.0000 0.0000 0.0000
# 2 61.9885 96.1674 67.7547 0.0000 -0.0001 0.0000
# 3 56.6202 67.7547 170.3422 -0.0005 -0.0001 0.0003
# 4 0.0000 0.0000 -0.0005 35.5995 -0.0001 0.0001
# 5 0.0000 -0.0001 -0.0001 -0.0001 -45.0841 -0.0001
# 6 0.0000 0.0000 0.0003 0.0001 -0.0001 40.8239
#
#
#
# Elastic Compliance Matrix: (Units=1/GPa)
#
#
# Indices 1 2 3 4 5 6 
#
# 1 0.007967 -0.004543 -0.000841 0.000000 0.000000 0.000000
# 2 -0.004543 0.017037 -0.005267 0.000000 0.000000 0.000000
# 3 -0.000841 -0.005267 0.008245 0.000000 0.000000 0.000000
# 4 0.000000 0.000000 0.000000 0.028090 0.000000 0.000000
# 5 0.000000 0.000000 0.000000 0.000000 -0.022181 0.000000
# 6 0.000000 0.000000 0.000000 0.000000 0.000000 0.024495
#
#
# Mechanical properties :
#
#
# Convention : Reuss Voigt Hill
#
# Bulk Modulus (GPa) = 83.69645 89.56438 86.63041
# Shear Modulus (GPa) = 56.21855 22.73378 39.47617
#
# Velocity S-wave (km/s) = 5.37137 3.41571 4.50104
# Velocity P-wave (km/s) = 9.02342 7.84353 8.45408
#
# Compressibility (1/GPa) = 0.01194794
#
# Stress axis : x y z
#
# Youngs Moduli (GPa) = 125.51868 58.69425 121.28468
#
# Poissons Ratio (x) = 0.26663 0.10203
# Poissons Ratio (y) = 0.57019 0.63878
# Poissons Ratio (z) = 0.10559 0.30913
#
# Static dielectric constant tensor:
#      x y z
#    x 3.638480 0.000000 -0.000010 
#    y 0.000000 3.519610 0.000000 
#    z -0.000010 0.000000 3.916240 
# 
# 
# High freq. dielectric constant tensor:
#      x y z
#    x 1.780620 0.000000 0.000000 
#    y 0.000000 1.747280 0.000000 
#    z 0.000000 0.000000 1.769590 
# 
# From -- ./inp_files/16448.got.cif
#   From: 2010.06.25/outbox.cif.g09.slc.cpg/sg71_9_cif.got.tgz:16448.got - 2010.06.28 04:59:45.
