data_PCOD8291542
_publ_section_title
;
Structure prediction by ZEFSAII (Michael W. Deem and Ramdas Pophale) SiO2 
 PCOD8291542
Probable space group: I M M M
;
_chemical_formula_sum "Si O2"
_cell_formula_units_Z 112
_cell_length_a 14.680793
_cell_length_b 27.251190
_cell_length_c 14.108570
_cell_angle_alpha 90.000000
_cell_angle_beta 90.000000
_cell_angle_gamma 90.000000
_cell_volume 5644.402611
_symmetry_space_group_name_H-M "I M M M"
_symmetry_group_IT_number 71
_symmetry_cell_setting 'orthorhombic'
loop_
_space_group_symop_operation_xyz
x,y,z
-x,-y,z
x,-y,-z
-x,y,-z
-x,-y,-z
x,y,-z
-x,y,z
x,-y,z
1/2+x,1/2+y,1/2+z
1/2-x,1/2-y,1/2+z
1/2+x,1/2-y,1/2-z
1/2-x,1/2+y,1/2-z
1/2-x,1/2-y,1/2-z
1/2+x,1/2+y,1/2-z
1/2-x,1/2+y,1/2+z
1/2+x,1/2-y,1/2+z
loop_
_atom_site_type_symbol
_atom_site_label
_atom_site_fract_x
_atom_site_fract_y
_atom_site_fract_z
Si Si1 0.216451 0.148608 0.387459
Si Si2 0.398233 0.106199 0.106950
Si Si3 0.099434 0.672976 0.779501
Si Si4 0.395759 0.641757 0.611620
Si Si5 0.721015 0.552894 0.610953
Si Si6 0.654771 0.723905 0.251688
Si Si7 0.102328 0.945055 0.387724
O O1 0.215738 0.155139 0.500000
O O2 0.320394 0.156330 0.350931
O O3 0.148496 0.189638 0.342158
O O4 0.177210 0.095397 0.354827
O O5 0.500000 0.084661 0.119478
O O6 0.378896 0.151317 0.176199
O O7 0.327337 0.063168 0.130794
O O8 0.382541 0.125875 0.000000
O O9 0.084818 0.731300 0.761745
O O10 0.000000 0.654206 0.817320
O O11 0.381835 0.646170 0.500000
O O12 0.500000 0.636041 0.641239
O O13 0.343444 0.594675 0.655401
O O14 0.353631 0.690509 0.655495
O O15 0.701020 0.550939 0.500000
O O16 0.697048 0.500000 0.656608
O O17 0.750000 0.750000 0.250000
O O18 0.099215 0.944394 0.500000
O O19 0.000000 0.932358 0.349911
O O20 0.131203 0.000000 0.353012
#
# Coordination Sequence:
#
# PCOD8291542 Si02
#       7
#    16  16  16  16  16  16  16
#     4  10  21  36  55  81 111 143 179 221 270 322
#     4   9  18  34  56  80 107 141 181 225 273 321
#     4  10  21  37  56  79 109 144 181 223 270 320
#     4  10  21  37  57  80 109 146 182 217 264 324
#     4   9  17  30  51  79 109 142 180 220 263 316
#     4  10  21  36  53  76 105 137 176 223 265 308
#     4   8  15  31  56  82 106 136 176 221 270 322
#
# _framework density 19.842666000000001
#
# number of rings (size 3 to 8) (size 9 to 14) (size 15 to 20)
#    0.000    2.571    0.000    2.571    0.000    4.857 
#    0.000    5.714    0.000    1.286    0.000    2.000 
#    0.000    0.000    0.000    0.000    0.000    0.000 
#
# Total GULP energy -693822.685665 kJ/mol
# GULP energy per Si atom -12389.690815 kJ/mol
# Density = 1.979750 g / cm^3
# Si number density = 19.842666 Si / 1000 Ang^3
#
#
#
# Elastic Constant Matrix: (Units=GPa)
#
#
# Indices 1 2 3 4 5 6 
#
# 1 118.8893 63.5072 37.0447 0.0000 0.0000 0.0000
# 2 63.5072 151.9344 44.7358 0.0002 0.0000 0.0000
# 3 37.0447 44.7358 63.3773 0.0018 -0.0002 0.0000
# 4 0.0000 0.0002 0.0018 11.2421 0.0000 0.0000
# 5 0.0000 0.0000 -0.0002 0.0000 22.7271 0.0000
# 6 0.0000 0.0000 0.0000 0.0000 0.0000 21.5713
#
#
#
# Elastic Compliance Matrix: (Units=1/GPa)
#
#
# Indices 1 2 3 4 5 6 
#
# 1 0.011677 -0.003624 -0.004267 0.000001 0.000000 0.000000
# 2 -0.003624 0.009434 -0.004540 0.000001 0.000000 0.000000
# 3 -0.004267 -0.004540 0.021477 -0.000003 0.000000 0.000000
# 4 0.000001 0.000001 -0.000003 0.088951 0.000000 0.000000
# 5 0.000000 0.000000 0.000000 0.000000 0.044000 0.000000
# 6 0.000000 0.000000 0.000000 0.000000 0.000000 0.046358
#
#
# Mechanical properties :
#
#
# Convention : Reuss Voigt Hill
#
# Bulk Modulus (GPa) = 56.41888 69.41960 62.91924
# Shear Modulus (GPa) = 19.78876 23.70232 21.74554
#
# Velocity S-wave (km/s) = 3.16141 3.45992 3.31403
# Velocity P-wave (km/s) = 6.46690 7.14300 6.81334
#
# Compressibility (1/GPa) = 0.01772456
#
# Stress axis : x y z
#
# Youngs Moduli (GPa) = 85.64021 106.00365 46.56062
#
# Poissons Ratio (x) = 0.38421 0.19867
# Poissons Ratio (y) = 0.31040 0.21140
# Poissons Ratio (z) = 0.36541 0.48129
#
# Static dielectric constant tensor:
#      x y z
#    x 3.790050 -0.000010 0.000000 
#    y -0.000010 5.872480 0.000020 
#    z 0.000000 0.000020 3.487000 
# 
# 
# High freq. dielectric constant tensor:
#      x y z
#    x 1.779610 0.000000 0.000000 
#    y 0.000000 1.775400 0.000000 
#    z 0.000000 0.000000 1.758610 
# 
# From -- ./inp_files/35126.got.cif
#   From: 2010.06.25/outbox.cif.g09.slc.cpg/sg71_18_cif.got.tgz:35126.got - 2010.06.28 04:59:45.
