data_PCOD8292709
_publ_section_title
;
Structure prediction by ZEFSAII (Michael W. Deem and Ramdas Pophale) SiO2 
 PCOD8292709
Probable space group: I M M M
;
_chemical_formula_sum "Si O2"
_cell_formula_units_Z 88
_cell_length_a 25.412770
_cell_length_b 27.813479
_cell_length_c 9.292785
_cell_angle_alpha 90.000000
_cell_angle_beta 90.000000
_cell_angle_gamma 90.000000
_cell_volume 6568.303477
_symmetry_space_group_name_H-M "I M M M"
_symmetry_group_IT_number 71
_symmetry_cell_setting 'orthorhombic'
loop_
_space_group_symop_operation_xyz
x,y,z
-x,-y,z
x,-y,-z
-x,y,-z
-x,-y,-z
x,y,-z
-x,y,z
x,-y,z
1/2+x,1/2+y,1/2+z
1/2-x,1/2-y,1/2+z
1/2+x,1/2-y,1/2-z
1/2-x,1/2+y,1/2-z
1/2-x,1/2-y,1/2-z
1/2+x,1/2+y,1/2-z
1/2-x,1/2+y,1/2+z
1/2+x,1/2-y,1/2+z
loop_
_atom_site_type_symbol
_atom_site_label
_atom_site_fract_x
_atom_site_fract_y
_atom_site_fract_z
Si Si1 0.559138 0.500000 0.828970
Si Si2 0.722049 0.138836 0.159336
Si Si3 0.341052 0.324834 0.664575
Si Si4 0.868201 0.085934 0.331652
Si Si5 0.750598 0.053148 0.666903
Si Si6 0.804158 0.740642 0.670051
O O1 0.500000 0.500000 0.767022
O O2 0.588706 0.452089 0.775445
O O3 0.559778 0.500000 0.000000
O O4 0.780961 0.158678 0.173675
O O5 0.712981 0.093445 0.262822
O O6 0.682678 0.183723 0.192376
O O7 0.711810 0.119257 0.000000
O O8 0.359392 0.317230 0.500000
O O9 0.376830 0.365360 0.740726
O O10 0.347689 0.274800 0.754053
O O11 0.874735 0.097920 0.500000
O O12 0.811457 0.063143 0.299824
O O13 0.738836 0.055478 0.500000
O O14 0.736825 0.000000 0.727075
O O15 0.799124 0.752807 0.500000
O O16 0.750000 0.750000 0.750000
#
# Coordination Sequence:
#
# PCOD8292709 Si02
#       6
#     8  16  16  16  16  16
#     4   9  16  26  41  57  69  83 107 139 173 213
#     4   8  15  23  30  43  61  79  99 123 152 186
#     4   9  16  24  34  48  63  79 101 125 155 193
#     4   9  15  25  38  50  64  80 102 131 165 202
#     4   9  15  22  32  45  60  80 106 133 159 189
#     4   9  15  23  33  46  64  82 101 123 152 189
#
# _framework density 13.397676000000001
#
# number of rings (size 3 to 8) (size 9 to 14) (size 15 to 20)
#    0.000    3.182    0.909    2.182    0.000    5.455 
#    0.000    0.455    0.000    1.091    0.000    0.000 
#    0.000    0.000    0.000    0.000    0.000    0.000 
#
# Total GULP energy -545148.801231 kJ/mol
# GULP energy per Si atom -12389.745483 kJ/mol
# Density = 1.336718 g / cm^3
# Si number density = 13.397676 Si / 1000 Ang^3
#
#
#
# Elastic Constant Matrix: (Units=GPa)
#
#
# Indices 1 2 3 4 5 6 
#
# 1 19.8165 30.9724 15.5686 0.0000 0.0000 0.0000
# 2 30.9724 135.3884 63.5112 0.0000 0.0000 0.0000
# 3 15.5686 63.5112 73.9914 0.0000 0.0000 0.0000
# 4 0.0000 0.0000 0.0000 26.5885 0.0000 0.0000
# 5 0.0000 0.0000 0.0000 0.0000 5.2998 0.0000
# 6 0.0000 0.0000 0.0000 0.0000 0.0000 8.7734
#
#
#
# Elastic Compliance Matrix: (Units=1/GPa)
#
#
# Indices 1 2 3 4 5 6 
#
# 1 0.078699 -0.017136 -0.001851 0.000000 0.000000 0.000000
# 2 -0.017136 0.016096 -0.010211 0.000000 0.000000 0.000000
# 3 -0.001851 -0.010211 0.022669 0.000000 0.000000 0.000000
# 4 0.000000 0.000000 0.000000 0.037610 0.000000 0.000000
# 5 0.000000 0.000000 0.000000 0.000000 0.188686 0.000000
# 6 0.000000 0.000000 0.000000 0.000000 0.000000 0.113981
#
#
# Mechanical properties :
#
#
# Convention : Reuss Voigt Hill
#
# Bulk Modulus (GPa) = 16.92901 49.92231 33.42566
# Shear Modulus (GPa) = 9.33139 16.07529 12.70334
#
# Velocity S-wave (km/s) = 2.64198 3.46765 3.08259
# Velocity P-wave (km/s) = 4.68721 7.30586 6.13782
#
# Compressibility (1/GPa) = 0.05907019
#
# Stress axis : x y z
#
# Youngs Moduli (GPa) = 12.70661 62.12682 44.11329
#
# Poissons Ratio (x) = 1.06458 0.08164
# Poissons Ratio (y) = 0.21774 0.45043
# Poissons Ratio (z) = 0.02352 0.63436
#
# Static dielectric constant tensor:
#      x y z
#    x 2.150100 0.000000 0.000000 
#    y 0.000000 3.231220 0.000000 
#    z 0.000000 0.000000 2.723100 
# 
# 
# High freq. dielectric constant tensor:
#      x y z
#    x 1.417390 0.000000 0.000000 
#    y 0.000000 1.526480 0.000000 
#    z 0.000000 0.000000 1.513820 
# 
# From -- ./inp_files/11329.got.cif
#   From: 2010.06.25/outbox.cif.g09.slc.cpg/sg71_6_cif.got.tgz:11329.got - 2010.06.28 04:59:45.
