data_PCOD8292278
_publ_section_title
;
Structure prediction by ZEFSAII (Michael W. Deem and Ramdas Pophale) SiO2 
 PCOD8292278
Probable space group: I M M M
;
_chemical_formula_sum "Si O2"
_cell_formula_units_Z 120
_cell_length_a 25.047718
_cell_length_b 11.041120
_cell_length_c 27.477400
_cell_angle_alpha 90.000000
_cell_angle_beta 90.000000
_cell_angle_gamma 90.000000
_cell_volume 7599.008515
_symmetry_space_group_name_H-M "I M M M"
_symmetry_group_IT_number 71
_symmetry_cell_setting 'orthorhombic'
loop_
_space_group_symop_operation_xyz
x,y,z
-x,-y,z
x,-y,-z
-x,y,-z
-x,-y,-z
x,y,-z
-x,y,z
x,-y,z
1/2+x,1/2+y,1/2+z
1/2-x,1/2-y,1/2+z
1/2+x,1/2-y,1/2-z
1/2-x,1/2+y,1/2-z
1/2-x,1/2-y,1/2-z
1/2+x,1/2+y,1/2-z
1/2-x,1/2+y,1/2+z
1/2+x,1/2-y,1/2+z
loop_
_atom_site_type_symbol
_atom_site_label
_atom_site_fract_x
_atom_site_fract_y
_atom_site_fract_z
Si Si1 0.937349 0.729035 0.883498
Si Si2 0.711995 0.136372 0.759667
Si Si3 0.063157 0.500000 0.054621
Si Si4 0.597891 0.861401 0.282120
Si Si5 0.441211 0.144469 0.820859
Si Si6 0.336586 0.862161 0.134679
Si Si7 0.759111 0.643626 0.554915
Si Si8 0.858746 0.858962 0.053238
O O1 0.917232 0.615078 0.914992
O O2 0.922681 0.717126 0.827147
O O3 0.903390 0.838355 0.905842
O O4 0.000000 0.754676 0.889609
O O5 0.750000 0.250000 0.750000
O O6 0.661422 0.150229 0.724062
O O7 0.695473 0.145848 0.815421
O O8 0.737063 0.000000 0.751038
O O9 0.000000 0.500000 0.051418
O O10 0.087683 0.500000 0.000000
O O11 0.568661 0.809248 0.234121
O O12 0.580906 0.000000 0.291720
O O13 0.500000 0.185351 0.838726
O O14 0.395659 0.197538 0.857268
O O15 0.435215 0.000000 0.819215
O O16 0.302414 0.796687 0.092057
O O17 0.345772 0.000000 0.118934
O O18 0.775501 0.678997 0.500000
O O19 0.759340 0.500000 0.562197
O O20 0.699783 0.695388 0.567071
O O21 0.850202 0.000000 0.048199
O O22 0.876808 0.807868 0.000000
#
# Coordination Sequence:
#
# PCOD8292278 Si02
#       8
#    16  16   8  16  16  16  16  16
#     4  11  20  29  44  62  81 108 141 180 223 264
#     4   9  18  30  45  66  92 118 147 183 224 267
#     4   9  18  30  42  58  78 102 136 174 212 256
#     4   9  17  29  42  62  87 110 140 175 213 258
#     4   8  13  22  38  57  82 112 138 166 201 250
#     4   8  14  24  39  61  84 108 139 176 216 256
#     4   8  14  26  43  60  79 105 141 182 219 259
#     4   9  19  33  45  58  77 107 148 188 227 267
#
# _framework density 15.791532999999999
#
# number of rings (size 3 to 8) (size 9 to 14) (size 15 to 20)
#    0.000    3.133    0.667    3.200    1.867    1.600 
#    0.000    0.667    0.000    0.400    0.000    2.800 
#    0.000    4.800    0.000    0.000    0.000    0.000 
#
# Total GULP energy -743299.446152 kJ/mol
# GULP energy per Si atom -12388.324103 kJ/mol
# Density = 1.575559 g / cm^3
# Si number density = 15.791533 Si / 1000 Ang^3
#
#
#
# Elastic Constant Matrix: (Units=GPa)
#
#
# Indices 1 2 3 4 5 6 
#
# 1 117.2994 25.8843 64.9000 0.0000 0.0000 0.0000
# 2 25.8843 27.8879 9.1913 0.0000 0.0000 0.0000
# 3 64.9000 9.1913 94.6794 0.0000 0.0000 0.0000
# 4 0.0000 0.0000 0.0000 15.2066 0.0000 0.0000
# 5 0.0000 0.0000 0.0000 0.0000 24.4946 0.0000
# 6 0.0000 0.0000 0.0000 0.0000 0.0000 13.3531
#
#
#
# Elastic Compliance Matrix: (Units=1/GPa)
#
#
# Indices 1 2 3 4 5 6 
#
# 1 0.017063 -0.012379 -0.010495 0.000000 0.000000 0.000000
# 2 -0.012379 0.046023 0.004017 0.000000 0.000000 0.000000
# 3 -0.010495 0.004017 0.017366 0.000000 0.000000 0.000000
# 4 0.000000 0.000000 0.000000 0.065761 0.000000 0.000000
# 5 0.000000 0.000000 0.000000 0.000000 0.040825 0.000000
# 6 0.000000 0.000000 0.000000 0.000000 0.000000 0.074889
#
#
# Mechanical properties :
#
#
# Convention : Reuss Voigt Hill
#
# Bulk Modulus (GPa) = 23.39714 48.86864 36.13289
# Shear Modulus (GPa) = 15.92934 19.93693 17.93313
#
# Velocity S-wave (km/s) = 3.17949 3.55703 3.37355
# Velocity P-wave (km/s) = 5.32234 6.91977 6.17295
#
# Compressibility (1/GPa) = 0.04274026
#
# Stress axis : x y z
#
# Youngs Moduli (GPa) = 58.60518 21.72822 57.58438
#
# Poissons Ratio (x) = 0.26896 0.60433
# Poissons Ratio (y) = 0.72545 -0.23133
# Poissons Ratio (z) = 0.61505 -0.08729
#
# Static dielectric constant tensor:
#      x y z
#    x 3.170530 0.000000 0.000000 
#    y 0.000000 2.555090 0.000000 
#    z 0.000000 0.000000 3.082340 
# 
# 
# High freq. dielectric constant tensor:
#      x y z
#    x 1.606970 0.000000 0.000000 
#    y 0.000000 1.545150 0.000000 
#    z 0.000000 0.000000 1.605220 
# 
# From -- ./inp_files/62430.got.cif
#   From: 2010.06.25/outbox.cif.g09.slc.cpg/sg71_32_cif.got.tgz:62430.got - 2010.06.28 04:59:45.
