data_PCOD8292461
_publ_section_title
;
Structure prediction by ZEFSAII (Michael W. Deem and Ramdas Pophale) SiO2 
 PCOD8292461
Probable space group: I M M M
;
_chemical_formula_sum "Si O2"
_cell_formula_units_Z 104
_cell_length_a 22.552242
_cell_length_b 14.426282
_cell_length_c 16.562268
_cell_angle_alpha 90.000000
_cell_angle_beta 90.000000
_cell_angle_gamma 90.000000
_cell_volume 5388.451129
_symmetry_space_group_name_H-M "I M M M"
_symmetry_group_IT_number 71
_symmetry_cell_setting 'orthorhombic'
loop_
_space_group_symop_operation_xyz
x,y,z
-x,-y,z
x,-y,-z
-x,y,-z
-x,-y,-z
x,y,-z
-x,y,z
x,-y,z
1/2+x,1/2+y,1/2+z
1/2-x,1/2-y,1/2+z
1/2+x,1/2-y,1/2-z
1/2-x,1/2+y,1/2-z
1/2-x,1/2-y,1/2-z
1/2+x,1/2+y,1/2-z
1/2-x,1/2+y,1/2+z
1/2+x,1/2-y,1/2+z
loop_
_atom_site_type_symbol
_atom_site_label
_atom_site_fract_x
_atom_site_fract_y
_atom_site_fract_z
Si Si1 0.567342 0.597336 0.246724
Si Si2 0.433737 0.104779 0.095335
Si Si3 0.354015 0.247091 0.815810
Si Si4 0.070031 0.500000 0.904525
Si Si5 0.273249 0.606534 0.092612
Si Si6 0.566282 0.677708 0.411957
Si Si7 0.147038 0.664094 0.855692
O O1 0.500000 0.594570 0.220174
O O2 0.597729 0.500000 0.219464
O O3 0.592336 0.685376 0.202767
O O4 0.574841 0.600987 0.343482
O O5 0.500000 0.134163 0.126083
O O6 0.380469 0.169875 0.125238
O O7 0.420338 0.000000 0.124545
O O8 0.432934 0.109808 0.000000
O O9 0.303430 0.311892 0.854746
O O10 0.332665 0.195891 0.734218
O O11 0.095943 0.587094 0.855689
O O12 0.000000 0.500000 0.893996
O O13 0.087480 0.500000 0.000000
O O14 0.287123 0.500000 0.121698
O O15 0.203261 0.623287 0.097893
O O16 0.293896 0.617376 0.000000
O O17 0.572168 0.630532 0.500000
O O18 0.500000 0.723161 0.402880
O O19 0.618819 0.751619 0.404857
#
# Coordination Sequence:
#
# PCOD8292461 Si02
#       7
#    16  16  16   8  16  16  16
#     4   9  18  32  50  75 108 142 178 226 280 329
#     4   9  19  36  58  84 114 147 183 229 287 350
#     4  11  22  36  56  83 112 147 188 238 289 347
#     4  11  22  36  58  88 123 159 194 234 287 354
#     4  11  23  40  61  80 107 150 201 248 290 346
#     4   9  17  30  50  76 107 143 182 222 272 339
#     4  11  22  36  54  82 115 149 186 238 294 343
#
# _framework density 19.300536000000001
#
# number of rings (size 3 to 8) (size 9 to 14) (size 15 to 20)
#    0.000    1.923    0.769    4.154    1.077    3.385 
#    0.000    1.538    0.000    0.923    0.000    6.462 
#    0.000    0.000    0.000    0.000    0.000    0.000 
#
# Total GULP energy -644287.954038 kJ/mol
# GULP energy per Si atom -12390.152962 kJ/mol
# Density = 1.925661 g / cm^3
# Si number density = 19.300536 Si / 1000 Ang^3
#
#
#
# Elastic Constant Matrix: (Units=GPa)
#
#
# Indices 1 2 3 4 5 6 
#
# 1 79.0038 38.3067 26.5626 0.0000 0.0000 0.0000
# 2 38.3067 99.0652 29.5446 0.0000 0.0000 0.0000
# 3 26.5626 29.5446 69.0482 0.0000 0.0000 0.0000
# 4 0.0000 0.0000 0.0000 18.4903 0.0000 0.0000
# 5 0.0000 0.0000 0.0000 0.0000 23.5690 0.0000
# 6 0.0000 0.0000 0.0000 0.0000 0.0000 23.1131
#
#
#
# Elastic Compliance Matrix: (Units=1/GPa)
#
#
# Indices 1 2 3 4 5 6 
#
# 1 0.016560 -0.005162 -0.004162 0.000000 0.000000 0.000000
# 2 -0.005162 0.013180 -0.003654 0.000000 0.000000 0.000000
# 3 -0.004162 -0.003654 0.017647 0.000000 0.000000 0.000000
# 4 0.000000 0.000000 0.000000 0.054082 0.000000 0.000000
# 5 0.000000 0.000000 0.000000 0.000000 0.042429 0.000000
# 6 0.000000 0.000000 0.000000 0.000000 0.000000 0.043265
#
#
# Mechanical properties :
#
#
# Convention : Reuss Voigt Hill
#
# Bulk Modulus (GPa) = 46.65967 48.43835 47.54901
# Shear Modulus (GPa) = 22.70018 23.21471 22.95744
#
# Velocity S-wave (km/s) = 3.43321 3.47190 3.45261
# Velocity P-wave (km/s) = 6.32011 6.42056 6.37053
#
# Compressibility (1/GPa) = 0.02143179
#
# Stress axis : x y z
#
# Youngs Moduli (GPa) = 60.38690 75.87167 56.66696
#
# Poissons Ratio (x) = 0.39167 0.23583
# Poissons Ratio (y) = 0.31173 0.20704
# Poissons Ratio (z) = 0.25131 0.27721
#
# Static dielectric constant tensor:
#      x y z
#    x 3.461710 0.000000 0.000000 
#    y 0.000000 3.696320 0.000000 
#    z 0.000000 0.000000 3.499690 
# 
# 
# High freq. dielectric constant tensor:
#      x y z
#    x 1.740150 0.000000 0.000000 
#    y 0.000000 1.756700 0.000000 
#    z 0.000000 0.000000 1.747600 
# 
# From -- ./inp_files/39269.got.cif
#   From: 2010.06.25/outbox.cif.g09.slc.cpg/sg71_20_cif.got.tgz:39269.got - 2010.06.28 04:59:45.
