data_PCOD8292106
_publ_section_title
;
Structure prediction by ZEFSAII (Michael W. Deem and Ramdas Pophale) SiO2 
 PCOD8292106
Probable space group: I M M M
;
_chemical_formula_sum "Si O2"
_cell_formula_units_Z 96
_cell_length_a 23.088075
_cell_length_b 22.643706
_cell_length_c 9.345363
_cell_angle_alpha 90.000000
_cell_angle_beta 90.000000
_cell_angle_gamma 90.000000
_cell_volume 4885.751874
_symmetry_space_group_name_H-M "I M M M"
_symmetry_group_IT_number 71
_symmetry_cell_setting 'orthorhombic'
loop_
_space_group_symop_operation_xyz
x,y,z
-x,-y,z
x,-y,-z
-x,y,-z
-x,-y,-z
x,y,-z
-x,y,z
x,-y,z
1/2+x,1/2+y,1/2+z
1/2-x,1/2-y,1/2+z
1/2+x,1/2-y,1/2-z
1/2-x,1/2+y,1/2-z
1/2-x,1/2-y,1/2-z
1/2+x,1/2+y,1/2-z
1/2-x,1/2+y,1/2+z
1/2+x,1/2-y,1/2+z
loop_
_atom_site_type_symbol
_atom_site_label
_atom_site_fract_x
_atom_site_fract_y
_atom_site_fract_z
Si Si1 0.388340 0.877148 0.333212
Si Si2 0.500000 0.879815 0.838208
Si Si3 0.434661 0.430269 0.162323
Si Si4 0.232064 0.567961 0.833404
Si Si5 0.332877 0.372880 0.335991
Si Si6 0.392239 0.257136 0.338209
Si Si7 0.000000 0.239381 0.659939
O O1 0.403398 0.884210 0.500000
O O2 0.442656 0.902129 0.243675
O O3 0.333206 0.915952 0.288970
O O4 0.373782 0.808995 0.293765
O O5 0.500000 0.809691 0.836367
O O6 0.500000 0.904652 0.000000
O O7 0.500000 0.406710 0.192488
O O8 0.432970 0.500000 0.183734
O O9 0.390388 0.402027 0.272844
O O10 0.416213 0.414271 0.000000
O O11 0.244046 0.500000 0.795969
O O12 0.275613 0.608535 0.746443
O O13 0.241950 0.580912 0.000000
O O14 0.327296 0.393025 0.500000
O O15 0.337961 0.301543 0.323534
O O16 0.416279 0.256538 0.500000
O O17 0.442631 0.283454 0.238107
O O18 0.000000 0.213877 0.500000
#
# Coordination Sequence:
#
# PCOD8292106 Si02
#       7
#    16   8  16  16  16  16   8
#     4   9  18  36  60  81 107 146 182 214 263 323
#     4   9  17  31  54  86 117 139 167 214 265 314
#     4   9  19  36  55  74 100 138 184 231 273 313
#     4  10  22  40  60  80 103 137 185 233 271 315
#     4  11  23  35  51  78 110 143 179 221 271 325
#     4   9  19  34  51  76 111 146 177 215 265 323
#     4   9  17  29  49  78 109 142 180 216 257 311
#
# _framework density 19.648969999999998
#
# number of rings (size 3 to 8) (size 9 to 14) (size 15 to 20)
#    0.000    2.500    0.000    2.000    1.167    7.667 
#    0.000    1.250    0.000    2.500    0.000    0.000 
#    0.000    0.000    0.000    0.000    0.000    0.000 
#
# Total GULP energy -595223.004201 kJ/mol
# GULP energy per Si atom -12400.479254 kJ/mol
# Density = 1.960425 g / cm^3
# Si number density = 19.648970 Si / 1000 Ang^3
#
#
#
# Elastic Constant Matrix: (Units=GPa)
#
#
# Indices 1 2 3 4 5 6 
#
# 1 100.2819 14.5948 56.9393 0.0000 0.0000 0.0000
# 2 14.5948 25.8603 24.4095 0.0000 0.0000 0.0000
# 3 56.9393 24.4095 96.0888 0.0000 0.0000 0.0000
# 4 0.0000 0.0000 0.0000 20.0375 0.0000 0.0000
# 5 0.0000 0.0000 0.0000 0.0000 34.5323 0.0000
# 6 0.0000 0.0000 0.0000 0.0000 0.0000 31.2004
#
#
#
# Elastic Compliance Matrix: (Units=1/GPa)
#
#
# Indices 1 2 3 4 5 6 
#
# 1 0.015028 -0.000100 -0.008880 0.000000 0.000000 0.000000
# 2 -0.000100 0.050867 -0.012863 0.000000 0.000000 0.000000
# 3 -0.008880 -0.012863 0.018937 0.000000 0.000000 0.000000
# 4 0.000000 0.000000 0.000000 0.049906 0.000000 0.000000
# 5 0.000000 0.000000 0.000000 0.000000 0.028958 0.000000
# 6 0.000000 0.000000 0.000000 0.000000 0.000000 0.032051
#
#
# Mechanical properties :
#
#
# Convention : Reuss Voigt Hill
#
# Bulk Modulus (GPa) = 24.30321 46.01313 35.15817
# Shear Modulus (GPa) = 19.75133 25.57320 22.66227
#
# Velocity S-wave (km/s) = 3.17394 3.61155 3.39979
# Velocity P-wave (km/s) = 5.08207 6.39214 5.77438
#
# Compressibility (1/GPa) = 0.04114683
#
# Stress axis : x y z
#
# Youngs Moduli (GPa) = 66.54052 19.65929 52.80789
#
# Poissons Ratio (x) = 0.00196 0.46894
# Poissons Ratio (y) = 0.00664 0.67924
# Poissons Ratio (z) = 0.59088 0.25287
#
# Static dielectric constant tensor:
#      x y z
#    x 3.486030 0.000000 0.000000 
#    y 0.000000 3.513630 0.000000 
#    z 0.000000 0.000000 3.632630 
# 
# 
# High freq. dielectric constant tensor:
#      x y z
#    x 1.758720 0.000000 0.000000 
#    y 0.000000 1.760310 0.000000 
#    z 0.000000 0.000000 1.763550 
# 
# From -- ./inp_files/12902.got.cif
#   From: 2010.06.25/outbox.cif.g09.slc.cpg/sg71_7_cif.got.tgz:12902.got - 2010.06.28 04:59:45.
