data_PCOD8292108
_publ_section_title
;
Structure prediction by ZEFSAII (Michael W. Deem and Ramdas Pophale) SiO2 
 PCOD8292108
Probable space group: I M M M
;
_chemical_formula_sum "Si O2"
_cell_formula_units_Z 112
_cell_length_a 26.063235
_cell_length_b 13.875452
_cell_length_c 14.500549
_cell_angle_alpha 90.000000
_cell_angle_beta 90.000000
_cell_angle_gamma 90.000000
_cell_volume 5243.966450
_symmetry_space_group_name_H-M "I M M M"
_symmetry_group_IT_number 71
_symmetry_cell_setting 'orthorhombic'
loop_
_space_group_symop_operation_xyz
x,y,z
-x,-y,z
x,-y,-z
-x,y,-z
-x,-y,-z
x,y,-z
-x,y,z
x,-y,z
1/2+x,1/2+y,1/2+z
1/2-x,1/2-y,1/2+z
1/2+x,1/2-y,1/2-z
1/2-x,1/2+y,1/2-z
1/2-x,1/2-y,1/2-z
1/2+x,1/2+y,1/2-z
1/2-x,1/2+y,1/2+z
1/2+x,1/2-y,1/2+z
loop_
_atom_site_type_symbol
_atom_site_label
_atom_site_fract_x
_atom_site_fract_y
_atom_site_fract_z
Si Si1 0.404118 0.889097 0.106181
Si Si2 0.557678 0.762273 0.397974
Si Si3 0.849240 0.886205 0.603299
Si Si4 0.154012 0.607520 0.895152
Si Si5 0.442835 0.706551 0.200701
Si Si6 0.287004 0.114718 0.099833
Si Si7 0.248608 0.115301 0.289440
O O1 0.436736 0.819086 0.172167
O O2 0.345538 0.852557 0.116358
O O3 0.411115 0.000000 0.138431
O O4 0.421994 0.878524 0.000000
O O5 0.566199 0.713237 0.500000
O O6 0.500000 0.806384 0.394167
O O7 0.599116 0.844629 0.382074
O O8 0.564441 0.690144 0.311412
O O9 0.847051 0.843395 0.500000
O O10 0.903266 0.861019 0.648408
O O11 0.801762 0.840754 0.661145
O O12 0.843761 0.000000 0.600870
O O13 0.146052 0.500000 0.858268
O O14 0.199846 0.656437 0.837171
O O15 0.172719 0.609558 0.000000
O O16 0.500000 0.673524 0.172576
O O17 0.250175 0.151445 0.182732
O O18 0.287296 0.000000 0.098536
O O19 0.266875 0.152941 0.000000
O O20 0.247280 0.000000 0.296485
#
# Coordination Sequence:
#
# PCOD8292108 Si02
#       7
#    16  16  16  16  16  16  16
#     4   9  18  33  53  80 116 152 182 216 262 316
#     4   9  19  35  52  73 107 147 181 219 266 311
#     4  10  22  40  60  82 108 136 170 220 281 333
#     4   9  16  27  48  78 109 144 186 224 259 308
#     4  11  23  38  58  81 105 139 183 226 271 327
#     4   8  14  26  46  73 108 149 183 210 248 303
#     4   9  16  29  51  76 104 138 175 219 271 320
#
# _framework density 21.357877999999999
#
# number of rings (size 3 to 8) (size 9 to 14) (size 15 to 20)
#    0.000    2.714    0.000    2.571    0.000    5.429 
#    0.000    7.857    0.000    4.714    0.000    2.000 
#    0.000    0.000    0.000    0.000    0.000    0.000 
#
# Total GULP energy -694001.976167 kJ/mol
# GULP energy per Si atom -12392.892432 kJ/mol
# Density = 2.130927 g / cm^3
# Si number density = 21.357878 Si / 1000 Ang^3
#
#
#
# Elastic Constant Matrix: (Units=GPa)
#
#
# Indices 1 2 3 4 5 6 
#
# 1 139.8482 13.9259 86.8497 0.0000 0.0000 0.0000
# 2 13.9259 8.2631 11.5175 0.0000 0.0000 0.0000
# 3 86.8497 11.5175 166.0015 0.0000 0.0000 0.0000
# 4 0.0000 0.0000 0.0000 19.2178 0.0000 0.0000
# 5 0.0000 0.0000 0.0000 0.0000 31.8290 0.0000
# 6 0.0000 0.0000 0.0000 0.0000 0.0000 25.1957
#
#
#
# Elastic Compliance Matrix: (Units=1/GPa)
#
#
# Indices 1 2 3 4 5 6 
#
# 1 0.011621 -0.012300 -0.005227 0.000000 0.000000 0.000000
# 2 -0.012300 0.146995 -0.003763 0.000000 0.000000 0.000000
# 3 -0.005227 -0.003763 0.009020 0.000000 0.000000 0.000000
# 4 0.000000 0.000000 0.000000 0.052035 0.000000 0.000000
# 5 0.000000 0.000000 0.000000 0.000000 0.031418 0.000000
# 6 0.000000 0.000000 0.000000 0.000000 0.000000 0.039689
#
#
# Mechanical properties :
#
#
# Convention : Reuss Voigt Hill
#
# Bulk Modulus (GPa) = 7.99647 59.85545 33.92596
# Shear Modulus (GPa) = 13.33175 28.70314 21.01744
#
# Velocity S-wave (km/s) = 2.50112 3.66992 3.14038
# Velocity P-wave (km/s) = 3.47750 6.78554 5.39150
#
# Compressibility (1/GPa) = 0.12505512
#
# Stress axis : x y z
#
# Youngs Moduli (GPa) = 86.04796 6.80295 110.86830
#
# Poissons Ratio (x) = 0.08368 0.57948
# Poissons Ratio (y) = 1.05843 0.41724
# Poissons Ratio (z) = 0.44975 0.02560
#
# Static dielectric constant tensor:
#      x y z
#    x 3.805850 0.000000 0.000000 
#    y 0.000000 3.355120 0.000000 
#    z 0.000000 0.000000 4.433990 
# 
# 
# High freq. dielectric constant tensor:
#      x y z
#    x 1.830960 0.000000 0.000000 
#    y 0.000000 1.798100 0.000000 
#    z 0.000000 0.000000 1.859210 
# 
# From -- ./inp_files/34899.got.cif
#   From: 2010.06.25/outbox.cif.g09.slc.cpg/sg71_18_cif.got.tgz:34899.got - 2010.06.28 04:59:45.
