data_PCOD8292765
_publ_section_title
;
Structure prediction by ZEFSAII (Michael W. Deem and Ramdas Pophale) SiO2 
 PCOD8292765
Probable space group: I M M M
;
_chemical_formula_sum "Si O2"
_cell_formula_units_Z 56
_cell_length_a 9.371260
_cell_length_b 24.695215
_cell_length_c 14.330485
_cell_angle_alpha 90.000000
_cell_angle_beta 90.000000
_cell_angle_gamma 90.000000
_cell_volume 3316.436511
_symmetry_space_group_name_H-M "I M M M"
_symmetry_group_IT_number 71
_symmetry_cell_setting 'orthorhombic'
loop_
_space_group_symop_operation_xyz
x,y,z
-x,-y,z
x,-y,-z
-x,y,-z
-x,-y,-z
x,y,-z
-x,y,z
x,-y,z
1/2+x,1/2+y,1/2+z
1/2-x,1/2-y,1/2+z
1/2+x,1/2-y,1/2-z
1/2-x,1/2+y,1/2-z
1/2-x,1/2-y,1/2-z
1/2+x,1/2+y,1/2-z
1/2-x,1/2+y,1/2+z
1/2+x,1/2-y,1/2+z
loop_
_atom_site_type_symbol
_atom_site_label
_atom_site_fract_x
_atom_site_fract_y
_atom_site_fract_z
Si Si1 0.332363 0.242477 0.893889
Si Si2 0.336275 0.671860 0.254185
Si Si3 0.657618 0.063603 0.000000
Si Si4 0.336027 0.439665 0.322189
O O1 0.500000 0.231263 0.891593
O O2 0.293317 0.299329 0.842833
O O3 0.256619 0.193609 0.840227
O O4 0.276143 0.245734 0.000000
O O5 0.500000 0.684985 0.278576
O O6 0.313261 0.606632 0.243181
O O7 0.743455 0.081187 0.091131
O O8 0.500000 0.091043 0.000000
O O9 0.640492 0.000000 0.000000
O O10 0.500000 0.441671 0.354657
O O11 0.289609 0.500000 0.286547
#
# Coordination Sequence:
#
# PCOD8292765 Si02
#       4
#    16  16   8  16
#     4   9  18  32  48  66  89 116 146 185 228 262
#     4   9  18  31  47  67  89 116 150 182 217 266
#     4   9  17  27  39  59  87 117 147 177 212 255
#     4   9  17  29  44  62  87 118 148 178 215 262
#
# _framework density 16.885594000000001
#
# number of rings (size 3 to 8) (size 9 to 14) (size 15 to 20)
#    0.000    3.000    0.000    0.429    2.000    3.429 
#    0.000    0.000    0.000    0.857    0.000    6.000 
#    0.000    0.000    0.000   21.429    0.000   22.286 
#
# Total GULP energy -346946.529173 kJ/mol
# GULP energy per Si atom -12390.947470 kJ/mol
# Density = 1.684716 g / cm^3
# Si number density = 16.885594 Si / 1000 Ang^3
#
#
#
# Elastic Constant Matrix: (Units=GPa)
#
#
# Indices 1 2 3 4 5 6 
#
# 1 42.3031 22.5942 22.0950 -0.0001 0.0000 0.0000
# 2 22.5942 121.9979 47.0453 -0.0003 0.0000 0.0000
# 3 22.0950 47.0453 92.7981 -0.0011 0.0000 0.0001
# 4 -0.0001 -0.0003 -0.0011 19.1454 0.0000 0.0001
# 5 0.0000 0.0000 0.0000 0.0000 17.3607 0.0000
# 6 0.0000 0.0000 0.0001 0.0001 0.0000 18.2556
#
#
#
# Elastic Compliance Matrix: (Units=1/GPa)
#
#
# Indices 1 2 3 4 5 6 
#
# 1 0.027996 -0.003250 -0.005018 0.000000 0.000000 0.000000
# 2 -0.003250 0.010566 -0.004583 0.000000 0.000000 0.000000
# 3 -0.005018 -0.004583 0.014294 0.000001 0.000000 0.000000
# 4 0.000000 0.000000 0.000001 0.052232 0.000000 0.000000
# 5 0.000000 0.000000 0.000000 0.000000 0.057601 0.000000
# 6 0.000000 0.000000 0.000000 0.000000 0.000000 0.054778
#
#
# Mechanical properties :
#
#
# Convention : Reuss Voigt Hill
#
# Bulk Modulus (GPa) = 36.82648 48.95200 42.88924
# Shear Modulus (GPa) = 19.82398 21.97663 20.90030
#
# Velocity S-wave (km/s) = 3.43011 3.61155 3.52200
# Velocity P-wave (km/s) = 6.12734 6.81501 6.48030
#
# Compressibility (1/GPa) = 0.02715437
#
# Stress axis : x y z
#
# Youngs Moduli (GPa) = 35.71983 94.64363 69.95823
#
# Poissons Ratio (x) = 0.30756 0.35107
# Poissons Ratio (y) = 0.11608 0.32061
# Poissons Ratio (z) = 0.17925 0.43373
#
# Static dielectric constant tensor:
#      x y z
#    x 3.294540 0.000000 0.000000 
#    y 0.000000 3.339710 0.000000 
#    z 0.000000 0.000000 3.029250 
# 
# 
# High freq. dielectric constant tensor:
#      x y z
#    x 1.651390 0.000000 0.000000 
#    y 0.000000 1.659060 0.000000 
#    z 0.000000 0.000000 1.611360 
# 
# From -- ./inp_files/3288.got.cif
#   From: 2010.06.25/outbox.cif.g09.slc.cpg/sg71_2_cif.got.tgz:3288.got - 2010.06.28 04:59:45.
