data_PCOD8292553
_publ_section_title
;
Structure prediction by ZEFSAII (Michael W. Deem and Ramdas Pophale) SiO2 
 PCOD8292553
Probable space group: I M M M
;
_chemical_formula_sum "Si O2"
_cell_formula_units_Z 72
_cell_length_a 7.723042
_cell_length_b 32.243930
_cell_length_c 14.274942
_cell_angle_alpha 90.000000
_cell_angle_beta 90.000000
_cell_angle_gamma 90.000000
_cell_volume 3554.763553
_symmetry_space_group_name_H-M "I M M M"
_symmetry_group_IT_number 71
_symmetry_cell_setting 'orthorhombic'
loop_
_space_group_symop_operation_xyz
x,y,z
-x,-y,z
x,-y,-z
-x,y,-z
-x,-y,-z
x,y,-z
-x,y,z
x,-y,z
1/2+x,1/2+y,1/2+z
1/2-x,1/2-y,1/2+z
1/2+x,1/2-y,1/2-z
1/2-x,1/2+y,1/2-z
1/2-x,1/2-y,1/2-z
1/2+x,1/2+y,1/2-z
1/2-x,1/2+y,1/2+z
1/2+x,1/2-y,1/2+z
loop_
_atom_site_type_symbol
_atom_site_label
_atom_site_fract_x
_atom_site_fract_y
_atom_site_fract_z
Si Si1 0.000000 0.451443 0.890709
Si Si2 0.295549 0.686253 0.760274
Si Si3 0.701711 0.756185 0.896654
Si Si4 0.302875 0.406819 0.782831
Si Si5 0.797782 0.547392 0.605727
O O1 0.175909 0.433189 0.847803
O O2 0.000000 0.500000 0.869119
O O3 0.000000 0.441399 0.000000
O O4 0.500000 0.687164 0.763008
O O5 0.216455 0.717752 0.837968
O O6 0.234735 0.700691 0.657354
O O7 0.229386 0.640029 0.781059
O O8 0.500000 0.748528 0.907774
O O9 0.787814 0.758141 0.000000
O O10 0.500000 0.408820 0.822336
O O11 0.307260 0.424052 0.677067
O O12 0.758476 0.562378 0.500000
O O13 0.737543 0.500000 0.618039
O O14 0.000000 0.551307 0.628871
#
# Coordination Sequence:
#
# PCOD8292553 Si02
#       5
#     8  16  16  16  16
#     4  11  26  46  65  89 121 157 206 264 313 363
#     4   9  20  36  54  82 118 150 190 242 290 350
#     4   9  18  34  57  81 111 154 194 235 290 348
#     4  11  23  39  63  91 122 162 201 251 309 364
#     4   9  18  34  57  85 118 155 195 241 296 359
#
# _framework density 20.254511000000001
#
# number of rings (size 3 to 8) (size 9 to 14) (size 15 to 20)
#    0.000    2.333    1.111    1.333    1.556    4.889 
#    0.000    8.889    0.000    0.000    0.000    0.000 
#    0.000    0.000    0.000    0.000    0.000    0.000 
#
# Total GULP energy -446359.718008 kJ/mol
# GULP energy per Si atom -12398.881056 kJ/mol
# Density = 2.020841 g / cm^3
# Si number density = 20.254511 Si / 1000 Ang^3
#
#
#
# Elastic Constant Matrix: (Units=GPa)
#
#
# Indices 1 2 3 4 5 6 
#
# 1 62.5603 40.7438 34.4148 -0.0001 0.0000 0.0000
# 2 40.7438 133.2566 74.1950 -0.0005 0.0000 0.0000
# 3 34.4148 74.1950 148.4301 -0.0005 -0.0001 0.0000
# 4 -0.0001 -0.0005 -0.0005 13.1969 0.0000 -0.0001
# 5 0.0000 0.0000 -0.0001 0.0000 19.8362 0.0000
# 6 0.0000 0.0000 0.0000 -0.0001 0.0000 22.4122
#
#
#
# Elastic Compliance Matrix: (Units=1/GPa)
#
#
# Indices 1 2 3 4 5 6 
#
# 1 0.020484 -0.005014 -0.002243 0.000000 0.000000 0.000000
# 2 -0.005014 0.011626 -0.004649 0.000000 0.000000 0.000000
# 3 -0.002243 -0.004649 0.009581 0.000000 0.000000 0.000000
# 4 0.000000 0.000000 0.000000 0.075775 0.000000 0.000000
# 5 0.000000 0.000000 0.000000 0.000000 0.050413 0.000000
# 6 0.000000 0.000000 0.000000 0.000000 0.000000 0.044618
#
#
# Mechanical properties :
#
#
# Convention : Reuss Voigt Hill
#
# Bulk Modulus (GPa) = 55.93169 71.43935 63.68552
# Shear Modulus (GPa) = 20.63822 24.08196 22.36009
#
# Velocity S-wave (km/s) = 3.19555 3.45188 3.32619
# Velocity P-wave (km/s) = 6.42571 7.15784 6.80164
#
# Compressibility (1/GPa) = 0.01787895
#
# Stress axis : x y z
#
# Youngs Moduli (GPa) = 48.81839 86.01577 104.37371
#
# Poissons Ratio (x) = 0.43131 0.23411
# Poissons Ratio (y) = 0.24479 0.48520
# Poissons Ratio (z) = 0.10950 0.39986
#
# Static dielectric constant tensor:
#      x y z
#    x 3.439710 0.000000 0.000000 
#    y 0.000000 3.867900 0.000000 
#    z 0.000000 0.000000 3.900950 
# 
# 
# High freq. dielectric constant tensor:
#      x y z
#    x 1.782560 0.000000 0.000000 
#    y 0.000000 1.789170 0.000000 
#    z 0.000000 0.000000 1.791120 
# 
# From -- ./inp_files/31669.got.cif
#   From: 2010.06.25/outbox.cif.g09.slc.cpg/sg71_16_cif.got.tgz:31669.got - 2010.06.28 04:59:45.
