data_PCOD8292716
_publ_section_title
;
Structure prediction by ZEFSAII (Michael W. Deem and Ramdas Pophale) SiO2 
 PCOD8292716
Probable space group: I M M M
;
_chemical_formula_sum "Si O2"
_cell_formula_units_Z 64
_cell_length_a 22.500594
_cell_length_b 16.966047
_cell_length_c 9.029615
_cell_angle_alpha 90.000000
_cell_angle_beta 90.000000
_cell_angle_gamma 90.000000
_cell_volume 3447.020630
_symmetry_space_group_name_H-M "I M M M"
_symmetry_group_IT_number 71
_symmetry_cell_setting 'orthorhombic'
loop_
_space_group_symop_operation_xyz
x,y,z
-x,-y,z
x,-y,-z
-x,y,-z
-x,-y,-z
x,y,-z
-x,y,z
x,-y,z
1/2+x,1/2+y,1/2+z
1/2-x,1/2-y,1/2+z
1/2+x,1/2-y,1/2-z
1/2-x,1/2+y,1/2-z
1/2-x,1/2-y,1/2-z
1/2+x,1/2+y,1/2-z
1/2-x,1/2+y,1/2+z
1/2+x,1/2-y,1/2+z
loop_
_atom_site_type_symbol
_atom_site_label
_atom_site_fract_x
_atom_site_fract_y
_atom_site_fract_z
Si Si1 0.000000 0.589472 0.175928
Si Si2 0.362701 0.646347 0.670849
Si Si3 0.266727 0.169772 0.171304
Si Si4 0.118570 0.677044 0.176194
Si Si5 0.932965 0.000000 0.177235
O O1 0.941506 0.635271 0.233179
O O2 0.000000 0.500000 0.237726
O O3 0.000000 0.588524 0.000000
O O4 0.379814 0.653002 0.500000
O O5 0.293712 0.618987 0.689166
O O6 0.379061 0.732663 0.737015
O O7 0.402220 0.578106 0.745328
O O8 0.250000 0.250000 0.250000
O O9 0.324359 0.131834 0.252105
O O10 0.282041 0.184041 0.000000
O O11 0.124530 0.672131 0.000000
O O12 0.000000 0.000000 0.232359
O O13 0.927273 0.000000 0.000000
#
# Coordination Sequence:
#
# PCOD8292716 Si02
#       5
#     8  16  16  16   8
#     4   9  18  32  49  70  96 126 163 207 249 295
#     4   8  15  26  41  65  93 121 149 185 230 278
#     4   9  16  29  48  71  97 124 157 195 237 282
#     4   9  17  30  50  71  93 123 161 200 241 287
#     4   9  16  24  38  64  97 122 147 184 228 277
#
# _framework density 18.566758
#
# number of rings (size 3 to 8) (size 9 to 14) (size 15 to 20)
#    0.000    3.250    0.000    2.250    1.750    0.000 
#    2.250    0.625    0.000    0.750    0.000    7.875 
#    0.000   25.000    0.000    0.000    0.000    0.000 
#
# Total GULP energy -396419.107850 kJ/mol
# GULP energy per Si atom -12388.097120 kJ/mol
# Density = 1.852450 g / cm^3
# Si number density = 18.566758 Si / 1000 Ang^3
#
#
#
# Elastic Constant Matrix: (Units=GPa)
#
#
# Indices 1 2 3 4 5 6 
#
# 1 191.9738 78.0226 36.2356 0.0000 0.0000 0.0000
# 2 78.0226 99.7650 12.3782 0.0000 0.0000 0.0000
# 3 36.2356 12.3782 35.6394 0.0000 0.0000 0.0000
# 4 0.0000 0.0000 0.0000 7.9573 0.0000 0.0000
# 5 0.0000 0.0000 0.0000 0.0000 27.4567 0.0000
# 6 0.0000 0.0000 0.0000 0.0000 0.0000 27.8828
#
#
#
# Elastic Compliance Matrix: (Units=1/GPa)
#
#
# Indices 1 2 3 4 5 6 
#
# 1 0.009068 -0.006216 -0.007061 0.000000 0.000000 0.000000
# 2 -0.006216 0.014736 0.001202 0.000000 0.000000 0.000000
# 3 -0.007061 0.001202 0.034820 0.000000 0.000000 0.000000
# 4 0.000000 0.000000 0.000000 0.125671 0.000000 0.000000
# 5 0.000000 0.000000 0.000000 0.000000 0.036421 0.000000
# 6 0.000000 0.000000 0.000000 0.000000 0.000000 0.035864
#
#
# Mechanical properties :
#
#
# Convention : Reuss Voigt Hill
#
# Bulk Modulus (GPa) = 29.00706 64.51679 46.76192
# Shear Modulus (GPa) = 17.11034 26.04215 21.57624
#
# Velocity S-wave (km/s) = 3.03901 3.74922 3.41264
# Velocity P-wave (km/s) = 5.28878 7.31889 6.38504
#
# Compressibility (1/GPa) = 0.03447436
#
# Stress axis : x y z
#
# Youngs Moduli (GPa) = 110.27781 67.86327 28.71873
#
# Poissons Ratio (x) = 0.42182 0.20278
# Poissons Ratio (y) = 0.68545 -0.03451
# Poissons Ratio (z) = 0.77866 -0.08156
#
# Static dielectric constant tensor:
#      x y z
#    x 3.966900 0.000000 0.000000 
#    y 0.000000 3.405610 0.000000 
#    z 0.000000 0.000000 3.025590 
# 
# 
# High freq. dielectric constant tensor:
#      x y z
#    x 1.740510 0.000000 0.000000 
#    y 0.000000 1.696090 0.000000 
#    z 0.000000 0.000000 1.664480 
# 
# From -- ./inp_files/25414.got.cif
#   From: 2010.06.25/outbox.cif.g09.slc.cpg/sg71_13_cif.got.tgz:25414.got - 2010.06.28 04:59:45.
