data_PCOD8292297
_publ_section_title
;
Structure prediction by ZEFSAII (Michael W. Deem and Ramdas Pophale) SiO2 
 PCOD8292297
Probable space group: I M M M
;
_chemical_formula_sum "Si O2"
_cell_formula_units_Z 72
_cell_length_a 13.586905
_cell_length_b 14.126140
_cell_length_c 21.027788
_cell_angle_alpha 90.000000
_cell_angle_beta 90.000000
_cell_angle_gamma 90.000000
_cell_volume 4035.874331
_symmetry_space_group_name_H-M "I M M M"
_symmetry_group_IT_number 71
_symmetry_cell_setting 'orthorhombic'
loop_
_space_group_symop_operation_xyz
x,y,z
-x,-y,z
x,-y,-z
-x,y,-z
-x,-y,-z
x,y,-z
-x,y,z
x,-y,z
1/2+x,1/2+y,1/2+z
1/2-x,1/2-y,1/2+z
1/2+x,1/2-y,1/2-z
1/2-x,1/2+y,1/2-z
1/2-x,1/2-y,1/2-z
1/2+x,1/2+y,1/2-z
1/2-x,1/2+y,1/2+z
1/2+x,1/2-y,1/2+z
loop_
_atom_site_type_symbol
_atom_site_label
_atom_site_fract_x
_atom_site_fract_y
_atom_site_fract_z
Si Si1 0.387244 0.109967 0.814564
Si Si2 0.294085 0.893327 0.680087
Si Si3 0.704742 0.702501 0.624763
Si Si4 0.615572 0.611932 0.500000
Si Si5 0.108341 0.893325 0.759722
O O1 0.500000 0.138495 0.828038
O O2 0.363225 0.129800 0.740620
O O3 0.316993 0.170813 0.860698
O O4 0.367778 0.000000 0.829528
O O5 0.307770 0.817214 0.623481
O O6 0.181190 0.879848 0.701081
O O7 0.314515 0.000000 0.654719
O O8 0.668213 0.658451 0.559826
O O9 0.633726 0.671432 0.681143
O O10 0.633841 0.500000 0.500000
O O11 0.500000 0.635677 0.500000
O O12 0.000000 0.867377 0.734407
O O13 0.114512 0.000000 0.785857
#
# Coordination Sequence:
#
# PCOD8292297 Si02
#       5
#    16  16  16   8  16
#     4   9  17  30  50  77 106 131 157 197 250 302
#     4   9  19  32  47  73 104 131 162 202 245 289
#     4  11  20  32  51  71  98 135 170 201 240 290
#     4  11  24  40  56  74  96 123 160 206 248 286
#     4   9  16  28  50  79 105 127 157 201 250 296
#
# _framework density 17.84
#
# number of rings (size 3 to 8) (size 9 to 14) (size 15 to 20)
#    0.000    2.333    0.000    6.667    0.000    6.222 
#    0.000    1.111    0.000    2.667    0.000    0.000 
#    0.000    5.333    0.000    0.000    0.000    0.000 
#
# Total GULP energy -446233.052842 kJ/mol
# GULP energy per Si atom -12395.362579 kJ/mol
# Density = 1.779940 g / cm^3
# Si number density = 17.840000 Si / 1000 Ang^3
#
#
#
# Elastic Constant Matrix: (Units=GPa)
#
#
# Indices 1 2 3 4 5 6 
#
# 1 114.6126 42.9277 32.9974 0.0000 0.0000 0.0000
# 2 42.9277 129.8912 63.3971 0.0000 0.0000 0.0000
# 3 32.9974 63.3971 58.9409 0.0000 0.0000 0.0000
# 4 0.0000 0.0000 0.0000 14.7763 0.0000 0.0000
# 5 0.0000 0.0000 0.0000 0.0000 7.4540 0.0000
# 6 0.0000 0.0000 0.0000 0.0000 0.0000 11.2969
#
#
#
# Elastic Compliance Matrix: (Units=1/GPa)
#
#
# Indices 1 2 3 4 5 6 
#
# 1 0.010499 -0.001265 -0.004517 0.000000 0.000000 0.000000
# 2 -0.001265 0.016360 -0.016888 0.000000 0.000000 0.000000
# 3 -0.004517 -0.016888 0.037660 0.000000 0.000000 0.000000
# 4 0.000000 0.000000 0.000000 0.067676 0.000000 0.000000
# 5 0.000000 0.000000 0.000000 0.000000 0.134156 0.000000
# 6 0.000000 0.000000 0.000000 0.000000 0.000000 0.088520
#
#
# Mechanical properties :
#
#
# Convention : Reuss Voigt Hill
#
# Bulk Modulus (GPa) = 52.14297 64.67655 58.40976
# Shear Modulus (GPa) = 12.29698 17.64695 14.97196
#
# Velocity S-wave (km/s) = 2.62829 3.14853 2.90010
# Velocity P-wave (km/s) = 6.20501 7.03918 6.63521
#
# Compressibility (1/GPa) = 0.01917804
#
# Stress axis : x y z
#
# Youngs Moduli (GPa) = 95.24333 61.12601 26.55345
#
# Poissons Ratio (x) = 0.07734 0.11994
# Poissons Ratio (y) = 0.12051 0.44844
# Poissons Ratio (z) = 0.43022 1.03230
#
# Static dielectric constant tensor:
#      x y z
#    x 3.942890 0.000000 0.000000 
#    y 0.000000 3.585580 0.000000 
#    z 0.000000 0.000000 2.578330 
# 
# 
# High freq. dielectric constant tensor:
#      x y z
#    x 1.702810 0.000000 0.000000 
#    y 0.000000 1.708210 0.000000 
#    z 0.000000 0.000000 1.625230 
# 
# From -- ./inp_files/34042.got.cif
#   From: 2010.06.25/outbox.cif.g09.slc.cpg/sg71_18_cif.got.tgz:34042.got - 2010.06.28 04:59:45.
