data_PCOD8292813
_publ_section_title
;
Structure prediction by ZEFSAII (Michael W. Deem and Ramdas Pophale) SiO2 
 PCOD8292813
Probable space group: I B A M
;
_chemical_formula_sum "Si O2"
_cell_formula_units_Z 96
_cell_length_a 22.105943
_cell_length_b 8.390624
_cell_length_c 26.444778
_cell_angle_alpha 90.000000
_cell_angle_beta 90.000000
_cell_angle_gamma 90.000000
_cell_volume 4905.047658
_symmetry_space_group_name_H-M "I B A M"
_symmetry_group_IT_number 72
_symmetry_cell_setting 'orthorhombic'
loop_
_space_group_symop_operation_xyz
x,y,z
-x,-y,z
x,-y,1/2-z
-x,y,1/2-z
-x,-y,-z
x,y,-z
-x,y,1/2+z
x,-y,1/2+z
1/2+x,1/2+y,1/2+z
1/2-x,1/2-y,1/2+z
1/2+x,1/2-y,-z
1/2-x,1/2+y,-z
1/2-x,1/2-y,1/2-z
1/2+x,1/2+y,1/2-z
1/2-x,1/2+y,z
1/2+x,1/2-y,z
loop_
_atom_site_type_symbol
_atom_site_label
_atom_site_fract_x
_atom_site_fract_y
_atom_site_fract_z
Si Si1 0.843519 0.690270 0.500000
Si Si2 0.720577 0.537537 0.331831
Si Si3 0.500000 0.000000 0.162446
Si Si4 0.394859 0.888436 0.395448
Si Si5 0.586877 0.000000 0.750000
Si Si6 0.686381 0.175809 0.106617
Si Si7 0.270133 0.130605 0.500000
Si Si8 0.827606 0.731292 0.302944
O O1 0.888268 0.679424 0.548052
O O2 0.803631 0.852531 0.500000
O O3 0.791999 0.552827 0.500000
O O4 0.677889 0.658768 0.363218
O O5 0.759359 0.428450 0.369871
O O6 0.763779 0.640970 0.295372
O O7 0.680208 0.421658 0.296093
O O8 0.535751 0.876308 0.125547
O O9 0.450143 0.931407 0.201884
O O10 0.349889 0.788089 0.360610
O O11 0.375957 0.075517 0.392286
O O12 0.625821 0.156032 0.736575
O O13 0.703454 0.218773 0.049243
#
# Coordination Sequence:
#
# PCOD8292813 Si02
#       8
#     8  16   8  16   8  16   8  16
#     4  10  18  27  44  74 102 127 156 186 226 286
#     4   9  16  27  43  67 103 127 147 187 239 294
#     4   9  18  35  52  64  84 117 160 215 246 270
#     4   9  18  30  47  68  93 127 167 198 233 273
#     4   9  18  32  52  68  82 114 162 201 246 292
#     4   9  16  26  42  68 100 136 161 185 228 284
#     4  10  16  24  40  66 104 132 156 182 214 276
#     4   9  17  29  46  71  96 125 154 186 238 297
#
# _framework density 19.571674000000002
#
# number of rings (size 3 to 8) (size 9 to 14) (size 15 to 20)
#    0.000    2.833    0.000    4.000    0.000    1.000 
#    0.000    0.000    0.000    4.000    0.000   18.667 
#    0.000   21.333    0.000    0.000    0.000    0.000 
#
# Total GULP energy -594682.539706 kJ/mol
# GULP energy per Si atom -12389.219577 kJ/mol
# Density = 1.952713 g / cm^3
# Si number density = 19.571674 Si / 1000 Ang^3
#
#
#
# Elastic Constant Matrix: (Units=GPa)
#
#
# Indices 1 2 3 4 5 6 
#
# 1 55.9928 13.7334 30.3400 0.0000 0.0000 0.0000
# 2 13.7334 76.6929 19.1726 0.0000 0.0000 0.0000
# 3 30.3400 19.1726 93.6279 0.0000 0.0000 0.0000
# 4 0.0000 0.0000 0.0000 21.4856 0.0000 0.0000
# 5 0.0000 0.0000 0.0000 0.0000 17.2714 0.0000
# 6 0.0000 0.0000 0.0000 0.0000 0.0000 4.7943
#
#
#
# Elastic Compliance Matrix: (Units=1/GPa)
#
#
# Indices 1 2 3 4 5 6 
#
# 1 0.022034 -0.002277 -0.006674 0.000000 0.000000 0.000000
# 2 -0.002277 0.013978 -0.002124 0.000000 0.000000 0.000000
# 3 -0.006674 -0.002124 0.013278 0.000000 0.000000 0.000000
# 4 0.000000 0.000000 0.000000 0.046543 0.000000 0.000000
# 5 0.000000 0.000000 0.000000 0.000000 0.057899 0.000000
# 6 0.000000 0.000000 0.000000 0.000000 0.000000 0.208581
#
#
# Mechanical properties :
#
#
# Convention : Reuss Voigt Hill
#
# Bulk Modulus (GPa) = 36.84678 39.20062 38.02370
# Shear Modulus (GPa) = 12.70614 19.58143 16.14379
#
# Velocity S-wave (km/s) = 2.55073 3.16650 2.87514
# Velocity P-wave (km/s) = 5.24808 5.78288 5.52196
#
# Compressibility (1/GPa) = 0.02713942
#
# Stress axis : x y z
#
# Youngs Moduli (GPa) = 45.38392 71.54156 75.31109
#
# Poissons Ratio (x) = 0.16292 0.50262
# Poissons Ratio (y) = 0.10335 0.15999
# Poissons Ratio (z) = 0.30289 0.15198
#
# Static dielectric constant tensor:
#      x y z
#    x 3.524190 0.000000 0.000000 
#    y 0.000000 3.462750 0.000000 
#    z 0.000000 0.000000 3.707210 
# 
# 
# High freq. dielectric constant tensor:
#      x y z
#    x 1.727520 0.000000 0.000000 
#    y 0.000000 1.732350 0.000000 
#    z 0.000000 0.000000 1.781170 
# 
# From -- ./inp_files/49667.got.cif
#   From: 2010.03.12/outbox.cif.g09.slc.cpg/sg72_25_cif.got.tgz:49667.got - 2010.04.16 14:54:00.
