data_PCOD8292024
_publ_section_title
;
Structure prediction by ZEFSAII (Michael W. Deem and Ramdas Pophale) SiO2 
 PCOD8292024
Probable space group: I M M M
;
_chemical_formula_sum "Si O2"
_cell_formula_units_Z 88
_cell_length_a 28.100445
_cell_length_b 16.579653
_cell_length_c 10.031566
_cell_angle_alpha 90.000000
_cell_angle_beta 90.000000
_cell_angle_gamma 90.000000
_cell_volume 4673.662734
_symmetry_space_group_name_H-M "I M M M"
_symmetry_group_IT_number 71
_symmetry_cell_setting 'orthorhombic'
loop_
_space_group_symop_operation_xyz
x,y,z
-x,-y,z
x,-y,-z
-x,y,-z
-x,-y,-z
x,y,-z
-x,y,z
x,-y,z
1/2+x,1/2+y,1/2+z
1/2-x,1/2-y,1/2+z
1/2+x,1/2-y,1/2-z
1/2-x,1/2+y,1/2-z
1/2-x,1/2-y,1/2-z
1/2+x,1/2+y,1/2-z
1/2-x,1/2+y,1/2+z
1/2+x,1/2-y,1/2+z
loop_
_atom_site_type_symbol
_atom_site_label
_atom_site_fract_x
_atom_site_fract_y
_atom_site_fract_z
Si Si1 0.808112 0.093088 0.850454
Si Si2 0.946043 0.306468 0.742734
Si Si3 0.139878 0.784226 0.654524
Si Si4 0.556188 0.912416 0.000000
Si Si5 0.074482 0.592569 0.000000
Si Si6 0.781456 0.327654 0.268745
Si Si7 0.686850 0.090955 0.500000
O O1 0.834652 0.144800 0.737249
O O2 0.750815 0.107893 0.848099
O O3 0.818433 0.000000 0.819260
O O4 0.826212 0.115410 0.000000
O O5 0.910212 0.230503 0.732590
O O6 0.926579 0.365440 0.628927
O O7 0.945275 0.357836 0.876258
O O8 0.000000 0.275570 0.717633
O O9 0.132074 0.810497 0.500000
O O10 0.170763 0.701172 0.655716
O O11 0.500000 0.921917 0.000000
O O12 0.580833 0.000000 0.000000
O O13 0.130572 0.591791 0.000000
O O14 0.055020 0.500000 0.000000
O O15 0.750000 0.250000 0.250000
O O16 0.794177 0.362868 0.126510
O O17 0.706548 0.000000 0.500000
#
# Coordination Sequence:
#
# PCOD8292024 Si02
#       7
#    16  16  16   8   8  16   8
#     4  10  23  41  63  88 118 153 192 242 296 352
#     4  11  22  37  58  84 117 155 198 243 289 346
#     4  11  23  38  61  89 119 154 195 242 292 353
#     4   9  18  34  53  74 109 152 190 233 282 334
#     4  11  23  38  57  83 117 158 200 246 296 345
#     4  10  22  35  60  83 115 155 193 242 289 352
#     4  11  22  37  55  84 123 160 199 248 301 350
#
# _framework density 18.828916
#
# number of rings (size 3 to 8) (size 9 to 14) (size 15 to 20)
#    0.000    1.545    2.727    1.909   11.455    1.818 
#    0.000    0.000    0.000    0.545    0.000    2.545 
#    0.000    0.000    0.000    0.000    0.000    0.000 
#
# Total GULP energy -545365.371348 kJ/mol
# GULP energy per Si atom -12394.667531 kJ/mol
# Density = 1.878606 g / cm^3
# Si number density = 18.828916 Si / 1000 Ang^3
#
#
#
# Elastic Constant Matrix: (Units=GPa)
#
#
# Indices 1 2 3 4 5 6 
#
# 1 102.1661 41.9380 31.6006 0.0000 0.0000 0.0000
# 2 41.9380 85.8273 47.1029 0.0000 0.0000 0.0000
# 3 31.6006 47.1029 134.0405 0.0000 0.0000 0.0000
# 4 0.0000 0.0000 0.0000 32.5394 0.0000 0.0000
# 5 0.0000 0.0000 0.0000 0.0000 26.1768 0.0000
# 6 0.0000 0.0000 0.0000 0.0000 0.0000 21.2053
#
#
#
# Elastic Compliance Matrix: (Units=1/GPa)
#
#
# Indices 1 2 3 4 5 6 
#
# 1 0.012347 -0.005495 -0.000980 0.000000 0.000000 0.000000
# 2 -0.005495 0.016881 -0.004637 0.000000 0.000000 0.000000
# 3 -0.000980 -0.004637 0.009321 0.000000 0.000000 0.000000
# 4 0.000000 0.000000 0.000000 0.030732 0.000000 0.000000
# 5 0.000000 0.000000 0.000000 0.000000 0.038202 0.000000
# 6 0.000000 0.000000 0.000000 0.000000 0.000000 0.047158
#
#
# Mechanical properties :
#
#
# Convention : Reuss Voigt Hill
#
# Bulk Modulus (GPa) = 61.25454 62.59077 61.92266
# Shear Modulus (GPa) = 27.42647 29.41046 28.41846
#
# Velocity S-wave (km/s) = 3.82070 3.95648 3.88918
# Velocity P-wave (km/s) = 7.21571 7.36109 7.28876
#
# Compressibility (1/GPa) = 0.01632532
#
# Stress axis : x y z
#
# Youngs Moduli (GPa) = 80.99265 59.23762 107.28767
#
# Poissons Ratio (x) = 0.32553 0.10511
# Poissons Ratio (y) = 0.44509 0.49745
# Poissons Ratio (z) = 0.07935 0.27466
#
# Static dielectric constant tensor:
#      x y z
#    x 3.704440 0.000000 0.000000 
#    y 0.000000 3.443060 0.000000 
#    z 0.000000 0.000000 3.460700 
# 
# 
# High freq. dielectric constant tensor:
#      x y z
#    x 1.728800 0.000000 0.000000 
#    y 0.000000 1.712480 0.000000 
#    z 0.000000 0.000000 1.745460 
# 
# From -- ./inp_files/16747.got.cif
#   From: 2010.06.25/outbox.cif.g09.slc.cpg/sg71_9_cif.got.tgz:16747.got - 2010.06.28 04:59:45.
