data_PCOD8292963
_publ_section_title
;
Structure prediction by ZEFSAII (Michael W. Deem and Ramdas Pophale) SiO2 
 PCOD8292963
Probable space group: I B A M
;
_chemical_formula_sum "Si O2"
_cell_formula_units_Z 116
_cell_length_a 26.915335
_cell_length_b 26.404509
_cell_length_c 9.373760
_cell_angle_alpha 90.000000
_cell_angle_beta 90.000000
_cell_angle_gamma 90.000000
_cell_volume 6661.801923
_symmetry_space_group_name_H-M "I B A M"
_symmetry_group_IT_number 72
_symmetry_cell_setting 'orthorhombic'
loop_
_space_group_symop_operation_xyz
x,y,z
-x,-y,z
x,-y,1/2-z
-x,y,1/2-z
-x,-y,-z
x,y,-z
-x,y,1/2+z
x,-y,1/2+z
1/2+x,1/2+y,1/2+z
1/2-x,1/2-y,1/2+z
1/2+x,1/2-y,-z
1/2-x,1/2+y,-z
1/2-x,1/2-y,1/2-z
1/2+x,1/2+y,1/2-z
1/2-x,1/2+y,z
1/2+x,1/2-y,z
loop_
_atom_site_type_symbol
_atom_site_label
_atom_site_fract_x
_atom_site_fract_y
_atom_site_fract_z
Si Si1 0.207080 0.317699 0.163574
Si Si2 0.183935 0.143736 0.660238
Si Si3 0.710830 0.549209 0.668729
Si Si4 0.000000 0.500000 0.250000
Si Si5 0.048094 0.689150 0.168509
Si Si6 0.923975 0.580343 0.340836
Si Si7 0.144136 0.753440 0.835635
Si Si8 0.182860 0.413696 0.333465
O O1 0.265798 0.324166 0.178449
O O2 0.189043 0.266011 0.236507
O O3 0.179368 0.362106 0.247128
O O4 0.189928 0.318521 0.000000
O O5 0.180749 0.120734 0.500000
O O6 0.180946 0.098141 0.773836
O O7 0.140525 0.185315 0.686871
O O8 0.689922 0.500000 0.750000
O O9 0.702239 0.544039 0.500000
O O10 0.769224 0.553497 0.711502
O O11 0.964651 0.535964 0.342029
O O12 0.059102 0.632601 0.234925
O O13 0.092555 0.727294 0.207972
O O14 0.000000 0.710281 0.250000
O O15 0.037399 0.688594 0.000000
O O16 0.915671 0.599041 0.500000
O O17 0.869658 0.559108 0.291133
O O18 0.157433 0.741410 0.000000
O O19 0.187823 0.400879 0.500000
#
# Coordination Sequence:
#
# PCOD8292963 Si02
#       8
#    16  16  16   4  16  16  16  16
#     4  10  18  28  46  74 100 122 157 205 247 295
#     4   9  19  33  49  72 101 130 166 202 241 296
#     4  10  20  33  52  73 100 134 165 201 243 289
#     4  12  22  32  48  66  88 116 166 228 272 292
#     4  10  20  36  54  71  93 125 166 208 259 311
#     4  10  20  35  49  63  86 120 164 211 261 309
#     4  10  19  33  52  70  96 134 163 198 252 311
#     4   9  18  34  50  64  89 127 166 202 248 305
#
# _framework density 17.412706
#
# number of rings (size 3 to 8) (size 9 to 14) (size 15 to 20)
#    0.000    2.207    2.069    1.448    0.966    2.207 
#    0.000    1.379    0.000    0.000    0.000    0.000 
#    0.000    0.552    0.000    6.345    0.000    1.931 
#
# Total GULP energy -718724.699313 kJ/mol
# GULP energy per Si atom -12391.805161 kJ/mol
# Density = 1.737307 g / cm^3
# Si number density = 17.412706 Si / 1000 Ang^3
#
#
#
# Elastic Constant Matrix: (Units=GPa)
#
#
# Indices 1 2 3 4 5 6 
#
# 1 50.4591 38.9412 11.1325 0.0000 0.0000 0.0000
# 2 38.9412 110.2797 40.8712 0.0000 0.0000 0.0000
# 3 11.1325 40.8712 56.8510 0.0000 0.0000 0.0000
# 4 0.0000 0.0000 0.0000 26.1798 0.0000 0.0000
# 5 0.0000 0.0000 0.0000 0.0000 18.1532 0.0000
# 6 0.0000 0.0000 0.0000 0.0000 0.0000 26.2105
#
#
#
# Elastic Compliance Matrix: (Units=1/GPa)
#
#
# Indices 1 2 3 4 5 6 
#
# 1 0.027437 -0.010493 0.002171 0.000000 0.000000 0.000000
# 2 -0.010493 0.016374 -0.009717 0.000000 0.000000 0.000000
# 3 0.002171 -0.009717 0.024151 0.000000 0.000000 0.000000
# 4 0.000000 0.000000 0.000000 0.038197 0.000000 0.000000
# 5 0.000000 0.000000 0.000000 0.000000 0.055087 0.000000
# 6 0.000000 0.000000 0.000000 0.000000 0.000000 0.038153
#
#
# Mechanical properties :
#
#
# Convention : Reuss Voigt Hill
#
# Bulk Modulus (GPa) = 31.36416 44.38663 37.87540
# Shear Modulus (GPa) = 20.31657 22.55168 21.43413
#
# Velocity S-wave (km/s) = 3.41950 3.60269 3.51229
# Velocity P-wave (km/s) = 5.80017 6.54616 6.18442
#
# Compressibility (1/GPa) = 0.03188352
#
# Stress axis : x y z
#
# Youngs Moduli (GPa) = 36.44730 61.07118 41.40692
#
# Poissons Ratio (x) = 0.64081 -0.08989
# Poissons Ratio (y) = 0.38244 0.40236
# Poissons Ratio (z) = -0.07912 0.59344
#
# Static dielectric constant tensor:
#      x y z
#    x 3.105790 0.000000 0.000000 
#    y 0.000000 3.126850 0.000000 
#    z 0.000000 0.000000 3.156090 
# 
# 
# High freq. dielectric constant tensor:
#      x y z
#    x 1.639710 0.000000 0.000000 
#    y 0.000000 1.662630 0.000000 
#    z 0.000000 0.000000 1.667460 
# 
# From -- ./inp_files/7524.got.cif
#   From: 2010.03.12/outbox.cif.g09.slc.cpg/sg72_4_cif.got.tgz:7524.got - 2010.04.16 14:54:00.
