data_PCOD8292173
_publ_section_title
;
Structure prediction by ZEFSAII (Michael W. Deem and Ramdas Pophale) SiO2 
 PCOD8292173
Probable space group: I M M M
;
_chemical_formula_sum "Si O2"
_cell_formula_units_Z 72
_cell_length_a 26.960261
_cell_length_b 14.504849
_cell_length_c 9.535675
_cell_angle_alpha 90.000000
_cell_angle_beta 90.000000
_cell_angle_gamma 90.000000
_cell_volume 3728.968760
_symmetry_space_group_name_H-M "I M M M"
_symmetry_group_IT_number 71
_symmetry_cell_setting 'orthorhombic'
loop_
_space_group_symop_operation_xyz
x,y,z
-x,-y,z
x,-y,-z
-x,y,-z
-x,-y,-z
x,y,-z
-x,y,z
x,-y,z
1/2+x,1/2+y,1/2+z
1/2-x,1/2-y,1/2+z
1/2+x,1/2-y,1/2-z
1/2-x,1/2+y,1/2-z
1/2-x,1/2-y,1/2-z
1/2+x,1/2+y,1/2-z
1/2-x,1/2+y,1/2+z
1/2+x,1/2-y,1/2+z
loop_
_atom_site_type_symbol
_atom_site_label
_atom_site_fract_x
_atom_site_fract_y
_atom_site_fract_z
Si Si1 0.441641 0.106035 0.500000
Si Si2 0.945163 0.000000 0.663342
Si Si3 0.053424 0.396479 0.500000
Si Si4 0.381023 0.159855 0.253664
Si Si5 0.139665 0.136909 0.333239
Si Si6 0.792962 0.000000 0.828902
Si Si7 0.192504 0.500000 0.164168
O O1 0.500000 0.101710 0.500000
O O2 0.422448 0.166393 0.372077
O O3 0.420326 0.000000 0.500000
O O4 0.913685 0.908714 0.703829
O O5 0.954474 0.000000 0.500000
O O6 0.000000 0.000000 0.737111
O O7 0.036411 0.500000 0.500000
O O8 0.088343 0.379312 0.627991
O O9 0.000000 0.340806 0.500000
O O10 0.358554 0.257721 0.212349
O O11 0.337499 0.092734 0.303153
O O12 0.151232 0.125143 0.500000
O O13 0.181159 0.089797 0.237051
O O14 0.737136 0.000000 0.774293
O O15 0.795088 0.000000 0.000000
O O16 0.209046 0.500000 0.000000
#
# Coordination Sequence:
#
# PCOD8292173 Si02
#       7
#     8   8   8  16  16   8   8
#     4  11  22  40  60  88 134 184 220 253 312 377
#     4   8  16  34  60  87 119 162 209 252 298 362
#     4  11  22  36  58  94 138 176 212 259 308 371
#     4  12  22  39  64  94 131 173 216 262 316 379
#     4  10  22  42  65  93 133 168 207 261 323 379
#     4  11  27  45  72  95 118 162 210 271 330 385
#     4  12  25  45  67  91 129 166 216 266 327 389
#
# _framework density 19.308287
#
# number of rings (size 3 to 8) (size 9 to 14) (size 15 to 20)
#    0.000    1.222    4.444    2.333    3.111    4.444 
#    0.000    0.000    0.000    1.333    0.000    0.000 
#    0.000    0.000    0.000    0.000    0.000    0.000 
#
# Total GULP energy -446087.620800 kJ/mol
# GULP energy per Si atom -12391.322800 kJ/mol
# Density = 1.926434 g / cm^3
# Si number density = 19.308287 Si / 1000 Ang^3
#
#
#
# Elastic Constant Matrix: (Units=GPa)
#
#
# Indices 1 2 3 4 5 6 
#
# 1 111.1984 43.0321 51.8371 0.0000 0.0000 0.0000
# 2 43.0321 119.8401 38.6065 0.0000 0.0000 0.0000
# 3 51.8371 38.6065 157.6336 0.0000 0.0000 0.0000
# 4 0.0000 0.0000 0.0000 58.8437 0.0000 0.0000
# 5 0.0000 0.0000 0.0000 0.0000 44.9087 0.0000
# 6 0.0000 0.0000 0.0000 0.0000 0.0000 17.1624
#
#
#
# Elastic Compliance Matrix: (Units=1/GPa)
#
#
# Indices 1 2 3 4 5 6 
#
# 1 0.011653 -0.003203 -0.003048 0.000000 0.000000 0.000000
# 2 -0.003203 0.009939 -0.001381 0.000000 0.000000 0.000000
# 3 -0.003048 -0.001381 0.007684 0.000000 0.000000 0.000000
# 4 0.000000 0.000000 0.000000 0.016994 0.000000 0.000000
# 5 0.000000 0.000000 0.000000 0.000000 0.022267 0.000000
# 6 0.000000 0.000000 0.000000 0.000000 0.000000 0.058267
#
#
# Mechanical properties :
#
#
# Convention : Reuss Voigt Hill
#
# Bulk Modulus (GPa) = 71.35763 72.84708 72.10235
# Shear Modulus (GPa) = 34.07406 41.19604 37.63505
#
# Velocity S-wave (km/s) = 4.20544 4.62410 4.41973
# Velocity P-wave (km/s) = 7.78577 8.14371 7.96675
#
# Compressibility (1/GPa) = 0.01401392
#
# Stress axis : x y z
#
# Youngs Moduli (GPa) = 85.81469 100.61017 130.13536
#
# Poissons Ratio (x) = 0.32221 0.39661
# Poissons Ratio (y) = 0.27483 0.17973
# Poissons Ratio (z) = 0.26154 0.13896
#
# Static dielectric constant tensor:
#      x y z
#    x 3.711810 0.000000 0.000000 
#    y 0.000000 3.415800 0.000000 
#    z 0.000000 0.000000 3.825860 
# 
# 
# High freq. dielectric constant tensor:
#      x y z
#    x 1.760580 0.000000 0.000000 
#    y 0.000000 1.746250 0.000000 
#    z 0.000000 0.000000 1.757090 
# 
# From -- ./inp_files/14401.got.cif
#   From: 2010.06.25/outbox.cif.g09.slc.cpg/sg71_8_cif.got.tgz:14401.got - 2010.06.28 04:59:45.
