data_PCOD8292023
_publ_section_title
;
Structure prediction by ZEFSAII (Michael W. Deem and Ramdas Pophale) SiO2 
 PCOD8292023
Probable space group: I M M M
;
_chemical_formula_sum "Si O2"
_cell_formula_units_Z 96
_cell_length_a 13.229101
_cell_length_b 26.838613
_cell_length_c 14.180726
_cell_angle_alpha 90.000000
_cell_angle_beta 90.000000
_cell_angle_gamma 90.000000
_cell_volume 5034.877006
_symmetry_space_group_name_H-M "I M M M"
_symmetry_group_IT_number 71
_symmetry_cell_setting 'orthorhombic'
loop_
_space_group_symop_operation_xyz
x,y,z
-x,-y,z
x,-y,-z
-x,y,-z
-x,-y,-z
x,y,-z
-x,y,z
x,-y,z
1/2+x,1/2+y,1/2+z
1/2-x,1/2-y,1/2+z
1/2+x,1/2-y,1/2-z
1/2-x,1/2+y,1/2-z
1/2-x,1/2-y,1/2-z
1/2+x,1/2+y,1/2-z
1/2-x,1/2+y,1/2+z
1/2+x,1/2-y,1/2+z
loop_
_atom_site_type_symbol
_atom_site_label
_atom_site_fract_x
_atom_site_fract_y
_atom_site_fract_z
Si Si1 0.381167 0.797715 0.391475
Si Si2 0.880808 0.556436 0.392753
Si Si3 0.500000 0.058439 0.604095
Si Si4 0.881856 0.000000 0.102674
Si Si5 0.817536 0.607415 0.209534
Si Si6 0.117006 0.093361 0.771840
Si Si7 0.881407 0.187304 0.897176
O O1 0.352349 0.809978 0.500000
O O2 0.500000 0.804472 0.376335
O O3 0.327259 0.834931 0.318620
O O4 0.342969 0.742045 0.365175
O O5 0.856759 0.573049 0.500000
O O6 0.837051 0.500000 0.374111
O O7 0.834356 0.597384 0.321408
O O8 0.000000 0.554477 0.375566
O O9 0.500000 0.082144 0.500000
O O10 0.397077 0.074617 0.653194
O O11 0.500000 0.000000 0.600700
O O12 0.851862 0.950188 0.156931
O O13 0.000000 0.000000 0.087548
O O14 0.828398 0.000000 0.000000
O O15 0.700003 0.590981 0.187304
O O16 0.143048 0.145825 0.820566
O O17 0.000000 0.089232 0.737074
O O18 0.000000 0.191661 0.910588
O O19 0.834962 0.173247 0.000000
#
# Coordination Sequence:
#
# PCOD8292023 Si02
#       7
#    16  16   8   8  16  16  16
#     4   9  17  32  56  84 108 136 182 244 297 330
#     4   9  18  32  48  71 108 152 188 215 261 335
#     4  11  24  40  61  87 111 137 184 245 298 338
#     4   9  18  34  54  75 105 144 190 237 268 304
#     4  12  21  33  58  81 114 147 185 235 282 330
#     4  10  22  35  50  79 114 151 187 222 271 340
#     4   8  15  31  54  78 110 147 187 236 281 323
#
# _framework density 19.067
#
# number of rings (size 3 to 8) (size 9 to 14) (size 15 to 20)
#    0.000    2.333    1.667    3.000    2.333    4.000 
#    0.000    0.000    0.000    2.000    0.000    1.167 
#    0.000    0.000    0.000    0.000    0.000    0.000 
#
# Total GULP energy -594714.266740 kJ/mol
# GULP energy per Si atom -12389.880557 kJ/mol
# Density = 1.902360 g / cm^3
# Si number density = 19.067000 Si / 1000 Ang^3
#
#
#
# Elastic Constant Matrix: (Units=GPa)
#
#
# Indices 1 2 3 4 5 6 
#
# 1 103.7680 37.7932 45.6765 0.0000 0.0000 0.0000
# 2 37.7932 112.8437 43.6942 0.0003 -0.0001 0.0000
# 3 45.6765 43.6942 74.9678 0.0011 -0.0005 -0.0001
# 4 0.0000 0.0003 0.0011 9.1196 -0.0002 0.0000
# 5 0.0000 -0.0001 -0.0005 -0.0002 10.8423 0.0000
# 6 0.0000 0.0000 -0.0001 0.0000 0.0000 16.6220
#
#
#
# Elastic Compliance Matrix: (Units=1/GPa)
#
#
# Indices 1 2 3 4 5 6 
#
# 1 0.013421 -0.001716 -0.007177 0.000001 0.000000 0.000000
# 2 -0.001716 0.011664 -0.005753 0.000000 0.000000 0.000000
# 3 -0.007177 -0.005753 0.021065 -0.000002 0.000001 0.000000
# 4 0.000001 0.000000 -0.000002 0.109654 0.000002 0.000000
# 5 0.000000 0.000000 0.000001 0.000002 0.092232 0.000000
# 6 0.000000 0.000000 0.000000 0.000000 0.000000 0.060161
#
#
# Mechanical properties :
#
#
# Convention : Reuss Voigt Hill
#
# Bulk Modulus (GPa) = 59.31768 60.65639 59.98703
# Shear Modulus (GPa) = 14.57267 18.27782 16.42524
#
# Velocity S-wave (km/s) = 2.76757 3.09950 2.93823
# Velocity P-wave (km/s) = 6.43353 6.68510 6.56052
#
# Compressibility (1/GPa) = 0.01685838
#
# Stress axis : x y z
#
# Youngs Moduli (GPa) = 74.50995 85.73363 47.47232
#
# Poissons Ratio (x) = 0.14711 0.34071
# Poissons Ratio (y) = 0.12785 0.27310
# Poissons Ratio (z) = 0.53477 0.49321
#
# Static dielectric constant tensor:
#      x y z
#    x 3.561820 0.000000 0.000000 
#    y 0.000000 4.072000 0.000000 
#    z 0.000000 0.000000 3.506860 
# 
# 
# High freq. dielectric constant tensor:
#      x y z
#    x 1.739870 0.000000 0.000000 
#    y 0.000000 1.749190 0.000000 
#    z 0.000000 0.000000 1.708650 
# 
# From -- ./inp_files/35058.got.cif
#   From: 2010.06.25/outbox.cif.g09.slc.cpg/sg71_18_cif.got.tgz:35058.got - 2010.06.28 04:59:45.
