data_PCOD8292468
_publ_section_title
;
Structure prediction by ZEFSAII (Michael W. Deem and Ramdas Pophale) SiO2 
 PCOD8292468
Probable space group: I M M M
;
_chemical_formula_sum "Si O2"
_cell_formula_units_Z 72
_cell_length_a 9.229670
_cell_length_b 13.988703
_cell_length_c 28.969086
_cell_angle_alpha 90.000000
_cell_angle_beta 90.000000
_cell_angle_gamma 90.000000
_cell_volume 3740.230919
_symmetry_space_group_name_H-M "I M M M"
_symmetry_group_IT_number 71
_symmetry_cell_setting 'orthorhombic'
loop_
_space_group_symop_operation_xyz
x,y,z
-x,-y,z
x,-y,-z
-x,y,-z
-x,-y,-z
x,y,-z
-x,y,z
x,-y,z
1/2+x,1/2+y,1/2+z
1/2-x,1/2-y,1/2+z
1/2+x,1/2-y,1/2-z
1/2-x,1/2+y,1/2-z
1/2-x,1/2-y,1/2-z
1/2+x,1/2+y,1/2-z
1/2-x,1/2+y,1/2+z
1/2+x,1/2-y,1/2+z
loop_
_atom_site_type_symbol
_atom_site_label
_atom_site_fract_x
_atom_site_fract_y
_atom_site_fract_z
Si Si1 0.163601 0.608493 0.946171
Si Si2 0.833061 0.112744 0.000000
Si Si3 0.832719 0.295564 0.313998
Si Si4 0.331708 0.216083 0.081042
Si Si5 0.669689 0.606367 0.764728
O O1 0.211293 0.500000 0.936953
O O2 0.276926 0.674909 0.919821
O O3 0.000000 0.625905 0.928258
O O4 0.171019 0.633583 0.000000
O O5 0.757934 0.151208 0.046049
O O6 0.000000 0.146021 0.000000
O O7 0.817799 0.000000 0.000000
O O8 0.805282 0.321191 0.367288
O O9 0.743435 0.370940 0.284195
O O10 0.783992 0.185912 0.302606
O O11 0.000000 0.307894 0.301027
O O12 0.500000 0.213109 0.067294
O O13 0.500000 0.608983 0.755766
O O14 0.717874 0.500000 0.781408
#
# Coordination Sequence:
#
# PCOD8292468 Si02
#       5
#    16   8  16  16  16
#     4   9  18  33  53  77 108 145 181 220 267 319
#     4  11  25  43  60  77 104 147 193 234 276 323
#     4   9  20  36  54  81 114 144 176 221 276 327
#     4  11  22  36  57  84 113 145 183 230 280 327
#     4   9  18  35  58  81 108 143 181 221 265 320
#
# _framework density 19.250147999999999
#
# number of rings (size 3 to 8) (size 9 to 14) (size 15 to 20)
#    0.000    2.333    1.111    1.667    0.000    5.333 
#    0.000    7.778    0.000    0.000    0.000    0.000 
#    0.000    0.000    0.000    0.000    0.000    0.000 
#
# Total GULP energy -446381.647576 kJ/mol
# GULP energy per Si atom -12399.490210 kJ/mol
# Density = 1.920633 g / cm^3
# Si number density = 19.250148 Si / 1000 Ang^3
#
#
#
# Elastic Constant Matrix: (Units=GPa)
#
#
# Indices 1 2 3 4 5 6 
#
# 1 82.2446 35.2696 42.7482 0.0000 0.0000 0.0000
# 2 35.2696 78.6163 27.2473 0.0000 0.0000 0.0000
# 3 42.7482 27.2473 85.2847 0.0000 0.0000 0.0000
# 4 0.0000 0.0000 0.0000 17.3705 0.0000 0.0000
# 5 0.0000 0.0000 0.0000 0.0000 29.5799 0.0000
# 6 0.0000 0.0000 0.0000 0.0000 0.0000 28.4834
#
#
#
# Elastic Compliance Matrix: (Units=1/GPa)
#
#
# Indices 1 2 3 4 5 6 
#
# 1 0.018472 -0.005710 -0.007435 0.000000 0.000000 0.000000
# 2 -0.005710 0.016069 -0.002272 0.000000 0.000000 0.000000
# 3 -0.007435 -0.002272 0.016178 0.000000 0.000000 0.000000
# 4 0.000000 0.000000 0.000000 0.057569 0.000000 0.000000
# 5 0.000000 0.000000 0.000000 0.000000 0.033807 0.000000
# 6 0.000000 0.000000 0.000000 0.000000 0.000000 0.035108
#
#
# Mechanical properties :
#
#
# Convention : Reuss Voigt Hill
#
# Bulk Modulus (GPa) = 50.28717 50.74176 50.51447
# Shear Modulus (GPa) = 23.29222 24.47879 23.88550
#
# Velocity S-wave (km/s) = 3.48224 3.56984 3.52631
# Velocity P-wave (km/s) = 6.50752 6.58848 6.54812
#
# Compressibility (1/GPa) = 0.01988579
#
# Stress axis : x y z
#
# Youngs Moduli (GPa) = 54.13624 62.23102 61.81355
#
# Poissons Ratio (x) = 0.35536 0.45955
# Poissons Ratio (y) = 0.30914 0.14042
# Poissons Ratio (z) = 0.40248 0.14137
#
# Static dielectric constant tensor:
#      x y z
#    x 3.517120 0.000000 0.000000 
#    y 0.000000 3.656030 0.000000 
#    z 0.000000 0.000000 3.369430 
# 
# 
# High freq. dielectric constant tensor:
#      x y z
#    x 1.748950 0.000000 0.000000 
#    y 0.000000 1.753350 0.000000 
#    z 0.000000 0.000000 1.737310 
# 
# From -- ./inp_files/6081.got.cif
#   From: 2010.06.25/outbox.cif.g09.slc.cpg/sg71_4_cif.got.tgz:6081.got - 2010.06.28 04:59:45.
