data_PCOD8292960
_publ_section_title
;
Structure prediction by ZEFSAII (Michael W. Deem and Ramdas Pophale) SiO2 
 PCOD8292960
Probable space group: I B A M
;
_chemical_formula_sum "Si O2"
_cell_formula_units_Z 112
_cell_length_a 14.970888
_cell_length_b 27.448732
_cell_length_c 15.187208
_cell_angle_alpha 90.000000
_cell_angle_beta 90.000000
_cell_angle_gamma 90.000000
_cell_volume 6240.908125
_symmetry_space_group_name_H-M "I B A M"
_symmetry_group_IT_number 72
_symmetry_cell_setting 'orthorhombic'
loop_
_space_group_symop_operation_xyz
x,y,z
-x,-y,z
x,-y,1/2-z
-x,y,1/2-z
-x,-y,-z
x,y,-z
-x,y,1/2+z
x,-y,1/2+z
1/2+x,1/2+y,1/2+z
1/2-x,1/2-y,1/2+z
1/2+x,1/2-y,-z
1/2-x,1/2+y,-z
1/2-x,1/2-y,1/2-z
1/2+x,1/2+y,1/2-z
1/2-x,1/2+y,z
1/2+x,1/2-y,z
loop_
_atom_site_type_symbol
_atom_site_label
_atom_site_fract_x
_atom_site_fract_y
_atom_site_fract_z
Si Si1 0.728954 0.162297 0.098746
Si Si2 0.363094 0.747780 0.401840
Si Si3 0.878137 0.907799 0.663399
Si Si4 0.599834 0.201944 0.769582
Si Si5 0.559346 0.715594 0.402792
Si Si6 0.897969 0.005294 0.401171
Si Si7 0.075413 0.108916 0.140714
O O1 0.777352 0.214043 0.106337
O O2 0.798664 0.119732 0.115773
O O3 0.651508 0.160870 0.173492
O O4 0.689255 0.155483 0.000000
O O5 0.365919 0.771860 0.500000
O O6 0.354496 0.788687 0.325654
O O7 0.452350 0.715356 0.386466
O O8 0.899780 0.885953 0.757910
O O9 0.972515 0.901053 0.612910
O O10 0.849521 0.965412 0.662161
O O11 0.500000 0.183125 0.750000
O O12 0.602877 0.251376 0.827461
O O13 0.581149 0.737228 0.500000
O O14 0.600516 0.661092 0.400674
O O15 0.880706 0.987575 0.500000
O O16 0.867216 0.061950 0.392545
O O17 0.000000 0.000000 0.371800
#
# Coordination Sequence:
#
# PCOD8292960 Si02
#       7
#    16  16  16  16  16  16  16
#     4  11  20  32  50  72  96 130 174 216 256 308
#     4   9  18  30  47  66  90 124 165 211 259 302
#     4  10  19  29  45  68 100 135 175 211 247 293
#     4  10  21  34  49  68  98 130 171 218 263 307
#     4  10  18  29  45  67  95 132 173 213 254 302
#     4   9  17  28  42  65  97 134 171 206 240 289
#     4  10  18  28  46  67  99 138 176 205 249 298
#
# _framework density 17.946106
#
# number of rings (size 3 to 8) (size 9 to 14) (size 15 to 20)
#    0.000    2.143    1.429    3.000    4.000    3.429 
#    0.000    0.000    0.000    0.857    0.000    0.000 
#    0.000    2.286    0.000    6.714    0.000    0.857 
#
# Total GULP energy -693775.471694 kJ/mol
# GULP energy per Si atom -12388.847709 kJ/mol
# Density = 1.790526 g / cm^3
# Si number density = 17.946106 Si / 1000 Ang^3
#
#
#
# Elastic Constant Matrix: (Units=GPa)
#
#
# Indices 1 2 3 4 5 6 
#
# 1 46.4656 21.3029 32.3074 0.0000 0.0000 0.0000
# 2 21.3029 51.1730 27.3701 -0.0001 0.0001 0.0000
# 3 32.3074 27.3701 111.7810 0.0000 0.0000 0.0001
# 4 0.0000 -0.0001 0.0000 20.6179 0.0000 0.0000
# 5 0.0000 0.0001 0.0000 0.0000 20.0712 0.0000
# 6 0.0000 0.0000 0.0001 0.0000 0.0000 14.2180
#
#
#
# Elastic Compliance Matrix: (Units=1/GPa)
#
#
# Indices 1 2 3 4 5 6 
#
# 1 0.030216 -0.009099 -0.006505 0.000000 0.000000 0.000000
# 2 -0.009099 0.025227 -0.003547 0.000000 0.000000 0.000000
# 3 -0.006505 -0.003547 0.011695 0.000000 0.000000 0.000000
# 4 0.000000 0.000000 0.000000 0.048502 0.000000 0.000000
# 5 0.000000 0.000000 0.000000 0.000000 0.049823 0.000000
# 6 0.000000 0.000000 0.000000 0.000000 0.000000 0.070333
#
#
# Mechanical properties :
#
#
# Convention : Reuss Voigt Hill
#
# Bulk Modulus (GPa) = 34.68070 41.26449 37.97260
# Shear Modulus (GPa) = 17.62368 19.54405 18.58386
#
# Velocity S-wave (km/s) = 3.13714 3.30364 3.22147
# Velocity P-wave (km/s) = 5.69992 6.13152 5.91965
#
# Compressibility (1/GPa) = 0.02883448
#
# Stress axis : x y z
#
# Youngs Moduli (GPa) = 33.09495 39.64065 85.50892
#
# Poissons Ratio (x) = 0.36071 0.55625
# Poissons Ratio (y) = 0.30114 0.30329
# Poissons Ratio (z) = 0.21529 0.14060
#
# Static dielectric constant tensor:
#      x y z
#    x 2.982680 0.000000 0.000000 
#    y 0.000000 3.189460 0.000000 
#    z 0.000000 0.000000 3.536300 
# 
# 
# High freq. dielectric constant tensor:
#      x y z
#    x 1.635770 0.000000 0.000000 
#    y 0.000000 1.664200 0.000000 
#    z 0.000000 0.000000 1.716770 
# 
# From -- ./inp_files/22289.got.cif
#   From: 2010.03.12/outbox.cif.g09.slc.cpg/sg72_12_cif.got.tgz:22289.got - 2010.04.16 14:54:00.
