data_PCOD8292955
_publ_section_title
;
Structure prediction by ZEFSAII (Michael W. Deem and Ramdas Pophale) SiO2 
 PCOD8292955
Probable space group: I B A M
;
_chemical_formula_sum "Si O2"
_cell_formula_units_Z 96
_cell_length_a 26.079313
_cell_length_b 22.944609
_cell_length_c 8.696763
_cell_angle_alpha 90.000000
_cell_angle_beta 90.000000
_cell_angle_gamma 90.000000
_cell_volume 5203.965911
_symmetry_space_group_name_H-M "I B A M"
_symmetry_group_IT_number 72
_symmetry_cell_setting 'orthorhombic'
loop_
_space_group_symop_operation_xyz
x,y,z
-x,-y,z
x,-y,1/2-z
-x,y,1/2-z
-x,-y,-z
x,y,-z
-x,y,1/2+z
x,-y,1/2+z
1/2+x,1/2+y,1/2+z
1/2-x,1/2-y,1/2+z
1/2+x,1/2-y,-z
1/2-x,1/2+y,-z
1/2-x,1/2-y,1/2-z
1/2+x,1/2+y,1/2-z
1/2-x,1/2+y,z
1/2+x,1/2-y,z
loop_
_atom_site_type_symbol
_atom_site_label
_atom_site_fract_x
_atom_site_fract_y
_atom_site_fract_z
Si Si1 0.115512 0.833290 0.678392
Si Si2 0.336655 0.562671 0.318293
Si Si3 0.227158 0.436858 0.315800
Si Si4 0.639621 0.849924 0.167413
Si Si5 0.055248 0.720512 0.318818
Si Si6 0.800795 0.767143 0.668486
O O1 0.106868 0.846162 0.500000
O O2 0.115825 0.894562 0.770834
O O3 0.075457 0.784228 0.740325
O O4 0.172178 0.809379 0.710577
O O5 0.350368 0.500000 0.250000
O O6 0.332733 0.558032 0.500000
O O7 0.281685 0.584800 0.252010
O O8 0.213818 0.500000 0.250000
O O9 0.231185 0.437505 0.500000
O O10 0.180363 0.395344 0.259059
O O11 0.590761 0.835023 0.274270
O O12 0.667233 0.789867 0.139037
O O13 0.620724 0.873374 0.000000
O O14 0.052357 0.722741 0.500000
O O15 0.000000 0.708828 0.250000
O O16 0.792437 0.797377 0.500000
O O17 0.750000 0.750000 0.750000
#
# Coordination Sequence:
#
# PCOD8292955 Si02
#       6
#    16  16  16  16  16  16
#     4  10  20  34  50  72 100 131 167 207 250 302
#     4  11  21  33  51  75 105 142 177 211 247 293
#     4  10  19  32  50  74 106 143 177 212 248 293
#     4   9  19  33  49  70  99 132 168 207 250 298
#     4  10  21  36  57  79 101 128 162 208 261 312
#     4  10  18  28  44  68  98 132 165 203 248 298
#
# _framework density 18.447469000000002
#
# number of rings (size 3 to 8) (size 9 to 14) (size 15 to 20)
#    0.000    2.000    0.000    5.500    0.000    5.333 
#    0.000    0.000    0.000    1.000    0.000    7.000 
#    0.000    0.000    0.000    0.000    0.000    0.000 
#
# Total GULP energy -594710.451960 kJ/mol
# GULP energy per Si atom -12389.801082 kJ/mol
# Density = 1.840548 g / cm^3
# Si number density = 18.447469 Si / 1000 Ang^3
#
#
#
# Elastic Constant Matrix: (Units=GPa)
#
#
# Indices 1 2 3 4 5 6 
#
# 1 39.7301 -0.2121 20.5959 0.0000 0.0000 0.0000
# 2 -0.2121 58.2251 15.8711 0.0000 0.0000 0.0000
# 3 20.5959 15.8711 85.8293 0.0000 0.0000 0.0000
# 4 0.0000 0.0000 0.0000 26.2991 0.0000 0.0000
# 5 0.0000 0.0000 0.0000 0.0000 22.1685 0.0000
# 6 0.0000 0.0000 0.0000 0.0000 0.0000 12.8457
#
#
#
# Elastic Compliance Matrix: (Units=1/GPa)
#
#
# Indices 1 2 3 4 5 6 
#
# 1 0.028989 0.002108 -0.007346 0.000000 0.000000 0.000000
# 2 0.002108 0.018240 -0.003879 0.000000 0.000000 0.000000
# 3 -0.007346 -0.003879 0.014131 0.000000 0.000000 0.000000
# 4 0.000000 0.000000 0.000000 0.038024 0.000000 0.000000
# 5 0.000000 0.000000 0.000000 0.000000 0.045109 0.000000
# 6 0.000000 0.000000 0.000000 0.000000 0.000000 0.077847
#
#
# Mechanical properties :
#
#
# Convention : Reuss Voigt Hill
#
# Bulk Modulus (GPa) = 23.18763 28.47717 25.83240
# Shear Modulus (GPa) = 19.61175 22.09797 20.85486
#
# Velocity S-wave (km/s) = 3.26408 3.46480 3.36594
# Velocity P-wave (km/s) = 5.17711 5.61043 5.39812
#
# Compressibility (1/GPa) = 0.04312644
#
# Stress axis : x y z
#
# Youngs Moduli (GPa) = 34.49543 54.82566 70.76602
#
# Poissons Ratio (x) = -0.11557 0.51986
# Poissons Ratio (y) = -0.07272 0.27448
# Poissons Ratio (z) = 0.25341 0.21265
#
# Static dielectric constant tensor:
#      x y z
#    x 3.073900 0.000000 0.000000 
#    y 0.000000 3.463580 0.000000 
#    z 0.000000 0.000000 3.616630 
# 
# 
# High freq. dielectric constant tensor:
#      x y z
#    x 1.683210 0.000000 0.000000 
#    y 0.000000 1.711710 0.000000 
#    z 0.000000 0.000000 1.727340 
# 
# From -- ./inp_files/6947.got.cif
#   From: 2010.03.12/outbox.cif.g09.slc.cpg/sg72_4_cif.got.tgz:6947.got - 2010.04.16 14:54:00.
