data_PCOD8292713
_publ_section_title
;
Structure prediction by ZEFSAII (Michael W. Deem and Ramdas Pophale) SiO2 
 PCOD8292713
Probable space group: I M M M
;
_chemical_formula_sum "Si O2"
_cell_formula_units_Z 88
_cell_length_a 9.255953
_cell_length_b 26.008390
_cell_length_c 27.520259
_cell_angle_alpha 90.000000
_cell_angle_beta 90.000000
_cell_angle_gamma 90.000000
_cell_volume 6625.018973
_symmetry_space_group_name_H-M "I M M M"
_symmetry_group_IT_number 71
_symmetry_cell_setting 'orthorhombic'
loop_
_space_group_symop_operation_xyz
x,y,z
-x,-y,z
x,-y,-z
-x,y,-z
-x,-y,-z
x,y,-z
-x,y,z
x,-y,z
1/2+x,1/2+y,1/2+z
1/2-x,1/2-y,1/2+z
1/2+x,1/2-y,1/2-z
1/2-x,1/2+y,1/2-z
1/2-x,1/2-y,1/2-z
1/2+x,1/2+y,1/2-z
1/2-x,1/2+y,1/2+z
1/2+x,1/2-y,1/2+z
loop_
_atom_site_type_symbol
_atom_site_label
_atom_site_fract_x
_atom_site_fract_y
_atom_site_fract_z
Si Si1 0.327513 0.500000 0.945209
Si Si2 0.159933 0.353185 0.811653
Si Si3 0.330934 0.601618 0.892823
Si Si4 0.329657 0.205215 0.778421
Si Si5 0.168484 0.206891 0.443838
Si Si6 0.164401 0.756786 0.862767
O O1 0.500000 0.500000 0.946412
O O2 0.267877 0.550380 0.917697
O O3 0.266725 0.500000 0.000000
O O4 0.267802 0.392139 0.838432
O O5 0.192812 0.346854 0.753776
O O6 0.171631 0.297014 0.835067
O O7 0.000000 0.375591 0.819153
O O8 0.500000 0.596695 0.886377
O O9 0.288124 0.649636 0.926727
O O10 0.500000 0.217889 0.783916
O O11 0.250000 0.250000 0.750000
O O12 0.254216 0.200785 0.831402
O O13 0.208472 0.212237 0.500000
O O14 0.259874 0.249838 0.415078
O O15 0.000000 0.216745 0.433957
O O16 0.000000 0.775827 0.869722
#
# Coordination Sequence:
#
# PCOD8292713 Si02
#       6
#     8  16  16  16  16  16
#     4   9  16  26  39  53  67  83 109 147 184 213
#     4   8  15  25  35  48  66  84 101 127 165 205
#     4   9  16  25  38  52  64  82 110 143 177 212
#     4   9  15  23  35  50  67  85 103 126 159 198
#     4   9  16  25  36  49  65  87 115 144 173 205
#     4   9  16  24  34  49  67  86 107 132 163 198
#
# _framework density 13.282980999999999
#
# number of rings (size 3 to 8) (size 9 to 14) (size 15 to 20)
#    0.000    3.182    0.000    2.727    0.000    7.636 
#    0.000    0.455    0.000    2.182    0.000    0.000 
#    0.000    0.000    0.000    0.000    0.000    0.000 
#
# Total GULP energy -545225.735711 kJ/mol
# GULP energy per Si atom -12391.493993 kJ/mol
# Density = 1.325275 g / cm^3
# Si number density = 13.282981 Si / 1000 Ang^3
#
#
#
# Elastic Constant Matrix: (Units=GPa)
#
#
# Indices 1 2 3 4 5 6 
#
# 1 63.0599 22.4640 50.9560 0.0000 0.0000 0.0000
# 2 22.4640 31.1670 43.1503 0.0000 0.0000 0.0000
# 3 50.9560 43.1503 107.2971 0.0000 0.0000 0.0000
# 4 0.0000 0.0000 0.0000 21.2033 0.0000 0.0000
# 5 0.0000 0.0000 0.0000 0.0000 23.0478 0.0000
# 6 0.0000 0.0000 0.0000 0.0000 0.0000 10.1218
#
#
#
# Elastic Compliance Matrix: (Units=1/GPa)
#
#
# Indices 1 2 3 4 5 6 
#
# 1 0.025921 -0.003700 -0.010822 0.000000 0.000000 0.000000
# 2 -0.003700 0.072920 -0.027568 0.000000 0.000000 0.000000
# 3 -0.010822 -0.027568 0.025546 0.000000 0.000000 0.000000
# 4 0.000000 0.000000 0.000000 0.047162 0.000000 0.000000
# 5 0.000000 0.000000 0.000000 0.000000 0.043388 0.000000
# 6 0.000000 0.000000 0.000000 0.000000 0.000000 0.098796
#
#
# Mechanical properties :
#
#
# Convention : Reuss Voigt Hill
#
# Bulk Modulus (GPa) = 24.87152 48.29606 36.58379
# Shear Modulus (GPa) = 12.15612 16.53816 14.34714
#
# Velocity S-wave (km/s) = 3.02845 3.53237 3.29008
# Velocity P-wave (km/s) = 5.56720 7.28527 6.48340
#
# Compressibility (1/GPa) = 0.04020662
#
# Stress axis : x y z
#
# Youngs Moduli (GPa) = 38.57917 13.71372 39.14503
#
# Poissons Ratio (x) = 0.05074 0.42363
# Poissons Ratio (y) = 0.14274 1.07915
# Poissons Ratio (z) = 0.41750 0.37806
#
# Static dielectric constant tensor:
#      x y z
#    x 2.705740 0.000000 0.000000 
#    y 0.000000 2.382910 0.000000 
#    z 0.000000 0.000000 2.986120 
# 
# 
# High freq. dielectric constant tensor:
#      x y z
#    x 1.509290 0.000000 0.000000 
#    y 0.000000 1.439570 0.000000 
#    z 0.000000 0.000000 1.504860 
# 
# From -- ./inp_files/13498.got.cif
#   From: 2010.06.25/outbox.cif.g09.slc.cpg/sg71_7_cif.got.tgz:13498.got - 2010.06.28 04:59:45.
