data_PCOD8292336
_publ_section_title
;
Structure prediction by ZEFSAII (Michael W. Deem and Ramdas Pophale) SiO2 
 PCOD8292336
Probable space group: I M M M
;
_chemical_formula_sum "Si O2"
_cell_formula_units_Z 104
_cell_length_a 18.737984
_cell_length_b 28.094988
_cell_length_c 12.340135
_cell_angle_alpha 90.000000
_cell_angle_beta 90.000000
_cell_angle_gamma 90.000000
_cell_volume 6496.383065
_symmetry_space_group_name_H-M "I M M M"
_symmetry_group_IT_number 71
_symmetry_cell_setting 'orthorhombic'
loop_
_space_group_symop_operation_xyz
x,y,z
-x,-y,z
x,-y,-z
-x,y,-z
-x,-y,-z
x,y,-z
-x,y,z
x,-y,z
1/2+x,1/2+y,1/2+z
1/2-x,1/2-y,1/2+z
1/2+x,1/2-y,1/2-z
1/2-x,1/2+y,1/2-z
1/2-x,1/2-y,1/2-z
1/2+x,1/2+y,1/2-z
1/2-x,1/2+y,1/2+z
1/2+x,1/2-y,1/2+z
loop_
_atom_site_type_symbol
_atom_site_label
_atom_site_fract_x
_atom_site_fract_y
_atom_site_fract_z
Si Si1 0.709931 0.824672 0.741896
Si Si2 0.081388 0.789803 0.686456
Si Si3 0.674445 0.376620 0.123062
Si Si4 0.678645 0.268859 0.374857
Si Si5 0.415782 0.448009 0.500000
Si Si6 0.918028 0.943421 0.234429
Si Si7 0.580337 0.183193 0.122506
O O1 0.751490 0.868887 0.688217
O O2 0.695970 0.786373 0.647230
O O3 0.754508 0.800788 0.839056
O O4 0.635666 0.842518 0.795769
O O5 0.128198 0.828502 0.623799
O O6 0.108095 0.784862 0.809946
O O7 0.091688 0.740075 0.624944
O O8 0.000000 0.806995 0.687478
O O9 0.631868 0.419938 0.176368
O O10 0.691681 0.390871 0.000000
O O11 0.662723 0.277006 0.500000
O O12 0.379405 0.500000 0.500000
O O13 0.500000 0.455189 0.500000
O O14 0.395109 0.422764 0.614329
O O15 0.000000 0.929946 0.259649
O O16 0.907793 0.000000 0.237668
O O17 0.500000 0.170495 0.160606
O O18 0.593155 0.165499 0.000000
#
# Coordination Sequence:
#
# PCOD8292336 Si02
#       7
#    16  16  16  16   8  16  16
#     4   9  18  29  41  60  85 113 147 182 219 273
#     4   9  18  29  40  60  86 116 155 191 224 262
#     4  11  21  31  44  63  90 122 153 188 226 264
#     4   9  16  27  42  56  79 116 150 184 226 264
#     4   7  12  28  50  64  80 108 141 177 217 263
#     4   9  18  33  51  69  89 118 154 188 224 262
#     4   9  16  28  47  65  84 114 149 187 227 266
#
# _framework density 16.008908999999999
#
# number of rings (size 3 to 8) (size 9 to 14) (size 15 to 20)
#    0.000    2.846    0.000    3.692    0.000    2.462 
#    6.923    0.769    0.000    1.385    0.000    0.000 
#    0.000    0.615    0.000    3.077    0.000    0.000 
#
# Total GULP energy -644529.429115 kJ/mol
# GULP energy per Si atom -12394.796714 kJ/mol
# Density = 1.597247 g / cm^3
# Si number density = 16.008909 Si / 1000 Ang^3
#
#
#
# Elastic Constant Matrix: (Units=GPa)
#
#
# Indices 1 2 3 4 5 6 
#
# 1 100.5163 21.4683 47.9010 0.0000 0.0000 0.0000
# 2 21.4683 32.4097 23.4502 0.0000 0.0000 0.0000
# 3 47.9010 23.4502 119.5853 -0.0003 -0.0002 -0.0001
# 4 0.0000 0.0000 -0.0003 16.2157 -0.0001 0.0000
# 5 0.0000 0.0000 -0.0002 -0.0001 21.7054 0.0000
# 6 0.0000 0.0000 -0.0001 0.0000 0.0000 20.9673
#
#
#
# Elastic Compliance Matrix: (Units=1/GPa)
#
#
# Indices 1 2 3 4 5 6 
#
# 1 0.013143 -0.005706 -0.004146 0.000000 0.000000 0.000000
# 2 -0.005706 0.038434 -0.005251 0.000000 0.000000 0.000000
# 3 -0.004146 -0.005251 0.011052 0.000000 0.000000 0.000000
# 4 0.000000 0.000000 0.000000 0.061669 0.000000 0.000000
# 5 0.000000 0.000000 0.000000 0.000000 0.046071 0.000000
# 6 0.000000 0.000000 0.000000 0.000000 0.000000 0.047693
#
#
# Mechanical properties :
#
#
# Convention : Reuss Voigt Hill
#
# Bulk Modulus (GPa) = 30.84156 48.68337 39.76247
# Shear Modulus (GPa) = 19.29927 22.42381 20.86154
#
# Velocity S-wave (km/s) = 3.47585 3.74666 3.61379
# Velocity P-wave (km/s) = 5.95111 7.01376 6.50418
#
# Compressibility (1/GPa) = 0.03242378
#
# Stress axis : x y z
#
# Youngs Moduli (GPa) = 76.08637 26.01839 90.47748
#
# Poissons Ratio (x) = 0.14847 0.37508
# Poissons Ratio (y) = 0.43418 0.47510
# Poissons Ratio (z) = 0.31542 0.13662
#
# Static dielectric constant tensor:
#      x y z
#    x 3.115360 0.000000 0.000000 
#    y 0.000000 2.582240 0.000000 
#    z 0.000000 0.000000 3.073830 
# 
# 
# High freq. dielectric constant tensor:
#      x y z
#    x 1.604400 0.000000 0.000000 
#    y 0.000000 1.559070 0.000000 
#    z 0.000000 0.000000 1.623420 
# 
# From -- ./inp_files/24535.got.cif
#   From: 2010.06.25/outbox.cif.g09.slc.cpg/sg71_13_cif.got.tgz:24535.got - 2010.06.28 04:59:45.
