data_PCOD8292210
_publ_section_title
;
Structure prediction by ZEFSAII (Michael W. Deem and Ramdas Pophale) SiO2 
 PCOD8292210
Probable space group: I M M M
;
_chemical_formula_sum "Si O2"
_cell_formula_units_Z 56
_cell_length_a 11.033167
_cell_length_b 27.417533
_cell_length_c 9.314546
_cell_angle_alpha 90.000000
_cell_angle_beta 90.000000
_cell_angle_gamma 90.000000
_cell_volume 2817.670846
_symmetry_space_group_name_H-M "I M M M"
_symmetry_group_IT_number 71
_symmetry_cell_setting 'orthorhombic'
loop_
_space_group_symop_operation_xyz
x,y,z
-x,-y,z
x,-y,-z
-x,y,-z
-x,-y,-z
x,y,-z
-x,y,z
x,-y,z
1/2+x,1/2+y,1/2+z
1/2-x,1/2-y,1/2+z
1/2+x,1/2-y,1/2-z
1/2-x,1/2+y,1/2-z
1/2-x,1/2-y,1/2-z
1/2+x,1/2+y,1/2-z
1/2-x,1/2+y,1/2+z
1/2+x,1/2-y,1/2+z
loop_
_atom_site_type_symbol
_atom_site_label
_atom_site_fract_x
_atom_site_fract_y
_atom_site_fract_z
Si Si1 0.000000 0.557248 0.840634
Si Si2 0.639432 0.223521 0.831738
Si Si3 0.641707 0.445808 0.841115
Si Si4 0.195233 0.387725 0.667475
O O1 0.884065 0.573983 0.753601
O O2 0.000000 0.500000 0.850543
O O3 0.000000 0.580334 0.000000
O O4 0.500000 0.238711 0.785547
O O5 0.750000 0.250000 0.750000
O O6 0.655143 0.166819 0.796435
O O7 0.656275 0.234076 0.000000
O O8 0.500000 0.444553 0.855884
O O9 0.683223 0.500000 0.788668
O O10 0.673154 0.402321 0.728431
O O11 0.698504 0.435718 0.000000
O O12 0.185364 0.397809 0.500000
#
# Coordination Sequence:
#
# PCOD8292210 Si02
#       4
#     8  16  16  16
#     4  11  23  37  57  87 121 157 199 241 288 357
#     4  10  23  44  65  89 123 159 203 260 317 377
#     4   9  19  36  56  81 118 161 203 246 292 353
#     4  11  22  38  59  85 120 154 192 248 306 360
#
# _framework density 19.874571
#
# number of rings (size 3 to 8) (size 9 to 14) (size 15 to 20)
#    0.000    1.857    1.429    3.000    0.000    9.714 
#    0.000    7.143    0.000    0.000    0.000    0.000 
#    0.000    0.000    0.000    0.000    0.000    0.000 
#
# Total GULP energy -346912.970949 kJ/mol
# GULP energy per Si atom -12389.748962 kJ/mol
# Density = 1.982934 g / cm^3
# Si number density = 19.874571 Si / 1000 Ang^3
#
#
#
# Elastic Constant Matrix: (Units=GPa)
#
#
# Indices 1 2 3 4 5 6 
#
# 1 113.6981 54.9848 57.1412 0.0001 0.0001 0.0000
# 2 54.9848 74.8036 64.0391 -0.0005 -0.0013 0.0002
# 3 57.1412 64.0391 108.2336 -0.0012 0.0000 0.0005
# 4 0.0001 -0.0005 -0.0012 36.1114 -0.0011 0.0004
# 5 0.0001 -0.0013 0.0000 -0.0011 61.9949 0.0006
# 6 0.0000 0.0002 0.0005 0.0004 0.0006 26.1296
#
#
#
# Elastic Compliance Matrix: (Units=1/GPa)
#
#
# Indices 1 2 3 4 5 6 
#
# 1 0.014009 -0.008036 -0.002641 0.000000 0.000000 0.000000
# 2 -0.008036 0.031701 -0.014514 0.000000 0.000001 0.000000
# 3 -0.002641 -0.014514 0.019221 0.000000 0.000000 0.000000
# 4 0.000000 0.000000 0.000000 0.027692 0.000000 0.000000
# 5 0.000000 0.000001 0.000000 0.000000 0.016130 0.000000
# 6 0.000000 0.000000 0.000000 0.000000 0.000000 0.038271
#
#
# Mechanical properties :
#
#
# Convention : Reuss Voigt Hill
#
# Bulk Modulus (GPa) = 68.73626 72.11837 70.42732
# Shear Modulus (GPa) = 24.72119 32.88520 28.80319
#
# Velocity S-wave (km/s) = 3.53067 4.07214 3.81103
# Velocity P-wave (km/s) = 7.16107 7.64691 7.40797
#
# Compressibility (1/GPa) = 0.01454836
#
# Stress axis : x y z
#
# Youngs Moduli (GPa) = 71.38297 31.54500 52.02647
#
# Poissons Ratio (x) = 0.25351 0.13740
# Poissons Ratio (y) = 0.57366 0.75510
# Poissons Ratio (z) = 0.18852 0.45784
#
# Static dielectric constant tensor:
#      x y z
#    x 4.656380 0.000000 0.000000 
#    y 0.000000 3.596240 0.000000 
#    z 0.000000 0.000000 3.711330 
# 
# 
# High freq. dielectric constant tensor:
#      x y z
#    x 1.791880 0.000000 0.000000 
#    y 0.000000 1.764850 0.000000 
#    z 0.000000 0.000000 1.775100 
# 
# From -- ./inp_files/3284.got.cif
#   From: 2010.06.25/outbox.cif.g09.slc.cpg/sg71_2_cif.got.tgz:3284.got - 2010.06.28 04:59:45.
