data_PCOD8292377
_publ_section_title
;
Structure prediction by ZEFSAII (Michael W. Deem and Ramdas Pophale) SiO2 
 PCOD8292377
Probable space group: I M M M
;
_chemical_formula_sum "Si O2"
_cell_formula_units_Z 88
_cell_length_a 23.253470
_cell_length_b 8.747730
_cell_length_c 22.243745
_cell_angle_alpha 90.000000
_cell_angle_beta 90.000000
_cell_angle_gamma 90.000000
_cell_volume 4524.713105
_symmetry_space_group_name_H-M "I M M M"
_symmetry_group_IT_number 71
_symmetry_cell_setting 'orthorhombic'
loop_
_space_group_symop_operation_xyz
x,y,z
-x,-y,z
x,-y,-z
-x,y,-z
-x,-y,-z
x,y,-z
-x,y,z
x,-y,z
1/2+x,1/2+y,1/2+z
1/2-x,1/2-y,1/2+z
1/2+x,1/2-y,1/2-z
1/2-x,1/2+y,1/2-z
1/2-x,1/2-y,1/2-z
1/2+x,1/2+y,1/2-z
1/2-x,1/2+y,1/2+z
1/2+x,1/2-y,1/2+z
loop_
_atom_site_type_symbol
_atom_site_label
_atom_site_fract_x
_atom_site_fract_y
_atom_site_fract_z
Si Si1 0.064592 0.828252 0.570407
Si Si2 0.066801 0.682673 0.000000
Si Si3 0.562960 0.818988 0.739836
Si Si4 0.874928 0.680339 0.877852
Si Si5 0.758624 0.679990 0.816024
Si Si6 0.354747 0.822758 0.156591
O O1 0.068486 0.807391 0.500000
O O2 0.105618 0.701583 0.598868
O O3 0.000000 0.796726 0.592893
O O4 0.083343 0.000000 0.588917
O O5 0.101996 0.746194 0.941658
O O6 0.066006 0.500000 0.000000
O O7 0.000000 0.740627 0.000000
O O8 0.500000 0.750148 0.754954
O O9 0.578201 0.772597 0.671931
O O10 0.611269 0.756223 0.785320
O O11 0.561446 0.000000 0.747111
O O12 0.869520 0.500000 0.884462
O O13 0.813275 0.744534 0.854106
O O14 0.765593 0.500000 0.807861
O O15 0.750000 0.750000 0.750000
O O16 0.702674 0.725101 0.854031
O O17 0.338926 0.000000 0.164199
#
# Coordination Sequence:
#
# PCOD8292377 Si02
#       6
#    16   8  16  16  16  16
#     4   9  19  37  58  80 110 146 182 225 280 336
#     4   9  16  28  50  80 111 141 174 219 278 341
#     4   9  16  27  46  74 106 136 169 217 274 326
#     4   9  17  30  48  74 108 142 177 220 274 332
#     4  11  21  36  55  77 108 147 186 231 282 335
#     4  11  21  34  53  80 111 146 187 228 275 335
#
# _framework density 19.448747999999998
#
# number of rings (size 3 to 8) (size 9 to 14) (size 15 to 20)
#    0.000    2.273    1.818    2.727    0.000    3.636 
#    1.636    0.909    0.000    0.000    0.000    0.000 
#    0.000    2.909    0.000    0.000    0.000    0.000 
#
# Total GULP energy -545345.183011 kJ/mol
# GULP energy per Si atom -12394.208705 kJ/mol
# Density = 1.940448 g / cm^3
# Si number density = 19.448748 Si / 1000 Ang^3
#
#
#
# Elastic Constant Matrix: (Units=GPa)
#
#
# Indices 1 2 3 4 5 6 
#
# 1 151.5703 19.9197 64.2309 0.0000 0.0000 0.0000
# 2 19.9197 28.0507 17.4495 0.0000 0.0000 0.0000
# 3 64.2309 17.4495 95.5029 0.0000 0.0000 0.0000
# 4 0.0000 0.0000 0.0000 21.6960 0.0000 0.0000
# 5 0.0000 0.0000 0.0000 0.0000 31.8084 0.0000
# 6 0.0000 0.0000 0.0000 0.0000 0.0000 23.4273
#
#
#
# Elastic Compliance Matrix: (Units=1/GPa)
#
#
# Indices 1 2 3 4 5 6 
#
# 1 0.009463 -0.003115 -0.005795 0.000000 0.000000 0.000000
# 2 -0.003115 0.041246 -0.005441 0.000000 0.000000 0.000000
# 3 -0.005795 -0.005441 0.015363 0.000000 0.000000 0.000000
# 4 0.000000 0.000000 0.000000 0.046091 0.000000 0.000000
# 5 0.000000 0.000000 0.000000 0.000000 0.031438 0.000000
# 6 0.000000 0.000000 0.000000 0.000000 0.000000 0.042685
#
#
# Mechanical properties :
#
#
# Convention : Reuss Voigt Hill
#
# Bulk Modulus (GPa) = 26.75990 53.14711 39.95350
# Shear Modulus (GPa) = 21.98327 26.95459 24.46893
#
# Velocity S-wave (km/s) = 3.36567 3.72685 3.55085
# Velocity P-wave (km/s) = 5.37519 6.77534 6.11547
#
# Compressibility (1/GPa) = 0.03736935
#
# Stress axis : x y z
#
# Youngs Moduli (GPa) = 105.67764 24.24449 65.09327
#
# Poissons Ratio (x) = 0.07552 0.37722
# Poissons Ratio (y) = 0.32917 0.35419
# Poissons Ratio (z) = 0.61241 0.13192
#
# Static dielectric constant tensor:
#      x y z
#    x 3.941770 0.000000 0.000000 
#    y 0.000000 3.177460 0.000000 
#    z 0.000000 0.000000 3.602870 
# 
# 
# High freq. dielectric constant tensor:
#      x y z
#    x 1.772310 0.000000 0.000000 
#    y 0.000000 1.705280 0.000000 
#    z 0.000000 0.000000 1.756430 
# 
# From -- ./inp_files/10455.got.cif
#   From: 2010.06.25/outbox.cif.g09.slc.cpg/sg71_6_cif.got.tgz:10455.got - 2010.06.28 04:59:45.
