data_PCOD8292861
_publ_section_title
;
Structure prediction by ZEFSAII (Michael W. Deem and Ramdas Pophale) SiO2 
 PCOD8292861
Probable space group: I B A M
;
_chemical_formula_sum "Si O2"
_cell_formula_units_Z 120
_cell_length_a 14.705813
_cell_length_b 22.554830
_cell_length_c 22.721917
_cell_angle_alpha 90.000000
_cell_angle_beta 90.000000
_cell_angle_gamma 90.000000
_cell_volume 7536.567034
_symmetry_space_group_name_H-M "I B A M"
_symmetry_group_IT_number 72
_symmetry_cell_setting 'orthorhombic'
loop_
_space_group_symop_operation_xyz
x,y,z
-x,-y,z
x,-y,1/2-z
-x,y,1/2-z
-x,-y,-z
x,y,-z
-x,y,1/2+z
x,-y,1/2+z
1/2+x,1/2+y,1/2+z
1/2-x,1/2-y,1/2+z
1/2+x,1/2-y,-z
1/2-x,1/2+y,-z
1/2-x,1/2-y,1/2-z
1/2+x,1/2+y,1/2-z
1/2-x,1/2+y,z
1/2+x,1/2-y,z
loop_
_atom_site_type_symbol
_atom_site_label
_atom_site_fract_x
_atom_site_fract_y
_atom_site_fract_z
Si Si1 0.821244 0.320275 0.733709
Si Si2 0.234127 0.935530 0.743846
Si Si3 0.885358 0.058154 0.363450
Si Si4 0.500000 0.249852 0.750000
Si Si5 0.881284 0.825938 0.068342
Si Si6 0.412143 0.430008 0.843019
Si Si7 0.764119 0.738637 0.351760
Si Si8 0.938167 0.197581 0.869724
O O1 0.814482 0.391383 0.736315
O O2 0.921903 0.295236 0.730920
O O3 0.768935 0.300523 0.792768
O O4 0.773142 0.301217 0.672792
O O5 0.199856 0.924595 0.677477
O O6 0.143569 0.930682 0.782943
O O7 0.279000 0.000000 0.750000
O O8 0.881389 0.103366 0.418503
O O9 0.980229 0.067643 0.328744
O O10 0.881709 0.988061 0.381980
O O11 0.527583 0.293351 0.697281
O O12 0.800103 0.792692 0.101533
O O13 0.976831 0.795442 0.086404
O O14 0.865198 0.816158 0.000000
O O15 0.394464 0.368083 0.877176
O O16 0.861545 0.752362 0.382810
#
# Coordination Sequence:
#
# PCOD8292861 Si02
#       8
#    16  16  16   8  16  16  16  16
#     4  10  18  31  48  77  97 127 157 206 253 300
#     4  10  17  27  47  73 101 127 155 200 245 300
#     4   9  18  30  41  68 100 131 163 188 236 296
#     4  10  20  30  51  73 106 124 160 206 258 302
#     4  11  22  35  50  69 101 137 170 205 239 292
#     4   9  17  26  45  70  99 126 155 196 242 291
#     4  10  19  32  50  71 100 129 165 201 250 295
#     4  10  20  31  51  75  98 131 164 207 248 299
#
# _framework density 15.922369
#
# number of rings (size 3 to 8) (size 9 to 14) (size 15 to 20)
#    0.000    2.133    4.000    0.400    3.733    2.133 
#    0.000    5.667    0.000    0.000    0.000    0.000 
#    0.000    0.000    0.000   13.467    0.000    0.000 
#
# Total GULP energy -743435.629202 kJ/mol
# GULP energy per Si atom -12390.593820 kJ/mol
# Density = 1.588613 g / cm^3
# Si number density = 15.922369 Si / 1000 Ang^3
#
#
#
# Elastic Constant Matrix: (Units=GPa)
#
#
# Indices 1 2 3 4 5 6 
#
# 1 67.6634 41.2950 34.5720 0.0000 0.0000 0.0000
# 2 41.2950 104.4125 33.4335 0.0000 0.0000 0.0000
# 3 34.5720 33.4335 71.4863 0.0000 0.0000 0.0000
# 4 0.0000 0.0000 0.0000 15.7720 0.0000 0.0000
# 5 0.0000 0.0000 0.0000 0.0000 16.7535 0.0000
# 6 0.0000 0.0000 0.0000 0.0000 0.0000 21.2491
#
#
#
# Elastic Compliance Matrix: (Units=1/GPa)
#
#
# Indices 1 2 3 4 5 6 
#
# 1 0.022814 -0.006457 -0.008013 0.000000 0.000000 0.000000
# 2 -0.006457 0.013092 -0.003000 0.000000 0.000000 0.000000
# 3 -0.008013 -0.003000 0.019267 0.000000 0.000000 0.000000
# 4 0.000000 0.000000 0.000000 0.063404 0.000000 0.000000
# 5 0.000000 0.000000 0.000000 0.000000 0.059689 0.000000
# 6 0.000000 0.000000 0.000000 0.000000 0.000000 0.047061
#
#
# Mechanical properties :
#
#
# Convention : Reuss Voigt Hill
#
# Bulk Modulus (GPa) = 49.42672 51.35146 50.38909
# Shear Modulus (GPa) = 18.72573 19.70568 19.21570
#
# Velocity S-wave (km/s) = 3.43310 3.52178 3.47772
# Velocity P-wave (km/s) = 6.84285 6.98988 6.91676
#
# Compressibility (1/GPa) = 0.02023197
#
# Stress axis : x y z
#
# Youngs Moduli (GPa) = 43.83245 76.38364 51.90140
#
# Poissons Ratio (x) = 0.49321 0.41591
# Poissons Ratio (y) = 0.28303 0.15571
# Poissons Ratio (z) = 0.35125 0.22917
#
# Static dielectric constant tensor:
#      x y z
#    x 2.901210 0.000000 0.000000 
#    y 0.000000 3.273400 0.000000 
#    z 0.000000 0.000000 2.618160 
# 
# 
# High freq. dielectric constant tensor:
#      x y z
#    x 1.596780 0.000000 0.000000 
#    y 0.000000 1.620370 0.000000 
#    z 0.000000 0.000000 1.567490 
# 
# From -- ./inp_files/44600.got.cif
#   From: 2010.03.12/outbox.cif.g09.slc.cpg/sg72_23_cif.got.tgz:44600.got - 2010.04.16 14:54:00.
