data_PCOD8292499
_publ_section_title
;
Structure prediction by ZEFSAII (Michael W. Deem and Ramdas Pophale) SiO2 
 PCOD8292499
Probable space group: I M M M
;
_chemical_formula_sum "Si O2"
_cell_formula_units_Z 88
_cell_length_a 8.908349
_cell_length_b 22.204137
_cell_length_c 22.704561
_cell_angle_alpha 90.000000
_cell_angle_beta 90.000000
_cell_angle_gamma 90.000000
_cell_volume 4491.012153
_symmetry_space_group_name_H-M "I M M M"
_symmetry_group_IT_number 71
_symmetry_cell_setting 'orthorhombic'
loop_
_space_group_symop_operation_xyz
x,y,z
-x,-y,z
x,-y,-z
-x,y,-z
-x,-y,-z
x,y,-z
-x,y,z
x,-y,z
1/2+x,1/2+y,1/2+z
1/2-x,1/2-y,1/2+z
1/2+x,1/2-y,1/2-z
1/2-x,1/2+y,1/2-z
1/2-x,1/2-y,1/2-z
1/2+x,1/2+y,1/2-z
1/2-x,1/2+y,1/2+z
1/2+x,1/2-y,1/2+z
loop_
_atom_site_type_symbol
_atom_site_label
_atom_site_fract_x
_atom_site_fract_y
_atom_site_fract_z
Si Si1 0.173454 0.768949 0.433875
Si Si2 0.822228 0.375121 0.874606
Si Si3 0.671473 0.313108 0.236149
Si Si4 0.332836 0.930685 0.066912
Si Si5 0.668238 0.666191 0.633780
Si Si6 0.321985 0.000000 0.432424
O O1 0.201889 0.744779 0.500000
O O2 0.270396 0.829015 0.425037
O O3 0.220395 0.719124 0.386266
O O4 0.000000 0.784481 0.423471
O O5 0.751209 0.354411 0.812629
O O6 0.767184 0.441293 0.895707
O O7 0.000000 0.373179 0.867453
O O8 0.500000 0.301428 0.216325
O O9 0.750000 0.250000 0.250000
O O10 0.680067 0.348921 0.297339
O O11 0.500000 0.918532 0.092357
O O12 0.208037 0.895800 0.102758
O O13 0.290450 0.000000 0.071377
O O14 0.328456 0.908309 0.000000
O O15 0.500000 0.686205 0.616544
O O16 0.500000 0.000000 0.436475
O O17 0.258078 0.000000 0.500000
#
# Coordination Sequence:
#
# PCOD8292499 Si02
#       6
#    16  16  16  16  16   8
#     4  11  23  37  57  87 121 155 193 242 299 359
#     4  11  22  39  64  91 120 158 202 251 305 361
#     4  11  23  40  61  86 118 157 197 243 297 356
#     4   9  19  37  59  83 114 152 192 236 289 349
#     4  11  23  37  57  85 116 152 196 245 297 354
#     4   9  20  40  65  93 125 161 204 255 310 371
#
# _framework density 19.594691000000001
#
# number of rings (size 3 to 8) (size 9 to 14) (size 15 to 20)
#    0.000    1.545    1.818    3.818    0.000    7.273 
#    1.636    2.727    0.000    3.273    0.000    0.000 
#    0.000    0.000    0.000    0.000    0.000    0.000 
#
# Total GULP energy -545562.984530 kJ/mol
# GULP energy per Si atom -12399.158739 kJ/mol
# Density = 1.955009 g / cm^3
# Si number density = 19.594691 Si / 1000 Ang^3
#
#
#
# Elastic Constant Matrix: (Units=GPa)
#
#
# Indices 1 2 3 4 5 6 
#
# 1 98.7534 45.5971 52.5532 0.0000 0.0000 0.0000
# 2 45.5971 109.3407 64.5349 0.0000 0.0000 0.0000
# 3 52.5532 64.5349 119.6217 0.0000 0.0000 0.0000
# 4 0.0000 0.0000 0.0000 31.3067 0.0000 0.0000
# 5 0.0000 0.0000 0.0000 0.0000 34.2192 0.0000
# 6 0.0000 0.0000 0.0000 0.0000 0.0000 31.4245
#
#
#
# Elastic Compliance Matrix: (Units=1/GPa)
#
#
# Indices 1 2 3 4 5 6 
#
# 1 0.013952 -0.003228 -0.004388 0.000000 0.000000 0.000000
# 2 -0.003228 0.014165 -0.006224 0.000000 0.000000 0.000000
# 3 -0.004388 -0.006224 0.013645 0.000000 0.000000 0.000000
# 4 0.000000 0.000000 0.000000 0.031942 0.000000 0.000000
# 5 0.000000 0.000000 0.000000 0.000000 0.029223 0.000000
# 6 0.000000 0.000000 0.000000 0.000000 0.000000 0.031822
#
#
# Mechanical properties :
#
#
# Convention : Reuss Voigt Hill
#
# Bulk Modulus (GPa) = 71.01065 72.56514 71.78790
# Shear Modulus (GPa) = 29.91787 30.39212 30.15499
#
# Velocity S-wave (km/s) = 3.91171 3.94259 3.92718
# Velocity P-wave (km/s) = 7.53130 7.60519 7.56833
#
# Compressibility (1/GPa) = 0.01408239
#
# Stress axis : x y z
#
# Youngs Moduli (GPa) = 71.67475 70.59427 73.28683
#
# Poissons Ratio (x) = 0.22791 0.32156
# Poissons Ratio (y) = 0.23140 0.45612
# Poissons Ratio (z) = 0.31449 0.43936
#
# Static dielectric constant tensor:
#      x y z
#    x 3.582050 0.000000 0.000000 
#    y 0.000000 3.576460 0.000000 
#    z 0.000000 0.000000 3.814750 
# 
# 
# High freq. dielectric constant tensor:
#      x y z
#    x 1.764510 0.000000 0.000000 
#    y 0.000000 1.757280 0.000000 
#    z 0.000000 0.000000 1.772960 
# 
# From -- ./inp_files/12500.got.cif
#   From: 2010.06.25/outbox.cif.g09.slc.cpg/sg71_7_cif.got.tgz:12500.got - 2010.06.28 04:59:45.
