data_PCOD8292796
_publ_section_title
;
Structure prediction by ZEFSAII (Michael W. Deem and Ramdas Pophale) SiO2 
 PCOD8292796
Probable space group: I M M M
;
_chemical_formula_sum "Si O2"
_cell_formula_units_Z 52
_cell_length_a 21.000000
_cell_length_b 9.000000
_cell_length_c 30.000000
_cell_angle_alpha 90.000000
_cell_angle_beta 90.000000
_cell_angle_gamma 90.000000
_cell_volume 5670.000000
_symmetry_space_group_name_H-M "I M M M"
_symmetry_group_IT_number 71
_symmetry_cell_setting 'orthorhombic'
loop_
_space_group_symop_operation_xyz
x,y,z
-x,-y,z
x,-y,-z
-x,y,-z
-x,-y,-z
x,y,-z
-x,y,z
x,-y,z
1/2+x,1/2+y,1/2+z
1/2-x,1/2-y,1/2+z
1/2+x,1/2-y,1/2-z
1/2-x,1/2+y,1/2-z
1/2-x,1/2-y,1/2-z
1/2+x,1/2+y,1/2-z
1/2-x,1/2+y,1/2+z
1/2+x,1/2-y,1/2+z
loop_
_atom_site_type_symbol
_atom_site_label
_atom_site_fract_x
_atom_site_fract_y
_atom_site_fract_z
Si Si1 0.162580 0.322918 0.580095
Si Si2 0.426834 0.823571 0.584724
Si Si3 0.927512 0.175522 0.648924
Si Si4 0.197973 0.167347 0.948661
Si Si5 0.925664 0.835018 0.823486
Si Si6 0.073902 0.335301 0.259999
Si Si7 0.073273 0.323784 0.500000
O O1 0.162680 0.500000 0.582181
O O2 0.129990 0.255156 0.623499
O O3 0.237031 0.269333 0.575138
O O4 0.114618 0.266111 0.541623
O O5 0.500000 0.776294 0.569328
O O6 0.367861 0.761158 0.555622
O O7 0.412314 0.762894 0.633398
O O8 0.422813 0.000000 0.584150
O O9 0.915646 0.226070 0.699050
O O10 0.000000 0.222379 0.633714
O O11 0.919689 0.000000 0.645052
O O12 0.183698 0.000000 0.931655
O O13 0.217184 0.165539 0.000000
O O14 0.893801 0.746287 0.782403
O O15 0.000000 0.854494 0.814888
O O16 0.895000 0.000000 0.828401
O O17 0.104259 0.500000 0.267587
O O18 0.000000 0.357773 0.249928
O O19 0.068765 0.500000 0.500000
O O20 0.000000 0.259481 0.500000
#
# Coordination Sequence:
#
# PCOD8292796 Si02
#       7
#    16  16  16  16  16  16   8
#     4  10  19  34  54  76 102 136 179 223 267 320
#     4  10  21  36  55  81 110 139 175 217 260 314
#     4  10  20  32  47  73 109 145 182 224 267 311
#     4  10  21  38  58  79 105 137 176 221 270 325
#     4   9  16  28  49  77 108 139 171 212 263 314
#     4   9  16  27  46  73 105 141 179 218 261 310
#     4   9  16  28  51  79 102 129 170 220 267 309
#
# _framework density 9.1710759999999993
#
# number of rings (size 3 to 8) (size 9 to 14) (size 15 to 20)
#    0.000    2.385    0.769    2.308    0.000    7.385 
#    0.000    1.923    0.000    2.308    0.000    0.000 
#    0.000    0.000    0.000    0.000    0.000    0.000 
#
# Total GULP energy -644191.774877 kJ/mol
# GULP energy per Si atom -12388.303363 kJ/mol
# Density = 0.915020 g / cm^3
# Si number density = 9.171076 Si / 1000 Ang^3
#
#
#
# Elastic Constant Matrix: (Units=GPa)
#
#
# Indices 1 2 3 4 5 6 
#
# 1 127.5662 35.4135 30.4338 0.0000 0.0000 0.0000
# 2 35.4135 62.2759 14.4171 0.0000 0.0000 0.0000
# 3 30.4338 14.4171 58.8399 0.0000 0.0000 0.0000
# 4 0.0000 0.0000 0.0000 24.8335 0.0000 0.0000
# 5 0.0000 0.0000 0.0000 0.0000 13.2026 0.0000
# 6 0.0000 0.0000 0.0000 0.0000 0.0000 27.2123
#
#
#
# Elastic Compliance Matrix: (Units=1/GPa)
#
#
# Indices 1 2 3 4 5 6 
#
# 1 0.010150 -0.004831 -0.004066 0.000000 0.000000 0.000000
# 2 -0.004831 0.019322 -0.002236 0.000000 0.000000 0.000000
# 3 -0.004066 -0.002236 0.019646 0.000000 0.000000 0.000000
# 4 0.000000 0.000000 0.000000 0.040268 0.000000 0.000000
# 5 0.000000 0.000000 0.000000 0.000000 0.075743 0.000000
# 6 0.000000 0.000000 0.000000 0.000000 0.000000 0.036748
#
#
# Mechanical properties :
#
#
# Convention : Reuss Voigt Hill
#
# Bulk Modulus (GPa) = 37.23971 45.46787 41.35379
# Shear Modulus (GPa) = 21.45052 24.27751 22.86401
#
# Velocity S-wave (km/s) = 3.42346 3.64207 3.53445
# Velocity P-wave (km/s) = 5.99780 6.52141 6.26508
#
# Compressibility (1/GPa) = 0.02685306
#
# Stress axis : x y z
#
# Youngs Moduli (GPa) = 98.52016 51.75420 50.89997
#
# Poissons Ratio (x) = 0.25000 0.20698
# Poissons Ratio (y) = 0.47591 0.11380
# Poissons Ratio (z) = 0.40062 0.11571
#
# Static dielectric constant tensor:
#      x y z
#    x 3.473400 0.000000 0.000000 
#    y 0.000000 3.491640 0.000000 
#    z 0.000000 0.000000 3.308160 
# 
# 
# High freq. dielectric constant tensor:
#      x y z
#    x 1.696390 0.000000 0.000000 
#    y 0.000000 1.712330 0.000000 
#    z 0.000000 0.000000 1.706580 
# 
# From -- ./inp_files/68267.got.cif
#   From: 2010.06.25/outbox.ucp.g09.slc.cvg/sg71_35_cif.got.tgz:68267.got - 2010.06.28 16:23:14.
