data_PCOD8292157
_publ_section_title
;
Structure prediction by ZEFSAII (Michael W. Deem and Ramdas Pophale) SiO2 
 PCOD8292157
Probable space group: I M M M
;
_chemical_formula_sum "Si O2"
_cell_formula_units_Z 72
_cell_length_a 16.177023
_cell_length_b 26.535230
_cell_length_c 7.868152
_cell_angle_alpha 90.000000
_cell_angle_beta 90.000000
_cell_angle_gamma 90.000000
_cell_volume 3377.491000
_symmetry_space_group_name_H-M "I M M M"
_symmetry_group_IT_number 71
_symmetry_cell_setting 'orthorhombic'
loop_
_space_group_symop_operation_xyz
x,y,z
-x,-y,z
x,-y,-z
-x,y,-z
-x,-y,-z
x,y,-z
-x,y,z
x,-y,z
1/2+x,1/2+y,1/2+z
1/2-x,1/2-y,1/2+z
1/2+x,1/2-y,1/2-z
1/2-x,1/2+y,1/2-z
1/2-x,1/2-y,1/2-z
1/2+x,1/2+y,1/2-z
1/2-x,1/2+y,1/2+z
1/2+x,1/2-y,1/2+z
loop_
_atom_site_type_symbol
_atom_site_label
_atom_site_fract_x
_atom_site_fract_y
_atom_site_fract_z
Si Si1 0.000000 0.886635 0.192631
Si Si2 0.000000 0.225919 0.300753
Si Si3 0.176706 0.393277 0.805092
Si Si4 0.330184 0.781716 0.800483
Si Si5 0.657866 0.555514 0.803840
Si Si6 0.905154 0.445178 0.500000
O O1 0.000000 0.826648 0.203031
O O2 0.079345 0.909489 0.281669
O O3 0.000000 0.904368 0.000000
O O4 0.916615 0.255368 0.247044
O O5 0.000000 0.214645 0.500000
O O6 0.176764 0.333134 0.803027
O O7 0.263397 0.414567 0.732231
O O8 0.110507 0.414338 0.672914
O O9 0.158223 0.410528 0.000000
O O10 0.250000 0.750000 0.750000
O O11 0.329838 0.792920 0.000000
O O12 0.647813 0.500000 0.717112
O O13 0.672878 0.546901 0.000000
O O14 0.859142 0.500000 0.500000
O O15 0.000000 0.456373 0.500000
#
# Coordination Sequence:
#
# PCOD8292157 Si02
#       6
#     8   8  16  16  16   8
#     4  12  25  37  58  95 132 168 217 271 324 389
#     4  10  24  43  65  86 126 178 215 260 327 392
#     4  11  24  43  70  99 133 175 225 274 333 401
#     4  11  23  41  65  97 133 175 225 277 334 399
#     4  10  22  41  64  90 126 173 219 265 323 388
#     4  11  26  46  70  99 135 173 219 280 342 403
#
# _framework density 21.317598
#
# number of rings (size 3 to 8) (size 9 to 14) (size 15 to 20)
#    0.000    1.222    1.111    4.000    3.111   10.667 
#    0.000    1.111    0.000    0.000    0.000    0.000 
#    0.000    0.000    0.000    0.000    0.000    0.000 
#
# Total GULP energy -446374.960132 kJ/mol
# GULP energy per Si atom -12399.304448 kJ/mol
# Density = 2.126908 g / cm^3
# Si number density = 21.317598 Si / 1000 Ang^3
#
#
#
# Elastic Constant Matrix: (Units=GPa)
#
#
# Indices 1 2 3 4 5 6 
#
# 1 140.8389 56.7996 24.2956 0.0011 -0.0003 0.0000
# 2 56.7996 153.9530 28.1169 0.0013 0.0006 0.0017
# 3 24.2956 28.1169 86.3563 0.0217 0.0126 0.0119
# 4 0.0011 0.0013 0.0217 26.7527 0.0025 0.0036
# 5 -0.0003 0.0006 0.0126 0.0025 31.1266 0.0002
# 6 0.0000 0.0017 0.0119 0.0036 0.0002 56.3773
#
#
#
# Elastic Compliance Matrix: (Units=1/GPa)
#
#
# Indices 1 2 3 4 5 6 
#
# 1 0.008511 -0.002874 -0.001459 0.000001 0.000001 0.000000
# 2 -0.002874 0.007876 -0.001756 0.000001 0.000001 0.000000
# 3 -0.001459 -0.001756 0.012562 -0.000010 -0.000005 -0.000003
# 4 0.000001 0.000001 -0.000010 0.037379 -0.000003 -0.000002
# 5 0.000001 0.000001 -0.000005 -0.000003 0.032127 0.000000
# 6 0.000000 0.000000 -0.000003 -0.000002 0.000000 0.017738
#
#
# Mechanical properties :
#
#
# Convention : Reuss Voigt Hill
#
# Bulk Modulus (GPa) = 59.62154 66.61916 63.12035
# Shear Modulus (GPa) = 37.32432 40.98041 39.15236
#
# Velocity S-wave (km/s) = 4.18888 4.38925 4.29023
# Velocity P-wave (km/s) = 7.17109 7.55023 7.36310
#
# Compressibility (1/GPa) = 0.01677246
#
# Stress axis : x y z
#
# Youngs Moduli (GPa) = 117.49682 126.96186 79.60442
#
# Poissons Ratio (x) = 0.36484 0.11613
# Poissons Ratio (y) = 0.33764 0.13979
# Poissons Ratio (z) = 0.17141 0.22295
#
# Static dielectric constant tensor:
#      x y z
#    x 3.969880 0.000010 -0.000010 
#    y 0.000010 4.865780 0.000050 
#    z -0.000010 0.000050 3.793680 
# 
# 
# High freq. dielectric constant tensor:
#      x y z
#    x 1.841570 0.000000 0.000000 
#    y 0.000000 1.852680 0.000000 
#    z 0.000000 0.000000 1.835480 
# 
# From -- ./inp_files/6135.got.cif
#   From: 2010.06.25/outbox.cif.g09.slc.cpg/sg71_4_cif.got.tgz:6135.got - 2010.06.28 04:59:45.
