data_PCOD8292676
_publ_section_title
;
Structure prediction by ZEFSAII (Michael W. Deem and Ramdas Pophale) SiO2 
 PCOD8292676
Probable space group: I M M M
;
_chemical_formula_sum "Si O2"
_cell_formula_units_Z 56
_cell_length_a 36.187752
_cell_length_b 9.323563
_cell_length_c 9.744598
_cell_angle_alpha 90.000000
_cell_angle_beta 90.000000
_cell_angle_gamma 90.000000
_cell_volume 3287.815531
_symmetry_space_group_name_H-M "I M M M"
_symmetry_group_IT_number 71
_symmetry_cell_setting 'orthorhombic'
loop_
_space_group_symop_operation_xyz
x,y,z
-x,-y,z
x,-y,-z
-x,y,-z
-x,-y,-z
x,y,-z
-x,y,z
x,-y,z
1/2+x,1/2+y,1/2+z
1/2-x,1/2-y,1/2+z
1/2+x,1/2-y,1/2-z
1/2-x,1/2+y,1/2-z
1/2-x,1/2-y,1/2-z
1/2+x,1/2+y,1/2-z
1/2-x,1/2+y,1/2+z
1/2+x,1/2-y,1/2+z
loop_
_atom_site_type_symbol
_atom_site_label
_atom_site_fract_x
_atom_site_fract_y
_atom_site_fract_z
Si Si1 0.070351 0.338400 0.663726
Si Si2 0.500000 0.337534 0.836475
Si Si3 0.721229 0.668784 0.156646
Si Si4 0.361119 0.340709 0.836856
O O1 0.070309 0.339387 0.500000
O O2 0.067127 0.500000 0.720824
O O3 0.108277 0.269008 0.720836
O O4 0.036039 0.245275 0.719131
O O5 0.500000 0.500000 0.779430
O O6 0.500000 0.339368 0.000000
O O7 0.727400 0.500000 0.170963
O O8 0.750000 0.750000 0.250000
O O9 0.679860 0.710007 0.207113
O O10 0.727132 0.718012 0.000000
O O11 0.369457 0.500000 0.778598
O O12 0.362887 0.347465 0.000000
#
# Coordination Sequence:
#
# PCOD8292676 Si02
#       4
#    16   8  16  16
#     4   9  15  21  30  46  67  91 124 165 202 238
#     4   9  15  21  29  41  61  93 128 159 196 241
#     4   9  18  31  46  65  88 114 146 183 221 263
#     4   8  14  25  38  51  71 100 132 165 203 249
#
# _framework density 17.032585999999998
#
# number of rings (size 3 to 8) (size 9 to 14) (size 15 to 20)
#    0.000    3.286    0.000    3.000    0.000    6.857 
#    0.000    2.857    0.000    0.000    0.000    0.000 
#    0.000    0.000    0.000    1.286    0.000   25.429 
#
# Total GULP energy -347044.676560 kJ/mol
# GULP energy per Si atom -12394.452734 kJ/mol
# Density = 1.699382 g / cm^3
# Si number density = 17.032586 Si / 1000 Ang^3
#
#
#
# Elastic Constant Matrix: (Units=GPa)
#
#
# Indices 1 2 3 4 5 6 
#
# 1 177.9647 100.6342 28.8297 0.0000 0.0000 0.0000
# 2 100.6342 134.7669 21.2548 0.0000 0.0000 0.0000
# 3 28.8297 21.2548 18.7469 0.0000 0.0000 0.0000
# 4 0.0000 0.0000 0.0000 13.1356 0.0000 0.0000
# 5 0.0000 0.0000 0.0000 0.0000 14.2566 0.0000
# 6 0.0000 0.0000 0.0000 0.0000 0.0000 39.0992
#
#
#
# Elastic Compliance Matrix: (Units=1/GPa)
#
#
# Indices 1 2 3 4 5 6 
#
# 1 0.010880 -0.006680 -0.009158 0.000000 0.000000 0.000000
# 2 -0.006680 0.013137 -0.004622 0.000000 0.000000 0.000000
# 3 -0.009158 -0.004622 0.072666 0.000000 0.000000 0.000000
# 4 0.000000 0.000000 0.000000 0.076129 0.000000 0.000000
# 5 0.000000 0.000000 0.000000 0.000000 0.070143 0.000000
# 6 0.000000 0.000000 0.000000 0.000000 0.000000 0.025576
#
#
# Mechanical properties :
#
#
# Convention : Reuss Voigt Hill
#
# Bulk Modulus (GPa) = 17.93292 70.32396 44.12844
# Shear Modulus (GPa) = 15.24207 25.34894 20.29551
#
# Velocity S-wave (km/s) = 2.99470 3.86198 3.45566
# Velocity P-wave (km/s) = 4.74437 7.82714 6.47198
#
# Compressibility (1/GPa) = 0.05576335
#
# Stress axis : x y z
#
# Youngs Moduli (GPa) = 91.91113 76.11868 13.76157
#
# Poissons Ratio (x) = 0.50848 0.12603
# Poissons Ratio (y) = 0.61397 0.06361
# Poissons Ratio (z) = 0.84173 0.35182
#
# Static dielectric constant tensor:
#      x y z
#    x 3.526550 0.000000 0.000000 
#    y 0.000000 3.370290 0.000000 
#    z 0.000000 0.000000 2.435800 
# 
# 
# High freq. dielectric constant tensor:
#      x y z
#    x 1.676850 0.000000 0.000000 
#    y 0.000000 1.665050 0.000000 
#    z 0.000000 0.000000 1.562920 
# 
# From -- ./inp_files/16090.got.cif
#   From: 2010.06.25/outbox.cif.g09.slc.cpg/sg71_9_cif.got.tgz:16090.got - 2010.06.28 04:59:45.
