data_PCOD8292999
_publ_section_title
;
Structure prediction by ZEFSAII (Michael W. Deem and Ramdas Pophale) SiO2 
 PCOD8292999
Probable space group: I B A M
;
_chemical_formula_sum "Si O2"
_cell_formula_units_Z 116
_cell_length_a 26.209201
_cell_length_b 26.525239
_cell_length_c 9.091079
_cell_angle_alpha 90.000000
_cell_angle_beta 90.000000
_cell_angle_gamma 90.000000
_cell_volume 6320.166490
_symmetry_space_group_name_H-M "I B A M"
_symmetry_group_IT_number 72
_symmetry_cell_setting 'orthorhombic'
loop_
_space_group_symop_operation_xyz
x,y,z
-x,-y,z
x,-y,1/2-z
-x,y,1/2-z
-x,-y,-z
x,y,-z
-x,y,1/2+z
x,-y,1/2+z
1/2+x,1/2+y,1/2+z
1/2-x,1/2-y,1/2+z
1/2+x,1/2-y,-z
1/2-x,1/2+y,-z
1/2-x,1/2-y,1/2-z
1/2+x,1/2+y,1/2-z
1/2-x,1/2+y,z
1/2+x,1/2-y,z
loop_
_atom_site_type_symbol
_atom_site_label
_atom_site_fract_x
_atom_site_fract_y
_atom_site_fract_z
Si Si1 0.707733 0.450242 0.172158
Si Si2 0.081884 0.423422 0.834948
Si Si3 0.179212 0.855045 0.834734
Si Si4 0.678617 0.079535 0.326906
Si Si5 0.206681 0.676878 0.668043
Si Si6 0.143449 0.751025 0.830311
Si Si7 0.500000 0.000000 0.750000
Si Si8 0.551126 0.821634 0.172939
O O1 0.685978 0.500000 0.250000
O O2 0.674754 0.402282 0.225155
O O3 0.767171 0.444682 0.217103
O O4 0.700574 0.455697 0.000000
O O5 0.132388 0.448212 0.758919
O O6 0.036545 0.464240 0.846484
O O7 0.066403 0.375436 0.738709
O O8 0.095182 0.406269 0.000000
O O9 0.233066 0.827220 0.815260
O O10 0.137513 0.811420 0.799722
O O11 0.172933 0.876207 0.000000
O O12 0.668596 0.077221 0.500000
O O13 0.677716 0.137203 0.272992
O O14 0.189583 0.668253 0.500000
O O15 0.188613 0.731145 0.725376
O O16 0.091418 0.722321 0.792623
O O17 0.159497 0.742872 0.000000
O O18 0.500000 0.802258 0.250000
O O19 0.542455 0.829386 0.000000
#
# Coordination Sequence:
#
# PCOD8292999 Si02
#       8
#    16  16  16  16  16  16   4  16
#     4  10  21  36  54  77 106 143 178 215 258 306
#     4  12  25  41  59  75  96 128 174 229 285 332
#     4   9  19  34  51  76 108 140 175 214 256 312
#     4  10  21  36  53  74 101 133 173 217 266 319
#     4  10  18  29  50  77 104 136 173 211 257 313
#     4  10  20  34  53  76 106 140 171 212 268 320
#     4  12  30  44  56  74  98 128 178 236 296 328
#     4  11  23  39  59  79 104 137 175 220 274 329
#
# _framework density 18.353947000000002
#
# number of rings (size 3 to 8) (size 9 to 14) (size 15 to 20)
#    0.000    1.655    2.069    2.690    0.966    4.966 
#    0.000    0.000    0.000    0.000    0.000    0.000 
#    0.000    0.552    0.000    6.345    0.000    1.931 
#
# Total GULP energy -719137.865847 kJ/mol
# GULP energy per Si atom -12398.928722 kJ/mol
# Density = 1.831217 g / cm^3
# Si number density = 18.353947 Si / 1000 Ang^3
#
#
#
# Elastic Constant Matrix: (Units=GPa)
#
#
# Indices 1 2 3 4 5 6 
#
# 1 45.0805 37.0168 25.4750 0.0000 0.0000 0.0000
# 2 37.0168 120.0827 51.2163 0.0000 0.0000 0.0000
# 3 25.4750 51.2163 96.4069 0.0000 0.0000 0.0000
# 4 0.0000 0.0000 0.0000 23.0833 0.0000 0.0000
# 5 0.0000 0.0000 0.0000 0.0000 20.0037 0.0000
# 6 0.0000 0.0000 0.0000 0.0000 0.0000 26.7463
#
#
#
# Elastic Compliance Matrix: (Units=1/GPa)
#
#
# Indices 1 2 3 4 5 6 
#
# 1 0.030854 -0.007801 -0.004008 0.000000 0.000000 0.000000
# 2 -0.007801 0.012740 -0.004707 0.000000 0.000000 0.000000
# 3 -0.004008 -0.004707 0.013932 0.000000 0.000000 0.000000
# 4 0.000000 0.000000 0.000000 0.043321 0.000000 0.000000
# 5 0.000000 0.000000 0.000000 0.000000 0.049991 0.000000
# 6 0.000000 0.000000 0.000000 0.000000 0.000000 0.037388
#
#
# Mechanical properties :
#
#
# Convention : Reuss Voigt Hill
#
# Bulk Modulus (GPa) = 40.82800 54.33183 47.57991
# Shear Modulus (GPa) = 21.79379 23.82413 22.80896
#
# Velocity S-wave (km/s) = 3.44963 3.60674 3.52906
# Velocity P-wave (km/s) = 6.17735 6.85648 6.52576
#
# Compressibility (1/GPa) = 0.02449299
#
# Stress axis : x y z
#
# Youngs Moduli (GPa) = 32.41119 78.49399 71.77568
#
# Poissons Ratio (x) = 0.61236 0.28771
# Poissons Ratio (y) = 0.25285 0.33782
# Poissons Ratio (z) = 0.12992 0.36944
#
# Static dielectric constant tensor:
#      x y z
#    x 3.326410 0.000000 0.000000 
#    y 0.000000 3.360170 0.000000 
#    z 0.000000 0.000000 3.398050 
# 
# 
# High freq. dielectric constant tensor:
#      x y z
#    x 1.671480 0.000000 0.000000 
#    y 0.000000 1.705860 0.000000 
#    z 0.000000 0.000000 1.721560 
# 
# From -- ./inp_files/7518.got.cif
#   From: 2010.03.12/outbox.cif.g09.slc.cpg/sg72_4_cif.got.tgz:7518.got - 2010.04.16 14:54:00.
