data_PCOD8292489
_publ_section_title
;
Structure prediction by ZEFSAII (Michael W. Deem and Ramdas Pophale) SiO2 
 PCOD8292489
Probable space group: I M M M
;
_chemical_formula_sum "Si O2"
_cell_formula_units_Z 104
_cell_length_a 21.001070
_cell_length_b 29.006439
_cell_length_c 8.822097
_cell_angle_alpha 90.000000
_cell_angle_beta 90.000000
_cell_angle_gamma 90.000000
_cell_volume 5374.123799
_symmetry_space_group_name_H-M "I M M M"
_symmetry_group_IT_number 71
_symmetry_cell_setting 'orthorhombic'
loop_
_space_group_symop_operation_xyz
x,y,z
-x,-y,z
x,-y,-z
-x,y,-z
-x,-y,-z
x,y,-z
-x,y,z
x,-y,z
1/2+x,1/2+y,1/2+z
1/2-x,1/2-y,1/2+z
1/2+x,1/2-y,1/2-z
1/2-x,1/2+y,1/2-z
1/2-x,1/2-y,1/2-z
1/2+x,1/2+y,1/2-z
1/2-x,1/2+y,1/2+z
1/2+x,1/2-y,1/2+z
loop_
_atom_site_type_symbol
_atom_site_label
_atom_site_fract_x
_atom_site_fract_y
_atom_site_fract_z
Si Si1 0.260962 0.879949 0.324866
Si Si2 0.628709 0.052548 0.320507
Si Si3 0.072122 0.808535 0.322262
Si Si4 0.071629 0.084375 0.667983
Si Si5 0.679652 0.448717 0.331368
Si Si6 0.706212 0.710663 0.679927
Si Si7 0.000000 0.554439 0.332050
O O1 0.267449 0.865353 0.500000
O O2 0.322245 0.908367 0.263218
O O3 0.205384 0.916843 0.303065
O O4 0.243048 0.836040 0.225298
O O5 0.626537 0.051669 0.500000
O O6 0.561853 0.070879 0.258073
O O7 0.644604 0.000000 0.262228
O O8 0.080086 0.798578 0.500000
O O9 0.077488 0.862217 0.285734
O O10 0.132551 0.784836 0.237650
O O11 0.000000 0.791441 0.271582
O O12 0.100621 0.076930 0.500000
O O13 0.104728 0.052678 0.795599
O O14 0.000000 0.067731 0.667894
O O15 0.693994 0.429531 0.500000
O O16 0.707261 0.500000 0.317012
O O17 0.704681 0.715181 0.500000
O O18 0.750000 0.750000 0.750000
O O19 0.000000 0.500000 0.342659
O O20 0.000000 0.576369 0.500000
#
# Coordination Sequence:
#
# PCOD8292489 Si02
#       7
#    16  16  16  16  16  16   8
#     4  11  22  38  59  83 113 149 192 239 288 340
#     4   9  18  33  55  82 112 150 193 234 279 336
#     4   9  18  36  63  92 120 151 190 239 292 347
#     4   9  18  33  54  78 106 146 193 237 282 334
#     4  11  23  35  49  76 114 153 192 236 285 336
#     4  12  25  41  64  92 121 153 192 238 293 352
#     4   9  17  29  49  79 113 149 189 233 279 333
#
# _framework density 19.351991999999999
#
# number of rings (size 3 to 8) (size 9 to 14) (size 15 to 20)
#    0.000    1.923    1.538    3.923    0.000    4.923 
#    0.000    4.615    1.692    0.000    0.000    0.000 
#    0.000    0.000    0.000    0.000    0.000    0.000 
#
# Total GULP energy -644216.681350 kJ/mol
# GULP energy per Si atom -12388.782334 kJ/mol
# Density = 1.930795 g / cm^3
# Si number density = 19.351992 Si / 1000 Ang^3
#
#
#
# Elastic Constant Matrix: (Units=GPa)
#
#
# Indices 1 2 3 4 5 6 
#
# 1 142.5464 57.0417 52.1190 0.0000 0.0000 0.0000
# 2 57.0417 74.5255 38.0205 0.0000 0.0000 0.0000
# 3 52.1190 38.0205 74.0256 0.0000 0.0000 0.0000
# 4 0.0000 0.0000 0.0000 24.6860 0.0000 0.0000
# 5 0.0000 0.0000 0.0000 0.0000 26.9288 0.0000
# 6 0.0000 0.0000 0.0000 0.0000 0.0000 33.2430
#
#
#
# Elastic Compliance Matrix: (Units=1/GPa)
#
#
# Indices 1 2 3 4 5 6 
#
# 1 0.011212 -0.006172 -0.004724 0.000000 0.000000 0.000000
# 2 -0.006172 0.021580 -0.006738 0.000000 0.000000 0.000000
# 3 -0.004724 -0.006738 0.020296 0.000000 0.000000 0.000000
# 4 0.000000 0.000000 0.000000 0.040509 0.000000 0.000000
# 5 0.000000 0.000000 0.000000 0.000000 0.037135 0.000000
# 6 0.000000 0.000000 0.000000 0.000000 0.000000 0.030082
#
#
# Mechanical properties :
#
#
# Convention : Reuss Voigt Hill
#
# Bulk Modulus (GPa) = 56.11904 65.05111 60.58507
# Shear Modulus (GPa) = 24.74982 26.56598 25.65790
#
# Velocity S-wave (km/s) = 3.58009 3.70912 3.64518
# Velocity P-wave (km/s) = 6.79349 7.21326 7.00652
#
# Compressibility (1/GPa) = 0.01781926
#
# Stress axis : x y z
#
# Youngs Moduli (GPa) = 89.18782 46.33989 49.27076
#
# Poissons Ratio (x) = 0.28599 0.23277
# Poissons Ratio (y) = 0.55044 0.33200
# Poissons Ratio (z) = 0.42136 0.31225
#
# Static dielectric constant tensor:
#      x y z
#    x 3.919220 0.000000 0.000000 
#    y 0.000000 3.365890 0.000000 
#    z 0.000000 0.000000 3.486690 
# 
# 
# High freq. dielectric constant tensor:
#      x y z
#    x 1.767290 0.000000 0.000000 
#    y 0.000000 1.717890 0.000000 
#    z 0.000000 0.000000 1.751180 
# 
# From -- ./inp_files/11153.got.cif
#   From: 2010.06.25/outbox.cif.g09.slc.cpg/sg71_6_cif.got.tgz:11153.got - 2010.06.28 04:59:45.
