data_PCOD8292298
_publ_section_title
;
Structure prediction by ZEFSAII (Michael W. Deem and Ramdas Pophale) SiO2 
 PCOD8292298
Probable space group: I M M M
;
_chemical_formula_sum "Si O2"
_cell_formula_units_Z 96
_cell_length_a 11.457820
_cell_length_b 19.489629
_cell_length_c 24.028930
_cell_angle_alpha 90.000000
_cell_angle_beta 90.000000
_cell_angle_gamma 90.000000
_cell_volume 5365.868182
_symmetry_space_group_name_H-M "I M M M"
_symmetry_group_IT_number 71
_symmetry_cell_setting 'orthorhombic'
loop_
_space_group_symop_operation_xyz
x,y,z
-x,-y,z
x,-y,-z
-x,y,-z
-x,-y,-z
x,y,-z
-x,y,z
x,-y,z
1/2+x,1/2+y,1/2+z
1/2-x,1/2-y,1/2+z
1/2+x,1/2-y,1/2-z
1/2-x,1/2+y,1/2-z
1/2-x,1/2-y,1/2-z
1/2+x,1/2+y,1/2-z
1/2-x,1/2+y,1/2+z
1/2+x,1/2-y,1/2+z
loop_
_atom_site_type_symbol
_atom_site_label
_atom_site_fract_x
_atom_site_fract_y
_atom_site_fract_z
Si Si1 0.743653 0.922716 0.161268
Si Si2 0.500000 0.076159 0.198595
Si Si3 0.629505 0.877119 0.062298
Si Si4 0.365578 0.284309 0.062938
Si Si5 0.500000 0.078577 0.328341
Si Si6 0.787234 0.319984 0.831689
Si Si7 0.369279 0.318183 0.274596
O O1 0.621438 0.886162 0.181949
O O2 0.732309 0.917278 0.094625
O O3 0.854443 0.881848 0.183484
O O4 0.755531 0.000000 0.182706
O O5 0.500000 0.069780 0.263605
O O6 0.500000 0.000000 0.171281
O O7 0.500000 0.894718 0.086948
O O8 0.651032 0.796660 0.065576
O O9 0.635862 0.904226 0.000000
O O10 0.500000 0.304538 0.074747
O O11 0.283996 0.316754 0.110469
O O12 0.330812 0.309299 0.000000
O O13 0.615635 0.121999 0.344445
O O14 0.500000 0.000000 0.354396
O O15 0.704741 0.337949 0.779740
O O16 0.840927 0.247986 0.811870
O O17 0.500000 0.311753 0.253125
#
# Coordination Sequence:
#
# PCOD8292298 Si02
#       7
#    16   8  16  16   8  16  16
#     4  11  20  32  51  74 111 154 186 225 271 320
#     4   9  18  32  49  75 109 150 183 213 273 324
#     4   9  17  29  48  77 110 143 183 232 274 312
#     4   9  18  34  58  86 114 144 182 229 281 330
#     4  11  22  38  59  85 114 142 176 225 289 345
#     4  11  21  36  59  83 112 144 181 230 280 328
#     4  11  23  35  52  82 113 146 189 227 269 326
#
# _framework density 17.890861000000001
#
# number of rings (size 3 to 8) (size 9 to 14) (size 15 to 20)
#    0.000    1.833    5.000    1.500    0.000    0.667 
#    0.000    1.250    0.000    4.000    0.000    2.333 
#    0.000    0.000    0.000    0.000    0.000    0.000 
#
# Total GULP energy -594631.281213 kJ/mol
# GULP energy per Si atom -12388.151692 kJ/mol
# Density = 1.785014 g / cm^3
# Si number density = 17.890861 Si / 1000 Ang^3
#
#
#
# Elastic Constant Matrix: (Units=GPa)
#
#
# Indices 1 2 3 4 5 6 
#
# 1 95.6942 40.1819 46.8232 0.0000 0.0000 0.0000
# 2 40.1819 75.5223 35.7585 0.0000 0.0000 0.0000
# 3 46.8232 35.7585 89.3364 0.0000 0.0000 0.0000
# 4 0.0000 0.0000 0.0000 18.6174 0.0000 0.0000
# 5 0.0000 0.0000 0.0000 0.0000 12.6898 0.0000
# 6 0.0000 0.0000 0.0000 0.0000 0.0000 10.2907
#
#
#
# Elastic Compliance Matrix: (Units=1/GPa)
#
#
# Indices 1 2 3 4 5 6 
#
# 1 0.015713 -0.005504 -0.006032 0.000000 0.000000 0.000000
# 2 -0.005504 0.018265 -0.004426 0.000000 0.000000 0.000000
# 3 -0.006032 -0.004426 0.016127 0.000000 0.000000 0.000000
# 4 0.000000 0.000000 0.000000 0.053713 0.000000 0.000000
# 5 0.000000 0.000000 0.000000 0.000000 0.078803 0.000000
# 6 0.000000 0.000000 0.000000 0.000000 0.000000 0.097175
#
#
# Mechanical properties :
#
#
# Convention : Reuss Voigt Hill
#
# Bulk Modulus (GPa) = 55.00551 56.23113 55.61832
# Shear Modulus (GPa) = 15.73408 17.50553 16.61981
#
# Velocity S-wave (km/s) = 2.96877 3.13143 3.05118
# Velocity P-wave (km/s) = 6.52405 6.67629 6.60061
#
# Compressibility (1/GPa) = 0.01818000
#
# Stress axis : x y z
#
# Youngs Moduli (GPa) = 63.64315 54.74897 62.00760
#
# Poissons Ratio (x) = 0.30132 0.37405
# Poissons Ratio (y) = 0.35027 0.27447
# Poissons Ratio (z) = 0.38392 0.24234
#
# Static dielectric constant tensor:
#      x y z
#    x 3.281490 0.000000 0.000000 
#    y 0.000000 3.293870 0.000000 
#    z 0.000000 0.000000 3.433850 
# 
# 
# High freq. dielectric constant tensor:
#      x y z
#    x 1.676340 0.000000 0.000000 
#    y 0.000000 1.670780 0.000000 
#    z 0.000000 0.000000 1.693200 
# 
# From -- ./inp_files/26205.got.cif
#   From: 2010.06.25/outbox.cif.g09.slc.cpg/sg71_14_cif.got.tgz:26205.got - 2010.06.28 04:59:45.
