data_PCOD8292835
_publ_section_title
;
Structure prediction by ZEFSAII (Michael W. Deem and Ramdas Pophale) SiO2 
 PCOD8292835
Probable space group: I B A M
;
_chemical_formula_sum "Si O2"
_cell_formula_units_Z 96
_cell_length_a 17.052712
_cell_length_b 16.173360
_cell_length_c 19.236713
_cell_angle_alpha 90.000000
_cell_angle_beta 90.000000
_cell_angle_gamma 90.000000
_cell_volume 5305.478715
_symmetry_space_group_name_H-M "I B A M"
_symmetry_group_IT_number 72
_symmetry_cell_setting 'orthorhombic'
loop_
_space_group_symop_operation_xyz
x,y,z
-x,-y,z
x,-y,1/2-z
-x,y,1/2-z
-x,-y,-z
x,y,-z
-x,y,1/2+z
x,-y,1/2+z
1/2+x,1/2+y,1/2+z
1/2-x,1/2-y,1/2+z
1/2+x,1/2-y,-z
1/2-x,1/2+y,-z
1/2-x,1/2-y,1/2-z
1/2+x,1/2+y,1/2-z
1/2-x,1/2+y,z
1/2+x,1/2-y,z
loop_
_atom_site_type_symbol
_atom_site_label
_atom_site_fract_x
_atom_site_fract_y
_atom_site_fract_z
Si Si1 0.836174 0.796497 0.615772
Si Si2 0.094021 0.405711 0.500000
Si Si3 0.408253 0.809819 0.732423
Si Si4 0.081754 0.471251 0.353397
Si Si5 0.768184 0.681955 0.500000
Si Si6 0.445612 0.287777 0.000000
Si Si7 0.328606 0.862441 0.866501
Si Si8 0.382895 0.764707 0.000000
O O1 0.876050 0.765907 0.686749
O O2 0.794911 0.724833 0.571689
O O3 0.907410 0.832259 0.567873
O O4 0.766488 0.862418 0.630286
O O5 0.059312 0.447048 0.431972
O O6 0.190951 0.409062 0.500000
O O7 0.074407 0.309254 0.500000
O O8 0.500000 0.799086 0.750000
O O9 0.388393 0.894353 0.691486
O O10 0.358548 0.806871 0.802843
O O11 0.146310 0.543005 0.353560
O O12 0.000000 0.500000 0.318948
O O13 0.675006 0.685691 0.500000
O O14 0.538594 0.289184 0.000000
O O15 0.371188 0.825420 0.934567
#
# Coordination Sequence:
#
# PCOD8292835 Si02
#       8
#    16   8  16  16   8   8  16   8
#     4   9  19  35  50  70 103 141 177 210 251 306
#     4  10  18  32  52  72 107 142 167 200 256 326
#     4  12  21  34  50  74 111 142 172 210 257 309
#     4  12  21  33  50  81 112 140 166 204 264 319
#     4   8  16  33  52  68 102 135 173 217 253 308
#     4  10  16  33  54  71  98 136 172 218 255 301
#     4  11  22  32  50  75 108 137 174 212 256 318
#     4  10  19  34  51  77  98 133 179 221 263 299
#
# _framework density 18.094503
#
# number of rings (size 3 to 8) (size 9 to 14) (size 15 to 20)
#    0.000    1.667    5.000    4.250    0.000    0.000 
#    0.000    0.000    0.000    0.000    0.000    2.333 
#    0.000    0.000    0.000    0.000    0.000    0.000 
#
# Total GULP energy -594673.263155 kJ/mol
# GULP energy per Si atom -12389.026316 kJ/mol
# Density = 1.805332 g / cm^3
# Si number density = 18.094503 Si / 1000 Ang^3
#
#
#
# Elastic Constant Matrix: (Units=GPa)
#
#
# Indices 1 2 3 4 5 6 
#
# 1 135.8851 28.1457 23.4185 0.0000 0.0000 0.0000
# 2 28.1457 34.1196 7.5342 0.0000 0.0000 0.0000
# 3 23.4185 7.5342 117.3117 0.0000 0.0000 0.0000
# 4 0.0000 0.0000 0.0000 -7.2143 0.0000 0.0000
# 5 0.0000 0.0000 0.0000 0.0000 21.4753 0.0000
# 6 0.0000 0.0000 0.0000 0.0000 0.0000 29.9130
#
#
#
# Elastic Compliance Matrix: (Units=1/GPa)
#
#
# Indices 1 2 3 4 5 6 
#
# 1 0.009082 -0.007194 -0.001351 0.000000 0.000000 0.000000
# 2 -0.007194 0.035428 -0.000839 0.000000 0.000000 0.000000
# 3 -0.001351 -0.000839 0.008848 0.000000 0.000000 0.000000
# 4 0.000000 0.000000 0.000000 -0.138613 0.000000 0.000000
# 5 0.000000 0.000000 0.000000 0.000000 0.046565 0.000000
# 6 0.000000 0.000000 0.000000 0.000000 0.000000 0.033430
#
#
# Mechanical properties :
#
#
# Convention : Reuss Voigt Hill
#
# Bulk Modulus (GPa) = 28.90990 45.05702 36.98346
# Shear Modulus (GPa) = 199.69942 24.04935 111.87439
#
# Velocity S-wave (km/s) = 10.51686 3.64963 7.87160
# Velocity P-wave (km/s) = 12.78610 6.53565 10.15379
#
# Compressibility (1/GPa) = 0.03459023
#
# Stress axis : x y z
#
# Youngs Moduli (GPa) = 110.10822 28.22626 113.02123
#
# Poissons Ratio (x) = 0.20305 0.15269
# Poissons Ratio (y) = 0.79206 0.09486
# Poissons Ratio (z) = 0.14876 0.02369
#
# Static dielectric constant tensor:
#      x y z
#    x 4.047570 0.000000 0.000000 
#    y 0.000000 2.976950 0.000000 
#    z 0.000000 0.000000 3.658560 
# 
# 
# High freq. dielectric constant tensor:
#      x y z
#    x 1.706380 0.000000 0.000000 
#    y 0.000000 1.640210 0.000000 
#    z 0.000000 0.000000 1.724820 
# 
# From -- ./inp_files/31672.got.cif
#   From: 2010.03.12/outbox.cif.g09.slc.cpg/sg72_16_cif.got.tgz:31672.got - 2010.04.16 14:54:00.
