data_PCOD8292674
_publ_section_title
;
Structure prediction by ZEFSAII (Michael W. Deem and Ramdas Pophale) SiO2 
 PCOD8292674
Probable space group: I M M M
;
_chemical_formula_sum "Si O2"
_cell_formula_units_Z 104
_cell_length_a 20.512587
_cell_length_b 9.369740
_cell_length_c 32.313162
_cell_angle_alpha 90.000000
_cell_angle_beta 90.000000
_cell_angle_gamma 90.000000
_cell_volume 6210.512408
_symmetry_space_group_name_H-M "I M M M"
_symmetry_group_IT_number 71
_symmetry_cell_setting 'orthorhombic'
loop_
_space_group_symop_operation_xyz
x,y,z
-x,-y,z
x,-y,-z
-x,y,-z
-x,-y,-z
x,y,-z
-x,y,z
x,-y,z
1/2+x,1/2+y,1/2+z
1/2-x,1/2-y,1/2+z
1/2+x,1/2-y,1/2-z
1/2-x,1/2+y,1/2-z
1/2-x,1/2-y,1/2-z
1/2+x,1/2+y,1/2-z
1/2-x,1/2+y,1/2+z
1/2+x,1/2-y,1/2+z
loop_
_atom_site_type_symbol
_atom_site_label
_atom_site_fract_x
_atom_site_fract_y
_atom_site_fract_z
Si Si1 0.136089 0.162293 0.072322
Si Si2 0.696298 0.668758 0.133486
Si Si3 0.500000 0.339459 0.451457
Si Si4 0.927193 0.169623 0.225461
Si Si5 0.816781 0.162685 0.164097
Si Si6 0.255334 0.335025 0.954550
Si Si7 0.428392 0.669428 0.181292
O O1 0.065718 0.235822 0.064821
O O2 0.147798 0.168250 0.120622
O O3 0.188598 0.248743 0.046213
O O4 0.137531 0.000000 0.055502
O O5 0.703758 0.500000 0.139687
O O6 0.751733 0.742228 0.161594
O O7 0.699881 0.711852 0.084620
O O8 0.626626 0.726130 0.149761
O O9 0.500000 0.500000 0.433458
O O10 0.500000 0.337318 0.500000
O O11 0.868633 0.229357 0.196772
O O12 0.913121 0.222308 0.272185
O O13 0.000000 0.222901 0.211778
O O14 0.926319 0.000000 0.222547
O O15 0.797292 0.000000 0.175694
O O16 0.237565 0.500000 0.949435
O O17 0.288742 0.307559 0.000000
O O18 0.500000 0.725884 0.167249
O O19 0.428951 0.500000 0.180995
#
# Coordination Sequence:
#
# PCOD8292674 Si02
#       7
#    16  16   8  16  16  16  16
#     4   9  17  27  40  58  80 106 136 171 208 242
#     4   9  17  29  45  63  84 109 138 172 209 248
#     4   9  16  24  35  53  75  99 131 171 209 237
#     4   8  14  24  40  62  87 113 142 174 204 238
#     4   9  17  27  41  63  87 110 139 173 207 243
#     4   9  17  29  43  58  79 107 136 166 204 250
#     4   8  14  26  44  65  85 108 139 170 202 246
#
# _framework density 16.745799999999999
#
# number of rings (size 3 to 8) (size 9 to 14) (size 15 to 20)
#    0.000    3.308    0.000    1.385    1.077    1.538 
#    0.000    0.385    0.000    2.769    0.000    5.385 
#    0.000    0.000    0.000    7.692    0.000    8.000 
#
# Total GULP energy -644261.708909 kJ/mol
# GULP energy per Si atom -12389.648248 kJ/mol
# Density = 1.670769 g / cm^3
# Si number density = 16.745800 Si / 1000 Ang^3
#
#
#
# Elastic Constant Matrix: (Units=GPa)
#
#
# Indices 1 2 3 4 5 6 
#
# 1 138.3633 23.8082 76.4212 0.0000 0.0000 0.0000
# 2 23.8082 20.9413 18.5940 0.0000 0.0000 0.0000
# 3 76.4212 18.5940 96.7671 0.0000 0.0000 0.0000
# 4 0.0000 0.0000 0.0000 12.7137 0.0000 0.0000
# 5 0.0000 0.0000 0.0000 0.0000 21.6823 0.0000
# 6 0.0000 0.0000 0.0000 0.0000 0.0000 25.3619
#
#
#
# Elastic Compliance Matrix: (Units=1/GPa)
#
#
# Indices 1 2 3 4 5 6 
#
# 1 0.013658 -0.007175 -0.009408 0.000000 0.000000 0.000000
# 2 -0.007175 0.061345 -0.006121 0.000000 0.000000 0.000000
# 3 -0.009408 -0.006121 0.018940 0.000000 0.000000 0.000000
# 4 0.000000 0.000000 0.000000 0.078655 0.000000 0.000000
# 5 0.000000 0.000000 0.000000 0.000000 0.046121 0.000000
# 6 0.000000 0.000000 0.000000 0.000000 0.000000 0.039429
#
#
# Mechanical properties :
#
#
# Convention : Reuss Voigt Hill
#
# Bulk Modulus (GPa) = 20.60356 54.85759 37.73058
# Shear Modulus (GPa) = 15.63804 21.10148 18.36976
#
# Velocity S-wave (km/s) = 3.05921 3.55365 3.31566
# Velocity P-wave (km/s) = 4.98084 7.04755 6.10233
#
# Compressibility (1/GPa) = 0.04853530
#
# Stress axis : x y z
#
# Youngs Moduli (GPa) = 73.21745 16.30132 52.79833
#
# Poissons Ratio (x) = 0.11696 0.49671
# Poissons Ratio (y) = 0.52530 0.32320
# Poissons Ratio (z) = 0.68881 0.09979
#
# Static dielectric constant tensor:
#      x y z
#    x 3.530590 0.000000 0.000000 
#    y 0.000000 2.842280 0.000000 
#    z 0.000000 0.000000 3.310620 
# 
# 
# High freq. dielectric constant tensor:
#      x y z
#    x 1.638600 0.000000 0.000000 
#    y 0.000000 1.598030 0.000000 
#    z 0.000000 0.000000 1.648740 
# 
# From -- ./inp_files/66784.got.cif
#   From: 2010.06.25/outbox.cif.g09.slc.cpg/sg71_34_cif.got.tgz:66784.got - 2010.06.28 04:59:45.
