data_PCOD8292677
_publ_section_title
;
Structure prediction by ZEFSAII (Michael W. Deem and Ramdas Pophale) SiO2 
 PCOD8292677
Probable space group: I M M M
;
_chemical_formula_sum "Si O2"
_cell_formula_units_Z 88
_cell_length_a 28.954935
_cell_length_b 18.098611
_cell_length_c 9.820921
_cell_angle_alpha 90.000000
_cell_angle_beta 90.000000
_cell_angle_gamma 90.000000
_cell_volume 5146.595757
_symmetry_space_group_name_H-M "I M M M"
_symmetry_group_IT_number 71
_symmetry_cell_setting 'orthorhombic'
loop_
_space_group_symop_operation_xyz
x,y,z
-x,-y,z
x,-y,-z
-x,y,-z
-x,-y,-z
x,y,-z
-x,y,z
x,-y,z
1/2+x,1/2+y,1/2+z
1/2-x,1/2-y,1/2+z
1/2+x,1/2-y,1/2-z
1/2-x,1/2+y,1/2-z
1/2-x,1/2-y,1/2-z
1/2+x,1/2+y,1/2-z
1/2-x,1/2+y,1/2+z
1/2+x,1/2-y,1/2+z
loop_
_atom_site_type_symbol
_atom_site_label
_atom_site_fract_x
_atom_site_fract_y
_atom_site_fract_z
Si Si1 0.613297 0.582003 0.162071
Si Si2 0.796746 0.586679 0.657217
Si Si3 0.105077 0.641492 0.661533
Si Si4 0.215412 0.912353 0.651139
Si Si5 0.948061 0.500000 0.662629
Si Si6 0.052336 0.215128 0.662545
O O1 0.602549 0.500000 0.221375
O O2 0.664473 0.609926 0.205549
O O3 0.575318 0.639458 0.217817
O O4 0.612074 0.578232 0.000000
O O5 0.784777 0.600982 0.500000
O O6 0.806698 0.500000 0.682182
O O7 0.841417 0.633512 0.704073
O O8 0.754064 0.617439 0.745441
O O9 0.101071 0.640325 0.500000
O O10 0.076848 0.572440 0.721972
O O11 0.082553 0.716558 0.719652
O O12 0.224396 0.879164 0.500000
O O13 0.217681 0.000000 0.643290
O O14 0.946219 0.500000 0.500000
O O15 0.000000 0.500000 0.717065
O O16 0.052362 0.215993 0.500000
O O17 0.000000 0.220375 0.718016
#
# Coordination Sequence:
#
# PCOD8292677 Si02
#       6
#    16  16  16  16   8  16
#     4   8  14  25  39  54  74 102 134 167 204 246
#     4   9  15  24  39  59  84 112 139 168 204 242
#     4   9  15  23  33  51  79 107 133 163 202 242
#     4   8  14  25  41  59  80 108 140 170 203 244
#     4   9  14  20  32  48  71 105 137 161 192 241
#     4   9  16  24  35  53  78 106 133 164 205 249
#
# _framework density 17.098682
#
# number of rings (size 3 to 8) (size 9 to 14) (size 15 to 20)
#    0.000    3.364    0.909    1.636    0.000    2.545 
#    0.000    2.727    0.000    0.000    0.000    0.000 
#    0.000    5.818    0.000    7.091    0.000    7.273 
#
# Total GULP energy -545289.752520 kJ/mol
# GULP energy per Si atom -12392.948921 kJ/mol
# Density = 1.705976 g / cm^3
# Si number density = 17.098682 Si / 1000 Ang^3
#
#
#
# Elastic Constant Matrix: (Units=GPa)
#
#
# Indices 1 2 3 4 5 6 
#
# 1 144.3662 69.2172 28.6403 0.0000 0.0000 0.0000
# 2 69.2172 102.6010 13.3002 0.0000 0.0000 0.0000
# 3 28.6403 13.3002 22.5059 0.0000 0.0000 0.0000
# 4 0.0000 0.0000 0.0000 5.2739 0.0000 0.0000
# 5 0.0000 0.0000 0.0000 0.0000 18.2622 0.0000
# 6 0.0000 0.0000 0.0000 0.0000 0.0000 29.9691
#
#
#
# Elastic Compliance Matrix: (Units=1/GPa)
#
#
# Indices 1 2 3 4 5 6 
#
# 1 0.012649 -0.006982 -0.011971 0.000000 0.000000 0.000000
# 2 -0.006982 0.014409 0.000370 0.000000 0.000000 0.000000
# 3 -0.011971 0.000370 0.059448 0.000000 0.000000 0.000000
# 4 0.000000 0.000000 0.000000 0.189613 0.000000 0.000000
# 5 0.000000 0.000000 0.000000 0.000000 0.054758 0.000000
# 6 0.000000 0.000000 0.000000 0.000000 0.000000 0.033368
#
#
# Mechanical properties :
#
#
# Convention : Reuss Voigt Hill
#
# Bulk Modulus (GPa) = 20.26750 54.64316 37.45533
# Shear Modulus (GPa) = 11.96580 21.25538 16.61059
#
# Velocity S-wave (km/s) = 2.64826 3.52959 3.12020
# Velocity P-wave (km/s) = 4.60760 6.97406 5.91048
#
# Compressibility (1/GPa) = 0.04934007
#
# Stress axis : x y z
#
# Youngs Moduli (GPa) = 79.05724 69.40329 16.82133
#
# Poissons Ratio (x) = 0.48454 0.20137
# Poissons Ratio (y) = 0.55194 -0.00622
# Poissons Ratio (z) = 0.94639 -0.02565
#
# Static dielectric constant tensor:
#      x y z
#    x 3.492260 0.000000 0.000000 
#    y 0.000000 3.263820 0.000000 
#    z 0.000000 0.000000 2.626340 
# 
# 
# High freq. dielectric constant tensor:
#      x y z
#    x 1.674770 0.000000 0.000000 
#    y 0.000000 1.647250 0.000000 
#    z 0.000000 0.000000 1.575400 
# 
# From -- ./inp_files/16642.got.cif
#   From: 2010.06.25/outbox.cif.g09.slc.cpg/sg71_9_cif.got.tgz:16642.got - 2010.06.28 04:59:45.
