data_PCOD8292890
_publ_section_title
;
Structure prediction by ZEFSAII (Michael W. Deem and Ramdas Pophale) SiO2 
 PCOD8292890
Probable space group: I B A M
;
_chemical_formula_sum "Si O2"
_cell_formula_units_Z 116
_cell_length_a 26.458746
_cell_length_b 22.488006
_cell_length_c 8.950923
_cell_angle_alpha 90.000000
_cell_angle_beta 90.000000
_cell_angle_gamma 90.000000
_cell_volume 5325.838916
_symmetry_space_group_name_H-M "I B A M"
_symmetry_group_IT_number 72
_symmetry_cell_setting 'orthorhombic'
loop_
_space_group_symop_operation_xyz
x,y,z
-x,-y,z
x,-y,1/2-z
-x,y,1/2-z
-x,-y,-z
x,y,-z
-x,y,1/2+z
x,-y,1/2+z
1/2+x,1/2+y,1/2+z
1/2-x,1/2-y,1/2+z
1/2+x,1/2-y,-z
1/2-x,1/2+y,-z
1/2-x,1/2-y,1/2-z
1/2+x,1/2+y,1/2-z
1/2-x,1/2+y,z
1/2+x,1/2-y,z
loop_
_atom_site_type_symbol
_atom_site_label
_atom_site_fract_x
_atom_site_fract_y
_atom_site_fract_z
Si Si1 0.145842 0.063129 0.176042
Si Si2 0.500000 0.000000 0.750000
Si Si3 0.579410 0.097255 0.833321
Si Si4 0.048954 0.934140 0.821158
Si Si5 0.276798 0.641231 0.325428
Si Si6 0.826716 0.628531 0.334925
Si Si7 0.449953 0.770782 0.826652
Si Si8 0.356266 0.262944 0.162450
O O1 0.099654 0.098181 0.259972
O O2 0.197363 0.095506 0.213347
O O3 0.151647 0.000000 0.250000
O O4 0.136043 0.058507 0.000000
O O5 0.462085 0.955928 0.837996
O O6 0.628779 0.085188 0.729142
O O7 0.555016 0.159607 0.781185
O O8 0.600536 0.104758 0.000000
O O9 0.000000 0.901450 0.750000
O O10 0.051081 0.000000 0.750000
O O11 0.046535 0.936162 0.000000
O O12 0.282225 0.624661 0.500000
O O13 0.218558 0.636366 0.282025
O O14 0.303931 0.704563 0.288787
O O15 0.810564 0.604415 0.500000
O O16 0.848072 0.693633 0.352962
O O17 0.500000 0.745065 0.750000
O O18 0.402421 0.729677 0.777779
O O19 0.456831 0.762503 0.000000
O O20 0.372828 0.288298 0.000000
#
# Coordination Sequence:
#
# PCOD8292890 Si02
#       8
#    16   4  16  16  16  16  16  16
#     4  11  22  38  58  82 113 151 194 237 290 354
#     4  12  22  40  64  94 130 164 224 266 314 360
#     4  10  22  38  59  88 121 163 207 256 310 365
#     4  10  17  29  50  77 106 139 180 225 272 323
#     4  11  22  39  62  88 119 154 196 248 304 365
#     4  10  21  39  62  89 120 155 198 249 304 364
#     4  10  19  34  57  85 121 162 204 251 309 373
#     4   9  20  37  60  89 119 153 196 248 305 367
#
# _framework density 21.780605999999999
#
# number of rings (size 3 to 8) (size 9 to 14) (size 15 to 20)
#    0.000    1.793    0.690    5.586    0.000    3.310 
#    1.241    0.690    0.000    3.310    0.000    0.000 
#    0.000    0.000    0.000    0.000    0.000    0.000 
#
# Total GULP energy -718564.123124 kJ/mol
# GULP energy per Si atom -12389.036606 kJ/mol
# Density = 2.173103 g / cm^3
# Si number density = 21.780606 Si / 1000 Ang^3
#
#
#
# Elastic Constant Matrix: (Units=GPa)
#
#
# Indices 1 2 3 4 5 6 
#
# 1 140.2985 27.3799 62.1013 0.0000 0.0000 0.0000
# 2 27.3799 45.9993 26.2409 0.0000 0.0000 0.0000
# 3 62.1013 26.2409 153.9134 0.0000 0.0000 0.0000
# 4 0.0000 0.0000 0.0000 49.5780 0.0000 0.0000
# 5 0.0000 0.0000 0.0000 0.0000 49.9592 0.0000
# 6 0.0000 0.0000 0.0000 0.0000 0.0000 24.6855
#
#
#
# Elastic Compliance Matrix: (Units=1/GPa)
#
#
# Indices 1 2 3 4 5 6 
#
# 1 0.009221 -0.003729 -0.003085 0.000000 0.000000 0.000000
# 2 -0.003729 0.025589 -0.002858 0.000000 0.000000 0.000000
# 3 -0.003085 -0.002858 0.008229 0.000000 0.000000 0.000000
# 4 0.000000 0.000000 0.000000 0.020170 0.000000 0.000000
# 5 0.000000 0.000000 0.000000 0.000000 0.020016 0.000000
# 6 0.000000 0.000000 0.000000 0.000000 0.000000 0.040510
#
#
# Mechanical properties :
#
#
# Convention : Reuss Voigt Hill
#
# Bulk Modulus (GPa) = 42.20150 63.51727 52.85939
# Shear Modulus (GPa) = 33.11752 39.81048 36.46400
#
# Velocity S-wave (km/s) = 3.90360 4.27991 4.09608
# Velocity P-wave (km/s) = 6.30359 7.32456 6.83317
#
# Compressibility (1/GPa) = 0.02369584
#
# Stress axis : x y z
#
# Youngs Moduli (GPa) = 108.45119 39.07866 121.52002
#
# Poissons Ratio (x) = 0.14571 0.37485
# Poissons Ratio (y) = 0.40438 0.34734
# Poissons Ratio (z) = 0.33454 0.11170
#
# Static dielectric constant tensor:
#      x y z
#    x 4.903850 0.000000 0.000000 
#    y 0.000000 3.581140 0.000000 
#    z 0.000000 0.000000 3.667000 
# 
# 
# High freq. dielectric constant tensor:
#      x y z
#    x 1.867910 0.000000 0.000000 
#    y 0.000000 1.825350 0.000000 
#    z 0.000000 0.000000 1.862710 
# 
# From -- ./inp_files/8413.got.cif
#   From: 2010.03.12/outbox.cif.g09.slc.cpg/sg72_5_cif.got.tgz:8413.got - 2010.04.16 14:54:00.
