data_PCOD8292280
_publ_section_title
;
Structure prediction by ZEFSAII (Michael W. Deem and Ramdas Pophale) SiO2 
 PCOD8292280
Probable space group: I M M M
;
_chemical_formula_sum "Si O2"
_cell_formula_units_Z 96
_cell_length_a 22.992311
_cell_length_b 27.456049
_cell_length_c 8.836543
_cell_angle_alpha 90.000000
_cell_angle_beta 90.000000
_cell_angle_gamma 90.000000
_cell_volume 5578.315346
_symmetry_space_group_name_H-M "I M M M"
_symmetry_group_IT_number 71
_symmetry_cell_setting 'orthorhombic'
loop_
_space_group_symop_operation_xyz
x,y,z
-x,-y,z
x,-y,-z
-x,y,-z
-x,-y,-z
x,y,-z
-x,y,z
x,-y,z
1/2+x,1/2+y,1/2+z
1/2-x,1/2-y,1/2+z
1/2+x,1/2-y,1/2-z
1/2-x,1/2+y,1/2-z
1/2-x,1/2-y,1/2-z
1/2+x,1/2+y,1/2-z
1/2-x,1/2+y,1/2+z
1/2+x,1/2-y,1/2+z
loop_
_atom_site_type_symbol
_atom_site_label
_atom_site_fract_x
_atom_site_fract_y
_atom_site_fract_z
Si Si1 0.209903 0.854839 0.321821
Si Si2 0.500000 0.752742 0.322237
Si Si3 0.000000 0.359323 0.676537
Si Si4 0.775837 0.446065 0.819493
Si Si5 0.111626 0.390418 0.830646
Si Si6 0.316357 0.794153 0.670376
Si Si7 0.886980 0.214031 0.675726
O O1 0.221315 0.855932 0.500000
O O2 0.225467 0.908934 0.258527
O O3 0.256132 0.814997 0.260169
O O4 0.143708 0.838291 0.285242
O O5 0.500000 0.759621 0.500000
O O6 0.500000 0.806164 0.251846
O O7 0.444179 0.721036 0.275096
O O8 0.055747 0.391292 0.722712
O O9 0.000000 0.350073 0.500000
O O10 0.764197 0.500000 0.752459
O O11 0.839245 0.427186 0.766262
O O12 0.774858 0.447313 0.000000
O O13 0.135666 0.336038 0.834620
O O14 0.092855 0.406113 0.000000
O O15 0.309252 0.772675 0.500000
O O16 0.338362 0.753968 0.787361
O O17 0.904104 0.217280 0.500000
#
# Coordination Sequence:
#
# PCOD8292280 Si02
#       7
#    16   8   8  16  16  16  16
#     4   8  16  28  44  70 100 126 154 196 240 278
#     4  12  24  36  48  63  92 133 170 202 234 277
#     4  12  22  32  47  67  92 126 169 204 240 284
#     4   8  14  28  51  76  98 122 156 197 241 287
#     4   9  17  29  47  69  95 127 163 201 234 269
#     4   9  16  28  45  65  95 131 159 187 230 278
#     4  11  20  30  45  69  99 127 160 196 234 278
#
# _framework density 17.209498
#
# number of rings (size 3 to 8) (size 9 to 14) (size 15 to 20)
#    0.000    2.500    1.667    4.500    0.000    0.000 
#    0.000    1.250    0.000    4.000    0.000    0.583 
#    0.000    4.667    0.000    0.000    0.000    0.000 
#
# Total GULP energy -594856.351463 kJ/mol
# GULP energy per Si atom -12392.840655 kJ/mol
# Density = 1.717033 g / cm^3
# Si number density = 17.209498 Si / 1000 Ang^3
#
#
#
# Elastic Constant Matrix: (Units=GPa)
#
#
# Indices 1 2 3 4 5 6 
#
# 1 74.5237 58.4763 23.4167 0.0000 0.0000 0.0000
# 2 58.4763 100.7061 23.6487 0.0000 0.0000 0.0000
# 3 23.4167 23.6487 61.3829 0.0000 0.0000 0.0000
# 4 0.0000 0.0000 0.0000 11.9991 0.0000 0.0000
# 5 0.0000 0.0000 0.0000 0.0000 21.3639 0.0000
# 6 0.0000 0.0000 0.0000 0.0000 0.0000 12.6129
#
#
#
# Elastic Compliance Matrix: (Units=1/GPa)
#
#
# Indices 1 2 3 4 5 6 
#
# 1 0.025714 -0.013884 -0.004461 0.000000 0.000000 0.000000
# 2 -0.013884 0.018414 -0.001798 0.000000 0.000000 0.000000
# 3 -0.004461 -0.001798 0.018685 0.000000 0.000000 0.000000
# 4 0.000000 0.000000 0.000000 0.083340 0.000000 0.000000
# 5 0.000000 0.000000 0.000000 0.000000 0.046808 0.000000
# 6 0.000000 0.000000 0.000000 0.000000 0.000000 0.079284
#
#
# Mechanical properties :
#
#
# Convention : Reuss Voigt Hill
#
# Bulk Modulus (GPa) = 44.38694 49.74400 47.06547
# Shear Modulus (GPa) = 15.62304 17.93324 16.77814
#
# Velocity S-wave (km/s) = 3.01627 3.23159 3.12578
# Velocity P-wave (km/s) = 6.16268 6.54919 6.35887
#
# Compressibility (1/GPa) = 0.02252915
#
# Stress axis : x y z
#
# Youngs Moduli (GPa) = 38.88859 54.30664 53.51754
#
# Poissons Ratio (x) = 0.75399 0.23873
# Poissons Ratio (y) = 0.53993 0.09621
# Poissons Ratio (z) = 0.17347 0.09763
#
# Static dielectric constant tensor:
#      x y z
#    x 3.306140 0.000000 0.000000 
#    y 0.000000 3.324480 0.000000 
#    z 0.000000 0.000000 2.934420 
# 
# 
# High freq. dielectric constant tensor:
#      x y z
#    x 1.659110 0.000000 0.000000 
#    y 0.000000 1.637830 0.000000 
#    z 0.000000 0.000000 1.635500 
# 
# From -- ./inp_files/13204.got.cif
#   From: 2010.06.25/outbox.cif.g09.slc.cpg/sg71_7_cif.got.tgz:13204.got - 2010.06.28 04:59:45.
