data_PCOD8292954
_publ_section_title
;
Structure prediction by ZEFSAII (Michael W. Deem and Ramdas Pophale) SiO2 
 PCOD8292954
Probable space group: I B A M
;
_chemical_formula_sum "Si O2"
_cell_formula_units_Z 72
_cell_length_a 16.782708
_cell_length_b 27.398840
_cell_length_c 9.032173
_cell_angle_alpha 90.000000
_cell_angle_beta 90.000000
_cell_angle_gamma 90.000000
_cell_volume 4153.234587
_symmetry_space_group_name_H-M "I B A M"
_symmetry_group_IT_number 72
_symmetry_cell_setting 'orthorhombic'
loop_
_space_group_symop_operation_xyz
x,y,z
-x,-y,z
x,-y,1/2-z
-x,y,1/2-z
-x,-y,-z
x,y,-z
-x,y,1/2+z
x,-y,1/2+z
1/2+x,1/2+y,1/2+z
1/2-x,1/2-y,1/2+z
1/2+x,1/2-y,-z
1/2-x,1/2+y,-z
1/2-x,1/2-y,1/2-z
1/2+x,1/2+y,1/2-z
1/2-x,1/2+y,z
1/2+x,1/2-y,z
loop_
_atom_site_type_symbol
_atom_site_label
_atom_site_fract_x
_atom_site_fract_y
_atom_site_fract_z
Si Si1 0.376461 0.535726 0.000000
Si Si2 0.445179 0.429441 0.000000
Si Si3 0.898487 0.174739 0.500000
Si Si4 0.232675 0.149259 0.500000
Si Si5 0.000000 0.271471 0.750000
Si Si6 0.566751 0.294012 0.500000
Si Si7 0.155126 0.895775 0.745548
Si Si8 0.607463 0.209556 0.000000
O O1 0.330765 0.555225 0.852994
O O2 0.390374 0.478621 0.000000
O O3 0.461302 0.563115 0.000000
O O4 0.421907 0.401442 0.149122
O O5 0.859078 0.151276 0.644344
O O6 0.879895 0.232151 0.500000
O O7 0.994467 0.165936 0.500000
O O8 0.153175 0.182162 0.500000
O O9 0.231158 0.115179 0.647596
O O10 0.309484 0.182502 0.500000
O O11 0.057193 0.238509 0.647371
O O12 0.942987 0.304923 0.646762
#
# Coordination Sequence:
#
# PCOD8292954 Si02
#       8
#     8   8   8   8   8   8  16   8
#     4  10  20  33  45  64  97 136 182 207 246 280
#     4  10  20  31  48  65  92 141 178 213 236 288
#     4   9  20  32  47  65  97 130 171 209 247 288
#     4  11  22  30  49  70  99 124 163 215 266 286
#     4   8  18  34  50  62  86 124 170 198 240 308
#     4  10  18  28  44  68  88 126 161 203 254 287
#     4  10  21  30  44  71  93 130 169 218 241 276
#     4  10  20  38  49  70  92 127 165 209 259 315
#
# _framework density 17.335884
#
# number of rings (size 3 to 8) (size 9 to 14) (size 15 to 20)
#    0.000    2.444    0.000    4.000    9.333    5.333 
#    0.000    3.333    0.000    0.000    0.000    0.000 
#    0.000    0.000    0.000   48.000    0.000    7.111 
#
# Total GULP energy -446125.927722 kJ/mol
# GULP energy per Si atom -12392.386881 kJ/mol
# Density = 1.729643 g / cm^3
# Si number density = 17.335884 Si / 1000 Ang^3
#
#
#
# Elastic Constant Matrix: (Units=GPa)
#
#
# Indices 1 2 3 4 5 6 
#
# 1 65.1710 32.2138 34.4385 0.0016 -0.0004 0.0000
# 2 32.2138 46.4961 31.1876 0.0024 0.0002 -0.0001
# 3 34.4385 31.1876 139.0394 0.0171 0.0023 -0.0002
# 4 0.0016 0.0024 0.0171 8.0805 0.0009 -0.0007
# 5 -0.0004 0.0002 0.0023 0.0009 14.0358 0.0002
# 6 0.0000 -0.0001 -0.0002 -0.0007 0.0002 20.2979
#
#
#
# Elastic Compliance Matrix: (Units=1/GPa)
#
#
# Indices 1 2 3 4 5 6 
#
# 1 0.024120 -0.014954 -0.002620 0.000005 0.000001 0.000000
# 2 -0.014954 0.034587 -0.004054 0.000001 0.000000 0.000000
# 3 -0.002620 -0.004054 0.008751 -0.000017 -0.000001 0.000000
# 4 0.000005 0.000001 -0.000017 0.123755 -0.000008 0.000004
# 5 0.000001 0.000000 -0.000001 -0.000008 0.071246 -0.000001
# 6 0.000000 0.000000 0.000000 0.000004 -0.000001 0.049266
#
#
# Mechanical properties :
#
#
# Convention : Reuss Voigt Hill
#
# Bulk Modulus (GPa) = 41.31949 49.59848 45.45898
# Shear Modulus (GPa) = 13.77225 18.67396 16.22310
#
# Velocity S-wave (km/s) = 2.82163 3.28561 3.06242
# Velocity P-wave (km/s) = 5.87383 6.56247 6.22768
#
# Compressibility (1/GPa) = 0.02420165
#
# Stress axis : x y z
#
# Youngs Moduli (GPa) = 41.45862 28.91262 114.27825
#
# Poissons Ratio (x) = 0.43235 0.29942
# Poissons Ratio (y) = 0.61997 0.46331
# Poissons Ratio (z) = 0.10863 0.11722
#
# Static dielectric constant tensor:
#      x y z
#    x 2.762170 0.000000 0.000000 
#    y 0.000000 3.108360 0.000000 
#    z 0.000000 0.000000 3.921660 
# 
# 
# High freq. dielectric constant tensor:
#      x y z
#    x 1.600880 0.000000 0.000000 
#    y 0.000000 1.643830 0.000000 
#    z 0.000000 0.000000 1.707720 
# 
# From -- ./inp_files/4739.got.cif
#   From: 2010.03.12/outbox.cif.g09.slc.cpg/sg72_3_cif.got.tgz:4739.got - 2010.04.16 14:54:00.
