data_PCOD8292979
_publ_section_title
;
Structure prediction by ZEFSAII (Michael W. Deem and Ramdas Pophale) SiO2 
 PCOD8292979
Probable space group: I B A M
;
_chemical_formula_sum "Si O2"
_cell_formula_units_Z 96
_cell_length_a 26.347044
_cell_length_b 28.717788
_cell_length_c 8.562892
_cell_angle_alpha 90.000000
_cell_angle_beta 90.000000
_cell_angle_gamma 90.000000
_cell_volume 6478.930904
_symmetry_space_group_name_H-M "I B A M"
_symmetry_group_IT_number 72
_symmetry_cell_setting 'orthorhombic'
loop_
_space_group_symop_operation_xyz
x,y,z
-x,-y,z
x,-y,1/2-z
-x,y,1/2-z
-x,-y,-z
x,y,-z
-x,y,1/2+z
x,-y,1/2+z
1/2+x,1/2+y,1/2+z
1/2-x,1/2-y,1/2+z
1/2+x,1/2-y,-z
1/2-x,1/2+y,-z
1/2-x,1/2-y,1/2-z
1/2+x,1/2+y,1/2-z
1/2-x,1/2+y,z
1/2+x,1/2-y,z
loop_
_atom_site_type_symbol
_atom_site_label
_atom_site_fract_x
_atom_site_fract_y
_atom_site_fract_z
Si Si1 0.902194 0.549086 0.183069
Si Si2 0.242066 0.356999 0.316304
Si Si3 0.283858 0.951094 0.182570
Si Si4 0.353305 0.802487 0.815473
Si Si5 0.702217 0.722214 0.185007
Si Si6 0.445551 0.858279 0.315639
O O1 0.921573 0.500000 0.250000
O O2 0.843030 0.555774 0.220988
O O3 0.933296 0.588876 0.269623
O O4 0.913259 0.551799 0.000000
O O5 0.237318 0.351080 0.500000
O O6 0.247687 0.410807 0.268971
O O7 0.191411 0.336655 0.238481
O O8 0.292448 0.329990 0.254191
O O9 0.264326 0.000000 0.250000
O O10 0.272852 0.949008 0.000000
O O11 0.347195 0.750171 0.745182
O O12 0.406476 0.822328 0.759450
O O13 0.352138 0.799769 0.000000
O O14 0.750000 0.750000 0.250000
O O15 0.702591 0.720319 0.000000
O O16 0.500000 0.844059 0.250000
O O17 0.444136 0.853140 0.500000
#
# Coordination Sequence:
#
# PCOD8292979 Si02
#       6
#    16  16  16  16  16  16
#     4  10  20  34  50  65  83 107 140 181 225 268
#     4  11  19  29  46  67  89 114 142 175 214 257
#     4  10  19  30  45  64  88 115 145 179 218 261
#     4  11  20  33  48  65  87 110 138 176 218 262
#     4  10  18  29  45  66  88 111 138 171 212 256
#     4  12  24  37  51  66  84 109 142 180 225 270
#
# _framework density 14.817259999999999
#
# number of rings (size 3 to 8) (size 9 to 14) (size 15 to 20)
#    0.000    1.333    1.667    9.000    0.000    1.667 
#    0.000    1.667    0.000    0.000    0.000    0.000 
#    0.000    0.000    0.000    0.000    0.000    0.833 
#
# Total GULP energy -595267.796589 kJ/mol
# GULP energy per Si atom -12401.412429 kJ/mol
# Density = 1.478353 g / cm^3
# Si number density = 14.817260 Si / 1000 Ang^3
#
#
#
# Elastic Constant Matrix: (Units=GPa)
#
#
# Indices 1 2 3 4 5 6 
#
# 1 47.8212 49.3411 24.2937 0.0000 0.0000 0.0000
# 2 49.3411 104.8126 40.4872 0.0000 0.0000 0.0000
# 3 24.2937 40.4872 115.2521 0.0000 0.0000 0.0000
# 4 0.0000 0.0000 0.0000 29.1961 0.0000 0.0000
# 5 0.0000 0.0000 0.0000 0.0000 19.2693 0.0000
# 6 0.0000 0.0000 0.0000 0.0000 0.0000 31.7987
#
#
#
# Elastic Compliance Matrix: (Units=1/GPa)
#
#
# Indices 1 2 3 4 5 6 
#
# 1 0.041121 -0.018523 -0.002161 0.000000 0.000000 0.000000
# 2 -0.018523 0.019383 -0.002905 0.000000 0.000000 0.000000
# 3 -0.002161 -0.002905 0.010152 0.000000 0.000000 0.000000
# 4 0.000000 0.000000 0.000000 0.034251 0.000000 0.000000
# 5 0.000000 0.000000 0.000000 0.000000 0.051896 0.000000
# 6 0.000000 0.000000 0.000000 0.000000 0.000000 0.031448
#
#
# Mechanical properties :
#
#
# Convention : Reuss Voigt Hill
#
# Bulk Modulus (GPa) = 42.59117 55.12556 48.85836
# Shear Modulus (GPa) = 20.55463 26.30374 23.42918
#
# Velocity S-wave (km/s) = 3.72857 4.21789 3.98076
# Velocity P-wave (km/s) = 6.88062 7.81058 7.36031
#
# Compressibility (1/GPa) = 0.02347905
#
# Stress axis : x y z
#
# Youngs Moduli (GPa) = 24.31859 51.59235 98.49868
#
# Poissons Ratio (x) = 0.95566 0.21283
# Poissons Ratio (y) = 0.45046 0.28609
# Poissons Ratio (z) = 0.05255 0.14985
#
# Static dielectric constant tensor:
#      x y z
#    x 2.711360 0.000000 0.000000 
#    y 0.000000 3.281240 0.000000 
#    z 0.000000 0.000000 3.044040 
# 
# 
# High freq. dielectric constant tensor:
#      x y z
#    x 1.510970 0.000000 0.000000 
#    y 0.000000 1.567080 0.000000 
#    z 0.000000 0.000000 1.595130 
# 
# From -- ./inp_files/7105.got.cif
#   From: 2010.03.12/outbox.cif.g09.slc.cpg/sg72_4_cif.got.tgz:7105.got - 2010.04.16 14:54:00.
