data_PCOD8292611
_publ_section_title
;
Structure prediction by ZEFSAII (Michael W. Deem and Ramdas Pophale) SiO2 
 PCOD8292611
Probable space group: I M M M
;
_chemical_formula_sum "Si O2"
_cell_formula_units_Z 80
_cell_length_a 19.234123
_cell_length_b 27.546836
_cell_length_c 7.919086
_cell_angle_alpha 90.000000
_cell_angle_beta 90.000000
_cell_angle_gamma 90.000000
_cell_volume 4195.842443
_symmetry_space_group_name_H-M "I M M M"
_symmetry_group_IT_number 71
_symmetry_cell_setting 'orthorhombic'
loop_
_space_group_symop_operation_xyz
x,y,z
-x,-y,z
x,-y,-z
-x,y,-z
-x,-y,-z
x,y,-z
-x,y,z
x,-y,z
1/2+x,1/2+y,1/2+z
1/2-x,1/2-y,1/2+z
1/2+x,1/2-y,1/2-z
1/2-x,1/2+y,1/2-z
1/2-x,1/2-y,1/2-z
1/2+x,1/2+y,1/2-z
1/2-x,1/2+y,1/2+z
1/2+x,1/2-y,1/2+z
loop_
_atom_site_type_symbol
_atom_site_label
_atom_site_fract_x
_atom_site_fract_y
_atom_site_fract_z
Si Si1 0.169670 0.291262 0.802991
Si Si2 0.821477 0.187864 0.694262
Si Si3 0.582363 0.500000 0.184507
Si Si4 0.078513 0.104933 0.297165
Si Si5 0.582046 0.116928 0.310498
Si Si6 0.582855 0.946026 0.000000
O O1 0.144780 0.241166 0.717320
O O2 0.243540 0.310266 0.726911
O O3 0.111038 0.330459 0.763501
O O4 0.179002 0.281079 0.000000
O O5 0.816360 0.174004 0.500000
O O6 0.869647 0.146089 0.778657
O O7 0.500000 0.500000 0.164174
O O8 0.602876 0.448591 0.274099
O O9 0.617673 0.500000 0.000000
O O10 0.079492 0.103709 0.500000
O O11 0.000000 0.116851 0.235388
O O12 0.605904 0.100833 0.500000
O O13 0.500000 0.120851 0.301534
O O14 0.610463 0.079350 0.171154
O O15 0.500000 0.946353 0.000000
O O16 0.613512 0.000000 0.000000
#
# Coordination Sequence:
#
# PCOD8292611 Si02
#       6
#    16  16   8  16  16   8
#     4   9  18  31  44  62  90 124 158 190 236 292
#     4   9  17  28  44  65  89 120 156 195 236 280
#     4   7  10  18  34  56  85 115 136 166 219 270
#     4   8  13  22  38  63  90 114 144 183 227 272
#     4   9  18  32  50  72  99 130 162 202 245 285
#     4   9  18  32  52  78 100 124 163 200 242 298
#
# _framework density 19.066493000000001
#
# number of rings (size 3 to 8) (size 9 to 14) (size 15 to 20)
#    0.000    3.400    0.000    1.200    1.400    1.200 
#    0.000    2.000    2.200    0.000    0.000    0.700 
#    0.000    2.400    0.000    0.000    0.000    0.000 
#
# Total GULP energy -495522.086909 kJ/mol
# GULP energy per Si atom -12388.052173 kJ/mol
# Density = 1.902310 g / cm^3
# Si number density = 19.066493 Si / 1000 Ang^3
#
#
#
# Elastic Constant Matrix: (Units=GPa)
#
#
# Indices 1 2 3 4 5 6 
#
# 1 38.7194 55.2644 14.2325 0.0000 0.0000 0.0000
# 2 55.2644 178.4149 38.4707 0.0000 0.0000 0.0000
# 3 14.2325 38.4707 51.6789 0.0000 0.0000 0.0000
# 4 0.0000 0.0000 0.0000 20.7115 0.0000 0.0000
# 5 0.0000 0.0000 0.0000 0.0000 10.1596 0.0000
# 6 0.0000 0.0000 0.0000 0.0000 0.0000 21.5497
#
#
#
# Elastic Compliance Matrix: (Units=1/GPa)
#
#
# Indices 1 2 3 4 5 6 
#
# 1 0.046560 -0.013886 -0.002486 0.000000 0.000000 0.000000
# 2 -0.013886 0.010818 -0.004229 0.000000 0.000000 0.000000
# 3 -0.002486 -0.004229 0.023183 0.000000 0.000000 0.000000
# 4 0.000000 0.000000 0.000000 0.048282 0.000000 0.000000
# 5 0.000000 0.000000 0.000000 0.000000 0.098429 0.000000
# 6 0.000000 0.000000 0.000000 0.000000 0.000000 0.046404
#
#
# Mechanical properties :
#
#
# Convention : Reuss Voigt Hill
#
# Bulk Modulus (GPa) = 25.40663 53.86091 39.63377
# Shear Modulus (GPa) = 15.24400 21.20722 18.22561
#
# Velocity S-wave (km/s) = 2.83064 3.33870 3.09511
# Velocity P-wave (km/s) = 4.90281 6.57061 5.79700
#
# Compressibility (1/GPa) = 0.03935981
#
# Stress axis : x y z
#
# Youngs Moduli (GPa) = 21.47746 92.43825 43.13539
#
# Poissons Ratio (x) = 1.28362 0.10722
# Poissons Ratio (y) = 0.29824 0.18241
# Poissons Ratio (z) = 0.05339 0.39091
#
# Static dielectric constant tensor:
#      x y z
#    x 3.330350 0.000000 0.000000 
#    y 0.000000 3.851180 0.000000 
#    z 0.000000 0.000000 3.285810 
# 
# 
# High freq. dielectric constant tensor:
#      x y z
#    x 1.705700 0.000000 0.000000 
#    y 0.000000 1.749250 0.000000 
#    z 0.000000 0.000000 1.713150 
# 
# From -- ./inp_files/10232.got.cif
#   From: 2010.06.25/outbox.cif.g09.slc.cpg/sg71_6_cif.got.tgz:10232.got - 2010.06.28 04:59:45.
