data_PCOD8292680
_publ_section_title
;
Structure prediction by ZEFSAII (Michael W. Deem and Ramdas Pophale) SiO2 
 PCOD8292680
Probable space group: I M M M
;
_chemical_formula_sum "Si O2"
_cell_formula_units_Z 80
_cell_length_a 38.883744
_cell_length_b 14.361114
_cell_length_c 9.659718
_cell_angle_alpha 90.000000
_cell_angle_beta 90.000000
_cell_angle_gamma 90.000000
_cell_volume 5394.120611
_symmetry_space_group_name_H-M "I M M M"
_symmetry_group_IT_number 71
_symmetry_cell_setting 'orthorhombic'
loop_
_space_group_symop_operation_xyz
x,y,z
-x,-y,z
x,-y,-z
-x,y,-z
-x,-y,-z
x,y,-z
-x,y,z
x,-y,z
1/2+x,1/2+y,1/2+z
1/2-x,1/2-y,1/2+z
1/2+x,1/2-y,1/2-z
1/2-x,1/2+y,1/2-z
1/2-x,1/2-y,1/2-z
1/2+x,1/2+y,1/2-z
1/2-x,1/2+y,1/2+z
1/2+x,1/2-y,1/2+z
loop_
_atom_site_type_symbol
_atom_site_label
_atom_site_fract_x
_atom_site_fract_y
_atom_site_fract_z
Si Si1 0.399584 0.108916 0.338439
Si Si2 0.299605 0.395612 0.660048
Si Si3 0.037976 0.610545 0.655117
Si Si4 0.765807 0.608204 0.158528
Si Si5 0.832737 0.289126 0.161219
O O1 0.405370 0.128141 0.500000
O O2 0.433324 0.147861 0.260773
O O3 0.367429 0.167048 0.275284
O O4 0.392915 0.000000 0.309333
O O5 0.288371 0.390021 0.500000
O O6 0.312325 0.500000 0.698579
O O7 0.267004 0.365261 0.750044
O O8 0.330428 0.322245 0.689667
O O9 0.046660 0.645337 0.500000
O O10 0.037777 0.500000 0.658780
O O11 0.000000 0.647160 0.699449
O O12 0.774449 0.500000 0.169571
O O13 0.798531 0.662400 0.221734
O O14 0.758112 0.637470 0.000000
O O15 0.833765 0.313255 0.000000
#
# Coordination Sequence:
#
# PCOD8292680 Si02
#       5
#    16  16  16  16  16
#     4   9  16  25  38  56  76  98 125 153 178 209
#     4   9  17  28  40  53  70  94 125 158 189 221
#     4   8  14  25  39  54  76 105 128 144 169 208
#     4   9  16  26  40  55  71  94 123 153 187 225
#     4   9  16  26  39  54  74  98 122 151 188 224
#
# _framework density 14.830963000000001
#
# number of rings (size 3 to 8) (size 9 to 14) (size 15 to 20)
#    0.000    3.200    0.000    1.800    0.000    2.800 
#    0.000    4.000    0.000    4.800    0.000    0.000 
#    0.000    0.800    0.000   10.000    0.000    2.000 
#
# Total GULP energy -495739.820959 kJ/mol
# GULP energy per Si atom -12393.495524 kJ/mol
# Density = 1.479721 g / cm^3
# Si number density = 14.830963 Si / 1000 Ang^3
#
#
#
# Elastic Constant Matrix: (Units=GPa)
#
#
# Indices 1 2 3 4 5 6 
#
# 1 121.1545 54.4714 48.7965 0.0000 0.0000 0.0000
# 2 54.4714 57.7822 24.3036 0.0000 0.0000 0.0000
# 3 48.7965 24.3036 46.6383 0.0000 0.0000 0.0000
# 4 0.0000 0.0000 0.0000 10.5737 0.0000 0.0000
# 5 0.0000 0.0000 0.0000 0.0000 21.7574 0.0000
# 6 0.0000 0.0000 0.0000 0.0000 0.0000 15.7142
#
#
#
# Elastic Compliance Matrix: (Units=1/GPa)
#
#
# Indices 1 2 3 4 5 6 
#
# 1 0.019454 -0.012523 -0.013828 0.000000 0.000000 0.000000
# 2 -0.012523 0.030226 -0.002648 0.000000 0.000000 0.000000
# 3 -0.013828 -0.002648 0.037290 0.000000 0.000000 0.000000
# 4 0.000000 0.000000 0.000000 0.094575 0.000000 0.000000
# 5 0.000000 0.000000 0.000000 0.000000 0.045961 0.000000
# 6 0.000000 0.000000 0.000000 0.000000 0.000000 0.063637
#
#
# Mechanical properties :
#
#
# Convention : Reuss Voigt Hill
#
# Bulk Modulus (GPa) = 34.51828 53.41310 43.96569
# Shear Modulus (GPa) = 13.93543 16.14261 15.03902
#
# Velocity S-wave (km/s) = 3.06864 3.30273 3.18784
# Velocity P-wave (km/s) = 5.99003 7.11595 6.57713
#
# Compressibility (1/GPa) = 0.02897016
#
# Stress axis : x y z
#
# Youngs Moduli (GPa) = 51.40419 33.08456 26.81698
#
# Poissons Ratio (x) = 0.41431 0.37083
# Poissons Ratio (y) = 0.64372 0.07102
# Poissons Ratio (z) = 0.71083 0.08762
#
# Static dielectric constant tensor:
#      x y z
#    x 3.024140 0.000000 0.000000 
#    y 0.000000 2.772060 0.000000 
#    z 0.000000 0.000000 2.821750 
# 
# 
# High freq. dielectric constant tensor:
#      x y z
#    x 1.555390 0.000000 0.000000 
#    y 0.000000 1.542050 0.000000 
#    z 0.000000 0.000000 1.551930 
# 
# From -- ./inp_files/21888.got.cif
#   From: 2010.06.25/outbox.cif.g09.slc.cpg/sg71_11_cif.got.tgz:21888.got - 2010.06.28 04:59:45.
