data_PCOD8292040
_publ_section_title
;
Structure prediction by ZEFSAII (Michael W. Deem and Ramdas Pophale) SiO2 
 PCOD8292040
Probable space group: I M M M
;
_chemical_formula_sum "Si O2"
_cell_formula_units_Z 72
_cell_length_a 24.814905
_cell_length_b 8.738408
_cell_length_c 17.719194
_cell_angle_alpha 90.000000
_cell_angle_beta 90.000000
_cell_angle_gamma 90.000000
_cell_volume 3842.279009
_symmetry_space_group_name_H-M "I M M M"
_symmetry_group_IT_number 71
_symmetry_cell_setting 'orthorhombic'
loop_
_space_group_symop_operation_xyz
x,y,z
-x,-y,z
x,-y,-z
-x,y,-z
-x,-y,-z
x,y,-z
-x,y,z
x,-y,z
1/2+x,1/2+y,1/2+z
1/2-x,1/2-y,1/2+z
1/2+x,1/2-y,1/2-z
1/2-x,1/2+y,1/2-z
1/2-x,1/2-y,1/2-z
1/2+x,1/2+y,1/2-z
1/2-x,1/2+y,1/2+z
1/2+x,1/2-y,1/2+z
loop_
_atom_site_type_symbol
_atom_site_label
_atom_site_fract_x
_atom_site_fract_y
_atom_site_fract_z
Si Si1 0.249384 0.178876 0.914832
Si Si2 0.842874 0.819347 0.682274
Si Si3 0.152610 0.330769 0.841179
Si Si4 0.061530 0.500000 0.910357
Si Si5 0.440670 0.681912 0.084406
O O1 0.290668 0.243000 0.853671
O O2 0.191800 0.258640 0.903445
O O3 0.242464 0.000000 0.901280
O O4 0.269254 0.214791 0.000000
O O5 0.848599 0.779387 0.769517
O O6 0.895701 0.751997 0.640484
O O7 0.837870 0.000000 0.672348
O O8 0.174162 0.500000 0.817477
O O9 0.092889 0.349205 0.878430
O O10 0.000000 0.500000 0.881126
O O11 0.063641 0.500000 0.000000
O O12 0.500000 0.740075 0.109860
O O13 0.439684 0.500000 0.085407
O O14 0.428036 0.741211 0.000000
#
# Coordination Sequence:
#
# PCOD8292040 Si02
#       5
#    16  16  16   8  16
#     4  11  23  38  58  83 117 157 198 245 293 348
#     4  11  21  34  55  85 120 157 196 241 293 345
#     4  10  22  37  59  83 115 147 190 239 293 351
#     4   9  20  40  66  90 111 145 194 246 297 356
#     4   8  15  29  49  74 106 147 194 238 279 331
#
# _framework density 18.738878
#
# number of rings (size 3 to 8) (size 9 to 14) (size 15 to 20)
#    0.667    1.444    0.000    4.667    0.000    3.111 
#    0.000    0.000    0.000    2.000    0.000   12.444 
#    0.000    0.000    0.000    0.000    0.000    0.000 
#
# Total GULP energy -446272.926236 kJ/mol
# GULP energy per Si atom -12396.470173 kJ/mol
# Density = 1.869623 g / cm^3
# Si number density = 18.738878 Si / 1000 Ang^3
#
#
#
# Elastic Constant Matrix: (Units=GPa)
#
#
# Indices 1 2 3 4 5 6 
#
# 1 137.7627 33.6787 47.7470 0.0000 0.0000 0.0000
# 2 33.6787 54.0958 13.7859 0.0000 0.0000 0.0000
# 3 47.7470 13.7859 81.4651 0.0000 0.0000 0.0000
# 4 0.0000 0.0000 0.0000 14.2596 0.0000 0.0000
# 5 0.0000 0.0000 0.0000 0.0000 31.9639 0.0000
# 6 0.0000 0.0000 0.0000 0.0000 0.0000 13.1878
#
#
#
# Elastic Compliance Matrix: (Units=1/GPa)
#
#
# Indices 1 2 3 4 5 6 
#
# 1 0.010297 -0.005092 -0.005173 0.000000 0.000000 0.000000
# 2 -0.005092 0.021837 -0.000711 0.000000 0.000000 0.000000
# 3 -0.005173 -0.000711 0.015428 0.000000 0.000000 0.000000
# 4 0.000000 0.000000 0.000000 0.070128 0.000000 0.000000
# 5 0.000000 0.000000 0.000000 0.000000 0.031285 0.000000
# 6 0.000000 0.000000 0.000000 0.000000 0.000000 0.075828
#
#
# Mechanical properties :
#
#
# Convention : Reuss Voigt Hill
#
# Bulk Modulus (GPa) = 39.04887 51.52743 45.28815
# Shear Modulus (GPa) = 19.58548 23.75639 21.67094
#
# Velocity S-wave (km/s) = 3.23643 3.56442 3.40438
# Velocity P-wave (km/s) = 5.90336 6.67064 6.29869
#
# Compressibility (1/GPa) = 0.02560893
#
# Stress axis : x y z
#
# Youngs Moduli (GPa) = 97.11837 45.79360 64.81914
#
# Poissons Ratio (x) = 0.23319 0.33532
# Poissons Ratio (y) = 0.49454 0.04608
# Poissons Ratio (z) = 0.50242 0.03255
#
# Static dielectric constant tensor:
#      x y z
#    x 3.687570 0.000000 0.000000 
#    y 0.000000 3.187940 0.000000 
#    z 0.000000 0.000000 3.407030 
# 
# 
# High freq. dielectric constant tensor:
#      x y z
#    x 1.732850 0.000000 0.000000 
#    y 0.000000 1.705070 0.000000 
#    z 0.000000 0.000000 1.732040 
# 
# From -- ./inp_files/48548.got.cif
#   From: 2010.06.25/outbox.cif.g09.slc.cpg/sg71_25_cif.got.tgz:48548.got - 2010.06.28 04:59:45.
