data_PCOD8292723
_publ_section_title
;
Structure prediction by ZEFSAII (Michael W. Deem and Ramdas Pophale) SiO2 
 PCOD8292723
Probable space group: I M M M
;
_chemical_formula_sum "Si O2"
_cell_formula_units_Z 96
_cell_length_a 27.822186
_cell_length_b 29.255425
_cell_length_c 9.240281
_cell_angle_alpha 90.000000
_cell_angle_beta 90.000000
_cell_angle_gamma 90.000000
_cell_volume 7521.125573
_symmetry_space_group_name_H-M "I M M M"
_symmetry_group_IT_number 71
_symmetry_cell_setting 'orthorhombic'
loop_
_space_group_symop_operation_xyz
x,y,z
-x,-y,z
x,-y,-z
-x,y,-z
-x,-y,-z
x,y,-z
-x,y,z
x,-y,z
1/2+x,1/2+y,1/2+z
1/2-x,1/2-y,1/2+z
1/2+x,1/2-y,1/2-z
1/2-x,1/2+y,1/2-z
1/2-x,1/2-y,1/2-z
1/2+x,1/2+y,1/2-z
1/2-x,1/2+y,1/2+z
1/2+x,1/2-y,1/2+z
loop_
_atom_site_type_symbol
_atom_site_label
_atom_site_fract_x
_atom_site_fract_y
_atom_site_fract_z
Si Si1 0.319578 0.771956 0.163377
Si Si2 0.836084 0.132857 0.832469
Si Si3 0.599079 0.550906 0.327911
Si Si4 0.257314 0.319429 0.836534
Si Si5 0.000000 0.091614 0.173007
Si Si6 0.602851 0.722907 0.667216
Si Si7 0.000000 0.806007 0.171464
O O1 0.287377 0.726928 0.165321
O O2 0.292456 0.812055 0.250519
O O3 0.370367 0.761362 0.239062
O O4 0.328834 0.788667 0.000000
O O5 0.859951 0.086008 0.774794
O O6 0.787886 0.140915 0.740670
O O7 0.874573 0.172998 0.808768
O O8 0.821126 0.129784 0.000000
O O9 0.596992 0.552463 0.500000
O O10 0.611558 0.500000 0.271650
O O11 0.547002 0.565614 0.267187
O O12 0.245400 0.334472 0.000000
O O13 0.000000 0.142959 0.236687
O O14 0.000000 0.092348 0.000000
O O15 0.607036 0.737306 0.500000
O O16 0.547621 0.721202 0.721133
O O17 0.000000 0.810997 0.000000
#
# Coordination Sequence:
#
# PCOD8292723 Si02
#       7
#    16  16  16  16   8  16   8
#     4   9  16  25  36  51  68  84 103 131 168 207
#     4   9  15  23  35  50  68  88 110 140 178 214
#     4   9  15  21  31  49  71  91 114 149 189 222
#     4   9  16  25  37  51  66  83 105 131 165 210
#     4   9  13  20  31  47  67  89 117 151 189 220
#     4   9  15  23  35  49  67  90 115 141 171 206
#     4   9  14  21  33  48  67  92 120 148 177 211
#
# _framework density 12.764047
#
# number of rings (size 3 to 8) (size 9 to 14) (size 15 to 20)
#    0.000    3.000    1.667    1.250    0.000    5.000 
#    0.000    0.417    0.000    0.500    0.000    0.583 
#    0.000    1.333    0.000    0.000    0.000    0.000 
#
# Total GULP energy -595012.577381 kJ/mol
# GULP energy per Si atom -12396.095362 kJ/mol
# Density = 1.273500 g / cm^3
# Si number density = 12.764047 Si / 1000 Ang^3
#
#
#
# Elastic Constant Matrix: (Units=GPa)
#
#
# Indices 1 2 3 4 5 6 
#
# 1 94.8505 53.8043 43.2478 0.0000 0.0000 0.0000
# 2 53.8043 53.3939 28.8883 0.0000 0.0000 0.0000
# 3 43.2478 28.8883 62.0877 0.0000 0.0000 0.0000
# 4 0.0000 0.0000 0.0000 8.5835 0.0000 0.0000
# 5 0.0000 0.0000 0.0000 0.0000 15.6163 0.0000
# 6 0.0000 0.0000 0.0000 0.0000 0.0000 18.7005
#
#
#
# Elastic Compliance Matrix: (Units=1/GPa)
#
#
# Indices 1 2 3 4 5 6 
#
# 1 0.027525 -0.023205 -0.008376 0.000000 0.000000 0.000000
# 2 -0.023205 0.044592 -0.004584 0.000000 0.000000 0.000000
# 3 -0.008376 -0.004584 0.024074 0.000000 0.000000 0.000000
# 4 0.000000 0.000000 0.000000 0.116502 0.000000 0.000000
# 5 0.000000 0.000000 0.000000 0.000000 0.064036 0.000000
# 6 0.000000 0.000000 0.000000 0.000000 0.000000 0.053474
#
#
# Mechanical properties :
#
#
# Convention : Reuss Voigt Hill
#
# Bulk Modulus (GPa) = 41.91040 51.35699 46.63370
# Shear Modulus (GPa) = 12.18063 14.20618 13.19341
#
# Velocity S-wave (km/s) = 3.09251 3.33976 3.21851
# Velocity P-wave (km/s) = 6.75704 7.42934 7.10115
#
# Compressibility (1/GPa) = 0.02386042
#
# Stress axis : x y z
#
# Youngs Moduli (GPa) = 36.33051 22.42536 41.53910
#
# Poissons Ratio (x) = 0.52038 0.34793
# Poissons Ratio (y) = 0.84305 0.19043
# Poissons Ratio (z) = 0.30431 0.10281
#
# Static dielectric constant tensor:
#      x y z
#    x 2.626400 0.000000 0.000000 
#    y 0.000000 2.381910 0.000000 
#    z 0.000000 0.000000 2.458920 
# 
# 
# High freq. dielectric constant tensor:
#      x y z
#    x 1.474090 0.000000 0.000000 
#    y 0.000000 1.438670 0.000000 
#    z 0.000000 0.000000 1.467350 
# 
# From -- ./inp_files/17588.got.cif
#   From: 2010.06.25/outbox.cif.g09.slc.cpg/sg71_9_cif.got.tgz:17588.got - 2010.06.28 04:59:45.
