data_PCOD8292561
_publ_section_title
;
Structure prediction by ZEFSAII (Michael W. Deem and Ramdas Pophale) SiO2 
 PCOD8292561
Probable space group: I M M M
;
_chemical_formula_sum "Si O2"
_cell_formula_units_Z 64
_cell_length_a 22.020370
_cell_length_b 16.563714
_cell_length_c 8.364274
_cell_angle_alpha 90.000000
_cell_angle_beta 90.000000
_cell_angle_gamma 90.000000
_cell_volume 3050.777862
_symmetry_space_group_name_H-M "I M M M"
_symmetry_group_IT_number 71
_symmetry_cell_setting 'orthorhombic'
loop_
_space_group_symop_operation_xyz
x,y,z
-x,-y,z
x,-y,-z
-x,y,-z
-x,-y,-z
x,y,-z
-x,y,z
x,-y,z
1/2+x,1/2+y,1/2+z
1/2-x,1/2-y,1/2+z
1/2+x,1/2-y,1/2-z
1/2-x,1/2+y,1/2-z
1/2-x,1/2-y,1/2-z
1/2+x,1/2+y,1/2-z
1/2-x,1/2+y,1/2+z
1/2+x,1/2-y,1/2+z
loop_
_atom_site_type_symbol
_atom_site_label
_atom_site_fract_x
_atom_site_fract_y
_atom_site_fract_z
Si Si1 0.928228 0.500000 0.183155
Si Si2 0.738069 0.592507 0.815242
Si Si3 0.878488 0.823723 0.185605
Si Si4 0.639025 0.847137 0.184069
Si Si5 0.000000 0.909066 0.189890
O O1 0.902812 0.421927 0.270483
O O2 0.000000 0.500000 0.196822
O O3 0.905949 0.500000 0.000000
O O4 0.729769 0.500000 0.761526
O O5 0.676124 0.639890 0.787560
O O6 0.790476 0.633164 0.711073
O O7 0.756650 0.598735 0.000000
O O8 0.881896 0.727896 0.208646
O O9 0.940402 0.862915 0.252345
O O10 0.868558 0.844383 0.000000
O O11 0.629297 0.824901 0.000000
O O12 0.000000 0.000000 0.258247
O O13 0.000000 0.909457 0.000000
#
# Coordination Sequence:
#
# PCOD8292561 Si02
#       5
#     8  16  16  16   8
#     4  11  25  45  69  95 129 170 213 260 319 383
#     4  11  23  41  65  93 128 168 213 266 325 382
#     4  11  23  40  65  94 128 168 215 266 321 381
#     4  12  25  42  65  95 130 167 214 263 317 380
#     4   9  20  40  65  94 125 164 211 259 314 379
#
# _framework density 20.978255999999998
#
# number of rings (size 3 to 8) (size 9 to 14) (size 15 to 20)
#    0.000    1.000    1.250    5.625    1.750    3.500 
#    0.000    1.875    0.000    4.500    0.000    0.000 
#    0.000    0.000    0.000    0.000    0.000    0.000 
#
# Total GULP energy -397066.344152 kJ/mol
# GULP energy per Si atom -12408.323255 kJ/mol
# Density = 2.093051 g / cm^3
# Si number density = 20.978256 Si / 1000 Ang^3
#
#
#
# Elastic Constant Matrix: (Units=GPa)
#
#
# Indices 1 2 3 4 5 6 
#
# 1 129.3529 52.3512 16.7942 0.0000 0.0000 0.0000
# 2 52.3512 150.9749 5.5654 0.0000 0.0000 0.0000
# 3 16.7942 5.5654 64.1579 0.0000 0.0000 0.0000
# 4 0.0000 0.0000 0.0000 44.3774 0.0000 0.0000
# 5 0.0000 0.0000 0.0000 0.0000 30.6520 0.0000
# 6 0.0000 0.0000 0.0000 0.0000 0.0000 -12.3032
#
#
#
# Elastic Compliance Matrix: (Units=1/GPa)
#
#
# Indices 1 2 3 4 5 6 
#
# 1 0.009281 -0.003139 -0.002157 0.000000 0.000000 0.000000
# 2 -0.003139 0.007706 0.000153 0.000000 0.000000 0.000000
# 3 -0.002157 0.000153 0.016138 0.000000 0.000000 0.000000
# 4 0.000000 0.000000 0.000000 0.022534 0.000000 0.000000
# 5 0.000000 0.000000 0.000000 0.000000 0.032624 0.000000
# 6 0.000000 0.000000 0.000000 0.000000 0.000000 -0.081279
#
#
# Mechanical properties :
#
#
# Convention : Reuss Voigt Hill
#
# Bulk Modulus (GPa) = 43.78328 54.87860 49.33094
# Shear Modulus (GPa) = 200.77661 30.53023 115.65342
#
# Velocity S-wave (km/s) = 9.79361 3.81901 7.43302
# Velocity P-wave (km/s) = 12.19846 6.75744 9.86067
#
# Compressibility (1/GPa) = 0.02283977
#
# Stress axis : x y z
#
# Youngs Moduli (GPa) = 107.74496 129.76306 61.96579
#
# Poissons Ratio (x) = 0.40730 0.13367
# Poissons Ratio (y) = 0.33819 -0.00949
# Poissons Ratio (z) = 0.23243 -0.01987
#
# Static dielectric constant tensor:
#      x y z
#    x 3.870510 0.000000 0.000000 
#    y 0.000000 3.968330 0.000000 
#    z 0.000000 0.000000 3.660850 
# 
# 
# High freq. dielectric constant tensor:
#      x y z
#    x 1.832090 0.000000 0.000000 
#    y 0.000000 1.838210 0.000000 
#    z 0.000000 0.000000 1.817020 
# 
# From -- ./inp_files/5570.got.cif
#   From: 2010.06.25/outbox.cif.g09.slc.cpg/sg71_3_cif.got.tgz:5570.got - 2010.06.28 04:59:45.
