data_PCOD8292103
_publ_section_title
;
Structure prediction by ZEFSAII (Michael W. Deem and Ramdas Pophale) SiO2 
 PCOD8292103
Probable space group: I M M M
;
_chemical_formula_sum "Si O2"
_cell_formula_units_Z 104
_cell_length_a 26.582013
_cell_length_b 9.138558
_cell_length_c 22.878877
_cell_angle_alpha 90.000000
_cell_angle_beta 90.000000
_cell_angle_gamma 90.000000
_cell_volume 5557.765801
_symmetry_space_group_name_H-M "I M M M"
_symmetry_group_IT_number 71
_symmetry_cell_setting 'orthorhombic'
loop_
_space_group_symop_operation_xyz
x,y,z
-x,-y,z
x,-y,-z
-x,y,-z
-x,-y,-z
x,y,-z
-x,y,z
x,-y,z
1/2+x,1/2+y,1/2+z
1/2-x,1/2-y,1/2+z
1/2+x,1/2-y,1/2-z
1/2-x,1/2+y,1/2-z
1/2-x,1/2-y,1/2-z
1/2+x,1/2+y,1/2-z
1/2-x,1/2+y,1/2+z
1/2+x,1/2-y,1/2+z
loop_
_atom_site_type_symbol
_atom_site_label
_atom_site_fract_x
_atom_site_fract_y
_atom_site_fract_z
Si Si1 0.500000 0.326488 0.064429
Si Si2 0.326206 0.830518 0.933450
Si Si3 0.592955 0.326032 0.140217
Si Si4 0.058760 0.672819 0.757046
Si Si5 0.127957 0.330712 0.134345
Si Si6 0.054431 0.159267 0.067977
Si Si7 0.209331 0.829663 0.066102
O O1 0.500000 0.500000 0.061267
O O2 0.549213 0.270468 0.097372
O O3 0.500000 0.256822 0.000000
O O4 0.355066 0.731282 0.886659
O O5 0.267736 0.798652 0.923245
O O6 0.338654 0.000000 0.921837
O O7 0.341187 0.788160 0.000000
O O8 0.595126 0.500000 0.146304
O O9 0.581388 0.257721 0.202533
O O10 0.062519 0.500000 0.746567
O O11 0.096504 0.722409 0.808972
O O12 0.000000 0.716411 0.768690
O O13 0.140354 0.500000 0.137742
O O14 0.091704 0.291878 0.080754
O O15 0.180243 0.249615 0.119511
O O16 0.000000 0.191829 0.096849
O O17 0.074487 0.000000 0.090775
O O18 0.047568 0.150013 0.000000
O O19 0.197035 0.000000 0.070407
O O20 0.194416 0.775814 0.000000
#
# Coordination Sequence:
#
# PCOD8292103 Si02
#       7
#     8  16  16  16  16  16  16
#     4   9  18  32  51  81 119 145 164 207 270 327
#     4   9  19  37  60  85 114 148 183 219 269 333
#     4  11  21  35  57  85 115 146 182 225 275 327
#     4  10  22  40  57  74 107 152 191 230 276 327
#     4  11  22  34  52  79 107 140 185 234 283 330
#     4   9  18  32  49  71 101 137 176 221 276 337
#     4   9  19  37  59  82 111 147 185 228 277 330
#
# _framework density 18.712555999999999
#
# number of rings (size 3 to 8) (size 9 to 14) (size 15 to 20)
#    0.000    2.231    0.769    3.692    0.000    6.154 
#    0.000    3.077    0.000    1.846    0.000    0.000 
#    0.000    0.000    0.000    0.000    0.000    0.000 
#
# Total GULP energy -644397.525380 kJ/mol
# GULP energy per Si atom -12392.260103 kJ/mol
# Density = 1.866996 g / cm^3
# Si number density = 18.712556 Si / 1000 Ang^3
#
#
#
# Elastic Constant Matrix: (Units=GPa)
#
#
# Indices 1 2 3 4 5 6 
#
# 1 115.1243 46.0898 66.3995 0.0000 0.0000 0.0000
# 2 46.0898 52.4128 50.5053 0.0000 0.0000 0.0000
# 3 66.3995 50.5053 107.7672 0.0000 0.0000 0.0000
# 4 0.0000 0.0000 0.0000 29.4086 0.0000 0.0000
# 5 0.0000 0.0000 0.0000 0.0000 10.3579 0.0000
# 6 0.0000 0.0000 0.0000 0.0000 0.0000 23.0745
#
#
#
# Elastic Compliance Matrix: (Units=1/GPa)
#
#
# Indices 1 2 3 4 5 6 
#
# 1 0.015057 -0.007843 -0.005602 0.000000 0.000000 0.000000
# 2 -0.007843 0.038876 -0.013387 0.000000 0.000000 0.000000
# 3 -0.005602 -0.013387 0.019004 0.000000 0.000000 0.000000
# 4 0.000000 0.000000 0.000000 0.034004 0.000000 0.000000
# 5 0.000000 0.000000 0.000000 0.000000 0.096544 0.000000
# 6 0.000000 0.000000 0.000000 0.000000 0.000000 0.043338
#
#
# Mechanical properties :
#
#
# Convention : Reuss Voigt Hill
#
# Bulk Modulus (GPa) = 51.88219 66.81038 59.34629
# Shear Modulus (GPa) = 16.29140 20.05551 18.17346
#
# Velocity S-wave (km/s) = 2.95382 3.27734 3.11977
# Velocity P-wave (km/s) = 6.27849 7.07830 6.69036
#
# Compressibility (1/GPa) = 0.01927444
#
# Stress axis : x y z
#
# Youngs Moduli (GPa) = 66.41473 25.72306 52.61914
#
# Poissons Ratio (x) = 0.20174 0.29475
# Poissons Ratio (y) = 0.52087 0.70441
# Poissons Ratio (z) = 0.37203 0.34435
#
# Static dielectric constant tensor:
#      x y z
#    x 3.519840 0.000000 0.000000 
#    y 0.000000 3.339990 0.000000 
#    z 0.000000 0.000000 3.416510 
# 
# 
# High freq. dielectric constant tensor:
#      x y z
#    x 1.733990 0.000000 0.000000 
#    y 0.000000 1.715730 0.000000 
#    z 0.000000 0.000000 1.717520 
# 
# From -- ./inp_files/56669.got.cif
#   From: 2010.06.25/outbox.cif.g09.slc.cpg/sg71_29_cif.got.tgz:56669.got - 2010.06.28 04:59:45.
