data_PCOD8292006
_publ_section_title
;
Structure prediction by ZEFSAII (Michael W. Deem and Ramdas Pophale) SiO2 
 PCOD8292006
Probable space group: I M M M
;
_chemical_formula_sum "Si O2"
_cell_formula_units_Z 96
_cell_length_a 15.749771
_cell_length_b 13.831821
_cell_length_c 21.213670
_cell_angle_alpha 90.000000
_cell_angle_beta 90.000000
_cell_angle_gamma 90.000000
_cell_volume 4621.355864
_symmetry_space_group_name_H-M "I M M M"
_symmetry_group_IT_number 71
_symmetry_cell_setting 'orthorhombic'
loop_
_space_group_symop_operation_xyz
x,y,z
-x,-y,z
x,-y,-z
-x,y,-z
-x,-y,-z
x,y,-z
-x,y,z
x,-y,z
1/2+x,1/2+y,1/2+z
1/2-x,1/2-y,1/2+z
1/2+x,1/2-y,1/2-z
1/2-x,1/2+y,1/2-z
1/2-x,1/2-y,1/2-z
1/2+x,1/2+y,1/2-z
1/2-x,1/2+y,1/2+z
1/2+x,1/2-y,1/2+z
loop_
_atom_site_type_symbol
_atom_site_label
_atom_site_fract_x
_atom_site_fract_y
_atom_site_fract_z
Si Si1 0.241869 0.391018 0.637386
Si Si2 0.712744 0.607325 0.500000
Si Si3 0.092706 0.710617 0.000000
Si Si4 0.165744 0.889822 0.572711
Si Si5 0.596532 0.709729 0.306705
Si Si6 0.905664 0.749605 0.332459
Si Si7 0.148569 0.610108 0.876835
O O1 0.233565 0.500000 0.661896
O O2 0.229201 0.383009 0.562083
O O3 0.336325 0.354677 0.655073
O O4 0.166301 0.331676 0.668593
O O5 0.668977 0.500000 0.500000
O O6 0.647953 0.694118 0.500000
O O7 0.103360 0.641812 0.940484
O O8 0.000000 0.754933 0.000000
O O9 0.179701 0.856831 0.500000
O O10 0.098707 0.821414 0.607638
O O11 0.251324 0.877406 0.612500
O O12 0.133118 0.000000 0.574259
O O13 0.500000 0.685025 0.328908
O O14 0.605976 0.690143 0.232241
O O15 0.617124 0.822778 0.319673
O O16 0.000000 0.702445 0.333850
O O17 0.124534 0.500000 0.860527
#
# Coordination Sequence:
#
# PCOD8292006 Si02
#       7
#    16   8   8  16  16  16  16
#     4  11  24  43  66  90 124 167 210 259 312 366
#     4  10  22  40  62  88 119 161 213 264 309 361
#     4  12  21  33  56  88 129 165 206 257 309 376
#     4  10  21  40  67  96 126 161 204 258 321 384
#     4  11  24  42  63  93 130 167 210 256 304 370
#     4  11  25  43  65  94 127 163 210 263 313 369
#     4  11  22  37  61  93 128 166 205 253 315 381
#
# _framework density 20.773125
#
# number of rings (size 3 to 8) (size 9 to 14) (size 15 to 20)
#    0.000    1.167    4.167    1.250    1.167    4.500 
#    0.000    5.833    0.000    1.500    0.000    0.000 
#    0.000    0.000    0.000    0.000    0.000    0.000 
#
# Total GULP energy -595161.978936 kJ/mol
# GULP energy per Si atom -12399.207894 kJ/mol
# Density = 2.072584 g / cm^3
# Si number density = 20.773125 Si / 1000 Ang^3
#
#
#
# Elastic Constant Matrix: (Units=GPa)
#
#
# Indices 1 2 3 4 5 6 
#
# 1 113.0286 36.7471 27.5534 0.0000 0.0000 0.0000
# 2 36.7471 81.7385 23.5649 0.0000 0.0000 0.0000
# 3 27.5534 23.5649 83.0519 0.0000 0.0000 0.0000
# 4 0.0000 0.0000 0.0000 22.9371 0.0000 0.0000
# 5 0.0000 0.0000 0.0000 0.0000 286.1542 0.0000
# 6 0.0000 0.0000 0.0000 0.0000 0.0000 4.2884
#
#
#
# Elastic Compliance Matrix: (Units=1/GPa)
#
#
# Indices 1 2 3 4 5 6 
#
# 1 0.010783 -0.004156 -0.002398 0.000000 0.000000 0.000000
# 2 -0.004156 0.014926 -0.002856 0.000000 0.000000 0.000000
# 3 -0.002398 -0.002856 0.013647 0.000000 0.000000 0.000000
# 4 0.000000 0.000000 0.000000 0.043597 0.000000 0.000000
# 5 0.000000 0.000000 0.000000 0.000000 0.003495 0.000000
# 6 0.000000 0.000000 0.000000 0.000000 0.000000 0.233188
#
#
# Mechanical properties :
#
#
# Convention : Reuss Voigt Hill
#
# Bulk Modulus (GPa) = 48.69823 50.39441 49.54632
# Shear Modulus (GPa) = 14.48005 75.33949 44.90977
#
# Velocity S-wave (km/s) = 2.64305 6.02881 4.65469
# Velocity P-wave (km/s) = 5.72783 8.53077 7.26575
#
# Compressibility (1/GPa) = 0.02053463
#
# Stress axis : x y z
#
# Youngs Moduli (GPa) = 92.73652 66.99642 73.27793
#
# Poissons Ratio (x) = 0.27847 0.17573
# Poissons Ratio (y) = 0.38545 0.20929
# Poissons Ratio (z) = 0.22239 0.19135
#
# Static dielectric constant tensor:
#      x y z
#    x 3.702780 0.000000 0.000000 
#    y 0.000000 3.829350 0.000000 
#    z 0.000000 0.000000 3.924890 
# 
# 
# High freq. dielectric constant tensor:
#      x y z
#    x 1.805040 0.000000 0.000000 
#    y 0.000000 1.808660 0.000000 
#    z 0.000000 0.000000 1.821370 
# 
# From -- ./inp_files/53024.got.cif
#   From: 2010.06.25/outbox.cif.g09.slc.cpg/sg71_27_cif.got.tgz:53024.got - 2010.06.28 04:59:45.
