data_PCOD8292531
_publ_section_title
;
Structure prediction by ZEFSAII (Michael W. Deem and Ramdas Pophale) SiO2 
 PCOD8292531
Probable space group: I M M M
;
_chemical_formula_sum "Si O2"
_cell_formula_units_Z 96
_cell_length_a 8.739579
_cell_length_b 24.911203
_cell_length_c 23.278904
_cell_angle_alpha 90.000000
_cell_angle_beta 90.000000
_cell_angle_gamma 90.000000
_cell_volume 5068.129957
_symmetry_space_group_name_H-M "I M M M"
_symmetry_group_IT_number 71
_symmetry_cell_setting 'orthorhombic'
loop_
_space_group_symop_operation_xyz
x,y,z
-x,-y,z
x,-y,-z
-x,y,-z
-x,-y,-z
x,y,-z
-x,y,z
x,-y,z
1/2+x,1/2+y,1/2+z
1/2-x,1/2-y,1/2+z
1/2+x,1/2-y,1/2-z
1/2-x,1/2+y,1/2-z
1/2-x,1/2-y,1/2-z
1/2+x,1/2+y,1/2-z
1/2-x,1/2+y,1/2+z
1/2+x,1/2-y,1/2+z
loop_
_atom_site_type_symbol
_atom_site_label
_atom_site_fract_x
_atom_site_fract_y
_atom_site_fract_z
Si Si1 0.320680 0.349022 0.617103
Si Si2 0.823648 0.561957 0.823565
Si Si3 0.323424 0.938035 0.192071
Si Si4 0.177895 0.702550 0.000000
Si Si5 0.819262 0.680457 0.500000
Si Si6 0.176463 0.746201 0.688219
Si Si7 0.674520 0.653618 0.891369
O O1 0.500000 0.344073 0.608115
O O2 0.282777 0.403300 0.650824
O O3 0.241681 0.350934 0.555254
O O4 0.263825 0.297664 0.651470
O O5 0.796378 0.500000 0.838735
O O6 0.776132 0.573389 0.757801
O O7 0.719216 0.595925 0.866326
O O8 0.000000 0.577774 0.832648
O O9 0.500000 0.922372 0.182440
O O10 0.295908 0.000000 0.176739
O O11 0.217307 0.667543 0.944457
O O12 0.271240 0.757567 0.000000
O O13 0.000000 0.716982 0.000000
O O14 0.000000 0.678604 0.500000
O O15 0.250000 0.750000 0.750000
O O16 0.196888 0.803499 0.658891
O O17 0.000000 0.729139 0.693307
O O18 0.500000 0.652110 0.912972
#
# Coordination Sequence:
#
# PCOD8292531 Si02
#       7
#    16  16  16   8   8  16  16
#     4  12  24  38  59  88 120 155 197 243 296 355
#     4   9  19  37  61  88 119 156 198 243 292 348
#     4   9  19  38  63  89 120 159 199 242 296 352
#     4  12  24  40  63  86 113 154 198 242 294 354
#     4  12  24  42  63  84 115 156 200 246 294 352
#     4  11  23  37  56  84 120 155 192 242 297 353
#     4  11  23  38  58  85 118 155 195 241 293 349
#
# _framework density 18.941897999999998
#
# number of rings (size 3 to 8) (size 9 to 14) (size 15 to 20)
#    0.000    1.333    1.667    6.000    0.000    6.000 
#    0.000    2.500    0.000    5.000    0.000    0.000 
#    0.000    0.000    0.000    0.000    0.000    0.000 
#
# Total GULP energy -595482.516534 kJ/mol
# GULP energy per Si atom -12405.885761 kJ/mol
# Density = 1.889878 g / cm^3
# Si number density = 18.941898 Si / 1000 Ang^3
#
#
#
# Elastic Constant Matrix: (Units=GPa)
#
#
# Indices 1 2 3 4 5 6 
#
# 1 127.5753 31.9219 39.4588 0.0000 0.0000 0.0000
# 2 31.9219 75.3285 17.3394 0.0000 0.0000 0.0000
# 3 39.4588 17.3394 73.2143 0.0000 0.0000 0.0000
# 4 0.0000 0.0000 0.0000 8.2390 0.0000 0.0000
# 5 0.0000 0.0000 0.0000 0.0000 34.6755 0.0000
# 6 0.0000 0.0000 0.0000 0.0000 0.0000 34.9130
#
#
#
# Elastic Compliance Matrix: (Units=1/GPa)
#
#
# Indices 1 2 3 4 5 6 
#
# 1 0.010085 -0.003197 -0.004678 0.000000 0.000000 0.000000
# 2 -0.003197 0.015054 -0.001842 0.000000 0.000000 0.000000
# 3 -0.004678 -0.001842 0.016616 0.000000 0.000000 0.000000
# 4 0.000000 0.000000 0.000000 0.121374 0.000000 0.000000
# 5 0.000000 0.000000 0.000000 0.000000 0.028839 0.000000
# 6 0.000000 0.000000 0.000000 0.000000 0.000000 0.028643
#
#
# Mechanical properties :
#
#
# Convention : Reuss Voigt Hill
#
# Bulk Modulus (GPa) = 44.80194 50.39536 47.59865
# Shear Modulus (GPa) = 20.20312 28.05871 24.13092
#
# Velocity S-wave (km/s) = 3.26940 3.85295 3.57311
# Velocity P-wave (km/s) = 6.16081 6.81591 6.49662
#
# Compressibility (1/GPa) = 0.02232046
#
# Stress axis : x y z
#
# Youngs Moduli (GPa) = 99.15236 66.42741 60.18207
#
# Poissons Ratio (x) = 0.21237 0.28156
# Poissons Ratio (y) = 0.31699 0.11087
# Poissons Ratio (z) = 0.46388 0.12237
#
# Static dielectric constant tensor:
#      x y z
#    x 3.570520 0.000000 0.000000 
#    y 0.000000 3.442080 0.000000 
#    z 0.000000 0.000000 3.437100 
# 
# 
# High freq. dielectric constant tensor:
#      x y z
#    x 1.744940 0.000000 0.000000 
#    y 0.000000 1.736110 0.000000 
#    z 0.000000 0.000000 1.740680 
# 
# From -- ./inp_files/57792.got.cif
#   From: 2010.06.25/outbox.cif.g09.slc.cpg/sg71_29_cif.got.tgz:57792.got - 2010.06.28 04:59:45.
