data_PCOD8292562
_publ_section_title
;
Structure prediction by ZEFSAII (Michael W. Deem and Ramdas Pophale) SiO2 
 PCOD8292562
Probable space group: I M M M
;
_chemical_formula_sum "Si O2"
_cell_formula_units_Z 72
_cell_length_a 8.593780
_cell_length_b 16.707309
_cell_length_c 24.263747
_cell_angle_alpha 90.000000
_cell_angle_beta 90.000000
_cell_angle_gamma 90.000000
_cell_volume 3483.763025
_symmetry_space_group_name_H-M "I M M M"
_symmetry_group_IT_number 71
_symmetry_cell_setting 'orthorhombic'
loop_
_space_group_symop_operation_xyz
x,y,z
-x,-y,z
x,-y,-z
-x,y,-z
-x,-y,-z
x,y,-z
-x,y,z
x,-y,z
1/2+x,1/2+y,1/2+z
1/2-x,1/2-y,1/2+z
1/2+x,1/2-y,1/2-z
1/2-x,1/2+y,1/2-z
1/2-x,1/2-y,1/2-z
1/2+x,1/2+y,1/2-z
1/2-x,1/2+y,1/2+z
1/2+x,1/2-y,1/2+z
loop_
_atom_site_type_symbol
_atom_site_label
_atom_site_fract_x
_atom_site_fract_y
_atom_site_fract_z
Si Si1 0.182806 0.500000 0.435327
Si Si2 0.182210 0.866753 0.858847
Si Si3 0.320958 0.306425 0.846898
Si Si4 0.823806 0.407378 0.937452
Si Si5 0.177837 0.588930 0.753348
O O1 0.221531 0.500000 0.500000
O O2 0.255966 0.579305 0.408744
O O3 0.000000 0.500000 0.423731
O O4 0.266448 0.782023 0.860679
O O5 0.215966 0.908646 0.800690
O O6 0.000000 0.854113 0.866527
O O7 0.500000 0.306246 0.829708
O O8 0.297916 0.358972 0.901253
O O9 0.225113 0.343153 0.796336
O O10 0.780877 0.500000 0.933199
O O11 0.000000 0.392580 0.916161
O O12 0.808060 0.377457 0.000000
O O13 0.196755 0.500000 0.779782
O O14 0.000000 0.604705 0.735781
#
# Coordination Sequence:
#
# PCOD8292562 Si02
#       5
#     8  16  16  16  16
#     4  11  25  47  73  99 129 167 212 263 324 387
#     4  12  25  43  67  93 126 164 210 263 317 378
#     4  12  25  39  60  92 130 167 212 262 316 379
#     4   9  19  38  62  87 120 162 207 256 313 376
#     4  11  23  41  66  93 129 169 209 258 319 383
#
# _framework density 20.667307000000001
#
# number of rings (size 3 to 8) (size 9 to 14) (size 15 to 20)
#    0.000    1.000    1.111    7.000    0.000    6.667 
#    0.000    1.111    0.000    0.000    0.000    0.000 
#    0.000    0.000    0.000    0.000    0.000    0.000 
#
# Total GULP energy -446602.297781 kJ/mol
# GULP energy per Si atom -12405.619383 kJ/mol
# Density = 2.062027 g / cm^3
# Si number density = 20.667307 Si / 1000 Ang^3
#
#
#
# Elastic Constant Matrix: (Units=GPa)
#
#
# Indices 1 2 3 4 5 6 
#
# 1 82.9363 30.1420 17.1304 0.0000 0.0000 0.0000
# 2 30.1420 111.4262 44.8253 0.0000 0.0000 0.0000
# 3 17.1304 44.8253 96.5443 0.0000 0.0000 0.0000
# 4 0.0000 0.0000 0.0000 48.1668 0.0000 0.0000
# 5 0.0000 0.0000 0.0000 0.0000 34.9873 0.0000
# 6 0.0000 0.0000 0.0000 0.0000 0.0000 35.4417
#
#
#
# Elastic Compliance Matrix: (Units=1/GPa)
#
#
# Indices 1 2 3 4 5 6 
#
# 1 0.013429 -0.003288 -0.000856 0.000000 0.000000 0.000000
# 2 -0.003288 0.011841 -0.004914 0.000000 0.000000 0.000000
# 3 -0.000856 -0.004914 0.012792 0.000000 0.000000 0.000000
# 4 0.000000 0.000000 0.000000 0.020761 0.000000 0.000000
# 5 0.000000 0.000000 0.000000 0.000000 0.028582 0.000000
# 6 0.000000 0.000000 0.000000 0.000000 0.000000 0.028215
#
#
# Mechanical properties :
#
#
# Convention : Reuss Voigt Hill
#
# Bulk Modulus (GPa) = 50.13923 52.78912 51.46418
# Shear Modulus (GPa) = 35.61610 36.97311 36.29460
#
# Velocity S-wave (km/s) = 4.15578 4.23421 4.19517
# Velocity P-wave (km/s) = 6.88042 7.03580 6.95854
#
# Compressibility (1/GPa) = 0.01994446
#
# Stress axis : x y z
#
# Youngs Moduli (GPa) = 74.46358 84.45192 78.17678
#
# Poissons Ratio (x) = 0.27771 0.06692
# Poissons Ratio (y) = 0.24487 0.38418
# Poissons Ratio (z) = 0.06374 0.41502
#
# Static dielectric constant tensor:
#      x y z
#    x 3.806510 0.000000 0.000000 
#    y 0.000000 3.818420 0.000000 
#    z 0.000000 0.000000 3.745040 
# 
# 
# High freq. dielectric constant tensor:
#      x y z
#    x 1.814940 0.000000 0.000000 
#    y 0.000000 1.820780 0.000000 
#    z 0.000000 0.000000 1.810340 
# 
# From -- ./inp_files/39956.got.cif
#   From: 2010.06.25/outbox.cif.g09.slc.cpg/sg71_20_cif.got.tgz:39956.got - 2010.06.28 04:59:45.
