data_PCOD8292279
_publ_section_title
;
Structure prediction by ZEFSAII (Michael W. Deem and Ramdas Pophale) SiO2 
 PCOD8292279
Probable space group: I M M M
;
_chemical_formula_sum "Si O2"
_cell_formula_units_Z 96
_cell_length_a 28.111645
_cell_length_b 14.220954
_cell_length_c 14.235374
_cell_angle_alpha 90.000000
_cell_angle_beta 90.000000
_cell_angle_gamma 90.000000
_cell_volume 5690.938248
_symmetry_space_group_name_H-M "I M M M"
_symmetry_group_IT_number 71
_symmetry_cell_setting 'orthorhombic'
loop_
_space_group_symop_operation_xyz
x,y,z
-x,-y,z
x,-y,-z
-x,y,-z
-x,-y,-z
x,y,-z
-x,y,z
x,-y,z
1/2+x,1/2+y,1/2+z
1/2-x,1/2-y,1/2+z
1/2+x,1/2-y,1/2-z
1/2-x,1/2+y,1/2-z
1/2-x,1/2-y,1/2-z
1/2+x,1/2+y,1/2-z
1/2-x,1/2+y,1/2+z
1/2+x,1/2-y,1/2+z
loop_
_atom_site_type_symbol
_atom_site_label
_atom_site_fract_x
_atom_site_fract_y
_atom_site_fract_z
Si Si1 0.799248 0.892102 0.108080
Si Si2 0.646410 0.754024 0.727545
Si Si3 0.055274 0.000000 0.101773
Si Si4 0.055543 0.154834 0.750419
Si Si5 0.201627 0.391812 0.890339
Si Si6 0.056116 0.000000 0.396130
Si Si7 0.782812 0.747475 0.393158
O O1 0.837135 0.838554 0.171888
O O2 0.746970 0.847949 0.121800
O O3 0.797535 0.000000 0.140080
O O4 0.815012 0.881129 0.000000
O O5 0.589461 0.746542 0.744981
O O6 0.657786 0.848012 0.668270
O O7 0.671207 0.757077 0.828693
O O8 0.068207 0.093542 0.158201
O O9 0.000000 0.000000 0.084273
O O10 0.081817 0.000000 0.000000
O O11 0.070798 0.094146 0.659254
O O12 0.000000 0.184925 0.747292
O O13 0.208487 0.500000 0.862425
O O14 0.249680 0.335986 0.863894
O O15 0.189837 0.379136 0.000000
O O16 0.079746 0.000000 0.500000
O O17 0.000000 0.000000 0.403937
O O18 0.800330 0.758280 0.500000
#
# Coordination Sequence:
#
# PCOD8292279 Si02
#       7
#    16  16   8  16  16   8  16
#     4   9  18  31  48  71  98 122 146 185 236 289
#     4  11  20  29  49  72  93 127 162 196 234 283
#     4   8  15  29  46  61  85 122 151 179 226 279
#     4   9  19  32  44  67  97 123 160 200 233 276
#     4   9  18  34  52  70  95 126 160 199 240 285
#     4   8  15  31  50  63  87 130 167 195 234 281
#     4   9  19  33  46  68  98 123 154 196 235 278
#
# _framework density 16.868924
#
# number of rings (size 3 to 8) (size 9 to 14) (size 15 to 20)
#    0.000    2.833    0.000    4.500    2.333    4.667 
#    0.000    0.000    0.000    0.500    0.000    1.167 
#    0.000    0.000    0.000    9.833    0.000    0.000 
#
# Total GULP energy -595003.678423 kJ/mol
# GULP energy per Si atom -12395.909967 kJ/mol
# Density = 1.683053 g / cm^3
# Si number density = 16.868924 Si / 1000 Ang^3
#
#
#
# Elastic Constant Matrix: (Units=GPa)
#
#
# Indices 1 2 3 4 5 6 
#
# 1 73.3601 17.8316 25.9727 0.0000 0.0000 0.0000
# 2 17.8316 87.5051 20.2831 0.0000 0.0000 0.0000
# 3 25.9727 20.2831 89.1426 0.0000 0.0000 0.0000
# 4 0.0000 0.0000 0.0000 17.5657 0.0000 0.0000
# 5 0.0000 0.0000 0.0000 0.0000 10.6887 0.0000
# 6 0.0000 0.0000 0.0000 0.0000 0.0000 17.0065
#
#
#
# Elastic Compliance Matrix: (Units=1/GPa)
#
#
# Indices 1 2 3 4 5 6 
#
# 1 0.015606 -0.002245 -0.004036 0.000000 0.000000 0.000000
# 2 -0.002245 0.012387 -0.002164 0.000000 0.000000 0.000000
# 3 -0.004036 -0.002164 0.012886 0.000000 0.000000 0.000000
# 4 0.000000 0.000000 0.000000 0.056929 0.000000 0.000000
# 5 0.000000 0.000000 0.000000 0.000000 0.093557 0.000000
# 6 0.000000 0.000000 0.000000 0.000000 0.000000 0.058801
#
#
# Mechanical properties :
#
#
# Convention : Reuss Voigt Hill
#
# Bulk Modulus (GPa) = 41.68609 42.02030 41.85320
# Shear Modulus (GPa) = 18.17829 21.44688 19.81258
#
# Velocity S-wave (km/s) = 3.28627 3.56952 3.43082
# Velocity P-wave (km/s) = 6.25818 6.47708 6.36857
#
# Compressibility (1/GPa) = 0.02398882
#
# Stress axis : x y z
#
# Youngs Moduli (GPa) = 64.07789 80.72973 77.60063
#
# Poissons Ratio (x) = 0.18120 0.31322
# Poissons Ratio (y) = 0.14383 0.16797
# Poissons Ratio (z) = 0.25864 0.17474
#
# Static dielectric constant tensor:
#      x y z
#    x 2.876120 0.000000 0.000000 
#    y 0.000000 3.090380 0.000000 
#    z 0.000000 0.000000 4.072160 
# 
# 
# High freq. dielectric constant tensor:
#      x y z
#    x 1.622270 0.000000 0.000000 
#    y 0.000000 1.624760 0.000000 
#    z 0.000000 0.000000 1.666420 
# 
# From -- ./inp_files/40295.got.cif
#   From: 2010.06.25/outbox.cif.g09.slc.cpg/sg71_21_cif.got.tgz:40295.got - 2010.06.28 04:59:45.
