data_PCOD8292072
_publ_section_title
;
Structure prediction by ZEFSAII (Michael W. Deem and Ramdas Pophale) SiO2 
 PCOD8292072
Probable space group: I M M M
;
_chemical_formula_sum "Si O2"
_cell_formula_units_Z 104
_cell_length_a 21.565727
_cell_length_b 26.232051
_cell_length_c 9.319998
_cell_angle_alpha 90.000000
_cell_angle_beta 90.000000
_cell_angle_gamma 90.000000
_cell_volume 5272.446363
_symmetry_space_group_name_H-M "I M M M"
_symmetry_group_IT_number 71
_symmetry_cell_setting 'orthorhombic'
loop_
_space_group_symop_operation_xyz
x,y,z
-x,-y,z
x,-y,-z
-x,y,-z
-x,-y,-z
x,y,-z
-x,y,z
x,-y,z
1/2+x,1/2+y,1/2+z
1/2-x,1/2-y,1/2+z
1/2+x,1/2-y,1/2-z
1/2-x,1/2+y,1/2-z
1/2-x,1/2-y,1/2-z
1/2+x,1/2+y,1/2-z
1/2-x,1/2+y,1/2+z
1/2+x,1/2-y,1/2+z
loop_
_atom_site_type_symbol
_atom_site_label
_atom_site_fract_x
_atom_site_fract_y
_atom_site_fract_z
Si Si1 0.270089 0.888727 0.336297
Si Si2 0.609479 0.059436 0.342818
Si Si3 0.071817 0.768911 0.330847
Si Si4 0.071549 0.113660 0.659046
Si Si5 0.666826 0.441955 0.331156
Si Si6 0.691098 0.774139 0.668818
Si Si7 0.000000 0.561069 0.343008
O O1 0.248301 0.896227 0.500000
O O2 0.321470 0.930010 0.289311
O O3 0.212806 0.899848 0.233902
O O4 0.300210 0.834102 0.312037
O O5 0.600001 0.084453 0.500000
O O6 0.560128 0.083802 0.235126
O O7 0.597149 0.000000 0.351735
O O8 0.082504 0.758896 0.500000
O O9 0.082491 0.828083 0.293582
O O10 0.124303 0.739253 0.239403
O O11 0.000000 0.753500 0.290554
O O12 0.100168 0.105445 0.500000
O O13 0.100104 0.073853 0.771212
O O14 0.000000 0.100588 0.655496
O O15 0.667134 0.436289 0.500000
O O16 0.682935 0.500000 0.285167
O O17 0.691250 0.758504 0.500000
O O18 0.750000 0.750000 0.750000
O O19 0.000000 0.500000 0.348458
O O20 0.000000 0.584949 0.500000
#
# Coordination Sequence:
#
# PCOD8292072 Si02
#       7
#    16  16  16  16  16  16   8
#     4  10  22  39  57  79 106 143 189 232 274 325
#     4   9  17  32  54  75  97 132 177 219 260 308
#     4   9  19  38  62  87 117 152 191 238 291 346
#     4   9  19  37  61  86 111 146 192 233 271 328
#     4  11  24  38  54  82 118 151 184 230 287 341
#     4  11  23  38  58  85 115 148 190 239 289 343
#     4   9  17  29  47  73 103 133 165 205 255 309
#
# _framework density 19.725190000000001
#
# number of rings (size 3 to 8) (size 9 to 14) (size 15 to 20)
#    0.000    2.231    0.000    3.462    0.000    9.846 
#    1.385    4.615    0.000    0.000    0.000    0.000 
#    0.000    0.000    0.000    0.000    0.000    0.000 
#
# Total GULP energy -644528.002099 kJ/mol
# GULP energy per Si atom -12394.769271 kJ/mol
# Density = 1.968029 g / cm^3
# Si number density = 19.725190 Si / 1000 Ang^3
#
#
#
# Elastic Constant Matrix: (Units=GPa)
#
#
# Indices 1 2 3 4 5 6 
#
# 1 121.7604 41.9560 69.0158 0.0000 0.0000 0.0000
# 2 41.9560 60.9102 50.6895 0.0000 0.0000 0.0000
# 3 69.0158 50.6895 107.1066 0.0000 0.0000 0.0000
# 4 0.0000 0.0000 0.0000 28.6965 0.0000 0.0000
# 5 0.0000 0.0000 0.0000 0.0000 28.7777 0.0000
# 6 0.0000 0.0000 0.0000 0.0000 0.0000 29.3617
#
#
#
# Elastic Compliance Matrix: (Units=1/GPa)
#
#
# Indices 1 2 3 4 5 6 
#
# 1 0.013342 -0.003358 -0.007008 0.000000 0.000000 0.000000
# 2 -0.003358 0.027930 -0.011054 0.000000 0.000000 0.000000
# 3 -0.007008 -0.011054 0.019084 0.000000 0.000000 0.000000
# 4 0.000000 0.000000 0.000000 0.034848 0.000000 0.000000
# 5 0.000000 0.000000 0.000000 0.000000 0.034749 0.000000
# 6 0.000000 0.000000 0.000000 0.000000 0.000000 0.034058
#
#
# Mechanical properties :
#
#
# Convention : Reuss Voigt Hill
#
# Bulk Modulus (GPa) = 57.09362 68.12221 62.60791
# Shear Modulus (GPa) = 23.50830 25.90822 24.70826
#
# Velocity S-wave (km/s) = 3.45598 3.62810 3.54308
# Velocity P-wave (km/s) = 6.70316 7.22229 6.96756
#
# Compressibility (1/GPa) = 0.01751509
#
# Stress axis : x y z
#
# Youngs Moduli (GPa) = 74.94966 35.80323 52.40060
#
# Poissons Ratio (x) = 0.12024 0.36722
# Poissons Ratio (y) = 0.25171 0.57926
# Poissons Ratio (z) = 0.52524 0.39578
#
# Static dielectric constant tensor:
#      x y z
#    x 3.741310 0.000000 0.000000 
#    y 0.000000 3.535050 0.000000 
#    z 0.000000 0.000000 3.744580 
# 
# 
# High freq. dielectric constant tensor:
#      x y z
#    x 1.782060 0.000000 0.000000 
#    y 0.000000 1.752390 0.000000 
#    z 0.000000 0.000000 1.767890 
# 
# From -- ./inp_files/11152.got.cif
#   From: 2010.06.25/outbox.cif.g09.slc.cpg/sg71_6_cif.got.tgz:11152.got - 2010.06.28 04:59:45.
