data_PCOD8292506
_publ_section_title
;
Structure prediction by ZEFSAII (Michael W. Deem and Ramdas Pophale) SiO2 
 PCOD8292506
Probable space group: I M M M
;
_chemical_formula_sum "Si O2"
_cell_formula_units_Z 56
_cell_length_a 10.258255
_cell_length_b 33.509344
_cell_length_c 8.523265
_cell_angle_alpha 90.000000
_cell_angle_beta 90.000000
_cell_angle_gamma 90.000000
_cell_volume 2929.850146
_symmetry_space_group_name_H-M "I M M M"
_symmetry_group_IT_number 71
_symmetry_cell_setting 'orthorhombic'
loop_
_space_group_symop_operation_xyz
x,y,z
-x,-y,z
x,-y,-z
-x,y,-z
-x,-y,-z
x,y,-z
-x,y,z
x,-y,z
1/2+x,1/2+y,1/2+z
1/2-x,1/2-y,1/2+z
1/2+x,1/2-y,1/2-z
1/2-x,1/2+y,1/2-z
1/2-x,1/2-y,1/2-z
1/2+x,1/2+y,1/2-z
1/2-x,1/2+y,1/2+z
1/2+x,1/2-y,1/2+z
loop_
_atom_site_type_symbol
_atom_site_label
_atom_site_fract_x
_atom_site_fract_y
_atom_site_fract_z
Si Si1 0.153621 0.000000 0.679607
Si Si2 0.854189 0.918895 0.184402
Si Si3 0.248507 0.665114 0.314915
Si Si4 0.500000 0.206263 0.318270
Si Si5 0.000000 0.207969 0.684204
O O1 0.213155 0.959629 0.754103
O O2 0.191235 0.000000 0.500000
O O3 0.000000 0.000000 0.713094
O O4 0.768457 0.880980 0.234502
O O5 0.000000 0.913789 0.256100
O O6 0.864639 0.921508 0.000000
O O7 0.223406 0.669784 0.500000
O O8 0.374022 0.690460 0.268623
O O9 0.126231 0.680053 0.217221
O O10 0.500000 0.219151 0.500000
O O11 0.500000 0.244670 0.207182
O O12 0.000000 0.197884 0.500000
#
# Coordination Sequence:
#
# PCOD8292506 Si02
#       5
#     8  16  16   8   8
#     4   9  17  27  45  78 115 146 179 226 276 326
#     4   9  17  32  54  80 110 146 185 227 277 334
#     4  11  22  40  62  86 115 151 193 238 285 340
#     4  12  26  42  58  83 116 153 192 236 289 344
#     4  12  24  40  62  87 114 149 190 240 289 338
#
# _framework density 19.113606000000001
#
# number of rings (size 3 to 8) (size 9 to 14) (size 15 to 20)
#    0.000    1.571    1.429    4.714    0.000    4.000 
#    0.000    0.000    0.000    0.857    0.000    6.000 
#    0.000    0.000    0.000    0.000    0.000    0.000 
#
# Total GULP energy -347245.663249 kJ/mol
# GULP energy per Si atom -12401.630830 kJ/mol
# Density = 1.907010 g / cm^3
# Si number density = 19.113606 Si / 1000 Ang^3
#
#
#
# Elastic Constant Matrix: (Units=GPa)
#
#
# Indices 1 2 3 4 5 6 
#
# 1 93.0663 39.4345 9.9446 0.0054 -0.0023 -0.0035
# 2 39.4345 155.6215 23.8996 0.0082 -0.0033 -0.0037
# 3 9.9446 23.8996 43.7942 0.0099 -0.0096 -0.0036
# 4 0.0054 0.0082 0.0099 33.1317 -0.0055 -0.0021
# 5 -0.0023 -0.0033 -0.0096 -0.0055 28.0540 0.0048
# 6 -0.0035 -0.0037 -0.0036 -0.0021 0.0048 0.3671
#
#
#
# Elastic Compliance Matrix: (Units=1/GPa)
#
#
# Indices 1 2 3 4 5 6 
#
# 1 0.012092 -0.002884 -0.001172 -0.000001 0.000000 0.000076
# 2 -0.002884 0.007702 -0.003548 0.000000 -0.000001 0.000014
# 3 -0.001172 -0.003548 0.025036 -0.000006 0.000008 0.000198
# 4 -0.000001 0.000000 -0.000006 0.030183 0.000006 0.000169
# 5 0.000000 -0.000001 0.000008 0.000006 0.035646 -0.000467
# 6 0.000076 0.000014 0.000198 0.000169 -0.000467 2.724093
#
#
# Mechanical properties :
#
#
# Convention : Reuss Voigt Hill
#
# Bulk Modulus (GPa) = 33.75852 48.78216 41.27034
# Shear Modulus (GPa) = 1.74835 26.92411 14.33623
#
# Velocity S-wave (km/s) = 0.95745 3.75725 2.74168
# Velocity P-wave (km/s) = 4.35002 6.66335 5.62685
#
# Compressibility (1/GPa) = 0.02962215
#
# Stress axis : x y z
#
# Youngs Moduli (GPa) = 82.69675 129.84319 39.94175
#
# Poissons Ratio (x) = 0.37450 0.04681
# Poissons Ratio (y) = 0.23852 0.14171
# Poissons Ratio (z) = 0.09691 0.46069
#
# Static dielectric constant tensor:
#      x y z
#    x 3.172410 0.000000 0.000000 
#    y 0.000000 3.924060 -0.000010 
#    z 0.000000 -0.000010 3.446590 
# 
# 
# High freq. dielectric constant tensor:
#      x y z
#    x 1.706660 0.000000 0.000000 
#    y 0.000000 1.764470 0.000000 
#    z 0.000000 0.000000 1.748540 
# 
# From -- ./inp_files/3604.got.cif
#   From: 2010.06.25/outbox.cif.g09.slc.cpg/sg71_2_cif.got.tgz:3604.got - 2010.06.28 04:59:45.
