data_PCOD8292783
_publ_section_title
;
Structure prediction by ZEFSAII (Michael W. Deem and Ramdas Pophale) SiO2 
 PCOD8292783
Probable space group: I M M M
;
_chemical_formula_sum "Si O2"
_cell_formula_units_Z 104
_cell_length_a 26.565733
_cell_length_b 23.993701
_cell_length_c 9.379129
_cell_angle_alpha 90.000000
_cell_angle_beta 90.000000
_cell_angle_gamma 90.000000
_cell_volume 5978.353002
_symmetry_space_group_name_H-M "I M M M"
_symmetry_group_IT_number 71
_symmetry_cell_setting 'orthorhombic'
loop_
_space_group_symop_operation_xyz
x,y,z
-x,-y,z
x,-y,-z
-x,y,-z
-x,-y,-z
x,y,-z
-x,y,z
x,-y,z
1/2+x,1/2+y,1/2+z
1/2-x,1/2-y,1/2+z
1/2+x,1/2-y,1/2-z
1/2-x,1/2+y,1/2-z
1/2-x,1/2-y,1/2-z
1/2+x,1/2+y,1/2-z
1/2-x,1/2+y,1/2+z
1/2+x,1/2-y,1/2+z
loop_
_atom_site_type_symbol
_atom_site_label
_atom_site_fract_x
_atom_site_fract_y
_atom_site_fract_z
Si Si1 0.622986 0.936067 0.166448
Si Si2 0.404869 0.564468 0.665916
Si Si3 0.144913 0.269332 0.833425
Si Si4 0.210151 0.354043 0.332973
Si Si5 0.500000 0.566292 0.160195
Si Si6 0.057560 0.350422 0.833793
Si Si7 0.822905 0.148722 0.831729
O O1 0.677878 0.909739 0.199353
O O2 0.579423 0.903324 0.249688
O O3 0.623898 0.000000 0.218019
O O4 0.610234 0.931644 0.000000
O O5 0.416506 0.575627 0.500000
O O6 0.394581 0.500000 0.696003
O O7 0.451427 0.588119 0.755897
O O8 0.356042 0.597042 0.721735
O O9 0.187053 0.301996 0.747843
O O10 0.089559 0.294457 0.798597
O O11 0.149620 0.205550 0.781560
O O12 0.157042 0.275210 0.000000
O O13 0.209977 0.340284 0.500000
O O14 0.266650 0.360259 0.271497
O O15 0.500000 0.500000 0.159852
O O16 0.500000 0.590313 0.000000
O O17 0.000000 0.339580 0.786622
O O18 0.061051 0.365093 0.000000
O O19 0.819552 0.148024 0.000000
#
# Coordination Sequence:
#
# PCOD8292783 Si02
#       7
#    16  16  16  16   8  16  16
#     4   9  18  31  47  69  95 124 156 187 227 279
#     4   9  17  30  48  70  94 120 153 191 230 273
#     4   9  17  31  48  67  92 120 156 193 230 276
#     4   9  17  30  48  68  94 124 154 188 230 275
#     4   9  17  31  49  65  87 121 153 183 224 271
#     4   9  18  32  48  66  90 121 156 194 236 276
#     4   9  17  29  47  73  96 119 154 193 230 273
#
# _framework density 17.396096
#
# number of rings (size 3 to 8) (size 9 to 14) (size 15 to 20)
#    0.000    3.000    0.000    0.692    0.000    2.462 
#    1.385    6.154    0.000    0.000    0.000    2.154 
#    0.000    0.000    0.000    0.000    0.000    0.000 
#
# Total GULP energy -644653.421749 kJ/mol
# GULP energy per Si atom -12397.181187 kJ/mol
# Density = 1.735650 g / cm^3
# Si number density = 17.396096 Si / 1000 Ang^3
#
#
#
# Elastic Constant Matrix: (Units=GPa)
#
#
# Indices 1 2 3 4 5 6 
#
# 1 175.8974 78.3014 46.6039 0.0000 0.0000 0.0000
# 2 78.3014 97.8553 32.8001 0.0000 0.0000 0.0000
# 3 46.6039 32.8001 42.8980 0.0000 0.0000 0.0000
# 4 0.0000 0.0000 0.0000 18.8594 0.0000 0.0000
# 5 0.0000 0.0000 0.0000 0.0000 19.5487 0.0000
# 6 0.0000 0.0000 0.0000 0.0000 0.0000 19.6059
#
#
#
# Elastic Compliance Matrix: (Units=1/GPa)
#
#
# Indices 1 2 3 4 5 6 
#
# 1 0.009975 -0.005848 -0.006365 0.000000 0.000000 0.000000
# 2 -0.005848 0.017169 -0.006774 0.000000 0.000000 0.000000
# 3 -0.006365 -0.006774 0.035406 0.000000 0.000000 0.000000
# 4 0.000000 0.000000 0.000000 0.053024 0.000000 0.000000
# 5 0.000000 0.000000 0.000000 0.000000 0.051154 0.000000
# 6 0.000000 0.000000 0.000000 0.000000 0.000000 0.051005
#
#
# Mechanical properties :
#
#
# Convention : Reuss Voigt Hill
#
# Bulk Modulus (GPa) = 40.69215 70.22907 55.46061
# Shear Modulus (GPa) = 18.94654 22.19916 20.57285
#
# Velocity S-wave (km/s) = 3.30377 3.57613 3.44264
# Velocity P-wave (km/s) = 6.16405 7.58352 6.91033
#
# Compressibility (1/GPa) = 0.02457476
#
# Stress axis : x y z
#
# Youngs Moduli (GPa) = 100.25182 58.24300 28.24391
#
# Poissons Ratio (x) = 0.34061 0.17977
# Poissons Ratio (y) = 0.58629 0.19134
# Poissons Ratio (z) = 0.63811 0.39457
#
# Static dielectric constant tensor:
#      x y z
#    x 3.516790 0.000000 0.000000 
#    y 0.000000 3.261920 0.000000 
#    z 0.000000 0.000000 3.106240 
# 
# 
# High freq. dielectric constant tensor:
#      x y z
#    x 1.679210 0.000000 0.000000 
#    y 0.000000 1.663260 0.000000 
#    z 0.000000 0.000000 1.652470 
# 
# From -- ./inp_files/15258.got.cif
#   From: 2010.06.25/outbox.cif.g09.slc.cpg/sg71_8_cif.got.tgz:15258.got - 2010.06.28 04:59:45.
