data_PCOD8292486
_publ_section_title
;
Structure prediction by ZEFSAII (Michael W. Deem and Ramdas Pophale) SiO2 
 PCOD8292486
Probable space group: I M M M
;
_chemical_formula_sum "Si O2"
_cell_formula_units_Z 72
_cell_length_a 10.774504
_cell_length_b 27.348405
_cell_length_c 12.957600
_cell_angle_alpha 90.000000
_cell_angle_beta 90.000000
_cell_angle_gamma 90.000000
_cell_volume 3818.157671
_symmetry_space_group_name_H-M "I M M M"
_symmetry_group_IT_number 71
_symmetry_cell_setting 'orthorhombic'
loop_
_space_group_symop_operation_xyz
x,y,z
-x,-y,z
x,-y,-z
-x,y,-z
-x,-y,-z
x,y,-z
-x,y,z
x,-y,z
1/2+x,1/2+y,1/2+z
1/2-x,1/2-y,1/2+z
1/2+x,1/2-y,1/2-z
1/2-x,1/2+y,1/2-z
1/2-x,1/2-y,1/2-z
1/2+x,1/2+y,1/2-z
1/2-x,1/2+y,1/2+z
1/2+x,1/2-y,1/2+z
loop_
_atom_site_type_symbol
_atom_site_label
_atom_site_fract_x
_atom_site_fract_y
_atom_site_fract_z
Si Si1 0.275324 0.888137 0.798226
Si Si2 0.141748 0.286344 0.218276
Si Si3 0.639721 0.756033 0.500000
Si Si4 0.500000 0.057243 0.114557
Si Si5 0.853398 0.944487 0.616516
Si Si6 0.353302 0.352472 0.500000
O O1 0.343677 0.837765 0.772735
O O2 0.378716 0.927757 0.823229
O O3 0.201018 0.906541 0.698684
O O4 0.188049 0.881175 0.897343
O O5 0.250000 0.250000 0.250000
O O6 0.166416 0.290945 0.096389
O O7 0.000000 0.266888 0.240695
O O8 0.500000 0.737748 0.500000
O O9 0.707900 0.702609 0.500000
O O10 0.500000 0.000000 0.103784
O O11 0.500000 0.081504 0.000000
O O12 0.808213 0.931323 0.500000
O O13 0.000000 0.939953 0.622061
O O14 0.812525 0.000000 0.643503
O O15 0.500000 0.352822 0.500000
#
# Coordination Sequence:
#
# PCOD8292486 Si02
#       6
#    16  16   8   8  16   8
#     4  12  22  38  63  91 120 161 209 253 308 378
#     4  11  23  39  62  87 121 163 205 253 305 372
#     4   9  20  38  54  80 121 163 194 241 312 363
#     4  11  24  42  61  87 125 165 206 261 320 367
#     4   9  20  40  63  87 120 160 203 256 312 365
#     4  11  22  37  61  90 125 161 199 252 312 373
#
# _framework density 18.857261000000001
#
# number of rings (size 3 to 8) (size 9 to 14) (size 15 to 20)
#    0.000    1.444    4.444    2.000    1.556    0.889 
#    0.000    2.222    0.000    4.667    0.000    0.000 
#    0.000    0.000    0.000    0.000    0.000    0.000 
#
# Total GULP energy -446165.325140 kJ/mol
# GULP energy per Si atom -12393.481254 kJ/mol
# Density = 1.881434 g / cm^3
# Si number density = 18.857261 Si / 1000 Ang^3
#
#
#
# Elastic Constant Matrix: (Units=GPa)
#
#
# Indices 1 2 3 4 5 6 
#
# 1 94.0979 35.1214 50.7642 0.0002 0.0000 0.0000
# 2 35.1214 74.0039 40.6618 0.0003 -0.0002 -0.0001
# 3 50.7642 40.6618 139.2674 0.0023 -0.0012 -0.0007
# 4 0.0002 0.0003 0.0023 37.8327 -0.0004 -0.0002
# 5 0.0000 -0.0002 -0.0012 -0.0004 30.9892 0.0002
# 6 0.0000 -0.0001 -0.0007 -0.0002 0.0002 28.0327
#
#
#
# Elastic Compliance Matrix: (Units=1/GPa)
#
#
# Indices 1 2 3 4 5 6 
#
# 1 0.014501 -0.004738 -0.003902 0.000000 0.000000 0.000000
# 2 -0.004738 0.017643 -0.003424 0.000000 0.000000 0.000000
# 3 -0.003902 -0.003424 0.009603 -0.000001 0.000000 0.000000
# 4 0.000000 0.000000 -0.000001 0.026432 0.000000 0.000000
# 5 0.000000 0.000000 0.000000 0.000000 0.032269 0.000000
# 6 0.000000 0.000000 0.000000 0.000000 0.000000 0.035673
#
#
# Mechanical properties :
#
#
# Convention : Reuss Voigt Hill
#
# Bulk Modulus (GPa) = 56.76158 62.27376 59.51767
# Shear Modulus (GPa) = 30.09848 31.42573 30.76210
#
# Velocity S-wave (km/s) = 3.99948 4.08671 4.04333
# Velocity P-wave (km/s) = 7.17592 7.44068 7.30950
#
# Compressibility (1/GPa) = 0.01761755
#
# Stress axis : x y z
#
# Youngs Moduli (GPa) = 68.96155 56.68062 104.13790
#
# Poissons Ratio (x) = 0.26854 0.40639
# Poissons Ratio (y) = 0.32672 0.35659
# Poissons Ratio (z) = 0.26912 0.19409
#
# Static dielectric constant tensor:
#      x y z
#    x 3.382600 0.000000 0.000000 
#    y 0.000000 4.069860 -0.000060 
#    z 0.000000 -0.000060 3.334450 
# 
# 
# High freq. dielectric constant tensor:
#      x y z
#    x 1.727380 0.000000 0.000000 
#    y 0.000000 1.726220 0.000000 
#    z 0.000000 0.000000 1.749530 
# 
# From -- ./inp_files/31516.got.cif
#   From: 2010.06.25/outbox.cif.g09.slc.cpg/sg71_16_cif.got.tgz:31516.got - 2010.06.28 04:59:45.
