data_PCOD8292875
_publ_section_title
;
Structure prediction by ZEFSAII (Michael W. Deem and Ramdas Pophale) SiO2 
 PCOD8292875
Probable space group: I B A M
;
_chemical_formula_sum "Si O2"
_cell_formula_units_Z 128
_cell_length_a 21.790150
_cell_length_b 20.063735
_cell_length_c 18.138526
_cell_angle_alpha 90.000000
_cell_angle_beta 90.000000
_cell_angle_gamma 90.000000
_cell_volume 7930.014744
_symmetry_space_group_name_H-M "I B A M"
_symmetry_group_IT_number 72
_symmetry_cell_setting 'orthorhombic'
loop_
_space_group_symop_operation_xyz
x,y,z
-x,-y,z
x,-y,1/2-z
-x,y,1/2-z
-x,-y,-z
x,y,-z
-x,y,1/2+z
x,-y,1/2+z
1/2+x,1/2+y,1/2+z
1/2-x,1/2-y,1/2+z
1/2+x,1/2-y,-z
1/2-x,1/2+y,-z
1/2-x,1/2-y,1/2-z
1/2+x,1/2+y,1/2-z
1/2-x,1/2+y,z
1/2+x,1/2-y,z
loop_
_atom_site_type_symbol
_atom_site_label
_atom_site_fract_x
_atom_site_fract_y
_atom_site_fract_z
Si Si1 0.641925 0.878337 0.323961
Si Si2 0.239915 0.635995 0.080967
Si Si3 0.070014 0.489803 0.914825
Si Si4 0.435287 0.213299 0.217696
Si Si5 0.260007 0.425555 0.732652
Si Si6 0.601346 0.861791 0.082162
Si Si7 0.217443 0.265608 0.862483
Si Si8 0.672787 0.302954 0.718074
O O1 0.605366 0.935813 0.365866
O O2 0.594571 0.840493 0.271854
O O3 0.696485 0.907723 0.273291
O O4 0.672004 0.826819 0.384475
O O5 0.253867 0.582453 0.144224
O O6 0.170933 0.663675 0.090942
O O7 0.284860 0.700947 0.084992
O O8 0.248778 0.602879 0.000000
O O9 0.104218 0.559354 0.902318
O O10 0.000000 0.500000 0.888138
O O11 0.071601 0.466640 0.000000
O O12 0.500000 0.235481 0.250000
O O13 0.442606 0.177432 0.138340
O O14 0.398011 0.282614 0.206157
O O15 0.280045 0.500000 0.750000
O O16 0.316953 0.379567 0.758508
O O17 0.575318 0.848531 0.000000
O O18 0.287946 0.290535 0.856437
O O19 0.196685 0.247158 0.780337
#
# Coordination Sequence:
#
# PCOD8292875 Si02
#       8
#    16  16  16  16  16  16  16  16
#     4  10  19  30  47  70  95 121 163 200 231 276
#     4  10  17  28  48  71  96 124 156 193 241 295
#     4  10  21  34  43  58  93 134 161 191 231 276
#     4  11  19  30  49  70  89 120 160 199 236 278
#     4  10  18  31  51  70  95 125 157 198 241 286
#     4  10  19  31  45  62  91 125 157 192 232 280
#     4   8  14  28  45  64  92 120 145 198 238 274
#     4   8  15  29  45  66  91 113 151 195 237 276
#
# _framework density 16.141206
#
# number of rings (size 3 to 8) (size 9 to 14) (size 15 to 20)
#    0.000    2.375    2.500    3.000    0.000    0.500 
#    0.000    1.250    0.000    4.875    0.000    0.000 
#    0.000    0.000    0.000   11.250    0.000    0.000 
#
# Total GULP energy -792992.331452 kJ/mol
# GULP energy per Si atom -12390.505179 kJ/mol
# Density = 1.610447 g / cm^3
# Si number density = 16.141206 Si / 1000 Ang^3
#
#
#
# Elastic Constant Matrix: (Units=GPa)
#
#
# Indices 1 2 3 4 5 6 
#
# 1 81.0882 54.2619 34.5758 0.0000 0.0000 0.0000
# 2 54.2619 91.8419 45.5532 0.0000 0.0000 0.0000
# 3 34.5758 45.5532 86.3365 0.0000 0.0000 0.0000
# 4 0.0000 0.0000 0.0000 16.2947 0.0000 0.0000
# 5 0.0000 0.0000 0.0000 0.0000 16.3261 0.0000
# 6 0.0000 0.0000 0.0000 0.0000 0.0000 23.9996
#
#
#
# Elastic Compliance Matrix: (Units=1/GPa)
#
#
# Indices 1 2 3 4 5 6 
#
# 1 0.020786 -0.011042 -0.002499 0.000000 0.000000 0.000000
# 2 -0.011042 0.020613 -0.006454 0.000000 0.000000 0.000000
# 3 -0.002499 -0.006454 0.015989 0.000000 0.000000 0.000000
# 4 0.000000 0.000000 0.000000 0.061370 0.000000 0.000000
# 5 0.000000 0.000000 0.000000 0.000000 0.061252 0.000000
# 6 0.000000 0.000000 0.000000 0.000000 0.000000 0.041667
#
#
# Mechanical properties :
#
#
# Convention : Reuss Voigt Hill
#
# Bulk Modulus (GPa) = 57.47335 58.67205 58.07270
# Shear Modulus (GPa) = 18.69402 19.64912 19.17157
#
# Velocity S-wave (km/s) = 3.40686 3.49281 3.45010
# Velocity P-wave (km/s) = 7.15259 7.25909 7.20604
#
# Compressibility (1/GPa) = 0.01739937
#
# Stress axis : x y z
#
# Youngs Moduli (GPa) = 48.10819 48.51276 62.54482
#
# Poissons Ratio (x) = 0.53567 0.15628
# Poissons Ratio (y) = 0.53120 0.40367
# Poissons Ratio (z) = 0.12020 0.31310
#
# Static dielectric constant tensor:
#      x y z
#    x 2.997830 0.000000 0.000000 
#    y 0.000000 3.043560 0.000000 
#    z 0.000000 0.000000 2.985270 
# 
# 
# High freq. dielectric constant tensor:
#      x y z
#    x 1.596080 0.000000 0.000000 
#    y 0.000000 1.607870 0.000000 
#    z 0.000000 0.000000 1.611740 
# 
# From -- ./inp_files/32962.got.cif
#   From: 2010.03.12/outbox.cif.g09.slc.cpg/sg72_17_cif.got.tgz:32962.got - 2010.04.16 14:54:00.
