data_PCOD8292417
_publ_section_title
;
Structure prediction by ZEFSAII (Michael W. Deem and Ramdas Pophale) SiO2 
 PCOD8292417
Probable space group: I M M M
;
_chemical_formula_sum "Si O2"
_cell_formula_units_Z 64
_cell_length_a 13.787037
_cell_length_b 18.667105
_cell_length_c 12.904863
_cell_angle_alpha 90.000000
_cell_angle_beta 90.000000
_cell_angle_gamma 90.000000
_cell_volume 3321.248030
_symmetry_space_group_name_H-M "I M M M"
_symmetry_group_IT_number 71
_symmetry_cell_setting 'orthorhombic'
loop_
_space_group_symop_operation_xyz
x,y,z
-x,-y,z
x,-y,-z
-x,y,-z
-x,-y,-z
x,y,-z
-x,y,z
x,-y,z
1/2+x,1/2+y,1/2+z
1/2-x,1/2-y,1/2+z
1/2+x,1/2-y,1/2-z
1/2-x,1/2+y,1/2-z
1/2-x,1/2-y,1/2-z
1/2+x,1/2+y,1/2-z
1/2-x,1/2+y,1/2+z
1/2+x,1/2-y,1/2+z
loop_
_atom_site_type_symbol
_atom_site_label
_atom_site_fract_x
_atom_site_fract_y
_atom_site_fract_z
Si Si1 0.806418 0.836828 0.810215
Si Si2 0.500000 0.080602 0.621796
Si Si3 0.393790 0.807730 0.262357
Si Si4 0.608479 0.584268 0.500000
Si Si5 0.886687 0.082188 0.618317
O O1 0.690530 0.823747 0.820863
O O2 0.863785 0.762668 0.827690
O O3 0.835969 0.892182 0.897552
O O4 0.827457 0.867088 0.695489
O O5 0.500000 0.076943 0.500000
O O6 0.404467 0.124022 0.660289
O O7 0.500000 0.000000 0.668214
O O8 0.500000 0.794677 0.208242
O O9 0.605224 0.500000 0.500000
O O10 0.500000 0.616175 0.500000
O O11 0.864345 0.105314 0.500000
O O12 0.000000 0.090900 0.643015
O O13 0.855286 0.000000 0.635707
#
# Coordination Sequence:
#
# PCOD8292417 Si02
#       5
#    16   8  16   8  16
#     4  11  21  38  62  88 121 163 204 249 308 367
#     4   9  20  38  62  89 117 158 205 256 311 360
#     4   9  22  39  58  86 117 157 203 254 307 358
#     4  11  24  38  61  95 125 163 206 251 306 370
#     4   9  18  33  55  85 119 154 191 245 306 356
#
# _framework density 19.269864999999999
#
# number of rings (size 3 to 8) (size 9 to 14) (size 15 to 20)
#    0.750    1.500    0.000    3.750    1.750    5.000 
#    6.750    3.125    0.000    0.750    0.000    0.000 
#    0.000    0.000    0.000    0.000    0.000    0.000 
#
# Total GULP energy -396610.421090 kJ/mol
# GULP energy per Si atom -12394.075659 kJ/mol
# Density = 1.922601 g / cm^3
# Si number density = 19.269865 Si / 1000 Ang^3
#
#
#
# Elastic Constant Matrix: (Units=GPa)
#
#
# Indices 1 2 3 4 5 6 
#
# 1 143.7087 42.7608 40.8248 0.0000 0.0000 0.0000
# 2 42.7608 119.5086 39.9617 0.0000 0.0000 0.0000
# 3 40.8248 39.9617 86.2601 -0.0001 -0.0001 0.0000
# 4 0.0000 0.0000 -0.0001 21.5219 0.0000 0.0000
# 5 0.0000 0.0000 -0.0001 0.0000 9.7521 0.0000
# 6 0.0000 0.0000 0.0000 0.0000 0.0000 14.5202
#
#
#
# Elastic Compliance Matrix: (Units=1/GPa)
#
#
# Indices 1 2 3 4 5 6 
#
# 1 0.008421 -0.001988 -0.003064 0.000000 0.000000 0.000000
# 2 -0.001988 0.010371 -0.003863 0.000000 0.000000 0.000000
# 3 -0.003064 -0.003863 0.014833 0.000000 0.000000 0.000000
# 4 0.000000 0.000000 0.000000 0.046464 0.000000 0.000000
# 5 0.000000 0.000000 0.000000 0.000000 0.102542 0.000000
# 6 0.000000 0.000000 0.000000 0.000000 0.000000 0.068869
#
#
# Mechanical properties :
#
#
# Convention : Reuss Voigt Hill
#
# Bulk Modulus (GPa) = 63.32138 66.28577 64.80357
# Shear Modulus (GPa) = 18.20857 24.22086 21.21471
#
# Velocity S-wave (km/s) = 3.07730 3.54917 3.32162
# Velocity P-wave (km/s) = 6.74967 7.16022 6.95797
#
# Compressibility (1/GPa) = 0.01579246
#
# Stress axis : x y z
#
# Youngs Moduli (GPa) = 118.75614 96.42341 67.41790
#
# Poissons Ratio (x) = 0.19172 0.20658
# Poissons Ratio (y) = 0.23613 0.26047
# Poissons Ratio (z) = 0.36388 0.37253
#
# Static dielectric constant tensor:
#      x y z
#    x 3.586830 0.000000 0.000000 
#    y 0.000000 3.681650 0.000000 
#    z 0.000000 0.000000 3.167700 
# 
# 
# High freq. dielectric constant tensor:
#      x y z
#    x 1.751280 0.000000 0.000000 
#    y 0.000000 1.763350 0.000000 
#    z 0.000000 0.000000 1.718090 
# 
# From -- ./inp_files/21290.got.cif
#   From: 2010.06.25/outbox.cif.g09.slc.cpg/sg71_11_cif.got.tgz:21290.got - 2010.06.28 04:59:45.
