data_PCOD8292853
_publ_section_title
;
Structure prediction by ZEFSAII (Michael W. Deem and Ramdas Pophale) SiO2 
 PCOD8292853
Probable space group: I B A M
;
_chemical_formula_sum "Si O2"
_cell_formula_units_Z 104
_cell_length_a 19.092050
_cell_length_b 16.637879
_cell_length_c 18.206782
_cell_angle_alpha 90.000000
_cell_angle_beta 90.000000
_cell_angle_gamma 90.000000
_cell_volume 5783.406474
_symmetry_space_group_name_H-M "I B A M"
_symmetry_group_IT_number 72
_symmetry_cell_setting 'orthorhombic'
loop_
_space_group_symop_operation_xyz
x,y,z
-x,-y,z
x,-y,1/2-z
-x,y,1/2-z
-x,-y,-z
x,y,-z
-x,y,1/2+z
x,-y,1/2+z
1/2+x,1/2+y,1/2+z
1/2-x,1/2-y,1/2+z
1/2+x,1/2-y,-z
1/2-x,1/2+y,-z
1/2-x,1/2-y,1/2-z
1/2+x,1/2+y,1/2-z
1/2-x,1/2+y,z
1/2+x,1/2-y,z
loop_
_atom_site_type_symbol
_atom_site_label
_atom_site_fract_x
_atom_site_fract_y
_atom_site_fract_z
Si Si1 0.275351 0.500000 0.750000
Si Si2 0.156688 0.597379 0.177467
Si Si3 0.339515 0.785406 0.803384
Si Si4 0.551655 0.204873 0.083433
Si Si5 0.808576 0.157018 0.184794
Si Si6 0.109301 0.264920 0.414439
Si Si7 0.079197 0.522000 0.579637
O O1 0.231123 0.558558 0.803427
O O2 0.320481 0.561478 0.699901
O O3 0.127597 0.646188 0.248589
O O4 0.160118 0.662421 0.111442
O O5 0.109488 0.523333 0.150479
O O6 0.396998 0.749668 0.860390
O O7 0.270969 0.824256 0.843101
O O8 0.317742 0.706029 0.759756
O O9 0.470694 0.213213 0.107319
O O10 0.582837 0.116131 0.093242
O O11 0.560421 0.236115 0.000000
O O12 0.866109 0.182675 0.124463
O O13 0.117961 0.252490 0.500000
O O14 0.115403 0.500278 0.500000
O O15 0.000000 0.500000 0.570822
#
# Coordination Sequence:
#
# PCOD8292853 Si02
#       7
#     8  16  16  16  16  16  16
#     4  10  20  36  51  75 100 134 174 230 272 296
#     4  10  18  31  50  73 106 141 172 204 246 311
#     4   9  19  35  51  75 102 136 173 213 255 308
#     4  10  20  33  50  74 108 141 170 207 257 310
#     4   9  19  35  56  73 102 133 174 221 260 306
#     4  10  20  35  53  77 107 142 174 209 255 314
#     4  10  17  27  42  69 111 144 164 195 240 296
#
# _framework density 17.982481
#
# number of rings (size 3 to 8) (size 9 to 14) (size 15 to 20)
#    0.000    2.308    1.538    3.231    0.000    3.077 
#    2.769    1.538    0.000    2.769    0.000    2.154 
#    0.000    0.000    0.000    0.000    0.000    0.000 
#
# Total GULP energy -644224.324789 kJ/mol
# GULP energy per Si atom -12388.929323 kJ/mol
# Density = 1.794155 g / cm^3
# Si number density = 17.982481 Si / 1000 Ang^3
#
#
#
# Elastic Constant Matrix: (Units=GPa)
#
#
# Indices 1 2 3 4 5 6 
#
# 1 62.5632 36.8835 50.2122 0.0000 0.0000 0.0000
# 2 36.8835 88.3174 36.4503 0.0000 0.0000 0.0000
# 3 50.2122 36.4503 79.4367 0.0000 0.0000 0.0000
# 4 0.0000 0.0000 0.0000 23.0179 0.0000 0.0000
# 5 0.0000 0.0000 0.0000 0.0000 26.6252 0.0000
# 6 0.0000 0.0000 0.0000 0.0000 0.0000 26.3158
#
#
#
# Elastic Compliance Matrix: (Units=1/GPa)
#
#
# Indices 1 2 3 4 5 6 
#
# 1 0.035528 -0.006870 -0.019305 0.000000 0.000000 0.000000
# 2 -0.006870 0.015296 -0.002677 0.000000 0.000000 0.000000
# 3 -0.019305 -0.002677 0.026019 0.000000 0.000000 0.000000
# 4 0.000000 0.000000 0.000000 0.043444 0.000000 0.000000
# 5 0.000000 0.000000 0.000000 0.000000 0.037558 0.000000
# 6 0.000000 0.000000 0.000000 0.000000 0.000000 0.038000
#
#
# Mechanical properties :
#
#
# Convention : Reuss Voigt Hill
#
# Bulk Modulus (GPa) = 52.24326 53.04549 52.64438
# Shear Modulus (GPa) = 19.23604 22.30989 20.77296
#
# Velocity S-wave (km/s) = 3.27419 3.52610 3.40248
# Velocity P-wave (km/s) = 6.58856 6.79267 6.69139
#
# Compressibility (1/GPa) = 0.01914122
#
# Stress axis : x y z
#
# Youngs Moduli (GPa) = 28.14714 65.37480 38.43276
#
# Poissons Ratio (x) = 0.44911 0.74194
# Poissons Ratio (y) = 0.19336 0.10287
# Poissons Ratio (z) = 0.54338 0.17498
#
# Static dielectric constant tensor:
#      x y z
#    x 3.252320 0.000000 0.000000 
#    y 0.000000 3.171890 0.000000 
#    z 0.000000 0.000000 3.582240 
# 
# 
# High freq. dielectric constant tensor:
#      x y z
#    x 1.667010 0.000000 0.000000 
#    y 0.000000 1.681750 0.000000 
#    z 0.000000 0.000000 1.696340 
# 
# From -- ./inp_files/32665.got.cif
#   From: 2010.03.12/outbox.cif.g09.slc.cpg/sg72_17_cif.got.tgz:32665.got - 2010.04.16 14:54:00.
