data_PCOD8292567
_publ_section_title
;
Structure prediction by ZEFSAII (Michael W. Deem and Ramdas Pophale) SiO2 
 PCOD8292567
Probable space group: I M M M
;
_chemical_formula_sum "Si O2"
_cell_formula_units_Z 80
_cell_length_a 9.241656
_cell_length_b 26.294960
_cell_length_c 18.441156
_cell_angle_alpha 90.000000
_cell_angle_beta 90.000000
_cell_angle_gamma 90.000000
_cell_volume 4481.366415
_symmetry_space_group_name_H-M "I M M M"
_symmetry_group_IT_number 71
_symmetry_cell_setting 'orthorhombic'
loop_
_space_group_symop_operation_xyz
x,y,z
-x,-y,z
x,-y,-z
-x,y,-z
-x,-y,-z
x,y,-z
-x,y,z
x,-y,z
1/2+x,1/2+y,1/2+z
1/2-x,1/2-y,1/2+z
1/2+x,1/2-y,1/2-z
1/2-x,1/2+y,1/2-z
1/2-x,1/2-y,1/2-z
1/2+x,1/2+y,1/2-z
1/2-x,1/2+y,1/2+z
1/2+x,1/2-y,1/2+z
loop_
_atom_site_type_symbol
_atom_site_label
_atom_site_fract_x
_atom_site_fract_y
_atom_site_fract_z
Si Si1 0.829263 0.000000 0.416281
Si Si2 0.334607 0.692425 0.326626
Si Si3 0.831698 0.403308 0.333166
Si Si4 0.664404 0.911850 0.336752
Si Si5 0.172553 0.500000 0.418341
Si Si6 0.834873 0.698118 0.181448
O O1 0.769340 0.949229 0.379158
O O2 0.782409 0.000000 0.500000
O O3 0.000000 0.000000 0.406862
O O4 0.500000 0.674930 0.328345
O O5 0.242237 0.648025 0.364549
O O6 0.283933 0.697950 0.244005
O O7 0.315465 0.748841 0.363625
O O8 0.797982 0.412384 0.248592
O O9 0.766566 0.450492 0.377529
O O10 0.000000 0.397143 0.347902
O O11 0.500000 0.930406 0.349254
O O12 0.686298 0.853548 0.365916
O O13 0.231357 0.500000 0.500000
O O14 0.000000 0.500000 0.415482
O O15 0.000000 0.696479 0.213927
#
# Coordination Sequence:
#
# PCOD8292567 Si02
#       6
#     8  16  16  16   8  16
#     4  11  24  37  47  65  94 121 148 192 244 283
#     4   9  15  24  42  69  98 124 149 181 227 277
#     4   9  17  30  48  71  97 122 154 196 231 263
#     4   9  17  31  51  71  91 120 156 189 224 271
#     4   9  17  30  49  69  90 123 164 198 228 267
#     4   8  15  27  43  67  97 122 148 186 226 266
#
# _framework density 17.851697000000001
#
# number of rings (size 3 to 8) (size 9 to 14) (size 15 to 20)
#    0.000    3.000    0.000    2.700    0.000    6.400 
#    0.000    0.500    0.000    2.400    0.000    5.600 
#    0.000    0.000    0.000    0.000    0.000    0.000 
#
# Total GULP energy -495538.063418 kJ/mol
# GULP energy per Si atom -12388.451585 kJ/mol
# Density = 1.781107 g / cm^3
# Si number density = 17.851697 Si / 1000 Ang^3
#
#
#
# Elastic Constant Matrix: (Units=GPa)
#
#
# Indices 1 2 3 4 5 6 
#
# 1 61.9682 58.8423 27.9256 0.0000 0.0000 0.0000
# 2 58.8423 204.1763 55.0074 0.0000 0.0000 0.0000
# 3 27.9256 55.0074 50.2562 0.0005 -0.0001 0.0000
# 4 0.0000 0.0000 0.0005 1.0539 0.0000 0.0000
# 5 0.0000 0.0000 -0.0001 0.0000 12.8388 0.0000
# 6 0.0000 0.0000 0.0000 0.0000 0.0000 33.8135
#
#
#
# Elastic Compliance Matrix: (Units=1/GPa)
#
#
# Indices 1 2 3 4 5 6 
#
# 1 0.024452 -0.004803 -0.008330 0.000005 0.000000 0.000000
# 2 -0.004803 0.007889 -0.005966 0.000003 0.000000 0.000000
# 3 -0.008330 -0.005966 0.031057 -0.000016 0.000000 0.000000
# 4 0.000005 0.000003 -0.000016 0.948856 0.000002 0.000000
# 5 0.000000 0.000000 0.000000 0.000002 0.077889 0.000000
# 6 0.000000 0.000000 0.000000 0.000000 0.000000 0.029574
#
#
# Mechanical properties :
#
#
# Convention : Reuss Voigt Hill
#
# Bulk Modulus (GPa) = 39.68313 66.66123 53.17218
# Shear Modulus (GPa) = 4.28700 21.18293 12.73497
#
# Velocity S-wave (km/s) = 1.55134 3.44845 2.67381
# Velocity P-wave (km/s) = 5.04841 7.29921 6.27555
#
# Compressibility (1/GPa) = 0.02519962
#
# Stress axis : x y z
#
# Youngs Moduli (GPa) = 40.89713 126.75537 32.19835
#
# Poissons Ratio (x) = 0.60874 0.26822
# Poissons Ratio (y) = 0.19641 0.19211
# Poissons Ratio (z) = 0.34069 0.75628
#
# Static dielectric constant tensor:
#      x y z
#    x 3.199110 0.000000 0.000000 
#    y 0.000000 3.988870 0.000000 
#    z 0.000000 0.000000 2.810480 
# 
# 
# High freq. dielectric constant tensor:
#      x y z
#    x 1.680810 0.000000 0.000000 
#    y 0.000000 1.725580 0.000000 
#    z 0.000000 0.000000 1.619550 
# 
# From -- ./inp_files/50750.got.cif
#   From: 2010.06.25/outbox.cif.g09.slc.cpg/sg71_26_cif.got.tgz:50750.got - 2010.06.28 04:59:45.
