data_PCOD8292798
_publ_section_title
;
Structure prediction by ZEFSAII (Michael W. Deem and Ramdas Pophale) SiO2 
 PCOD8292798
Probable space group: I M M M
;
_chemical_formula_sum "Si O2"
_cell_formula_units_Z 44
_cell_length_a 18.000000
_cell_length_b 30.000000
_cell_length_c 9.000000
_cell_angle_alpha 90.000000
_cell_angle_beta 90.000000
_cell_angle_gamma 90.000000
_cell_volume 4860.000000
_symmetry_space_group_name_H-M "I M M M"
_symmetry_group_IT_number 71
_symmetry_cell_setting 'orthorhombic'
loop_
_space_group_symop_operation_xyz
x,y,z
-x,-y,z
x,-y,-z
-x,y,-z
-x,-y,-z
x,y,-z
-x,y,z
x,-y,z
1/2+x,1/2+y,1/2+z
1/2-x,1/2-y,1/2+z
1/2+x,1/2-y,1/2-z
1/2-x,1/2+y,1/2-z
1/2-x,1/2-y,1/2-z
1/2+x,1/2+y,1/2-z
1/2-x,1/2+y,1/2+z
1/2+x,1/2-y,1/2+z
loop_
_atom_site_type_symbol
_atom_site_label
_atom_site_fract_x
_atom_site_fract_y
_atom_site_fract_z
Si Si1 0.919387 0.000000 0.826778
Si Si2 0.083087 0.826916 0.332153
Si Si3 0.287508 0.886637 0.827661
Si Si4 0.582377 0.950432 0.824301
Si Si5 0.647169 0.579876 0.833883
Si Si6 0.775285 0.793621 0.830600
O O1 0.874910 0.043136 0.782534
O O2 0.000000 0.000000 0.748235
O O3 0.928939 0.000000 0.000000
O O4 0.099244 0.810376 0.500000
O O5 0.088197 0.880285 0.325414
O O6 0.142574 0.806015 0.222724
O O7 0.000000 0.812972 0.282591
O O8 0.364040 0.909905 0.774635
O O9 0.227971 0.904725 0.713504
O O10 0.285915 0.832949 0.807410
O O11 0.269326 0.898607 0.000000
O O12 0.500000 0.940908 0.759041
O O13 0.609683 0.000000 0.770591
O O14 0.578157 0.950989 0.000000
O O15 0.650814 0.560169 0.000000
O O16 0.750000 0.750000 0.750000
O O17 0.783263 0.781062 0.000000
#
# Coordination Sequence:
#
# PCOD8292798 Si02
#       6
#     8  16  16  16  16  16
#     4  11  23  35  47  67  98 135 172 209 247 286
#     4   9  18  34  55  76  99 130 168 210 259 312
#     4   9  18  32  51  76 102 132 171 213 255 305
#     4   8  14  26  47  75 103 131 165 207 255 306
#     4  10  20  33  50  73 101 134 170 207 250 303
#     4  10  20  34  52  75 104 136 173 215 261 311
#
# _framework density 9.0534979999999994
#
# number of rings (size 3 to 8) (size 9 to 14) (size 15 to 20)
#    0.000    2.636    0.000    2.455    1.273    3.273 
#    0.000    0.909    0.000    3.818    0.000    1.273 
#    0.000    0.000    0.000    0.000    0.000    0.000 
#
# Total GULP energy -545265.538751 kJ/mol
# GULP energy per Si atom -12392.398608 kJ/mol
# Density = 0.903289 g / cm^3
# Si number density = 9.053498 Si / 1000 Ang^3
#
#
#
# Elastic Constant Matrix: (Units=GPa)
#
#
# Indices 1 2 3 4 5 6 
#
# 1 94.4933 61.6897 36.7595 -0.0004 0.0009 -0.0038
# 2 61.6897 109.0638 50.3848 0.0007 -0.0006 -0.0101
# 3 36.7595 50.3848 68.8433 0.0161 0.0029 0.0212
# 4 -0.0004 0.0007 0.0161 36.2040 0.0003 0.0039
# 5 0.0009 -0.0006 0.0029 0.0003 19.1684 -0.0020
# 6 -0.0038 -0.0101 0.0212 0.0039 -0.0020 -25.1105
#
#
#
# Elastic Compliance Matrix: (Units=1/GPa)
#
#
# Indices 1 2 3 4 5 6 
#
# 1 0.017211 -0.008294 -0.003120 0.000002 -0.000001 -0.000002
# 2 -0.008294 0.017849 -0.008635 0.000003 0.000002 -0.000013
# 3 -0.003120 -0.008635 0.022511 -0.000010 -0.000003 0.000023
# 4 0.000002 0.000003 -0.000010 0.027621 0.000000 0.000004
# 5 -0.000001 0.000002 -0.000003 0.000000 0.052169 -0.000004
# 6 -0.000002 -0.000013 0.000023 0.000004 -0.000004 -0.039824
#
#
# Mechanical properties :
#
#
# Convention : Reuss Voigt Hill
#
# Bulk Modulus (GPa) = 57.22673 63.34094 60.28384
# Shear Modulus (GPa) = 34.85289 14.29014 24.57151
#
# Velocity S-wave (km/s) = 4.39205 2.81233 3.68777
# Velocity P-wave (km/s) = 7.57585 6.75300 7.17623
#
# Compressibility (1/GPa) = 0.01747435
#
# Stress axis : x y z
#
# Youngs Moduli (GPa) = 58.10241 56.02486 44.42191
#
# Poissons Ratio (x) = 0.46465 0.13860
# Poissons Ratio (y) = 0.48188 0.38358
# Poissons Ratio (z) = 0.18128 0.48377
#
# Static dielectric constant tensor:
#      x y z
#    x 3.418420 -0.000010 -0.000010 
#    y -0.000010 3.188780 0.000000 
#    z -0.000010 0.000000 3.259540 
# 
# 
# High freq. dielectric constant tensor:
#      x y z
#    x 1.693160 0.000000 0.000000 
#    y 0.000000 1.689660 0.000000 
#    z 0.000000 0.000000 1.684460 
# 
# From -- ./inp_files/8790.got.cif
#   From: 2010.06.25/outbox.ucp.g09.slc.cvg/sg71_5_cif.got.tgz:8790.got - 2010.06.28 16:23:14.
