data_PCOD8292249
_publ_section_title
;
Structure prediction by ZEFSAII (Michael W. Deem and Ramdas Pophale) SiO2 
 PCOD8292249
Probable space group: I M M M
;
_chemical_formula_sum "Si O2"
_cell_formula_units_Z 72
_cell_length_a 8.912230
_cell_length_b 27.316268
_cell_length_c 19.546778
_cell_angle_alpha 90.000000
_cell_angle_beta 90.000000
_cell_angle_gamma 90.000000
_cell_volume 4758.640882
_symmetry_space_group_name_H-M "I M M M"
_symmetry_group_IT_number 71
_symmetry_cell_setting 'orthorhombic'
loop_
_space_group_symop_operation_xyz
x,y,z
-x,-y,z
x,-y,-z
-x,y,-z
-x,-y,-z
x,y,-z
-x,y,z
x,-y,z
1/2+x,1/2+y,1/2+z
1/2-x,1/2-y,1/2+z
1/2+x,1/2-y,1/2-z
1/2-x,1/2+y,1/2-z
1/2-x,1/2-y,1/2-z
1/2+x,1/2+y,1/2-z
1/2-x,1/2+y,1/2+z
1/2+x,1/2-y,1/2+z
loop_
_atom_site_type_symbol
_atom_site_label
_atom_site_fract_x
_atom_site_fract_y
_atom_site_fract_z
Si Si1 0.173007 0.181508 0.782877
Si Si2 0.332811 0.731745 0.000000
Si Si3 0.177341 0.500000 0.579517
Si Si4 0.822752 0.228892 0.646814
Si Si5 0.174410 0.902195 0.120786
Si Si6 0.669382 0.847718 0.000000
O O1 0.220970 0.187682 0.703034
O O2 0.266272 0.218133 0.829983
O O3 0.198812 0.125288 0.806213
O O4 0.000000 0.196596 0.791673
O O5 0.253772 0.714661 0.928435
O O6 0.335636 0.790035 0.000000
O O7 0.500000 0.709933 0.000000
O O8 0.230592 0.500000 0.500000
O O9 0.239771 0.546602 0.619965
O O10 0.000000 0.500000 0.583955
O O11 0.000000 0.234404 0.637864
O O12 0.000000 0.911851 0.105898
O O13 0.241106 0.865908 0.065286
O O14 0.500000 0.869796 0.000000
#
# Coordination Sequence:
#
# PCOD8292249 Si02
#       6
#    16   8   8  16  16   8
#     4   9  18  29  42  61  85 112 142 175 212 251
#     4   9  16  25  42  64  85 114 148 178 205 238
#     4  11  23  35  47  63  82 109 146 183 215 252
#     4   9  16  28  43  61  85 113 145 175 205 246
#     4  11  21  32  45  62  85 114 144 180 221 254
#     4  11  19  28  42  63  85 115 151 181 208 246
#
# _framework density 15.130371
#
# number of rings (size 3 to 8) (size 9 to 14) (size 15 to 20)
#    0.000    2.111    3.333    1.333    0.000    1.333 
#    0.000    0.556    0.000    0.000    0.000    0.000 
#    0.000    0.889    0.000   11.333    0.000    1.111 
#
# Total GULP energy -446082.945240 kJ/mol
# GULP energy per Si atom -12391.192923 kJ/mol
# Density = 1.509593 g / cm^3
# Si number density = 15.130371 Si / 1000 Ang^3
#
#
#
# Elastic Constant Matrix: (Units=GPa)
#
#
# Indices 1 2 3 4 5 6 
#
# 1 45.9048 24.2335 26.3159 0.0000 0.0000 0.0000
# 2 24.2335 69.5256 46.7426 0.0000 0.0000 0.0000
# 3 26.3159 46.7426 141.5984 -0.0001 0.0000 0.0000
# 4 0.0000 0.0000 -0.0001 18.9999 0.0000 0.0000
# 5 0.0000 0.0000 0.0000 0.0000 14.9129 0.0000
# 6 0.0000 0.0000 0.0000 0.0000 0.0000 18.0807
#
#
#
# Elastic Compliance Matrix: (Units=1/GPa)
#
#
# Indices 1 2 3 4 5 6 
#
# 1 0.027363 -0.007864 -0.002489 0.000000 0.000000 0.000000
# 2 -0.007864 0.020746 -0.005387 0.000000 0.000000 0.000000
# 3 -0.002489 -0.005387 0.009303 0.000000 0.000000 0.000000
# 4 0.000000 0.000000 0.000000 0.052632 0.000000 0.000000
# 5 0.000000 0.000000 0.000000 0.000000 0.067056 0.000000
# 6 0.000000 0.000000 0.000000 0.000000 0.000000 0.055308
#
#
# Mechanical properties :
#
#
# Convention : Reuss Voigt Hill
#
# Bulk Modulus (GPa) = 38.56311 50.17919 44.37115
# Shear Modulus (GPa) = 18.34652 21.04780 19.69716
#
# Velocity S-wave (km/s) = 3.48596 3.73379 3.61200
# Velocity P-wave (km/s) = 6.46105 7.19894 6.83995
#
# Compressibility (1/GPa) = 0.02593152
#
# Stress axis : x y z
#
# Youngs Moduli (GPa) = 36.54613 48.20267 107.49074
#
# Poissons Ratio (x) = 0.37905 0.26759
# Poissons Ratio (y) = 0.28739 0.57904
# Poissons Ratio (z) = 0.09098 0.25966
#
# Static dielectric constant tensor:
#      x y z
#    x 2.966420 0.000000 0.000000 
#    y 0.000000 2.725230 0.000000 
#    z 0.000000 0.000000 3.412150 
# 
# 
# High freq. dielectric constant tensor:
#      x y z
#    x 1.579620 0.000000 0.000000 
#    y 0.000000 1.543380 0.000000 
#    z 0.000000 0.000000 1.578800 
# 
# From -- ./inp_files/10688.got.cif
#   From: 2010.06.25/outbox.cif.g09.slc.cpg/sg71_6_cif.got.tgz:10688.got - 2010.06.28 04:59:45.
