data_PCOD8292628
_publ_section_title
;
Structure prediction by ZEFSAII (Michael W. Deem and Ramdas Pophale) SiO2 
 PCOD8292628
Probable space group: I M M M
;
_chemical_formula_sum "Si O2"
_cell_formula_units_Z 112
_cell_length_a 25.613669
_cell_length_b 9.501164
_cell_length_c 27.600822
_cell_angle_alpha 90.000000
_cell_angle_beta 90.000000
_cell_angle_gamma 90.000000
_cell_volume 6716.926928
_symmetry_space_group_name_H-M "I M M M"
_symmetry_group_IT_number 71
_symmetry_cell_setting 'orthorhombic'
loop_
_space_group_symop_operation_xyz
x,y,z
-x,-y,z
x,-y,-z
-x,y,-z
-x,-y,-z
x,y,-z
-x,y,z
x,-y,z
1/2+x,1/2+y,1/2+z
1/2-x,1/2-y,1/2+z
1/2+x,1/2-y,1/2-z
1/2-x,1/2+y,1/2-z
1/2-x,1/2-y,1/2-z
1/2+x,1/2+y,1/2-z
1/2-x,1/2+y,1/2+z
1/2+x,1/2-y,1/2+z
loop_
_atom_site_type_symbol
_atom_site_label
_atom_site_fract_x
_atom_site_fract_y
_atom_site_fract_z
Si Si1 0.407981 0.837332 0.230316
Si Si2 0.441748 0.167361 0.127198
Si Si3 0.057192 0.667952 0.166681
Si Si4 0.851227 0.664579 0.443957
Si Si5 0.662889 0.166308 0.371647
Si Si6 0.297193 0.839061 0.268237
Si Si7 0.750955 0.335628 0.944084
O O1 0.428769 0.767893 0.180442
O O2 0.433993 0.770948 0.278803
O O3 0.345734 0.817202 0.232190
O O4 0.423464 0.000000 0.229254
O O5 0.500000 0.216479 0.111931
O O6 0.400065 0.221266 0.087544
O O7 0.438521 0.000000 0.129229
O O8 0.061621 0.500000 0.169895
O O9 0.102516 0.722914 0.129675
O O10 0.000000 0.715720 0.147783
O O11 0.864578 0.694479 0.500000
O O12 0.840376 0.500000 0.434874
O O13 0.799995 0.749863 0.427472
O O14 0.688893 0.214342 0.321692
O O15 0.698176 0.224540 0.415632
O O16 0.661039 0.000000 0.375827
O O17 0.250000 0.750000 0.250000
O O18 0.279567 0.000000 0.269617
O O19 0.740898 0.500000 0.932912
O O20 0.763251 0.308948 0.000000
#
# Coordination Sequence:
#
# PCOD8292628 Si02
#       7
#    16  16  16  16  16  16  16
#     4   8  14  23  35  55  81 107 136 167 198 238
#     4   9  16  25  39  59  82 108 136 168 208 250
#     4   8  12  20  36  56  81 111 137 164 201 243
#     4   9  18  30  43  62  85 106 133 174 217 250
#     4   8  15  26  39  59  84 108 138 173 205 240
#     4   9  17  27  39  58  85 112 135 165 204 243
#     4   9  17  30  47  62  80 112 146 171 203 251
#
# _framework density 16.674291
#
# number of rings (size 3 to 8) (size 9 to 14) (size 15 to 20)
#    0.000    3.429    0.000    2.143    2.000    2.000 
#    0.000    1.429    0.000    0.857    0.000    5.000 
#    0.000   18.857    0.000    3.571    0.000    3.714 
#
# Total GULP energy -693836.169112 kJ/mol
# GULP energy per Si atom -12389.931591 kJ/mol
# Density = 1.663634 g / cm^3
# Si number density = 16.674291 Si / 1000 Ang^3
#
#
#
# Elastic Constant Matrix: (Units=GPa)
#
#
# Indices 1 2 3 4 5 6 
#
# 1 165.9412 27.7743 78.4382 0.0000 0.0000 0.0000
# 2 27.7743 17.3488 14.2334 0.0000 0.0000 0.0000
# 3 78.4382 14.2334 85.4869 0.0000 0.0000 0.0000
# 4 0.0000 0.0000 0.0000 10.6655 0.0000 0.0000
# 5 0.0000 0.0000 0.0000 0.0000 27.5162 0.0000
# 6 0.0000 0.0000 0.0000 0.0000 0.0000 18.2572
#
#
#
# Elastic Compliance Matrix: (Units=1/GPa)
#
#
# Indices 1 2 3 4 5 6 
#
# 1 0.012576 -0.012354 -0.009482 0.000000 0.000000 0.000000
# 2 -0.012354 0.078896 -0.001801 0.000000 0.000000 0.000000
# 3 -0.009482 -0.001801 0.020698 0.000000 0.000000 0.000000
# 4 0.000000 0.000000 0.000000 0.093760 0.000000 0.000000
# 5 0.000000 0.000000 0.000000 0.000000 0.036342 0.000000
# 6 0.000000 0.000000 0.000000 0.000000 0.000000 0.054773
#
#
# Mechanical properties :
#
#
# Convention : Reuss Voigt Hill
#
# Bulk Modulus (GPa) = 15.40923 56.62985 36.01954
# Shear Modulus (GPa) = 13.66305 21.17655 17.41980
#
# Velocity S-wave (km/s) = 2.86564 3.56759 3.23570
# Velocity P-wave (km/s) = 4.49561 7.14187 5.96728
#
# Compressibility (1/GPa) = 0.06489617
#
# Stress axis : x y z
#
# Youngs Moduli (GPa) = 79.51599 12.67492 48.31411
#
# Poissons Ratio (x) = 0.15659 0.45813
# Poissons Ratio (y) = 0.98234 0.08700
# Poissons Ratio (z) = 0.75399 0.02282
#
# Static dielectric constant tensor:
#      x y z
#    x 3.439520 0.000000 0.000000 
#    y 0.000000 2.573600 0.000000 
#    z 0.000000 0.000000 3.703440 
# 
# 
# High freq. dielectric constant tensor:
#      x y z
#    x 1.655590 0.000000 0.000000 
#    y 0.000000 1.573200 0.000000 
#    z 0.000000 0.000000 1.634570 
# 
# From -- ./inp_files/29114.got.cif
#   From: 2010.06.25/outbox.cif.g09.slc.cpg/sg71_15_cif.got.tgz:29114.got - 2010.06.28 04:59:45.
