data_PCOD8292253
_publ_section_title
;
Structure prediction by ZEFSAII (Michael W. Deem and Ramdas Pophale) SiO2 
 PCOD8292253
Probable space group: I M M M
;
_chemical_formula_sum "Si O2"
_cell_formula_units_Z 96
_cell_length_a 29.811032
_cell_length_b 27.639428
_cell_length_c 8.902668
_cell_angle_alpha 90.000000
_cell_angle_beta 90.000000
_cell_angle_gamma 90.000000
_cell_volume 7335.441191
_symmetry_space_group_name_H-M "I M M M"
_symmetry_group_IT_number 71
_symmetry_cell_setting 'orthorhombic'
loop_
_space_group_symop_operation_xyz
x,y,z
-x,-y,z
x,-y,-z
-x,y,-z
-x,-y,-z
x,y,-z
-x,y,z
x,-y,z
1/2+x,1/2+y,1/2+z
1/2-x,1/2-y,1/2+z
1/2+x,1/2-y,1/2-z
1/2-x,1/2+y,1/2-z
1/2-x,1/2-y,1/2-z
1/2+x,1/2+y,1/2-z
1/2-x,1/2+y,1/2+z
1/2+x,1/2-y,1/2+z
loop_
_atom_site_type_symbol
_atom_site_label
_atom_site_fract_x
_atom_site_fract_y
_atom_site_fract_z
Si Si1 0.905827 0.500000 0.821312
Si Si2 0.633671 0.844393 0.677469
Si Si3 0.049595 0.597459 0.822269
Si Si4 0.196893 0.500000 0.178905
Si Si5 0.713877 0.098698 0.821991
Si Si6 0.767427 0.177543 0.332958
Si Si7 0.317767 0.752923 0.333581
O O1 0.931024 0.452787 0.756703
O O2 0.854666 0.500000 0.765984
O O3 0.906643 0.500000 0.000000
O O4 0.643223 0.852116 0.500000
O O5 0.582833 0.858538 0.721401
O O6 0.666965 0.879517 0.765672
O O7 0.641711 0.788041 0.722062
O O8 0.000000 0.607512 0.754746
O O9 0.046487 0.592780 0.000000
O O10 0.221500 0.546689 0.246775
O O11 0.201143 0.500000 0.000000
O O12 0.755668 0.132374 0.773156
O O13 0.713172 0.094167 0.000000
O O14 0.778178 0.158651 0.500000
O O15 0.726219 0.214160 0.335244
O O16 0.811188 0.206408 0.272544
O O17 0.327890 0.733171 0.500000
#
# Coordination Sequence:
#
# PCOD8292253 Si02
#       7
#     8  16  16   8  16  16  16
#     4   9  15  23  38  54  68  86 116 156 194 225
#     4   9  16  27  40  55  72  94 118 146 185 225
#     4   9  15  23  37  57  74  89 119 160 194 226
#     4  11  19  30  43  53  70  96 124 153 186 222
#     4  11  20  28  39  55  73  92 117 147 182 219
#     4   9  16  26  39  54  71  91 113 138 174 215
#     4   8  14  23  36  53  73  91 112 140 174 215
#
# _framework density 13.087147
#
# number of rings (size 3 to 8) (size 9 to 14) (size 15 to 20)
#    0.000    2.667    1.667    3.500    0.000    5.000 
#    0.000    0.000    0.000    0.500    0.000    1.167 
#    0.000    0.000    0.000    0.000    0.000    0.000 
#
# Total GULP energy -594909.562111 kJ/mol
# GULP energy per Si atom -12393.949211 kJ/mol
# Density = 1.305736 g / cm^3
# Si number density = 13.087147 Si / 1000 Ang^3
#
#
#
# Elastic Constant Matrix: (Units=GPa)
#
#
# Indices 1 2 3 4 5 6 
#
# 1 55.0327 51.3882 17.7910 0.0000 0.0000 0.0000
# 2 51.3882 84.4469 34.9075 0.0000 0.0000 0.0000
# 3 17.7910 34.9075 63.9520 0.0000 0.0000 0.0000
# 4 0.0000 0.0000 0.0000 20.0017 0.0000 0.0000
# 5 0.0000 0.0000 0.0000 0.0000 8.2516 0.0000
# 6 0.0000 0.0000 0.0000 0.0000 0.0000 19.8197
#
#
#
# Elastic Compliance Matrix: (Units=1/GPa)
#
#
# Indices 1 2 3 4 5 6 
#
# 1 0.042515 -0.027096 0.002963 0.000000 0.000000 0.000000
# 2 -0.027096 0.032562 -0.010235 0.000000 0.000000 0.000000
# 3 0.002963 -0.010235 0.020399 0.000000 0.000000 0.000000
# 4 0.000000 0.000000 0.000000 0.049996 0.000000 0.000000
# 5 0.000000 0.000000 0.000000 0.000000 0.121188 0.000000
# 6 0.000000 0.000000 0.000000 0.000000 0.000000 0.050455
#
#
# Mechanical properties :
#
#
# Convention : Reuss Voigt Hill
#
# Bulk Modulus (GPa) = 37.39950 45.73388 41.56669
# Shear Modulus (GPa) = 12.66573 16.23758 14.45166
#
# Velocity S-wave (km/s) = 3.11432 3.52622 3.32665
# Velocity P-wave (km/s) = 6.44758 7.18335 6.82539
#
# Compressibility (1/GPa) = 0.02673832
#
# Stress axis : x y z
#
# Youngs Moduli (GPa) = 23.52098 30.71096 49.02117
#
# Poissons Ratio (x) = 0.83216 -0.14524
# Poissons Ratio (y) = 0.63733 0.50175
# Poissons Ratio (z) = -0.06969 0.31434
#
# Static dielectric constant tensor:
#      x y z
#    x 2.552020 0.000000 0.000000 
#    y 0.000000 2.719050 0.000000 
#    z 0.000000 0.000000 2.563380 
# 
# 
# High freq. dielectric constant tensor:
#      x y z
#    x 1.451040 0.000000 0.000000 
#    y 0.000000 1.485940 0.000000 
#    z 0.000000 0.000000 1.488790 
# 
# From -- ./inp_files/17555.got.cif
#   From: 2010.06.25/outbox.cif.g09.slc.cpg/sg71_9_cif.got.tgz:17555.got - 2010.06.28 04:59:45.
