data_PCOD8292863
_publ_section_title
;
Structure prediction by ZEFSAII (Michael W. Deem and Ramdas Pophale) SiO2 
 PCOD8292863
Probable space group: I B A M
;
_chemical_formula_sum "Si O2"
_cell_formula_units_Z 96
_cell_length_a 26.383195
_cell_length_b 28.887029
_cell_length_c 8.761362
_cell_angle_alpha 90.000000
_cell_angle_beta 90.000000
_cell_angle_gamma 90.000000
_cell_volume 6677.315387
_symmetry_space_group_name_H-M "I B A M"
_symmetry_group_IT_number 72
_symmetry_cell_setting 'orthorhombic'
loop_
_space_group_symop_operation_xyz
x,y,z
-x,-y,z
x,-y,1/2-z
-x,y,1/2-z
-x,-y,-z
x,y,-z
-x,y,1/2+z
x,-y,1/2+z
1/2+x,1/2+y,1/2+z
1/2-x,1/2-y,1/2+z
1/2+x,1/2-y,-z
1/2-x,1/2+y,-z
1/2-x,1/2-y,1/2-z
1/2+x,1/2+y,1/2-z
1/2-x,1/2+y,z
1/2+x,1/2-y,z
loop_
_atom_site_type_symbol
_atom_site_label
_atom_site_fract_x
_atom_site_fract_y
_atom_site_fract_z
Si Si1 0.294853 0.720599 0.679192
Si Si2 0.747108 0.860360 0.819295
Si Si3 0.098840 0.451500 0.180029
Si Si4 0.947163 0.361671 0.181569
Si Si5 0.351643 0.806792 0.678621
Si Si6 0.784015 0.548186 0.179015
O O1 0.286355 0.714322 0.500000
O O2 0.250000 0.750000 0.750000
O O3 0.295154 0.670114 0.759058
O O4 0.345413 0.751550 0.712899
O O5 0.695723 0.836219 0.755294
O O6 0.750559 0.911623 0.750690
O O7 0.749427 0.863000 0.000000
O O8 0.080809 0.500000 0.250000
O O9 0.064758 0.412725 0.258263
O O10 0.157467 0.442479 0.221979
O O11 0.089604 0.451581 0.000000
O O12 0.904470 0.325978 0.245020
O O13 0.000000 0.344122 0.250000
O O14 0.950129 0.362369 0.000000
O O15 0.351074 0.816011 0.500000
O O16 0.765456 0.500000 0.250000
O O17 0.775418 0.546282 0.000000
#
# Coordination Sequence:
#
# PCOD8292863 Si02
#       6
#    16  16  16  16  16  16
#     4   9  16  27  42  63  82 103 129 160 201 244
#     4  10  17  28  44  63  83 107 132 163 202 243
#     4  10  20  33  47  62  76  99 132 171 215 255
#     4  11  21  34  47  61  79 103 133 171 212 254
#     4   8  16  29  44  58  79 104 128 162 205 245
#     4  10  19  29  43  62  83 108 137 169 204 247
#
# _framework density 14.377034999999999
#
# number of rings (size 3 to 8) (size 9 to 14) (size 15 to 20)
#    0.000    2.333    1.667    3.500    0.000    1.667 
#    0.000    4.167    0.000    0.000    0.000    0.000 
#    0.000    0.000    0.000    0.000    0.000    0.833 
#
# Total GULP energy -594981.742302 kJ/mol
# GULP energy per Si atom -12395.452965 kJ/mol
# Density = 1.434431 g / cm^3
# Si number density = 14.377035 Si / 1000 Ang^3
#
#
#
# Elastic Constant Matrix: (Units=GPa)
#
#
# Indices 1 2 3 4 5 6 
#
# 1 48.7478 49.0701 22.5922 0.0000 0.0000 0.0000
# 2 49.0701 111.6527 40.4639 0.0000 0.0000 0.0000
# 3 22.5922 40.4639 68.3331 0.0000 0.0000 0.0000
# 4 0.0000 0.0000 0.0000 25.5649 0.0000 0.0000
# 5 0.0000 0.0000 0.0000 0.0000 15.1489 0.0000
# 6 0.0000 0.0000 0.0000 0.0000 0.0000 20.6142
#
#
#
# Elastic Compliance Matrix: (Units=1/GPa)
#
#
# Indices 1 2 3 4 5 6 
#
# 1 0.037382 -0.015215 -0.003349 0.000000 0.000000 0.000000
# 2 -0.015215 0.017596 -0.005389 0.000000 0.000000 0.000000
# 3 -0.003349 -0.005389 0.018933 0.000000 0.000000 0.000000
# 4 0.000000 0.000000 0.000000 0.039116 0.000000 0.000000
# 5 0.000000 0.000000 0.000000 0.000000 0.066012 0.000000
# 6 0.000000 0.000000 0.000000 0.000000 0.000000 0.048510
#
#
# Mechanical properties :
#
#
# Convention : Reuss Voigt Hill
#
# Bulk Modulus (GPa) = 38.45665 50.33178 44.39422
# Shear Modulus (GPa) = 17.59793 20.03941 18.81867
#
# Velocity S-wave (km/s) = 3.50241 3.73748 3.62185
# Velocity P-wave (km/s) = 6.56982 7.32867 6.95960
#
# Compressibility (1/GPa) = 0.02600331
#
# Stress axis : x y z
#
# Youngs Moduli (GPa) = 26.75114 56.83001 52.81791
#
# Poissons Ratio (x) = 0.86467 0.17691
# Poissons Ratio (y) = 0.40702 0.28466
# Poissons Ratio (z) = 0.08960 0.30628
#
# Static dielectric constant tensor:
#      x y z
#    x 2.692200 0.000000 0.000000 
#    y 0.000000 3.053700 0.000000 
#    z 0.000000 0.000000 2.842250 
# 
# 
# High freq. dielectric constant tensor:
#      x y z
#    x 1.493570 0.000000 0.000000 
#    y 0.000000 1.548620 0.000000 
#    z 0.000000 0.000000 1.559260 
# 
# From -- ./inp_files/7093.got.cif
#   From: 2010.03.12/outbox.cif.g09.slc.cpg/sg72_4_cif.got.tgz:7093.got - 2010.04.16 14:54:00.
