data_PCOD8292012
_publ_section_title
;
Structure prediction by ZEFSAII (Michael W. Deem and Ramdas Pophale) SiO2 
 PCOD8292012
Probable space group: I M M M
;
_chemical_formula_sum "Si O2"
_cell_formula_units_Z 64
_cell_length_a 24.054224
_cell_length_b 15.553200
_cell_length_c 8.593423
_cell_angle_alpha 90.000000
_cell_angle_beta 90.000000
_cell_angle_gamma 90.000000
_cell_volume 3214.972759
_symmetry_space_group_name_H-M "I M M M"
_symmetry_group_IT_number 71
_symmetry_cell_setting 'orthorhombic'
loop_
_space_group_symop_operation_xyz
x,y,z
-x,-y,z
x,-y,-z
-x,y,-z
-x,-y,-z
x,y,-z
-x,y,z
x,-y,z
1/2+x,1/2+y,1/2+z
1/2-x,1/2-y,1/2+z
1/2+x,1/2-y,1/2-z
1/2-x,1/2+y,1/2-z
1/2-x,1/2-y,1/2-z
1/2+x,1/2+y,1/2-z
1/2-x,1/2+y,1/2+z
1/2+x,1/2-y,1/2+z
loop_
_atom_site_type_symbol
_atom_site_label
_atom_site_fract_x
_atom_site_fract_y
_atom_site_fract_z
Si Si1 0.000000 0.638788 0.184023
Si Si2 0.413034 0.000000 0.684055
Si Si3 0.725367 0.337012 0.316627
Si Si4 0.211524 0.500000 0.815067
Si Si5 0.384784 0.400555 0.183407
Si Si6 0.500000 0.325957 0.182736
O O1 0.054430 0.585580 0.237625
O O2 0.000000 0.726647 0.275898
O O3 0.000000 0.655975 0.000000
O O4 0.411286 0.000000 0.500000
O O5 0.351096 0.000000 0.753356
O O6 0.732458 0.338230 0.500000
O O7 0.750000 0.250000 0.250000
O O8 0.757996 0.415885 0.243228
O O9 0.660635 0.343372 0.271990
O O10 0.212108 0.500000 0.000000
O O11 0.375017 0.500000 0.223679
O O12 0.444950 0.372153 0.249147
O O13 0.379456 0.383583 0.000000
O O14 0.500000 0.338269 0.000000
#
# Coordination Sequence:
#
# PCOD8292012 Si02
#       6
#     8   8  16   8  16   8
#     4   9  18  37  59  86 118 158 200 245 295 357
#     4   8  18  36  60  84 117 159 200 239 296 363
#     4  12  26  43  64  93 127 167 213 261 313 373
#     4  11  22  41  66  95 127 166 208 256 318 379
#     4  10  21  41  65  88 122 163 202 250 311 374
#     4  10  22  37  59  93 122 154 200 251 309 368
#
# _framework density 19.906856999999999
#
# number of rings (size 3 to 8) (size 9 to 14) (size 15 to 20)
#    0.000    1.750    1.250    3.750    3.500    2.500 
#    0.000    2.500    0.000    2.250    0.000    0.000 
#    0.000    0.000    0.000    0.000    0.000    0.000 
#
# Total GULP energy -396871.956774 kJ/mol
# GULP energy per Si atom -12402.248649 kJ/mol
# Density = 1.986155 g / cm^3
# Si number density = 19.906857 Si / 1000 Ang^3
#
#
#
# Elastic Constant Matrix: (Units=GPa)
#
#
# Indices 1 2 3 4 5 6 
#
# 1 179.9217 68.1509 43.3191 0.0000 0.0000 0.0000
# 2 68.1509 137.5806 35.5285 0.0000 0.0000 0.0000
# 3 43.3191 35.5285 66.6234 0.0000 0.0000 0.0000
# 4 0.0000 0.0000 0.0000 34.1134 0.0000 0.0000
# 5 0.0000 0.0000 0.0000 0.0000 23.1253 0.0000
# 6 0.0000 0.0000 0.0000 0.0000 0.0000 -400.2585
#
#
#
# Elastic Compliance Matrix: (Units=1/GPa)
#
#
# Indices 1 2 3 4 5 6 
#
# 1 0.007427 -0.002820 -0.003325 0.000000 0.000000 0.000000
# 2 -0.002820 0.009500 -0.003232 0.000000 0.000000 0.000000
# 3 -0.003325 -0.003232 0.018895 0.000000 0.000000 0.000000
# 4 0.000000 0.000000 0.000000 0.029314 0.000000 0.000000
# 5 0.000000 0.000000 0.000000 0.000000 0.043243 0.000000
# 6 0.000000 0.000000 0.000000 0.000000 0.000000 -0.002498
#
#
# Mechanical properties :
#
#
# Convention : Reuss Voigt Hill
#
# Bulk Modulus (GPa) = 58.59240 75.34696 66.96968
# Shear Modulus (GPa) = 38.36555 -52.79549 -7.21497
#
# Velocity S-wave (km/s) = 4.39481 -5.15547 -1.90584
# Velocity P-wave (km/s) = 7.43301 1.57907 5.37323
#
# Compressibility (1/GPa) = 0.01706706
#
# Stress axis : x y z
#
# Youngs Moduli (GPa) = 134.64810 105.26066 52.92269
#
# Poissons Ratio (x) = 0.29686 0.17597
# Poissons Ratio (y) = 0.37974 0.17107
# Poissons Ratio (z) = 0.44770 0.34025
#
# Static dielectric constant tensor:
#      x y z
#    x 4.258330 0.000000 0.000000 
#    y 0.000000 3.526960 0.000000 
#    z 0.000000 0.000000 3.426950 
# 
# 
# High freq. dielectric constant tensor:
#      x y z
#    x 1.797760 0.000000 0.000000 
#    y 0.000000 1.785580 0.000000 
#    z 0.000000 0.000000 1.757760 
# 
# From -- ./inp_files/12029.got.cif
#   From: 2010.06.25/outbox.cif.g09.slc.cpg/sg71_7_cif.got.tgz:12029.got - 2010.06.28 04:59:45.
