data_PCOD8292939
_publ_section_title
;
Structure prediction by ZEFSAII (Michael W. Deem and Ramdas Pophale) SiO2 
 PCOD8292939
Probable space group: I B A M
;
_chemical_formula_sum "Si O2"
_cell_formula_units_Z 80
_cell_length_a 17.704187
_cell_length_b 19.417721
_cell_length_c 12.138428
_cell_angle_alpha 90.000000
_cell_angle_beta 90.000000
_cell_angle_gamma 90.000000
_cell_volume 4172.887645
_symmetry_space_group_name_H-M "I B A M"
_symmetry_group_IT_number 72
_symmetry_cell_setting 'orthorhombic'
loop_
_space_group_symop_operation_xyz
x,y,z
-x,-y,z
x,-y,1/2-z
-x,y,1/2-z
-x,-y,-z
x,y,-z
-x,y,1/2+z
x,-y,1/2+z
1/2+x,1/2+y,1/2+z
1/2-x,1/2-y,1/2+z
1/2+x,1/2-y,-z
1/2-x,1/2+y,-z
1/2-x,1/2-y,1/2-z
1/2+x,1/2+y,1/2-z
1/2-x,1/2+y,z
1/2+x,1/2-y,z
loop_
_atom_site_type_symbol
_atom_site_label
_atom_site_fract_x
_atom_site_fract_y
_atom_site_fract_z
Si Si1 0.344339 0.734756 0.624782
Si Si2 0.167457 0.541915 0.869772
Si Si3 0.249259 0.653975 0.770063
Si Si4 0.877035 0.388586 0.369924
Si Si5 0.042641 0.348924 0.371225
O O1 0.342589 0.706065 0.500000
O O2 0.330156 0.672688 0.713554
O O3 0.275935 0.790176 0.638329
O O4 0.425107 0.771756 0.647604
O O5 0.246006 0.576756 0.823584
O O6 0.148014 0.465289 0.826060
O O7 0.102795 0.594772 0.825084
O O8 0.171865 0.539196 0.000000
O O9 0.189027 0.662052 0.668415
O O10 0.884340 0.390276 0.500000
O O11 0.957968 0.360201 0.320238
O O12 0.035678 0.365220 0.500000
#
# Coordination Sequence:
#
# PCOD8292939 Si02
#       5
#    16  16  16  16  16
#     4   9  18  31  43  56  80 117 161 203 236 270
#     4   9  17  28  41  61  90 119 149 187 230 279
#     4  10  18  28  43  61  83 116 157 193 232 277
#     4  10  18  27  42  65  91 118 151 188 227 278
#     4   8  15  28  43  59  85 123 158 189 229 275
#
# _framework density 19.171375999999999
#
# number of rings (size 3 to 8) (size 9 to 14) (size 15 to 20)
#    0.000    2.800    0.000    3.600    0.000    5.600 
#    0.000    4.000    0.000    0.000    0.000    2.800 
#    0.000    0.000    0.000   88.200    0.000  763.400 
#
# Total GULP energy -495675.970797 kJ/mol
# GULP energy per Si atom -12391.899270 kJ/mol
# Density = 1.912774 g / cm^3
# Si number density = 19.171376 Si / 1000 Ang^3
#
#
#
# Elastic Constant Matrix: (Units=GPa)
#
#
# Indices 1 2 3 4 5 6 
#
# 1 47.0838 47.4333 29.6621 0.0000 0.0000 0.0000
# 2 47.4333 69.0982 34.2760 0.0000 0.0000 0.0000
# 3 29.6621 34.2760 70.9908 0.0000 0.0000 0.0000
# 4 0.0000 0.0000 0.0000 36.7464 0.0000 0.0000
# 5 0.0000 0.0000 0.0000 0.0000 30.4603 0.0000
# 6 0.0000 0.0000 0.0000 0.0000 0.0000 34.3294
#
#
#
# Elastic Compliance Matrix: (Units=1/GPa)
#
#
# Indices 1 2 3 4 5 6 
#
# 1 0.072328 -0.045575 -0.008216 0.000000 0.000000 0.000000
# 2 -0.045575 0.047747 -0.004011 0.000000 0.000000 0.000000
# 3 -0.008216 -0.004011 0.019456 0.000000 0.000000 0.000000
# 4 0.000000 0.000000 0.000000 0.027214 0.000000 0.000000
# 5 0.000000 0.000000 0.000000 0.000000 0.032830 0.000000
# 6 0.000000 0.000000 0.000000 0.000000 0.000000 0.029130
#
#
# Mechanical properties :
#
#
# Convention : Reuss Voigt Hill
#
# Bulk Modulus (GPa) = 41.79356 45.54617 43.66987
# Shear Modulus (GPa) = 14.19312 25.36066 19.77689
#
# Velocity S-wave (km/s) = 2.72385 3.64103 3.21531
# Velocity P-wave (km/s) = 5.63381 6.44089 6.05082
#
# Compressibility (1/GPa) = 0.02392713
#
# Stress axis : x y z
#
# Youngs Moduli (GPa) = 13.82592 20.94362 51.39836
#
# Poissons Ratio (x) = 0.95450 0.42230
# Poissons Ratio (y) = 0.63011 0.20616
# Poissons Ratio (z) = 0.11360 0.08400
#
# Static dielectric constant tensor:
#      x y z
#    x 3.284040 0.000000 0.000000 
#    y 0.000000 3.459050 0.000000 
#    z 0.000000 0.000000 3.979470 
# 
# 
# High freq. dielectric constant tensor:
#      x y z
#    x 1.686830 0.000000 0.000000 
#    y 0.000000 1.714650 0.000000 
#    z 0.000000 0.000000 1.814150 
# 
# From -- ./inp_files/21578.got.cif
#   From: 2010.03.12/outbox.cif.g09.slc.cpg/sg72_11_cif.got.tgz:21578.got - 2010.04.16 14:54:00.
