data_PCOD8292755
_publ_section_title
;
Structure prediction by ZEFSAII (Michael W. Deem and Ramdas Pophale) SiO2 
 PCOD8292755
Probable space group: I M M M
;
_chemical_formula_sum "Si O2"
_cell_formula_units_Z 72
_cell_length_a 33.786396
_cell_length_b 14.384441
_cell_length_c 9.311426
_cell_angle_alpha 90.000000
_cell_angle_beta 90.000000
_cell_angle_gamma 90.000000
_cell_volume 4525.338323
_symmetry_space_group_name_H-M "I M M M"
_symmetry_group_IT_number 71
_symmetry_cell_setting 'orthorhombic'
loop_
_space_group_symop_operation_xyz
x,y,z
-x,-y,z
x,-y,-z
-x,y,-z
-x,-y,-z
x,y,-z
-x,y,z
x,-y,z
1/2+x,1/2+y,1/2+z
1/2-x,1/2-y,1/2+z
1/2+x,1/2-y,1/2-z
1/2-x,1/2+y,1/2-z
1/2-x,1/2-y,1/2-z
1/2+x,1/2+y,1/2-z
1/2-x,1/2+y,1/2+z
1/2+x,1/2-y,1/2+z
loop_
_atom_site_type_symbol
_atom_site_label
_atom_site_fract_x
_atom_site_fract_y
_atom_site_fract_z
Si Si1 0.653692 0.211717 0.168183
Si Si2 0.076761 0.608571 0.332037
Si Si3 0.191503 0.896286 0.332622
Si Si4 0.500000 0.110314 0.338021
Si Si5 0.269719 0.108133 0.164827
O O1 0.613591 0.167737 0.231759
O O2 0.656525 0.322437 0.201945
O O3 0.692670 0.161855 0.231679
O O4 0.652883 0.190581 0.000000
O O5 0.069197 0.627340 0.500000
O O6 0.085242 0.500000 0.303963
O O7 0.038722 0.645437 0.245876
O O8 0.201743 0.894814 0.500000
O O9 0.230911 0.863278 0.252428
O O10 0.178044 0.000000 0.283589
O O11 0.500000 0.150271 0.500000
O O12 0.500000 0.000000 0.339532
O O13 0.278955 0.000000 0.180977
O O14 0.262264 0.136381 0.000000
#
# Coordination Sequence:
#
# PCOD8292755 Si02
#       5
#    16  16  16   8  16
#     4   9  16  26  41  60  80 103 134 170 201 229
#     4   9  16  27  44  63  81 104 134 162 189 229
#     4   9  17  28  40  55  78 108 138 167 201 237
#     4   9  17  29  43  61  88 113 126 146 189 241
#     4   9  16  26  40  57  78 105 136 169 202 234
#
# _framework density 15.910413
#
# number of rings (size 3 to 8) (size 9 to 14) (size 15 to 20)
#    0.000    3.000    0.000    1.667    0.000    4.000 
#    0.000    2.222    0.000    5.333    0.000    0.778 
#    0.000    6.222    0.000    0.000    0.000    0.000 
#
# Total GULP energy -446245.607311 kJ/mol
# GULP energy per Si atom -12395.711314 kJ/mol
# Density = 1.587420 g / cm^3
# Si number density = 15.910413 Si / 1000 Ang^3
#
#
#
# Elastic Constant Matrix: (Units=GPa)
#
#
# Indices 1 2 3 4 5 6 
#
# 1 130.1525 66.8590 42.4829 0.0000 0.0000 0.0000
# 2 66.8590 72.8759 25.2240 0.0000 0.0000 0.0000
# 3 42.4829 25.2240 44.4564 0.0000 0.0000 0.0000
# 4 0.0000 0.0000 0.0000 11.8985 0.0000 0.0000
# 5 0.0000 0.0000 0.0000 0.0000 19.4707 0.0000
# 6 0.0000 0.0000 0.0000 0.0000 0.0000 22.9620
#
#
#
# Elastic Compliance Matrix: (Units=1/GPa)
#
#
# Indices 1 2 3 4 5 6 
#
# 1 0.017140 -0.012513 -0.009279 0.000000 0.000000 0.000000
# 2 -0.012513 0.026211 -0.002914 0.000000 0.000000 0.000000
# 3 -0.009279 -0.002914 0.033015 0.000000 0.000000 0.000000
# 4 0.000000 0.000000 0.000000 0.084044 0.000000 0.000000
# 5 0.000000 0.000000 0.000000 0.000000 0.051359 0.000000
# 6 0.000000 0.000000 0.000000 0.000000 0.000000 0.043550
#
#
# Mechanical properties :
#
#
# Convention : Reuss Voigt Hill
#
# Bulk Modulus (GPa) = 37.10229 57.40184 47.25207
# Shear Modulus (GPa) = 15.93798 18.39418 17.16608
#
# Velocity S-wave (km/s) = 3.16845 3.40385 3.28826
# Velocity P-wave (km/s) = 6.06264 7.18364 6.64681
#
# Compressibility (1/GPa) = 0.02695251
#
# Stress axis : x y z
#
# Youngs Moduli (GPa) = 58.34233 38.15251 30.28949
#
# Poissons Ratio (x) = 0.47741 0.28107
# Poissons Ratio (y) = 0.73005 0.08826
# Poissons Ratio (z) = 0.54139 0.11117
#
# Static dielectric constant tensor:
#      x y z
#    x 3.060830 0.000000 0.000000 
#    y 0.000000 3.053090 0.000000 
#    z 0.000000 0.000000 2.901570 
# 
# 
# High freq. dielectric constant tensor:
#      x y z
#    x 1.597340 0.000000 0.000000 
#    y 0.000000 1.598300 0.000000 
#    z 0.000000 0.000000 1.589210 
# 
# From -- ./inp_files/6436.got.cif
#   From: 2010.06.25/outbox.cif.g09.slc.cpg/sg71_4_cif.got.tgz:6436.got - 2010.06.28 04:59:45.
