data_PCOD8292698
_publ_section_title
;
Structure prediction by ZEFSAII (Michael W. Deem and Ramdas Pophale) SiO2 
 PCOD8292698
Probable space group: I M M M
;
_chemical_formula_sum "Si O2"
_cell_formula_units_Z 96
_cell_length_a 30.518901
_cell_length_b 9.433764
_cell_length_c 19.754169
_cell_angle_alpha 90.000000
_cell_angle_beta 90.000000
_cell_angle_gamma 90.000000
_cell_volume 5687.385453
_symmetry_space_group_name_H-M "I M M M"
_symmetry_group_IT_number 71
_symmetry_cell_setting 'orthorhombic'
loop_
_space_group_symop_operation_xyz
x,y,z
-x,-y,z
x,-y,-z
-x,y,-z
-x,-y,-z
x,y,-z
-x,y,z
x,-y,z
1/2+x,1/2+y,1/2+z
1/2-x,1/2-y,1/2+z
1/2+x,1/2-y,1/2-z
1/2-x,1/2+y,1/2-z
1/2-x,1/2-y,1/2-z
1/2+x,1/2+y,1/2-z
1/2-x,1/2+y,1/2+z
1/2+x,1/2-y,1/2+z
loop_
_atom_site_type_symbol
_atom_site_label
_atom_site_fract_x
_atom_site_fract_y
_atom_site_fract_z
Si Si1 0.789588 0.657652 0.419479
Si Si2 0.374251 0.334367 0.578566
Si Si3 0.948941 0.162292 0.674777
Si Si4 0.451758 0.331716 0.673118
Si Si5 0.290257 0.159451 0.580554
Si Si6 0.112776 0.667185 0.576993
O O1 0.786984 0.651424 0.500000
O O2 0.779913 0.500000 0.390793
O O3 0.753511 0.766114 0.390090
O O4 0.838194 0.708384 0.398148
O O5 0.383874 0.305373 0.500000
O O6 0.365377 0.500000 0.592084
O O7 0.415959 0.275633 0.619981
O O8 0.332287 0.248078 0.604861
O O9 0.939165 0.216140 0.750998
O O10 0.922324 0.257618 0.623456
O O11 0.000000 0.178854 0.658024
O O12 0.934056 0.000000 0.666089
O O13 0.500000 0.271462 0.653498
O O14 0.453909 0.500000 0.670971
O O15 0.288443 0.157634 0.500000
O O16 0.292951 0.000000 0.609544
O O17 0.105519 0.718278 0.500000
O O18 0.106107 0.500000 0.582313
#
# Coordination Sequence:
#
# PCOD8292698 Si02
#       6
#    16  16  16  16  16  16
#     4   8  14  26  43  62  86 115 145 177 216 262
#     4   9  16  26  44  69  92 116 148 185 224 263
#     4   9  18  32  48  65  88 120 153 183 219 265
#     4   8  15  29  47  66  89 117 150 187 224 262
#     4   9  16  25  39  62  92 121 146 176 216 261
#     4   9  18  31  47  69  94 117 144 184 229 264
#
# _framework density 16.879460000000002
#
# number of rings (size 3 to 8) (size 9 to 14) (size 15 to 20)
#    0.000    3.333    0.000    2.500    0.000    4.000 
#    0.000    5.833    0.000    2.500    0.000    2.333 
#    0.000    0.000    0.000    0.000    0.000    0.000 
#
# Total GULP energy -594968.961438 kJ/mol
# GULP energy per Si atom -12395.186697 kJ/mol
# Density = 1.684104 g / cm^3
# Si number density = 16.879460 Si / 1000 Ang^3
#
#
#
# Elastic Constant Matrix: (Units=GPa)
#
#
# Indices 1 2 3 4 5 6 
#
# 1 125.2497 55.6853 58.3601 0.0000 0.0000 0.0000
# 2 55.6853 64.0841 31.8949 0.0000 0.0000 0.0000
# 3 58.3601 31.8949 57.2430 0.0000 0.0000 0.0000
# 4 0.0000 0.0000 0.0000 12.6261 0.0000 0.0000
# 5 0.0000 0.0000 0.0000 0.0000 0.9220 0.0000
# 6 0.0000 0.0000 0.0000 0.0000 0.0000 24.5462
#
#
#
# Elastic Compliance Matrix: (Units=1/GPa)
#
#
# Indices 1 2 3 4 5 6 
#
# 1 0.018463 -0.009236 -0.013677 0.000000 0.000000 0.000000
# 2 -0.009236 0.026213 -0.005189 0.000000 0.000000 0.000000
# 3 -0.013677 -0.005189 0.034305 0.000000 0.000000 0.000000
# 4 0.000000 0.000000 0.000000 0.079201 0.000000 0.000000
# 5 0.000000 0.000000 0.000000 0.000000 1.084575 0.000000
# 6 0.000000 0.000000 0.000000 0.000000 0.000000 0.040739
#
#
# Mechanical properties :
#
#
# Convention : Reuss Voigt Hill
#
# Bulk Modulus (GPa) = 43.90589 59.82860 51.86724
# Shear Modulus (GPa) = 3.71114 14.32797 9.01956
#
# Velocity S-wave (km/s) = 1.48438 2.91665 2.31411
# Velocity P-wave (km/s) = 5.38570 6.84573 6.15913
#
# Compressibility (1/GPa) = 0.02277599
#
# Stress axis : x y z
#
# Youngs Moduli (GPa) = 54.16099 38.14927 29.15041
#
# Poissons Ratio (x) = 0.35236 0.39870
# Poissons Ratio (y) = 0.50025 0.15126
# Poissons Ratio (z) = 0.74078 0.19795
#
# Static dielectric constant tensor:
#      x y z
#    x 3.476560 0.000000 0.000000 
#    y 0.000000 3.071360 0.000000 
#    z 0.000000 0.000000 2.874610 
# 
# 
# High freq. dielectric constant tensor:
#      x y z
#    x 1.662770 0.000000 0.000000 
#    y 0.000000 1.633100 0.000000 
#    z 0.000000 0.000000 1.611080 
# 
# From -- ./inp_files/57886.got.cif
#   From: 2010.06.25/outbox.cif.g09.slc.cpg/sg71_29_cif.got.tgz:57886.got - 2010.06.28 04:59:45.
