data_PCOD8292224
_publ_section_title
;
Structure prediction by ZEFSAII (Michael W. Deem and Ramdas Pophale) SiO2 
 PCOD8292224
Probable space group: I M M M
;
_chemical_formula_sum "Si O2"
_cell_formula_units_Z 104
_cell_length_a 8.669124
_cell_length_b 29.533213
_cell_length_c 20.056101
_cell_angle_alpha 90.000000
_cell_angle_beta 90.000000
_cell_angle_gamma 90.000000
_cell_volume 5134.905088
_symmetry_space_group_name_H-M "I M M M"
_symmetry_group_IT_number 71
_symmetry_cell_setting 'orthorhombic'
loop_
_space_group_symop_operation_xyz
x,y,z
-x,-y,z
x,-y,-z
-x,y,-z
-x,-y,-z
x,y,-z
-x,y,z
x,-y,z
1/2+x,1/2+y,1/2+z
1/2-x,1/2-y,1/2+z
1/2+x,1/2-y,1/2-z
1/2-x,1/2+y,1/2-z
1/2-x,1/2-y,1/2-z
1/2+x,1/2+y,1/2-z
1/2-x,1/2+y,1/2+z
1/2+x,1/2-y,1/2+z
loop_
_atom_site_type_symbol
_atom_site_label
_atom_site_fract_x
_atom_site_fract_y
_atom_site_fract_z
Si Si1 0.826727 0.831206 0.388600
Si Si2 0.680042 0.130436 0.140432
Si Si3 0.681240 0.229165 0.500000
Si Si4 0.678889 0.080220 0.351699
Si Si5 0.677950 0.825965 0.000000
Si Si6 0.179128 0.000000 0.571743
Si Si7 0.672744 0.297948 0.739645
Si Si8 0.318104 0.552807 0.283912
O O1 0.755142 0.791718 0.433367
O O2 0.715528 0.874357 0.392469
O O3 0.833173 0.819440 0.311749
O O4 0.000000 0.842035 0.414284
O O5 0.500000 0.122095 0.152535
O O6 0.732344 0.170874 0.189085
O O7 0.770465 0.082857 0.152041
O O8 0.715627 0.144072 0.064598
O O9 0.500000 0.220148 0.500000
O O10 0.713576 0.282310 0.500000
O O11 0.500000 0.069199 0.356740
O O12 0.730547 0.079425 0.274945
O O13 0.778347 0.042977 0.386734
O O14 0.500000 0.809848 0.000000
O O15 0.263983 0.000000 0.500000
O O16 0.000000 0.000000 0.560349
O O17 0.500000 0.292074 0.710797
O O18 0.750000 0.250000 0.750000
O O19 0.500000 0.555544 0.271769
O O20 0.266448 0.500000 0.291249
#
# Coordination Sequence:
#
# PCOD8292224 Si02
#       8
#    16  16   8  16   8   8  16  16
#     4  11  24  42  62  86 125 170 209 256 318 378
#     4  11  23  41  67  95 128 166 215 268 324 391
#     4  12  26  42  64  94 126 168 222 271 314 379
#     4  12  24  39  63  92 124 161 211 267 313 368
#     4  10  24  46  67  93 129 172 210 256 330 401
#     4  11  25  43  63  87 123 170 213 254 314 380
#     4  11  23  38  61  91 125 162 208 260 316 377
#     4  11  23  41  66  95 130 168 211 262 327 393
#
# _framework density 20.253539
#
# number of rings (size 3 to 8) (size 9 to 14) (size 15 to 20)
#    0.000    0.846    2.308    5.077    1.077    8.308 
#    0.000    0.385    0.000    2.308    0.000    0.000 
#    0.000    0.000    0.000    0.000    0.000    0.000 
#
# Total GULP energy -644855.637648 kJ/mol
# GULP energy per Si atom -12401.069955 kJ/mol
# Density = 2.020744 g / cm^3
# Si number density = 20.253539 Si / 1000 Ang^3
#
#
#
# Elastic Constant Matrix: (Units=GPa)
#
#
# Indices 1 2 3 4 5 6 
#
# 1 97.5041 28.0223 26.9734 0.0000 0.0000 0.0000
# 2 28.0223 108.1356 25.0244 0.0000 0.0000 0.0000
# 3 26.9734 25.0244 100.2978 0.0001 0.0000 0.0000
# 4 0.0000 0.0000 0.0001 22.2167 0.0000 0.0000
# 5 0.0000 0.0000 0.0000 0.0000 21.6545 0.0000
# 6 0.0000 0.0000 0.0000 0.0000 0.0000 28.1292
#
#
#
# Elastic Compliance Matrix: (Units=1/GPa)
#
#
# Indices 1 2 3 4 5 6 
#
# 1 0.011655 -0.002436 -0.002527 0.000000 0.000000 0.000000
# 2 -0.002436 0.010323 -0.001921 0.000000 0.000000 0.000000
# 3 -0.002527 -0.001921 0.011129 0.000000 0.000000 0.000000
# 4 0.000000 0.000000 0.000000 0.045011 0.000000 0.000000
# 5 0.000000 0.000000 0.000000 0.000000 0.046180 0.000000
# 6 0.000000 0.000000 0.000000 0.000000 0.000000 0.035550
#
#
# Mechanical properties :
#
#
# Convention : Reuss Voigt Hill
#
# Bulk Modulus (GPa) = 51.70265 51.77531 51.73898
# Shear Modulus (GPa) = 27.76828 29.46123 28.61476
#
# Velocity S-wave (km/s) = 3.70676 3.81809 3.76284
# Velocity P-wave (km/s) = 6.62595 6.71239 6.66931
#
# Compressibility (1/GPa) = 0.01934137
#
# Stress axis : x y z
#
# Youngs Moduli (GPa) = 85.80054 96.86856 89.85500
#
# Poissons Ratio (x) = 0.23593 0.22704
# Poissons Ratio (y) = 0.20897 0.17258
# Poissons Ratio (z) = 0.21679 0.18605
#
# Static dielectric constant tensor:
#      x y z
#    x 3.853610 0.000000 0.000000 
#    y 0.000000 3.479490 0.000000 
#    z 0.000000 0.000000 3.813130 
# 
# 
# High freq. dielectric constant tensor:
#      x y z
#    x 1.803770 0.000000 0.000000 
#    y 0.000000 1.799650 0.000000 
#    z 0.000000 0.000000 1.791300 
# 
# From -- ./inp_files/50957.got.cif
#   From: 2010.06.25/outbox.cif.g09.slc.cpg/sg71_26_cif.got.tgz:50957.got - 2010.06.28 04:59:45.
