data_PCOD8292882
_publ_section_title
;
Structure prediction by ZEFSAII (Michael W. Deem and Ramdas Pophale) SiO2 
 PCOD8292882
Probable space group: I B A M
;
_chemical_formula_sum "Si O2"
_cell_formula_units_Z 80
_cell_length_a 14.517842
_cell_length_b 17.708323
_cell_length_c 16.369780
_cell_angle_alpha 90.000000
_cell_angle_beta 90.000000
_cell_angle_gamma 90.000000
_cell_volume 4208.451662
_symmetry_space_group_name_H-M "I B A M"
_symmetry_group_IT_number 72
_symmetry_cell_setting 'orthorhombic'
loop_
_space_group_symop_operation_xyz
x,y,z
-x,-y,z
x,-y,1/2-z
-x,y,1/2-z
-x,-y,-z
x,y,-z
-x,y,1/2+z
x,-y,1/2+z
1/2+x,1/2+y,1/2+z
1/2-x,1/2-y,1/2+z
1/2+x,1/2-y,-z
1/2-x,1/2+y,-z
1/2-x,1/2-y,1/2-z
1/2+x,1/2+y,1/2-z
1/2-x,1/2+y,z
1/2+x,1/2-y,z
loop_
_atom_site_type_symbol
_atom_site_label
_atom_site_fract_x
_atom_site_fract_y
_atom_site_fract_z
Si Si1 0.452467 0.926845 0.663456
Si Si2 0.851498 0.817424 0.908820
Si Si3 0.772881 0.793719 0.331689
Si Si4 0.525921 0.759258 0.155328
Si Si5 0.254173 0.577691 0.219940
O O1 0.500000 0.922455 0.750000
O O2 0.469498 0.845564 0.619618
O O3 0.343147 0.937253 0.675518
O O4 0.500000 0.000000 0.617276
O O5 0.790148 0.741204 0.902686
O O6 0.955863 0.792077 0.894665
O O7 0.821962 0.880997 0.843658
O O8 0.841672 0.850816 0.000000
O O9 0.750000 0.750000 0.250000
O O10 0.745172 0.878606 0.307070
O O11 0.878063 0.783353 0.357277
O O12 0.500000 0.761802 0.250000
O O13 0.299506 0.500000 0.250000
#
# Coordination Sequence:
#
# PCOD8292882 Si02
#       5
#    16  16  16  16  16
#     4  10  17  28  55  94 122 141 188 257 304 348
#     4  11  24  39  58  90 128 159 202 259 309 359
#     4  10  18  36  61  87 113 160 210 247 287 367
#     4  11  18  35  62  87 116 158 213 251 291 365
#     4  11  20  37  62  89 120 161 204 248 302 368
#
# _framework density 19.009367000000001
#
# number of rings (size 3 to 8) (size 9 to 14) (size 15 to 20)
#    0.000    1.400   10.000    1.200    0.000    0.800 
#    0.000    3.000    0.000    2.400    0.000    0.000 
#    0.000    0.000    0.000    0.000    0.000    0.000 
#
# Total GULP energy -495546.250836 kJ/mol
# GULP energy per Si atom -12388.656271 kJ/mol
# Density = 1.896610 g / cm^3
# Si number density = 19.009367 Si / 1000 Ang^3
#
#
#
# Elastic Constant Matrix: (Units=GPa)
#
#
# Indices 1 2 3 4 5 6 
#
# 1 139.2727 40.8486 19.5205 0.0000 0.0000 0.0000
# 2 40.8486 138.2439 30.8034 0.0000 0.0000 0.0000
# 3 19.5205 30.8034 62.0841 0.0000 0.0000 0.0000
# 4 0.0000 0.0000 0.0000 10.0791 0.0000 0.0000
# 5 0.0000 0.0000 0.0000 0.0000 13.3421 0.0000
# 6 0.0000 0.0000 0.0000 0.0000 0.0000 32.0782
#
#
#
# Elastic Compliance Matrix: (Units=1/GPa)
#
#
# Indices 1 2 3 4 5 6 
#
# 1 0.007985 -0.002024 -0.001507 0.000000 0.000000 0.000000
# 2 -0.002024 0.008646 -0.003653 0.000000 0.000000 0.000000
# 3 -0.001507 -0.003653 0.018393 0.000000 0.000000 0.000000
# 4 0.000000 0.000000 0.000000 0.099215 0.000000 0.000000
# 5 0.000000 0.000000 0.000000 0.000000 0.074951 0.000000
# 6 0.000000 0.000000 0.000000 0.000000 0.000000 0.031174
#
#
# Mechanical properties :
#
#
# Convention : Reuss Voigt Hill
#
# Bulk Modulus (GPa) = 48.40995 57.99396 53.20195
# Shear Modulus (GPa) = 19.11197 27.66175 23.38686
#
# Velocity S-wave (km/s) = 3.17424 3.81880 3.51134
# Velocity P-wave (km/s) = 6.24148 7.07239 6.66988
#
# Compressibility (1/GPa) = 0.02065691
#
# Stress axis : x y z
#
# Youngs Moduli (GPa) = 125.23696 115.66602 54.36715
#
# Poissons Ratio (x) = 0.23407 0.08191
# Poissons Ratio (y) = 0.25344 0.19862
# Poissons Ratio (z) = 0.18867 0.42256
#
# Static dielectric constant tensor:
#      x y z
#    x 3.488410 0.000000 0.000000 
#    y 0.000000 3.982090 0.000000 
#    z 0.000000 0.000000 2.629280 
# 
# 
# High freq. dielectric constant tensor:
#      x y z
#    x 1.746810 0.000000 0.000000 
#    y 0.000000 1.738880 0.000000 
#    z 0.000000 0.000000 1.685900 
# 
# From -- ./inp_files/30439.got.cif
#   From: 2010.03.12/outbox.cif.g09.slc.cpg/sg72_16_cif.got.tgz:30439.got - 2010.04.16 14:54:00.
