data_PCOD8292530
_publ_section_title
;
Structure prediction by ZEFSAII (Michael W. Deem and Ramdas Pophale) SiO2 
 PCOD8292530
Probable space group: I M M M
;
_chemical_formula_sum "Si O2"
_cell_formula_units_Z 88
_cell_length_a 19.825794
_cell_length_b 24.532415
_cell_length_c 8.904774
_cell_angle_alpha 90.000000
_cell_angle_beta 90.000000
_cell_angle_gamma 90.000000
_cell_volume 4331.055947
_symmetry_space_group_name_H-M "I M M M"
_symmetry_group_IT_number 71
_symmetry_cell_setting 'orthorhombic'
loop_
_space_group_symop_operation_xyz
x,y,z
-x,-y,z
x,-y,-z
-x,y,-z
-x,-y,-z
x,y,-z
-x,y,z
x,-y,z
1/2+x,1/2+y,1/2+z
1/2-x,1/2-y,1/2+z
1/2+x,1/2-y,1/2-z
1/2-x,1/2+y,1/2-z
1/2-x,1/2-y,1/2-z
1/2+x,1/2+y,1/2-z
1/2-x,1/2+y,1/2+z
1/2+x,1/2-y,1/2+z
loop_
_atom_site_type_symbol
_atom_site_label
_atom_site_fract_x
_atom_site_fract_y
_atom_site_fract_z
Si Si1 0.677306 0.586831 0.322321
Si Si2 0.925614 0.744159 0.334898
Si Si3 0.579977 0.500000 0.821837
Si Si4 0.694832 0.711069 0.673736
Si Si5 0.925980 0.615685 0.666883
Si Si6 0.190419 0.440001 0.833119
O O1 0.664981 0.584402 0.500000
O O2 0.614701 0.555031 0.244621
O O3 0.688810 0.649104 0.264894
O O4 0.746530 0.557593 0.278914
O O5 0.900479 0.764389 0.500000
O O6 0.878178 0.763670 0.201483
O O7 0.928146 0.679915 0.336419
O O8 0.000000 0.767974 0.302817
O O9 0.500000 0.500000 0.781573
O O10 0.591017 0.500000 0.000000
O O11 0.713348 0.709961 0.500000
O O12 0.750000 0.750000 0.750000
O O13 0.908724 0.593331 0.500000
O O14 0.868446 0.599815 0.782239
O O15 0.000000 0.593674 0.716687
O O16 0.158474 0.500000 0.835997
O O17 0.214247 0.422161 0.000000
#
# Coordination Sequence:
#
# PCOD8292530 Si02
#       6
#    16  16   8  16  16  16
#     4  11  24  42  64  89 121 161 205 252 306 371
#     4   9  19  37  59  83 114 152 193 238 291 351
#     4  11  25  45  69  97 126 159 206 263 323 383
#     4  11  24  39  59  91 125 160 204 253 306 367
#     4   9  19  36  57  82 114 154 199 242 287 346
#     4  11  23  37  56  83 115 150 193 245 297 348
#
# _framework density 20.318370000000002
#
# number of rings (size 3 to 8) (size 9 to 14) (size 15 to 20)
#    0.000    1.727    0.909    4.091    0.000   11.636 
#    0.000    7.273    0.000    0.000    0.000    0.000 
#    0.000    0.000    0.000    0.000    0.000    0.000 
#
# Total GULP energy -545333.409104 kJ/mol
# GULP energy per Si atom -12393.941116 kJ/mol
# Density = 2.027212 g / cm^3
# Si number density = 20.318370 Si / 1000 Ang^3
#
#
#
# Elastic Constant Matrix: (Units=GPa)
#
#
# Indices 1 2 3 4 5 6 
#
# 1 129.1389 51.8557 45.8266 0.0000 0.0000 0.0000
# 2 51.8557 99.4356 42.9455 0.0000 0.0000 0.0000
# 3 45.8266 42.9455 79.2610 0.0000 0.0000 0.0000
# 4 0.0000 0.0000 0.0000 28.7208 0.0000 0.0000
# 5 0.0000 0.0000 0.0000 0.0000 34.3688 0.0000
# 6 0.0000 0.0000 0.0000 0.0000 0.0000 34.3020
#
#
#
# Elastic Compliance Matrix: (Units=1/GPa)
#
#
# Indices 1 2 3 4 5 6 
#
# 1 0.010746 -0.003813 -0.004147 0.000000 0.000000 0.000000
# 2 -0.003813 0.014482 -0.005642 0.000000 0.000000 0.000000
# 3 -0.004147 -0.005642 0.018071 0.000000 0.000000 0.000000
# 4 0.000000 0.000000 0.000000 0.034818 0.000000 0.000000
# 5 0.000000 0.000000 0.000000 0.000000 0.029096 0.000000
# 6 0.000000 0.000000 0.000000 0.000000 0.000000 0.029153
#
#
# Mechanical properties :
#
#
# Convention : Reuss Voigt Hill
#
# Bulk Modulus (GPa) = 62.13117 65.45456 63.79286
# Shear Modulus (GPa) = 29.59684 30.62549 30.11117
#
# Velocity S-wave (km/s) = 3.82075 3.88658 3.85381
# Velocity P-wave (km/s) = 7.07880 7.24052 7.16012
#
# Compressibility (1/GPa) = 0.01609498
#
# Stress axis : x y z
#
# Youngs Moduli (GPa) = 93.05378 69.05086 55.33593
#
# Poissons Ratio (x) = 0.26330 0.22949
# Poissons Ratio (y) = 0.35482 0.31221
# Poissons Ratio (z) = 0.38592 0.38959
#
# Static dielectric constant tensor:
#      x y z
#    x 3.914980 0.000000 0.000000 
#    y 0.000000 3.764850 0.000000 
#    z 0.000000 0.000000 3.770040 
# 
# 
# High freq. dielectric constant tensor:
#      x y z
#    x 1.799410 0.000000 0.000000 
#    y 0.000000 1.792400 0.000000 
#    z 0.000000 0.000000 1.793230 
# 
# From -- ./inp_files/10414.got.cif
#   From: 2010.06.25/outbox.cif.g09.slc.cpg/sg71_6_cif.got.tgz:10414.got - 2010.06.28 04:59:45.
