data_PCOD8292925
_publ_section_title
;
Structure prediction by ZEFSAII (Michael W. Deem and Ramdas Pophale) SiO2 
 PCOD8292925
Probable space group: I B A M
;
_chemical_formula_sum "Si O2"
_cell_formula_units_Z 56
_cell_length_a 9.820090
_cell_length_b 16.694945
_cell_length_c 17.328650
_cell_angle_alpha 90.000000
_cell_angle_beta 90.000000
_cell_angle_gamma 90.000000
_cell_volume 2840.960469
_symmetry_space_group_name_H-M "I B A M"
_symmetry_group_IT_number 72
_symmetry_cell_setting 'orthorhombic'
loop_
_space_group_symop_operation_xyz
x,y,z
-x,-y,z
x,-y,1/2-z
-x,y,1/2-z
-x,-y,-z
x,y,-z
-x,y,1/2+z
x,-y,1/2+z
1/2+x,1/2+y,1/2+z
1/2-x,1/2-y,1/2+z
1/2+x,1/2-y,-z
1/2-x,1/2+y,-z
1/2-x,1/2-y,1/2-z
1/2+x,1/2+y,1/2-z
1/2-x,1/2+y,z
1/2+x,1/2-y,z
loop_
_atom_site_type_symbol
_atom_site_label
_atom_site_fract_x
_atom_site_fract_y
_atom_site_fract_z
Si Si1 0.170287 0.175098 0.414098
Si Si2 0.105861 0.780972 0.354091
Si Si3 0.500000 0.855651 0.250000
Si Si4 0.215427 0.088623 0.260864
O O1 0.209859 0.145455 0.500000
O O2 0.251809 0.258069 0.395493
O O3 0.209229 0.107748 0.351854
O O4 0.007131 0.187785 0.413625
O O5 0.128592 0.845738 0.286148
O O6 0.044433 0.699564 0.320611
O O7 0.629564 0.910739 0.228882
O O8 0.154038 0.000000 0.250000
#
# Coordination Sequence:
#
# PCOD8292925 Si02
#       4
#    16  16   8  16
#     4  11  22  37  60  89 121 153 199 251 292 345
#     4  11  19  39  62  86 114 159 208 232 286 354
#     4  10  17  38  63  82 112 160 208 236 267 350
#     4  11  22  37  63  90 121 156 198 240 297 359
#
# _framework density 19.711644
#
# number of rings (size 3 to 8) (size 9 to 14) (size 15 to 20)
#    0.000    1.143    5.714    3.000    0.000    2.286 
#    0.000    4.286    0.000    3.429    0.000    0.000 
#    0.000    0.000    0.000    0.000    0.000    0.000 
#
# Total GULP energy -347067.213590 kJ/mol
# GULP energy per Si atom -12395.257628 kJ/mol
# Density = 1.966678 g / cm^3
# Si number density = 19.711644 Si / 1000 Ang^3
#
#
#
# Elastic Constant Matrix: (Units=GPa)
#
#
# Indices 1 2 3 4 5 6 
#
# 1 114.9528 24.1333 31.8005 0.0000 0.0000 0.0000
# 2 24.1333 103.6909 49.2404 0.0000 0.0000 0.0000
# 3 31.8005 49.2404 139.6468 0.0000 0.0000 0.0000
# 4 0.0000 0.0000 0.0000 15.8476 0.0000 0.0000
# 5 0.0000 0.0000 0.0000 0.0000 19.9651 0.0000
# 6 0.0000 0.0000 0.0000 0.0000 0.0000 11.3225
#
#
#
# Elastic Compliance Matrix: (Units=1/GPa)
#
#
# Indices 1 2 3 4 5 6 
#
# 1 0.009454 -0.001415 -0.001654 0.000000 0.000000 0.000000
# 2 -0.001415 0.011795 -0.003837 0.000000 0.000000 0.000000
# 3 -0.001654 -0.003837 0.008890 0.000000 0.000000 0.000000
# 4 0.000000 0.000000 0.000000 0.063101 0.000000 0.000000
# 5 0.000000 0.000000 0.000000 0.000000 0.050087 0.000000
# 6 0.000000 0.000000 0.000000 0.000000 0.000000 0.088319
#
#
# Mechanical properties :
#
#
# Convention : Reuss Voigt Hill
#
# Bulk Modulus (GPa) = 61.24376 63.18209 62.21293
# Shear Modulus (GPa) = 19.92810 26.30146 23.11478
#
# Velocity S-wave (km/s) = 3.18304 3.65678 3.42811
# Velocity P-wave (km/s) = 6.68179 7.06769 6.87744
#
# Compressibility (1/GPa) = 0.01632819
#
# Stress axis : x y z
#
# Youngs Moduli (GPa) = 105.77747 84.77855 112.47970
#
# Poissons Ratio (x) = 0.11995 0.18603
# Poissons Ratio (y) = 0.14966 0.43158
# Poissons Ratio (z) = 0.17495 0.32529
#
# Static dielectric constant tensor:
#      x y z
#    x 4.166790 0.000000 0.000000 
#    y 0.000000 3.297160 0.000000 
#    z 0.000000 0.000000 3.358320 
# 
# 
# High freq. dielectric constant tensor:
#      x y z
#    x 1.795780 0.000000 0.000000 
#    y 0.000000 1.736920 0.000000 
#    z 0.000000 0.000000 1.742510 
# 
# From -- ./inp_files/22718.got.cif
#   From: 2010.03.12/outbox.cif.g09.slc.cpg/sg72_12_cif.got.tgz:22718.got - 2010.04.16 14:54:00.
