data_PCOD8292422
_publ_section_title
;
Structure prediction by ZEFSAII (Michael W. Deem and Ramdas Pophale) SiO2 
 PCOD8292422
Probable space group: I M M M
;
_chemical_formula_sum "Si O2"
_cell_formula_units_Z 88
_cell_length_a 16.854781
_cell_length_b 26.907608
_cell_length_c 10.306209
_cell_angle_alpha 90.000000
_cell_angle_beta 90.000000
_cell_angle_gamma 90.000000
_cell_volume 4674.090870
_symmetry_space_group_name_H-M "I M M M"
_symmetry_group_IT_number 71
_symmetry_cell_setting 'orthorhombic'
loop_
_space_group_symop_operation_xyz
x,y,z
-x,-y,z
x,-y,-z
-x,y,-z
-x,-y,-z
x,y,-z
-x,y,z
x,-y,z
1/2+x,1/2+y,1/2+z
1/2-x,1/2-y,1/2+z
1/2+x,1/2-y,1/2-z
1/2-x,1/2+y,1/2-z
1/2-x,1/2-y,1/2-z
1/2+x,1/2+y,1/2-z
1/2-x,1/2+y,1/2+z
1/2+x,1/2-y,1/2+z
loop_
_atom_site_type_symbol
_atom_site_label
_atom_site_fract_x
_atom_site_fract_y
_atom_site_fract_z
Si Si1 0.094290 0.768040 0.500000
Si Si2 0.792159 0.199235 0.279297
Si Si3 0.092994 0.650894 0.500000
Si Si4 0.593951 0.057985 0.500000
Si Si5 0.676102 0.888994 0.260011
Si Si6 0.084505 0.856408 0.147640
Si Si7 0.182797 0.944801 0.847166
O O1 0.137428 0.794768 0.381622
O O2 0.112371 0.709412 0.500000
O O3 0.000000 0.778554 0.500000
O O4 0.750000 0.250000 0.250000
O O5 0.726001 0.158170 0.315977
O O6 0.843696 0.183091 0.154662
O O7 0.127555 0.627463 0.367947
O O8 0.000000 0.640503 0.500000
O O9 0.500000 0.058553 0.500000
O O10 0.621213 0.088553 0.627289
O O11 0.623657 0.000000 0.500000
O O12 0.733838 0.933515 0.220438
O O13 0.115274 0.908230 0.209663
O O14 0.000000 0.840715 0.213685
O O15 0.066404 0.866032 0.000000
O O16 0.155775 0.000000 0.811639
O O17 0.194684 0.937000 0.000000
#
# Coordination Sequence:
#
# PCOD8292422 Si02
#       7
#     8  16   8   8  16  16  16
#     4  11  23  39  57  84 117 157 200 245 302 359
#     4  11  22  35  60  83 116 151 200 241 297 357
#     4  11  22  37  60  87 118 154 198 259 305 354
#     4  11  25  44  62  84 122 164 201 255 323 378
#     4  11  21  40  61  87 119 154 206 249 305 368
#     4   9  19  34  52  78 115 150 183 229 284 343
#     4   9  17  30  55  85 110 143 188 238 287 342
#
# _framework density 18.827190000000002
#
# number of rings (size 3 to 8) (size 9 to 14) (size 15 to 20)
#    0.000    1.727    2.727    2.182    2.545    0.364 
#    0.000    1.818    0.000    2.182    0.000    0.000 
#    0.000   13.091    0.000    0.000    0.000    0.000 
#
# Total GULP energy -545084.124448 kJ/mol
# GULP energy per Si atom -12388.275556 kJ/mol
# Density = 1.878434 g / cm^3
# Si number density = 18.827190 Si / 1000 Ang^3
#
#
#
# Elastic Constant Matrix: (Units=GPa)
#
#
# Indices 1 2 3 4 5 6 
#
# 1 135.1686 66.0282 44.6314 0.0000 0.0001 0.0000
# 2 66.0282 125.5016 38.4529 -0.0003 0.0001 0.0000
# 3 44.6314 38.4529 82.5863 0.0005 0.0006 0.0001
# 4 0.0000 -0.0003 0.0005 24.5152 0.0003 0.0001
# 5 0.0001 0.0001 0.0006 0.0003 28.2110 0.0000
# 6 0.0000 0.0000 0.0001 0.0001 0.0000 24.8732
#
#
#
# Elastic Compliance Matrix: (Units=1/GPa)
#
#
# Indices 1 2 3 4 5 6 
#
# 1 0.010867 -0.004570 -0.003745 0.000000 0.000000 0.000000
# 2 -0.004570 0.011216 -0.002752 0.000000 0.000000 0.000000
# 3 -0.003745 -0.002752 0.015414 0.000000 0.000000 0.000000
# 4 0.000000 0.000000 0.000000 0.040791 0.000000 0.000000
# 5 0.000000 0.000000 0.000000 0.000000 0.035447 0.000000
# 6 0.000000 0.000000 0.000000 0.000000 0.000000 0.040204
#
#
# Mechanical properties :
#
#
# Convention : Reuss Voigt Hill
#
# Bulk Modulus (GPa) = 65.09555 71.27572 68.18564
# Shear Modulus (GPa) = 27.59471 28.46282 28.02876
#
# Velocity S-wave (km/s) = 3.83258 3.89240 3.86260
# Velocity P-wave (km/s) = 7.36446 7.62503 7.49587
#
# Compressibility (1/GPa) = 0.01536203
#
# Stress axis : x y z
#
# Youngs Moduli (GPa) = 92.02119 89.16132 64.87608
#
# Poissons Ratio (x) = 0.40746 0.24296
# Poissons Ratio (y) = 0.42052 0.17857
# Poissons Ratio (z) = 0.34462 0.24541
#
# Static dielectric constant tensor:
#      x y z
#    x 3.901530 0.000000 -0.000010 
#    y 0.000000 3.577050 0.000000 
#    z -0.000010 0.000000 3.062370 
# 
# 
# High freq. dielectric constant tensor:
#      x y z
#    x 1.749060 0.000000 0.000000 
#    y 0.000000 1.736300 0.000000 
#    z 0.000000 0.000000 1.714470 
# 
# From -- ./inp_files/22369.got.cif
#   From: 2010.06.25/outbox.cif.g09.slc.cpg/sg71_12_cif.got.tgz:22369.got - 2010.06.28 04:59:45.
