data_PCOD8292212
_publ_section_title
;
Structure prediction by ZEFSAII (Michael W. Deem and Ramdas Pophale) SiO2 
 PCOD8292212
Probable space group: I M M M
;
_chemical_formula_sum "Si O2"
_cell_formula_units_Z 52
_cell_length_a 11.730479
_cell_length_b 30.833970
_cell_length_c 7.404639
_cell_angle_alpha 90.000000
_cell_angle_beta 90.000000
_cell_angle_gamma 90.000000
_cell_volume 2678.237472
_symmetry_space_group_name_H-M "I M M M"
_symmetry_group_IT_number 71
_symmetry_cell_setting 'orthorhombic'
loop_
_space_group_symop_operation_xyz
x,y,z
-x,-y,z
x,-y,-z
-x,y,-z
-x,-y,-z
x,y,-z
-x,y,z
x,-y,z
1/2+x,1/2+y,1/2+z
1/2-x,1/2-y,1/2+z
1/2+x,1/2-y,1/2-z
1/2-x,1/2+y,1/2-z
1/2-x,1/2-y,1/2-z
1/2+x,1/2+y,1/2-z
1/2-x,1/2+y,1/2+z
1/2+x,1/2-y,1/2+z
loop_
_atom_site_type_symbol
_atom_site_label
_atom_site_fract_x
_atom_site_fract_y
_atom_site_fract_z
Si Si1 0.500000 0.161769 0.291384
Si Si2 0.743335 0.868699 0.790306
Si Si3 0.627859 0.547572 0.713994
Si Si4 0.126691 0.182462 0.500000
Si Si5 0.500000 0.765373 0.000000
O O1 0.500000 0.175031 0.500000
O O2 0.608494 0.132569 0.241205
O O3 0.500000 0.206012 0.179356
O O4 0.787104 0.915182 0.715550
O O5 0.804985 0.830776 0.679302
O O6 0.773745 0.861761 0.000000
O O7 0.629005 0.546996 0.500000
O O8 0.500000 0.557705 0.783259
O O9 0.666688 0.500000 0.786261
O O10 0.000000 0.160947 0.500000
O O11 0.113097 0.234916 0.500000
#
# Coordination Sequence:
#
# PCOD8292212 Si02
#       5
#     8  16  16   8   4
#     4  12  24  44  63  85 117 169 206 257 307 370
#     4  11  21  39  66  88 125 165 203 247 310 359
#     4   8  15  30  57  92 126 159 198 243 296 361
#     4  10  24  41  60  94 119 150 203 258 299 376
#     4  10  26  46  60  94 118 148 220 256 304 378
#
# _framework density 19.415755000000001
#
# number of rings (size 3 to 8) (size 9 to 14) (size 15 to 20)
#    0.462    1.538    3.077    1.846    0.000    4.308 
#    0.000    1.538    0.000    7.385    0.000    0.000 
#    0.000    0.000    0.000    0.000    0.000    0.000 
#
# Total GULP energy -322294.506598 kJ/mol
# GULP energy per Si atom -12395.942561 kJ/mol
# Density = 1.937156 g / cm^3
# Si number density = 19.415755 Si / 1000 Ang^3
#
#
#
# Elastic Constant Matrix: (Units=GPa)
#
#
# Indices 1 2 3 4 5 6 
#
# 1 144.1307 82.9602 28.3732 -0.0018 0.0030 -0.0006
# 2 82.9602 164.6663 43.6915 0.0039 -0.0038 -0.0003
# 3 28.3732 43.6915 108.8258 0.0062 0.0120 0.0026
# 4 -0.0018 0.0039 0.0062 2.2324 -0.0104 -0.0010
# 5 0.0030 -0.0038 0.0120 -0.0104 14.6435 -0.0057
# 6 -0.0006 -0.0003 0.0026 -0.0010 -0.0057 8.8659
#
#
#
# Elastic Compliance Matrix: (Units=1/GPa)
#
#
# Indices 1 2 3 4 5 6 
#
# 1 0.009812 -0.004773 -0.000642 0.000018 -0.000003 0.000001
# 2 -0.004773 0.009119 -0.002417 -0.000013 0.000005 0.000001
# 3 -0.000642 -0.002417 0.010327 -0.000025 -0.000009 -0.000003
# 4 0.000018 -0.000013 -0.000025 0.447952 0.000318 0.000051
# 5 -0.000003 0.000005 -0.000009 0.000318 0.068290 0.000044
# 6 0.000001 0.000001 -0.000003 0.000051 0.000044 0.112791
#
#
# Mechanical properties :
#
#
# Convention : Reuss Voigt Hill
#
# Bulk Modulus (GPa) = 73.56063 80.85250 77.20657
# Shear Modulus (GPa) = 7.36936 22.65488 15.01212
#
# Velocity S-wave (km/s) = 1.95033 3.41959 2.78365
# Velocity P-wave (km/s) = 6.56057 7.57130 7.08399
#
# Compressibility (1/GPa) = 0.01359423
#
# Stress axis : x y z
#
# Youngs Moduli (GPa) = 101.91854 109.66445 96.83757
#
# Poissons Ratio (x) = 0.52342 0.06216
# Poissons Ratio (y) = 0.48645 0.23402
# Poissons Ratio (z) = 0.06542 0.26501
#
# Static dielectric constant tensor:
#      x y z
#    x 3.626360 0.000000 0.000010 
#    y 0.000000 3.745040 0.000000 
#    z 0.000010 0.000000 3.476290 
# 
# 
# High freq. dielectric constant tensor:
#      x y z
#    x 1.746200 0.000000 0.000000 
#    y 0.000000 1.751310 0.000000 
#    z 0.000000 0.000000 1.759410 
# 
# From -- ./inp_files/3533.got.cif
#   From: 2010.06.25/outbox.cif.g09.slc.cpg/sg71_2_cif.got.tgz:3533.got - 2010.06.28 04:59:45.
