data_PCOD8292020
_publ_section_title
;
Structure prediction by ZEFSAII (Michael W. Deem and Ramdas Pophale) SiO2 
 PCOD8292020
Probable space group: I M M M
;
_chemical_formula_sum "Si O2"
_cell_formula_units_Z 120
_cell_length_a 22.139947
_cell_length_b 21.225541
_cell_length_c 14.612727
_cell_angle_alpha 90.000000
_cell_angle_beta 90.000000
_cell_angle_gamma 90.000000
_cell_volume 6866.993180
_symmetry_space_group_name_H-M "I M M M"
_symmetry_group_IT_number 71
_symmetry_cell_setting 'orthorhombic'
loop_
_space_group_symop_operation_xyz
x,y,z
-x,-y,z
x,-y,-z
-x,y,-z
-x,-y,-z
x,y,-z
-x,y,z
x,-y,z
1/2+x,1/2+y,1/2+z
1/2-x,1/2-y,1/2+z
1/2+x,1/2-y,1/2-z
1/2-x,1/2+y,1/2-z
1/2-x,1/2-y,1/2-z
1/2+x,1/2+y,1/2-z
1/2-x,1/2+y,1/2+z
1/2+x,1/2-y,1/2+z
loop_
_atom_site_type_symbol
_atom_site_label
_atom_site_fract_x
_atom_site_fract_y
_atom_site_fract_z
Si Si1 0.661384 0.428841 0.768863
Si Si2 0.271936 0.391825 0.397230
Si Si3 0.388157 0.253430 0.104112
Si Si4 0.566483 0.000000 0.890560
Si Si5 0.138582 0.616940 0.391123
Si Si6 0.164741 0.760687 0.896280
Si Si7 0.269502 0.332305 0.894813
Si Si8 0.931539 0.176636 0.235228
O O1 0.649754 0.500000 0.806831
O O2 0.687465 0.435352 0.666859
O O3 0.709962 0.391735 0.832767
O O4 0.598546 0.391378 0.755220
O O5 0.276673 0.418885 0.500000
O O6 0.205388 0.395665 0.355188
O O7 0.290111 0.319072 0.393762
O O8 0.388525 0.182601 0.142481
O O9 0.320303 0.279024 0.115354
O O10 0.435590 0.290760 0.165894
O O11 0.410765 0.258472 0.000000
O O12 0.597625 0.938137 0.850496
O O13 0.500000 0.000000 0.850787
O O14 0.568268 0.000000 0.000000
O O15 0.140756 0.617942 0.500000
O O16 0.204891 0.699416 0.864818
O O17 0.107679 0.777609 0.831627
O O18 0.140838 0.750017 0.000000
O O19 0.265168 0.355320 0.000000
O O20 0.000000 0.167836 0.197093
#
# Coordination Sequence:
#
# PCOD8292020 Si02
#       8
#    16  16  16   8  16  16  16  16
#     4  10  22  34  50  74 102 138 174 214 260 311
#     4   9  17  29  48  75 101 123 157 201 254 309
#     4   9  17  30  51  75  98 124 159 204 254 305
#     4   9  18  28  36  54  88 132 166 180 210 275
#     4   9  16  27  44  65  93 126 155 190 231 284
#     4   9  17  32  54  76  98 125 160 214 275 318
#     4   9  17  32  54  78 100 123 161 216 275 321
#     4  10  22  35  50  73 101 137 179 217 253 304
#
# _framework density 17.474896999999999
#
# number of rings (size 3 to 8) (size 9 to 14) (size 15 to 20)
#    0.000    2.733    1.333    0.000    2.800    3.467 
#    0.000    1.333    0.000    0.000    0.000    7.467 
#    0.000    0.000    0.000    2.933    0.000    0.000 
#
# Total GULP energy -743432.121093 kJ/mol
# GULP energy per Si atom -12390.535352 kJ/mol
# Density = 1.743512 g / cm^3
# Si number density = 17.474897 Si / 1000 Ang^3
#
#
#
# Elastic Constant Matrix: (Units=GPa)
#
#
# Indices 1 2 3 4 5 6 
#
# 1 113.2824 49.0115 36.3791 0.0000 0.0000 0.0000
# 2 49.0115 112.9222 36.9588 0.0000 0.0000 0.0000
# 3 36.3791 36.9588 66.0908 0.0000 0.0000 0.0000
# 4 0.0000 0.0000 0.0000 14.3335 0.0000 0.0000
# 5 0.0000 0.0000 0.0000 0.0000 16.0911 0.0000
# 6 0.0000 0.0000 0.0000 0.0000 0.0000 16.2463
#
#
#
# Elastic Compliance Matrix: (Units=1/GPa)
#
#
# Indices 1 2 3 4 5 6 
#
# 1 0.011855 -0.003684 -0.004466 0.000000 0.000000 0.000000
# 2 -0.003684 0.011984 -0.004674 0.000000 0.000000 0.000000
# 3 -0.004466 -0.004674 0.020202 0.000000 0.000000 0.000000
# 4 0.000000 0.000000 0.000000 0.069767 0.000000 0.000000
# 5 0.000000 0.000000 0.000000 0.000000 0.062146 0.000000
# 6 0.000000 0.000000 0.000000 0.000000 0.000000 0.061552
#
#
# Mechanical properties :
#
#
# Convention : Reuss Voigt Hill
#
# Bulk Modulus (GPa) = 54.36217 59.66604 57.01411
# Shear Modulus (GPa) = 18.56760 20.66392 19.61576
#
# Velocity S-wave (km/s) = 3.26318 3.44247 3.35402
# Velocity P-wave (km/s) = 6.73603 7.07239 6.90626
#
# Compressibility (1/GPa) = 0.01839514
#
# Stress axis : x y z
#
# Youngs Moduli (GPa) = 84.34934 83.44166 49.49891
#
# Poissons Ratio (x) = 0.30740 0.22104
# Poissons Ratio (y) = 0.31075 0.23136
# Poissons Ratio (z) = 0.37667 0.39000
#
# Static dielectric constant tensor:
#      x y z
#    x 3.116450 0.000000 0.000000 
#    y 0.000000 3.227480 0.000000 
#    z 0.000000 0.000000 3.261950 
# 
# 
# High freq. dielectric constant tensor:
#      x y z
#    x 1.656390 0.000000 0.000000 
#    y 0.000000 1.664370 0.000000 
#    z 0.000000 0.000000 1.657000 
# 
# From -- ./inp_files/38411.got.cif
#   From: 2010.06.25/outbox.cif.g09.slc.cpg/sg71_20_cif.got.tgz:38411.got - 2010.06.28 04:59:45.
