data_PCOD8292855
_publ_section_title
;
Structure prediction by ZEFSAII (Michael W. Deem and Ramdas Pophale) SiO2 
 PCOD8292855
Probable space group: I B A M
;
_chemical_formula_sum "Si O2"
_cell_formula_units_Z 112
_cell_length_a 21.316732
_cell_length_b 16.327051
_cell_length_c 19.673383
_cell_angle_alpha 90.000000
_cell_angle_beta 90.000000
_cell_angle_gamma 90.000000
_cell_volume 6847.111835
_symmetry_space_group_name_H-M "I B A M"
_symmetry_group_IT_number 72
_symmetry_cell_setting 'orthorhombic'
loop_
_space_group_symop_operation_xyz
x,y,z
-x,-y,z
x,-y,1/2-z
-x,y,1/2-z
-x,-y,-z
x,y,-z
-x,y,1/2+z
x,-y,1/2+z
1/2+x,1/2+y,1/2+z
1/2-x,1/2-y,1/2+z
1/2+x,1/2-y,-z
1/2-x,1/2+y,-z
1/2-x,1/2-y,1/2-z
1/2+x,1/2+y,1/2-z
1/2-x,1/2+y,z
1/2+x,1/2-y,z
loop_
_atom_site_type_symbol
_atom_site_label
_atom_site_fract_x
_atom_site_fract_y
_atom_site_fract_z
Si Si1 0.706186 0.632853 0.579084
Si Si2 0.149418 0.325669 0.423304
Si Si3 0.654423 0.055002 0.813185
Si Si4 0.071037 0.483444 0.577919
Si Si5 0.298209 0.483116 0.173092
Si Si6 0.175177 0.805292 0.820892
Si Si7 0.180711 0.739574 0.317254
O O1 0.687471 0.626207 0.500000
O O2 0.781504 0.636171 0.588618
O O3 0.681538 0.553243 0.620163
O O4 0.670163 0.712413 0.611031
O O5 0.144922 0.292143 0.500000
O O6 0.094470 0.390930 0.408788
O O7 0.135727 0.250963 0.372360
O O8 0.723846 0.025994 0.829527
O O9 0.648414 0.152326 0.802826
O O10 0.628786 0.000000 0.750000
O O11 0.613030 0.043995 0.879266
O O12 0.080891 0.507863 0.500000
O O13 0.000000 0.500000 0.600685
O O14 0.320116 0.500000 0.250000
O O15 0.330333 0.397676 0.151235
O O16 0.152965 0.797649 0.742551
O O17 0.245386 0.772631 0.816698
#
# Coordination Sequence:
#
# PCOD8292855 Si02
#       7
#    16  16  16  16  16  16  16
#     4  10  18  28  42  63  91 121 151 187 222 262
#     4   9  17  29  42  60  86 115 153 194 225 259
#     4  10  19  29  46  66  88 118 157 190 225 265
#     4  10  20  33  47  62  86 122 157 191 232 269
#     4  10  17  27  43  65  91 121 151 179 219 277
#     4   9  16  26  43  60  85 116 151 176 220 272
#     4   9  17  27  41  62  85 117 149 182 219 269
#
# _framework density 16.357261000000001
#
# number of rings (size 3 to 8) (size 9 to 14) (size 15 to 20)
#    0.000    2.429    2.857    0.857    4.000    1.429 
#    0.000    2.857    0.000    0.000    0.000    0.000 
#    0.000    1.143    0.857    6.429    0.286    0.000 
#
# Total GULP energy -693825.598014 kJ/mol
# GULP energy per Si atom -12389.742822 kJ/mol
# Density = 1.632003 g / cm^3
# Si number density = 16.357261 Si / 1000 Ang^3
#
#
#
# Elastic Constant Matrix: (Units=GPa)
#
#
# Indices 1 2 3 4 5 6 
#
# 1 22.0374 24.5372 17.5732 0.0000 0.0000 0.0000
# 2 24.5372 114.9660 69.6663 0.0000 0.0000 0.0000
# 3 17.5732 69.6663 111.3538 0.0000 0.0000 0.0000
# 4 0.0000 0.0000 0.0000 33.2243 0.0000 0.0000
# 5 0.0000 0.0000 0.0000 0.0000 13.6514 0.0000
# 6 0.0000 0.0000 0.0000 0.0000 0.0000 9.6377
#
#
#
# Elastic Compliance Matrix: (Units=1/GPa)
#
#
# Indices 1 2 3 4 5 6 
#
# 1 0.059899 -0.011365 -0.002343 0.000000 0.000000 0.000000
# 2 -0.011365 0.016166 -0.008320 0.000000 0.000000 0.000000
# 3 -0.002343 -0.008320 0.014555 0.000000 0.000000 0.000000
# 4 0.000000 0.000000 0.000000 0.030098 0.000000 0.000000
# 5 0.000000 0.000000 0.000000 0.000000 0.073252 0.000000
# 6 0.000000 0.000000 0.000000 0.000000 0.000000 0.103759
#
#
# Mechanical properties :
#
#
# Convention : Reuss Voigt Hill
#
# Bulk Modulus (GPa) = 21.47531 52.43451 36.95491
# Shear Modulus (GPa) = 13.99355 20.40806 17.20081
#
# Velocity S-wave (km/s) = 2.92806 3.53603 3.24631
# Velocity P-wave (km/s) = 4.95871 6.98547 6.05746
#
# Compressibility (1/GPa) = 0.04656510
#
# Stress axis : x y z
#
# Youngs Moduli (GPa) = 16.69465 61.85997 68.70260
#
# Poissons Ratio (x) = 0.70301 0.16097
# Poissons Ratio (y) = 0.18973 0.57162
# Poissons Ratio (z) = 0.03912 0.51469
#
# Static dielectric constant tensor:
#      x y z
#    x 2.560490 0.000000 0.000000 
#    y 0.000000 3.234420 0.000000 
#    z 0.000000 0.000000 3.276880 
# 
# 
# High freq. dielectric constant tensor:
#      x y z
#    x 1.550020 0.000000 0.000000 
#    y 0.000000 1.636980 0.000000 
#    z 0.000000 0.000000 1.643060 
# 
# From -- ./inp_files/39912.got.cif
#   From: 2010.03.12/outbox.cif.g09.slc.cpg/sg72_20_cif.got.tgz:39912.got - 2010.04.16 14:54:00.
