data_PCOD8292493
_publ_section_title
;
Structure prediction by ZEFSAII (Michael W. Deem and Ramdas Pophale) SiO2 
 PCOD8292493
Probable space group: I M M M
;
_chemical_formula_sum "Si O2"
_cell_formula_units_Z 104
_cell_length_a 21.597298
_cell_length_b 27.320899
_cell_length_c 8.538353
_cell_angle_alpha 90.000000
_cell_angle_beta 90.000000
_cell_angle_gamma 90.000000
_cell_volume 5038.120056
_symmetry_space_group_name_H-M "I M M M"
_symmetry_group_IT_number 71
_symmetry_cell_setting 'orthorhombic'
loop_
_space_group_symop_operation_xyz
x,y,z
-x,-y,z
x,-y,-z
-x,y,-z
-x,-y,-z
x,y,-z
-x,y,z
x,-y,z
1/2+x,1/2+y,1/2+z
1/2-x,1/2-y,1/2+z
1/2+x,1/2-y,1/2-z
1/2-x,1/2+y,1/2-z
1/2-x,1/2-y,1/2-z
1/2+x,1/2+y,1/2-z
1/2-x,1/2+y,1/2+z
1/2+x,1/2-y,1/2+z
loop_
_atom_site_type_symbol
_atom_site_label
_atom_site_fract_x
_atom_site_fract_y
_atom_site_fract_z
Si Si1 0.127356 0.056760 0.680825
Si Si2 0.205988 0.860749 0.818106
Si Si3 0.669951 0.822894 0.316603
Si Si4 0.073535 0.500000 0.675798
Si Si5 0.628689 0.724830 0.183050
Si Si6 0.069486 0.600392 0.815124
Si Si7 0.500000 0.593758 0.684551
Si Si8 0.000000 0.207811 0.815354
O O1 0.130532 0.072333 0.500000
O O2 0.179237 0.086092 0.776842
O O3 0.059341 0.067858 0.743677
O O4 0.142430 0.000000 0.704575
O O5 0.266351 0.850830 0.714794
O O6 0.153368 0.821164 0.780290
O O7 0.223332 0.858468 0.000000
O O8 0.664014 0.811446 0.500000
O O9 0.669712 0.772400 0.220998
O O10 0.613242 0.856125 0.255090
O O11 0.098473 0.500000 0.500000
O O12 0.098469 0.548910 0.758775
O O13 0.000000 0.500000 0.686120
O O14 0.558798 0.734419 0.238657
O O15 0.632564 0.713055 0.000000
O O16 0.000000 0.608690 0.747694
O O17 0.067990 0.599133 0.000000
O O18 0.500000 0.586067 0.500000
O O19 0.500000 0.650799 0.728743
O O20 0.000000 0.217332 0.000000
#
# Coordination Sequence:
#
# PCOD8292493 Si02
#       8
#    16  16  16   8  16  16   8   8
#     4  11  24  42  66  96 130 169 216 269 323 381
#     4  12  25  44  66  90 124 167 214 261 312 377
#     4  11  24  42  65  93 126 165 208 258 314 376
#     4   9  17  31  55  85 117 153 189 238 295 350
#     4  12  25  42  66  95 127 165 209 260 316 375
#     4   9  19  37  61  88 117 155 199 246 301 365
#     4  11  22  38  65  98 133 172 215 263 319 380
#     4  11  23  40  64  97 131 169 212 263 320 380
#
# _framework density 20.642619
#
# number of rings (size 3 to 8) (size 9 to 14) (size 15 to 20)
#    0.000    1.154    1.538    5.077    1.077    4.923 
#    1.385    0.000    0.000    0.000    0.000    0.000 
#    0.000    0.000    0.000    0.000    0.000    0.000 
#
# Total GULP energy -645150.276236 kJ/mol
# GULP energy per Si atom -12406.736081 kJ/mol
# Density = 2.059564 g / cm^3
# Si number density = 20.642619 Si / 1000 Ang^3
#
#
#
# Elastic Constant Matrix: (Units=GPa)
#
#
# Indices 1 2 3 4 5 6 
#
# 1 96.3737 31.2057 12.1870 0.0000 0.0000 0.0000
# 2 31.2057 101.6476 30.4317 0.0000 0.0000 0.0000
# 3 12.1870 30.4317 71.4746 0.0000 0.0000 0.0000
# 4 0.0000 0.0000 0.0000 31.9977 0.0000 0.0000
# 5 0.0000 0.0000 0.0000 0.0000 30.2278 0.0000
# 6 0.0000 0.0000 0.0000 0.0000 0.0000 25.5717
#
#
#
# Elastic Compliance Matrix: (Units=1/GPa)
#
#
# Indices 1 2 3 4 5 6 
#
# 1 0.011539 -0.003385 -0.000526 0.000000 0.000000 0.000000
# 2 -0.003385 0.012268 -0.004646 0.000000 0.000000 0.000000
# 3 -0.000526 -0.004646 0.016059 0.000000 0.000000 0.000000
# 4 0.000000 0.000000 0.000000 0.031252 0.000000 0.000000
# 5 0.000000 0.000000 0.000000 0.000000 0.033082 0.000000
# 6 0.000000 0.000000 0.000000 0.000000 0.000000 0.039106
#
#
# Mechanical properties :
#
#
# Convention : Reuss Voigt Hill
#
# Bulk Modulus (GPa) = 43.95391 46.34940 45.15166
# Shear Modulus (GPa) = 29.76113 30.60421 30.18267
#
# Velocity S-wave (km/s) = 3.80113 3.85460 3.82796
# Velocity P-wave (km/s) = 6.37211 6.50481 6.43880
#
# Compressibility (1/GPa) = 0.02275111
#
# Stress axis : x y z
#
# Youngs Moduli (GPa) = 86.66387 81.51249 62.27061
#
# Poissons Ratio (x) = 0.27591 0.03277
# Poissons Ratio (y) = 0.29334 0.28932
# Poissons Ratio (z) = 0.04561 0.37873
#
# Static dielectric constant tensor:
#      x y z
#    x 3.772080 0.000000 0.000000 
#    y 0.000000 3.827510 0.000000 
#    z 0.000000 0.000000 3.719020 
# 
# 
# High freq. dielectric constant tensor:
#      x y z
#    x 1.804020 0.000000 0.000000 
#    y 0.000000 1.814670 0.000000 
#    z 0.000000 0.000000 1.813360 
# 
# From -- ./inp_files/11212.got.cif
#   From: 2010.06.25/outbox.cif.g09.slc.cpg/sg71_6_cif.got.tgz:11212.got - 2010.06.28 04:59:45.
