data_PCOD8292150
_publ_section_title
;
Structure prediction by ZEFSAII (Michael W. Deem and Ramdas Pophale) SiO2 
 PCOD8292150
Probable space group: I M M M
;
_chemical_formula_sum "Si O2"
_cell_formula_units_Z 104
_cell_length_a 20.605819
_cell_length_b 8.779331
_cell_length_c 29.738685
_cell_angle_alpha 90.000000
_cell_angle_beta 90.000000
_cell_angle_gamma 90.000000
_cell_volume 5379.885896
_symmetry_space_group_name_H-M "I M M M"
_symmetry_group_IT_number 71
_symmetry_cell_setting 'orthorhombic'
loop_
_space_group_symop_operation_xyz
x,y,z
-x,-y,z
x,-y,-z
-x,y,-z
-x,-y,-z
x,y,-z
-x,y,z
x,-y,z
1/2+x,1/2+y,1/2+z
1/2-x,1/2-y,1/2+z
1/2+x,1/2-y,1/2-z
1/2-x,1/2+y,1/2-z
1/2-x,1/2-y,1/2-z
1/2+x,1/2+y,1/2-z
1/2-x,1/2+y,1/2+z
1/2+x,1/2-y,1/2+z
loop_
_atom_site_type_symbol
_atom_site_label
_atom_site_fract_x
_atom_site_fract_y
_atom_site_fract_z
Si Si1 0.719571 0.679780 0.865013
Si Si2 0.142758 0.823534 0.129962
Si Si3 0.500000 0.334928 0.947091
Si Si4 0.811694 0.678971 0.725283
Si Si5 0.639592 0.682248 0.949690
Si Si6 0.073474 0.323935 0.209174
Si Si7 0.074998 0.673419 0.948767
O O1 0.713165 0.500000 0.860895
O O2 0.793883 0.725760 0.859663
O O3 0.679256 0.755087 0.824655
O O4 0.691841 0.738700 0.913027
O O5 0.087475 0.776987 0.165297
O O6 0.117661 0.788702 0.080084
O O7 0.160001 0.000000 0.134331
O O8 0.500000 0.500000 0.922859
O O9 0.431814 0.250581 0.935087
O O10 0.500000 0.360386 0.000000
O O11 0.800424 0.500000 0.722911
O O12 0.750000 0.750000 0.750000
O O13 0.877624 0.722435 0.751156
O O14 0.635094 0.500000 0.950258
O O15 0.659425 0.739704 0.000000
O O16 0.082436 0.500000 0.195781
O O17 0.000000 0.290768 0.225256
O O18 0.086828 0.500000 0.932669
O O19 0.000000 0.716822 0.943584
O O20 0.097619 0.692032 0.000000
#
# Coordination Sequence:
#
# PCOD8292150 Si02
#       7
#    16  16   8  16  16  16  16
#     4  11  22  36  56  83 115 151 191 233 281 337
#     4  12  24  36  55  83 114 149 189 236 288 338
#     4   7  10  22  46  74 105 139 177 225 277 323
#     4  11  22  39  63  86 114 151 191 233 284 343
#     4   8  15  29  51  79 110 145 185 228 276 331
#     4  10  22  41  64  86 110 146 191 235 284 347
#     4   9  19  37  59  81 109 148 190 231 280 340
#
# _framework density 19.331264999999998
#
# number of rings (size 3 to 8) (size 9 to 14) (size 15 to 20)
#    0.000    2.077    1.538    4.154    0.000    4.000 
#    1.385    2.308    0.000    1.385    0.000    0.000 
#    0.000    7.385    0.000    0.000    0.000    0.000 
#
# Total GULP energy -644684.859597 kJ/mol
# GULP energy per Si atom -12397.785761 kJ/mol
# Density = 1.928727 g / cm^3
# Si number density = 19.331265 Si / 1000 Ang^3
#
#
#
# Elastic Constant Matrix: (Units=GPa)
#
#
# Indices 1 2 3 4 5 6 
#
# 1 113.7508 30.9301 55.2762 0.0000 0.0000 0.0000
# 2 30.9301 60.1177 37.8559 0.0000 0.0000 0.0000
# 3 55.2762 37.8559 124.7272 0.0000 0.0000 0.0000
# 4 0.0000 0.0000 0.0000 29.8002 0.0000 0.0000
# 5 0.0000 0.0000 0.0000 0.0000 36.9161 0.0000
# 6 0.0000 0.0000 0.0000 0.0000 0.0000 16.4197
#
#
#
# Elastic Compliance Matrix: (Units=1/GPa)
#
#
# Indices 1 2 3 4 5 6 
#
# 1 0.011746 -0.003419 -0.004168 0.000000 0.000000 0.000000
# 2 -0.003419 0.021559 -0.005028 0.000000 0.000000 0.000000
# 3 -0.004168 -0.005028 0.011391 0.000000 0.000000 0.000000
# 4 0.000000 0.000000 0.000000 0.033557 0.000000 0.000000
# 5 0.000000 0.000000 0.000000 0.000000 0.027088 0.000000
# 6 0.000000 0.000000 0.000000 0.000000 0.000000 0.060903
#
#
# Mechanical properties :
#
#
# Convention : Reuss Voigt Hill
#
# Bulk Modulus (GPa) = 51.37140 60.74667 56.05903
# Shear Modulus (GPa) = 25.25727 28.26278 26.76002
#
# Velocity S-wave (km/s) = 3.61854 3.82779 3.72464
# Velocity P-wave (km/s) = 6.64006 7.14341 6.89633
#
# Compressibility (1/GPa) = 0.01946609
#
# Stress axis : x y z
#
# Youngs Moduli (GPa) = 85.13442 46.38376 87.79012
#
# Poissons Ratio (x) = 0.15857 0.36591
# Poissons Ratio (y) = 0.29105 0.44144
# Poissons Ratio (z) = 0.35484 0.23323
#
# Static dielectric constant tensor:
#      x y z
#    x 3.713420 0.000000 0.000000 
#    y 0.000000 3.254870 0.000000 
#    z 0.000000 0.000000 3.673540 
# 
# 
# High freq. dielectric constant tensor:
#      x y z
#    x 1.756590 0.000000 0.000000 
#    y 0.000000 1.723400 0.000000 
#    z 0.000000 0.000000 1.752170 
# 
# From -- ./inp_files/70725.got.cif
#   From: 2010.06.25/outbox.cif.g09.slc.cpg/sg71_36_cif.got.tgz:70725.got - 2010.06.28 04:59:45.
