data_PCOD8292149
_publ_section_title
;
Structure prediction by ZEFSAII (Michael W. Deem and Ramdas Pophale) SiO2 
 PCOD8292149
Probable space group: I M M M
;
_chemical_formula_sum "Si O2"
_cell_formula_units_Z 72
_cell_length_a 11.783822
_cell_length_b 17.028767
_cell_length_c 18.157348
_cell_angle_alpha 90.000000
_cell_angle_beta 90.000000
_cell_angle_gamma 90.000000
_cell_volume 3643.525338
_symmetry_space_group_name_H-M "I M M M"
_symmetry_group_IT_number 71
_symmetry_cell_setting 'orthorhombic'
loop_
_space_group_symop_operation_xyz
x,y,z
-x,-y,z
x,-y,-z
-x,y,-z
-x,-y,-z
x,y,-z
-x,y,z
x,-y,z
1/2+x,1/2+y,1/2+z
1/2-x,1/2-y,1/2+z
1/2+x,1/2-y,1/2-z
1/2-x,1/2+y,1/2-z
1/2-x,1/2-y,1/2-z
1/2+x,1/2+y,1/2-z
1/2-x,1/2+y,1/2+z
1/2+x,1/2-y,1/2+z
loop_
_atom_site_type_symbol
_atom_site_label
_atom_site_fract_x
_atom_site_fract_y
_atom_site_fract_z
Si Si1 0.864947 0.000000 0.081949
Si Si2 0.731288 0.908351 0.703989
Si Si3 0.500000 0.787436 0.917175
Si Si4 0.239166 0.789953 0.414865
Si Si5 0.365584 0.347479 0.333510
Si Si6 0.500000 0.089327 0.212360
O O1 0.818336 0.923032 0.122334
O O2 0.000000 0.000000 0.081338
O O3 0.814878 0.000000 0.000000
O O4 0.738533 0.875291 0.621002
O O5 0.821623 0.857338 0.750556
O O6 0.607709 0.892396 0.737133
O O7 0.763546 0.000000 0.703175
O O8 0.391499 0.732776 0.904887
O O9 0.500000 0.858795 0.860558
O O10 0.500000 0.822671 0.000000
O O11 0.275415 0.793774 0.500000
O O12 0.319060 0.729094 0.372700
O O13 0.500000 0.342803 0.332624
O O14 0.500000 0.000000 0.184763
#
# Coordination Sequence:
#
# PCOD8292149 Si02
#       6
#     8  16   8  16  16   8
#     4   9  18  34  54  85 128 158 187 239 299 365
#     4  11  24  42  65  90 121 162 208 255 302 361
#     4  10  22  41  63  91 123 160 204 248 302 365
#     4  11  25  42  63  90 123 163 206 254 305 359
#     4  11  22  37  63  94 121 160 202 246 308 369
#     4  10  22  41  63  91 121 160 208 248 298 364
#
# _framework density 19.761081000000001
#
# number of rings (size 3 to 8) (size 9 to 14) (size 15 to 20)
#    0.000    1.444    3.333    1.333    3.111    2.000 
#    0.000    0.000    0.000    4.000    0.000    0.000 
#    0.000    0.000    0.000    0.000    0.000    0.000 
#
# Total GULP energy -446546.617987 kJ/mol
# GULP energy per Si atom -12404.072722 kJ/mol
# Density = 1.971610 g / cm^3
# Si number density = 19.761081 Si / 1000 Ang^3
#
#
#
# Elastic Constant Matrix: (Units=GPa)
#
#
# Indices 1 2 3 4 5 6 
#
# 1 102.7159 43.2940 39.1370 0.0000 0.0000 0.0000
# 2 43.2940 91.1095 83.2184 0.0000 0.0000 0.0000
# 3 39.1370 83.2184 128.1016 0.0000 0.0000 0.0000
# 4 0.0000 0.0000 0.0000 26.8921 0.0000 0.0000
# 5 0.0000 0.0000 0.0000 0.0000 4.4370 0.0000
# 6 0.0000 0.0000 0.0000 0.0000 0.0000 8.2444
#
#
#
# Elastic Compliance Matrix: (Units=1/GPa)
#
#
# Indices 1 2 3 4 5 6 
#
# 1 0.012174 -0.005872 0.000095 0.000000 0.000000 0.000000
# 2 -0.005872 0.029824 -0.017581 0.000000 0.000000 0.000000
# 3 0.000095 -0.017581 0.019198 0.000000 0.000000 0.000000
# 4 0.000000 0.000000 0.000000 0.037186 0.000000 0.000000
# 5 0.000000 0.000000 0.000000 0.000000 0.225380 0.000000
# 6 0.000000 0.000000 0.000000 0.000000 0.000000 0.121295
#
#
# Mechanical properties :
#
#
# Convention : Reuss Voigt Hill
#
# Bulk Modulus (GPa) = 69.05297 72.58066 70.81682
# Shear Modulus (GPa) = 10.06850 18.33319 14.20084
#
# Velocity S-wave (km/s) = 2.25968 3.04919 2.68363
# Velocity P-wave (km/s) = 6.46746 7.01467 6.74661
#
# Compressibility (1/GPa) = 0.01448164
#
# Stress axis : x y z
#
# Youngs Moduli (GPa) = 82.14000 33.53006 52.08871
#
# Poissons Ratio (x) = 0.19689 -0.00496
# Poissons Ratio (y) = 0.48233 0.91575
# Poissons Ratio (z) = -0.00782 0.58948
#
# Static dielectric constant tensor:
#      x y z
#    x 3.617840 0.000000 0.000000 
#    y 0.000000 3.619080 0.000000 
#    z 0.000000 0.000000 3.726340 
# 
# 
# High freq. dielectric constant tensor:
#      x y z
#    x 1.775370 0.000000 0.000000 
#    y 0.000000 1.769410 0.000000 
#    z 0.000000 0.000000 1.774130 
# 
# From -- ./inp_files/23550.got.cif
#   From: 2010.06.25/outbox.cif.g09.slc.cpg/sg71_12_cif.got.tgz:23550.got - 2010.06.28 04:59:45.
