data_PCOD8292662
_publ_section_title
;
Structure prediction by ZEFSAII (Michael W. Deem and Ramdas Pophale) SiO2 
 PCOD8292662
Probable space group: I M M M
;
_chemical_formula_sum "Si O2"
_cell_formula_units_Z 80
_cell_length_a 31.402843
_cell_length_b 9.875165
_cell_length_c 15.055299
_cell_angle_alpha 90.000000
_cell_angle_beta 90.000000
_cell_angle_gamma 90.000000
_cell_volume 4668.772518
_symmetry_space_group_name_H-M "I M M M"
_symmetry_group_IT_number 71
_symmetry_cell_setting 'orthorhombic'
loop_
_space_group_symop_operation_xyz
x,y,z
-x,-y,z
x,-y,-z
-x,y,-z
-x,-y,-z
x,y,-z
-x,y,z
x,-y,z
1/2+x,1/2+y,1/2+z
1/2-x,1/2-y,1/2+z
1/2+x,1/2-y,1/2-z
1/2-x,1/2+y,1/2-z
1/2-x,1/2-y,1/2-z
1/2+x,1/2+y,1/2-z
1/2-x,1/2+y,1/2+z
1/2+x,1/2-y,1/2+z
loop_
_atom_site_type_symbol
_atom_site_label
_atom_site_fract_x
_atom_site_fract_y
_atom_site_fract_z
Si Si1 0.362651 0.839927 0.903854
Si Si2 0.109155 0.659665 0.783854
Si Si3 0.703424 0.148063 0.663555
Si Si4 0.729208 0.850589 0.135571
Si Si5 0.450091 0.345794 0.601487
O O1 0.390258 0.789274 0.819676
O O2 0.314263 0.783751 0.902319
O O3 0.358200 0.000000 0.891966
O O4 0.383518 0.801103 0.000000
O O5 0.098937 0.500000 0.790305
O O6 0.154369 0.694241 0.828909
O O7 0.072963 0.742655 0.833129
O O8 0.724895 0.136525 0.759255
O O9 0.730743 0.256587 0.607336
O O10 0.705529 0.000000 0.617442
O O11 0.737507 0.000000 0.094993
O O12 0.438024 0.310785 0.500000
O O13 0.500000 0.327135 0.616582
O O14 0.436591 0.500000 0.623358
#
# Coordination Sequence:
#
# PCOD8292662 Si02
#       5
#    16  16  16  16  16
#     4   8  14  26  44  66  94 127 162 198 229 258
#     4   9  17  29  48  73  96 121 154 190 230 274
#     4   8  14  24  37  57  87 117 146 187 233 265
#     4   8  13  22  38  58  80 115 161 195 219 254
#     4   9  19  36  55  73  93 116 142 177 227 285
#
# _framework density 17.135126
#
# number of rings (size 3 to 8) (size 9 to 14) (size 15 to 20)
#    0.000    3.600    0.000    3.000    0.000    1.600 
#    0.000    5.000    0.000    6.600    0.000    4.200 
#    0.000    0.000    0.000    0.000    0.000    0.000 
#
# Total GULP energy -495531.065625 kJ/mol
# GULP energy per Si atom -12388.276641 kJ/mol
# Density = 1.709613 g / cm^3
# Si number density = 17.135126 Si / 1000 Ang^3
#
#
#
# Elastic Constant Matrix: (Units=GPa)
#
#
# Indices 1 2 3 4 5 6 
#
# 1 66.5421 44.6221 47.4183 0.0000 0.0000 0.0000
# 2 44.6221 69.3940 44.0274 0.0000 0.0000 0.0000
# 3 47.4183 44.0274 97.0285 0.0000 0.0000 0.0000
# 4 0.0000 0.0000 0.0000 14.5044 0.0000 0.0000
# 5 0.0000 0.0000 0.0000 0.0000 15.0336 0.0000
# 6 0.0000 0.0000 0.0000 0.0000 0.0000 32.3927
#
#
#
# Elastic Compliance Matrix: (Units=1/GPa)
#
#
# Indices 1 2 3 4 5 6 
#
# 1 0.030708 -0.014358 -0.008492 0.000000 0.000000 0.000000
# 2 -0.014358 0.026950 -0.005212 0.000000 0.000000 0.000000
# 3 -0.008492 -0.005212 0.016821 0.000000 0.000000 0.000000
# 4 0.000000 0.000000 0.000000 0.068944 0.000000 0.000000
# 5 0.000000 0.000000 0.000000 0.000000 0.066517 0.000000
# 6 0.000000 0.000000 0.000000 0.000000 0.000000 0.030871
#
#
# Mechanical properties :
#
#
# Convention : Reuss Voigt Hill
#
# Bulk Modulus (GPa) = 54.48088 56.12223 55.30155
# Shear Modulus (GPa) = 16.49872 18.84595 17.67234
#
# Velocity S-wave (km/s) = 3.10636 3.31999 3.21495
# Velocity P-wave (km/s) = 6.68804 6.89349 6.79154
#
# Compressibility (1/GPa) = 0.01835506
#
# Stress axis : x y z
#
# Youngs Moduli (GPa) = 32.56497 37.10615 59.44891
#
# Poissons Ratio (x) = 0.53278 0.50484
# Poissons Ratio (y) = 0.46757 0.30983
# Poissons Ratio (z) = 0.27654 0.19339
#
# Static dielectric constant tensor:
#      x y z
#    x 2.950160 0.000000 0.000000 
#    y 0.000000 3.307990 0.000000 
#    z 0.000000 0.000000 3.140840 
# 
# 
# High freq. dielectric constant tensor:
#      x y z
#    x 1.634040 0.000000 0.000000 
#    y 0.000000 1.640580 0.000000 
#    z 0.000000 0.000000 1.652270 
# 
# From -- ./inp_files/8579.got.cif
#   From: 2010.06.25/outbox.cif.g09.slc.cpg/sg71_5_cif.got.tgz:8579.got - 2010.06.28 04:59:45.
