data_PCOD8292834
_publ_section_title
;
Structure prediction by ZEFSAII (Michael W. Deem and Ramdas Pophale) SiO2 
 PCOD8292834
Probable space group: I B A M
;
_chemical_formula_sum "Si O2"
_cell_formula_units_Z 88
_cell_length_a 15.300379
_cell_length_b 14.501937
_cell_length_c 20.170926
_cell_angle_alpha 90.000000
_cell_angle_beta 90.000000
_cell_angle_gamma 90.000000
_cell_volume 4475.628585
_symmetry_space_group_name_H-M "I B A M"
_symmetry_group_IT_number 72
_symmetry_cell_setting 'orthorhombic'
loop_
_space_group_symop_operation_xyz
x,y,z
-x,-y,z
x,-y,1/2-z
-x,y,1/2-z
-x,-y,-z
x,y,-z
-x,y,1/2+z
x,-y,1/2+z
1/2+x,1/2+y,1/2+z
1/2-x,1/2-y,1/2+z
1/2+x,1/2-y,-z
1/2-x,1/2+y,-z
1/2-x,1/2-y,1/2-z
1/2+x,1/2+y,1/2-z
1/2-x,1/2+y,z
1/2+x,1/2-y,z
loop_
_atom_site_type_symbol
_atom_site_label
_atom_site_fract_x
_atom_site_fract_y
_atom_site_fract_z
Si Si1 0.285926 0.250882 0.355027
Si Si2 0.121340 0.196236 0.723009
Si Si3 0.712274 0.060034 0.638780
Si Si4 0.612327 0.099785 0.075095
Si Si5 0.340946 0.500000 0.250000
Si Si6 0.532977 0.134955 0.317803
O O1 0.200504 0.198331 0.329182
O O2 0.351965 0.257205 0.292830
O O3 0.262933 0.349590 0.389275
O O4 0.331157 0.190755 0.411785
O O5 0.039443 0.252331 0.690695
O O6 0.097756 0.089139 0.737172
O O7 0.778273 0.008521 0.686911
O O8 0.631185 0.099637 0.679226
O O9 0.674595 0.989621 0.584239
O O10 0.526277 0.100194 0.121449
O O11 0.578103 0.100511 0.000000
O O12 0.500000 0.089783 0.250000
#
# Coordination Sequence:
#
# PCOD8292834 Si02
#       6
#    16  16  16  16   8  16
#     4   9  18  36  56  85 113 150 192 243 284 342
#     4   9  17  33  59  86 112 142 196 244 286 337
#     4  10  21  34  59  86 114 148 195 239 286 348
#     4  12  24  38  56  85 123 159 190 234 302 361
#     4  10  16  32  64  88 110 142 192 252 290 330
#     4  11  21  36  57  86 122 151 188 239 294 347
#
# _framework density 19.662043000000001
#
# number of rings (size 3 to 8) (size 9 to 14) (size 15 to 20)
#    0.000    1.818    3.636    2.727    0.000    2.909 
#    0.000    3.182    0.000    0.000    0.000    5.091 
#    0.000    0.000    0.000    0.000    0.000    0.000 
#
# Total GULP energy -545246.287279 kJ/mol
# GULP energy per Si atom -12391.961075 kJ/mol
# Density = 1.961729 g / cm^3
# Si number density = 19.662043 Si / 1000 Ang^3
#
#
#
# Elastic Constant Matrix: (Units=GPa)
#
#
# Indices 1 2 3 4 5 6 
#
# 1 52.0380 13.9813 19.6756 0.0000 0.0000 0.0000
# 2 13.9813 117.4866 24.6452 0.0000 0.0000 0.0000
# 3 19.6756 24.6452 99.8423 0.0000 0.0000 0.0000
# 4 0.0000 0.0000 0.0000 20.1451 0.0000 0.0000
# 5 0.0000 0.0000 0.0000 0.0000 21.8114 0.0000
# 6 0.0000 0.0000 0.0000 0.0000 0.0000 25.7130
#
#
#
# Elastic Compliance Matrix: (Units=1/GPa)
#
#
# Indices 1 2 3 4 5 6 
#
# 1 0.021091 -0.001727 -0.003730 0.000000 0.000000 0.000000
# 2 -0.001727 0.009118 -0.001910 0.000000 0.000000 0.000000
# 3 -0.003730 -0.001910 0.011222 0.000000 0.000000 0.000000
# 4 0.000000 0.000000 0.000000 0.049640 0.000000 0.000000
# 5 0.000000 0.000000 0.000000 0.000000 0.045848 0.000000
# 6 0.000000 0.000000 0.000000 0.000000 0.000000 0.038891
#
#
# Mechanical properties :
#
#
# Convention : Reuss Voigt Hill
#
# Bulk Modulus (GPa) = 37.45870 42.88568 40.17219
# Shear Modulus (GPa) = 25.06969 27.60486 26.33728
#
# Velocity S-wave (km/s) = 3.57463 3.75102 3.66389
# Velocity P-wave (km/s) = 6.01082 6.37330 6.19471
#
# Compressibility (1/GPa) = 0.02669607
#
# Stress axis : x y z
#
# Youngs Moduli (GPa) = 47.41321 109.67437 89.10770
#
# Poissons Ratio (x) = 0.18946 0.33237
# Poissons Ratio (y) = 0.08191 0.17022
# Poissons Ratio (z) = 0.17685 0.20950
#
# Static dielectric constant tensor:
#      x y z
#    x 3.498080 0.000000 0.000000 
#    y 0.000000 3.996270 0.000000 
#    z 0.000000 0.000000 3.115710 
# 
# 
# High freq. dielectric constant tensor:
#      x y z
#    x 1.761510 0.000000 0.000000 
#    y 0.000000 1.789310 0.000000 
#    z 0.000000 0.000000 1.716030 
# 
# From -- ./inp_files/31489.got.cif
#   From: 2010.03.12/outbox.cif.g09.slc.cpg/sg72_16_cif.got.tgz:31489.got - 2010.04.16 14:54:00.
