data_PCOD8292824
_publ_section_title
;
Structure prediction by ZEFSAII (Michael W. Deem and Ramdas Pophale) SiO2 
 PCOD8292824
Probable space group: I B A M
;
_chemical_formula_sum "Si O2"
_cell_formula_units_Z 96
_cell_length_a 21.673060
_cell_length_b 17.874457
_cell_length_c 14.275668
_cell_angle_alpha 90.000000
_cell_angle_beta 90.000000
_cell_angle_gamma 90.000000
_cell_volume 5530.310685
_symmetry_space_group_name_H-M "I B A M"
_symmetry_group_IT_number 72
_symmetry_cell_setting 'orthorhombic'
loop_
_space_group_symop_operation_xyz
x,y,z
-x,-y,z
x,-y,1/2-z
-x,y,1/2-z
-x,-y,-z
x,y,-z
-x,y,1/2+z
x,-y,1/2+z
1/2+x,1/2+y,1/2+z
1/2-x,1/2-y,1/2+z
1/2+x,1/2-y,-z
1/2-x,1/2+y,-z
1/2-x,1/2-y,1/2-z
1/2+x,1/2+y,1/2-z
1/2-x,1/2+y,z
1/2+x,1/2-y,z
loop_
_atom_site_type_symbol
_atom_site_label
_atom_site_fract_x
_atom_site_fract_y
_atom_site_fract_z
Si Si1 0.886313 0.189182 0.895789
Si Si2 0.706387 0.624488 0.394749
Si Si3 0.359007 0.784339 0.100422
Si Si4 0.303821 0.803308 0.714776
Si Si5 0.480162 0.287248 0.652534
Si Si6 0.600859 0.418256 0.228767
O O1 0.851910 0.260718 0.852160
O O2 0.876695 0.119935 0.825653
O O3 0.959228 0.204145 0.910348
O O4 0.859375 0.172266 0.000000
O O5 0.715057 0.593533 0.500000
O O6 0.677407 0.706790 0.395179
O O7 0.773343 0.628439 0.343382
O O8 0.660648 0.570532 0.337603
O O9 0.338952 0.833362 0.190951
O O10 0.431770 0.766414 0.101782
O O11 0.344877 0.824444 0.000000
O O12 0.250000 0.750000 0.750000
O O13 0.500000 0.248749 0.750000
O O14 0.450793 0.368937 0.676252
O O15 0.573207 0.500000 0.250000
#
# Coordination Sequence:
#
# PCOD8292824 Si02
#       6
#    16  16  16  16  16  16
#     4  11  20  30  46  67  89 115 153 198 238 274
#     4   9  17  30  47  63  85 115 151 192 236 285
#     4   9  15  25  43  62  82 113 144 173 224 284
#     4  10  16  30  44  66  86 109 146 193 240 285
#     4   9  16  30  42  60  90 120 149 189 231 270
#     4  10  20  34  47  62  88 124 167 200 226 267
#
# _framework density 17.358879999999999
#
# number of rings (size 3 to 8) (size 9 to 14) (size 15 to 20)
#    0.000    2.333    6.667    1.000    0.000    5.000 
#    0.000    0.833    0.000    0.000    0.000    0.000 
#    0.000    0.000    0.000    3.000    0.667   14.000 
#
# Total GULP energy -594645.916850 kJ/mol
# GULP energy per Si atom -12388.456601 kJ/mol
# Density = 1.731937 g / cm^3
# Si number density = 17.358880 Si / 1000 Ang^3
#
#
#
# Elastic Constant Matrix: (Units=GPa)
#
#
# Indices 1 2 3 4 5 6 
#
# 1 91.7693 20.1509 41.8698 0.0000 0.0000 0.0000
# 2 20.1509 8.2380 9.1044 0.0000 0.0000 0.0000
# 3 41.8698 9.1044 142.6727 0.0000 0.0000 0.0000
# 4 0.0000 0.0000 0.0000 7.4292 0.0000 0.0000
# 5 0.0000 0.0000 0.0000 0.0000 22.8951 0.0000
# 6 0.0000 0.0000 0.0000 0.0000 0.0000 12.1083
#
#
#
# Elastic Compliance Matrix: (Units=1/GPa)
#
#
# Indices 1 2 3 4 5 6 
#
# 1 0.025264 -0.057672 -0.003734 0.000000 0.000000 0.000000
# 2 -0.057672 0.262250 0.000190 0.000000 0.000000 0.000000
# 3 -0.003734 0.000190 0.008093 0.000000 0.000000 0.000000
# 4 0.000000 0.000000 0.000000 0.134603 0.000000 0.000000
# 5 0.000000 0.000000 0.000000 0.000000 0.043678 0.000000
# 6 0.000000 0.000000 0.000000 0.000000 0.000000 0.082588
#
#
# Mechanical properties :
#
#
# Convention : Reuss Voigt Hill
#
# Bulk Modulus (GPa) = 5.77451 42.77001 24.27226
# Shear Modulus (GPa) = 6.78764 19.92352 13.35558
#
# Velocity S-wave (km/s) = 1.97956 3.39151 2.77678
# Velocity P-wave (km/s) = 2.92552 6.32682 4.92886
#
# Compressibility (1/GPa) = 0.17317490
#
# Stress axis : x y z
#
# Youngs Moduli (GPa) = 39.58154 3.81315 123.56751
#
# Poissons Ratio (x) = 0.21991 0.46140
# Poissons Ratio (y) = 2.28275 -0.02346
# Poissons Ratio (z) = 0.14780 -0.00072
#
# Static dielectric constant tensor:
#      x y z
#    x 3.552400 0.000000 0.000000 
#    y 0.000000 2.497480 0.000000 
#    z 0.000000 0.000000 3.810910 
# 
# 
# High freq. dielectric constant tensor:
#      x y z
#    x 1.677410 0.000000 0.000000 
#    y 0.000000 1.570050 0.000000 
#    z 0.000000 0.000000 1.696680 
# 
# From -- ./inp_files/24395.got.cif
#   From: 2010.03.12/outbox.cif.g09.slc.cpg/sg72_13_cif.got.tgz:24395.got - 2010.04.16 14:54:00.
