data_PCOD8292089
_publ_section_title
;
Structure prediction by ZEFSAII (Michael W. Deem and Ramdas Pophale) SiO2 
 PCOD8292089
Probable space group: I M M M
;
_chemical_formula_sum "Si O2"
_cell_formula_units_Z 72
_cell_length_a 14.206040
_cell_length_b 29.849503
_cell_length_c 8.868619
_cell_angle_alpha 90.000000
_cell_angle_beta 90.000000
_cell_angle_gamma 90.000000
_cell_volume 3760.677878
_symmetry_space_group_name_H-M "I M M M"
_symmetry_group_IT_number 71
_symmetry_cell_setting 'orthorhombic'
loop_
_space_group_symop_operation_xyz
x,y,z
-x,-y,z
x,-y,-z
-x,y,-z
-x,-y,-z
x,y,-z
-x,y,z
x,-y,z
1/2+x,1/2+y,1/2+z
1/2-x,1/2-y,1/2+z
1/2+x,1/2-y,1/2-z
1/2-x,1/2+y,1/2-z
1/2-x,1/2-y,1/2-z
1/2+x,1/2+y,1/2-z
1/2-x,1/2+y,1/2+z
1/2+x,1/2-y,1/2+z
loop_
_atom_site_type_symbol
_atom_site_label
_atom_site_fract_x
_atom_site_fract_y
_atom_site_fract_z
Si Si1 0.000000 0.332790 0.676488
Si Si2 0.688415 0.550641 0.823389
Si Si3 0.000000 0.764581 0.179238
Si Si4 0.178371 0.628791 0.827289
Si Si5 0.000000 0.053253 0.830769
Si Si6 0.688622 0.711904 0.174305
O O1 0.000000 0.286721 0.767731
O O2 0.908411 0.361545 0.717999
O O3 0.000000 0.322151 0.500000
O O4 0.709451 0.500000 0.767697
O O5 0.778349 0.580826 0.780376
O O6 0.594470 0.571092 0.748515
O O7 0.669608 0.552091 0.000000
O O8 0.910386 0.791126 0.241067
O O9 0.000000 0.764782 0.000000
O O10 0.260415 0.664834 0.805939
O O11 0.142513 0.628694 0.000000
O O12 0.000000 0.000000 0.821756
O O13 0.000000 0.071500 0.000000
O O14 0.750000 0.750000 0.250000
O O15 0.672503 0.724307 0.000000
#
# Coordination Sequence:
#
# PCOD8292089 Si02
#       6
#     8  16   8  16   8  16
#     4  12  24  38  60  84 110 148 193 236 285 349
#     4   9  18  35  59  85 113 150 194 236 279 333
#     4  12  24  39  59  83 117 154 191 238 288 341
#     4  10  22  39  60  84 114 149 189 238 288 337
#     4   9  17  30  51  80 114 150 182 223 282 336
#     4  11  22  37  58  84 114 149 190 235 285 338
#
# _framework density 19.145485000000001
#
# number of rings (size 3 to 8) (size 9 to 14) (size 15 to 20)
#    0.000    1.667    2.222    3.000    0.000    4.000 
#    0.000    5.000    0.000    3.333    0.000    0.000 
#    0.000    0.000    0.000    0.000    0.000    0.000 
#
# Total GULP energy -446515.724914 kJ/mol
# GULP energy per Si atom -12403.214581 kJ/mol
# Density = 1.910191 g / cm^3
# Si number density = 19.145485 Si / 1000 Ang^3
#
#
#
# Elastic Constant Matrix: (Units=GPa)
#
#
# Indices 1 2 3 4 5 6 
#
# 1 133.9868 37.9531 63.5510 0.0005 -0.0008 -0.0005
# 2 37.9531 76.4508 34.7107 0.0045 -0.0013 -0.0004
# 3 63.5510 34.7107 119.8750 0.0183 -0.0035 0.0033
# 4 0.0005 0.0045 0.0183 21.2280 -0.0016 0.0001
# 5 -0.0008 -0.0013 -0.0035 -0.0016 39.5488 -0.0008
# 6 -0.0005 -0.0004 0.0033 0.0001 -0.0008 20.1577
#
#
#
# Elastic Compliance Matrix: (Units=1/GPa)
#
#
# Indices 1 2 3 4 5 6 
#
# 1 0.010578 -0.003115 -0.004706 0.000004 0.000000 0.000001
# 2 -0.003115 0.015977 -0.002975 -0.000001 0.000000 0.000001
# 3 -0.004706 -0.002975 0.011698 -0.000009 0.000001 -0.000002
# 4 0.000004 -0.000001 -0.000009 0.047108 0.000002 0.000000
# 5 0.000000 0.000000 0.000001 0.000002 0.025285 0.000001
# 6 0.000001 0.000001 -0.000002 0.000000 0.000001 0.049609
#
#
# Mechanical properties :
#
#
# Convention : Reuss Voigt Hill
#
# Bulk Modulus (GPa) = 60.01655 66.97137 63.49396
# Shear Modulus (GPa) = 26.68088 29.12677 27.90383
#
# Velocity S-wave (km/s) = 3.73713 3.90467 3.82181
# Velocity P-wave (km/s) = 7.07370 7.44209 7.26023
#
# Compressibility (1/GPa) = 0.01666207
#
# Stress axis : x y z
#
# Youngs Moduli (GPa) = 94.53868 62.58879 85.48267
#
# Poissons Ratio (x) = 0.19494 0.40227
# Poissons Ratio (y) = 0.29445 0.25432
# Poissons Ratio (z) = 0.44488 0.18621
#
# Static dielectric constant tensor:
#      x y z
#    x 3.527220 0.000010 0.000000 
#    y 0.000010 3.588500 0.000000 
#    z 0.000000 0.000000 3.596050 
# 
# 
# High freq. dielectric constant tensor:
#      x y z
#    x 1.750390 0.000000 0.000000 
#    y 0.000000 1.733000 0.000000 
#    z 0.000000 0.000000 1.747880 
# 
# From -- ./inp_files/6222.got.cif
#   From: 2010.06.25/outbox.cif.g09.slc.cpg/sg71_4_cif.got.tgz:6222.got - 2010.06.28 04:59:45.
