data_PCOD8292788
_publ_section_title
;
Structure prediction by ZEFSAII (Michael W. Deem and Ramdas Pophale) SiO2 
 PCOD8292788
Probable space group: I M M M
;
_chemical_formula_sum "Si O2"
_cell_formula_units_Z 80
_cell_length_a 23.692539
_cell_length_b 23.411801
_cell_length_c 7.608618
_cell_angle_alpha 90.000000
_cell_angle_beta 90.000000
_cell_angle_gamma 90.000000
_cell_volume 4220.386338
_symmetry_space_group_name_H-M "I M M M"
_symmetry_group_IT_number 71
_symmetry_cell_setting 'orthorhombic'
loop_
_space_group_symop_operation_xyz
x,y,z
-x,-y,z
x,-y,-z
-x,y,-z
-x,-y,-z
x,y,-z
-x,y,z
x,-y,z
1/2+x,1/2+y,1/2+z
1/2-x,1/2-y,1/2+z
1/2+x,1/2-y,1/2-z
1/2-x,1/2+y,1/2-z
1/2-x,1/2-y,1/2-z
1/2+x,1/2+y,1/2-z
1/2-x,1/2+y,1/2+z
1/2+x,1/2-y,1/2+z
loop_
_atom_site_type_symbol
_atom_site_label
_atom_site_fract_x
_atom_site_fract_y
_atom_site_fract_z
Si Si1 0.937662 0.067237 0.000000
Si Si2 0.935112 0.649272 0.705545
Si Si3 0.273650 0.332831 0.206601
Si Si4 0.352480 0.434251 0.797321
Si Si5 0.335562 0.776075 0.801242
Si Si6 0.933901 0.562304 0.000000
O O1 0.904558 0.085685 0.823704
O O2 0.000000 0.095853 0.000000
O O3 0.944674 0.000000 0.000000
O O4 0.924806 0.634581 0.500000
O O5 0.895224 0.701117 0.773832
O O6 0.000000 0.666922 0.740503
O O7 0.916747 0.594967 0.821532
O O8 0.298825 0.394974 0.252252
O O9 0.313550 0.282491 0.289947
O O10 0.211314 0.326416 0.287036
O O11 0.268001 0.323772 0.000000
O O12 0.335415 0.500000 0.760265
O O13 0.370646 0.425306 0.000000
O O14 0.347662 0.760281 0.000000
O O15 0.904052 0.500000 0.000000
O O16 0.000000 0.553670 0.000000
#
# Coordination Sequence:
#
# PCOD8292788 Si02
#       6
#     8  16  16  16  16   8
#     4   9  18  32  51  75 101 133 171 206 246 300
#     4   9  18  33  52  73 101 135 170 212 258 303
#     4   9  18  32  51  75 100 132 172 214 256 304
#     4   9  18  33  52  74 103 137 170 209 256 303
#     4   9  18  32  51  75  99 130 173 214 257 305
#     4   9  18  32  51  75 101 133 171 204 246 304
#
# _framework density 18.955611999999999
#
# number of rings (size 3 to 8) (size 9 to 14) (size 15 to 20)
#    0.000    3.000    0.000    0.000    2.800    0.800 
#    0.000    6.000    0.000    6.000    0.000    0.000 
#    0.000    0.000    0.000    0.000    0.000    0.000 
#
# Total GULP energy -495637.037426 kJ/mol
# GULP energy per Si atom -12390.925936 kJ/mol
# Density = 1.891247 g / cm^3
# Si number density = 18.955612 Si / 1000 Ang^3
#
#
#
# Elastic Constant Matrix: (Units=GPa)
#
#
# Indices 1 2 3 4 5 6 
#
# 1 104.4500 57.1355 24.2799 0.0000 0.0000 0.0000
# 2 57.1355 93.9675 25.8165 0.0000 0.0000 0.0000
# 3 24.2799 25.8165 63.4556 0.0000 0.0000 0.0000
# 4 0.0000 0.0000 0.0000 -210.1038 0.0000 0.0000
# 5 0.0000 0.0000 0.0000 0.0000 22.6761 0.0000
# 6 0.0000 0.0000 0.0000 0.0000 0.0000 22.4383
#
#
#
# Elastic Compliance Matrix: (Units=1/GPa)
#
#
# Indices 1 2 3 4 5 6 
#
# 1 0.014619 -0.008277 -0.002226 0.000000 0.000000 0.000000
# 2 -0.008277 0.016668 -0.003614 0.000000 0.000000 0.000000
# 3 -0.002226 -0.003614 0.018081 0.000000 0.000000 0.000000
# 4 0.000000 0.000000 0.000000 -0.004760 0.000000 0.000000
# 5 0.000000 0.000000 0.000000 0.000000 0.044099 0.000000
# 6 0.000000 0.000000 0.000000 0.000000 0.000000 0.044567
#
#
# Mechanical properties :
#
#
# Convention : Reuss Voigt Hill
#
# Bulk Modulus (GPa) = 47.31908 52.92634 50.12271
# Shear Modulus (GPa) = 29.66402 -22.68847 3.48777
#
# Velocity S-wave (km/s) = 3.96020 -3.46342 1.35793
# Velocity P-wave (km/s) = 6.77703 3.46239 5.38128
#
# Compressibility (1/GPa) = 0.02113312
#
# Stress axis : x y z
#
# Youngs Moduli (GPa) = 68.40273 59.99569 55.30614
#
# Poissons Ratio (x) = 0.49661 0.12312
# Poissons Ratio (y) = 0.56620 0.19988
# Poissons Ratio (z) = 0.15227 0.21683
#
# Static dielectric constant tensor:
#      x y z
#    x 3.536060 0.000000 0.000000 
#    y 0.000000 3.609040 0.000000 
#    z 0.000000 0.000000 3.499950 
# 
# 
# High freq. dielectric constant tensor:
#      x y z
#    x 1.722180 0.000000 0.000000 
#    y 0.000000 1.717440 0.000000 
#    z 0.000000 0.000000 1.739500 
# 
# From -- ./inp_files/12757.got.cif
#   From: 2010.06.25/outbox.cif.g09.slc.cpg/sg71_7_cif.got.tgz:12757.got - 2010.06.28 04:59:45.
