data_PCOD8292986
_publ_section_title
;
Structure prediction by ZEFSAII (Michael W. Deem and Ramdas Pophale) SiO2 
 PCOD8292986
Probable space group: I B A M
;
_chemical_formula_sum "Si O2"
_cell_formula_units_Z 128
_cell_length_a 23.738562
_cell_length_b 17.801792
_cell_length_c 18.432348
_cell_angle_alpha 90.000000
_cell_angle_beta 90.000000
_cell_angle_gamma 90.000000
_cell_volume 7789.306460
_symmetry_space_group_name_H-M "I B A M"
_symmetry_group_IT_number 72
_symmetry_cell_setting 'orthorhombic'
loop_
_space_group_symop_operation_xyz
x,y,z
-x,-y,z
x,-y,1/2-z
-x,y,1/2-z
-x,-y,-z
x,y,-z
-x,y,1/2+z
x,-y,1/2+z
1/2+x,1/2+y,1/2+z
1/2-x,1/2-y,1/2+z
1/2+x,1/2-y,-z
1/2-x,1/2+y,-z
1/2-x,1/2-y,1/2-z
1/2+x,1/2+y,1/2-z
1/2-x,1/2+y,z
1/2+x,1/2-y,z
loop_
_atom_site_type_symbol
_atom_site_label
_atom_site_fract_x
_atom_site_fract_y
_atom_site_fract_z
Si Si1 0.817272 0.298563 0.416975
Si Si2 0.215801 0.914050 0.917819
Si Si3 0.270499 0.031735 0.826886
Si Si4 0.245170 0.296138 0.676023
Si Si5 0.851577 0.226709 0.084620
Si Si6 0.384049 0.971880 0.585927
Si Si7 0.070214 0.629444 0.413816
Si Si8 0.450049 0.828110 0.414910
O O1 0.823836 0.274937 0.500000
O O2 0.771711 0.364343 0.407500
O O3 0.798336 0.225459 0.373410
O O4 0.876473 0.325043 0.382907
O O5 0.161210 0.861296 0.899624
O O6 0.218855 0.983987 0.862434
O O7 0.211335 0.944415 0.000000
O O8 0.249846 0.115651 0.811397
O O9 0.289394 0.000000 0.750000
O O10 0.322255 0.024171 0.881182
O O11 0.250000 0.250000 0.750000
O O12 0.187220 0.278889 0.634403
O O13 0.916768 0.249911 0.101911
O O14 0.837401 0.244260 0.000000
O O15 0.375371 0.970619 0.500000
O O16 0.422973 0.042431 0.609461
O O17 0.414176 0.897546 0.616197
O O18 0.071086 0.634497 0.500000
O O19 0.013082 0.667136 0.381233
O O20 0.456724 0.840033 0.500000
#
# Coordination Sequence:
#
# PCOD8292986 Si02
#       8
#    16  16  16  16  16  16  16  16
#     4   9  17  31  49  70  94 123 155 193 235 279
#     4   9  17  30  48  69  94 124 159 197 241 288
#     4  12  22  31  46  68  94 128 162 198 247 288
#     4  11  22  33  47  66  93 126 161 202 243 289
#     4   9  17  31  49  70  95 123 158 199 236 279
#     4  10  18  29  46  70  98 129 164 194 224 278
#     4   9  16  27  47  72  99 127 158 195 230 275
#     4   9  16  27  46  73  98 126 163 195 228 275
#
# _framework density 16.432784999999999
#
# number of rings (size 3 to 8) (size 9 to 14) (size 15 to 20)
#    0.000    2.250    2.500    3.375    0.000    3.000 
#    0.000    0.000    0.000    3.750    0.000    0.875 
#    0.000    6.000    0.000    0.000    0.000    0.000 
#
# Total GULP energy -793208.268606 kJ/mol
# GULP energy per Si atom -12393.879197 kJ/mol
# Density = 1.639538 g / cm^3
# Si number density = 16.432785 Si / 1000 Ang^3
#
#
#
# Elastic Constant Matrix: (Units=GPa)
#
#
# Indices 1 2 3 4 5 6 
#
# 1 89.0213 51.0464 22.0323 0.0000 0.0000 0.0000
# 2 51.0464 100.4583 32.7915 0.0000 0.0000 0.0000
# 3 22.0323 32.7915 47.8853 0.0000 0.0000 0.0000
# 4 0.0000 0.0000 0.0000 25.1244 0.0000 0.0000
# 5 0.0000 0.0000 0.0000 0.0000 4.5686 0.0000
# 6 0.0000 0.0000 0.0000 0.0000 0.0000 24.9271
#
#
#
# Elastic Compliance Matrix: (Units=1/GPa)
#
#
# Indices 1 2 3 4 5 6 
#
# 1 0.016049 -0.007399 -0.002318 0.000000 0.000000 0.000000
# 2 -0.007399 0.016231 -0.007711 0.000000 0.000000 0.000000
# 3 -0.002318 -0.007711 0.027230 0.000000 0.000000 0.000000
# 4 0.000000 0.000000 0.000000 0.039802 0.000000 0.000000
# 5 0.000000 0.000000 0.000000 0.000000 0.218884 0.000000
# 6 0.000000 0.000000 0.000000 0.000000 0.000000 0.040117
#
#
# Mechanical properties :
#
#
# Convention : Reuss Voigt Hill
#
# Bulk Modulus (GPa) = 40.55831 49.90060 45.22945
# Shear Modulus (GPa) = 12.45684 19.69034 16.07359
#
# Velocity S-wave (km/s) = 2.75625 3.46531 3.13092
# Velocity P-wave (km/s) = 5.90459 6.81495 6.37604
#
# Compressibility (1/GPa) = 0.02465586
#
# Stress axis : x y z
#
# Youngs Moduli (GPa) = 62.30735 61.61129 36.72438
#
# Poissons Ratio (x) = 0.45584 0.08512
# Poissons Ratio (y) = 0.46099 0.28317
# Poissons Ratio (z) = 0.14442 0.47506
#
# Static dielectric constant tensor:
#      x y z
#    x 3.226190 0.000000 0.000000 
#    y 0.000000 3.170880 0.000000 
#    z 0.000000 0.000000 2.936830 
# 
# 
# High freq. dielectric constant tensor:
#      x y z
#    x 1.612290 0.000000 0.000000 
#    y 0.000000 1.619860 0.000000 
#    z 0.000000 0.000000 1.612660 
# 
# From -- ./inp_files/33547.got.cif
#   From: 2010.03.12/outbox.cif.g09.slc.cpg/sg72_17_cif.got.tgz:33547.got - 2010.04.16 14:54:00.
