data_PCOD8292740
_publ_section_title
;
Structure prediction by ZEFSAII (Michael W. Deem and Ramdas Pophale) SiO2 
 PCOD8292740
Probable space group: I M M M
;
_chemical_formula_sum "Si O2"
_cell_formula_units_Z 88
_cell_length_a 18.082944
_cell_length_b 9.687074
_cell_length_c 29.139294
_cell_angle_alpha 90.000000
_cell_angle_beta 90.000000
_cell_angle_gamma 90.000000
_cell_volume 5104.353927
_symmetry_space_group_name_H-M "I M M M"
_symmetry_group_IT_number 71
_symmetry_cell_setting 'orthorhombic'
loop_
_space_group_symop_operation_xyz
x,y,z
-x,-y,z
x,-y,-z
-x,y,-z
-x,-y,-z
x,y,-z
-x,y,z
x,-y,z
1/2+x,1/2+y,1/2+z
1/2-x,1/2-y,1/2+z
1/2+x,1/2-y,1/2-z
1/2-x,1/2+y,1/2-z
1/2-x,1/2-y,1/2-z
1/2+x,1/2+y,1/2-z
1/2-x,1/2+y,1/2+z
1/2+x,1/2-y,1/2+z
loop_
_atom_site_type_symbol
_atom_site_label
_atom_site_fract_x
_atom_site_fract_y
_atom_site_fract_z
Si Si1 0.500000 0.335347 0.448294
Si Si2 0.146377 0.164351 0.899254
Si Si3 0.793739 0.664759 0.448112
Si Si4 0.654358 0.157381 0.214518
Si Si5 0.082889 0.335717 0.621007
Si Si6 0.828108 0.157271 0.797488
O O1 0.500000 0.500000 0.447343
O O2 0.500000 0.279546 0.500000
O O3 0.427127 0.277305 0.423317
O O4 0.218086 0.222613 0.925870
O O5 0.145033 0.213993 0.846609
O O6 0.149183 0.000000 0.900833
O O7 0.800876 0.720682 0.500000
O O8 0.793042 0.500000 0.447687
O O9 0.863103 0.721894 0.418688
O O10 0.609354 0.215844 0.170971
O O11 0.740170 0.169044 0.202737
O O12 0.634021 0.249789 0.258454
O O13 0.632102 0.000000 0.225641
O O14 0.085980 0.500000 0.620694
O O15 0.000000 0.281376 0.611423
O O16 0.853503 0.000000 0.789332
#
# Coordination Sequence:
#
# PCOD8292740 Si02
#       6
#     8  16  16  16  16  16
#     4   9  16  24  36  56  83 115 145 171 208 261
#     4   9  15  25  38  55  82 112 140 172 213 256
#     4   9  15  23  37  56  79 108 140 173 211 256
#     4   9  16  28  44  62  85 114 145 175 211 254
#     4   9  16  26  39  56  81 112 143 175 211 253
#     4   9  16  27  45  64  85 113 143 176 214 254
#
# _framework density 17.240182999999998
#
# number of rings (size 3 to 8) (size 9 to 14) (size 15 to 20)
#    0.000    3.000    1.818    0.545    0.000    2.545 
#    1.636    1.818    0.000    0.000    0.000    0.000 
#    0.000    5.818    0.000    1.636    0.000    1.818 
#
# Total GULP energy -545466.434749 kJ/mol
# GULP energy per Si atom -12396.964426 kJ/mol
# Density = 1.720094 g / cm^3
# Si number density = 17.240183 Si / 1000 Ang^3
#
#
#
# Elastic Constant Matrix: (Units=GPa)
#
#
# Indices 1 2 3 4 5 6 
#
# 1 122.4575 15.1583 87.9669 0.0000 0.0000 0.0000
# 2 15.1583 22.2071 33.4296 0.0000 0.0000 0.0000
# 3 87.9669 33.4296 193.1617 0.0000 0.0000 0.0000
# 4 0.0000 0.0000 0.0000 19.0009 0.0000 0.0000
# 5 0.0000 0.0000 0.0000 0.0000 26.9641 0.0000
# 6 0.0000 0.0000 0.0000 0.0000 0.0000 6.0707
#
#
#
# Elastic Compliance Matrix: (Units=1/GPa)
#
#
# Indices 1 2 3 4 5 6 
#
# 1 0.012136 0.000049 -0.005535 0.000000 0.000000 0.000000
# 2 0.000049 0.060896 -0.010561 0.000000 0.000000 0.000000
# 3 -0.005535 -0.010561 0.009526 0.000000 0.000000 0.000000
# 4 0.000000 0.000000 0.000000 0.052629 0.000000 0.000000
# 5 0.000000 0.000000 0.000000 0.000000 0.037086 0.000000
# 6 0.000000 0.000000 0.000000 0.000000 0.000000 0.164725
#
#
# Mechanical properties :
#
#
# Convention : Reuss Voigt Hill
#
# Bulk Modulus (GPa) = 19.81692 67.88176 43.84934
# Shear Modulus (GPa) = 12.95624 23.82524 18.39074
#
# Velocity S-wave (km/s) = 2.74435 3.72150 3.26964
# Velocity P-wave (km/s) = 4.64344 7.61090 6.30426
#
# Compressibility (1/GPa) = 0.05046193
#
# Stress axis : x y z
#
# Youngs Moduli (GPa) = 82.39658 16.42154 104.98002
#
# Poissons Ratio (x) = -0.00080 0.58111
# Poissons Ratio (y) = -0.00400 1.10870
# Poissons Ratio (z) = 0.45610 0.17343
#
# Static dielectric constant tensor:
#      x y z
#    x 3.305380 0.000000 0.000000 
#    y 0.000000 2.581790 0.000000 
#    z 0.000000 0.000000 3.461390 
# 
# 
# High freq. dielectric constant tensor:
#      x y z
#    x 1.664470 0.000000 0.000000 
#    y 0.000000 1.581320 0.000000 
#    z 0.000000 0.000000 1.683170 
# 
# From -- ./inp_files/22525.got.cif
#   From: 2010.06.25/outbox.cif.g09.slc.cpg/sg71_12_cif.got.tgz:22525.got - 2010.06.28 04:59:45.
