data_PCOD8292415
_publ_section_title
;
Structure prediction by ZEFSAII (Michael W. Deem and Ramdas Pophale) SiO2 
 PCOD8292415
Probable space group: I M M M
;
_chemical_formula_sum "Si O2"
_cell_formula_units_Z 96
_cell_length_a 13.956020
_cell_length_b 14.671897
_cell_length_c 21.115793
_cell_angle_alpha 90.000000
_cell_angle_beta 90.000000
_cell_angle_gamma 90.000000
_cell_volume 4323.696971
_symmetry_space_group_name_H-M "I M M M"
_symmetry_group_IT_number 71
_symmetry_cell_setting 'orthorhombic'
loop_
_space_group_symop_operation_xyz
x,y,z
-x,-y,z
x,-y,-z
-x,y,-z
-x,-y,-z
x,y,-z
-x,y,z
x,-y,z
1/2+x,1/2+y,1/2+z
1/2-x,1/2-y,1/2+z
1/2+x,1/2-y,1/2-z
1/2-x,1/2+y,1/2-z
1/2-x,1/2-y,1/2-z
1/2+x,1/2+y,1/2-z
1/2-x,1/2+y,1/2+z
1/2+x,1/2-y,1/2+z
loop_
_atom_site_type_symbol
_atom_site_label
_atom_site_fract_x
_atom_site_fract_y
_atom_site_fract_z
Si Si1 0.701221 0.401100 0.799446
Si Si2 0.604685 0.151209 0.641302
Si Si3 0.856009 0.601332 0.000000
Si Si4 0.890823 0.140494 0.828944
Si Si5 0.367548 0.397617 0.000000
Si Si6 0.743461 0.898498 0.072042
Si Si7 0.894094 0.236892 0.612977
O O1 0.661097 0.500000 0.822359
O O2 0.812444 0.402778 0.821638
O O3 0.683581 0.394381 0.724473
O O4 0.645607 0.314497 0.826010
O O5 0.500000 0.108250 0.656802
O O6 0.615496 0.153538 0.564499
O O7 0.608696 0.251671 0.668528
O O8 0.902341 0.500000 0.000000
O O9 0.744106 0.591662 0.000000
O O10 0.846331 0.102627 0.893824
O O11 0.000000 0.103586 0.819344
O O12 0.400871 0.339800 0.940349
O O13 0.412927 0.500000 0.000000
O O14 0.670992 0.823741 0.099268
O O15 0.697998 0.000000 0.077679
O O16 0.763632 0.871929 0.000000
O O17 0.000000 0.274553 0.627217
#
# Coordination Sequence:
#
# PCOD8292415 Si02
#       7
#    16  16   8  16   8  16  16
#     4  12  25  44  69  99 141 181 222 279 339 404
#     4  11  24  41  68 102 138 185 230 275 336 407
#     4  11  21  39  65  99 144 181 221 281 341 400
#     4  11  25  46  72  99 133 177 226 280 341 407
#     4  11  21  37  62  96 136 179 226 279 337 399
#     4  11  25  46  71  99 133 174 226 288 346 402
#     4  12  25  42  67  98 135 179 227 280 336 404
#
# _framework density 22.203222
#
# number of rings (size 3 to 8) (size 9 to 14) (size 15 to 20)
#    0.000    0.667    4.167    3.000    1.167    6.000 
#    0.000    1.667    0.000    2.000    0.000    0.000 
#    0.000    0.000    0.000    0.000    0.000    0.000 
#
# Total GULP energy -594874.071602 kJ/mol
# GULP energy per Si atom -12393.209825 kJ/mol
# Density = 2.215269 g / cm^3
# Si number density = 22.203222 Si / 1000 Ang^3
#
#
#
# Elastic Constant Matrix: (Units=GPa)
#
#
# Indices 1 2 3 4 5 6 
#
# 1 159.2970 37.8659 69.8903 0.0000 0.0000 0.0000
# 2 37.8659 124.4491 41.2388 0.0000 0.0000 0.0000
# 3 69.8903 41.2388 106.4280 0.0000 0.0000 0.0000
# 4 0.0000 0.0000 0.0000 16.6376 0.0000 0.0000
# 5 0.0000 0.0000 0.0000 0.0000 11.0762 0.0000
# 6 0.0000 0.0000 0.0000 0.0000 0.0000 25.3909
#
#
#
# Elastic Compliance Matrix: (Units=1/GPa)
#
#
# Indices 1 2 3 4 5 6 
#
# 1 0.008902 -0.000885 -0.005503 0.000000 0.000000 0.000000
# 2 -0.000885 0.009307 -0.003025 0.000000 0.000000 0.000000
# 3 -0.005503 -0.003025 0.014182 0.000000 0.000000 0.000000
# 4 0.000000 0.000000 0.000000 0.060105 0.000000 0.000000
# 5 0.000000 0.000000 0.000000 0.000000 0.090283 0.000000
# 6 0.000000 0.000000 0.000000 0.000000 0.000000 0.039384
#
#
# Mechanical properties :
#
#
# Convention : Reuss Voigt Hill
#
# Bulk Modulus (GPa) = 73.71982 76.46269 75.09125
# Shear Modulus (GPa) = 20.36557 26.69955 23.53256
#
# Velocity S-wave (km/s) = 3.03187 3.47148 3.25910
# Velocity P-wave (km/s) = 6.74765 7.11201 6.93222
#
# Compressibility (1/GPa) = 0.01356487
#
# Stress axis : x y z
#
# Youngs Moduli (GPa) = 112.32836 107.44415 70.51149
#
# Poissons Ratio (x) = 0.09510 0.38804
# Poissons Ratio (y) = 0.09943 0.21330
# Poissons Ratio (z) = 0.61817 0.32503
#
# Static dielectric constant tensor:
#      x y z
#    x 4.297350 0.000000 0.000000 
#    y 0.000000 4.243430 0.000000 
#    z 0.000000 0.000000 4.084550 
# 
# 
# High freq. dielectric constant tensor:
#      x y z
#    x 1.876260 0.000000 0.000000 
#    y 0.000000 1.885620 0.000000 
#    z 0.000000 0.000000 1.873160 
# 
# From -- ./inp_files/53032.got.cif
#   From: 2010.06.25/outbox.cif.g09.slc.cpg/sg71_27_cif.got.tgz:53032.got - 2010.06.28 04:59:45.
