data_PCOD8292702
_publ_section_title
;
Structure prediction by ZEFSAII (Michael W. Deem and Ramdas Pophale) SiO2 
 PCOD8292702
Probable space group: I M M M
;
_chemical_formula_sum "Si O2"
_cell_formula_units_Z 120
_cell_length_a 9.582745
_cell_length_b 27.331538
_cell_length_c 26.972434
_cell_angle_alpha 90.000000
_cell_angle_beta 90.000000
_cell_angle_gamma 90.000000
_cell_volume 7064.381453
_symmetry_space_group_name_H-M "I M M M"
_symmetry_group_IT_number 71
_symmetry_cell_setting 'orthorhombic'
loop_
_space_group_symop_operation_xyz
x,y,z
-x,-y,z
x,-y,-z
-x,y,-z
-x,-y,-z
x,y,-z
-x,y,z
x,-y,z
1/2+x,1/2+y,1/2+z
1/2-x,1/2-y,1/2+z
1/2+x,1/2-y,1/2-z
1/2-x,1/2+y,1/2-z
1/2-x,1/2-y,1/2-z
1/2+x,1/2+y,1/2-z
1/2-x,1/2+y,1/2+z
1/2+x,1/2-y,1/2+z
loop_
_atom_site_type_symbol
_atom_site_label
_atom_site_fract_x
_atom_site_fract_y
_atom_site_fract_z
Si Si1 0.663421 0.843816 0.236363
Si Si2 0.662457 0.318661 0.831707
Si Si3 0.335521 0.212602 0.140456
Si Si4 0.658644 0.053277 0.728754
Si Si5 0.335198 0.500000 0.055222
Si Si6 0.155960 0.053756 0.941116
Si Si7 0.663961 0.142840 0.943530
Si Si8 0.662118 0.576838 0.865119
O O1 0.500000 0.832418 0.243994
O O2 0.746675 0.822189 0.282507
O O3 0.724093 0.817778 0.187337
O O4 0.691734 0.902536 0.233003
O O5 0.500000 0.315988 0.816285
O O6 0.711166 0.269193 0.859367
O O7 0.689299 0.364597 0.868617
O O8 0.500000 0.208290 0.142885
O O9 0.283015 0.188513 0.089265
O O10 0.500000 0.058812 0.709745
O O11 0.756349 0.055123 0.681132
O O12 0.680715 0.000000 0.754714
O O13 0.500000 0.500000 0.049444
O O14 0.287706 0.549076 0.084907
O O15 0.267116 0.500000 0.000000
O O16 0.263447 0.094276 0.921567
O O17 0.000000 0.066775 0.922727
O O18 0.199770 0.000000 0.920937
O O19 0.159907 0.052816 0.000000
O O20 0.500000 0.133948 0.938906
O O21 0.708448 0.153925 0.000000
O O22 0.500000 0.565683 0.855651
#
# Coordination Sequence:
#
# PCOD8292702 Si02
#       8
#    16  16  16  16   8  16  16  16
#     4   9  17  29  45  64  87 114 142 176 220 263
#     4   9  17  29  46  66  87 112 145 182 221 264
#     4   9  17  30  45  63  90 118 144 181 224 262
#     4   9  16  26  42  63  85 109 139 174 210 258
#     4   9  16  26  41  63  91 117 143 179 218 257
#     4   8  14  26  44  64  85 109 139 178 221 258
#     4   9  17  29  45  64  86 115 150 183 215 256
#     4   9  16  27  44  64  84 111 145 178 214 256
#
# _framework density 16.986626000000001
#
# number of rings (size 3 to 8) (size 9 to 14) (size 15 to 20)
#    0.000    3.133    0.667    0.800    0.000    0.267 
#    0.000    4.000    0.000    7.200    0.000    0.000 
#    0.000    1.067    0.000    0.000    0.000    0.000 
#
# Total GULP energy -743485.315983 kJ/mol
# GULP energy per Si atom -12391.421933 kJ/mol
# Density = 1.694796 g / cm^3
# Si number density = 16.986626 Si / 1000 Ang^3
#
#
#
# Elastic Constant Matrix: (Units=GPa)
#
#
# Indices 1 2 3 4 5 6 
#
# 1 33.5697 34.2181 21.6303 0.0000 0.0000 0.0000
# 2 34.2181 168.8345 68.0538 0.0000 0.0000 0.0000
# 3 21.6303 68.0538 82.6191 0.0000 0.0000 0.0000
# 4 0.0000 0.0000 0.0000 24.1972 0.0000 0.0000
# 5 0.0000 0.0000 0.0000 0.0000 14.1288 0.0000
# 6 0.0000 0.0000 0.0000 0.0000 0.0000 17.7070
#
#
#
# Elastic Compliance Matrix: (Units=1/GPa)
#
#
# Indices 1 2 3 4 5 6 
#
# 1 0.039183 -0.005698 -0.005565 0.000000 0.000000 0.000000
# 2 -0.005698 0.009696 -0.006494 0.000000 0.000000 0.000000
# 3 -0.005565 -0.006494 0.018910 0.000000 0.000000 0.000000
# 4 0.000000 0.000000 0.000000 0.041327 0.000000 0.000000
# 5 0.000000 0.000000 0.000000 0.000000 0.070778 0.000000
# 6 0.000000 0.000000 0.000000 0.000000 0.000000 0.056475
#
#
# Mechanical properties :
#
#
# Convention : Reuss Voigt Hill
#
# Bulk Modulus (GPa) = 30.98505 59.20308 45.09407
# Shear Modulus (GPa) = 17.69030 21.94798 19.81914
#
# Velocity S-wave (km/s) = 3.23061 3.59844 3.41948
# Velocity P-wave (km/s) = 5.67417 7.22451 6.49576
#
# Compressibility (1/GPa) = 0.03227363
#
# Stress axis : x y z
#
# Youngs Moduli (GPa) = 25.52151 103.13912 52.88163
#
# Poissons Ratio (x) = 0.58771 0.29427
# Poissons Ratio (y) = 0.14543 0.34344
# Poissons Ratio (z) = 0.14202 0.66984
#
# Static dielectric constant tensor:
#      x y z
#    x 3.056450 0.000000 0.000000 
#    y 0.000000 3.661450 0.000000 
#    z 0.000000 0.000000 3.056180 
# 
# 
# High freq. dielectric constant tensor:
#      x y z
#    x 1.634130 0.000000 0.000000 
#    y 0.000000 1.672140 0.000000 
#    z 0.000000 0.000000 1.619680 
# 
# From -- ./inp_files/63801.got.cif
#   From: 2010.06.25/outbox.cif.g09.slc.cpg/sg71_32_cif.got.tgz:63801.got - 2010.06.28 04:59:45.
