data_PCOD8292032
_publ_section_title
;
Structure prediction by ZEFSAII (Michael W. Deem and Ramdas Pophale) SiO2 
 PCOD8292032
Probable space group: I M M M
;
_chemical_formula_sum "Si O2"
_cell_formula_units_Z 104
_cell_length_a 18.807172
_cell_length_b 17.465332
_cell_length_c 17.490237
_cell_angle_alpha 90.000000
_cell_angle_beta 90.000000
_cell_angle_gamma 90.000000
_cell_volume 5745.079415
_symmetry_space_group_name_H-M "I M M M"
_symmetry_group_IT_number 71
_symmetry_cell_setting 'orthorhombic'
loop_
_space_group_symop_operation_xyz
x,y,z
-x,-y,z
x,-y,-z
-x,y,-z
-x,-y,-z
x,y,-z
-x,y,z
x,-y,z
1/2+x,1/2+y,1/2+z
1/2-x,1/2-y,1/2+z
1/2+x,1/2-y,1/2-z
1/2-x,1/2+y,1/2-z
1/2-x,1/2-y,1/2-z
1/2+x,1/2+y,1/2-z
1/2-x,1/2+y,1/2+z
1/2+x,1/2-y,1/2+z
loop_
_atom_site_type_symbol
_atom_site_label
_atom_site_fract_x
_atom_site_fract_y
_atom_site_fract_z
Si Si1 0.684679 0.843144 0.700666
Si Si2 0.340839 0.410217 0.648980
Si Si3 0.840801 0.187573 0.288542
Si Si4 0.677053 0.913331 0.146464
Si Si5 0.920251 0.587571 0.911400
Si Si6 0.581895 0.222037 0.912387
Si Si7 0.920111 0.091221 0.000000
O O1 0.767365 0.845388 0.675940
O O2 0.670355 0.762372 0.738572
O O3 0.664508 0.908599 0.762413
O O4 0.635024 0.855254 0.627906
O O5 0.351675 0.500000 0.657477
O O6 0.371134 0.374292 0.727987
O O7 0.258765 0.388681 0.632902
O O8 0.383083 0.376626 0.576411
O O9 0.893262 0.207239 0.358667
O O10 0.626685 0.855419 0.100734
O O11 0.661960 0.000000 0.118250
O O12 0.897183 0.500000 0.897322
O O13 0.000000 0.601210 0.879391
O O14 0.918477 0.607636 0.000000
O O15 0.500000 0.203451 0.893755
O O16 0.591647 0.248102 0.000000
O O17 0.000000 0.121823 0.000000
O O18 0.915697 0.000000 0.000000
#
# Coordination Sequence:
#
# PCOD8292032 Si02
#       7
#    16  16  16  16  16  16   8
#     4   9  17  32  50  73 101 136 179 215 251 304
#     4   9  18  34  56  81 106 135 171 214 264 322
#     4   9  19  35  52  73 100 135 177 224 265 306
#     4   9  18  32  53  79 105 136 173 212 260 317
#     4   9  18  32  50  76 112 147 173 205 256 315
#     4  10  22  37  52  74 104 139 180 223 266 312
#     4   9  18  32  50  76 107 133 162 202 255 318
#
# _framework density 18.102447999999999
#
# number of rings (size 3 to 8) (size 9 to 14) (size 15 to 20)
#    0.000    2.846    0.000    1.846    1.077    4.923 
#    1.385    0.769    0.000    0.462    0.000    1.077 
#    0.000    0.000    0.000    0.000    0.000    0.000 
#
# Total GULP energy -644581.629558 kJ/mol
# GULP energy per Si atom -12395.800568 kJ/mol
# Density = 1.806125 g / cm^3
# Si number density = 18.102448 Si / 1000 Ang^3
#
#
#
# Elastic Constant Matrix: (Units=GPa)
#
#
# Indices 1 2 3 4 5 6 
#
# 1 103.9156 41.1486 71.1208 0.0000 0.0000 0.0000
# 2 41.1486 49.9433 46.1177 0.0000 0.0000 0.0000
# 3 71.1208 46.1177 112.3767 0.0000 0.0000 0.0000
# 4 0.0000 0.0000 0.0000 24.3094 0.0000 0.0000
# 5 0.0000 0.0000 0.0000 0.0000 35.0511 0.0000
# 6 0.0000 0.0000 0.0000 0.0000 0.0000 26.3568
#
#
#
# Elastic Compliance Matrix: (Units=1/GPa)
#
#
# Indices 1 2 3 4 5 6 
#
# 1 0.018419 -0.007103 -0.008742 0.000000 0.000000 0.000000
# 2 -0.007103 0.034979 -0.009860 0.000000 0.000000 0.000000
# 3 -0.008742 -0.009860 0.018477 0.000000 0.000000 0.000000
# 4 0.000000 0.000000 0.000000 0.041136 0.000000 0.000000
# 5 0.000000 0.000000 0.000000 0.000000 0.028530 0.000000
# 6 0.000000 0.000000 0.000000 0.000000 0.000000 0.037941
#
#
# Mechanical properties :
#
#
# Convention : Reuss Voigt Hill
#
# Bulk Modulus (GPa) = 48.86043 64.77884 56.81963
# Shear Modulus (GPa) = 21.03365 24.33337 22.68351
#
# Velocity S-wave (km/s) = 3.41240 3.67032 3.54370
# Velocity P-wave (km/s) = 6.52500 7.33648 6.94260
#
# Compressibility (1/GPa) = 0.02046646
#
# Stress axis : x y z
#
# Youngs Moduli (GPa) = 54.29179 28.58823 54.12015
#
# Poissons Ratio (x) = 0.20307 0.47311
# Poissons Ratio (y) = 0.38565 0.53360
# Poissons Ratio (z) = 0.47461 0.28187
#
# Static dielectric constant tensor:
#      x y z
#    x 3.379220 0.000000 0.000000 
#    y 0.000000 3.268670 0.000000 
#    z 0.000000 0.000000 3.421250 
# 
# 
# High freq. dielectric constant tensor:
#      x y z
#    x 1.696030 0.000000 0.000000 
#    y 0.000000 1.683900 0.000000 
#    z 0.000000 0.000000 1.698020 
# 
# From -- ./inp_files/38328.got.cif
#   From: 2010.06.25/outbox.cif.g09.slc.cpg/sg71_20_cif.got.tgz:38328.got - 2010.06.28 04:59:45.
