data_PCOD8292762
_publ_section_title
;
Structure prediction by ZEFSAII (Michael W. Deem and Ramdas Pophale) SiO2 
 PCOD8292762
Probable space group: I M M M
;
_chemical_formula_sum "Si O2"
_cell_formula_units_Z 120
_cell_length_a 15.641565
_cell_length_b 33.686850
_cell_length_c 13.692112
_cell_angle_alpha 90.000000
_cell_angle_beta 90.000000
_cell_angle_gamma 90.000000
_cell_volume 7214.579933
_symmetry_space_group_name_H-M "I M M M"
_symmetry_group_IT_number 71
_symmetry_cell_setting 'orthorhombic'
loop_
_space_group_symop_operation_xyz
x,y,z
-x,-y,z
x,-y,-z
-x,y,-z
-x,-y,-z
x,y,-z
-x,y,z
x,-y,z
1/2+x,1/2+y,1/2+z
1/2-x,1/2-y,1/2+z
1/2+x,1/2-y,1/2-z
1/2-x,1/2+y,1/2-z
1/2-x,1/2-y,1/2-z
1/2+x,1/2+y,1/2-z
1/2-x,1/2+y,1/2+z
1/2+x,1/2-y,1/2+z
loop_
_atom_site_type_symbol
_atom_site_label
_atom_site_fract_x
_atom_site_fract_y
_atom_site_fract_z
Si Si1 0.596994 0.896495 0.199678
Si Si2 0.097942 0.308028 0.264974
Si Si3 0.594972 0.730469 0.115083
Si Si4 0.730719 0.045707 0.889499
Si Si5 0.000000 0.952604 0.611098
Si Si6 0.810579 0.403690 0.891231
Si Si7 0.260345 0.815888 0.388522
Si Si8 0.328372 0.453831 0.798651
O O1 0.500000 0.906188 0.172977
O O2 0.619172 0.850061 0.182398
O O3 0.652741 0.924505 0.130041
O O4 0.611950 0.905742 0.314440
O O5 0.113275 0.274098 0.343892
O O6 0.160471 0.299228 0.174178
O O7 0.000000 0.308769 0.226072
O O8 0.500000 0.715501 0.148609
O O9 0.669217 0.700534 0.151418
O O10 0.597812 0.734340 0.000000
O O11 0.807623 0.056287 0.814769
O O12 0.700595 0.000000 0.873295
O O13 0.763925 0.051877 0.000000
O O14 0.081403 0.935012 0.669272
O O15 0.000000 0.936566 0.500000
O O16 0.000000 0.000000 0.611417
O O17 0.756713 0.363258 0.879708
O O18 0.745288 0.438899 0.870319
O O19 0.849121 0.407974 0.000000
O O20 0.275786 0.802165 0.500000
O O21 0.333271 0.500000 0.816639
#
# Coordination Sequence:
#
# PCOD8292762 Si02
#       8
#    16  16  16  16   8  16  16  16
#     4   9  18  30  44  65  89 112 145 187 223 261
#     4   9  17  29  46  66  87 113 145 182 223 263
#     4   9  17  29  44  63  88 115 143 177 218 262
#     4   9  18  32  48  64  86 118 150 182 223 265
#     4   9  16  26  43  67  91 113 140 178 221 259
#     4   9  17  29  44  63  88 118 148 177 216 266
#     4   9  17  29  44  63  89 117 146 179 215 263
#     4   9  17  30  46  65  90 116 147 185 220 259
#
# _framework density 16.632985999999999
#
# number of rings (size 3 to 8) (size 9 to 14) (size 15 to 20)
#    0.000    3.000    0.000    0.800    0.000    2.400 
#    1.200    5.000    0.000    2.000    0.000    3.733 
#    0.000    0.000    0.000    0.000    0.000    0.000 
#
# Total GULP energy -743684.081225 kJ/mol
# GULP energy per Si atom -12394.734687 kJ/mol
# Density = 1.659513 g / cm^3
# Si number density = 16.632986 Si / 1000 Ang^3
#
#
#
# Elastic Constant Matrix: (Units=GPa)
#
#
# Indices 1 2 3 4 5 6 
#
# 1 93.8550 30.7312 33.2915 -0.0005 0.0002 0.0001
# 2 30.7312 32.7414 26.2331 -0.0003 0.0003 0.0002
# 3 33.2915 26.2331 70.8652 -0.0064 0.0020 0.0004
# 4 -0.0005 -0.0003 -0.0064 21.5154 0.0005 0.0002
# 5 0.0002 0.0003 0.0020 0.0005 19.6524 0.0000
# 6 0.0001 0.0002 0.0004 0.0002 0.0000 21.8937
#
#
#
# Elastic Compliance Matrix: (Units=1/GPa)
#
#
# Indices 1 2 3 4 5 6 
#
# 1 0.015747 -0.012586 -0.002739 -0.000001 0.000000 0.000000
# 2 -0.012586 0.053481 -0.013885 -0.000004 0.000001 0.000000
# 3 -0.002739 -0.013885 0.020538 0.000006 -0.000002 0.000000
# 4 -0.000001 -0.000004 0.000006 0.046478 -0.000001 -0.000001
# 5 0.000000 0.000001 -0.000002 -0.000001 0.050884 0.000000
# 6 0.000000 0.000000 0.000000 -0.000001 0.000000 0.045675
#
#
# Mechanical properties :
#
#
# Convention : Reuss Voigt Hill
#
# Bulk Modulus (GPa) = 31.90160 41.99702 36.94931
# Shear Modulus (GPa) = 16.57430 19.75936 18.16683
#
# Velocity S-wave (km/s) = 3.16012 3.45042 3.30846
# Velocity P-wave (km/s) = 5.70408 6.41700 6.07101
#
# Compressibility (1/GPa) = 0.03134639
#
# Stress axis : x y z
#
# Youngs Moduli (GPa) = 63.50293 18.69835 48.69068
#
# Poissons Ratio (x) = 0.23534 0.13335
# Poissons Ratio (y) = 0.79926 0.67606
# Poissons Ratio (z) = 0.17391 0.25962
#
# Static dielectric constant tensor:
#      x y z
#    x 3.272210 0.000000 0.000000 
#    y 0.000000 3.087610 0.000000 
#    z 0.000000 0.000000 3.119590 
# 
# 
# High freq. dielectric constant tensor:
#      x y z
#    x 1.635190 0.000000 0.000000 
#    y 0.000000 1.631270 0.000000 
#    z 0.000000 0.000000 1.634140 
# 
# From -- ./inp_files/35428.got.cif
#   From: 2010.06.25/outbox.cif.g09.slc.cpg/sg71_18_cif.got.tgz:35428.got - 2010.06.28 04:59:45.
