data_PCOD8292821
_publ_section_title
;
Structure prediction by ZEFSAII (Michael W. Deem and Ramdas Pophale) SiO2 
 PCOD8292821
Probable space group: I B A M
;
_chemical_formula_sum "Si O2"
_cell_formula_units_Z 112
_cell_length_a 17.079578
_cell_length_b 19.115910
_cell_length_c 19.035472
_cell_angle_alpha 90.000000
_cell_angle_beta 90.000000
_cell_angle_gamma 90.000000
_cell_volume 6214.923155
_symmetry_space_group_name_H-M "I B A M"
_symmetry_group_IT_number 72
_symmetry_cell_setting 'orthorhombic'
loop_
_space_group_symop_operation_xyz
x,y,z
-x,-y,z
x,-y,1/2-z
-x,y,1/2-z
-x,-y,-z
x,y,-z
-x,y,1/2+z
x,-y,1/2+z
1/2+x,1/2+y,1/2+z
1/2-x,1/2-y,1/2+z
1/2+x,1/2-y,-z
1/2-x,1/2+y,-z
1/2-x,1/2-y,1/2-z
1/2+x,1/2+y,1/2-z
1/2-x,1/2+y,z
1/2+x,1/2-y,z
loop_
_atom_site_type_symbol
_atom_site_label
_atom_site_fract_x
_atom_site_fract_y
_atom_site_fract_z
Si Si1 0.137379 0.070997 0.292910
Si Si2 0.455281 0.823636 0.181275
Si Si3 0.082837 0.711962 0.078946
Si Si4 0.787921 0.651812 0.804481
Si Si5 0.546398 0.372062 0.582635
Si Si6 0.764291 0.294418 0.152638
Si Si7 0.403772 0.334313 0.669474
O O1 0.230314 0.085128 0.303271
O O2 0.096190 0.072698 0.369947
O O3 0.095052 0.129440 0.245696
O O4 0.125708 0.000000 0.250000
O O5 0.500000 0.849859 0.250000
O O6 0.515662 0.831975 0.117874
O O7 0.375642 0.869290 0.169449
O O8 0.429385 0.743445 0.187920
O O9 0.080662 0.794753 0.094560
O O10 0.169381 0.683994 0.097118
O O11 0.063766 0.694826 0.000000
O O12 0.799105 0.686767 0.728410
O O13 0.750698 0.711152 0.854610
O O14 0.548200 0.393928 0.500000
O O15 0.457410 0.372537 0.611573
O O16 0.684154 0.336520 0.137504
#
# Coordination Sequence:
#
# PCOD8292821 Si02
#       7
#    16  16  16  16  16  16  16
#     4  11  21  35  53  72  95 132 183 219 246 290
#     4  10  16  28  51  74  98 130 162 200 254 315
#     4  10  18  28  46  78 112 135 158 196 256 321
#     4   9  17  29  49  73  97 126 171 212 250 293
#     4  10  20  34  49  71 106 137 162 205 261 305
#     4   9  15  28  48  74 101 133 162 203 252 303
#     4   9  19  30  50  75 103 131 169 206 249 299
#
# _framework density 18.021139999999999
#
# number of rings (size 3 to 8) (size 9 to 14) (size 15 to 20)
#    0.000    2.286    2.857    3.000    0.000    1.714 
#    0.000    4.286    0.000    1.286    0.000    0.000 
#    0.000    4.571    0.000    0.000    0.000    0.000 
#
# Total GULP energy -694081.855174 kJ/mol
# GULP energy per Si atom -12394.318842 kJ/mol
# Density = 1.798012 g / cm^3
# Si number density = 18.021140 Si / 1000 Ang^3
#
#
#
# Elastic Constant Matrix: (Units=GPa)
#
#
# Indices 1 2 3 4 5 6 
#
# 1 145.0541 15.4562 63.9301 0.0000 0.0000 0.0000
# 2 15.4562 23.6756 20.0101 0.0000 0.0000 0.0000
# 3 63.9301 20.0101 115.0345 0.0000 0.0000 0.0000
# 4 0.0000 0.0000 0.0000 15.9191 0.0000 0.0000
# 5 0.0000 0.0000 0.0000 0.0000 24.7807 0.0000
# 6 0.0000 0.0000 0.0000 0.0000 0.0000 12.4652
#
#
#
# Elastic Compliance Matrix: (Units=1/GPa)
#
#
# Indices 1 2 3 4 5 6 
#
# 1 0.009209 -0.001977 -0.004774 0.000000 0.000000 0.000000
# 2 -0.001977 0.049942 -0.007589 0.000000 0.000000 0.000000
# 3 -0.004774 -0.007589 0.012666 0.000000 0.000000 0.000000
# 4 0.000000 0.000000 0.000000 0.062817 0.000000 0.000000
# 5 0.000000 0.000000 0.000000 0.000000 0.040354 0.000000
# 6 0.000000 0.000000 0.000000 0.000000 0.000000 0.080224
#
#
# Mechanical properties :
#
#
# Convention : Reuss Voigt Hill
#
# Bulk Modulus (GPa) = 23.18150 53.61744 38.39947
# Shear Modulus (GPa) = 16.76336 22.92419 19.84377
#
# Velocity S-wave (km/s) = 3.05324 3.57048 3.32194
# Velocity P-wave (km/s) = 5.03201 6.84214 6.00566
#
# Compressibility (1/GPa) = 0.04313784
#
# Stress axis : x y z
#
# Youngs Moduli (GPa) = 108.59421 20.02327 78.95104
#
# Poissons Ratio (x) = 0.03959 0.37689
# Poissons Ratio (y) = 0.21469 0.59913
# Poissons Ratio (z) = 0.51840 0.15195
#
# Static dielectric constant tensor:
#      x y z
#    x 3.671610 0.000000 0.000000 
#    y 0.000000 2.774180 0.000000 
#    z 0.000000 0.000000 3.174860 
# 
# 
# High freq. dielectric constant tensor:
#      x y z
#    x 1.721220 0.000000 0.000000 
#    y 0.000000 1.629920 0.000000 
#    z 0.000000 0.000000 1.680680 
# 
# From -- ./inp_files/31891.got.cif
#   From: 2010.03.12/outbox.cif.g09.slc.cpg/sg72_16_cif.got.tgz:31891.got - 2010.04.16 14:54:00.
