data_PCOD8292588
_publ_section_title
;
Structure prediction by ZEFSAII (Michael W. Deem and Ramdas Pophale) SiO2 
 PCOD8292588
Probable space group: I M M M
;
_chemical_formula_sum "Si O2"
_cell_formula_units_Z 40
_cell_length_a 14.262748
_cell_length_b 7.587818
_cell_length_c 18.010402
_cell_angle_alpha 90.000000
_cell_angle_beta 90.000000
_cell_angle_gamma 90.000000
_cell_volume 1949.142185
_symmetry_space_group_name_H-M "I M M M"
_symmetry_group_IT_number 71
_symmetry_cell_setting 'orthorhombic'
loop_
_space_group_symop_operation_xyz
x,y,z
-x,-y,z
x,-y,-z
-x,y,-z
-x,-y,-z
x,y,-z
-x,y,z
x,-y,z
1/2+x,1/2+y,1/2+z
1/2-x,1/2-y,1/2+z
1/2+x,1/2-y,1/2-z
1/2-x,1/2+y,1/2-z
1/2-x,1/2-y,1/2-z
1/2+x,1/2+y,1/2-z
1/2-x,1/2+y,1/2+z
1/2+x,1/2-y,1/2+z
loop_
_atom_site_type_symbol
_atom_site_label
_atom_site_fract_x
_atom_site_fract_y
_atom_site_fract_z
Si Si1 0.396410 0.202654 0.414310
Si Si2 0.777545 0.694496 0.667938
Si Si3 0.111355 0.000000 0.587140
O O1 0.398342 0.252032 0.500000
O O2 0.500000 0.237089 0.380372
O O3 0.320525 0.323094 0.375006
O O4 0.366732 0.000000 0.402445
O O5 0.824285 0.500000 0.668503
O O6 0.750000 0.750000 0.750000
O O7 0.848558 0.826880 0.627403
O O8 0.140520 0.000000 0.500000
O O9 0.000000 0.000000 0.596002
#
# Coordination Sequence:
#
# PCOD8292588 Si02
#       3
#    16  16   8
#     4   9  18  35  61  93 129 166 204 256 325 394
#     4  12  24  42  68  98 133 176 228 278 342 406
#     4  11  26  48  71  99 140 185 231 285 341 406
#
# _framework density 20.521847999999999
#
# number of rings (size 3 to 8) (size 9 to 14) (size 15 to 20)
#    0.000    1.400    4.000    2.400    0.000    6.400 
#    0.000    4.000    0.000    0.000    0.000    0.000 
#    0.000    0.000    0.000    0.000    0.000    0.000 
#
# Total GULP energy -247961.202713 kJ/mol
# GULP energy per Si atom -12398.060136 kJ/mol
# Density = 2.047514 g / cm^3
# Si number density = 20.521848 Si / 1000 Ang^3
#
#
#
# Elastic Constant Matrix: (Units=GPa)
#
#
# Indices 1 2 3 4 5 6 
#
# 1 104.0891 47.5319 52.6233 0.0000 0.0000 0.0000
# 2 47.5319 161.4416 62.1483 0.0000 0.0000 0.0000
# 3 52.6233 62.1483 110.6039 0.0000 0.0000 0.0000
# 4 0.0000 0.0000 0.0000 29.6757 0.0000 0.0000
# 5 0.0000 0.0000 0.0000 0.0000 6.8607 0.0000
# 6 0.0000 0.0000 0.0000 0.0000 0.0000 21.4061
#
#
#
# Elastic Compliance Matrix: (Units=1/GPa)
#
#
# Indices 1 2 3 4 5 6 
#
# 1 0.013072 -0.001856 -0.005176 0.000000 0.000000 0.000000
# 2 -0.001856 0.008167 -0.003706 0.000000 0.000000 0.000000
# 3 -0.005176 -0.003706 0.013587 0.000000 0.000000 0.000000
# 4 0.000000 0.000000 0.000000 0.033698 0.000000 0.000000
# 5 0.000000 0.000000 0.000000 0.000000 0.145758 0.000000
# 6 0.000000 0.000000 0.000000 0.000000 0.000000 0.046716
#
#
# Mechanical properties :
#
#
# Convention : Reuss Voigt Hill
#
# Bulk Modulus (GPa) = 74.91443 77.86015 76.38729
# Shear Modulus (GPa) = 17.42626 25.84391 21.63508
#
# Velocity S-wave (km/s) = 2.91719 3.55256 3.25044
# Velocity P-wave (km/s) = 6.92320 7.40608 7.16871
#
# Compressibility (1/GPa) = 0.01334856
#
# Stress axis : x y z
#
# Youngs Moduli (GPa) = 76.50165 122.43882 73.60165
#
# Poissons Ratio (x) = 0.22723 0.38099
# Poissons Ratio (y) = 0.14198 0.27279
# Poissons Ratio (z) = 0.39601 0.45379
#
# Static dielectric constant tensor:
#      x y z
#    x 0.161740 0.000000 0.000000 
#    y 0.000000 3.806080 0.000000 
#    z 0.000000 0.000000 3.745760 
# 
# 
# High freq. dielectric constant tensor:
#      x y z
#    x 1.803400 0.000000 0.000000 
#    y 0.000000 1.805970 0.000000 
#    z 0.000000 0.000000 1.804480 
# 
# From -- ./inp_files/4227.got.cif
#   From: 2010.06.25/outbox.cif.g09.slc.cpg/sg71_3_cif.got.tgz:4227.got - 2010.06.28 04:59:45.
