data_PCOD8292277
_publ_section_title
;
Structure prediction by ZEFSAII (Michael W. Deem and Ramdas Pophale) SiO2 
 PCOD8292277
Probable space group: I M M M
;
_chemical_formula_sum "Si O2"
_cell_formula_units_Z 72
_cell_length_a 22.918908
_cell_length_b 8.973428
_cell_length_c 22.957255
_cell_angle_alpha 90.000000
_cell_angle_beta 90.000000
_cell_angle_gamma 90.000000
_cell_volume 4721.415941
_symmetry_space_group_name_H-M "I M M M"
_symmetry_group_IT_number 71
_symmetry_cell_setting 'orthorhombic'
loop_
_space_group_symop_operation_xyz
x,y,z
-x,-y,z
x,-y,-z
-x,y,-z
-x,-y,-z
x,y,-z
-x,y,z
x,-y,z
1/2+x,1/2+y,1/2+z
1/2-x,1/2-y,1/2+z
1/2+x,1/2-y,1/2-z
1/2-x,1/2+y,1/2-z
1/2-x,1/2-y,1/2-z
1/2+x,1/2+y,1/2-z
1/2-x,1/2+y,1/2+z
1/2+x,1/2-y,1/2+z
loop_
_atom_site_type_symbol
_atom_site_label
_atom_site_fract_x
_atom_site_fract_y
_atom_site_fract_z
Si Si1 0.738959 0.172592 0.564279
Si Si2 0.694908 0.834404 0.681907
Si Si3 0.068959 0.829026 0.500000
Si Si4 0.831299 0.166502 0.709875
Si Si5 0.857379 0.676770 0.596038
O O1 0.711264 0.194644 0.500000
O O2 0.691044 0.216665 0.613781
O O3 0.795801 0.274493 0.569027
O O4 0.757787 0.000000 0.574496
O O5 0.763006 0.830321 0.697069
O O6 0.658157 0.728055 0.724588
O O7 0.669607 0.000000 0.690278
O O8 0.091437 0.747338 0.442171
O O9 0.000000 0.819142 0.500000
O O10 0.090852 0.000000 0.500000
O O11 0.864582 0.267386 0.662558
O O12 0.856693 0.000000 0.706993
O O13 0.862229 0.500000 0.594564
#
# Coordination Sequence:
#
# PCOD8292277 Si02
#       5
#    16  16   8  16  16
#     4   9  16  26  40  55  77 106 133 160 193 234
#     4   8  14  23  35  54  75  97 126 160 191 221
#     4  11  23  37  49  59  75  99 127 161 203 249
#     4   9  16  26  39  53  72  98 124 155 193 233
#     4  11  20  29  43  60  75  94 123 162 200 236
#
# _framework density 15.249663
#
# number of rings (size 3 to 8) (size 9 to 14) (size 15 to 20)
#    0.000    2.556    1.111    4.333    0.000    6.222 
#    0.000    0.000    0.000    0.000    0.000    0.000 
#    0.000    0.000    0.000    0.000    0.000    1.111 
#
# Total GULP energy -446167.366726 kJ/mol
# GULP energy per Si atom -12393.537965 kJ/mol
# Density = 1.521495 g / cm^3
# Si number density = 15.249663 Si / 1000 Ang^3
#
#
#
# Elastic Constant Matrix: (Units=GPa)
#
#
# Indices 1 2 3 4 5 6 
#
# 1 19.4504 22.9489 25.6318 0.0000 0.0000 0.0000
# 2 22.9489 120.5025 63.0365 0.0000 0.0000 0.0000
# 3 25.6318 63.0365 160.1785 0.0000 0.0000 0.0000
# 4 0.0000 0.0000 0.0000 27.8636 0.0000 0.0000
# 5 0.0000 0.0000 0.0000 0.0000 12.0042 0.0000
# 6 0.0000 0.0000 0.0000 0.0000 0.0000 10.3212
#
#
#
# Elastic Compliance Matrix: (Units=1/GPa)
#
#
# Indices 1 2 3 4 5 6 
#
# 1 0.073421 -0.009868 -0.007865 0.000000 0.000000 0.000000
# 2 -0.009868 0.011776 -0.003055 0.000000 0.000000 0.000000
# 3 -0.007865 -0.003055 0.008704 0.000000 0.000000 0.000000
# 4 0.000000 0.000000 0.000000 0.035889 0.000000 0.000000
# 5 0.000000 0.000000 0.000000 0.000000 0.083304 0.000000
# 6 0.000000 0.000000 0.000000 0.000000 0.000000 0.096888
#
#
# Mechanical properties :
#
#
# Convention : Reuss Voigt Hill
#
# Bulk Modulus (GPa) = 19.11178 58.15175 38.63177
# Shear Modulus (GPa) = 13.55011 22.60542 18.07776
#
# Velocity S-wave (km/s) = 2.98409 3.85431 3.44678
# Velocity P-wave (km/s) = 4.94296 7.61732 6.42092
#
# Compressibility (1/GPa) = 0.05232375
#
# Stress axis : x y z
#
# Youngs Moduli (GPa) = 13.62008 84.91746 114.88926
#
# Poissons Ratio (x) = 0.83797 0.90365
# Poissons Ratio (y) = 0.13440 0.35102
# Poissons Ratio (z) = 0.10713 0.25945
#
# Static dielectric constant tensor:
#      x y z
#    x 2.238100 0.000000 0.000000 
#    y 0.000000 3.083160 0.000000 
#    z 0.000000 0.000000 3.464120 
# 
# 
# High freq. dielectric constant tensor:
#      x y z
#    x 1.487150 0.000000 0.000000 
#    y 0.000000 1.595630 0.000000 
#    z 0.000000 0.000000 1.607860 
# 
# From -- ./inp_files/10656.got.cif
#   From: 2010.06.25/outbox.cif.g09.slc.cpg/sg71_6_cif.got.tgz:10656.got - 2010.06.28 04:59:45.
