data_PCOD8292031
_publ_section_title
;
Structure prediction by ZEFSAII (Michael W. Deem and Ramdas Pophale) SiO2 
 PCOD8292031
Probable space group: I M M M
;
_chemical_formula_sum "Si O2"
_cell_formula_units_Z 88
_cell_length_a 30.569596
_cell_length_b 16.971804
_cell_length_c 10.038927
_cell_angle_alpha 90.000000
_cell_angle_beta 90.000000
_cell_angle_gamma 90.000000
_cell_volume 5208.408069
_symmetry_space_group_name_H-M "I M M M"
_symmetry_group_IT_number 71
_symmetry_cell_setting 'orthorhombic'
loop_
_space_group_symop_operation_xyz
x,y,z
-x,-y,z
x,-y,-z
-x,y,-z
-x,-y,-z
x,y,-z
-x,y,z
x,-y,z
1/2+x,1/2+y,1/2+z
1/2-x,1/2-y,1/2+z
1/2+x,1/2-y,1/2-z
1/2-x,1/2+y,1/2-z
1/2-x,1/2-y,1/2-z
1/2+x,1/2+y,1/2-z
1/2-x,1/2+y,1/2+z
1/2+x,1/2-y,1/2+z
loop_
_atom_site_type_symbol
_atom_site_label
_atom_site_fract_x
_atom_site_fract_y
_atom_site_fract_z
Si Si1 0.790318 0.310255 0.247971
Si Si2 0.363210 0.685051 0.739925
Si Si3 0.262876 0.092984 0.500000
Si Si4 0.050606 0.000000 0.348866
Si Si5 0.450491 0.356820 0.655238
Si Si6 0.173100 0.912859 0.000000
Si Si7 0.660373 0.405993 0.000000
Si Si8 0.776311 0.411781 0.500000
O O1 0.750000 0.250000 0.250000
O O2 0.836411 0.265485 0.245323
O O3 0.786264 0.368730 0.125304
O O4 0.793304 0.364918 0.374569
O O5 0.413210 0.707197 0.694049
O O6 0.341874 0.629421 0.631561
O O7 0.362346 0.635069 0.874984
O O8 0.211726 0.113860 0.500000
O O9 0.270866 0.000000 0.500000
O O10 0.062667 0.073677 0.256379
O O11 0.073020 0.000000 0.500000
O O12 0.000000 0.000000 0.377741
O O13 0.446160 0.383117 0.500000
O O14 0.500000 0.325618 0.681455
O O15 0.224711 0.915457 0.000000
O O16 0.153006 0.000000 0.000000
O O17 0.652887 0.500000 0.000000
O O18 0.795937 0.500000 0.500000
#
# Coordination Sequence:
#
# PCOD8292031 Si02
#       8
#    16  16   8   8  16   8   8   8
#     4  12  21  36  55  80 110 139 179 220 266 314
#     4  12  23  34  53  76 104 143 178 227 268 306
#     4  11  22  38  56  76 109 145 178 219 262 312
#     4   9  19  35  53  73  99 137 179 227 267 303
#     4  10  22  37  52  72 101 139 184 223 266 314
#     4  11  21  33  50  76 105 143 188 219 254 309
#     4  11  23  35  48  76 109 141 180 219 264 311
#     4  11  22  38  56  76 109 149 182 215 258 320
#
# _framework density 16.895757
#
# number of rings (size 3 to 8) (size 9 to 14) (size 15 to 20)
#    0.000    1.000    4.545    3.000    3.818    4.000 
#    0.000    0.000    0.000    0.000    0.000    0.000 
#    0.000    4.364    0.000    0.000    0.000    0.000 
#
# Total GULP energy -545353.550434 kJ/mol
# GULP energy per Si atom -12394.398874 kJ/mol
# Density = 1.685730 g / cm^3
# Si number density = 16.895757 Si / 1000 Ang^3
#
#
#
# Elastic Constant Matrix: (Units=GPa)
#
#
# Indices 1 2 3 4 5 6 
#
# 1 115.8068 52.1547 43.1494 0.0000 0.0000 0.0000
# 2 52.1547 97.3243 57.0194 0.0000 0.0000 0.0000
# 3 43.1494 57.0194 155.8781 0.0000 0.0000 0.0000
# 4 0.0000 0.0000 0.0000 33.7756 0.0000 0.0000
# 5 0.0000 0.0000 0.0000 0.0000 2.4066 0.0000
# 6 0.0000 0.0000 0.0000 0.0000 0.0000 18.1709
#
#
#
# Elastic Compliance Matrix: (Units=1/GPa)
#
#
# Indices 1 2 3 4 5 6 
#
# 1 0.011552 -0.005495 -0.001188 0.000000 0.000000 0.000000
# 2 -0.005495 0.015691 -0.004219 0.000000 0.000000 0.000000
# 3 -0.001188 -0.004219 0.008287 0.000000 0.000000 0.000000
# 4 0.000000 0.000000 0.000000 0.029607 0.000000 0.000000
# 5 0.000000 0.000000 0.000000 0.000000 0.415519 0.000000
# 6 0.000000 0.000000 0.000000 0.000000 0.000000 0.055033
#
#
# Mechanical properties :
#
#
# Convention : Reuss Voigt Hill
#
# Bulk Modulus (GPa) = 72.84397 74.85071 73.84734
# Shear Modulus (GPa) = 8.89571 25.31633 17.10602
#
# Velocity S-wave (km/s) = 2.29706 3.87510 3.18535
# Velocity P-wave (km/s) = 7.08821 8.02617 7.57173
#
# Compressibility (1/GPa) = 0.01372797
#
# Stress axis : x y z
#
# Youngs Moduli (GPa) = 86.56287 63.73035 120.66695
#
# Poissons Ratio (x) = 0.35018 0.14334
# Poissons Ratio (y) = 0.47564 0.50906
# Poissons Ratio (z) = 0.10283 0.26886
#
# Static dielectric constant tensor:
#      x y z
#    x 3.421930 0.000000 0.000000 
#    y 0.000000 3.315370 0.000000 
#    z 0.000000 0.000000 3.436780 
# 
# 
# High freq. dielectric constant tensor:
#      x y z
#    x 1.646450 0.000000 0.000000 
#    y 0.000000 1.617150 0.000000 
#    z 0.000000 0.000000 1.681340 
# 
# From -- ./inp_files/8957.got.cif
#   From: 2010.06.25/outbox.cif.g09.slc.cpg/sg71_5_cif.got.tgz:8957.got - 2010.06.28 04:59:45.
