data_PCOD8292684
_publ_section_title
;
Structure prediction by ZEFSAII (Michael W. Deem and Ramdas Pophale) SiO2 
 PCOD8292684
Probable space group: I M M M
;
_chemical_formula_sum "Si O2"
_cell_formula_units_Z 96
_cell_length_a 14.340794
_cell_length_b 30.042514
_cell_length_c 14.340874
_cell_angle_alpha 90.000000
_cell_angle_beta 90.000000
_cell_angle_gamma 90.000000
_cell_volume 6178.529003
_symmetry_space_group_name_H-M "I M M M"
_symmetry_group_IT_number 71
_symmetry_cell_setting 'orthorhombic'
loop_
_space_group_symop_operation_xyz
x,y,z
-x,-y,z
x,-y,-z
-x,y,-z
-x,-y,-z
x,y,-z
-x,y,z
x,-y,z
1/2+x,1/2+y,1/2+z
1/2-x,1/2-y,1/2+z
1/2+x,1/2-y,1/2-z
1/2-x,1/2+y,1/2-z
1/2-x,1/2-y,1/2-z
1/2+x,1/2+y,1/2-z
1/2-x,1/2+y,1/2+z
1/2+x,1/2-y,1/2+z
loop_
_atom_site_type_symbol
_atom_site_label
_atom_site_fract_x
_atom_site_fract_y
_atom_site_fract_z
Si Si1 0.761247 0.723101 0.891513
Si Si2 0.754563 0.378804 0.893773
Si Si3 0.608487 0.723101 0.261245
Si Si4 0.106228 0.121196 0.754563
Si Si5 0.603494 0.049302 0.610635
Si Si6 0.610635 0.450698 0.396506
O O1 0.790637 0.671558 0.883196
O O2 0.665348 0.732785 0.834653
O O3 0.847320 0.750000 0.847318
O O4 0.746305 0.736629 0.000000
O O5 0.656980 0.385568 0.843020
O O6 0.830120 0.412267 0.848389
O O7 0.735042 0.391490 0.000000
O O8 0.500000 0.736629 0.246302
O O9 0.616805 0.671558 0.290636
O O10 0.151612 0.087733 0.830120
O O11 0.000000 0.108510 0.735044
O O12 0.599232 0.053500 0.500000
O O13 0.500000 0.056712 0.651851
O O14 0.640048 0.000000 0.639058
O O15 0.651851 0.443287 0.500000
O O16 0.500000 0.446500 0.400767
O O17 0.639059 0.500000 0.359954
#
# Coordination Sequence:
#
# PCOD8292684 Si02
#       6
#    16  16  16  16  16  16
#     4   9  18  31  45  63  87 113 143 179 218 262
#     4   9  17  28  42  61  85 112 139 167 203 249
#     4   9  18  31  45  63  87 113 143 179 218 262
#     4   9  17  28  42  61  85 112 139 167 203 249
#     4   8  14  25  40  57  78 105 137 172 206 237
#     4   8  14  25  40  57  78 105 137 172 206 237
#
# _framework density 15.537679000000001
#
# number of rings (size 3 to 8) (size 9 to 14) (size 15 to 20)
#    0.000    3.333    0.000    1.000    0.000    3.000 
#    0.000    6.667    0.000    0.000    0.000    4.667 
#    0.000    0.667    0.000    3.667    0.000    0.333 
#
# Total GULP energy -594880.981659 kJ/mol
# GULP energy per Si atom -12393.353785 kJ/mol
# Density = 1.550231 g / cm^3
# Si number density = 15.537679 Si / 1000 Ang^3
#
#
#
# Elastic Constant Matrix: (Units=GPa)
#
#
# Indices 1 2 3 4 5 6 
#
# 1 81.7079 52.2539 39.6819 0.0001 0.0000 0.0000
# 2 52.2539 90.6017 52.2547 0.0001 0.0000 0.0000
# 3 39.6819 52.2547 81.7096 -0.0004 0.0002 0.0000
# 4 0.0001 0.0001 -0.0004 24.7747 0.0001 0.0000
# 5 0.0000 0.0000 0.0002 0.0001 13.2300 0.0000
# 6 0.0000 0.0000 0.0000 0.0000 0.0000 24.7742
#
#
#
# Elastic Compliance Matrix: (Units=1/GPa)
#
#
# Indices 1 2 3 4 5 6 
#
# 1 0.020079 -0.009437 -0.003716 0.000000 0.000000 0.000000
# 2 -0.009437 0.021923 -0.009437 0.000000 0.000000 0.000000
# 3 -0.003716 -0.009437 0.020078 0.000000 0.000000 0.000000
# 4 0.000000 0.000000 0.000000 0.040364 0.000000 0.000000
# 5 0.000000 0.000000 0.000000 0.000000 0.075586 0.000000
# 6 0.000000 0.000000 0.000000 0.000000 0.000000 0.040365
#
#
# Mechanical properties :
#
#
# Convention : Reuss Voigt Hill
#
# Bulk Modulus (GPa) = 59.17248 60.26668 59.71958
# Shear Modulus (GPa) = 18.57310 19.87771 19.22540
#
# Velocity S-wave (km/s) = 3.46115 3.58064 3.52140
# Velocity P-wave (km/s) = 7.35789 7.48106 7.41973
#
# Compressibility (1/GPa) = 0.01689975
#
# Stress axis : x y z
#
# Youngs Moduli (GPa) = 49.80443 45.61451 49.80520
#
# Poissons Ratio (x) = 0.43046 0.18507
# Poissons Ratio (y) = 0.47000 0.47001
# Poissons Ratio (z) = 0.18507 0.43046
#
# Static dielectric constant tensor:
#      x y z
#    x 2.902510 0.000000 0.000000 
#    y 0.000000 3.192360 0.000000 
#    z 0.000000 0.000000 2.902520 
# 
# 
# High freq. dielectric constant tensor:
#      x y z
#    x 1.574230 0.000000 0.000000 
#    y 0.000000 1.604990 0.000000 
#    z 0.000000 0.000000 1.574230 
# 
# From -- ./inp_files/35254.got.cif
#   From: 2010.06.25/outbox.cif.g09.slc.cpg/sg71_18_cif.got.tgz:35254.got - 2010.06.28 04:59:45.
