data_PCOD8292069
_publ_section_title
;
Structure prediction by ZEFSAII (Michael W. Deem and Ramdas Pophale) SiO2 
 PCOD8292069
Probable space group: I M M M
;
_chemical_formula_sum "Si O2"
_cell_formula_units_Z 104
_cell_length_a 32.805193
_cell_length_b 18.376242
_cell_length_c 8.879429
_cell_angle_alpha 90.000000
_cell_angle_beta 90.000000
_cell_angle_gamma 90.000000
_cell_volume 5352.840930
_symmetry_space_group_name_H-M "I M M M"
_symmetry_group_IT_number 71
_symmetry_cell_setting 'orthorhombic'
loop_
_space_group_symop_operation_xyz
x,y,z
-x,-y,z
x,-y,-z
-x,y,-z
-x,-y,-z
x,y,-z
-x,y,z
x,-y,z
1/2+x,1/2+y,1/2+z
1/2-x,1/2-y,1/2+z
1/2+x,1/2-y,1/2-z
1/2-x,1/2+y,1/2-z
1/2-x,1/2-y,1/2-z
1/2+x,1/2+y,1/2-z
1/2-x,1/2+y,1/2+z
1/2+x,1/2-y,1/2+z
loop_
_atom_site_type_symbol
_atom_site_label
_atom_site_fract_x
_atom_site_fract_y
_atom_site_fract_z
Si Si1 0.912079 0.079146 0.675378
Si Si2 0.824967 0.584751 0.174104
Si Si3 0.548045 0.000000 0.326825
Si Si4 0.337646 0.371341 0.329003
Si Si5 0.588082 0.719789 0.669271
Si Si6 0.755802 0.827685 0.676765
Si Si7 0.406166 0.867975 0.177465
O O1 0.911593 0.098017 0.500000
O O2 0.865582 0.071792 0.736677
O O3 0.933974 0.146798 0.761894
O O4 0.933285 0.000000 0.704337
O O5 0.821735 0.500000 0.213365
O O6 0.782338 0.621524 0.215438
O O7 0.859520 0.621423 0.275044
O O8 0.836437 0.597156 0.000000
O O9 0.565453 0.071360 0.249536
O O10 0.500000 0.000000 0.308508
O O11 0.561994 0.000000 0.500000
O O12 0.330786 0.398350 0.500000
O O13 0.362718 0.294208 0.329943
O O14 0.294928 0.365850 0.246664
O O15 0.571888 0.731994 0.500000
O O16 0.577442 0.789772 0.768285
O O17 0.762000 0.817813 0.500000
O O18 0.750000 0.750000 0.750000
O O19 0.409996 0.872796 0.000000
#
# Coordination Sequence:
#
# PCOD8292069 Si02
#       7
#    16  16   8  16  16  16  16
#     4   9  17  30  49  74 105 140 183 235 287 333
#     4  10  22  39  56  73  99 139 185 232 284 346
#     4  11  25  45  69  93 121 157 187 219 277 347
#     4   9  19  32  47  69  99 139 184 234 287 336
#     4   9  19  33  53  78 108 149 191 229 280 343
#     4  11  22  34  50  70  95 131 178 233 287 339
#     4  12  23  37  61  89 116 143 181 232 281 333
#
# _framework density 19.428934999999999
#
# number of rings (size 3 to 8) (size 9 to 14) (size 15 to 20)
#    0.923    1.000    0.769    3.923    0.000    7.385 
#    0.000    1.538    0.000    0.000    0.000    0.000 
#    0.000    0.615    0.000    6.462    0.000    2.769 
#
# Total GULP energy -644476.536388 kJ/mol
# GULP energy per Si atom -12393.779546 kJ/mol
# Density = 1.938471 g / cm^3
# Si number density = 19.428935 Si / 1000 Ang^3
#
#
#
# Elastic Constant Matrix: (Units=GPa)
#
#
# Indices 1 2 3 4 5 6 
#
# 1 22.4915 12.2918 20.1106 0.0000 0.0000 0.0000
# 2 12.2918 139.0585 54.2189 0.0000 0.0000 0.0000
# 3 20.1106 54.2189 134.9276 0.0000 0.0000 0.0000
# 4 0.0000 0.0000 0.0000 33.8385 0.0000 0.0000
# 5 0.0000 0.0000 0.0000 0.0000 15.7332 0.0000
# 6 0.0000 0.0000 0.0000 0.0000 0.0000 2.1525
#
#
#
# Elastic Compliance Matrix: (Units=1/GPa)
#
#
# Indices 1 2 3 4 5 6 
#
# 1 0.051699 -0.001856 -0.006960 0.000000 0.000000 0.000000
# 2 -0.001856 0.008594 -0.003177 0.000000 0.000000 0.000000
# 3 -0.006960 -0.003177 0.009725 0.000000 0.000000 0.000000
# 4 0.000000 0.000000 0.000000 0.029552 0.000000 0.000000
# 5 0.000000 0.000000 0.000000 0.000000 0.063560 0.000000
# 6 0.000000 0.000000 0.000000 0.000000 0.000000 0.464576
#
#
# Mechanical properties :
#
#
# Convention : Reuss Voigt Hill
#
# Bulk Modulus (GPa) = 21.72370 52.19113 36.95741
# Shear Modulus (GPa) = 7.49586 24.33527 15.91556
#
# Velocity S-wave (km/s) = 1.96633 3.54295 2.86522
# Velocity P-wave (km/s) = 4.04483 6.60738 5.47806
#
# Compressibility (1/GPa) = 0.04603267
#
# Stress axis : x y z
#
# Youngs Moduli (GPa) = 19.34285 116.36196 102.82558
#
# Poissons Ratio (x) = 0.21599 0.71563
# Poissons Ratio (y) = 0.03590 0.32664
# Poissons Ratio (z) = 0.13462 0.36964
#
# Static dielectric constant tensor:
#      x y z
#    x 3.213180 0.000000 0.000000 
#    y 0.000000 3.618080 0.000000 
#    z 0.000000 0.000000 3.503200 
# 
# 
# High freq. dielectric constant tensor:
#      x y z
#    x 1.716140 0.000000 0.000000 
#    y 0.000000 1.766020 0.000000 
#    z 0.000000 0.000000 1.769400 
# 
# From -- ./inp_files/15045.got.cif
#   From: 2010.06.25/outbox.cif.g09.slc.cpg/sg71_8_cif.got.tgz:15045.got - 2010.06.28 04:59:45.
