data_PCOD8292292
_publ_section_title
;
Structure prediction by ZEFSAII (Michael W. Deem and Ramdas Pophale) SiO2 
 PCOD8292292
Probable space group: I M M M
;
_chemical_formula_sum "Si O2"
_cell_formula_units_Z 80
_cell_length_a 25.172888
_cell_length_b 20.452449
_cell_length_c 8.789847
_cell_angle_alpha 90.000000
_cell_angle_beta 90.000000
_cell_angle_gamma 90.000000
_cell_volume 4525.428187
_symmetry_space_group_name_H-M "I M M M"
_symmetry_group_IT_number 71
_symmetry_cell_setting 'orthorhombic'
loop_
_space_group_symop_operation_xyz
x,y,z
-x,-y,z
x,-y,-z
-x,y,-z
-x,-y,-z
x,y,-z
-x,y,z
x,-y,z
1/2+x,1/2+y,1/2+z
1/2-x,1/2-y,1/2+z
1/2+x,1/2-y,1/2-z
1/2-x,1/2+y,1/2-z
1/2-x,1/2-y,1/2-z
1/2+x,1/2+y,1/2-z
1/2-x,1/2+y,1/2+z
1/2+x,1/2-y,1/2+z
loop_
_atom_site_type_symbol
_atom_site_label
_atom_site_fract_x
_atom_site_fract_y
_atom_site_fract_z
Si Si1 0.224704 0.186026 0.677122
Si Si2 0.112121 0.235443 0.678730
Si Si3 0.000000 0.622794 0.668914
Si Si4 0.789968 0.573923 0.674279
Si Si5 0.891558 0.625307 0.179614
Si Si6 0.500000 0.721516 0.833611
O O1 0.239500 0.185384 0.500000
O O2 0.250000 0.250000 0.750000
O O3 0.161066 0.186519 0.703134
O O4 0.245602 0.120591 0.754348
O O5 0.103914 0.252145 0.500000
O O6 0.124227 0.302330 0.765508
O O7 0.056775 0.202473 0.744321
O O8 0.947394 0.598924 0.756034
O O9 0.000000 0.592278 0.500000
O O10 0.000000 0.700420 0.660647
O O11 0.799509 0.594817 0.500000
O O12 0.768523 0.500000 0.686691
O O13 0.845352 0.577647 0.763629
O O14 0.894793 0.624562 0.000000
O O15 0.500000 0.689228 0.000000
#
# Coordination Sequence:
#
# PCOD8292292 Si02
#       6
#    16  16   8  16  16   8
#     4  11  21  33  54  81 108 138 176 220 265 319
#     4   9  17  30  50  75 105 139 172 208 260 318
#     4   9  17  31  50  70 101 140 176 215 258 311
#     4  11  24  40  55  72 101 142 183 223 272 325
#     4  11  20  31  51  77 104 134 174 223 267 312
#     4   7  12  25  45  70  99 132 165 201 246 302
#
# _framework density 17.677886000000001
#
# number of rings (size 3 to 8) (size 9 to 14) (size 15 to 20)
#    0.000    2.000    2.000    4.500    0.000    2.400 
#    0.000    0.500    0.000    3.000    0.000    0.700 
#    0.000    5.600    0.000    0.000    0.000    0.000 
#
# Total GULP energy -495785.646539 kJ/mol
# GULP energy per Si atom -12394.641163 kJ/mol
# Density = 1.763765 g / cm^3
# Si number density = 17.677886 Si / 1000 Ang^3
#
#
#
# Elastic Constant Matrix: (Units=GPa)
#
#
# Indices 1 2 3 4 5 6 
#
# 1 141.2828 48.3831 50.0496 0.0000 0.0000 0.0000
# 2 48.3831 67.0699 38.0167 0.0000 0.0000 0.0000
# 3 50.0496 38.0167 123.5697 0.0000 0.0000 0.0000
# 4 0.0000 0.0000 0.0000 20.6506 0.0000 0.0000
# 5 0.0000 0.0000 0.0000 0.0000 29.4313 0.0000
# 6 0.0000 0.0000 0.0000 0.0000 0.0000 18.2969
#
#
#
# Elastic Compliance Matrix: (Units=1/GPa)
#
#
# Indices 1 2 3 4 5 6 
#
# 1 0.009866 -0.005877 -0.002188 0.000000 0.000000 0.000000
# 2 -0.005877 0.021560 -0.004253 0.000000 0.000000 0.000000
# 3 -0.002188 -0.004253 0.010287 0.000000 0.000000 0.000000
# 4 0.000000 0.000000 0.000000 0.048425 0.000000 0.000000
# 5 0.000000 0.000000 0.000000 0.000000 0.033977 0.000000
# 6 0.000000 0.000000 0.000000 0.000000 0.000000 0.054654
#
#
# Mechanical properties :
#
#
# Convention : Reuss Voigt Hill
#
# Bulk Modulus (GPa) = 58.55539 67.20236 62.87888
# Shear Modulus (GPa) = 23.91249 26.70729 25.30989
#
# Velocity S-wave (km/s) = 3.68187 3.89108 3.78792
# Velocity P-wave (km/s) = 7.16033 7.63445 7.40119
#
# Compressibility (1/GPa) = 0.01707785
#
# Stress axis : x y z
#
# Youngs Moduli (GPa) = 101.36261 46.38287 97.20901
#
# Poissons Ratio (x) = 0.27258 0.21268
# Poissons Ratio (y) = 0.59568 0.41340
# Poissons Ratio (z) = 0.22177 0.19725
#
# Static dielectric constant tensor:
#      x y z
#    x 3.843590 0.000000 0.000000 
#    y 0.000000 2.789680 0.000000 
#    z 0.000000 0.000000 3.342730 
# 
# 
# High freq. dielectric constant tensor:
#      x y z
#    x 1.704850 0.000000 0.000000 
#    y 0.000000 1.627700 0.000000 
#    z 0.000000 0.000000 1.685710 
# 
# From -- ./inp_files/14568.got.cif
#   From: 2010.06.25/outbox.cif.g09.slc.cpg/sg71_8_cif.got.tgz:14568.got - 2010.06.28 04:59:45.
