data_PCOD8292522
_publ_section_title
;
Structure prediction by ZEFSAII (Michael W. Deem and Ramdas Pophale) SiO2 
 PCOD8292522
Probable space group: I M M M
;
_chemical_formula_sum "Si O2"
_cell_formula_units_Z 48
_cell_length_a 38.417355
_cell_length_b 7.609960
_cell_length_c 8.668718
_cell_angle_alpha 90.000000
_cell_angle_beta 90.000000
_cell_angle_gamma 90.000000
_cell_volume 2534.339019
_symmetry_space_group_name_H-M "I M M M"
_symmetry_group_IT_number 71
_symmetry_cell_setting 'orthorhombic'
loop_
_space_group_symop_operation_xyz
x,y,z
-x,-y,z
x,-y,-z
-x,y,-z
-x,-y,-z
x,y,-z
-x,y,z
x,-y,z
1/2+x,1/2+y,1/2+z
1/2-x,1/2-y,1/2+z
1/2+x,1/2-y,1/2-z
1/2-x,1/2+y,1/2-z
1/2-x,1/2-y,1/2-z
1/2+x,1/2+y,1/2-z
1/2-x,1/2+y,1/2+z
1/2+x,1/2-y,1/2+z
loop_
_atom_site_type_symbol
_atom_site_label
_atom_site_fract_x
_atom_site_fract_y
_atom_site_fract_z
Si Si1 0.587315 0.000000 0.815995
Si Si2 0.538823 0.694981 0.816459
Si Si3 0.787001 0.202087 0.180614
Si Si4 0.666188 0.000000 0.817006
O O1 0.567300 0.170558 0.749598
O O2 0.626688 0.000000 0.755429
O O3 0.586737 0.000000 0.000000
O O4 0.500000 0.748010 0.760150
O O5 0.548302 0.500000 0.756431
O O6 0.539501 0.698734 0.000000
O O7 0.750000 0.250000 0.250000
O O8 0.816189 0.323327 0.255891
O O9 0.796299 0.000000 0.216983
O O10 0.785500 0.239227 0.000000
O O11 0.668536 0.000000 0.000000
#
# Coordination Sequence:
#
# PCOD8292522 Si02
#       4
#     8  16  16   8
#     4   9  17  27  40  63 100 140 176 212 258 317
#     4   8  13  22  38  60  89 131 180 221 257 302
#     4  11  23  39  61  83 105 136 178 227 276 326
#     4  11  23  36  53  82 116 150 182 218 273 335
#
# _framework density 18.93985
#
# number of rings (size 3 to 8) (size 9 to 14) (size 15 to 20)
#    0.000    2.333    1.667    3.000    0.000    5.333 
#    0.000    3.333    0.000    0.000    0.000    0.000 
#    0.000   10.667    0.000   29.333    0.000   24.000 
#
# Total GULP energy -297545.549322 kJ/mol
# GULP energy per Si atom -12397.731222 kJ/mol
# Density = 1.889674 g / cm^3
# Si number density = 18.939850 Si / 1000 Ang^3
#
#
#
# Elastic Constant Matrix: (Units=GPa)
#
#
# Indices 1 2 3 4 5 6 
#
# 1 192.4197 115.9427 36.4928 0.0000 0.0000 0.0000
# 2 115.9427 172.9857 43.8290 0.0000 0.0000 0.0000
# 3 36.4928 43.8290 55.4404 0.0000 0.0000 0.0000
# 4 0.0000 0.0000 0.0000 22.7631 0.0000 0.0000
# 5 0.0000 0.0000 0.0000 0.0000 14.9631 0.0000
# 6 0.0000 0.0000 0.0000 0.0000 0.0000 29.4602
#
#
#
# Elastic Compliance Matrix: (Units=1/GPa)
#
#
# Indices 1 2 3 4 5 6 
#
# 1 0.008805 -0.005544 -0.001413 0.000000 0.000000 0.000000
# 2 -0.005544 0.010719 -0.004825 0.000000 0.000000 0.000000
# 3 -0.001413 -0.004825 0.022782 0.000000 0.000000 0.000000
# 4 0.000000 0.000000 0.000000 0.043931 0.000000 0.000000
# 5 0.000000 0.000000 0.000000 0.000000 0.066831 0.000000
# 6 0.000000 0.000000 0.000000 0.000000 0.000000 0.033944
#
#
# Mechanical properties :
#
#
# Convention : Reuss Voigt Hill
#
# Bulk Modulus (GPa) = 53.35484 90.37498 71.86491
# Shear Modulus (GPa) = 23.06021 28.40937 25.73479
#
# Velocity S-wave (km/s) = 3.49313 3.87716 3.69014
# Velocity P-wave (km/s) = 6.67091 8.23793 7.49549
#
# Compressibility (1/GPa) = 0.01874244
#
# Stress axis : x y z
#
# Youngs Moduli (GPa) = 113.56742 93.29327 43.89405
#
# Poissons Ratio (x) = 0.51718 0.06204
# Poissons Ratio (y) = 0.62957 0.21179
# Poissons Ratio (z) = 0.16052 0.45013
#
# Static dielectric constant tensor:
#      x y z
#    x 3.665070 0.000000 0.000000 
#    y 0.000000 4.052770 0.000000 
#    z 0.000000 0.000000 3.061780 
# 
# 
# High freq. dielectric constant tensor:
#      x y z
#    x 1.737940 0.000000 0.000000 
#    y 0.000000 1.755360 0.000000 
#    z 0.000000 0.000000 1.690810 
# 
# From -- ./inp_files/15980.got.cif
#   From: 2010.06.25/outbox.cif.g09.slc.cpg/sg71_8_cif.got.tgz:15980.got - 2010.06.28 04:59:45.
