data_PCOD8292394
_publ_section_title
;
Structure prediction by ZEFSAII (Michael W. Deem and Ramdas Pophale) SiO2 
 PCOD8292394
Probable space group: I M M M
;
_chemical_formula_sum "Si O2"
_cell_formula_units_Z 72
_cell_length_a 17.685333
_cell_length_b 22.788684
_cell_length_c 9.058911
_cell_angle_alpha 90.000000
_cell_angle_beta 90.000000
_cell_angle_gamma 90.000000
_cell_volume 3650.971820
_symmetry_space_group_name_H-M "I M M M"
_symmetry_group_IT_number 71
_symmetry_cell_setting 'orthorhombic'
loop_
_space_group_symop_operation_xyz
x,y,z
-x,-y,z
x,-y,-z
-x,y,-z
-x,-y,-z
x,y,-z
-x,y,z
x,-y,z
1/2+x,1/2+y,1/2+z
1/2-x,1/2-y,1/2+z
1/2+x,1/2-y,1/2-z
1/2-x,1/2+y,1/2-z
1/2-x,1/2-y,1/2-z
1/2+x,1/2+y,1/2-z
1/2-x,1/2+y,1/2+z
1/2+x,1/2-y,1/2+z
loop_
_atom_site_type_symbol
_atom_site_label
_atom_site_fract_x
_atom_site_fract_y
_atom_site_fract_z
Si Si1 0.500000 0.565947 0.324484
Si Si2 0.221119 0.432234 0.829203
Si Si3 0.587096 0.122362 0.170499
Si Si4 0.146458 0.135494 0.825101
Si Si5 0.086678 0.243396 0.670645
O O1 0.500000 0.500000 0.260463
O O2 0.500000 0.565014 0.500000
O O3 0.574421 0.598907 0.265623
O O4 0.240694 0.500000 0.802420
O O5 0.136498 0.419702 0.773232
O O6 0.277962 0.392935 0.736083
O O7 0.227348 0.415354 0.000000
O O8 0.500000 0.112379 0.213315
O O9 0.610828 0.189692 0.199244
O O10 0.600594 0.106080 0.000000
O O11 0.140046 0.202166 0.768879
O O12 0.151011 0.135546 0.000000
O O13 0.097178 0.226854 0.500000
O O14 0.000000 0.234124 0.719152
#
# Coordination Sequence:
#
# PCOD8292394 Si02
#       5
#     8  16  16  16  16
#     4   9  18  32  51  79 113 149 192 237 278 325
#     4  11  25  42  58  82 117 154 194 241 293 346
#     4   9  20  40  65  90 114 148 192 237 290 349
#     4  11  21  35  58  86 117 155 196 239 286 336
#     4   9  18  35  59  87 121 153 186 234 288 343
#
# _framework density 19.720776999999998
#
# number of rings (size 3 to 8) (size 9 to 14) (size 15 to 20)
#    0.000    2.111    1.111    3.333    0.000    5.333 
#    0.000    4.444    0.000    2.667    0.000    0.000 
#    0.000    0.000    0.000    0.000    0.000    0.000 
#
# Total GULP energy -446541.659906 kJ/mol
# GULP energy per Si atom -12403.934997 kJ/mol
# Density = 1.967589 g / cm^3
# Si number density = 19.720777 Si / 1000 Ang^3
#
#
#
# Elastic Constant Matrix: (Units=GPa)
#
#
# Indices 1 2 3 4 5 6 
#
# 1 85.4478 19.5272 35.7094 0.0000 0.0000 0.0000
# 2 19.5272 43.2017 31.7987 0.0000 0.0000 0.0000
# 3 35.7094 31.7987 80.6658 0.0000 0.0000 0.0000
# 4 0.0000 0.0000 0.0000 32.6072 0.0000 0.0000
# 5 0.0000 0.0000 0.0000 0.0000 31.0045 0.0000
# 6 0.0000 0.0000 0.0000 0.0000 0.0000 35.5347
#
#
#
# Elastic Compliance Matrix: (Units=1/GPa)
#
#
# Indices 1 2 3 4 5 6 
#
# 1 0.014562 -0.002588 -0.005426 0.000000 0.000000 0.000000
# 2 -0.002588 0.033069 -0.011890 0.000000 0.000000 0.000000
# 3 -0.005426 -0.011890 0.019486 0.000000 0.000000 0.000000
# 4 0.000000 0.000000 0.000000 0.030668 0.000000 0.000000
# 5 0.000000 0.000000 0.000000 0.000000 0.032253 0.000000
# 6 0.000000 0.000000 0.000000 0.000000 0.000000 0.028141
#
#
# Mechanical properties :
#
#
# Convention : Reuss Voigt Hill
#
# Bulk Modulus (GPa) = 36.61910 42.59844 39.60877
# Shear Modulus (GPa) = 24.14390 27.98128 26.06259
#
# Velocity S-wave (km/s) = 3.50278 3.77088 3.63930
# Velocity P-wave (km/s) = 5.91341 6.37237 6.14717
#
# Compressibility (1/GPa) = 0.02730815
#
# Stress axis : x y z
#
# Youngs Moduli (GPa) = 68.67114 30.23992 51.31887
#
# Poissons Ratio (x) = 0.07827 0.27846
# Poissons Ratio (y) = 0.17773 0.61019
# Poissons Ratio (z) = 0.37262 0.35956
#
# Static dielectric constant tensor:
#      x y z
#    x 3.538910 0.000000 0.000000 
#    y 0.000000 3.604480 0.000000 
#    z 0.000000 0.000000 3.392930 
# 
# 
# High freq. dielectric constant tensor:
#      x y z
#    x 1.769030 0.000000 0.000000 
#    y 0.000000 1.773580 0.000000 
#    z 0.000000 0.000000 1.757020 
# 
# From -- ./inp_files/7948.got.cif
#   From: 2010.06.25/outbox.cif.g09.slc.cpg/sg71_4_cif.got.tgz:7948.got - 2010.06.28 04:59:45.
