data_PCOD8292826
_publ_section_title
;
Structure prediction by ZEFSAII (Michael W. Deem and Ramdas Pophale) SiO2 
 PCOD8292826
Probable space group: I B A M
;
_chemical_formula_sum "Si O2"
_cell_formula_units_Z 64
_cell_length_a 12.635683
_cell_length_b 5.355045
_cell_length_c 35.887685
_cell_angle_alpha 90.000000
_cell_angle_beta 90.000000
_cell_angle_gamma 90.000000
_cell_volume 2428.327683
_symmetry_space_group_name_H-M "I B A M"
_symmetry_group_IT_number 72
_symmetry_cell_setting 'orthorhombic'
loop_
_space_group_symop_operation_xyz
x,y,z
-x,-y,z
x,-y,1/2-z
-x,y,1/2-z
-x,-y,-z
x,y,-z
-x,y,1/2+z
x,-y,1/2+z
1/2+x,1/2+y,1/2+z
1/2-x,1/2-y,1/2+z
1/2+x,1/2-y,-z
1/2-x,1/2+y,-z
1/2-x,1/2-y,1/2-z
1/2+x,1/2+y,1/2-z
1/2-x,1/2+y,z
1/2+x,1/2-y,z
loop_
_atom_site_type_symbol
_atom_site_label
_atom_site_fract_x
_atom_site_fract_y
_atom_site_fract_z
Si Si1 0.627088 0.353455 0.543115
Si Si2 0.567299 0.249719 0.848775
Si Si3 0.362993 0.146843 0.426937
Si Si4 0.881798 0.248497 0.265840
O O1 0.620765 0.283621 0.500000
O O2 0.574113 0.627362 0.551291
O O3 0.748054 0.406433 0.555705
O O4 0.577510 0.122314 0.567160
O O5 0.500000 0.500000 0.854738
O O6 0.647421 0.220276 0.883492
O O7 0.630443 0.266690 0.810297
O O8 0.500000 0.000000 0.846618
O O9 0.826252 0.500000 0.250000
O O10 0.000000 0.247545 0.250000
O O11 0.824204 0.000000 0.250000
#
# Coordination Sequence:
#
# PCOD8292826 Si02
#       4
#    16  16  16  16
#     4  10  19  38  62  75  93 130 188 228 242 295
#     4  12  21  32  50  78 118 136 160 215 259 315
#     4  10  20  32  54  84 100 131 171 223 262 290
#     4  10  16  30  48  69  98 135 182 201 228 293
#
# _framework density 26.355588000000001
#
# number of rings (size 3 to 8) (size 9 to 14) (size 15 to 20)
#    0.000    1.500    5.000    5.250    0.000    0.000 
#    0.000    0.000    0.000   25.500    0.000   21.000 
#    0.000    0.000    0.000    0.000    0.000    0.000 
#
# Total GULP energy -396656.052836 kJ/mol
# GULP energy per Si atom -12395.501651 kJ/mol
# Density = 2.629560 g / cm^3
# Si number density = 26.355588 Si / 1000 Ang^3
#
#
#
# Elastic Constant Matrix: (Units=GPa)
#
#
# Indices 1 2 3 4 5 6 
#
# 1 39.3893 16.3732 6.6552 0.0000 0.0000 0.0000
# 2 16.3732 304.2364 70.1986 0.0000 0.0000 0.0000
# 3 6.6552 70.1986 244.9326 0.0000 0.0000 0.0000
# 4 0.0000 0.0000 0.0000 55.2912 0.0000 0.0000
# 5 0.0000 0.0000 0.0000 0.0000 23.6870 0.0000
# 6 0.0000 0.0000 0.0000 0.0000 0.0000 -133.4316
#
#
#
# Elastic Compliance Matrix: (Units=1/GPa)
#
#
# Indices 1 2 3 4 5 6 
#
# 1 0.025993 -0.001323 -0.000327 0.000000 0.000000 0.000000
# 2 -0.001323 0.003587 -0.000992 0.000000 0.000000 0.000000
# 3 -0.000327 -0.000992 0.004376 0.000000 0.000000 0.000000
# 4 0.000000 0.000000 0.000000 0.018086 0.000000 0.000000
# 5 0.000000 0.000000 0.000000 0.000000 0.042217 0.000000
# 6 0.000000 0.000000 0.000000 0.000000 0.000000 -0.007494
#
#
# Mechanical properties :
#
#
# Convention : Reuss Voigt Hill
#
# Bulk Modulus (GPa) = 34.87848 86.11248 60.49548
# Shear Modulus (GPa) = 49.20933 22.13141 35.67037
#
# Velocity S-wave (km/s) = 4.32572 2.90094 3.68289
# Velocity P-wave (km/s) = 6.18156 6.63060 6.41001
#
# Compressibility (1/GPa) = 0.02867098
#
# Stress axis : x y z
#
# Youngs Moduli (GPa) = 38.47198 278.78014 228.52026
#
# Poissons Ratio (x) = 0.36895 0.07472
# Poissons Ratio (y) = 0.05091 0.22672
# Poissons Ratio (z) = 0.01258 0.27658
#
# Static dielectric constant tensor:
#      x y z
#    x 5.833710 0.000000 0.000000 
#    y 0.000000 20.649470 0.000000 
#    z 0.000000 0.000000 5.057140 
# 
# 
# High freq. dielectric constant tensor:
#      x y z
#    x 2.062150 0.000000 0.000000 
#    y 0.000000 2.112820 0.000000 
#    z 0.000000 0.000000 2.048310 
# 
# From -- ./inp_files/51956.got.cif
#   From: 2010.03.12/outbox.cif.g09.slc.cpg/sg72_26_cif.got.tgz:51956.got - 2010.04.16 14:54:00.
