data_PCOD8292202
_publ_section_title
;
Structure prediction by ZEFSAII (Michael W. Deem and Ramdas Pophale) SiO2 
 PCOD8292202
Probable space group: I M M M
;
_chemical_formula_sum "Si O2"
_cell_formula_units_Z 72
_cell_length_a 15.245363
_cell_length_b 10.138975
_cell_length_c 23.278316
_cell_angle_alpha 90.000000
_cell_angle_beta 90.000000
_cell_angle_gamma 90.000000
_cell_volume 3598.184109
_symmetry_space_group_name_H-M "I M M M"
_symmetry_group_IT_number 71
_symmetry_cell_setting 'orthorhombic'
loop_
_space_group_symop_operation_xyz
x,y,z
-x,-y,z
x,-y,-z
-x,y,-z
-x,-y,-z
x,y,-z
-x,y,z
x,-y,z
1/2+x,1/2+y,1/2+z
1/2-x,1/2-y,1/2+z
1/2+x,1/2-y,1/2-z
1/2-x,1/2+y,1/2-z
1/2-x,1/2-y,1/2-z
1/2+x,1/2+y,1/2-z
1/2-x,1/2+y,1/2+z
1/2+x,1/2-y,1/2+z
loop_
_atom_site_type_symbol
_atom_site_label
_atom_site_fract_x
_atom_site_fract_y
_atom_site_fract_z
Si Si1 0.605132 0.000000 0.565529
Si Si2 0.637814 0.000000 0.067515
Si Si3 0.332728 0.344813 0.744702
Si Si4 0.670897 0.500000 0.435299
Si Si5 0.500000 0.348652 0.816087
Si Si6 0.500000 0.784626 0.067894
Si Si7 0.100138 0.238076 0.876487
O O1 0.643248 0.873694 0.600091
O O2 0.500000 0.000000 0.563454
O O3 0.641265 0.000000 0.500000
O O4 0.585627 0.131478 0.084950
O O5 0.734025 0.000000 0.097549
O O6 0.641103 0.000000 0.000000
O O7 0.310157 0.500000 0.755983
O O8 0.250000 0.250000 0.750000
O O9 0.410899 0.292103 0.786594
O O10 0.359305 0.325972 0.679335
O O11 0.700222 0.500000 0.500000
O O12 0.612598 0.628539 0.425007
O O13 0.500000 0.500000 0.799731
O O14 0.500000 0.333489 0.885601
O O15 0.500000 0.739254 0.000000
O O16 0.000000 0.268688 0.864369
#
# Coordination Sequence:
#
# PCOD8292202 Si02
#       7
#     8   8  16   8   8   8  16
#     4   9  20  38  59  86 123 164 202 244 301 366
#     4   8  18  36  56  86 124 152 184 254 312 355
#     4  11  25  44  64  91 126 165 211 262 321 378
#     4  11  22  34  61  95 121 155 210 255 307 375
#     4  10  23  42  64  88 126 161 199 261 322 372
#     4   9  18  37  63  87 117 157 201 250 318 381
#     4  11  22  39  62  85 124 164 201 257 312 367
#
# _framework density 20.010093999999999
#
# number of rings (size 3 to 8) (size 9 to 14) (size 15 to 20)
#    0.000    1.889    2.222    1.667    4.667    2.000 
#    2.000    0.000    0.000    0.000    0.000    0.000 
#    0.000    0.000    0.000    0.000    0.000    0.000 
#
# Total GULP energy -446043.355565 kJ/mol
# GULP energy per Si atom -12390.093210 kJ/mol
# Density = 1.996455 g / cm^3
# Si number density = 20.010094 Si / 1000 Ang^3
#
#
#
# Elastic Constant Matrix: (Units=GPa)
#
#
# Indices 1 2 3 4 5 6 
#
# 1 86.3586 33.4230 29.6431 0.0000 0.0000 0.0000
# 2 33.4230 120.9078 33.4676 0.0000 0.0000 0.0000
# 3 29.6431 33.4676 88.4292 0.0000 0.0000 0.0000
# 4 0.0000 0.0000 0.0000 29.4212 0.0000 0.0000
# 5 0.0000 0.0000 0.0000 0.0000 18.2321 0.0000
# 6 0.0000 0.0000 0.0000 0.0000 0.0000 26.0790
#
#
#
# Elastic Compliance Matrix: (Units=1/GPa)
#
#
# Indices 1 2 3 4 5 6 
#
# 1 0.013915 -0.002854 -0.003584 0.000000 0.000000 0.000000
# 2 -0.002854 0.009824 -0.002761 0.000000 0.000000 0.000000
# 3 -0.003584 -0.002761 0.013555 0.000000 0.000000 0.000000
# 4 0.000000 0.000000 0.000000 0.033989 0.000000 0.000000
# 5 0.000000 0.000000 0.000000 0.000000 0.054848 0.000000
# 6 0.000000 0.000000 0.000000 0.000000 0.000000 0.038345
#
#
# Mechanical properties :
#
#
# Convention : Reuss Voigt Hill
#
# Bulk Modulus (GPa) = 52.92639 54.30699 53.61669
# Shear Modulus (GPa) = 26.43072 28.02392 27.22732
#
# Velocity S-wave (km/s) = 3.63832 3.74637 3.69274
# Velocity P-wave (km/s) = 6.64508 6.77587 6.71079
#
# Compressibility (1/GPa) = 0.01889417
#
# Stress axis : x y z
#
# Youngs Moduli (GPa) = 71.86692 101.79009 73.77348
#
# Poissons Ratio (x) = 0.29055 0.26442
# Poissons Ratio (y) = 0.20513 0.20371
# Poissons Ratio (z) = 0.25758 0.28107
#
# Static dielectric constant tensor:
#      x y z
#    x 4.060500 0.000000 0.000000 
#    y 0.000000 3.646610 0.000000 
#    z 0.000000 0.000000 4.475000 
# 
# 
# High freq. dielectric constant tensor:
#      x y z
#    x 1.773920 0.000000 0.000000 
#    y 0.000000 1.774370 0.000000 
#    z 0.000000 0.000000 1.781520 
# 
# From -- ./inp_files/65219.got.cif
#   From: 2010.06.25/outbox.cif.g09.slc.cpg/sg71_33_cif.got.tgz:65219.got - 2010.06.28 04:59:45.
