data_PCOD8292068
_publ_section_title
;
Structure prediction by ZEFSAII (Michael W. Deem and Ramdas Pophale) SiO2 
 PCOD8292068
Probable space group: I M M M
;
_chemical_formula_sum "Si O2"
_cell_formula_units_Z 88
_cell_length_a 13.286976
_cell_length_b 12.132515
_cell_length_c 28.189196
_cell_angle_alpha 90.000000
_cell_angle_beta 90.000000
_cell_angle_gamma 90.000000
_cell_volume 4544.223432
_symmetry_space_group_name_H-M "I M M M"
_symmetry_group_IT_number 71
_symmetry_cell_setting 'orthorhombic'
loop_
_space_group_symop_operation_xyz
x,y,z
-x,-y,z
x,-y,-z
-x,y,-z
-x,-y,-z
x,y,-z
-x,y,z
x,-y,z
1/2+x,1/2+y,1/2+z
1/2-x,1/2-y,1/2+z
1/2+x,1/2-y,1/2-z
1/2-x,1/2+y,1/2-z
1/2-x,1/2-y,1/2-z
1/2+x,1/2+y,1/2-z
1/2-x,1/2+y,1/2+z
1/2+x,1/2-y,1/2+z
loop_
_atom_site_type_symbol
_atom_site_label
_atom_site_fract_x
_atom_site_fract_y
_atom_site_fract_z
Si Si1 0.118236 0.736597 0.372725
Si Si2 0.380608 0.000000 0.727623
Si Si3 0.777931 0.722911 0.056045
Si Si4 0.776709 0.285585 0.802228
Si Si5 0.387115 0.000000 0.556138
Si Si6 0.118985 0.124811 0.872684
Si Si7 0.618164 0.000000 0.165179
O O1 0.163955 0.771993 0.423523
O O2 0.172635 0.806396 0.331159
O O3 0.149098 0.608782 0.363960
O O4 0.000000 0.759824 0.371934
O O5 0.342005 0.104435 0.698482
O O6 0.500000 0.000000 0.727630
O O7 0.336296 0.000000 0.781469
O O8 0.827448 0.608138 0.072871
O O9 0.843367 0.821200 0.078231
O O10 0.773931 0.736962 0.000000
O O11 0.750000 0.250000 0.750000
O O12 0.841827 0.191144 0.827322
O O13 0.500000 0.000000 0.578094
O O14 0.395157 0.000000 0.500000
O O15 0.000000 0.125321 0.872901
O O16 0.160815 0.000000 0.868996
O O17 0.500000 0.000000 0.171990
#
# Coordination Sequence:
#
# PCOD8292068 Si02
#       7
#    16   8  16  16   8  16   8
#     4  10  22  39  59  85 122 162 201 244 299 358
#     4  11  22  39  64  92 119 159 209 255 301 362
#     4  10  22  38  63  92 118 155 204 250 302 357
#     4  11  23  36  63  87 119 154 206 251 299 354
#     4   9  18  37  63  88 114 147 194 248 299 356
#     4  10  23  40  58  86 125 162 195 244 311 370
#     4   9  18  36  60  82 112 159 200 239 299 357
#
# _framework density 19.365244000000001
#
# number of rings (size 3 to 8) (size 9 to 14) (size 15 to 20)
#    0.000    1.909    1.818    1.091    6.364    5.455 
#    0.000    7.273    0.000    3.273    0.000    0.000 
#    0.000    0.000    0.000    0.000    0.000    0.000 
#
# Total GULP energy -545583.081488 kJ/mol
# GULP energy per Si atom -12399.615488 kJ/mol
# Density = 1.932117 g / cm^3
# Si number density = 19.365244 Si / 1000 Ang^3
#
#
#
# Elastic Constant Matrix: (Units=GPa)
#
#
# Indices 1 2 3 4 5 6 
#
# 1 125.5412 71.0510 54.5551 0.0000 0.0000 0.0000
# 2 71.0510 150.6378 62.8278 0.0000 0.0000 0.0000
# 3 54.5551 62.8278 138.0073 0.0000 0.0000 0.0000
# 4 0.0000 0.0000 0.0000 30.8713 0.0000 0.0000
# 5 0.0000 0.0000 0.0000 0.0000 29.7383 0.0000
# 6 0.0000 0.0000 0.0000 0.0000 0.0000 35.8485
#
#
#
# Elastic Compliance Matrix: (Units=1/GPa)
#
#
# Indices 1 2 3 4 5 6 
#
# 1 0.011564 -0.004379 -0.002578 0.000000 0.000000 0.000000
# 2 -0.004379 0.009853 -0.002754 0.000000 0.000000 0.000000
# 3 -0.002578 -0.002754 0.009519 0.000000 0.000000 0.000000
# 4 0.000000 0.000000 0.000000 0.032393 0.000000 0.000000
# 5 0.000000 0.000000 0.000000 0.000000 0.033627 0.000000
# 6 0.000000 0.000000 0.000000 0.000000 0.000000 0.027895
#
#
# Mechanical properties :
#
#
# Convention : Reuss Voigt Hill
#
# Bulk Modulus (GPa) = 86.85711 87.89490 87.37601
# Shear Modulus (GPa) = 33.75853 34.34178 34.05016
#
# Velocity S-wave (km/s) = 4.17976 4.21571 4.19777
# Velocity P-wave (km/s) = 8.26095 8.31762 8.28933
#
# Compressibility (1/GPa) = 0.01151316
#
# Stress axis : x y z
#
# Youngs Moduli (GPa) = 86.47367 101.49385 105.05458
#
# Poissons Ratio (x) = 0.44448 0.27080
# Poissons Ratio (y) = 0.37870 0.28935
# Poissons Ratio (z) = 0.22290 0.27954
#
# Static dielectric constant tensor:
#      x y z
#    x 3.689220 0.000000 0.000000 
#    y 0.000000 5.118330 0.000000 
#    z 0.000000 0.000000 3.464910 
# 
# 
# High freq. dielectric constant tensor:
#      x y z
#    x 1.765080 0.000000 0.000000 
#    y 0.000000 1.757770 0.000000 
#    z 0.000000 0.000000 1.749680 
# 
# From -- ./inp_files/65361.got.cif
#   From: 2010.06.25/outbox.cif.g09.slc.cpg/sg71_33_cif.got.tgz:65361.got - 2010.06.28 04:59:45.
