data_PCOD8292323
_publ_section_title
;
Structure prediction by ZEFSAII (Michael W. Deem and Ramdas Pophale) SiO2 
 PCOD8292323
Probable space group: I M M M
;
_chemical_formula_sum "Si O2"
_cell_formula_units_Z 72
_cell_length_a 23.645444
_cell_length_b 10.074855
_cell_length_c 16.243992
_cell_angle_alpha 90.000000
_cell_angle_beta 90.000000
_cell_angle_gamma 90.000000
_cell_volume 3869.715568
_symmetry_space_group_name_H-M "I M M M"
_symmetry_group_IT_number 71
_symmetry_cell_setting 'orthorhombic'
loop_
_space_group_symop_operation_xyz
x,y,z
-x,-y,z
x,-y,-z
-x,y,-z
-x,-y,-z
x,y,-z
-x,y,z
x,-y,z
1/2+x,1/2+y,1/2+z
1/2-x,1/2-y,1/2+z
1/2+x,1/2-y,1/2-z
1/2-x,1/2+y,1/2-z
1/2-x,1/2-y,1/2-z
1/2+x,1/2+y,1/2-z
1/2-x,1/2+y,1/2+z
1/2+x,1/2-y,1/2+z
loop_
_atom_site_type_symbol
_atom_site_label
_atom_site_fract_x
_atom_site_fract_y
_atom_site_fract_z
Si Si1 0.434306 0.000000 0.091418
Si Si2 0.064146 0.158040 0.000000
Si Si3 0.877169 0.255150 0.333830
Si Si4 0.864726 0.847323 0.153489
Si Si5 0.936238 0.000000 0.596695
Si Si6 0.258928 0.847294 0.175019
O O1 0.419287 0.872310 0.144662
O O2 0.500000 0.000000 0.077506
O O3 0.405480 0.000000 0.000000
O O4 0.095780 0.211269 0.918554
O O5 0.000000 0.211156 0.000000
O O6 0.066560 0.000000 0.000000
O O7 0.874859 0.239049 0.235180
O O8 0.899945 0.124829 0.376458
O O9 0.815105 0.293905 0.371078
O O10 0.799166 0.839099 0.122276
O O11 0.880535 0.000000 0.173885
O O12 0.942453 0.000000 0.500000
O O13 0.000000 0.000000 0.635432
O O14 0.250000 0.750000 0.250000
O O15 0.268861 0.000000 0.203829
#
# Coordination Sequence:
#
# PCOD8292323 Si02
#       6
#     8   8  16  16   8  16
#     4  11  24  40  55  81 119 151 188 242 297 353
#     4   9  18  32  52  83 119 147 184 241 285 329
#     4  11  20  38  60  85 112 152 202 239 292 365
#     4   9  18  35  56  84 115 149 189 238 288 342
#     4  11  24  40  57  81 117 155 198 252 301 351
#     4   9  18  33  57  84 116 148 186 240 294 345
#
# _framework density 18.606019
#
# number of rings (size 3 to 8) (size 9 to 14) (size 15 to 20)
#    0.000    2.111    2.222    1.333    1.556    3.556 
#    4.000    0.000    0.000    0.667    0.000    1.556 
#    0.000    0.000    0.000    0.000    0.000    0.000 
#
# Total GULP energy -446127.815890 kJ/mol
# GULP energy per Si atom -12392.439330 kJ/mol
# Density = 1.856367 g / cm^3
# Si number density = 18.606019 Si / 1000 Ang^3
#
#
#
# Elastic Constant Matrix: (Units=GPa)
#
#
# Indices 1 2 3 4 5 6 
#
# 1 149.2706 56.7267 57.4421 0.0000 0.0000 0.0000
# 2 56.7267 123.2190 34.5780 0.0000 0.0000 0.0000
# 3 57.4421 34.5780 95.2541 0.0000 0.0000 0.0000
# 4 0.0000 0.0000 0.0000 15.1989 0.0000 0.0000
# 5 0.0000 0.0000 0.0000 0.0000 27.9485 0.0000
# 6 0.0000 0.0000 0.0000 0.0000 0.0000 16.3919
#
#
#
# Elastic Compliance Matrix: (Units=1/GPa)
#
#
# Indices 1 2 3 4 5 6 
#
# 1 0.009709 -0.003147 -0.004712 0.000000 0.000000 0.000000
# 2 -0.003147 0.010056 -0.001753 0.000000 0.000000 0.000000
# 3 -0.004712 -0.001753 0.013976 0.000000 0.000000 0.000000
# 4 0.000000 0.000000 0.000000 0.065794 0.000000 0.000000
# 5 0.000000 0.000000 0.000000 0.000000 0.035780 0.000000
# 6 0.000000 0.000000 0.000000 0.000000 0.000000 0.061006
#
#
# Mechanical properties :
#
#
# Convention : Reuss Voigt Hill
#
# Bulk Modulus (GPa) = 68.88509 73.91524 71.40017
# Shear Modulus (GPa) = 22.68762 26.50764 24.59763
#
# Velocity S-wave (km/s) = 3.49574 3.77859 3.63991
# Velocity P-wave (km/s) = 7.30732 7.67136 7.49155
#
# Compressibility (1/GPa) = 0.01451693
#
# Stress axis : x y z
#
# Youngs Moduli (GPa) = 103.00120 99.43958 71.55058
#
# Poissons Ratio (x) = 0.31296 0.33716
# Poissons Ratio (y) = 0.32417 0.12540
# Poissons Ratio (z) = 0.48537 0.17428
#
# Static dielectric constant tensor:
#      x y z
#    x 4.396190 0.000000 0.000000 
#    y 0.000000 3.214280 0.000000 
#    z 0.000000 0.000000 3.381370 
# 
# 
# High freq. dielectric constant tensor:
#      x y z
#    x 1.744570 0.000000 0.000000 
#    y 0.000000 1.711930 0.000000 
#    z 0.000000 0.000000 1.697340 
# 
# From -- ./inp_files/39982.got.cif
#   From: 2010.06.25/outbox.cif.g09.slc.cpg/sg71_20_cif.got.tgz:39982.got - 2010.06.28 04:59:45.
