data_PCOD8292590
_publ_section_title
;
Structure prediction by ZEFSAII (Michael W. Deem and Ramdas Pophale) SiO2 
 PCOD8292590
Probable space group: I M M M
;
_chemical_formula_sum "Si O2"
_cell_formula_units_Z 64
_cell_length_a 27.086499
_cell_length_b 10.218284
_cell_length_c 13.677414
_cell_angle_alpha 90.000000
_cell_angle_beta 90.000000
_cell_angle_gamma 90.000000
_cell_volume 3785.600992
_symmetry_space_group_name_H-M "I M M M"
_symmetry_group_IT_number 71
_symmetry_cell_setting 'orthorhombic'
loop_
_space_group_symop_operation_xyz
x,y,z
-x,-y,z
x,-y,-z
-x,y,-z
-x,-y,-z
x,y,-z
-x,y,z
x,-y,z
1/2+x,1/2+y,1/2+z
1/2-x,1/2-y,1/2+z
1/2+x,1/2-y,1/2-z
1/2-x,1/2+y,1/2-z
1/2-x,1/2-y,1/2-z
1/2+x,1/2+y,1/2-z
1/2-x,1/2+y,1/2+z
1/2+x,1/2-y,1/2+z
loop_
_atom_site_type_symbol
_atom_site_label
_atom_site_fract_x
_atom_site_fract_y
_atom_site_fract_z
Si Si1 0.849096 0.243980 0.802989
Si Si2 0.699166 0.000000 0.785779
Si Si3 0.705577 0.271424 0.500000
Si Si4 0.217827 0.500000 0.500000
Si Si5 0.307302 0.500000 0.206799
Si Si6 0.944302 0.346938 0.887147
Si Si7 0.759442 0.000000 0.500000
O O1 0.822167 0.373198 0.765965
O O2 0.840451 0.127727 0.726536
O O3 0.907516 0.268453 0.816182
O O4 0.827078 0.199436 0.905876
O O5 0.758419 0.000000 0.774192
O O6 0.685034 0.000000 0.901027
O O7 0.751578 0.367164 0.500000
O O8 0.723346 0.122809 0.500000
O O9 0.294410 0.500000 0.093368
O O10 0.938115 0.500000 0.866263
O O11 0.000000 0.301483 0.863408
O O12 0.931348 0.317872 0.000000
#
# Coordination Sequence:
#
# PCOD8292590 Si02
#       7
#    16   8   8   4   8  16   4
#     4  12  21  35  55  81 109 148 178 212 272 323
#     4  12  22  36  53  75 105 147 191 215 256 317
#     4  12  20  32  55  75 112 143 182 214 259 318
#     4  12  24  36  48  74 110 148 180 232 258 288
#     4  12  24  36  51  79 111 147 185 219 264 317
#     4   9  18  33  56  84 110 137 176 221 265 324
#     4  12  24  36  52  74 108 150 190 226 238 312
#
# _framework density 16.906165999999999
#
# number of rings (size 3 to 8) (size 9 to 14) (size 15 to 20)
#    0.000    0.750    7.500    3.000    0.000    0.000 
#    0.000    0.625    0.000    1.500    0.000    5.250 
#    0.000    0.000    0.000    0.000    0.000    0.000 
#
# Total GULP energy -396891.601260 kJ/mol
# GULP energy per Si atom -12402.862539 kJ/mol
# Density = 1.686769 g / cm^3
# Si number density = 16.906166 Si / 1000 Ang^3
#
#
#
# Elastic Constant Matrix: (Units=GPa)
#
#
# Indices 1 2 3 4 5 6 
#
# 1 86.6456 17.9746 12.8776 0.0000 0.0000 0.0000
# 2 17.9746 75.6410 -3.8092 0.0000 0.0000 0.0000
# 3 12.8776 -3.8092 80.8421 0.0000 0.0000 0.0000
# 4 0.0000 0.0000 0.0000 -20.4847 0.0000 0.0000
# 5 0.0000 0.0000 0.0000 0.0000 28.1046 0.0000
# 6 0.0000 0.0000 0.0000 0.0000 0.0000 18.3197
#
#
#
# Elastic Compliance Matrix: (Units=1/GPa)
#
#
# Indices 1 2 3 4 5 6 
#
# 1 0.012497 -0.003077 -0.002136 0.000000 0.000000 0.000000
# 2 -0.003077 0.014010 0.001150 0.000000 0.000000 0.000000
# 3 -0.002136 0.001150 0.012764 0.000000 0.000000 0.000000
# 4 0.000000 0.000000 0.000000 -0.048817 0.000000 0.000000
# 5 0.000000 0.000000 0.000000 0.000000 0.035581 0.000000
# 6 0.000000 0.000000 0.000000 0.000000 0.000000 0.054586
#
#
# Mechanical properties :
#
#
# Convention : Reuss Voigt Hill
#
# Bulk Modulus (GPa) = 32.10738 33.02388 32.56563
# Shear Modulus (GPa) = 50.43968 19.59364 35.01666
#
# Velocity S-wave (km/s) = 5.46808 3.40805 4.55602
# Velocity P-wave (km/s) = 7.67458 5.92135 6.85426
#
# Compressibility (1/GPa) = 0.03114549
#
# Stress axis : x y z
#
# Youngs Moduli (GPa) = 80.01891 71.38009 78.34414
#
# Poissons Ratio (x) = 0.21965 0.16732
# Poissons Ratio (y) = 0.24624 -0.09012
# Poissons Ratio (z) = 0.17090 -0.08211
#
# Static dielectric constant tensor:
#      x y z
#    x 3.081800 0.000000 0.000000 
#    y 0.000000 3.171110 0.000000 
#    z 0.000000 0.000000 3.252990 
# 
# 
# High freq. dielectric constant tensor:
#      x y z
#    x 1.629720 0.000000 0.000000 
#    y 0.000000 1.658230 0.000000 
#    z 0.000000 0.000000 1.645570 
# 
# From -- ./inp_files/40665.got.cif
#   From: 2010.06.25/outbox.cif.g09.slc.cpg/sg71_21_cif.got.tgz:40665.got - 2010.06.28 04:59:45.
