data_PCOD8292949
_publ_section_title
;
Structure prediction by ZEFSAII (Michael W. Deem and Ramdas Pophale) SiO2 
 PCOD8292949
Probable space group: I B A M
;
_chemical_formula_sum "Si O2"
_cell_formula_units_Z 128
_cell_length_a 22.223929
_cell_length_b 11.832016
_cell_length_c 24.210075
_cell_angle_alpha 90.000000
_cell_angle_beta 90.000000
_cell_angle_gamma 90.000000
_cell_volume 6366.133241
_symmetry_space_group_name_H-M "I B A M"
_symmetry_group_IT_number 72
_symmetry_cell_setting 'orthorhombic'
loop_
_space_group_symop_operation_xyz
x,y,z
-x,-y,z
x,-y,1/2-z
-x,y,1/2-z
-x,-y,-z
x,y,-z
-x,y,1/2+z
x,-y,1/2+z
1/2+x,1/2+y,1/2+z
1/2-x,1/2-y,1/2+z
1/2+x,1/2-y,-z
1/2-x,1/2+y,-z
1/2-x,1/2-y,1/2-z
1/2+x,1/2+y,1/2-z
1/2-x,1/2+y,z
1/2+x,1/2-y,z
loop_
_atom_site_type_symbol
_atom_site_label
_atom_site_fract_x
_atom_site_fract_y
_atom_site_fract_z
Si Si1 0.714887 0.257288 0.363504
Si Si2 0.174363 0.804211 0.561988
Si Si3 0.782564 0.610524 0.218753
Si Si4 0.073833 0.375353 0.062863
Si Si5 0.095261 0.634142 0.245483
Si Si6 0.502533 0.129684 0.166599
Si Si7 0.701223 0.547193 0.938152
Si Si8 0.324192 0.986074 0.387499
O O1 0.777808 0.242979 0.395251
O O2 0.731799 0.298303 0.300706
O O3 0.679541 0.357904 0.394864
O O4 0.675814 0.143401 0.365524
O O5 0.200595 0.788065 0.500000
O O6 0.112418 0.737916 0.568374
O O7 0.160471 0.936491 0.572775
O O8 0.753865 0.500000 0.250000
O O9 0.834969 0.676113 0.253676
O O10 0.816367 0.566234 0.164455
O O11 0.014547 0.356698 0.101029
O O12 0.111866 0.484399 0.084090
O O13 0.052592 0.396406 0.000000
O O14 0.101558 0.500000 0.250000
O O15 0.057095 0.683523 0.297451
O O16 0.062343 0.676551 0.188459
O O17 0.500000 0.000000 0.184033
O O18 0.770837 0.508557 0.930921
O O19 0.692899 0.593956 0.000000
#
# Coordination Sequence:
#
# PCOD8292949 Si02
#       8
#    16  16  16  16  16  16  16  16
#     4  10  18  28  43  65  96 131 167 207 243 285
#     4   9  16  26  43  64  90 130 172 201 231 278
#     4  10  18  30  47  64  90 128 164 210 249 293
#     4  11  19  29  44  68 104 139 164 200 254 301
#     4   8  14  26  46  66  82 121 158 205 244 294
#     4   9  16  27  44  65  90 121 157 201 252 307
#     4   9  16  27  43  64  90 129 178 207 222 268
#     4  10  19  29  42  65  97 133 166 201 245 298
#
# _framework density 20.106396
#
# number of rings (size 3 to 8) (size 9 to 14) (size 15 to 20)
#    0.000    2.500    3.750    1.500    0.000    2.250 
#    0.000    0.000    0.000    0.000    0.000    0.000 
#    0.000    1.000   34.000    5.625    1.250    1.125 
#
# Total GULP energy -792885.590718 kJ/mol
# GULP energy per Si atom -12388.837355 kJ/mol
# Density = 2.006063 g / cm^3
# Si number density = 20.106396 Si / 1000 Ang^3
#
#
#
# Elastic Constant Matrix: (Units=GPa)
#
#
# Indices 1 2 3 4 5 6 
#
# 1 52.3450 37.8533 43.1350 0.0000 0.0000 0.0000
# 2 37.8533 78.9966 20.7001 0.0000 0.0000 0.0000
# 3 43.1350 20.7001 112.6419 0.0000 0.0000 0.0000
# 4 0.0000 0.0000 0.0000 14.5936 0.0000 0.0000
# 5 0.0000 0.0000 0.0000 0.0000 26.5268 0.0000
# 6 0.0000 0.0000 0.0000 0.0000 0.0000 5.5715
#
#
#
# Elastic Compliance Matrix: (Units=1/GPa)
#
#
# Indices 1 2 3 4 5 6 
#
# 1 0.041812 -0.016641 -0.012953 0.000000 0.000000 0.000000
# 2 -0.016641 0.019922 0.002711 0.000000 0.000000 0.000000
# 3 -0.012953 0.002711 0.013340 0.000000 0.000000 0.000000
# 4 0.000000 0.000000 0.000000 0.068523 0.000000 0.000000
# 5 0.000000 0.000000 0.000000 0.000000 0.037698 0.000000
# 6 0.000000 0.000000 0.000000 0.000000 0.000000 0.179484
#
#
# Mechanical properties :
#
#
# Convention : Reuss Voigt Hill
#
# Bulk Modulus (GPa) = 46.93050 49.70672 48.31861
# Shear Modulus (GPa) = 11.85822 18.82473 15.34148
#
# Velocity S-wave (km/s) = 2.43116 3.06315 2.76527
# Velocity P-wave (km/s) = 5.59218 6.10623 5.85485
#
# Compressibility (1/GPa) = 0.02130811
#
# Stress axis : x y z
#
# Youngs Moduli (GPa) = 23.91632 50.19489 74.96365
#
# Poissons Ratio (x) = 0.83530 0.97104
# Poissons Ratio (y) = 0.39800 -0.20326
# Poissons Ratio (z) = 0.30980 -0.13610
#
# Static dielectric constant tensor:
#      x y z
#    x 3.579710 0.000000 0.000000 
#    y 0.000000 3.629640 0.000000 
#    z 0.000000 0.000000 4.021250 
# 
# 
# High freq. dielectric constant tensor:
#      x y z
#    x 1.742480 0.000000 0.000000 
#    y 0.000000 1.749260 0.000000 
#    z 0.000000 0.000000 1.805470 
# 
# From -- ./inp_files/46042.got.cif
#   From: 2010.03.12/outbox.cif.g09.slc.cpg/sg72_24_cif.got.tgz:46042.got - 2010.04.16 14:54:00.
