data_PCOD8292192
_publ_section_title
;
Structure prediction by ZEFSAII (Michael W. Deem and Ramdas Pophale) SiO2 
 PCOD8292192
Probable space group: I M M M
;
_chemical_formula_sum "Si O2"
_cell_formula_units_Z 72
_cell_length_a 7.955676
_cell_length_b 23.582949
_cell_length_c 18.460259
_cell_angle_alpha 90.000000
_cell_angle_beta 90.000000
_cell_angle_gamma 90.000000
_cell_volume 3463.482436
_symmetry_space_group_name_H-M "I M M M"
_symmetry_group_IT_number 71
_symmetry_cell_setting 'orthorhombic'
loop_
_space_group_symop_operation_xyz
x,y,z
-x,-y,z
x,-y,-z
-x,y,-z
-x,-y,-z
x,y,-z
-x,y,z
x,-y,z
1/2+x,1/2+y,1/2+z
1/2-x,1/2-y,1/2+z
1/2+x,1/2-y,1/2-z
1/2-x,1/2+y,1/2-z
1/2-x,1/2-y,1/2-z
1/2+x,1/2+y,1/2-z
1/2-x,1/2+y,1/2+z
1/2+x,1/2-y,1/2+z
loop_
_atom_site_type_symbol
_atom_site_label
_atom_site_fract_x
_atom_site_fract_y
_atom_site_fract_z
Si Si1 0.698829 0.647054 0.417242
Si Si2 0.500000 0.938112 0.415140
Si Si3 0.305813 0.934932 0.201993
Si Si4 0.313448 0.380579 0.844888
Si Si5 0.698134 0.758546 0.668241
O O1 0.762492 0.646404 0.500000
O O2 0.500000 0.641387 0.412816
O O3 0.779834 0.593437 0.376405
O O4 0.758169 0.705575 0.380097
O O5 0.500000 0.941690 0.500000
O O6 0.671790 0.909139 0.392523
O O7 0.500000 0.000000 0.378805
O O8 0.500000 0.932821 0.224504
O O9 0.204068 0.898136 0.260653
O O10 0.241567 0.000000 0.199412
O O11 0.500000 0.398973 0.870747
O O12 0.296692 0.313727 0.858159
O O13 0.500000 0.768986 0.661061
O O14 0.750000 0.750000 0.750000
#
# Coordination Sequence:
#
# PCOD8292192 Si02
#       5
#    16   8  16  16  16
#     4  10  23  41  62  92 130 174 221 272 333 395
#     4  11  26  48  70  98 137 175 216 276 341 394
#     4  11  23  40  64  94 129 172 222 272 327 392
#     4  12  24  42  70 101 131 174 226 272 328 400
#     4  11  21  38  64  97 130 169 219 274 331 394
#
# _framework density 20.788326000000001
#
# number of rings (size 3 to 8) (size 9 to 14) (size 15 to 20)
#    0.000    1.000    4.444    2.000    0.000    6.222 
#    0.000    3.333    0.000    0.000    0.000    0.000 
#    0.000    0.000    0.000    0.000    0.000    0.000 
#
# Total GULP energy -446495.240380 kJ/mol
# GULP energy per Si atom -12402.645566 kJ/mol
# Density = 2.074101 g / cm^3
# Si number density = 20.788326 Si / 1000 Ang^3
#
#
#
# Elastic Constant Matrix: (Units=GPa)
#
#
# Indices 1 2 3 4 5 6 
#
# 1 116.2700 37.8182 24.1773 0.0001 0.0000 0.0000
# 2 37.8182 146.3229 37.6636 0.0001 0.0000 0.0000
# 3 24.1773 37.6636 85.1521 0.0002 0.0000 0.0000
# 4 0.0001 0.0001 0.0002 33.0102 0.0000 0.0000
# 5 0.0000 0.0000 0.0000 0.0000 26.9292 0.0000
# 6 0.0000 0.0000 0.0000 0.0000 0.0000 25.5747
#
#
#
# Elastic Compliance Matrix: (Units=1/GPa)
#
#
# Indices 1 2 3 4 5 6 
#
# 1 0.009640 -0.002017 -0.001845 0.000000 0.000000 0.000000
# 2 -0.002017 0.008134 -0.003025 0.000000 0.000000 0.000000
# 3 -0.001845 -0.003025 0.013606 0.000000 0.000000 0.000000
# 4 0.000000 0.000000 0.000000 0.030294 0.000000 0.000000
# 5 0.000000 0.000000 0.000000 0.000000 0.037134 0.000000
# 6 0.000000 0.000000 0.000000 0.000000 0.000000 0.039101
#
#
# Mechanical properties :
#
#
# Convention : Reuss Voigt Hill
#
# Bulk Modulus (GPa) = 56.79888 60.78481 58.79185
# Shear Modulus (GPa) = 31.73557 33.64190 32.68873
#
# Velocity S-wave (km/s) = 3.91142 4.02718 3.96972
# Velocity P-wave (km/s) = 6.91236 7.13636 7.02525
#
# Compressibility (1/GPa) = 0.01760598
#
# Stress axis : x y z
#
# Youngs Moduli (GPa) = 103.73123 122.93912 73.49872
#
# Poissons Ratio (x) = 0.24792 0.13562
# Poissons Ratio (y) = 0.20919 0.22235
# Poissons Ratio (z) = 0.19140 0.37192
#
# Static dielectric constant tensor:
#      x y z
#    x 3.777060 0.000000 0.000000 
#    y 0.000000 7.171100 0.000010 
#    z 0.000000 0.000010 3.704800 
# 
# 
# High freq. dielectric constant tensor:
#      x y z
#    x 1.817480 0.000000 0.000000 
#    y 0.000000 1.827260 0.000000 
#    z 0.000000 0.000000 1.805100 
# 
# From -- ./inp_files/42083.got.cif
#   From: 2010.06.25/outbox.cif.g09.slc.cpg/sg71_22_cif.got.tgz:42083.got - 2010.06.28 04:59:45.
