data_PCOD8292190
_publ_section_title
;
Structure prediction by ZEFSAII (Michael W. Deem and Ramdas Pophale) SiO2 
 PCOD8292190
Probable space group: I M M M
;
_chemical_formula_sum "Si O2"
_cell_formula_units_Z 104
_cell_length_a 9.221722
_cell_length_b 28.344218
_cell_length_c 19.917501
_cell_angle_alpha 90.000000
_cell_angle_beta 90.000000
_cell_angle_gamma 90.000000
_cell_volume 5206.086179
_symmetry_space_group_name_H-M "I M M M"
_symmetry_group_IT_number 71
_symmetry_cell_setting 'orthorhombic'
loop_
_space_group_symop_operation_xyz
x,y,z
-x,-y,z
x,-y,-z
-x,y,-z
-x,-y,-z
x,y,-z
-x,y,z
x,-y,z
1/2+x,1/2+y,1/2+z
1/2-x,1/2-y,1/2+z
1/2+x,1/2-y,1/2-z
1/2-x,1/2+y,1/2-z
1/2-x,1/2-y,1/2-z
1/2+x,1/2+y,1/2-z
1/2-x,1/2+y,1/2+z
1/2+x,1/2-y,1/2+z
loop_
_atom_site_type_symbol
_atom_site_label
_atom_site_fract_x
_atom_site_fract_y
_atom_site_fract_z
Si Si1 0.662923 0.117969 0.787226
Si Si2 0.327974 0.444524 0.814753
Si Si3 0.837574 0.413290 0.573003
Si Si4 0.169177 0.380527 0.077707
Si Si5 0.669859 0.222088 0.805881
Si Si6 0.330476 0.772045 0.577825
Si Si7 0.342525 0.500000 0.579609
O O1 0.500000 0.102786 0.766024
O O2 0.771247 0.080706 0.753184
O O3 0.673875 0.124570 0.868576
O O4 0.698265 0.171438 0.770960
O O5 0.500000 0.439119 0.817706
O O6 0.283621 0.500000 0.815078
O O7 0.260150 0.417497 0.878357
O O8 0.781963 0.394459 0.500000
O O9 0.741184 0.454546 0.603942
O O10 0.000000 0.432665 0.564466
O O11 0.212224 0.326427 0.095015
O O12 0.000000 0.388188 0.093374
O O13 0.202790 0.391278 0.000000
O O14 0.500000 0.233147 0.811736
O O15 0.750000 0.250000 0.750000
O O16 0.740622 0.234505 0.877981
O O17 0.294929 0.761649 0.500000
O O18 0.500000 0.764509 0.592210
O O19 0.500000 0.500000 0.613774
O O20 0.352310 0.500000 0.500000
#
# Coordination Sequence:
#
# PCOD8292190 Si02
#       7
#    16  16  16  16  16  16   8
#     4  10  23  40  58  81 110 150 195 239 285 337
#     4  11  25  41  57  83 118 153 191 241 296 347
#     4   9  18  34  55  77 102 136 181 229 273 319
#     4   9  19  38  64  91 118 151 192 234 277 338
#     4  11  23  38  58  85 116 151 193 239 287 343
#     4   9  19  37  61  90 123 155 189 234 288 346
#     4   9  17  29  47  73 103 133 166 209 262 317
#
# _framework density 19.976617999999998
#
# number of rings (size 3 to 8) (size 9 to 14) (size 15 to 20)
#    0.000    2.231    0.000    3.000    1.077    9.846 
#    0.000    4.615    0.000    1.846    0.000    0.000 
#    0.000    0.000    0.000    0.000    0.000    0.000 
#
# Total GULP energy -644192.315770 kJ/mol
# GULP energy per Si atom -12388.313765 kJ/mol
# Density = 1.993115 g / cm^3
# Si number density = 19.976618 Si / 1000 Ang^3
#
#
#
# Elastic Constant Matrix: (Units=GPa)
#
#
# Indices 1 2 3 4 5 6 
#
# 1 90.0958 37.9893 41.2870 0.0000 0.0000 0.0000
# 2 37.9893 60.5827 34.8640 0.0001 0.0000 0.0000
# 3 41.2870 34.8640 111.8483 0.0005 0.0000 0.0000
# 4 0.0000 0.0001 0.0005 30.4743 0.0000 0.0000
# 5 0.0000 0.0000 0.0000 0.0000 33.8268 0.0000
# 6 0.0000 0.0000 0.0000 0.0000 0.0000 32.0967
#
#
#
# Elastic Compliance Matrix: (Units=1/GPa)
#
#
# Indices 1 2 3 4 5 6 
#
# 1 0.016087 -0.008128 -0.003405 0.000000 0.000000 0.000000
# 2 -0.008128 0.024222 -0.004550 0.000000 0.000000 0.000000
# 3 -0.003405 -0.004550 0.011616 0.000000 0.000000 0.000000
# 4 0.000000 0.000000 0.000000 0.032815 0.000000 0.000000
# 5 0.000000 0.000000 0.000000 0.000000 0.029562 0.000000
# 6 0.000000 0.000000 0.000000 0.000000 0.000000 0.031156
#
#
# Mechanical properties :
#
#
# Convention : Reuss Voigt Hill
#
# Bulk Modulus (GPa) = 50.60972 54.53417 52.57194
# Shear Modulus (GPa) = 27.14326 29.17198 28.15762
#
# Velocity S-wave (km/s) = 3.69012 3.82554 3.75844
# Velocity P-wave (km/s) = 6.59890 6.84626 6.72372
#
# Compressibility (1/GPa) = 0.01975905
#
# Stress axis : x y z
#
# Youngs Moduli (GPa) = 62.16292 41.28559 86.09135
#
# Poissons Ratio (x) = 0.33558 0.29310
# Poissons Ratio (y) = 0.50527 0.39168
# Poissons Ratio (z) = 0.21164 0.18783
#
# Static dielectric constant tensor:
#      x y z
#    x 3.728250 0.000000 0.000000 
#    y 0.000000 2.385720 0.000010 
#    z 0.000000 0.000010 3.525290 
# 
# 
# High freq. dielectric constant tensor:
#      x y z
#    x 1.774900 0.000000 0.000000 
#    y 0.000000 1.772150 0.000000 
#    z 0.000000 0.000000 1.794340 
# 
# From -- ./inp_files/14996.got.cif
#   From: 2010.06.25/outbox.cif.g09.slc.cpg/sg71_8_cif.got.tgz:14996.got - 2010.06.28 04:59:45.
