data_PCOD8292027
_publ_section_title
;
Structure prediction by ZEFSAII (Michael W. Deem and Ramdas Pophale) SiO2 
 PCOD8292027
Probable space group: I M M M
;
_chemical_formula_sum "Si O2"
_cell_formula_units_Z 96
_cell_length_a 14.160118
_cell_length_b 27.301027
_cell_length_c 13.124255
_cell_angle_alpha 90.000000
_cell_angle_beta 90.000000
_cell_angle_gamma 90.000000
_cell_volume 5073.650144
_symmetry_space_group_name_H-M "I M M M"
_symmetry_group_IT_number 71
_symmetry_cell_setting 'orthorhombic'
loop_
_space_group_symop_operation_xyz
x,y,z
-x,-y,z
x,-y,-z
-x,y,-z
-x,-y,-z
x,y,-z
-x,y,z
x,-y,z
1/2+x,1/2+y,1/2+z
1/2-x,1/2-y,1/2+z
1/2+x,1/2-y,1/2-z
1/2-x,1/2+y,1/2-z
1/2-x,1/2-y,1/2-z
1/2+x,1/2+y,1/2-z
1/2-x,1/2+y,1/2+z
1/2+x,1/2-y,1/2+z
loop_
_atom_site_type_symbol
_atom_site_label
_atom_site_fract_x
_atom_site_fract_y
_atom_site_fract_z
Si Si1 0.890418 0.095639 0.261735
Si Si2 0.300388 0.892953 0.191001
Si Si3 0.608186 0.056796 0.000000
Si Si4 0.108686 0.298314 0.379250
Si Si5 0.390132 0.500000 0.110865
Si Si6 0.610766 0.056491 0.616635
Si Si7 0.110925 0.190653 0.389449
O O1 0.812421 0.097006 0.172353
O O2 0.863277 0.049043 0.329826
O O3 0.863446 0.145461 0.319018
O O4 0.000000 0.093996 0.223898
O O5 0.324737 0.835646 0.181710
O O6 0.331273 0.910744 0.303401
O O7 0.350998 0.922210 0.103019
O O8 0.500000 0.071226 0.000000
O O9 0.627898 0.000000 0.000000
O O10 0.121419 0.305668 0.500000
O O11 0.142666 0.243695 0.346000
O O12 0.000000 0.307756 0.348198
O O13 0.500000 0.500000 0.091663
O O14 0.339056 0.500000 0.000000
O O15 0.632594 0.072941 0.500000
O O16 0.500000 0.062481 0.639597
O O17 0.641371 0.000000 0.631744
O O18 0.158164 0.181660 0.500000
O O19 0.000000 0.193439 0.404788
#
# Coordination Sequence:
#
# PCOD8292027 Si02
#       7
#    16  16   8  16   8  16  16
#     4  10  22  36  51  78 114 150 190 233 277 335
#     4  12  22  34  58  83 113 148 190 237 283 335
#     4  11  24  40  61  87 113 141 188 247 294 334
#     4   9  17  32  56  85 111 138 182 243 294 333
#     4   9  18  34  56  77 103 142 188 239 280 310
#     4   9  19  35  53  77 113 151 182 218 278 355
#     4   8  15  31  55  80 110 147 187 234 287 332
#
# _framework density 18.921289999999999
#
# number of rings (size 3 to 8) (size 9 to 14) (size 15 to 20)
#    0.000    2.333    0.833    4.000    2.333    5.333 
#    0.000    0.417    0.000    0.500    0.000    0.000 
#    0.000    0.000    0.000    0.000    0.000    0.000 
#
# Total GULP energy -594787.253783 kJ/mol
# GULP energy per Si atom -12391.401120 kJ/mol
# Density = 1.887822 g / cm^3
# Si number density = 18.921290 Si / 1000 Ang^3
#
#
#
# Elastic Constant Matrix: (Units=GPa)
#
#
# Indices 1 2 3 4 5 6 
#
# 1 110.5945 45.1072 50.7108 0.0001 0.0000 0.0000
# 2 45.1072 140.1915 43.6360 -0.0001 -0.0001 0.0000
# 3 50.7108 43.6360 81.3912 -0.0009 -0.0003 -0.0001
# 4 0.0001 -0.0001 -0.0009 42.3173 -0.0001 -0.0001
# 5 0.0000 -0.0001 -0.0003 -0.0001 23.4737 0.0001
# 6 0.0000 0.0000 -0.0001 -0.0001 0.0001 -7.5728
#
#
#
# Elastic Compliance Matrix: (Units=1/GPa)
#
#
# Indices 1 2 3 4 5 6 
#
# 1 0.013115 -0.002012 -0.007092 0.000000 0.000000 0.000000
# 2 -0.002012 0.008871 -0.003502 0.000000 0.000000 0.000000
# 3 -0.007092 -0.003502 0.018583 0.000000 0.000000 0.000000
# 4 0.000000 0.000000 0.000000 0.023631 0.000000 0.000000
# 5 0.000000 0.000000 0.000000 0.000000 0.042601 0.000001
# 6 0.000000 0.000000 0.000000 0.000000 0.000001 -0.132051
#
#
# Mechanical properties :
#
#
# Convention : Reuss Voigt Hill
#
# Bulk Modulus (GPa) = 65.12575 67.89838 66.51206
# Shear Modulus (GPa) = 984.06551 24.49183 504.27867
#
# Velocity S-wave (km/s) = 22.83009 3.60169 16.34296
# Velocity P-wave (km/s) = 27.00823 7.29786 19.78261
#
# Compressibility (1/GPa) = 0.01535491
#
# Stress axis : x y z
#
# Youngs Moduli (GPa) = 76.24975 112.73222 53.81313
#
# Poissons Ratio (x) = 0.22684 0.38166
# Poissons Ratio (y) = 0.15343 0.18846
# Poissons Ratio (z) = 0.54079 0.39480
#
# Static dielectric constant tensor:
#      x y z
#    x 3.420470 0.000000 0.000000 
#    y 0.000000 4.116620 0.000000 
#    z 0.000000 0.000000 3.170630 
# 
# 
# High freq. dielectric constant tensor:
#      x y z
#    x 1.728020 0.000000 0.000000 
#    y 0.000000 1.750560 0.000000 
#    z 0.000000 0.000000 1.706950 
# 
# From -- ./inp_files/22604.got.cif
#   From: 2010.06.25/outbox.cif.g09.slc.cpg/sg71_12_cif.got.tgz:22604.got - 2010.06.28 04:59:45.
