data_PCOD8292191
_publ_section_title
;
Structure prediction by ZEFSAII (Michael W. Deem and Ramdas Pophale) SiO2 
 PCOD8292191
Probable space group: I M M M
;
_chemical_formula_sum "Si O2"
_cell_formula_units_Z 88
_cell_length_a 8.957560
_cell_length_b 20.022879
_cell_length_c 24.175906
_cell_angle_alpha 90.000000
_cell_angle_beta 90.000000
_cell_angle_gamma 90.000000
_cell_volume 4336.097182
_symmetry_space_group_name_H-M "I M M M"
_symmetry_group_IT_number 71
_symmetry_cell_setting 'orthorhombic'
loop_
_space_group_symop_operation_xyz
x,y,z
-x,-y,z
x,-y,-z
-x,y,-z
-x,-y,-z
x,y,-z
-x,y,z
x,-y,z
1/2+x,1/2+y,1/2+z
1/2-x,1/2-y,1/2+z
1/2+x,1/2-y,1/2-z
1/2-x,1/2+y,1/2-z
1/2-x,1/2-y,1/2-z
1/2+x,1/2+y,1/2-z
1/2-x,1/2+y,1/2+z
1/2+x,1/2-y,1/2+z
loop_
_atom_site_type_symbol
_atom_site_label
_atom_site_fract_x
_atom_site_fract_y
_atom_site_fract_z
Si Si1 0.667155 0.266728 0.936477
Si Si2 0.822924 0.500000 0.936641
Si Si3 0.821729 0.822797 0.742429
Si Si4 0.825930 0.612848 0.439206
Si Si5 0.174868 0.371322 0.867626
Si Si6 0.671075 0.426649 0.332673
O O1 0.500000 0.281284 0.913096
O O2 0.708458 0.190089 0.928319
O O3 0.794048 0.306707 0.904546
O O4 0.672908 0.287873 0.000000
O O5 0.767529 0.564406 0.902112
O O6 0.000000 0.500000 0.940551
O O7 0.758282 0.500000 0.000000
O O8 0.750000 0.750000 0.750000
O O9 0.766444 0.862316 0.688582
O O10 0.764896 0.868934 0.793019
O O11 0.000000 0.815672 0.740399
O O12 0.764603 0.592198 0.500000
O O13 0.749819 0.570187 0.391843
O O14 0.000000 0.598488 0.437198
O O15 0.000000 0.376315 0.854000
O O16 0.500000 0.411018 0.343966
O O17 0.692858 0.500000 0.305071
#
# Coordination Sequence:
#
# PCOD8292191 Si02
#       6
#    16   8  16  16  16  16
#     4   9  18  34  56  83 116 152 193 243 295 347
#     4   9  20  38  57  83 123 165 204 251 304 363
#     4  11  24  42  64  88 118 154 198 252 305 362
#     4   9  19  36  58  85 116 149 186 231 285 343
#     4  11  22  36  58  86 117 156 202 249 301 361
#     4  10  23  41  59  82 114 152 191 234 286 343
#
# _framework density 20.294747999999998
#
# number of rings (size 3 to 8) (size 9 to 14) (size 15 to 20)
#    0.000    2.091    0.000    3.818    1.273    7.273 
#    0.000    5.000    0.000    3.273    0.000    0.000 
#    0.000    0.000    0.000    0.000    0.000    0.000 
#
# Total GULP energy -545502.345225 kJ/mol
# GULP energy per Si atom -12397.780573 kJ/mol
# Density = 2.024856 g / cm^3
# Si number density = 20.294748 Si / 1000 Ang^3
#
#
#
# Elastic Constant Matrix: (Units=GPa)
#
#
# Indices 1 2 3 4 5 6 
#
# 1 53.5768 39.9881 36.5632 0.0000 0.0000 0.0000
# 2 39.9881 106.9729 72.5056 0.0000 0.0000 0.0000
# 3 36.5632 72.5056 134.6517 0.0000 0.0000 0.0000
# 4 0.0000 0.0000 0.0000 37.6465 0.0000 0.0000
# 5 0.0000 0.0000 0.0000 0.0000 35.9009 0.0000
# 6 0.0000 0.0000 0.0000 0.0000 0.0000 27.9588
#
#
#
# Elastic Compliance Matrix: (Units=1/GPa)
#
#
# Indices 1 2 3 4 5 6 
#
# 1 0.026608 -0.007951 -0.002944 0.000000 0.000000 0.000000
# 2 -0.007951 0.017097 -0.007047 0.000000 0.000000 0.000000
# 3 -0.002944 -0.007047 0.012020 0.000000 0.000000 0.000000
# 4 0.000000 0.000000 0.000000 0.026563 0.000000 0.000000
# 5 0.000000 0.000000 0.000000 0.000000 0.027854 0.000000
# 6 0.000000 0.000000 0.000000 0.000000 0.000000 0.035767
#
#
# Mechanical properties :
#
#
# Convention : Reuss Voigt Hill
#
# Bulk Modulus (GPa) = 50.39912 65.92391 58.16152
# Shear Modulus (GPa) = 26.53812 30.04418 28.29115
#
# Velocity S-wave (km/s) = 3.62005 3.85176 3.73770
# Velocity P-wave (km/s) = 6.50849 7.23430 6.88098
#
# Compressibility (1/GPa) = 0.01984161
#
# Stress axis : x y z
#
# Youngs Moduli (GPa) = 37.58219 58.48989 83.19133
#
# Poissons Ratio (x) = 0.46508 0.24488
# Poissons Ratio (y) = 0.29883 0.58625
# Poissons Ratio (z) = 0.11063 0.41218
#
# Static dielectric constant tensor:
#      x y z
#    x 3.471340 0.000000 0.000000 
#    y 0.000000 3.760580 0.000000 
#    z 0.000000 0.000000 3.968440 
# 
# 
# High freq. dielectric constant tensor:
#      x y z
#    x 1.776150 0.000000 0.000000 
#    y 0.000000 1.801500 0.000000 
#    z 0.000000 0.000000 1.802080 
# 
# From -- ./inp_files/50517.got.cif
#   From: 2010.06.25/outbox.cif.g09.slc.cpg/sg71_26_cif.got.tgz:50517.got - 2010.06.28 04:59:45.
