data_PCOD8292033
_publ_section_title
;
Structure prediction by ZEFSAII (Michael W. Deem and Ramdas Pophale) SiO2 
 PCOD8292033
Probable space group: I M M M
;
_chemical_formula_sum "Si O2"
_cell_formula_units_Z 64
_cell_length_a 8.232298
_cell_length_b 25.854372
_cell_length_c 14.778150
_cell_angle_alpha 90.000000
_cell_angle_beta 90.000000
_cell_angle_gamma 90.000000
_cell_volume 3145.394671
_symmetry_space_group_name_H-M "I M M M"
_symmetry_group_IT_number 71
_symmetry_cell_setting 'orthorhombic'
loop_
_space_group_symop_operation_xyz
x,y,z
-x,-y,z
x,-y,-z
-x,y,-z
-x,-y,-z
x,y,-z
-x,y,z
x,-y,z
1/2+x,1/2+y,1/2+z
1/2-x,1/2-y,1/2+z
1/2+x,1/2-y,1/2-z
1/2-x,1/2+y,1/2-z
1/2-x,1/2-y,1/2-z
1/2+x,1/2+y,1/2-z
1/2-x,1/2+y,1/2+z
1/2+x,1/2-y,1/2+z
loop_
_atom_site_type_symbol
_atom_site_label
_atom_site_fract_x
_atom_site_fract_y
_atom_site_fract_z
Si Si1 0.818373 0.117101 0.604480
Si Si2 0.192019 0.109658 0.102077
Si Si3 0.500000 0.943359 0.607344
Si Si4 0.316237 0.000000 0.892871
Si Si5 0.681801 0.693378 0.259476
O O1 0.793683 0.131266 0.500000
O O2 0.669193 0.082165 0.640022
O O3 0.807475 0.170023 0.659322
O O4 0.000000 0.091713 0.619684
O O5 0.235605 0.053124 0.143255
O O6 0.267123 0.154797 0.166919
O O7 0.000000 0.113494 0.101473
O O8 0.262250 0.116753 0.000000
O O9 0.500000 0.945856 0.500000
O O10 0.500000 0.000000 0.650819
O O11 0.500000 0.000000 0.859640
O O12 0.297393 0.000000 0.000000
O O13 0.500000 0.699660 0.293795
O O14 0.750000 0.750000 0.250000
#
# Coordination Sequence:
#
# PCOD8292033 Si02
#       5
#    16  16   8   8  16
#     4   9  19  37  57  79 112 148 183 226 276 328
#     4   9  18  35  56  78 107 143 180 218 266 324
#     4   9  18  34  58  86 111 143 187 226 271 332
#     4   9  17  31  53  81 110 139 174 218 268 320
#     4  10  22  37  54  79 108 141 185 230 275 328
#
# _framework density 20.347207999999998
#
# number of rings (size 3 to 8) (size 9 to 14) (size 15 to 20)
#    0.000    2.750    0.000    0.375    1.750    4.000 
#    2.250    2.500    0.000    0.000    0.000    0.000 
#    0.000    0.000    0.000    0.000    0.000    0.000 
#
# Total GULP energy -396427.045857 kJ/mol
# GULP energy per Si atom -12388.345183 kJ/mol
# Density = 2.030090 g / cm^3
# Si number density = 20.347208 Si / 1000 Ang^3
#
#
#
# Elastic Constant Matrix: (Units=GPa)
#
#
# Indices 1 2 3 4 5 6 
#
# 1 108.0911 63.3708 27.8097 0.0000 0.0000 0.0000
# 2 63.3708 193.6715 63.6052 0.0001 0.0000 0.0000
# 3 27.8097 63.6052 77.9555 0.0003 -0.0001 0.0000
# 4 0.0000 0.0001 0.0003 30.0980 0.0000 0.0000
# 5 0.0000 0.0000 -0.0001 0.0000 14.2617 0.0000
# 6 0.0000 0.0000 0.0000 0.0000 0.0000 33.9245
#
#
#
# Elastic Compliance Matrix: (Units=1/GPa)
#
#
# Indices 1 2 3 4 5 6 
#
# 1 0.011561 -0.003317 -0.001418 0.000000 0.000000 0.000000
# 2 -0.003317 0.008005 -0.005348 0.000000 0.000000 0.000000
# 3 -0.001418 -0.005348 0.017697 0.000000 0.000000 0.000000
# 4 0.000000 0.000000 0.000000 0.033225 0.000000 0.000000
# 5 0.000000 0.000000 0.000000 0.000000 0.070118 0.000000
# 6 0.000000 0.000000 0.000000 0.000000 0.000000 0.029477
#
#
# Mechanical properties :
#
#
# Convention : Reuss Voigt Hill
#
# Bulk Modulus (GPa) = 58.48888 76.58773 67.53830
# Shear Modulus (GPa) = 25.51688 30.65233 28.08461
#
# Velocity S-wave (km/s) = 3.54513 3.88553 3.71923
# Velocity P-wave (km/s) = 6.75019 7.60604 7.19086
#
# Compressibility (1/GPa) = 0.01709727
#
# Stress axis : x y z
#
# Youngs Moduli (GPa) = 86.49763 124.91751 56.50583
#
# Poissons Ratio (x) = 0.41439 0.08010
# Poissons Ratio (y) = 0.28694 0.30221
# Poissons Ratio (z) = 0.12262 0.66809
#
# Static dielectric constant tensor:
#      x y z
#    x 3.882650 0.000000 0.000000 
#    y 0.000000 4.293410 -0.000030 
#    z 0.000000 -0.000030 5.647590 
# 
# 
# High freq. dielectric constant tensor:
#      x y z
#    x 1.791420 0.000000 0.000000 
#    y 0.000000 1.784480 0.000000 
#    z 0.000000 0.000000 1.790770 
# 
# From -- ./inp_files/31193.got.cif
#   From: 2010.06.25/outbox.cif.g09.slc.cpg/sg71_16_cif.got.tgz:31193.got - 2010.06.28 04:59:45.
