data_PCOD8292756
_publ_section_title
;
Structure prediction by ZEFSAII (Michael W. Deem and Ramdas Pophale) SiO2 
 PCOD8292756
Probable space group: I M M M
;
_chemical_formula_sum "Si O2"
_cell_formula_units_Z 104
_cell_length_a 20.205340
_cell_length_b 29.950561
_cell_length_c 9.951225
_cell_angle_alpha 90.000000
_cell_angle_beta 90.000000
_cell_angle_gamma 90.000000
_cell_volume 6022.095941
_symmetry_space_group_name_H-M "I M M M"
_symmetry_group_IT_number 71
_symmetry_cell_setting 'orthorhombic'
loop_
_space_group_symop_operation_xyz
x,y,z
-x,-y,z
x,-y,-z
-x,y,-z
-x,-y,-z
x,y,-z
-x,y,z
x,-y,z
1/2+x,1/2+y,1/2+z
1/2-x,1/2-y,1/2+z
1/2+x,1/2-y,1/2-z
1/2-x,1/2+y,1/2-z
1/2-x,1/2-y,1/2-z
1/2+x,1/2+y,1/2-z
1/2-x,1/2+y,1/2+z
1/2+x,1/2-y,1/2+z
loop_
_atom_site_type_symbol
_atom_site_label
_atom_site_fract_x
_atom_site_fract_y
_atom_site_fract_z
Si Si1 0.165898 0.950170 0.235052
Si Si2 0.575785 0.290699 0.158454
Si Si3 0.314641 0.049908 0.848322
Si Si4 0.427273 0.552803 0.500000
Si Si5 0.576132 0.791396 0.347021
Si Si6 0.181604 0.860009 0.350124
Si Si7 0.173068 0.628587 0.841720
O O1 0.235425 0.950393 0.159181
O O2 0.111008 0.932135 0.132409
O O3 0.164350 0.912911 0.351061
O O4 0.150169 0.000000 0.292326
O O5 0.500000 0.305014 0.188444
O O6 0.595287 0.247028 0.242618
O O7 0.624265 0.329577 0.216359
O O8 0.584824 0.280794 0.000000
O O9 0.346376 0.084103 0.741207
O O10 0.341180 0.000000 0.815368
O O11 0.334874 0.063703 0.000000
O O12 0.431471 0.500000 0.500000
O O13 0.500000 0.574769 0.500000
O O14 0.591023 0.775606 0.500000
O O15 0.500000 0.805370 0.331007
O O16 0.618832 0.834497 0.309594
O O17 0.184598 0.842491 0.500000
O O18 0.255281 0.853418 0.288376
O O19 0.176329 0.616305 0.000000
#
# Coordination Sequence:
#
# PCOD8292756 Si02
#       7
#    16  16  16   8  16  16  16
#     4   9  16  28  44  62  89 122 157 194 232 272
#     4   9  18  33  50  66  90 125 158 189 232 285
#     4   9  16  28  47  69  96 127 156 190 229 271
#     4   9  16  26  40  58  82 114 153 195 231 263
#     4   9  18  34  53  71  93 120 153 193 235 282
#     4   9  18  31  46  67  95 121 152 193 235 279
#     4   9  18  31  48  72  98 123 153 193 237 277
#
# _framework density 17.269735000000001
#
# number of rings (size 3 to 8) (size 9 to 14) (size 15 to 20)
#    0.000    3.000    0.769    0.000    0.000    2.462 
#    1.385    3.077    0.000    0.462    0.000    7.538 
#    0.000    0.000    0.000    0.000    0.000    0.000 
#
# Total GULP energy -644330.889668 kJ/mol
# GULP energy per Si atom -12390.978647 kJ/mol
# Density = 1.723043 g / cm^3
# Si number density = 17.269735 Si / 1000 Ang^3
#
#
#
# Elastic Constant Matrix: (Units=GPa)
#
#
# Indices 1 2 3 4 5 6 
#
# 1 66.2525 59.6528 26.6756 0.0000 0.0000 0.0000
# 2 59.6528 130.0736 54.2706 0.0000 0.0000 0.0000
# 3 26.6756 54.2706 58.2588 0.0000 0.0000 0.0000
# 4 0.0000 0.0000 0.0000 30.7000 0.0000 0.0000
# 5 0.0000 0.0000 0.0000 0.0000 19.0805 0.0000
# 6 0.0000 0.0000 0.0000 0.0000 0.0000 23.3986
#
#
#
# Elastic Compliance Matrix: (Units=1/GPa)
#
#
# Indices 1 2 3 4 5 6 
#
# 1 0.025769 -0.011279 -0.001293 0.000000 0.000000 0.000000
# 2 -0.011279 0.017512 -0.011149 0.000000 0.000000 0.000000
# 3 -0.001293 -0.011149 0.028143 0.000000 0.000000 0.000000
# 4 0.000000 0.000000 0.000000 0.032573 0.000000 0.000000
# 5 0.000000 0.000000 0.000000 0.000000 0.052409 0.000000
# 6 0.000000 0.000000 0.000000 0.000000 0.000000 0.042738
#
#
# Mechanical properties :
#
#
# Convention : Reuss Voigt Hill
#
# Bulk Modulus (GPa) = 41.69585 59.53143 50.61364
# Shear Modulus (GPa) = 19.64019 22.23487 20.93753
#
# Velocity S-wave (km/s) = 3.37599 3.59207 3.48571
# Velocity P-wave (km/s) = 6.27636 7.19377 6.75067
#
# Compressibility (1/GPa) = 0.02398320
#
# Stress axis : x y z
#
# Youngs Moduli (GPa) = 38.80561 57.10306 35.53340
#
# Poissons Ratio (x) = 0.64405 0.04593
# Poissons Ratio (y) = 0.43768 0.39616
# Poissons Ratio (z) = 0.05016 0.63665
#
# Static dielectric constant tensor:
#      x y z
#    x 3.272320 0.000000 0.000000 
#    y 0.000000 3.204500 0.000000 
#    z 0.000000 0.000000 3.090780 
# 
# 
# High freq. dielectric constant tensor:
#      x y z
#    x 1.652980 0.000000 0.000000 
#    y 0.000000 1.658600 0.000000 
#    z 0.000000 0.000000 1.653500 
# 
# From -- ./inp_files/13330.got.cif
#   From: 2010.06.25/outbox.cif.g09.slc.cpg/sg71_7_cif.got.tgz:13330.got - 2010.06.28 04:59:45.
