data_PCOD8292800
_publ_section_title
;
Structure prediction by ZEFSAII (Michael W. Deem and Ramdas Pophale) SiO2 
 PCOD8292800
Probable space group: I M M M
;
_chemical_formula_sum "Si O2"
_cell_formula_units_Z 52
_cell_length_a 27.000000
_cell_length_b 12.000000
_cell_length_c 18.000000
_cell_angle_alpha 90.000000
_cell_angle_beta 90.000000
_cell_angle_gamma 90.000000
_cell_volume 5832.000000
_symmetry_space_group_name_H-M "I M M M"
_symmetry_group_IT_number 71
_symmetry_cell_setting 'orthorhombic'
loop_
_space_group_symop_operation_xyz
x,y,z
-x,-y,z
x,-y,-z
-x,y,-z
-x,-y,-z
x,y,-z
-x,y,z
x,-y,z
1/2+x,1/2+y,1/2+z
1/2-x,1/2-y,1/2+z
1/2+x,1/2-y,1/2-z
1/2-x,1/2+y,1/2-z
1/2-x,1/2-y,1/2-z
1/2+x,1/2+y,1/2-z
1/2-x,1/2+y,1/2+z
1/2+x,1/2-y,1/2+z
loop_
_atom_site_type_symbol
_atom_site_label
_atom_site_fract_x
_atom_site_fract_y
_atom_site_fract_z
Si Si1 0.098543 0.209140 0.850518
Si Si2 0.727660 0.241721 0.910898
Si Si3 0.443134 0.629396 0.205056
Si Si4 0.000000 0.124506 0.914554
Si Si5 0.366864 0.371543 0.916519
Si Si6 0.174704 0.370171 0.912548
Si Si7 0.762405 0.500000 0.419047
Si Si8 0.352732 0.500000 0.418510
O O1 0.086812 0.204602 0.763305
O O2 0.125866 0.324240 0.870796
O O3 0.134129 0.108723 0.872669
O O4 0.046967 0.197736 0.893194
O O5 0.679299 0.305434 0.881313
O O6 0.776727 0.305423 0.882483
O O7 0.723680 0.115571 0.877397
O O8 0.729547 0.239092 0.000000
O O9 0.500000 0.667812 0.200484
O O10 0.439322 0.500000 0.228183
O O11 0.417776 0.651884 0.126161
O O12 0.000000 0.000000 0.875517
O O13 0.000000 0.102189 0.000000
O O14 0.351453 0.500000 0.913176
O O15 0.377031 0.331714 0.000000
O O16 0.180666 0.500000 0.893688
O O17 0.167568 0.350048 0.000000
O O18 0.788679 0.500000 0.500000
O O19 0.704576 0.500000 0.432266
O O20 0.379501 0.500000 0.500000
#
# Coordination Sequence:
#
# PCOD8292800 Si02
#       8
#    16  16  16   8  16  16   8   8
#     4  12  20  32  49  73 106 136 173 216 260 304
#     4   9  16  29  51  79 107 134 168 211 255 301
#     4  10  20  35  53  77 105 135 167 214 274 313
#     4  11  20  28  45  73 100 130 173 219 257 295
#     4   9  18  33  55  80 105 134 169 205 251 319
#     4  10  20  33  51  74 105 145 182 211 244 295
#     4   9  16  26  47  80 110 135 165 210 260 295
#     4  11  18  27  48  77 107 137 170 211 252 294
#
# _framework density 8.9163239999999995
#
# number of rings (size 3 to 8) (size 9 to 14) (size 15 to 20)
#    0.000    1.923    3.846    1.846    0.000    2.154 
#    0.000    2.692    1.692    1.385    0.000    0.000 
#    0.000    3.077    0.000    0.000    0.000    0.000 
#
# Total GULP energy -644571.893876 kJ/mol
# GULP energy per Si atom -12395.613344 kJ/mol
# Density = 0.889603 g / cm^3
# Si number density = 8.916324 Si / 1000 Ang^3
#
#
#
# Elastic Constant Matrix: (Units=GPa)
#
#
# Indices 1 2 3 4 5 6 
#
# 1 93.3321 48.5224 44.6036 0.0000 0.0000 0.0000
# 2 48.5224 106.8007 31.4740 0.0000 0.0000 0.0000
# 3 44.6036 31.4740 56.4846 0.0000 0.0000 0.0000
# 4 0.0000 0.0000 0.0000 28.1021 0.0000 0.0000
# 5 0.0000 0.0000 0.0000 0.0000 39.7406 0.0000
# 6 0.0000 0.0000 0.0000 0.0000 0.0000 54.9773
#
#
#
# Elastic Compliance Matrix: (Units=1/GPa)
#
#
# Indices 1 2 3 4 5 6 
#
# 1 0.019292 -0.005115 -0.012384 0.000000 0.000000 0.000000
# 2 -0.005115 0.012559 -0.002959 0.000000 0.000000 0.000000
# 3 -0.012384 -0.002959 0.029132 0.000000 0.000000 0.000000
# 4 0.000000 0.000000 0.000000 0.035585 0.000000 0.000000
# 5 0.000000 0.000000 0.000000 0.000000 0.025163 0.000000
# 6 0.000000 0.000000 0.000000 0.000000 0.000000 0.018189
#
#
# Mechanical properties :
#
#
# Convention : Reuss Voigt Hill
#
# Bulk Modulus (GPa) = 49.83309 56.20193 53.01751
# Shear Modulus (GPa) = 26.66308 33.36516 30.01412
#
# Velocity S-wave (km/s) = 3.87096 4.33022 4.10701
# Velocity P-wave (km/s) = 6.92709 7.52235 7.23085
#
# Compressibility (1/GPa) = 0.02006699
#
# Stress axis : x y z
#
# Youngs Moduli (GPa) = 51.83448 79.62260 34.32691
#
# Poissons Ratio (x) = 0.40730 0.42510
# Poissons Ratio (y) = 0.26516 0.10156
# Poissons Ratio (z) = 0.64191 0.23558
#
# Static dielectric constant tensor:
#      x y z
#    x 3.308320 0.000000 0.000000 
#    y 0.000000 3.295260 0.000000 
#    z 0.000000 0.000000 3.029520 
# 
# 
# High freq. dielectric constant tensor:
#      x y z
#    x 1.690260 0.000000 0.000000 
#    y 0.000000 1.670200 0.000000 
#    z 0.000000 0.000000 1.656640 
# 
# From -- ./inp_files/30229.got.cif
#   From: 2010.06.25/outbox.ucp.g09.slc.cvg/sg71_16_cif.got.tgz:30229.got - 2010.06.28 16:23:14.
