data_PCOD8292606
_publ_section_title
;
Structure prediction by ZEFSAII (Michael W. Deem and Ramdas Pophale) SiO2 
 PCOD8292606
Probable space group: I M M M
;
_chemical_formula_sum "Si O2"
_cell_formula_units_Z 72
_cell_length_a 13.032809
_cell_length_b 9.714750
_cell_length_c 33.292652
_cell_angle_alpha 90.000000
_cell_angle_beta 90.000000
_cell_angle_gamma 90.000000
_cell_volume 4215.198691
_symmetry_space_group_name_H-M "I M M M"
_symmetry_group_IT_number 71
_symmetry_cell_setting 'orthorhombic'
loop_
_space_group_symop_operation_xyz
x,y,z
-x,-y,z
x,-y,-z
-x,y,-z
-x,-y,-z
x,y,-z
-x,y,z
x,-y,z
1/2+x,1/2+y,1/2+z
1/2-x,1/2-y,1/2+z
1/2+x,1/2-y,1/2-z
1/2-x,1/2+y,1/2-z
1/2-x,1/2-y,1/2-z
1/2+x,1/2+y,1/2-z
1/2-x,1/2+y,1/2+z
1/2+x,1/2-y,1/2+z
loop_
_atom_site_type_symbol
_atom_site_label
_atom_site_fract_x
_atom_site_fract_y
_atom_site_fract_z
Si Si1 0.788012 0.340293 0.691428
Si Si2 0.114473 0.663616 0.391499
Si Si3 0.382403 0.157684 0.276150
Si Si4 0.778904 0.835008 0.045203
Si Si5 0.500000 0.650253 0.547564
O O1 0.758020 0.500000 0.687869
O O2 0.848437 0.288403 0.652300
O O3 0.683354 0.254704 0.694919
O O4 0.860411 0.310857 0.729455
O O5 0.112576 0.500000 0.393778
O O6 0.191473 0.723546 0.425243
O O7 0.000000 0.722050 0.399269
O O8 0.500000 0.191008 0.285012
O O9 0.355173 0.000000 0.285995
O O10 0.891684 0.775684 0.059235
O O11 0.783858 0.000000 0.046610
O O12 0.752453 0.785716 0.000000
O O13 0.500000 0.500000 0.568181
O O14 0.500000 0.631979 0.500000
#
# Coordination Sequence:
#
# PCOD8292606 Si02
#       5
#    16  16  16  16   8
#     4   9  17  29  44  64  88 114 144 179 218 260
#     4   9  16  25  37  55  81 113 146 178 215 259
#     4   9  17  30  47  63  83 115 149 180 218 263
#     4   8  13  21  33  50  74 108 145 175 207 252
#     4   7  10  18  30  42  62  96 135 169 203 245
#
# _framework density 17.081045
#
# number of rings (size 3 to 8) (size 9 to 14) (size 15 to 20)
#    0.000    3.444    0.000    2.000    0.000    3.556 
#    2.000    2.222    0.000    2.000    0.000    0.000 
#    0.000    0.889    0.000    4.444    0.000    4.000 
#
# Total GULP energy -446085.024489 kJ/mol
# GULP energy per Si atom -12391.250680 kJ/mol
# Density = 1.704217 g / cm^3
# Si number density = 17.081045 Si / 1000 Ang^3
#
#
#
# Elastic Constant Matrix: (Units=GPa)
#
#
# Indices 1 2 3 4 5 6 
#
# 1 173.1605 30.1558 75.4744 0.0000 0.0000 0.0000
# 2 30.1558 21.0409 13.2156 0.0000 0.0000 0.0000
# 3 75.4744 13.2156 87.8199 0.0000 0.0000 0.0000
# 4 0.0000 0.0000 0.0000 10.2618 0.0000 0.0000
# 5 0.0000 0.0000 0.0000 0.0000 29.5138 0.0000
# 6 0.0000 0.0000 0.0000 0.0000 0.0000 17.1631
#
#
#
# Elastic Compliance Matrix: (Units=1/GPa)
#
#
# Indices 1 2 3 4 5 6 
#
# 1 0.011142 -0.010994 -0.007921 0.000000 0.000000 0.000000
# 2 -0.010994 0.063334 -0.000083 0.000000 0.000000 0.000000
# 3 -0.007921 -0.000083 0.018207 0.000000 0.000000 0.000000
# 4 0.000000 0.000000 0.000000 0.097449 0.000000 0.000000
# 5 0.000000 0.000000 0.000000 0.000000 0.033882 0.000000
# 6 0.000000 0.000000 0.000000 0.000000 0.000000 0.058265
#
#
# Mechanical properties :
#
#
# Convention : Reuss Voigt Hill
#
# Bulk Modulus (GPa) = 18.28549 57.74588 38.01569
# Shear Modulus (GPa) = 14.77085 22.26612 18.51849
#
# Velocity S-wave (km/s) = 2.94386 3.61440 3.29622
# Velocity P-wave (km/s) = 4.72053 7.16232 6.06557
#
# Compressibility (1/GPa) = 0.05468817
#
# Stress axis : x y z
#
# Youngs Moduli (GPa) = 89.74893 15.78922 54.92306
#
# Poissons Ratio (x) = 0.17358 0.43507
# Poissons Ratio (y) = 0.98666 0.00455
# Poissons Ratio (z) = 0.71094 0.00131
#
# Static dielectric constant tensor:
#      x y z
#    x 3.594780 0.000000 0.000000 
#    y 0.000000 2.596710 0.000000 
#    z 0.000000 0.000000 3.149610 
# 
# 
# High freq. dielectric constant tensor:
#      x y z
#    x 1.676440 0.000000 0.000000 
#    y 0.000000 1.585000 0.000000 
#    z 0.000000 0.000000 1.648140 
# 
# From -- ./inp_files/16388.got.cif
#   From: 2010.06.25/outbox.cif.g09.slc.cpg/sg71_9_cif.got.tgz:16388.got - 2010.06.28 04:59:45.
