data_PCOD8292163
_publ_section_title
;
Structure prediction by ZEFSAII (Michael W. Deem and Ramdas Pophale) SiO2 
 PCOD8292163
Probable space group: I M M M
;
_chemical_formula_sum "Si O2"
_cell_formula_units_Z 104
_cell_length_a 29.521781
_cell_length_b 8.736648
_cell_length_c 20.473531
_cell_angle_alpha 90.000000
_cell_angle_beta 90.000000
_cell_angle_gamma 90.000000
_cell_volume 5280.561961
_symmetry_space_group_name_H-M "I M M M"
_symmetry_group_IT_number 71
_symmetry_cell_setting 'orthorhombic'
loop_
_space_group_symop_operation_xyz
x,y,z
-x,-y,z
x,-y,-z
-x,y,-z
-x,-y,-z
x,y,-z
-x,y,z
x,-y,z
1/2+x,1/2+y,1/2+z
1/2-x,1/2-y,1/2+z
1/2+x,1/2-y,1/2-z
1/2-x,1/2+y,1/2-z
1/2-x,1/2-y,1/2-z
1/2+x,1/2+y,1/2-z
1/2-x,1/2+y,1/2+z
1/2+x,1/2-y,1/2+z
loop_
_atom_site_type_symbol
_atom_site_label
_atom_site_fract_x
_atom_site_fract_y
_atom_site_fract_z
Si Si1 0.448548 0.826253 0.075242
Si Si2 0.948351 0.817111 0.858807
Si Si3 0.129150 0.173886 0.647692
Si Si4 0.133092 0.679105 0.216811
Si Si5 0.780748 0.176157 0.574709
Si Si6 0.225064 0.820369 0.812592
Si Si7 0.553409 0.333607 0.500000
O O1 0.500000 0.810389 0.099191
O O2 0.419525 0.709885 0.117686
O O3 0.431502 0.000000 0.085780
O O4 0.444457 0.779598 0.000000
O O5 0.915129 0.745060 0.805844
O O6 0.000000 0.768306 0.841827
O O7 0.944284 0.000000 0.858530
O O8 0.933891 0.751217 0.931252
O O9 0.139838 0.286910 0.706965
O O10 0.166580 0.198962 0.591951
O O11 0.129314 0.000000 0.673875
O O12 0.134334 0.500000 0.204025
O O13 0.174434 0.756404 0.178268
O O14 0.773431 0.227350 0.500000
O O15 0.750833 0.282923 0.620717
O O16 0.766362 0.000000 0.585221
O O17 0.250000 0.750000 0.750000
O O18 0.223106 0.000000 0.801292
O O19 0.577122 0.500000 0.500000
O O20 0.500000 0.357916 0.500000
#
# Coordination Sequence:
#
# PCOD8292163 Si02
#       7
#    16  16  16  16  16  16   8
#     4   9  19  36  56  80 115 157 198 243 294 348
#     4   9  18  36  62  90 120 155 197 247 299 357
#     4  11  22  37  60  87 116 154 198 246 297 355
#     4  12  25  40  60  87 120 160 200 245 299 353
#     4  10  22  41  65  93 124 156 195 249 306 360
#     4  12  24  42  67  92 121 161 205 248 302 363
#     4   7  12  28  57  87 113 147 191 239 293 349
#
# _framework density 19.694873999999999
#
# number of rings (size 3 to 8) (size 9 to 14) (size 15 to 20)
#    0.000    1.769    1.538    5.077    0.000    3.077 
#    1.385    1.154    0.000    1.385    0.000    0.000 
#    0.000    0.000    0.000    0.000    0.000    0.000 
#
# Total GULP energy -644782.214563 kJ/mol
# GULP energy per Si atom -12399.657972 kJ/mol
# Density = 1.965005 g / cm^3
# Si number density = 19.694874 Si / 1000 Ang^3
#
#
#
# Elastic Constant Matrix: (Units=GPa)
#
#
# Indices 1 2 3 4 5 6 
#
# 1 109.3803 50.2640 42.5106 0.0000 0.0000 0.0000
# 2 50.2640 97.0562 37.0949 0.0000 0.0000 0.0000
# 3 42.5106 37.0949 99.5237 0.0000 0.0000 0.0000
# 4 0.0000 0.0000 0.0000 23.7295 0.0000 0.0000
# 5 0.0000 0.0000 0.0000 0.0000 35.8642 0.0000
# 6 0.0000 0.0000 0.0000 0.0000 0.0000 30.2406
#
#
#
# Elastic Compliance Matrix: (Units=1/GPa)
#
#
# Indices 1 2 3 4 5 6 
#
# 1 0.012989 -0.005371 -0.003546 0.000000 0.000000 0.000000
# 2 -0.005371 0.014236 -0.003012 0.000000 0.000000 0.000000
# 3 -0.003546 -0.003012 0.012685 0.000000 0.000000 0.000000
# 4 0.000000 0.000000 0.000000 0.042142 0.000000 0.000000
# 5 0.000000 0.000000 0.000000 0.000000 0.027883 0.000000
# 6 0.000000 0.000000 0.000000 0.000000 0.000000 0.033068
#
#
# Mechanical properties :
#
#
# Convention : Reuss Voigt Hill
#
# Bulk Modulus (GPa) = 62.29901 62.85548 62.57725
# Shear Modulus (GPa) = 29.03393 29.70623 29.37008
#
# Velocity S-wave (km/s) = 3.84368 3.88793 3.86587
# Velocity P-wave (km/s) = 7.16933 7.22070 7.19506
#
# Compressibility (1/GPa) = 0.01605162
#
# Stress axis : x y z
#
# Youngs Moduli (GPa) = 76.98848 70.24326 78.83270
#
# Poissons Ratio (x) = 0.37731 0.27954
# Poissons Ratio (y) = 0.41354 0.23743
# Poissons Ratio (z) = 0.27300 0.21156
#
# Static dielectric constant tensor:
#      x y z
#    x 3.623830 0.000000 0.000000 
#    y 0.000000 3.433410 0.000000 
#    z 0.000000 0.000000 3.700870 
# 
# 
# High freq. dielectric constant tensor:
#      x y z
#    x 1.766490 0.000000 0.000000 
#    y 0.000000 1.755820 0.000000 
#    z 0.000000 0.000000 1.769620 
# 
# From -- ./inp_files/56280.got.cif
#   From: 2010.06.25/outbox.cif.g09.slc.cpg/sg71_29_cif.got.tgz:56280.got - 2010.06.28 04:59:45.
