data_PCOD8292585
_publ_section_title
;
Structure prediction by ZEFSAII (Michael W. Deem and Ramdas Pophale) SiO2 
 PCOD8292585
Probable space group: I M M M
;
_chemical_formula_sum "Si O2"
_cell_formula_units_Z 64
_cell_length_a 13.790890
_cell_length_b 28.068490
_cell_length_c 7.760616
_cell_angle_alpha 90.000000
_cell_angle_beta 90.000000
_cell_angle_gamma 90.000000
_cell_volume 3004.052642
_symmetry_space_group_name_H-M "I M M M"
_symmetry_group_IT_number 71
_symmetry_cell_setting 'orthorhombic'
loop_
_space_group_symop_operation_xyz
x,y,z
-x,-y,z
x,-y,-z
-x,y,-z
-x,-y,-z
x,y,-z
-x,y,z
x,-y,z
1/2+x,1/2+y,1/2+z
1/2-x,1/2-y,1/2+z
1/2+x,1/2-y,1/2-z
1/2-x,1/2+y,1/2-z
1/2-x,1/2-y,1/2-z
1/2+x,1/2+y,1/2-z
1/2-x,1/2+y,1/2+z
1/2+x,1/2-y,1/2+z
loop_
_atom_site_type_symbol
_atom_site_label
_atom_site_fract_x
_atom_site_fract_y
_atom_site_fract_z
Si Si1 0.384591 0.772151 0.809076
Si Si2 0.224718 0.945492 0.307668
Si Si3 0.614145 0.399325 0.500000
Si Si4 0.110380 0.379351 0.298035
Si Si5 0.616239 0.291591 0.500000
O O1 0.500000 0.767960 0.817628
O O2 0.357317 0.825619 0.751172
O O3 0.341953 0.734507 0.671048
O O4 0.341637 0.761183 0.000000
O O5 0.180136 0.941260 0.500000
O O6 0.147999 0.925338 0.172288
O O7 0.324658 0.916543 0.304720
O O8 0.247767 0.000000 0.260646
O O9 0.500000 0.399221 0.500000
O O10 0.655366 0.345444 0.500000
O O11 0.124385 0.388518 0.500000
O O12 0.000000 0.388083 0.241337
O O13 0.500000 0.289330 0.500000
#
# Coordination Sequence:
#
# PCOD8292585 Si02
#       5
#    16  16   8  16   8
#     4   8  15  29  52  85 123 160 196 234 281 349
#     4  11  25  43  64  91 124 160 204 261 317 370
#     4  11  25  46  68  88 116 157 211 271 325 369
#     4   9  18  35  63  95 130 171 204 235 291 367
#     4   9  18  33  58  88 115 156 203 244 304 364
#
# _framework density 21.304555000000001
#
# number of rings (size 3 to 8) (size 9 to 14) (size 15 to 20)
#    0.000    2.500    1.250    1.875    1.750    3.500 
#    0.000    7.500    0.000    0.000    0.000    0.000 
#    0.000    0.000    0.000    0.000    0.000    0.000 
#
# Total GULP energy -396838.965768 kJ/mol
# GULP energy per Si atom -12401.217680 kJ/mol
# Density = 2.125606 g / cm^3
# Si number density = 21.304555 Si / 1000 Ang^3
#
#
#
# Elastic Constant Matrix: (Units=GPa)
#
#
# Indices 1 2 3 4 5 6 
#
# 1 46.3280 40.4336 38.7692 0.0051 0.0001 0.0012
# 2 40.4336 175.0178 98.2406 0.0073 -0.0141 -0.0010
# 3 38.7692 98.2406 144.9066 0.0387 -0.0250 -0.0106
# 4 0.0051 0.0073 0.0387 36.3593 -0.0157 -0.0041
# 5 0.0001 -0.0141 -0.0250 -0.0157 17.6273 0.0042
# 6 0.0012 -0.0010 -0.0106 -0.0041 0.0042 28.4336
#
#
#
# Elastic Compliance Matrix: (Units=1/GPa)
#
#
# Indices 1 2 3 4 5 6 
#
# 1 0.029318 -0.003826 -0.005250 0.000002 -0.000011 -0.000003
# 2 -0.003826 0.009723 -0.005568 0.000005 0.000000 -0.000002
# 3 -0.005250 -0.005568 0.012081 -0.000011 0.000013 0.000005
# 4 0.000002 0.000005 -0.000011 0.027503 0.000024 0.000004
# 5 -0.000011 0.000000 0.000013 0.000024 0.056730 -0.000008
# 6 -0.000003 -0.000002 0.000005 0.000004 -0.000008 0.035170
#
#
# Mechanical properties :
#
#
# Convention : Reuss Voigt Hill
#
# Bulk Modulus (GPa) = 45.80214 80.12656 62.96435
# Shear Modulus (GPa) = 24.14391 29.07130 26.60761
#
# Velocity S-wave (km/s) = 3.37007 3.69800 3.53783
# Velocity P-wave (km/s) = 6.05711 7.47832 6.80492
#
# Compressibility (1/GPa) = 0.02183304
#
# Stress axis : x y z
#
# Youngs Moduli (GPa) = 34.10869 102.84637 82.77759
#
# Poissons Ratio (x) = 0.39353 0.43456
# Poissons Ratio (y) = 0.13051 0.46092
# Poissons Ratio (z) = 0.17906 0.57267
#
# Static dielectric constant tensor:
#      x y z
#    x 3.617040 0.000000 -0.000010 
#    y 0.000000 3.949540 -0.000110 
#    z -0.000010 -0.000110 4.138750 
# 
# 
# High freq. dielectric constant tensor:
#      x y z
#    x 1.829900 0.000000 0.000000 
#    y 0.000000 1.835000 0.000000 
#    z 0.000000 0.000000 1.841590 
# 
# From -- ./inp_files/5557.got.cif
#   From: 2010.06.25/outbox.cif.g09.slc.cpg/sg71_3_cif.got.tgz:5557.got - 2010.06.28 04:59:45.
