data_PCOD8292107
_publ_section_title
;
Structure prediction by ZEFSAII (Michael W. Deem and Ramdas Pophale) SiO2 
 PCOD8292107
Probable space group: I M M M
;
_chemical_formula_sum "Si O2"
_cell_formula_units_Z 72
_cell_length_a 30.055114
_cell_length_b 8.405008
_cell_length_c 14.443971
_cell_angle_alpha 90.000000
_cell_angle_beta 90.000000
_cell_angle_gamma 90.000000
_cell_volume 3648.741687
_symmetry_space_group_name_H-M "I M M M"
_symmetry_group_IT_number 71
_symmetry_cell_setting 'orthorhombic'
loop_
_space_group_symop_operation_xyz
x,y,z
-x,-y,z
x,-y,-z
-x,y,-z
-x,-y,-z
x,y,-z
-x,y,z
x,-y,z
1/2+x,1/2+y,1/2+z
1/2-x,1/2-y,1/2+z
1/2+x,1/2-y,1/2-z
1/2-x,1/2+y,1/2-z
1/2-x,1/2-y,1/2-z
1/2+x,1/2+y,1/2-z
1/2-x,1/2+y,1/2+z
1/2+x,1/2-y,1/2+z
loop_
_atom_site_type_symbol
_atom_site_label
_atom_site_fract_x
_atom_site_fract_y
_atom_site_fract_z
Si Si1 0.949183 0.310245 0.299642
Si Si2 0.447451 0.826768 0.000000
Si Si3 0.662902 0.314700 0.500000
Si Si4 0.260365 0.315957 0.000000
Si Si5 0.289653 0.185882 0.812527
Si Si6 0.868526 0.187026 0.804055
O O1 0.943089 0.500000 0.297178
O O2 0.934790 0.242243 0.402380
O O3 0.919211 0.224899 0.222811
O O4 0.000000 0.263727 0.277290
O O5 0.500000 0.851273 0.000000
O O6 0.424393 0.000000 0.000000
O O7 0.654229 0.500000 0.500000
O O8 0.715169 0.283420 0.500000
O O9 0.640135 0.244476 0.407391
O O10 0.289559 0.273808 0.089208
O O11 0.247546 0.500000 0.000000
O O12 0.250000 0.250000 0.750000
O O13 0.336751 0.219327 0.765759
O O14 0.282877 0.000000 0.828380
O O15 0.858357 0.000000 0.798255
#
# Coordination Sequence:
#
# PCOD8292107 Si02
#       6
#    16   8   8   8  16  16
#     4   9  18  35  59  86 117 154 197 246 301 359
#     4   7  12  27  53  80 107 144 185 225 280 349
#     4  10  22  40  60  80 112 158 204 248 300 357
#     4  12  24  39  63  91 120 158 201 247 299 357
#     4  12  24  40  61  88 121 156 196 245 299 357
#     4  11  23  39  60  86 117 155 202 250 301 362
#
# _framework density 19.732828999999999
#
# number of rings (size 3 to 8) (size 9 to 14) (size 15 to 20)
#    0.000    1.667    2.222    5.000    0.000    2.222 
#    0.000    4.444    0.000    5.333    0.000    0.000 
#    0.000    0.000    0.000    0.000    0.000    0.000 
#
# Total GULP energy -446327.820555 kJ/mol
# GULP energy per Si atom -12397.995015 kJ/mol
# Density = 1.968792 g / cm^3
# Si number density = 19.732829 Si / 1000 Ang^3
#
#
#
# Elastic Constant Matrix: (Units=GPa)
#
#
# Indices 1 2 3 4 5 6 
#
# 1 94.4976 5.3793 59.6655 0.0000 0.0000 0.0000
# 2 5.3793 38.1851 16.3517 0.0000 0.0000 0.0000
# 3 59.6655 16.3517 168.7901 0.0000 0.0000 0.0000
# 4 0.0000 0.0000 0.0000 21.6128 0.0000 0.0000
# 5 0.0000 0.0000 0.0000 0.0000 30.4877 0.0000
# 6 0.0000 0.0000 0.0000 0.0000 0.0000 30.6535
#
#
#
# Elastic Compliance Matrix: (Units=1/GPa)
#
#
# Indices 1 2 3 4 5 6 
#
# 1 0.013624 0.000149 -0.004830 0.000000 0.000000 0.000000
# 2 0.000149 0.027323 -0.002700 0.000000 0.000000 0.000000
# 3 -0.004830 -0.002700 0.007894 0.000000 0.000000 0.000000
# 4 0.000000 0.000000 0.000000 0.046269 0.000000 0.000000
# 5 0.000000 0.000000 0.000000 0.000000 0.032800 0.000000
# 6 0.000000 0.000000 0.000000 0.000000 0.000000 0.032623
#
#
# Mechanical properties :
#
#
# Convention : Reuss Voigt Hill
#
# Bulk Modulus (GPa) = 29.34371 51.58510 40.46440
# Shear Modulus (GPa) = 26.78765 31.22254 29.00509
#
# Velocity S-wave (km/s) = 3.68845 3.98208 3.83807
# Velocity P-wave (km/s) = 5.74824 6.88049 6.33970
#
# Compressibility (1/GPa) = 0.03407886
#
# Stress axis : x y z
#
# Youngs Moduli (GPa) = 73.40206 36.59885 126.68645
#
# Poissons Ratio (x) = -0.00546 0.61193
# Poissons Ratio (y) = -0.01095 0.34202
# Poissons Ratio (z) = 0.35455 0.09881
#
# Static dielectric constant tensor:
#      x y z
#    x 3.441940 0.000000 0.000000 
#    y 0.000000 3.398580 0.000000 
#    z 0.000000 0.000000 4.081680 
# 
# 
# High freq. dielectric constant tensor:
#      x y z
#    x 1.754750 0.000000 0.000000 
#    y 0.000000 1.754980 0.000000 
#    z 0.000000 0.000000 1.782810 
# 
# From -- ./inp_files/40722.got.cif
#   From: 2010.06.25/outbox.cif.g09.slc.cpg/sg71_21_cif.got.tgz:40722.got - 2010.06.28 04:59:45.
