data_PCOD8292658
_publ_section_title
;
Structure prediction by ZEFSAII (Michael W. Deem and Ramdas Pophale) SiO2 
 PCOD8292658
Probable space group: I M M M
;
_chemical_formula_sum "Si O2"
_cell_formula_units_Z 72
_cell_length_a 31.842882
_cell_length_b 18.476009
_cell_length_c 9.133190
_cell_angle_alpha 90.000000
_cell_angle_beta 90.000000
_cell_angle_gamma 90.000000
_cell_volume 5373.323959
_symmetry_space_group_name_H-M "I M M M"
_symmetry_group_IT_number 71
_symmetry_cell_setting 'orthorhombic'
loop_
_space_group_symop_operation_xyz
x,y,z
-x,-y,z
x,-y,-z
-x,y,-z
-x,-y,-z
x,y,-z
-x,y,z
x,-y,z
1/2+x,1/2+y,1/2+z
1/2-x,1/2-y,1/2+z
1/2+x,1/2-y,1/2-z
1/2-x,1/2+y,1/2-z
1/2-x,1/2-y,1/2-z
1/2+x,1/2+y,1/2-z
1/2-x,1/2+y,1/2+z
1/2+x,1/2-y,1/2+z
loop_
_atom_site_type_symbol
_atom_site_label
_atom_site_fract_x
_atom_site_fract_y
_atom_site_fract_z
Si Si1 0.082095 0.416752 0.171145
Si Si2 0.753852 0.420623 0.828698
Si Si3 0.665363 0.166561 0.673085
Si Si4 0.790315 0.217568 0.327885
Si Si5 0.500000 0.086055 0.834856
O O1 0.091096 0.500000 0.213597
O O2 0.121834 0.369652 0.220508
O O3 0.041637 0.384980 0.254546
O O4 0.073185 0.409474 0.000000
O O5 0.746815 0.500000 0.756114
O O6 0.796862 0.384631 0.768722
O O7 0.713105 0.369293 0.798928
O O8 0.760397 0.430403 0.000000
O O9 0.668037 0.179014 0.500000
O O10 0.668991 0.245072 0.753396
O O11 0.789532 0.234696 0.500000
O O12 0.750000 0.250000 0.250000
O O13 0.500000 0.000000 0.827647
O O14 0.500000 0.115265 0.000000
#
# Coordination Sequence:
#
# PCOD8292658 Si02
#       5
#    16  16  16  16   8
#     4   9  16  26  40  55  70  93 126 156 179 210
#     4   8  13  22  36  52  68  89 120 152 177 204
#     4   9  16  25  38  54  71  92 119 152 184 212
#     4   9  16  25  37  51  69  93 118 147 182 216
#     4   9  17  27  37  51  73  97 118 147 188 221
#
# _framework density 13.399528
#
# number of rings (size 3 to 8) (size 9 to 14) (size 15 to 20)
#    0.000    3.222    0.000    3.000    0.000    4.889 
#    0.000    0.000    0.000   22.000    0.000    0.000 
#    0.000    0.000    0.000    1.000    0.000   20.222 
#
# Total GULP energy -446030.356363 kJ/mol
# GULP energy per Si atom -12389.732121 kJ/mol
# Density = 1.336903 g / cm^3
# Si number density = 13.399528 Si / 1000 Ang^3
#
#
#
# Elastic Constant Matrix: (Units=GPa)
#
#
# Indices 1 2 3 4 5 6 
#
# 1 95.2520 53.8912 37.1407 0.0000 0.0000 0.0000
# 2 53.8912 86.2559 29.8091 0.0000 0.0000 0.0000
# 3 37.1407 29.8091 44.9948 0.0000 0.0000 0.0000
# 4 0.0000 0.0000 0.0000 15.9965 0.0000 0.0000
# 5 0.0000 0.0000 0.0000 0.0000 20.1347 0.0000
# 6 0.0000 0.0000 0.0000 0.0000 0.0000 19.9050
#
#
#
# Elastic Compliance Matrix: (Units=1/GPa)
#
#
# Indices 1 2 3 4 5 6 
#
# 1 0.019343 -0.008517 -0.010324 0.000000 0.000000 0.000000
# 2 -0.008517 0.018786 -0.005415 0.000000 0.000000 0.000000
# 3 -0.010324 -0.005415 0.034334 0.000000 0.000000 0.000000
# 4 0.000000 0.000000 0.000000 0.062514 0.000000 0.000000
# 5 0.000000 0.000000 0.000000 0.000000 0.049666 0.000000
# 6 0.000000 0.000000 0.000000 0.000000 0.000000 0.050239
#
#
# Mechanical properties :
#
#
# Convention : Reuss Voigt Hill
#
# Bulk Modulus (GPa) = 41.75284 52.02053 46.88668
# Shear Modulus (GPa) = 17.15990 18.25136 17.70563
#
# Velocity S-wave (km/s) = 3.58248 3.69465 3.63900
# Velocity P-wave (km/s) = 6.95268 7.55695 7.26111
#
# Compressibility (1/GPa) = 0.02395047
#
# Stress axis : x y z
#
# Youngs Moduli (GPa) = 51.69909 53.23005 29.12556
#
# Poissons Ratio (x) = 0.45337 0.30068
# Poissons Ratio (y) = 0.44033 0.15773
# Poissons Ratio (z) = 0.53372 0.28827
#
# Static dielectric constant tensor:
#      x y z
#    x 2.676880 0.000000 0.000000 
#    y 0.000000 2.975090 0.000000 
#    z 0.000000 0.000000 2.651480 
# 
# 
# High freq. dielectric constant tensor:
#      x y z
#    x 1.484660 0.000000 0.000000 
#    y 0.000000 1.488380 0.000000 
#    z 0.000000 0.000000 1.502630 
# 
# From -- ./inp_files/14696.got.cif
#   From: 2010.06.25/outbox.cif.g09.slc.cpg/sg71_8_cif.got.tgz:14696.got - 2010.06.28 04:59:45.
