data_PCOD8292254
_publ_section_title
;
Structure prediction by ZEFSAII (Michael W. Deem and Ramdas Pophale) SiO2 
 PCOD8292254
Probable space group: I M M M
;
_chemical_formula_sum "Si O2"
_cell_formula_units_Z 112
_cell_length_a 26.730528
_cell_length_b 14.584937
_cell_length_c 16.896540
_cell_angle_alpha 90.000000
_cell_angle_beta 90.000000
_cell_angle_gamma 90.000000
_cell_volume 6587.336904
_symmetry_space_group_name_H-M "I M M M"
_symmetry_group_IT_number 71
_symmetry_cell_setting 'orthorhombic'
loop_
_space_group_symop_operation_xyz
x,y,z
-x,-y,z
x,-y,-z
-x,y,-z
-x,-y,-z
x,y,-z
-x,y,z
x,-y,z
1/2+x,1/2+y,1/2+z
1/2-x,1/2-y,1/2+z
1/2+x,1/2-y,1/2-z
1/2-x,1/2+y,1/2-z
1/2-x,1/2-y,1/2-z
1/2+x,1/2+y,1/2-z
1/2-x,1/2+y,1/2+z
1/2+x,1/2-y,1/2+z
loop_
_atom_site_type_symbol
_atom_site_label
_atom_site_fract_x
_atom_site_fract_y
_atom_site_fract_z
Si Si1 0.602399 0.762708 0.191824
Si Si2 0.268552 0.394141 0.590528
Si Si3 0.440898 0.396236 0.911258
Si Si4 0.698084 0.750197 0.296703
Si Si5 0.056344 0.395534 0.814506
Si Si6 0.346216 0.893894 0.590405
Si Si7 0.843469 0.599563 0.407190
O O1 0.579536 0.670182 0.156793
O O2 0.652720 0.737166 0.237074
O O3 0.564081 0.819942 0.245962
O O4 0.615779 0.827502 0.118471
O O5 0.274920 0.363149 0.500000
O O6 0.282297 0.500000 0.600534
O O7 0.305748 0.335882 0.644305
O O8 0.212237 0.373452 0.621065
O O9 0.500000 0.389502 0.910024
O O10 0.423621 0.500000 0.891235
O O11 0.421737 0.369882 0.000000
O O12 0.750000 0.750000 0.250000
O O13 0.691323 0.841616 0.349964
O O14 0.063368 0.500000 0.781931
O O15 0.095966 0.377359 0.884639
O O16 0.000000 0.382900 0.847789
O O17 0.339799 0.859488 0.500000
O O18 0.331603 0.000000 0.597282
O O19 0.843182 0.591669 0.500000
O O20 0.857109 0.500000 0.370511
#
# Coordination Sequence:
#
# PCOD8292254 Si02
#       7
#    16  16  16  16  16  16  16
#     4  11  19  30  50  72 101 126 161 198 248 294
#     4   9  18  33  50  65  87 124 166 200 232 276
#     4   9  19  36  54  70  92 126 167 208 250 296
#     4  11  21  32  47  73 101 131 160 200 246 291
#     4   9  18  31  49  76 104 128 157 197 248 303
#     4   9  19  35  53  72  98 134 170 204 242 288
#     4   9  17  29  46  67  91 123 161 196 230 279
#
# _framework density 17.002317999999999
#
# number of rings (size 3 to 8) (size 9 to 14) (size 15 to 20)
#    0.000    2.429    1.429    3.000    0.000    2.000 
#    0.000    1.429    0.000    1.714    0.000    6.000 
#    0.000    0.000    0.000   26.571    0.000    0.286 
#
# Total GULP energy -694114.901750 kJ/mol
# GULP energy per Si atom -12394.908960 kJ/mol
# Density = 1.696362 g / cm^3
# Si number density = 17.002318 Si / 1000 Ang^3
#
#
#
# Elastic Constant Matrix: (Units=GPa)
#
#
# Indices 1 2 3 4 5 6 
#
# 1 73.6729 36.3951 38.1111 0.0000 0.0000 0.0000
# 2 36.3951 93.2637 54.1883 0.0000 0.0000 0.0000
# 3 38.1111 54.1883 80.9731 0.0000 0.0000 0.0000
# 4 0.0000 0.0000 0.0000 33.5746 0.0000 0.0000
# 5 0.0000 0.0000 0.0000 0.0000 18.8500 0.0000
# 6 0.0000 0.0000 0.0000 0.0000 0.0000 27.8263
#
#
#
# Elastic Compliance Matrix: (Units=1/GPa)
#
#
# Indices 1 2 3 4 5 6 
#
# 1 0.018638 -0.003561 -0.006389 0.000000 0.000000 0.000000
# 2 -0.003561 0.018224 -0.010520 0.000000 0.000000 0.000000
# 3 -0.006389 -0.010520 0.022397 0.000000 0.000000 0.000000
# 4 0.000000 0.000000 0.000000 0.029784 0.000000 0.000000
# 5 0.000000 0.000000 0.000000 0.000000 0.053050 0.000000
# 6 0.000000 0.000000 0.000000 0.000000 0.000000 0.035937
#
#
# Mechanical properties :
#
#
# Convention : Reuss Voigt Hill
#
# Bulk Modulus (GPa) = 54.58795 56.14430 55.36613
# Shear Modulus (GPa) = 22.21463 23.99787 23.10625
#
# Velocity S-wave (km/s) = 3.61856 3.76100 3.69047
# Velocity P-wave (km/s) = 7.04518 7.20787 7.12699
#
# Compressibility (1/GPa) = 0.01831906
#
# Stress axis : x y z
#
# Youngs Moduli (GPa) = 53.65457 54.87216 44.64900
#
# Poissons Ratio (x) = 0.19540 0.28527
# Poissons Ratio (y) = 0.19106 0.46970
# Poissons Ratio (z) = 0.34280 0.57725
#
# Static dielectric constant tensor:
#      x y z
#    x 3.137630 0.000000 0.000000 
#    y 0.000000 3.271060 0.000000 
#    z 0.000000 0.000000 3.211740 
# 
# 
# High freq. dielectric constant tensor:
#      x y z
#    x 1.638940 0.000000 0.000000 
#    y 0.000000 1.657920 0.000000 
#    z 0.000000 0.000000 1.657620 
# 
# From -- ./inp_files/35344.got.cif
#   From: 2010.06.25/outbox.cif.g09.slc.cpg/sg71_18_cif.got.tgz:35344.got - 2010.06.28 04:59:45.
