data_PCOD8292209
_publ_section_title
;
Structure prediction by ZEFSAII (Michael W. Deem and Ramdas Pophale) SiO2 
 PCOD8292209
Probable space group: I M M M
;
_chemical_formula_sum "Si O2"
_cell_formula_units_Z 88
_cell_length_a 24.334787
_cell_length_b 15.146859
_cell_length_c 11.553487
_cell_angle_alpha 90.000000
_cell_angle_beta 90.000000
_cell_angle_gamma 90.000000
_cell_volume 4258.564328
_symmetry_space_group_name_H-M "I M M M"
_symmetry_group_IT_number 71
_symmetry_cell_setting 'orthorhombic'
loop_
_space_group_symop_operation_xyz
x,y,z
-x,-y,z
x,-y,-z
-x,y,-z
-x,-y,-z
x,y,-z
-x,y,z
x,-y,z
1/2+x,1/2+y,1/2+z
1/2-x,1/2-y,1/2+z
1/2+x,1/2-y,1/2-z
1/2-x,1/2+y,1/2-z
1/2-x,1/2-y,1/2-z
1/2+x,1/2+y,1/2-z
1/2-x,1/2+y,1/2+z
1/2+x,1/2-y,1/2+z
loop_
_atom_site_type_symbol
_atom_site_label
_atom_site_fract_x
_atom_site_fract_y
_atom_site_fract_z
Si Si1 0.064085 0.000000 0.261702
Si Si2 0.702715 0.899987 0.500000
Si Si3 0.894790 0.826340 0.629403
Si Si4 0.060244 0.332472 0.755175
Si Si5 0.434271 0.000000 0.869916
Si Si6 0.917370 0.605820 0.000000
Si Si7 0.820233 0.000000 0.862123
Si Si8 0.224486 0.156864 0.291283
O O1 0.072307 0.084744 0.342538
O O2 0.113630 0.000000 0.165868
O O3 0.000000 0.000000 0.213019
O O4 0.643758 0.852865 0.500000
O O5 0.732072 0.881288 0.380139
O O6 0.686049 0.000000 0.500000
O O7 0.912152 0.795845 0.500000
O O8 0.906830 0.755697 0.729100
O O9 0.829649 0.835721 0.631363
O O10 0.090783 0.414322 0.692839
O O11 0.053193 0.352231 0.889791
O O12 0.000000 0.319592 0.700461
O O13 0.500000 0.000000 0.858640
O O14 0.413054 0.000000 0.000000
O O15 0.924371 0.500000 0.000000
O O16 0.789468 0.087782 0.812537
O O17 0.813302 0.000000 0.000000
O O18 0.250000 0.250000 0.250000
#
# Coordination Sequence:
#
# PCOD8292209 Si02
#       8
#     8   8  16  16   8   8   8  16
#     4  10  23  43  66  94 129 172 218 264 320 382
#     4  11  22  41  68  90 121 164 209 268 320 369
#     4  11  23  40  65  95 128 163 214 270 320 383
#     4  11  22  38  60  89 128 168 206 256 313 373
#     4   9  18  33  55  82 116 158 197 244 310 369
#     4  11  23  40  63  91 124 166 222 254 303 385
#     4  10  24  43  66  99 134 169 213 268 324 390
#     4  11  23  42  67  94 128 167 213 263 329 382
#
# _framework density 20.664242000000002
#
# number of rings (size 3 to 8) (size 9 to 14) (size 15 to 20)
#    0.000    1.364    2.727    2.727    1.273    3.091 
#    6.545    0.000    0.000    2.182    0.000    0.000 
#    0.000    0.000    0.000    0.000    0.000    0.000 
#
# Total GULP energy -545281.395450 kJ/mol
# GULP energy per Si atom -12392.758987 kJ/mol
# Density = 2.061721 g / cm^3
# Si number density = 20.664242 Si / 1000 Ang^3
#
#
#
# Elastic Constant Matrix: (Units=GPa)
#
#
# Indices 1 2 3 4 5 6 
#
# 1 98.1116 30.1975 14.9690 0.0000 0.0000 0.0000
# 2 30.1975 135.2314 54.1594 0.0000 0.0000 0.0000
# 3 14.9690 54.1594 144.4244 0.0000 0.0000 0.0000
# 4 0.0000 0.0000 0.0000 34.3193 0.0000 0.0000
# 5 0.0000 0.0000 0.0000 0.0000 20.4370 0.0000
# 6 0.0000 0.0000 0.0000 0.0000 0.0000 28.2682
#
#
#
# Elastic Compliance Matrix: (Units=1/GPa)
#
#
# Indices 1 2 3 4 5 6 
#
# 1 0.010953 -0.002343 -0.000257 0.000000 0.000000 0.000000
# 2 -0.002343 0.009203 -0.003208 0.000000 0.000000 0.000000
# 3 -0.000257 -0.003208 0.008154 0.000000 0.000000 0.000000
# 4 0.000000 0.000000 0.000000 0.029138 0.000000 0.000000
# 5 0.000000 0.000000 0.000000 0.000000 0.048931 0.000000
# 6 0.000000 0.000000 0.000000 0.000000 0.000000 0.035375
#
#
# Mechanical properties :
#
#
# Convention : Reuss Voigt Hill
#
# Bulk Modulus (GPa) = 59.90299 64.04660 61.97479
# Shear Modulus (GPa) = 31.45962 35.16767 33.31364
#
# Velocity S-wave (km/s) = 3.90605 4.12984 4.01950
# Velocity P-wave (km/s) = 7.02813 7.33498 7.18319
#
# Compressibility (1/GPa) = 0.01669366
#
# Stress axis : x y z
#
# Youngs Moduli (GPa) = 91.30107 108.66245 122.64342
#
# Poissons Ratio (x) = 0.25460 0.03147
# Poissons Ratio (y) = 0.21392 0.39347
# Poissons Ratio (z) = 0.02343 0.34861
#
# Static dielectric constant tensor:
#      x y z
#    x 3.783530 0.000000 0.000000 
#    y 0.000000 3.859930 0.000000 
#    z 0.000000 0.000000 3.530730 
# 
# 
# High freq. dielectric constant tensor:
#      x y z
#    x 1.810310 0.000000 0.000000 
#    y 0.000000 1.813550 0.000000 
#    z 0.000000 0.000000 1.806680 
# 
# From -- ./inp_files/28689.got.cif
#   From: 2010.06.25/outbox.cif.g09.slc.cpg/sg71_15_cif.got.tgz:28689.got - 2010.06.28 04:59:45.
