data_PCOD8292685
_publ_section_title
;
Structure prediction by ZEFSAII (Michael W. Deem and Ramdas Pophale) SiO2 
 PCOD8292685
Probable space group: I M M M
;
_chemical_formula_sum "Si O2"
_cell_formula_units_Z 64
_cell_length_a 9.732419
_cell_length_b 9.716400
_cell_length_c 40.948707
_cell_angle_alpha 90.000000
_cell_angle_beta 90.000000
_cell_angle_gamma 90.000000
_cell_volume 3872.276640
_symmetry_space_group_name_H-M "I M M M"
_symmetry_group_IT_number 71
_symmetry_cell_setting 'orthorhombic'
loop_
_space_group_symop_operation_xyz
x,y,z
-x,-y,z
x,-y,-z
-x,y,-z
-x,-y,-z
x,y,-z
-x,y,z
x,-y,z
1/2+x,1/2+y,1/2+z
1/2-x,1/2-y,1/2+z
1/2+x,1/2-y,1/2-z
1/2-x,1/2+y,1/2-z
1/2-x,1/2-y,1/2-z
1/2+x,1/2+y,1/2-z
1/2-x,1/2+y,1/2+z
1/2+x,1/2-y,1/2+z
loop_
_atom_site_type_symbol
_atom_site_label
_atom_site_fract_x
_atom_site_fract_y
_atom_site_fract_z
Si Si1 0.160424 0.840781 0.773928
Si Si2 0.651804 0.336673 0.652913
Si Si3 0.840082 0.339497 0.594719
Si Si4 0.663192 0.654357 0.963899
O O1 0.250000 0.750000 0.750000
O O2 0.194828 0.790100 0.810726
O O3 0.000000 0.818803 0.766384
O O4 0.200940 0.000000 0.769270
O O5 0.500000 0.279002 0.644267
O O6 0.647207 0.500000 0.652427
O O7 0.760887 0.281995 0.626480
O O8 0.812180 0.500000 0.588778
O O9 0.780530 0.260031 0.563143
O O10 0.000000 0.308818 0.600511
O O11 0.500000 0.659649 0.964154
O O12 0.713232 0.500000 0.955347
O O13 0.717776 0.696846 0.000000
#
# Coordination Sequence:
#
# PCOD8292685 Si02
#       4
#    16  16  16  16
#     4   9  18  32  49  69  92 119 152 187 224 268
#     4   8  15  29  46  62  85 117 145 170 209 261
#     4   9  16  25  41  66  87 103 135 181 216 243
#     4   8  14  25  40  58  83 114 141 166 206 257
#
# _framework density 16.527744999999999
#
# number of rings (size 3 to 8) (size 9 to 14) (size 15 to 20)
#    0.000    3.500    0.000    2.250    0.000    2.000 
#    0.000    6.250    0.000    6.000    0.000    5.250 
#    0.000    0.000    0.000    0.000    0.000    0.000 
#
# Total GULP energy -396581.317236 kJ/mol
# GULP energy per Si atom -12393.166164 kJ/mol
# Density = 1.649013 g / cm^3
# Si number density = 16.527745 Si / 1000 Ang^3
#
#
#
# Elastic Constant Matrix: (Units=GPa)
#
#
# Indices 1 2 3 4 5 6 
#
# 1 57.0836 37.9845 70.5019 0.0000 0.0000 0.0000
# 2 37.9845 59.0812 67.4763 0.0000 0.0000 0.0000
# 3 70.5019 67.4763 167.8294 0.0000 0.0000 0.0000
# 4 0.0000 0.0000 0.0000 30.2673 0.0000 0.0000
# 5 0.0000 0.0000 0.0000 0.0000 24.3493 0.0000
# 6 0.0000 0.0000 0.0000 0.0000 0.0000 16.4718
#
#
#
# Elastic Compliance Matrix: (Units=1/GPa)
#
#
# Indices 1 2 3 4 5 6 
#
# 1 0.040718 -0.012283 -0.012166 0.000000 0.000000 0.000000
# 2 -0.012283 0.035002 -0.008913 0.000000 0.000000 0.000000
# 3 -0.012166 -0.008913 0.014653 0.000000 0.000000 0.000000
# 4 0.000000 0.000000 0.000000 0.033039 0.000000 0.000000
# 5 0.000000 0.000000 0.000000 0.000000 0.041069 0.000000
# 6 0.000000 0.000000 0.000000 0.000000 0.000000 0.060710
#
#
# Mechanical properties :
#
#
# Convention : Reuss Voigt Hill
#
# Bulk Modulus (GPa) = 42.28676 70.65771 56.47224
# Shear Modulus (GPa) = 16.67791 21.41979 19.04885
#
# Velocity S-wave (km/s) = 3.18006 3.60389 3.39859
# Velocity P-wave (km/s) = 6.25496 7.75636 7.04577
#
# Compressibility (1/GPa) = 0.02364807
#
# Stress axis : x y z
#
# Youngs Moduli (GPa) = 24.55928 28.56955 68.24723
#
# Poissons Ratio (x) = 0.35093 0.83031
# Poissons Ratio (y) = 0.30167 0.60827
# Poissons Ratio (z) = 0.29879 0.25463
#
# Static dielectric constant tensor:
#      x y z
#    x 2.983940 0.000000 0.000000 
#    y 0.000000 2.943640 0.000000 
#    z 0.000000 0.000000 3.500700 
# 
# 
# High freq. dielectric constant tensor:
#      x y z
#    x 1.607940 0.000000 0.000000 
#    y 0.000000 1.609940 0.000000 
#    z 0.000000 0.000000 1.648340 
# 
# From -- ./inp_files/3689.got.cif
#   From: 2010.06.25/outbox.cif.g09.slc.cpg/sg71_2_cif.got.tgz:3689.got - 2010.06.28 04:59:45.
