data_PCOD8292477
_publ_section_title
;
Structure prediction by ZEFSAII (Michael W. Deem and Ramdas Pophale) SiO2 
 PCOD8292477
Probable space group: I M M M
;
_chemical_formula_sum "Si O2"
_cell_formula_units_Z 88
_cell_length_a 9.035547
_cell_length_b 30.021028
_cell_length_c 17.935253
_cell_angle_alpha 90.000000
_cell_angle_beta 90.000000
_cell_angle_gamma 90.000000
_cell_volume 4865.052332
_symmetry_space_group_name_H-M "I M M M"
_symmetry_group_IT_number 71
_symmetry_cell_setting 'orthorhombic'
loop_
_space_group_symop_operation_xyz
x,y,z
-x,-y,z
x,-y,-z
-x,y,-z
-x,-y,-z
x,y,-z
-x,y,z
x,-y,z
1/2+x,1/2+y,1/2+z
1/2-x,1/2-y,1/2+z
1/2+x,1/2-y,1/2-z
1/2-x,1/2+y,1/2-z
1/2-x,1/2-y,1/2-z
1/2+x,1/2+y,1/2-z
1/2-x,1/2+y,1/2+z
1/2+x,1/2-y,1/2+z
loop_
_atom_site_type_symbol
_atom_site_label
_atom_site_fract_x
_atom_site_fract_y
_atom_site_fract_z
Si Si1 0.324215 0.049835 0.415483
Si Si2 0.331474 0.877994 0.298778
Si Si3 0.828116 0.000000 0.918527
Si Si4 0.169929 0.674436 0.583606
Si Si5 0.838082 0.579920 0.639114
Si Si6 0.175719 0.795964 0.229146
O O1 0.273348 0.060114 0.500000
O O2 0.500000 0.049787 0.409274
O O3 0.262581 0.089577 0.362712
O O4 0.267185 0.000000 0.392165
O O5 0.500000 0.863437 0.318272
O O6 0.328541 0.906114 0.224163
O O7 0.233459 0.833765 0.286633
O O8 0.785530 0.043487 0.873148
O O9 0.000000 0.000000 0.928497
O O10 0.751142 0.000000 0.000000
O O11 0.207310 0.691565 0.500000
O O12 0.191179 0.621364 0.584691
O O13 0.280637 0.695652 0.643183
O O14 0.000000 0.686328 0.605343
O O15 0.000000 0.559527 0.622457
O O16 0.250000 0.750000 0.250000
O O17 0.000000 0.793147 0.236050
#
# Coordination Sequence:
#
# PCOD8292477 Si02
#       6
#    16  16   8  16  16  16
#     4   8  14  26  49  81 111 139 175 222 271 317
#     4   9  18  33  54  78 105 136 174 218 267 321
#     4  11  23  33  41  61  96 133 168 210 253 287
#     4   9  18  35  58  81 104 131 167 212 264 320
#     4   9  18  31  49  71  96 131 171 206 246 302
#     4  11  22  37  57  79 107 140 179 222 270 323
#
# _framework density 18.088190999999998
#
# number of rings (size 3 to 8) (size 9 to 14) (size 15 to 20)
#    0.000    2.636    0.000    4.091    1.273    4.727 
#    0.000    0.909    0.000    3.818    0.000    1.273 
#    0.000    0.000    0.000    0.000    0.000    0.000 
#
# Total GULP energy -545354.034687 kJ/mol
# GULP energy per Si atom -12394.409879 kJ/mol
# Density = 1.804702 g / cm^3
# Si number density = 18.088191 Si / 1000 Ang^3
#
#
#
# Elastic Constant Matrix: (Units=GPa)
#
#
# Indices 1 2 3 4 5 6 
#
# 1 92.2967 59.5153 34.2913 0.0000 0.0000 0.0000
# 2 59.5153 126.5445 61.5181 0.0000 0.0000 0.0000
# 3 34.2913 61.5181 90.2113 0.0000 0.0002 0.0001
# 4 0.0000 0.0000 0.0000 16.3910 0.0000 0.0000
# 5 0.0000 0.0000 0.0002 0.0000 21.0328 0.0000
# 6 0.0000 0.0000 0.0001 0.0000 0.0000 28.1722
#
#
#
# Elastic Compliance Matrix: (Units=1/GPa)
#
#
# Indices 1 2 3 4 5 6 
#
# 1 0.015667 -0.006691 -0.001392 0.000000 0.000000 0.000000
# 2 -0.006691 0.014679 -0.007467 0.000000 0.000000 0.000000
# 3 -0.001392 -0.007467 0.016706 0.000000 0.000000 0.000000
# 4 0.000000 0.000000 0.000000 0.061009 0.000000 0.000000
# 5 0.000000 0.000000 0.000000 0.000000 0.047545 0.000000
# 6 0.000000 0.000000 0.000000 0.000000 0.000000 0.035496
#
#
# Mechanical properties :
#
#
# Convention : Reuss Voigt Hill
#
# Bulk Modulus (GPa) = 62.69032 68.85578 65.77305
# Shear Modulus (GPa) = 21.97611 23.36770 22.67191
#
# Velocity S-wave (km/s) = 3.48938 3.59817 3.54419
# Velocity P-wave (km/s) = 7.13917 7.44391 7.29313
#
# Compressibility (1/GPa) = 0.01595143
#
# Stress axis : x y z
#
# Youngs Moduli (GPa) = 63.82982 68.12327 59.85856
#
# Poissons Ratio (x) = 0.45584 0.08333
# Poissons Ratio (y) = 0.42711 0.44695
# Poissons Ratio (z) = 0.08886 0.50866
#
# Static dielectric constant tensor:
#      x y z
#    x 3.147250 0.000000 0.000000 
#    y 0.000000 3.384430 0.000000 
#    z 0.000000 0.000000 3.777000 
# 
# 
# High freq. dielectric constant tensor:
#      x y z
#    x 1.674220 0.000000 0.000000 
#    y 0.000000 1.694180 0.000000 
#    z 0.000000 0.000000 1.701750 
# 
# From -- ./inp_files/8836.got.cif
#   From: 2010.06.25/outbox.cif.g09.slc.cpg/sg71_5_cif.got.tgz:8836.got - 2010.06.28 04:59:45.
