data_PCOD8292507
_publ_section_title
;
Structure prediction by ZEFSAII (Michael W. Deem and Ramdas Pophale) SiO2 
 PCOD8292507
Probable space group: I M M M
;
_chemical_formula_sum "Si O2"
_cell_formula_units_Z 72
_cell_length_a 16.610089
_cell_length_b 24.539007
_cell_length_c 8.592547
_cell_angle_alpha 90.000000
_cell_angle_beta 90.000000
_cell_angle_gamma 90.000000
_cell_volume 3502.279970
_symmetry_space_group_name_H-M "I M M M"
_symmetry_group_IT_number 71
_symmetry_cell_setting 'orthorhombic'
loop_
_space_group_symop_operation_xyz
x,y,z
-x,-y,z
x,-y,-z
-x,y,-z
-x,-y,-z
x,y,-z
-x,y,z
x,-y,z
1/2+x,1/2+y,1/2+z
1/2-x,1/2-y,1/2+z
1/2+x,1/2-y,1/2-z
1/2-x,1/2+y,1/2-z
1/2-x,1/2-y,1/2-z
1/2+x,1/2+y,1/2-z
1/2-x,1/2+y,1/2+z
1/2+x,1/2-y,1/2+z
loop_
_atom_site_type_symbol
_atom_site_label
_atom_site_fract_x
_atom_site_fract_y
_atom_site_fract_z
Si Si1 0.409226 0.761369 0.320361
Si Si2 0.800311 0.350930 0.321656
Si Si3 0.870676 0.852511 0.318285
Si Si4 0.500000 0.439089 0.816343
Si Si5 0.093154 0.438379 0.176353
O O1 0.386482 0.768826 0.500000
O O2 0.500000 0.782680 0.288558
O O3 0.345216 0.794935 0.220065
O O4 0.404445 0.698358 0.276809
O O5 0.773078 0.347709 0.500000
O O6 0.723077 0.361108 0.214887
O O7 0.859612 0.401381 0.297216
O O8 0.884590 0.841368 0.500000
O O9 0.920170 0.906000 0.263725
O O10 0.500000 0.500000 0.740872
O O11 0.500000 0.445413 0.000000
O O12 0.124741 0.500000 0.191895
O O13 0.000000 0.435368 0.220394
O O14 0.106695 0.417157 0.000000
#
# Coordination Sequence:
#
# PCOD8292507 Si02
#       5
#    16  16  16   8  16
#     4  11  23  40  63  89 122 160 201 249 308 370
#     4  12  25  38  57  89 126 161 203 249 303 365
#     4  11  22  40  64  89 120 156 201 254 307 363
#     4   9  20  40  67  95 119 153 202 253 306 365
#     4   9  19  38  62  86 116 156 201 248 300 358
#
# _framework density 20.558035
#
# number of rings (size 3 to 8) (size 9 to 14) (size 15 to 20)
#    0.000    1.444    1.111    5.333    0.000    5.778 
#    0.000    3.333    0.000    4.667    0.000    0.000 
#    0.000    0.000    0.000    0.000    0.000    0.000 
#
# Total GULP energy -446541.664963 kJ/mol
# GULP energy per Si atom -12403.935138 kJ/mol
# Density = 2.051124 g / cm^3
# Si number density = 20.558035 Si / 1000 Ang^3
#
#
#
# Elastic Constant Matrix: (Units=GPa)
#
#
# Indices 1 2 3 4 5 6 
#
# 1 105.6157 51.6962 20.4181 0.0000 0.0000 0.0000
# 2 51.6962 129.1116 16.1510 0.0000 0.0000 0.0000
# 3 20.4181 16.1510 50.8640 -0.0001 -0.0001 0.0001
# 4 0.0000 0.0000 -0.0001 31.5487 0.0000 0.0000
# 5 0.0000 0.0000 -0.0001 0.0000 16.6246 0.0000
# 6 0.0000 0.0000 0.0001 0.0000 0.0000 18.0202
#
#
#
# Elastic Compliance Matrix: (Units=1/GPa)
#
#
# Indices 1 2 3 4 5 6 
#
# 1 0.012356 -0.004506 -0.003529 0.000000 0.000000 0.000000
# 2 -0.004506 0.009709 -0.001274 0.000000 0.000000 0.000000
# 3 -0.003529 -0.001274 0.021482 0.000000 0.000000 0.000000
# 4 0.000000 0.000000 0.000000 0.031697 0.000000 0.000000
# 5 0.000000 0.000000 0.000000 0.000000 0.060152 0.000000
# 6 0.000000 0.000000 0.000000 0.000000 0.000000 0.055493
#
#
# Mechanical properties :
#
#
# Convention : Reuss Voigt Hill
#
# Bulk Modulus (GPa) = 40.11562 51.34687 45.73124
# Shear Modulus (GPa) = 22.95512 26.39378 24.67445
#
# Velocity S-wave (km/s) = 3.34518 3.58700 3.46820
# Velocity P-wave (km/s) = 5.87163 6.49509 6.19121
#
# Compressibility (1/GPa) = 0.02492795
#
# Stress axis : x y z
#
# Youngs Moduli (GPa) = 80.93170 102.99974 46.55156
#
# Poissons Ratio (x) = 0.46410 0.16429
# Poissons Ratio (y) = 0.36467 0.05931
# Poissons Ratio (z) = 0.28563 0.13123
#
# Static dielectric constant tensor:
#      x y z
#    x 3.796810 0.000000 0.000000 
#    y 0.000000 3.838920 0.000000 
#    z 0.000000 0.000000 3.520640 
# 
# 
# High freq. dielectric constant tensor:
#      x y z
#    x 1.811370 0.000000 0.000000 
#    y 0.000000 1.810590 0.000000 
#    z 0.000000 0.000000 1.791200 
# 
# From -- ./inp_files/6103.got.cif
#   From: 2010.06.25/outbox.cif.g09.slc.cpg/sg71_4_cif.got.tgz:6103.got - 2010.06.28 04:59:45.
