data_PCOD8292151
_publ_section_title
;
Structure prediction by ZEFSAII (Michael W. Deem and Ramdas Pophale) SiO2 
 PCOD8292151
Probable space group: I M M M
;
_chemical_formula_sum "Si O2"
_cell_formula_units_Z 104
_cell_length_a 20.515981
_cell_length_b 8.891440
_cell_length_c 29.493145
_cell_angle_alpha 90.000000
_cell_angle_beta 90.000000
_cell_angle_gamma 90.000000
_cell_volume 5380.039650
_symmetry_space_group_name_H-M "I M M M"
_symmetry_group_IT_number 71
_symmetry_cell_setting 'orthorhombic'
loop_
_space_group_symop_operation_xyz
x,y,z
-x,-y,z
x,-y,-z
-x,y,-z
-x,-y,-z
x,y,-z
-x,y,z
x,-y,z
1/2+x,1/2+y,1/2+z
1/2-x,1/2-y,1/2+z
1/2+x,1/2-y,1/2-z
1/2-x,1/2+y,1/2-z
1/2-x,1/2-y,1/2-z
1/2+x,1/2+y,1/2-z
1/2-x,1/2+y,1/2+z
1/2+x,1/2-y,1/2+z
loop_
_atom_site_type_symbol
_atom_site_label
_atom_site_fract_x
_atom_site_fract_y
_atom_site_fract_z
Si Si1 0.718457 0.677237 0.865522
Si Si2 0.143613 0.825106 0.129429
Si Si3 0.500000 0.167905 0.946235
Si Si4 0.811038 0.676352 0.724684
Si Si5 0.631258 0.676800 0.948655
Si Si6 0.073906 0.327026 0.208441
Si Si7 0.075474 0.670159 0.948314
O O1 0.715129 0.500000 0.858342
O O2 0.792269 0.729595 0.861284
O O3 0.678395 0.755897 0.825288
O O4 0.689122 0.724120 0.914509
O O5 0.088933 0.777692 0.165488
O O6 0.117463 0.789058 0.079507
O O7 0.159989 0.000000 0.133609
O O8 0.435084 0.251200 0.929370
O O9 0.500000 0.000000 0.926180
O O10 0.500000 0.167303 0.000000
O O11 0.797417 0.500000 0.721371
O O12 0.750000 0.750000 0.750000
O O13 0.877722 0.713687 0.750760
O O14 0.620430 0.500000 0.948745
O O15 0.648174 0.732555 0.000000
O O16 0.082642 0.500000 0.193464
O O17 0.000000 0.295130 0.224475
O O18 0.088497 0.500000 0.931084
O O19 0.000000 0.710666 0.943131
O O20 0.098048 0.685042 0.000000
#
# Coordination Sequence:
#
# PCOD8292151 Si02
#       7
#    16  16   8  16  16  16  16
#     4  11  23  39  60  85 116 154 198 243 289 345
#     4  12  24  36  56  86 118 152 192 241 296 349
#     4   9  17  31  55  85 115 149 187 233 291 347
#     4  11  22  39  64  89 119 156 195 239 294 355
#     4   9  19  37  60  84 113 152 197 241 285 342
#     4  10  22  41  64  87 114 152 197 240 287 352
#     4   9  19  37  59  81 110 152 197 238 284 342
#
# _framework density 19.330711000000001
#
# number of rings (size 3 to 8) (size 9 to 14) (size 15 to 20)
#    0.000    1.769    1.538    3.462    0.000    6.154 
#    1.385    2.308    0.000    0.000    0.000    0.000 
#    0.000    0.000    0.000    0.000    0.000    0.000 
#
# Total GULP energy -644938.690177 kJ/mol
# GULP energy per Si atom -12402.667119 kJ/mol
# Density = 1.928671 g / cm^3
# Si number density = 19.330711 Si / 1000 Ang^3
#
#
#
# Elastic Constant Matrix: (Units=GPa)
#
#
# Indices 1 2 3 4 5 6 
#
# 1 113.1837 38.5492 52.2609 0.0000 0.0000 0.0000
# 2 38.5492 73.3625 45.8171 0.0000 0.0000 0.0000
# 3 52.2609 45.8171 113.1431 0.0000 0.0000 0.0000
# 4 0.0000 0.0000 0.0000 32.9551 0.0000 0.0000
# 5 0.0000 0.0000 0.0000 0.0000 35.3184 0.0000
# 6 0.0000 0.0000 0.0000 0.0000 0.0000 22.4956
#
#
#
# Elastic Compliance Matrix: (Units=1/GPa)
#
#
# Indices 1 2 3 4 5 6 
#
# 1 0.011972 -0.003798 -0.003992 0.000000 0.000000 0.000000
# 2 -0.003798 0.019450 -0.006122 0.000000 0.000000 0.000000
# 3 -0.003992 -0.006122 0.013161 0.000000 0.000000 0.000000
# 4 0.000000 0.000000 0.000000 0.030344 0.000000 0.000000
# 5 0.000000 0.000000 0.000000 0.000000 0.028314 0.000000
# 6 0.000000 0.000000 0.000000 0.000000 0.000000 0.044453
#
#
# Mechanical properties :
#
#
# Convention : Reuss Voigt Hill
#
# Bulk Modulus (GPa) = 59.66668 63.66040 61.66354
# Shear Modulus (GPa) = 27.60840 29.02464 28.31652
#
# Velocity S-wave (km/s) = 3.78327 3.87909 3.83148
# Velocity P-wave (km/s) = 7.07230 7.28470 7.17929
#
# Compressibility (1/GPa) = 0.01675977
#
# Stress axis : x y z
#
# Youngs Moduli (GPa) = 83.52913 51.41418 75.98000
#
# Poissons Ratio (x) = 0.19525 0.30331
# Poissons Ratio (y) = 0.31722 0.46515
# Poissons Ratio (z) = 0.33344 0.31476
#
# Static dielectric constant tensor:
#      x y z
#    x 3.560050 0.000000 0.000000 
#    y 0.000000 3.541260 0.000000 
#    z 0.000000 0.000000 3.681020 
# 
# 
# High freq. dielectric constant tensor:
#      x y z
#    x 1.751600 0.000000 0.000000 
#    y 0.000000 1.750820 0.000000 
#    z 0.000000 0.000000 1.751080 
# 
# From -- ./inp_files/70724.got.cif
#   From: 2010.06.25/outbox.cif.g09.slc.cpg/sg71_36_cif.got.tgz:70724.got - 2010.06.28 04:59:45.
