data_PCOD8292333
_publ_section_title
;
Structure prediction by ZEFSAII (Michael W. Deem and Ramdas Pophale) SiO2 
 PCOD8292333
Probable space group: I M M M
;
_chemical_formula_sum "Si O2"
_cell_formula_units_Z 72
_cell_length_a 29.019856
_cell_length_b 15.335180
_cell_length_c 9.003444
_cell_angle_alpha 90.000000
_cell_angle_beta 90.000000
_cell_angle_gamma 90.000000
_cell_volume 4006.755103
_symmetry_space_group_name_H-M "I M M M"
_symmetry_group_IT_number 71
_symmetry_cell_setting 'orthorhombic'
loop_
_space_group_symop_operation_xyz
x,y,z
-x,-y,z
x,-y,-z
-x,y,-z
-x,-y,-z
x,y,-z
-x,y,z
x,-y,z
1/2+x,1/2+y,1/2+z
1/2-x,1/2-y,1/2+z
1/2+x,1/2-y,1/2-z
1/2-x,1/2+y,1/2-z
1/2-x,1/2-y,1/2-z
1/2+x,1/2+y,1/2-z
1/2-x,1/2+y,1/2+z
1/2+x,1/2-y,1/2+z
loop_
_atom_site_type_symbol
_atom_site_label
_atom_site_fract_x
_atom_site_fract_y
_atom_site_fract_z
Si Si1 0.806159 0.899274 0.672078
Si Si2 0.553139 0.310875 0.176288
Si Si3 0.552612 0.500000 0.825902
Si Si4 0.138282 0.249295 0.175953
Si Si5 0.701763 0.904162 0.323653
O O1 0.812084 0.872942 0.500000
O O2 0.838511 0.840009 0.772224
O O3 0.753859 0.883868 0.727266
O O4 0.820719 0.000000 0.694520
O O5 0.500000 0.295034 0.223769
O O6 0.572007 0.407032 0.231266
O O7 0.586540 0.242379 0.257799
O O8 0.557792 0.301430 0.000000
O O9 0.500000 0.500000 0.779945
O O10 0.558700 0.500000 0.000000
O O11 0.167286 0.331190 0.239799
O O12 0.135608 0.251589 0.000000
O O13 0.700776 0.904707 0.500000
O O14 0.686763 0.000000 0.264269
#
# Coordination Sequence:
#
# PCOD8292333 Si02
#       5
#    16  16   8  16  16
#     4   9  18  33  52  71  96 134 172 197 225 284
#     4   9  18  33  51  69  93 129 170 202 231 283
#     4   7  12  26  47  65  81 113 161 197 217 257
#     4  11  21  30  48  77 104 126 155 205 256 290
#     4   8  16  33  53  71  94 129 170 204 237 284
#
# _framework density 17.969653999999998
#
# number of rings (size 3 to 8) (size 9 to 14) (size 15 to 20)
#    0.000    3.000    0.000    4.000    1.556    0.889 
#    0.000    1.111    0.000    8.000    0.000    4.667 
#    0.000    0.000    0.000    0.000    0.000    0.000 
#
# Total GULP energy -446036.043950 kJ/mol
# GULP energy per Si atom -12389.890110 kJ/mol
# Density = 1.792875 g / cm^3
# Si number density = 17.969654 Si / 1000 Ang^3
#
#
#
# Elastic Constant Matrix: (Units=GPa)
#
#
# Indices 1 2 3 4 5 6 
#
# 1 108.6934 59.4532 31.2668 0.0000 0.0000 0.0000
# 2 59.4532 78.2032 24.5304 0.0000 0.0000 0.0000
# 3 31.2668 24.5304 38.8783 0.0000 0.0000 0.0000
# 4 0.0000 0.0000 0.0000 20.0722 0.0000 0.0000
# 5 0.0000 0.0000 0.0000 0.0000 29.1155 0.0000
# 6 0.0000 0.0000 0.0000 0.0000 0.0000 29.5356
#
#
#
# Elastic Compliance Matrix: (Units=1/GPa)
#
#
# Indices 1 2 3 4 5 6 
#
# 1 0.017126 -0.010846 -0.006930 0.000000 0.000000 0.000000
# 2 -0.010846 0.022812 -0.005670 0.000000 0.000000 0.000000
# 3 -0.006930 -0.005670 0.034872 0.000000 0.000000 0.000000
# 4 0.000000 0.000000 0.000000 0.049820 0.000000 0.000000
# 5 0.000000 0.000000 0.000000 0.000000 0.034346 0.000000
# 6 0.000000 0.000000 0.000000 0.000000 0.000000 0.033857
#
#
# Mechanical properties :
#
#
# Convention : Reuss Voigt Hill
#
# Bulk Modulus (GPa) = 35.82020 50.69733 43.25877
# Shear Modulus (GPa) = 20.07770 23.11296 21.59533
#
# Velocity S-wave (km/s) = 3.34625 3.59028 3.47041
# Velocity P-wave (km/s) = 5.90820 6.74247 6.33907
#
# Compressibility (1/GPa) = 0.02791721
#
# Stress axis : x y z
#
# Youngs Moduli (GPa) = 58.38925 43.83716 28.67628
#
# Poissons Ratio (x) = 0.47548 0.19872
# Poissons Ratio (y) = 0.63332 0.16260
# Poissons Ratio (z) = 0.40463 0.24856
#
# Static dielectric constant tensor:
#      x y z
#    x 3.466370 0.000000 0.000000 
#    y 0.000000 3.646930 0.000000 
#    z 0.000000 0.000000 2.912980 
# 
# 
# High freq. dielectric constant tensor:
#      x y z
#    x 1.700560 0.000000 0.000000 
#    y 0.000000 1.682650 0.000000 
#    z 0.000000 0.000000 1.656400 
# 
# From -- ./inp_files/6465.got.cif
#   From: 2010.06.25/outbox.cif.g09.slc.cpg/sg71_4_cif.got.tgz:6465.got - 2010.06.28 04:59:45.
