data_PCOD8292008
_publ_section_title
;
Structure prediction by ZEFSAII (Michael W. Deem and Ramdas Pophale) SiO2 
 PCOD8292008
Probable space group: I M M M
;
_chemical_formula_sum "Si O2"
_cell_formula_units_Z 56
_cell_length_a 8.405015
_cell_length_b 15.276363
_cell_length_c 19.906787
_cell_angle_alpha 90.000000
_cell_angle_beta 90.000000
_cell_angle_gamma 90.000000
_cell_volume 2555.992835
_symmetry_space_group_name_H-M "I M M M"
_symmetry_group_IT_number 71
_symmetry_cell_setting 'orthorhombic'
loop_
_space_group_symop_operation_xyz
x,y,z
-x,-y,z
x,-y,-z
-x,y,-z
-x,-y,-z
x,y,-z
-x,y,z
x,-y,z
1/2+x,1/2+y,1/2+z
1/2-x,1/2-y,1/2+z
1/2+x,1/2-y,1/2-z
1/2-x,1/2+y,1/2-z
1/2-x,1/2-y,1/2-z
1/2+x,1/2+y,1/2-z
1/2-x,1/2+y,1/2+z
1/2+x,1/2-y,1/2+z
loop_
_atom_site_type_symbol
_atom_site_label
_atom_site_fract_x
_atom_site_fract_y
_atom_site_fract_z
Si Si1 0.314678 0.000000 0.873782
Si Si2 0.815938 0.349845 0.136477
Si Si3 0.316226 0.500000 0.228065
Si Si4 0.673907 0.401807 0.000000
Si Si5 0.187316 0.316813 0.422951
O O1 0.240209 0.913060 0.908090
O O2 0.500000 0.000000 0.889382
O O3 0.288050 0.000000 0.794573
O O4 0.719543 0.410584 0.187876
O O5 0.784614 0.384677 0.062743
O O6 0.759278 0.248635 0.133471
O O7 0.000000 0.355766 0.155927
O O8 0.500000 0.500000 0.247522
O O9 0.619711 0.500000 0.000000
O O10 0.500000 0.349800 0.000000
O O11 0.231296 0.288241 0.500000
O O12 0.000000 0.318325 0.412015
#
# Coordination Sequence:
#
# PCOD8292008 Si02
#       5
#     8  16   8   8  16
#     4  10  23  44  67  93 124 167 217 262 309 369
#     4  12  24  38  62  95 129 164 206 259 313 373
#     4  12  26  44  64  89 126 173 213 257 315 377
#     4  11  21  35  59  90 126 165 204 252 313 377
#     4  10  21  40  68  97 128 164 207 259 316 375
#
# _framework density 21.909295
#
# number of rings (size 3 to 8) (size 9 to 14) (size 15 to 20)
#    0.000    1.000    2.857    4.714    0.000    4.571 
#    0.000    0.000    0.000    2.571    0.000    0.000 
#    0.000    0.000    0.000    0.000    0.000    0.000 
#
# Total GULP energy -347061.268567 kJ/mol
# GULP energy per Si atom -12395.045306 kJ/mol
# Density = 2.185943 g / cm^3
# Si number density = 21.909295 Si / 1000 Ang^3
#
#
#
# Elastic Constant Matrix: (Units=GPa)
#
#
# Indices 1 2 3 4 5 6 
#
# 1 57.3499 20.4072 -6.9034 0.0000 0.0000 0.0000
# 2 20.4072 154.8046 14.2368 0.0000 0.0000 0.0000
# 3 -6.9034 14.2368 57.5559 0.0000 0.0000 0.0000
# 4 0.0000 0.0000 0.0000 -34.8873 0.0000 0.0000
# 5 0.0000 0.0000 0.0000 0.0000 25.3558 0.0000
# 6 0.0000 0.0000 0.0000 0.0000 0.0000 20.3284
#
#
#
# Elastic Compliance Matrix: (Units=1/GPa)
#
#
# Indices 1 2 3 4 5 6 
#
# 1 0.018766 -0.002743 0.002929 0.000000 0.000000 0.000000
# 2 -0.002743 0.007011 -0.002063 0.000000 0.000000 0.000000
# 3 0.002929 -0.002063 0.018236 0.000000 0.000000 0.000000
# 4 0.000000 0.000000 0.000000 -0.028664 0.000000 0.000000
# 5 0.000000 0.000000 0.000000 0.000000 0.039439 0.000000
# 6 0.000000 0.000000 0.000000 0.000000 0.000000 0.049192
#
#
# Mechanical properties :
#
#
# Convention : Reuss Voigt Hill
#
# Bulk Modulus (GPa) = 24.83942 36.13239 30.48590
# Shear Modulus (GPa) = 41.26987 18.29070 29.78028
#
# Velocity S-wave (km/s) = 4.34483 2.89249 3.69081
# Velocity P-wave (km/s) = 6.04418 5.26146 5.66635
#
# Compressibility (1/GPa) = 0.04025859
#
# Stress axis : x y z
#
# Youngs Moduli (GPa) = 53.28911 142.63044 54.83617
#
# Poissons Ratio (x) = 0.39126 -0.16063
# Poissons Ratio (y) = 0.14618 0.11314
# Poissons Ratio (z) = -0.15610 0.29428
#
# Static dielectric constant tensor:
#      x y z
#    x 3.665400 0.000000 0.000000 
#    y 0.000000 4.713200 0.000000 
#    z 0.000000 0.000000 3.727750 
# 
# 
# High freq. dielectric constant tensor:
#      x y z
#    x 1.846570 0.000000 0.000000 
#    y 0.000000 1.890690 0.000000 
#    z 0.000000 0.000000 1.845030 
# 
# From -- ./inp_files/49832.got.cif
#   From: 2010.06.25/outbox.cif.g09.slc.cpg/sg71_25_cif.got.tgz:49832.got - 2010.06.28 04:59:45.
