data_PCOD8292302
_publ_section_title
;
Structure prediction by ZEFSAII (Michael W. Deem and Ramdas Pophale) SiO2 
 PCOD8292302
Probable space group: I M M M
;
_chemical_formula_sum "Si O2"
_cell_formula_units_Z 72
_cell_length_a 19.898149
_cell_length_b 8.906068
_cell_length_c 21.555092
_cell_angle_alpha 90.000000
_cell_angle_beta 90.000000
_cell_angle_gamma 90.000000
_cell_volume 3819.869852
_symmetry_space_group_name_H-M "I M M M"
_symmetry_group_IT_number 71
_symmetry_cell_setting 'orthorhombic'
loop_
_space_group_symop_operation_xyz
x,y,z
-x,-y,z
x,-y,-z
-x,y,-z
-x,-y,-z
x,y,-z
-x,y,z
x,-y,z
1/2+x,1/2+y,1/2+z
1/2-x,1/2-y,1/2+z
1/2+x,1/2-y,1/2-z
1/2-x,1/2+y,1/2-z
1/2-x,1/2-y,1/2-z
1/2+x,1/2+y,1/2-z
1/2-x,1/2+y,1/2+z
1/2+x,1/2-y,1/2+z
loop_
_atom_site_type_symbol
_atom_site_label
_atom_site_fract_x
_atom_site_fract_y
_atom_site_fract_z
Si Si1 0.387242 0.324978 0.569989
Si Si2 0.500000 0.825189 0.351679
Si Si3 0.000000 0.323363 0.292075
Si Si4 0.423044 0.661614 0.000000
Si Si5 0.767148 0.676710 0.570936
Si Si6 0.883375 0.820436 0.630095
O O1 0.408806 0.282618 0.500000
O O2 0.398027 0.500000 0.581343
O O3 0.432610 0.237958 0.618391
O O4 0.310198 0.279721 0.581103
O O5 0.500000 0.782610 0.279775
O O6 0.500000 0.000000 0.362633
O O7 0.068779 0.252628 0.318696
O O8 0.000000 0.500000 0.305196
O O9 0.406795 0.747478 0.936467
O O10 0.384481 0.500000 0.000000
O O11 0.500000 0.625802 0.000000
O O12 0.788895 0.725757 0.500000
O O13 0.777883 0.500000 0.578406
O O14 0.806208 0.762622 0.627477
O O15 0.888473 0.000000 0.636688
#
# Coordination Sequence:
#
# PCOD8292302 Si02
#       6
#    16   8   8   8  16  16
#     4   9  19  37  62  89 115 142 175 218 273 337
#     4  11  24  40  58  81 110 142 184 236 279 322
#     4  11  25  41  53  73 109 151 193 234 273 319
#     4   9  16  28  46  74 110 137 170 225 272 310
#     4   9  18  33  54  84 118 147 175 215 272 332
#     4  11  20  33  54  81 112 146 185 229 273 318
#
# _framework density 18.84881
#
# number of rings (size 3 to 8) (size 9 to 14) (size 15 to 20)
#    0.000    2.111    2.222    3.000    0.000    4.444 
#    0.000    3.889    0.000    0.000    0.000    0.000 
#    0.000    0.000    0.000    0.000    0.000    0.000 
#
# Total GULP energy -446070.703185 kJ/mol
# GULP energy per Si atom -12390.852866 kJ/mol
# Density = 1.880591 g / cm^3
# Si number density = 18.848810 Si / 1000 Ang^3
#
#
#
# Elastic Constant Matrix: (Units=GPa)
#
#
# Indices 1 2 3 4 5 6 
#
# 1 125.0493 59.7512 76.8473 0.0000 0.0000 0.0000
# 2 59.7512 79.5084 70.9146 0.0000 0.0000 0.0000
# 3 76.8473 70.9146 113.5568 0.0000 0.0000 0.0000
# 4 0.0000 0.0000 0.0000 28.2641 0.0000 0.0000
# 5 0.0000 0.0000 0.0000 0.0000 -61.8428 0.0000
# 6 0.0000 0.0000 0.0000 0.0000 0.0000 30.4619
#
#
#
# Elastic Compliance Matrix: (Units=1/GPa)
#
#
# Indices 1 2 3 4 5 6 
#
# 1 0.014468 -0.004831 -0.006774 0.000000 0.000000 0.000000
# 2 -0.004831 0.030003 -0.015467 0.000000 0.000000 0.000000
# 3 -0.006774 -0.015467 0.023050 0.000000 0.000000 0.000000
# 4 0.000000 0.000000 0.000000 0.035381 0.000000 0.000000
# 5 0.000000 0.000000 0.000000 0.000000 -0.016170 0.000000
# 6 0.000000 0.000000 0.000000 0.000000 0.000000 0.032828
#
#
# Mechanical properties :
#
#
# Convention : Reuss Voigt Hill
#
# Bulk Modulus (GPa) = 74.76043 81.46010 78.11026
# Shear Modulus (GPa) = 28.06414 6.75009 17.40711
#
# Velocity S-wave (km/s) = 3.86282 1.89445 3.04223
# Velocity P-wave (km/s) = 7.72299 6.93518 7.33966
#
# Compressibility (1/GPa) = 0.01337606
#
# Stress axis : x y z
#
# Youngs Moduli (GPa) = 69.11739 33.32958 43.38460
#
# Poissons Ratio (x) = 0.16101 0.29390
# Poissons Ratio (y) = 0.33390 0.67105
# Poissons Ratio (z) = 0.46821 0.51552
#
# Static dielectric constant tensor:
#      x y z
#    x 3.763880 0.000000 0.000000 
#    y 0.000000 3.410770 0.000000 
#    z 0.000000 0.000000 3.307990 
# 
# 
# High freq. dielectric constant tensor:
#      x y z
#    x 1.746570 0.000000 0.000000 
#    y 0.000000 1.725580 0.000000 
#    z 0.000000 0.000000 1.709680 
# 
# From -- ./inp_files/54700.got.cif
#   From: 2010.06.25/outbox.cif.g09.slc.cpg/sg71_28_cif.got.tgz:54700.got - 2010.06.28 04:59:45.
