data_PCOD8292059
_publ_section_title
;
Structure prediction by ZEFSAII (Michael W. Deem and Ramdas Pophale) SiO2 
 PCOD8292059
Probable space group: I M M M
;
_chemical_formula_sum "Si O2"
_cell_formula_units_Z 64
_cell_length_a 17.369369
_cell_length_b 9.540113
_cell_length_c 20.565443
_cell_angle_alpha 90.000000
_cell_angle_beta 90.000000
_cell_angle_gamma 90.000000
_cell_volume 3407.812012
_symmetry_space_group_name_H-M "I M M M"
_symmetry_group_IT_number 71
_symmetry_cell_setting 'orthorhombic'
loop_
_space_group_symop_operation_xyz
x,y,z
-x,-y,z
x,-y,-z
-x,y,-z
-x,-y,-z
x,y,-z
-x,y,z
x,-y,z
1/2+x,1/2+y,1/2+z
1/2-x,1/2-y,1/2+z
1/2+x,1/2-y,1/2-z
1/2-x,1/2+y,1/2-z
1/2-x,1/2-y,1/2-z
1/2+x,1/2+y,1/2-z
1/2-x,1/2+y,1/2+z
1/2+x,1/2-y,1/2+z
loop_
_atom_site_type_symbol
_atom_site_label
_atom_site_fract_x
_atom_site_fract_y
_atom_site_fract_z
Si Si1 0.647667 0.836274 0.575152
Si Si2 0.500000 0.341046 0.423179
Si Si3 0.264289 0.342483 0.187982
Si Si4 0.413627 0.342598 0.116953
Si Si5 0.408618 0.155337 0.000000
O O1 0.670342 0.801226 0.500000
O O2 0.575571 0.743610 0.599533
O O3 0.718266 0.796047 0.622875
O O4 0.625629 0.000000 0.580884
O O5 0.500000 0.500000 0.394183
O O6 0.500000 0.348598 0.500000
O O7 0.239877 0.500000 0.205681
O O8 0.250000 0.250000 0.250000
O O9 0.355929 0.331214 0.177072
O O10 0.500000 0.302586 0.140139
O O11 0.412634 0.500000 0.087722
O O12 0.380709 0.237461 0.063184
O O13 0.500000 0.149953 0.000000
O O14 0.372457 0.000000 0.000000
#
# Coordination Sequence:
#
# PCOD8292059 Si02
#       5
#    16   8  16  16   8
#     4   9  18  34  57  81 107 144 185 223 267 325
#     4   9  17  31  53  83 113 137 172 227 282 327
#     4  10  22  38  56  79 112 148 184 227 272 323
#     4   9  18  34  56  79 106 144 185 221 263 320
#     4   9  17  29  49  81 113 138 171 220 271 313
#
# _framework density 18.780377999999999
#
# number of rings (size 3 to 8) (size 9 to 14) (size 15 to 20)
#    0.000    2.750    0.000    0.750    1.750    5.000 
#    2.250    0.000    0.000    0.000    0.000    0.000 
#    0.000    0.000    0.000    0.000    0.000    0.000 
#
# Total GULP energy -396633.549200 kJ/mol
# GULP energy per Si atom -12394.798412 kJ/mol
# Density = 1.873763 g / cm^3
# Si number density = 18.780378 Si / 1000 Ang^3
#
#
#
# Elastic Constant Matrix: (Units=GPa)
#
#
# Indices 1 2 3 4 5 6 
#
# 1 110.5631 51.2771 55.1335 0.0000 0.0000 0.0000
# 2 51.2771 102.4869 58.6806 0.0000 0.0000 0.0000
# 3 55.1335 58.6806 104.5534 0.0000 0.0000 0.0000
# 4 0.0000 0.0000 0.0000 34.4890 0.0000 0.0000
# 5 0.0000 0.0000 0.0000 0.0000 17.9728 0.0000
# 6 0.0000 0.0000 0.0000 0.0000 0.0000 22.0269
#
#
#
# Elastic Compliance Matrix: (Units=1/GPa)
#
#
# Indices 1 2 3 4 5 6 
#
# 1 0.013237 -0.003870 -0.004808 0.000000 0.000000 0.000000
# 2 -0.003870 0.015509 -0.006664 0.000000 0.000000 0.000000
# 3 -0.004808 -0.006664 0.015840 0.000000 0.000000 0.000000
# 4 0.000000 0.000000 0.000000 0.028995 0.000000 0.000000
# 5 0.000000 0.000000 0.000000 0.000000 0.055640 0.000000
# 6 0.000000 0.000000 0.000000 0.000000 0.000000 0.045399
#
#
# Mechanical properties :
#
#
# Convention : Reuss Voigt Hill
#
# Bulk Modulus (GPa) = 71.93025 71.97621 71.95323
# Shear Modulus (GPa) = 23.81661 25.06520 24.44091
#
# Velocity S-wave (km/s) = 3.56499 3.65725 3.61141
# Velocity P-wave (km/s) = 7.43838 7.49949 7.46900
#
# Compressibility (1/GPa) = 0.01390236
#
# Stress axis : x y z
#
# Youngs Moduli (GPa) = 75.54541 64.47877 63.13108
#
# Poissons Ratio (x) = 0.24952 0.30355
# Poissons Ratio (y) = 0.29235 0.42069
# Poissons Ratio (z) = 0.36324 0.42967
#
# Static dielectric constant tensor:
#      x y z
#    x 3.591450 0.000000 0.000000 
#    y 0.000000 3.694820 0.000000 
#    z 0.000000 0.000000 3.111310 
# 
# 
# High freq. dielectric constant tensor:
#      x y z
#    x 1.729990 0.000000 0.000000 
#    y 0.000000 1.730560 0.000000 
#    z 0.000000 0.000000 1.698210 
# 
# From -- ./inp_files/9527.got.cif
#   From: 2010.06.25/outbox.cif.g09.slc.cpg/sg71_5_cif.got.tgz:9527.got - 2010.06.28 04:59:45.
