data_PCOD8292661
_publ_section_title
;
Structure prediction by ZEFSAII (Michael W. Deem and Ramdas Pophale) SiO2 
 PCOD8292661
Probable space group: I M M M
;
_chemical_formula_sum "Si O2"
_cell_formula_units_Z 104
_cell_length_a 33.320878
_cell_length_b 18.014766
_cell_length_c 9.672978
_cell_angle_alpha 90.000000
_cell_angle_beta 90.000000
_cell_angle_gamma 90.000000
_cell_volume 5806.377418
_symmetry_space_group_name_H-M "I M M M"
_symmetry_group_IT_number 71
_symmetry_cell_setting 'orthorhombic'
loop_
_space_group_symop_operation_xyz
x,y,z
-x,-y,z
x,-y,-z
-x,y,-z
-x,-y,-z
x,y,-z
-x,y,z
x,-y,z
1/2+x,1/2+y,1/2+z
1/2-x,1/2-y,1/2+z
1/2+x,1/2-y,1/2-z
1/2-x,1/2+y,1/2-z
1/2-x,1/2-y,1/2-z
1/2+x,1/2+y,1/2-z
1/2-x,1/2+y,1/2+z
1/2+x,1/2-y,1/2+z
loop_
_atom_site_type_symbol
_atom_site_label
_atom_site_fract_x
_atom_site_fract_y
_atom_site_fract_z
Si Si1 0.378497 0.827880 0.664115
Si Si2 0.500000 0.411232 0.154414
Si Si3 0.069373 0.912776 0.846775
Si Si4 0.800136 0.587262 0.844003
Si Si5 0.544860 0.084077 0.664390
Si Si6 0.647115 0.331621 0.337488
Si Si7 0.774409 0.913644 0.837642
O O1 0.382261 0.823570 0.500000
O O2 0.342172 0.880770 0.709881
O O3 0.420656 0.860483 0.724262
O O4 0.367674 0.746740 0.726246
O O5 0.500000 0.500000 0.150024
O O6 0.538480 0.379741 0.235814
O O7 0.500000 0.378381 0.000000
O O8 0.113933 0.892669 0.798933
O O9 0.064825 0.000000 0.853517
O O10 0.060302 0.879314 0.000000
O O11 0.804554 0.500000 0.839233
O O12 0.764720 0.614364 0.743786
O O13 0.790769 0.614950 0.000000
O O14 0.546821 0.084547 0.500000
O O15 0.500000 0.109541 0.712748
O O16 0.553221 0.000000 0.716856
O O17 0.652371 0.322862 0.500000
O O18 0.689250 0.362647 0.279563
O O19 0.784000 0.000000 0.806100
O O20 0.767001 0.901886 0.000000
#
# Coordination Sequence:
#
# PCOD8292661 Si02
#       7
#    16   8  16  16  16  16  16
#     4   9  16  26  40  62  92 118 143 180 225 269
#     4   9  17  29  45  65  87 111 144 185 226 266
#     4   9  16  28  46  65  85 112 148 187 224 263
#     4   9  17  29  46  67  90 117 148 183 224 268
#     4   8  13  22  37  57  84 118 148 174 214 268
#     4   9  17  28  42  62  87 117 150 184 223 265
#     4   9  17  30  47  65  87 117 152 187 222 261
#
# _framework density 17.911339000000002
#
# number of rings (size 3 to 8) (size 9 to 14) (size 15 to 20)
#    0.000    3.154    0.000    1.615    0.000    5.231 
#    1.385    0.769    0.000    4.615    0.000    0.000 
#    0.000    0.000    0.000    5.692    0.000    5.538 
#
# Total GULP energy -644398.054993 kJ/mol
# GULP energy per Si atom -12392.270288 kJ/mol
# Density = 1.787057 g / cm^3
# Si number density = 17.911339 Si / 1000 Ang^3
#
#
#
# Elastic Constant Matrix: (Units=GPa)
#
#
# Indices 1 2 3 4 5 6 
#
# 1 172.3854 53.9090 46.8826 0.0000 0.0000 0.0000
# 2 53.9090 51.7173 16.3395 0.0000 0.0000 0.0000
# 3 46.8826 16.3395 47.3304 0.0000 0.0000 0.0000
# 4 0.0000 0.0000 0.0000 7.9566 0.0000 0.0000
# 5 0.0000 0.0000 0.0000 0.0000 21.6600 0.0000
# 6 0.0000 0.0000 0.0000 0.0000 0.0000 16.7609
#
#
#
# Elastic Compliance Matrix: (Units=1/GPa)
#
#
# Indices 1 2 3 4 5 6 
#
# 1 0.010520 -0.008613 -0.007447 0.000000 0.000000 0.000000
# 2 -0.008613 0.028754 -0.001395 0.000000 0.000000 0.000000
# 3 -0.007447 -0.001395 0.028986 0.000000 0.000000 0.000000
# 4 0.000000 0.000000 0.000000 0.125682 0.000000 0.000000
# 5 0.000000 0.000000 0.000000 0.000000 0.046168 0.000000
# 6 0.000000 0.000000 0.000000 0.000000 0.000000 0.059663
#
#
# Mechanical properties :
#
#
# Convention : Reuss Voigt Hill
#
# Bulk Modulus (GPa) = 29.98468 56.18835 43.08652
# Shear Modulus (GPa) = 14.45922 19.56229 17.01076
#
# Velocity S-wave (km/s) = 2.84433 3.30839 3.08510
# Velocity P-wave (km/s) = 5.25013 6.78471 6.06614
#
# Compressibility (1/GPa) = 0.03335036
#
# Stress axis : x y z
#
# Youngs Moduli (GPa) = 95.06053 34.77723 34.49921
#
# Poissons Ratio (x) = 0.29953 0.25691
# Poissons Ratio (y) = 0.81873 0.04814
# Poissons Ratio (z) = 0.70790 0.04853
#
# Static dielectric constant tensor:
#      x y z
#    x 3.614800 0.000000 0.000000 
#    y 0.000000 3.293130 0.000000 
#    z 0.000000 0.000000 2.947120 
# 
# 
# High freq. dielectric constant tensor:
#      x y z
#    x 1.709000 0.000000 0.000000 
#    y 0.000000 1.678900 0.000000 
#    z 0.000000 0.000000 1.631030 
# 
# From -- ./inp_files/30199.got.cif
#   From: 2010.06.25/outbox.cif.g09.slc.cpg/sg71_16_cif.got.tgz:30199.got - 2010.06.28 04:59:45.
