data_PCOD8292860
_publ_section_title
;
Structure prediction by ZEFSAII (Michael W. Deem and Ramdas Pophale) SiO2 
 PCOD8292860
Probable space group: I B A M
;
_chemical_formula_sum "Si O2"
_cell_formula_units_Z 112
_cell_length_a 22.818388
_cell_length_b 15.482008
_cell_length_c 17.683258
_cell_angle_alpha 90.000000
_cell_angle_beta 90.000000
_cell_angle_gamma 90.000000
_cell_volume 6247.043519
_symmetry_space_group_name_H-M "I B A M"
_symmetry_group_IT_number 72
_symmetry_cell_setting 'orthorhombic'
loop_
_space_group_symop_operation_xyz
x,y,z
-x,-y,z
x,-y,1/2-z
-x,y,1/2-z
-x,-y,-z
x,y,-z
-x,y,1/2+z
x,-y,1/2+z
1/2+x,1/2+y,1/2+z
1/2-x,1/2-y,1/2+z
1/2+x,1/2-y,-z
1/2-x,1/2+y,-z
1/2-x,1/2-y,1/2-z
1/2+x,1/2+y,1/2-z
1/2-x,1/2+y,z
1/2+x,1/2-y,z
loop_
_atom_site_type_symbol
_atom_site_label
_atom_site_fract_x
_atom_site_fract_y
_atom_site_fract_z
Si Si1 0.713619 0.159059 0.351362
Si Si2 0.066603 0.746836 0.239085
Si Si3 0.337520 0.374904 0.299941
Si Si4 0.862727 0.595546 0.779577
Si Si5 0.623003 0.281242 0.585769
Si Si6 0.201546 0.473373 0.915826
Si Si7 0.171934 0.053257 0.639096
O O1 0.783625 0.172658 0.342867
O O2 0.685022 0.149736 0.268429
O O3 0.687218 0.240793 0.396304
O O4 0.695065 0.073966 0.396777
O O5 0.107018 0.814035 0.285648
O O6 0.077657 0.651883 0.275013
O O7 0.078087 0.744610 0.148425
O O8 0.000000 0.774988 0.250000
O O9 0.311553 0.407690 0.220651
O O10 0.356762 0.458080 0.350283
O O11 0.875521 0.500000 0.750000
O O12 0.838873 0.587783 0.864390
O O13 0.602756 0.258835 0.500000
O O14 0.626574 0.385072 0.594987
O O15 0.269346 0.449777 0.909104
O O16 0.179260 0.456461 0.000000
#
# Coordination Sequence:
#
# PCOD8292860 Si02
#       7
#    16  16  16  16  16  16  16
#     4   9  17  30  51  76 104 140 171 211 271 333
#     4  10  22  37  56  75 101 145 197 231 260 312
#     4   9  17  32  52  74 102 137 179 222 259 319
#     4   9  18  32  52  78 106 137 174 217 269 324
#     4  10  20  33  53  78 106 135 173 223 277 332
#     4  10  17  27  46  76 114 138 164 209 270 339
#     4   9  17  29  48  75 105 136 164 211 273 325
#
# _framework density 17.92848
#
# number of rings (size 3 to 8) (size 9 to 14) (size 15 to 20)
#    0.000    2.571    1.429    0.857    2.000    2.000 
#    0.000    6.429    0.000    6.857    0.000    6.000 
#    0.000    0.000    0.000    0.000    0.000    0.000 
#
# Total GULP energy -694102.568660 kJ/mol
# GULP energy per Si atom -12394.688726 kJ/mol
# Density = 1.788767 g / cm^3
# Si number density = 17.928480 Si / 1000 Ang^3
#
#
#
# Elastic Constant Matrix: (Units=GPa)
#
#
# Indices 1 2 3 4 5 6 
#
# 1 89.8931 37.6290 38.5564 0.0000 0.0000 0.0000
# 2 37.6290 75.0673 33.9871 0.0000 0.0000 0.0000
# 3 38.5564 33.9871 125.1718 0.0000 0.0000 0.0000
# 4 0.0000 0.0000 0.0000 17.6484 0.0000 0.0000
# 5 0.0000 0.0000 0.0000 0.0000 13.1805 0.0000
# 6 0.0000 0.0000 0.0000 0.0000 0.0000 19.4071
#
#
#
# Elastic Compliance Matrix: (Units=1/GPa)
#
#
# Indices 1 2 3 4 5 6 
#
# 1 0.014967 -0.006174 -0.002934 0.000000 0.000000 0.000000
# 2 -0.006174 0.017736 -0.002914 0.000000 0.000000 0.000000
# 3 -0.002934 -0.002914 0.009684 0.000000 0.000000 0.000000
# 4 0.000000 0.000000 0.000000 0.056662 0.000000 0.000000
# 5 0.000000 0.000000 0.000000 0.000000 0.075869 0.000000
# 6 0.000000 0.000000 0.000000 0.000000 0.000000 0.051528
#
#
# Mechanical properties :
#
#
# Convention : Reuss Voigt Hill
#
# Bulk Modulus (GPa) = 54.51718 56.71970 55.61844
# Shear Modulus (GPa) = 19.48525 22.04451 20.76488
#
# Velocity S-wave (km/s) = 3.30029 3.51034 3.40694
# Velocity P-wave (km/s) = 6.70796 6.93796 6.82393
#
# Compressibility (1/GPa) = 0.01834284
#
# Stress axis : x y z
#
# Youngs Moduli (GPa) = 66.81250 56.38371 103.26430
#
# Poissons Ratio (x) = 0.34813 0.30296
# Poissons Ratio (y) = 0.41252 0.30089
# Poissons Ratio (z) = 0.19602 0.16429
#
# Static dielectric constant tensor:
#      x y z
#    x 2.868220 0.000000 0.000000 
#    y 0.000000 3.529820 0.000000 
#    z 0.000000 0.000000 3.253260 
# 
# 
# High freq. dielectric constant tensor:
#      x y z
#    x 1.642810 0.000000 0.000000 
#    y 0.000000 1.705750 0.000000 
#    z 0.000000 0.000000 1.682860 
# 
# From -- ./inp_files/25221.got.cif
#   From: 2010.03.12/outbox.cif.g09.slc.cpg/sg72_13_cif.got.tgz:25221.got - 2010.04.16 14:54:00.
