data_PCOD8292436
_publ_section_title
;
Structure prediction by ZEFSAII (Michael W. Deem and Ramdas Pophale) SiO2 
 PCOD8292436
Probable space group: I M M M
;
_chemical_formula_sum "Si O2"
_cell_formula_units_Z 88
_cell_length_a 10.999134
_cell_length_b 26.119007
_cell_length_c 17.262145
_cell_angle_alpha 90.000000
_cell_angle_beta 90.000000
_cell_angle_gamma 90.000000
_cell_volume 4959.180493
_symmetry_space_group_name_H-M "I M M M"
_symmetry_group_IT_number 71
_symmetry_cell_setting 'orthorhombic'
loop_
_space_group_symop_operation_xyz
x,y,z
-x,-y,z
x,-y,-z
-x,y,-z
-x,-y,-z
x,y,-z
-x,y,z
x,-y,z
1/2+x,1/2+y,1/2+z
1/2-x,1/2-y,1/2+z
1/2+x,1/2-y,1/2-z
1/2-x,1/2+y,1/2-z
1/2-x,1/2-y,1/2-z
1/2+x,1/2+y,1/2-z
1/2-x,1/2+y,1/2+z
1/2+x,1/2-y,1/2+z
loop_
_atom_site_type_symbol
_atom_site_label
_atom_site_fract_x
_atom_site_fract_y
_atom_site_fract_z
Si Si1 0.644475 0.744675 0.500000
Si Si2 0.000000 0.863252 0.590182
Si Si3 0.632824 0.366314 0.500000
Si Si4 0.715752 0.591673 0.346110
Si Si5 0.356656 0.000000 0.089407
Si Si6 0.639275 0.814931 0.214567
Si Si7 0.286610 0.711053 0.860659
Si Si8 0.000000 0.061239 0.267884
O O1 0.500000 0.748056 0.500000
O O2 0.705991 0.687466 0.500000
O O3 0.691788 0.773174 0.574938
O O4 0.118117 0.829224 0.605831
O O5 0.000000 0.912509 0.647287
O O6 0.000000 0.881376 0.500000
O O7 0.500000 0.342913 0.500000
O O8 0.645572 0.402380 0.573763
O O9 0.813030 0.547533 0.359582
O O10 0.788696 0.643916 0.335515
O O11 0.620788 0.578961 0.277909
O O12 0.500000 0.000000 0.087584
O O13 0.308279 0.000000 0.000000
O O14 0.500000 0.831826 0.224341
O O15 0.642690 0.759620 0.174268
O O16 0.704551 0.815861 0.296731
O O17 0.000000 0.000000 0.277854
#
# Coordination Sequence:
#
# PCOD8292436 Si02
#       8
#     8   8   8  16   8  16  16   8
#     4  11  22  37  56  86 127 166 200 247 299 372
#     4  12  24  43  69  93 124 155 203 267 323 380
#     4  11  22  33  55  90 127 165 205 252 295 352
#     4  12  22  39  61  86 119 162 214 250 310 366
#     4  11  24  39  57  85 123 165 210 260 303 365
#     4  11  23  37  57  87 126 164 202 251 297 365
#     4  11  22  37  60  90 122 161 204 243 307 372
#     4  12  26  44  68  90 115 159 213 275 319 375
#
# _framework density 17.744866999999999
#
# number of rings (size 3 to 8) (size 9 to 14) (size 15 to 20)
#    0.000    0.636    8.182    1.091    0.000    0.182 
#    0.000    2.273    0.000    0.000    0.000    0.000 
#    0.000    2.909    0.000    0.000    0.000    0.000 
#
# Total GULP energy -545458.562257 kJ/mol
# GULP energy per Si atom -12396.785506 kJ/mol
# Density = 1.770448 g / cm^3
# Si number density = 17.744867 Si / 1000 Ang^3
#
#
#
# Elastic Constant Matrix: (Units=GPa)
#
#
# Indices 1 2 3 4 5 6 
#
# 1 101.0885 27.5541 40.8219 0.0002 0.0000 0.0000
# 2 27.5541 80.5791 38.5446 -0.0002 0.0000 0.0000
# 3 40.8219 38.5446 125.6195 -0.0059 0.0000 -0.0001
# 4 0.0002 -0.0002 -0.0059 -69.3535 0.0012 0.0001
# 5 0.0000 0.0000 0.0000 0.0012 27.7200 0.0000
# 6 0.0000 0.0000 -0.0001 0.0001 0.0000 21.6625
#
#
#
# Elastic Compliance Matrix: (Units=1/GPa)
#
#
# Indices 1 2 3 4 5 6 
#
# 1 0.011829 -0.002586 -0.003051 0.000000 0.000000 0.000000
# 2 -0.002586 0.015110 -0.003796 0.000000 0.000000 0.000000
# 3 -0.003051 -0.003796 0.010117 -0.000001 0.000000 0.000000
# 4 0.000000 0.000000 -0.000001 -0.014419 0.000001 0.000000
# 5 0.000000 0.000000 0.000000 0.000001 0.036075 0.000000
# 6 0.000000 0.000000 0.000000 0.000000 0.000000 0.046163
#
#
# Mechanical properties :
#
#
# Convention : Reuss Voigt Hill
#
# Bulk Modulus (GPa) = 54.97206 57.90312 56.43759
# Shear Modulus (GPa) = 38.51984 9.36357 23.94171
#
# Velocity S-wave (km/s) = 4.66420 2.29962 3.67716
# Velocity P-wave (km/s) = 7.74937 6.30498 7.06418
#
# Compressibility (1/GPa) = 0.01819106
#
# Stress axis : x y z
#
# Youngs Moduli (GPa) = 84.53780 66.18053 98.84676
#
# Poissons Ratio (x) = 0.17112 0.30154
# Poissons Ratio (y) = 0.21859 0.37523
# Poissons Ratio (z) = 0.25789 0.25123
#
# Static dielectric constant tensor:
#      x y z
#    x 3.256750 0.000000 0.000000 
#    y 0.000000 3.308220 0.000000 
#    z 0.000000 0.000000 3.387300 
# 
# 
# High freq. dielectric constant tensor:
#      x y z
#    x 1.693840 0.000000 0.000000 
#    y 0.000000 1.684970 0.000000 
#    z 0.000000 0.000000 1.691300 
# 
# From -- ./inp_files/33046.got.cif
#   From: 2010.06.25/outbox.cif.g09.slc.cpg/sg71_17_cif.got.tgz:33046.got - 2010.06.28 04:59:45.
