data_PCOD8292137
_publ_section_title
;
Structure prediction by ZEFSAII (Michael W. Deem and Ramdas Pophale) SiO2 
 PCOD8292137
Probable space group: I M M M
;
_chemical_formula_sum "Si O2"
_cell_formula_units_Z 88
_cell_length_a 24.059560
_cell_length_b 11.616319
_cell_length_c 15.631140
_cell_angle_alpha 90.000000
_cell_angle_beta 90.000000
_cell_angle_gamma 90.000000
_cell_volume 4368.646091
_symmetry_space_group_name_H-M "I M M M"
_symmetry_group_IT_number 71
_symmetry_cell_setting 'orthorhombic'
loop_
_space_group_symop_operation_xyz
x,y,z
-x,-y,z
x,-y,-z
-x,y,-z
-x,-y,-z
x,y,-z
-x,y,z
x,-y,z
1/2+x,1/2+y,1/2+z
1/2-x,1/2-y,1/2+z
1/2+x,1/2-y,1/2-z
1/2-x,1/2+y,1/2-z
1/2-x,1/2-y,1/2-z
1/2+x,1/2+y,1/2-z
1/2-x,1/2+y,1/2+z
1/2+x,1/2-y,1/2+z
loop_
_atom_site_type_symbol
_atom_site_label
_atom_site_fract_x
_atom_site_fract_y
_atom_site_fract_z
Si Si1 0.000000 0.136905 0.904115
Si Si2 0.773223 0.369484 0.500000
Si Si3 0.435942 0.000000 0.292713
Si Si4 0.596418 0.127908 0.000000
Si Si5 0.562820 0.779937 0.177355
Si Si6 0.720794 0.759299 0.657513
Si Si7 0.390201 0.364797 0.308139
Si Si8 0.326309 0.000000 0.601815
O O1 0.055703 0.183220 0.858842
O O2 0.000000 0.000000 0.902501
O O3 0.000000 0.185459 0.000000
O O4 0.747299 0.500000 0.500000
O O5 0.838423 0.382777 0.500000
O O6 0.758580 0.297929 0.415170
O O7 0.423746 0.891795 0.232978
O O8 0.500000 0.000000 0.327478
O O9 0.390921 0.000000 0.368883
O O10 0.574797 0.199236 0.079466
O O11 0.569720 0.000000 0.000000
O O12 0.500000 0.738843 0.188749
O O13 0.602632 0.676945 0.210261
O O14 0.750000 0.750000 0.750000
O O15 0.663962 0.688934 0.650687
O O16 0.707947 0.891789 0.637812
O O17 0.384726 0.500000 0.312608
O O18 0.326214 0.000000 0.500000
#
# Coordination Sequence:
#
# PCOD8292137 Si02
#       8
#     8   8   8   8  16  16  16   8
#     4   9  20  38  64  94 125 166 210 262 321 387
#     4  11  26  44  67  97 131 171 235 284 325 400
#     4  10  22  40  66  96 131 175 219 264 333 409
#     4  11  23  40  65  95 128 170 225 286 335 384
#     4  11  21  38  64  98 132 169 218 272 331 400
#     4  12  27  46  69  98 134 180 228 277 337 400
#     4  11  23  41  66  95 133 173 217 267 330 402
#     4  12  26  47  71  99 142 177 218 286 345 403
#
# _framework density 20.143540999999999
#
# number of rings (size 3 to 8) (size 9 to 14) (size 15 to 20)
#    0.000    1.000    4.545    1.909    3.818    0.545 
#    0.000    0.455    0.000    1.091    0.000    0.000 
#    0.000    0.000    0.000    0.000    0.000    0.000 
#
# Total GULP energy -545640.313654 kJ/mol
# GULP energy per Si atom -12400.916219 kJ/mol
# Density = 2.009769 g / cm^3
# Si number density = 20.143541 Si / 1000 Ang^3
#
#
#
# Elastic Constant Matrix: (Units=GPa)
#
#
# Indices 1 2 3 4 5 6 
#
# 1 72.7069 31.5988 24.3394 0.0000 0.0000 0.0000
# 2 31.5988 106.9939 39.7248 0.0000 0.0000 0.0000
# 3 24.3394 39.7248 135.5345 0.0000 0.0000 0.0000
# 4 0.0000 0.0000 0.0000 24.8140 0.0000 0.0000
# 5 0.0000 0.0000 0.0000 0.0000 38.6168 0.0000
# 6 0.0000 0.0000 0.0000 0.0000 0.0000 26.6466
#
#
#
# Elastic Compliance Matrix: (Units=1/GPa)
#
#
# Indices 1 2 3 4 5 6 
#
# 1 0.016114 -0.004134 -0.001682 0.000000 0.000000 0.000000
# 2 -0.004134 0.011548 -0.002642 0.000000 0.000000 0.000000
# 3 -0.001682 -0.002642 0.008455 0.000000 0.000000 0.000000
# 4 0.000000 0.000000 0.000000 0.040300 0.000000 0.000000
# 5 0.000000 0.000000 0.000000 0.000000 0.025895 0.000000
# 6 0.000000 0.000000 0.000000 0.000000 0.000000 0.037528
#
#
# Mechanical properties :
#
#
# Convention : Reuss Voigt Hill
#
# Bulk Modulus (GPa) = 52.08489 56.28460 54.18474
# Shear Modulus (GPa) = 30.64520 32.65362 31.64941
#
# Velocity S-wave (km/s) = 3.90467 4.03059 3.96813
# Velocity P-wave (km/s) = 6.80012 7.04722 6.92477
#
# Compressibility (1/GPa) = 0.01919943
#
# Stress axis : x y z
#
# Youngs Moduli (GPa) = 62.05882 86.59190 118.27736
#
# Poissons Ratio (x) = 0.35801 0.19893
# Poissons Ratio (y) = 0.25658 0.31253
# Poissons Ratio (z) = 0.10438 0.22881
#
# Static dielectric constant tensor:
#      x y z
#    x 3.809930 0.000000 0.000000 
#    y 0.000000 3.784960 0.000000 
#    z 0.000000 0.000000 3.850680 
# 
# 
# High freq. dielectric constant tensor:
#      x y z
#    x 1.797940 0.000000 0.000000 
#    y 0.000000 1.789260 0.000000 
#    z 0.000000 0.000000 1.790710 
# 
# From -- ./inp_files/39058.got.cif
#   From: 2010.06.25/outbox.cif.g09.slc.cpg/sg71_20_cif.got.tgz:39058.got - 2010.06.28 04:59:45.
