data_PCOD8292266
_publ_section_title
;
Structure prediction by ZEFSAII (Michael W. Deem and Ramdas Pophale) SiO2 
 PCOD8292266
Probable space group: I M M M
;
_chemical_formula_sum "Si O2"
_cell_formula_units_Z 104
_cell_length_a 16.833990
_cell_length_b 20.672046
_cell_length_c 16.620780
_cell_angle_alpha 90.000000
_cell_angle_beta 90.000000
_cell_angle_gamma 90.000000
_cell_volume 5783.915355
_symmetry_space_group_name_H-M "I M M M"
_symmetry_group_IT_number 71
_symmetry_cell_setting 'orthorhombic'
loop_
_space_group_symop_operation_xyz
x,y,z
-x,-y,z
x,-y,-z
-x,y,-z
-x,-y,-z
x,y,-z
-x,y,z
x,-y,z
1/2+x,1/2+y,1/2+z
1/2-x,1/2-y,1/2+z
1/2+x,1/2-y,1/2-z
1/2-x,1/2+y,1/2-z
1/2-x,1/2-y,1/2-z
1/2+x,1/2+y,1/2-z
1/2-x,1/2+y,1/2+z
1/2+x,1/2-y,1/2+z
loop_
_atom_site_type_symbol
_atom_site_label
_atom_site_fract_x
_atom_site_fract_y
_atom_site_fract_z
Si Si1 0.693566 0.368273 0.641478
Si Si2 0.089594 0.923840 0.000000
Si Si3 0.357693 0.924683 0.810477
Si Si4 0.716291 0.773608 0.409202
Si Si5 0.905688 0.682186 0.201212
Si Si6 0.500000 0.711959 0.094454
Si Si7 0.500000 0.134799 0.907661
Si Si8 0.856520 0.804069 0.700801
O O1 0.632880 0.401642 0.580970
O O2 0.768793 0.414251 0.656766
O O3 0.724932 0.303030 0.600194
O O4 0.646958 0.354350 0.725100
O O5 0.000000 0.895351 0.000000
O O6 0.087384 0.000000 0.000000
O O7 0.374149 0.888665 0.725807
O O8 0.420746 0.896734 0.873272
O O9 0.372347 0.000000 0.796251
O O10 0.736679 0.793543 0.500000
O O11 0.627671 0.798402 0.386710
O O12 0.774403 0.808729 0.347010
O O13 0.869826 0.731936 0.266180
O O14 0.000000 0.685715 0.199707
O O15 0.500000 0.788789 0.109578
O O16 0.575111 0.678485 0.137147
O O17 0.500000 0.695468 0.000000
O O18 0.500000 0.118335 0.000000
#
# Coordination Sequence:
#
# PCOD8292266 Si02
#       8
#    16   8  16  16  16   8   8  16
#     4  11  22  38  58  84 114 150 194 235 283 337
#     4  11  26  44  58  83 121 153 192 239 283 340
#     4  12  22  36  56  79 111 156 199 226 268 334
#     4  11  21  36  58  84 115 147 187 241 292 340
#     4  11  20  36  54  81 117 148 188 236 282 339
#     4  11  20  33  58  90 121 149 180 232 298 353
#     4  11  23  36  51  82 124 154 183 226 274 335
#     4  11  19  36  59  81 116 150 185 235 291 344
#
# _framework density 17.980899999999998
#
# number of rings (size 3 to 8) (size 9 to 14) (size 15 to 20)
#    0.000    0.846    6.923    2.077    2.154    2.769 
#    0.000    0.000    0.000    0.462    0.000    1.077 
#    0.000    2.462    0.000    0.000    0.000    0.000 
#
# Total GULP energy -644813.894942 kJ/mol
# GULP energy per Si atom -12400.267210 kJ/mol
# Density = 1.793997 g / cm^3
# Si number density = 17.980900 Si / 1000 Ang^3
#
#
#
# Elastic Constant Matrix: (Units=GPa)
#
#
# Indices 1 2 3 4 5 6 
#
# 1 123.3980 29.8520 55.5612 0.0000 0.0000 0.0000
# 2 29.8520 46.4663 32.3725 0.0000 0.0000 0.0000
# 3 55.5612 32.3725 120.6553 0.0000 0.0000 0.0000
# 4 0.0000 0.0000 0.0000 13.9790 0.0000 0.0000
# 5 0.0000 0.0000 0.0000 0.0000 72.7742 0.0000
# 6 0.0000 0.0000 0.0000 0.0000 0.0000 18.2613
#
#
#
# Elastic Compliance Matrix: (Units=1/GPa)
#
#
# Indices 1 2 3 4 5 6 
#
# 1 0.010881 -0.004304 -0.003856 0.000000 0.000000 0.000000
# 2 -0.004304 0.028171 -0.005576 0.000000 0.000000 0.000000
# 3 -0.003856 -0.005576 0.011560 0.000000 0.000000 0.000000
# 4 0.000000 0.000000 0.000000 0.071536 0.000000 0.000000
# 5 0.000000 0.000000 0.000000 0.000000 0.013741 0.000000
# 6 0.000000 0.000000 0.000000 0.000000 0.000000 0.054761
#
#
# Mechanical properties :
#
#
# Convention : Reuss Voigt Hill
#
# Bulk Modulus (GPa) = 43.21668 58.45458 50.83563
# Shear Modulus (GPa) = 22.13992 32.51848 27.32920
#
# Velocity S-wave (km/s) = 3.51280 4.25726 3.90282
# Velocity P-wave (km/s) = 6.36710 7.53296 6.97443
#
# Compressibility (1/GPa) = 0.02313922
#
# Stress axis : x y z
#
# Youngs Moduli (GPa) = 91.90073 35.49723 86.50594
#
# Poissons Ratio (x) = 0.15279 0.33356
# Poissons Ratio (y) = 0.39556 0.48239
# Poissons Ratio (z) = 0.35436 0.19795
#
# Static dielectric constant tensor:
#      x y z
#    x 3.545080 0.000000 0.000000 
#    y 0.000000 3.095430 0.000000 
#    z 0.000000 0.000000 3.514990 
# 
# 
# High freq. dielectric constant tensor:
#      x y z
#    x 1.714970 0.000000 0.000000 
#    y 0.000000 1.659640 0.000000 
#    z 0.000000 0.000000 1.697170 
# 
# From -- ./inp_files/45010.got.cif
#   From: 2010.06.25/outbox.cif.g09.slc.cpg/sg71_23_cif.got.tgz:45010.got - 2010.06.28 04:59:45.
