data_PCOD8292930
_publ_section_title
;
Structure prediction by ZEFSAII (Michael W. Deem and Ramdas Pophale) SiO2 
 PCOD8292930
Probable space group: I B A M
;
_chemical_formula_sum "Si O2"
_cell_formula_units_Z 80
_cell_length_a 23.087518
_cell_length_b 12.880311
_cell_length_c 14.377190
_cell_angle_alpha 90.000000
_cell_angle_beta 90.000000
_cell_angle_gamma 90.000000
_cell_volume 4275.408423
_symmetry_space_group_name_H-M "I B A M"
_symmetry_group_IT_number 72
_symmetry_cell_setting 'orthorhombic'
loop_
_space_group_symop_operation_xyz
x,y,z
-x,-y,z
x,-y,1/2-z
-x,y,1/2-z
-x,-y,-z
x,y,-z
-x,y,1/2+z
x,-y,1/2+z
1/2+x,1/2+y,1/2+z
1/2-x,1/2-y,1/2+z
1/2+x,1/2-y,-z
1/2-x,1/2+y,-z
1/2-x,1/2-y,1/2-z
1/2+x,1/2+y,1/2-z
1/2-x,1/2+y,z
1/2+x,1/2-y,z
loop_
_atom_site_type_symbol
_atom_site_label
_atom_site_fract_x
_atom_site_fract_y
_atom_site_fract_z
Si Si1 0.359707 0.785942 0.896122
Si Si2 0.937663 0.469468 0.609928
Si Si3 0.339253 0.881675 0.390307
Si Si4 0.746433 0.946857 0.604715
Si Si5 0.309536 0.696175 0.272373
O O1 0.306337 0.865730 0.893288
O O2 0.348410 0.692015 0.822340
O O3 0.417550 0.851050 0.868206
O O4 0.365624 0.738146 0.000000
O O5 0.938356 0.484118 0.500000
O O6 0.891906 0.551247 0.652159
O O7 0.000000 0.500000 0.653081
O O8 0.344451 0.869785 0.500000
O O9 0.342748 0.768859 0.345896
O O10 0.278340 0.940168 0.365575
O O11 0.771968 0.951046 0.500000
O O12 0.797262 0.914405 0.677380
O O13 0.250000 0.750000 0.250000
#
# Coordination Sequence:
#
# PCOD8292930 Si02
#       5
#    16  16  16  16  16
#     4   8  15  26  37  53  78 106 139 174 202 235
#     4   8  14  26  43  60  82 114 145 173 206 246
#     4   9  17  29  44  63  87 113 143 175 209 252
#     4   8  15  27  41  58  80 106 137 174 209 247
#     4  10  18  26  41  58  78 111 147 175 209 251
#
# _framework density 18.711662
#
# number of rings (size 3 to 8) (size 9 to 14) (size 15 to 20)
#    0.000    3.400    0.000    3.000    0.000    8.000 
#    0.000    2.000    0.000    1.200    0.000    0.000 
#    0.000    0.000    0.000   50.400    0.000  523.600 
#
# Total GULP energy -495525.900483 kJ/mol
# GULP energy per Si atom -12388.147512 kJ/mol
# Density = 1.866907 g / cm^3
# Si number density = 18.711662 Si / 1000 Ang^3
#
#
#
# Elastic Constant Matrix: (Units=GPa)
#
#
# Indices 1 2 3 4 5 6 
#
# 1 74.0055 22.9038 37.7989 0.0000 0.0000 0.0000
# 2 22.9038 29.9072 34.7383 0.0000 0.0000 0.0000
# 3 37.7989 34.7383 90.5988 0.0000 0.0000 0.0000
# 4 0.0000 0.0000 0.0000 20.4169 0.0000 0.0000
# 5 0.0000 0.0000 0.0000 0.0000 7.8784 0.0000
# 6 0.0000 0.0000 0.0000 0.0000 0.0000 23.7433
#
#
#
# Elastic Compliance Matrix: (Units=1/GPa)
#
#
# Indices 1 2 3 4 5 6 
#
# 1 0.018529 -0.009395 -0.004128 0.000000 0.000000 0.000000
# 2 -0.009395 0.065050 -0.021022 0.000000 0.000000 0.000000
# 3 -0.004128 -0.021022 0.020821 0.000000 0.000000 0.000000
# 4 0.000000 0.000000 0.000000 0.048979 0.000000 0.000000
# 5 0.000000 0.000000 0.000000 0.000000 0.126930 0.000000
# 6 0.000000 0.000000 0.000000 0.000000 0.000000 0.042117
#
#
# Mechanical properties :
#
#
# Convention : Reuss Voigt Hill
#
# Bulk Modulus (GPa) = 28.32191 42.82149 35.57170
# Shear Modulus (GPa) = 12.39819 17.01243 14.70531
#
# Velocity S-wave (km/s) = 2.57688 3.01855 2.80641
# Velocity P-wave (km/s) = 4.90128 5.92313 5.43627
#
# Compressibility (1/GPa) = 0.03530835
#
# Stress axis : x y z
#
# Youngs Moduli (GPa) = 53.97082 15.37285 48.02946
#
# Poissons Ratio (x) = 0.14442 0.19827
# Poissons Ratio (y) = 0.50704 1.00969
# Poissons Ratio (z) = 0.22280 0.32317
#
# Static dielectric constant tensor:
#      x y z
#    x 3.526610 0.000000 0.000000 
#    y 0.000000 3.301860 0.000000 
#    z 0.000000 0.000000 3.883750 
# 
# 
# High freq. dielectric constant tensor:
#      x y z
#    x 1.671670 0.000000 0.000000 
#    y 0.000000 1.678180 0.000000 
#    z 0.000000 0.000000 1.748270 
# 
# From -- ./inp_files/20186.got.cif
#   From: 2010.03.12/outbox.cif.g09.slc.cpg/sg72_11_cif.got.tgz:20186.got - 2010.04.16 14:54:00.
