data_PCOD8292832
_publ_section_title
;
Structure prediction by ZEFSAII (Michael W. Deem and Ramdas Pophale) SiO2 
 PCOD8292832
Probable space group: I B A M
;
_chemical_formula_sum "Si O2"
_cell_formula_units_Z 84
_cell_length_a 14.425507
_cell_length_b 21.703495
_cell_length_c 15.457212
_cell_angle_alpha 90.000000
_cell_angle_beta 90.000000
_cell_angle_gamma 90.000000
_cell_volume 4839.404510
_symmetry_space_group_name_H-M "I B A M"
_symmetry_group_IT_number 72
_symmetry_cell_setting 'orthorhombic'
loop_
_space_group_symop_operation_xyz
x,y,z
-x,-y,z
x,-y,1/2-z
-x,y,1/2-z
-x,-y,-z
x,y,-z
-x,y,1/2+z
x,-y,1/2+z
1/2+x,1/2+y,1/2+z
1/2-x,1/2-y,1/2+z
1/2+x,1/2-y,-z
1/2-x,1/2+y,-z
1/2-x,1/2-y,1/2-z
1/2+x,1/2+y,1/2-z
1/2-x,1/2+y,z
1/2+x,1/2-y,z
loop_
_atom_site_type_symbol
_atom_site_label
_atom_site_fract_x
_atom_site_fract_y
_atom_site_fract_z
Si Si1 0.236341 0.654892 0.904508
Si Si2 0.500000 0.500000 0.750000
Si Si3 0.914085 0.111886 0.662614
Si Si4 0.094621 0.817596 0.166477
Si Si5 0.099845 0.680217 0.763600
Si Si6 0.283832 0.794673 0.903713
O O1 0.326017 0.609955 0.901106
O O2 0.159114 0.639792 0.832144
O O3 0.277154 0.722310 0.886804
O O4 0.191369 0.649333 0.000000
O O5 0.559866 0.458145 0.815086
O O6 0.878023 0.143938 0.749542
O O7 0.001220 0.152146 0.625180
O O8 0.079903 0.746937 0.194247
O O9 0.180377 0.823484 0.100749
O O10 0.150111 0.679393 0.670764
O O11 0.000000 0.648098 0.750000
O O12 0.323558 0.809054 0.000000
#
# Coordination Sequence:
#
# PCOD8292832 Si02
#       6
#    16   4  16  16  16  16
#     4  10  19  29  46  68  97 130 162 193 239 293
#     4   8  20  28  54  76  90 124 170 208 234 302
#     4  10  16  32  49  71  96 129 166 200 249 285
#     4   9  15  27  46  62  94 132 155 192 241 289
#     4  11  17  29  44  65  96 133 164 195 233 286
#     4  10  18  27  42  69  95 129 169 195 229 292
#
# _framework density 17.357507999999999
#
# number of rings (size 3 to 8) (size 9 to 14) (size 15 to 20)
#    0.000    2.286    5.714    1.143    0.000    1.524 
#    0.000    4.286    0.000    1.143    0.000    0.667 
#    0.000    1.524    0.000    0.000    0.000    0.000 
#
# Total GULP energy -520402.259256 kJ/mol
# GULP energy per Si atom -12390.529982 kJ/mol
# Density = 1.731800 g / cm^3
# Si number density = 17.357508 Si / 1000 Ang^3
#
#
#
# Elastic Constant Matrix: (Units=GPa)
#
#
# Indices 1 2 3 4 5 6 
#
# 1 140.2070 26.5385 65.1128 -0.0001 0.0000 0.0000
# 2 26.5385 49.1302 4.0658 0.0005 0.0000 0.0000
# 3 65.1128 4.0658 103.6335 0.0007 0.0001 -0.0001
# 4 -0.0001 0.0005 0.0007 7.8514 0.0000 -0.0001
# 5 0.0000 0.0000 0.0001 0.0000 13.6282 0.0000
# 6 0.0000 0.0000 -0.0001 -0.0001 0.0000 14.0172
#
#
#
# Elastic Compliance Matrix: (Units=1/GPa)
#
#
# Indices 1 2 3 4 5 6 
#
# 1 0.011422 -0.005594 -0.006957 0.000001 0.000000 0.000000
# 2 -0.005594 0.023160 0.002606 -0.000002 0.000000 0.000000
# 3 -0.006957 0.002606 0.013918 -0.000002 0.000000 0.000000
# 4 0.000001 -0.000002 -0.000002 0.127366 0.000000 0.000000
# 5 0.000000 0.000000 0.000000 0.000000 0.073377 0.000000
# 6 0.000000 0.000000 0.000000 0.000000 0.000000 0.071341
#
#
# Mechanical properties :
#
#
# Convention : Reuss Voigt Hill
#
# Bulk Modulus (GPa) = 34.95215 53.82275 44.38745
# Shear Modulus (GPa) = 14.28524 20.24959 17.26742
#
# Velocity S-wave (km/s) = 2.87191 3.41929 3.15748
# Velocity P-wave (km/s) = 5.58368 6.83113 6.23866
#
# Compressibility (1/GPa) = 0.02861055
#
# Stress axis : x y z
#
# Youngs Moduli (GPa) = 87.55025 43.17759 71.84839
#
# Poissons Ratio (x) = 0.24154 0.49985
# Poissons Ratio (y) = 0.48976 -0.18725
# Poissons Ratio (z) = 0.60908 -0.11253
#
# Static dielectric constant tensor:
#      x y z
#    x 3.470730 0.000000 0.000000 
#    y 0.000000 2.813350 0.000000 
#    z 0.000000 0.000000 3.178840 
# 
# 
# High freq. dielectric constant tensor:
#      x y z
#    x 1.676420 0.000000 0.000000 
#    y 0.000000 1.599290 0.000000 
#    z 0.000000 0.000000 1.666860 
# 
# From -- ./inp_files/21974.got.cif
#   From: 2010.03.12/outbox.cif.g09.slc.cpg/sg72_11_cif.got.tgz:21974.got - 2010.04.16 14:54:00.
