data_PCOD8292711
_publ_section_title
;
Structure prediction by ZEFSAII (Michael W. Deem and Ramdas Pophale) SiO2 
 PCOD8292711
Probable space group: I M M M
;
_chemical_formula_sum "Si O2"
_cell_formula_units_Z 88
_cell_length_a 9.226655
_cell_length_b 26.188881
_cell_length_c 27.487942
_cell_angle_alpha 90.000000
_cell_angle_beta 90.000000
_cell_angle_gamma 90.000000
_cell_volume 6642.070026
_symmetry_space_group_name_H-M "I M M M"
_symmetry_group_IT_number 71
_symmetry_cell_setting 'orthorhombic'
loop_
_space_group_symop_operation_xyz
x,y,z
-x,-y,z
x,-y,-z
-x,y,-z
-x,-y,-z
x,y,-z
-x,y,z
x,-y,z
1/2+x,1/2+y,1/2+z
1/2-x,1/2-y,1/2+z
1/2+x,1/2-y,1/2-z
1/2-x,1/2+y,1/2-z
1/2-x,1/2-y,1/2-z
1/2+x,1/2+y,1/2-z
1/2-x,1/2+y,1/2+z
1/2+x,1/2-y,1/2+z
loop_
_atom_site_type_symbol
_atom_site_label
_atom_site_fract_x
_atom_site_fract_y
_atom_site_fract_z
Si Si1 0.660513 0.248947 0.865538
Si Si2 0.170763 0.600813 0.890375
Si Si3 0.165217 0.146549 0.306115
Si Si4 0.669711 0.203511 0.445623
Si Si5 0.672000 0.000000 0.445516
Si Si6 0.670966 0.799310 0.229706
O O1 0.500000 0.243444 0.887231
O O2 0.672785 0.299942 0.833747
O O3 0.767606 0.251545 0.911408
O O4 0.694101 0.201262 0.829155
O O5 0.256057 0.604213 0.839368
O O6 0.211858 0.647965 0.925262
O O7 0.225912 0.550006 0.917160
O O8 0.000000 0.599649 0.879289
O O9 0.253260 0.151577 0.254952
O O10 0.000000 0.129948 0.295486
O O11 0.733825 0.208509 0.500000
O O12 0.500000 0.211170 0.446363
O O13 0.500000 0.000000 0.448868
O O14 0.737672 0.000000 0.500000
O O15 0.500000 0.797537 0.242598
O O16 0.750000 0.750000 0.250000
#
# Coordination Sequence:
#
# PCOD8292711 Si02
#       6
#    16  16  16  16   8  16
#     4   8  15  24  33  47  65  84 105 130 161 198
#     4   9  16  26  39  52  66  85 111 145 183 218
#     4   9  16  25  36  50  67  85 106 133 168 209
#     4   9  16  24  34  48  65  86 113 143 172 202
#     4   9  16  26  41  57  69  85 115 153 188 223
#     4   9  15  23  35  51  69  86 105 129 161 201
#
# _framework density 13.248882
#
# number of rings (size 3 to 8) (size 9 to 14) (size 15 to 20)
#    0.000    3.182    0.000    2.727    0.000    7.636 
#    0.000    0.455    0.000    2.182    0.000    0.000 
#    0.000    0.000    0.000    0.000    0.000    0.000 
#
# Total GULP energy -545214.327998 kJ/mol
# GULP energy per Si atom -12391.234727 kJ/mol
# Density = 1.321873 g / cm^3
# Si number density = 13.248882 Si / 1000 Ang^3
#
#
#
# Elastic Constant Matrix: (Units=GPa)
#
#
# Indices 1 2 3 4 5 6 
#
# 1 60.3654 23.5526 46.9397 0.0000 0.0000 0.0000
# 2 23.5526 36.6512 46.8885 0.0000 0.0000 0.0000
# 3 46.9397 46.8885 102.5692 0.0000 0.0000 0.0000
# 4 0.0000 0.0000 0.0000 21.6665 0.0000 0.0000
# 5 0.0000 0.0000 0.0000 0.0000 21.8433 0.0000
# 6 0.0000 0.0000 0.0000 0.0000 0.0000 10.1402
#
#
#
# Elastic Compliance Matrix: (Units=1/GPa)
#
#
# Indices 1 2 3 4 5 6 
#
# 1 0.025910 -0.003567 -0.010227 0.000000 0.000000 0.000000
# 2 -0.003567 0.066209 -0.028635 0.000000 0.000000 0.000000
# 3 -0.010227 -0.028635 0.027520 0.000000 0.000000 0.000000
# 4 0.000000 0.000000 0.000000 0.046154 0.000000 0.000000
# 5 0.000000 0.000000 0.000000 0.000000 0.045781 0.000000
# 6 0.000000 0.000000 0.000000 0.000000 0.000000 0.098617
#
#
# Mechanical properties :
#
#
# Convention : Reuss Voigt Hill
#
# Bulk Modulus (GPa) = 28.75019 48.26080 38.50549
# Shear Modulus (GPa) = 12.29587 16.21032 14.25309
#
# Velocity S-wave (km/s) = 3.04973 3.50168 3.28349
# Velocity P-wave (km/s) = 5.84365 7.27011 6.59556
#
# Compressibility (1/GPa) = 0.03478238
#
# Stress axis : x y z
#
# Youngs Moduli (GPa) = 38.59562 15.10371 36.33754
#
# Poissons Ratio (x) = 0.05387 0.37162
# Poissons Ratio (y) = 0.13765 1.04051
# Poissons Ratio (z) = 0.39471 0.43249
#
# Static dielectric constant tensor:
#      x y z
#    x 2.687490 0.000000 0.000000 
#    y 0.000000 2.389690 0.000000 
#    z 0.000000 0.000000 3.018280 
# 
# 
# High freq. dielectric constant tensor:
#      x y z
#    x 1.507430 0.000000 0.000000 
#    y 0.000000 1.441280 0.000000 
#    z 0.000000 0.000000 1.501200 
# 
# From -- ./inp_files/11345.got.cif
#   From: 2010.06.25/outbox.cif.g09.slc.cpg/sg71_6_cif.got.tgz:11345.got - 2010.06.28 04:59:45.
