data_PCOD8292049
_publ_section_title
;
Structure prediction by ZEFSAII (Michael W. Deem and Ramdas Pophale) SiO2 
 PCOD8292049
Probable space group: I M M M
;
_chemical_formula_sum "Si O2"
_cell_formula_units_Z 72
_cell_length_a 8.906491
_cell_length_b 31.791630
_cell_length_c 13.242047
_cell_angle_alpha 90.000000
_cell_angle_beta 90.000000
_cell_angle_gamma 90.000000
_cell_volume 3749.510324
_symmetry_space_group_name_H-M "I M M M"
_symmetry_group_IT_number 71
_symmetry_cell_setting 'orthorhombic'
loop_
_space_group_symop_operation_xyz
x,y,z
-x,-y,z
x,-y,-z
-x,y,-z
-x,-y,-z
x,y,-z
-x,y,z
x,-y,z
1/2+x,1/2+y,1/2+z
1/2-x,1/2-y,1/2+z
1/2+x,1/2-y,1/2-z
1/2-x,1/2+y,1/2-z
1/2-x,1/2-y,1/2-z
1/2+x,1/2+y,1/2-z
1/2-x,1/2+y,1/2+z
1/2+x,1/2-y,1/2+z
loop_
_atom_site_type_symbol
_atom_site_label
_atom_site_fract_x
_atom_site_fract_y
_atom_site_fract_z
Si Si1 0.665183 0.221950 0.327084
Si Si2 0.178279 0.500000 0.381251
Si Si3 0.324035 0.131198 0.000000
Si Si4 0.178573 0.915069 0.187991
Si Si5 0.657870 0.712343 0.500000
Si Si6 0.175903 0.136133 0.614358
O O1 0.500000 0.208119 0.288879
O O2 0.750000 0.250000 0.250000
O O3 0.656334 0.255976 0.411020
O O4 0.749743 0.180290 0.360791
O O5 0.222044 0.500000 0.500000
O O6 0.248815 0.460577 0.324052
O O7 0.000000 0.500000 0.368369
O O8 0.247746 0.114190 0.101390
O O9 0.500000 0.119635 0.000000
O O10 0.300248 0.181325 0.000000
O O11 0.222321 0.897856 0.299869
O O12 0.000000 0.917581 0.174154
O O13 0.500000 0.685735 0.500000
O O14 0.222559 0.121248 0.500000
O O15 0.000000 0.143804 0.619368
#
# Coordination Sequence:
#
# PCOD8292049 Si02
#       6
#    16   8   8  16   8  16
#     4  11  22  37  57  83 115 157 206 255 305 356
#     4  11  23  41  66  97 129 157 196 251 307 368
#     4  12  24  37  57  90 126 160 204 259 310 362
#     4  11  23  40  65  93 123 163 202 246 309 377
#     4  10  22  38  53  77 116 157 201 246 295 354
#     4  10  22  41  63  89 123 163 209 257 307 365
#
# _framework density 19.202507000000001
#
# number of rings (size 3 to 8) (size 9 to 14) (size 15 to 20)
#    0.000    1.222    2.222    4.000    0.000    9.333 
#    0.000    0.556    0.000    3.333    0.000    0.000 
#    0.000    0.000    0.000    0.000    0.000    0.000 
#
# Total GULP energy -446027.961721 kJ/mol
# GULP energy per Si atom -12389.665603 kJ/mol
# Density = 1.915880 g / cm^3
# Si number density = 19.202507 Si / 1000 Ang^3
#
#
#
# Elastic Constant Matrix: (Units=GPa)
#
#
# Indices 1 2 3 4 5 6 
#
# 1 84.2336 55.5647 72.1820 -0.0001 0.0002 0.0000
# 2 55.5647 133.8204 67.7247 -0.0003 0.0002 0.0000
# 3 72.1820 67.7247 168.2213 -0.0005 0.0009 0.0000
# 4 -0.0001 -0.0003 -0.0005 69.5619 -0.0005 -0.0001
# 5 0.0002 0.0002 0.0009 -0.0005 -54.8667 -0.0001
# 6 0.0000 0.0000 0.0000 -0.0001 -0.0001 35.2373
#
#
#
# Elastic Compliance Matrix: (Units=1/GPa)
#
#
# Indices 1 2 3 4 5 6 
#
# 1 0.021428 -0.005330 -0.007049 0.000000 0.000000 0.000000
# 2 -0.005330 0.010711 -0.002025 0.000000 0.000000 0.000000
# 3 -0.007049 -0.002025 0.009784 0.000000 0.000000 0.000000
# 4 0.000000 0.000000 0.000000 0.014376 0.000000 0.000000
# 5 0.000000 0.000000 0.000000 0.000000 -0.018226 0.000000
# 6 0.000000 0.000000 0.000000 0.000000 0.000000 0.028379
#
#
# Mechanical properties :
#
#
# Convention : Reuss Voigt Hill
#
# Bulk Modulus (GPa) = 76.24558 86.35758 81.30158
# Shear Modulus (GPa) = 50.18538 22.70676 36.44607
#
# Velocity S-wave (km/s) = 5.11777 3.44247 4.36131
# Velocity P-wave (km/s) = 8.64374 7.80195 8.23361
#
# Compressibility (1/GPa) = 0.01311552
#
# Stress axis : x y z
#
# Youngs Moduli (GPa) = 46.66819 93.36509 102.20461
#
# Poissons Ratio (x) = 0.49764 0.72040
# Poissons Ratio (y) = 0.24874 0.20696
# Poissons Ratio (z) = 0.32895 0.18906
#
# Static dielectric constant tensor:
#      x y z
#    x 3.415570 0.000000 0.000000 
#    y 0.000000 3.576640 0.000000 
#    z 0.000000 0.000000 3.936880 
# 
# 
# High freq. dielectric constant tensor:
#      x y z
#    x 1.759670 0.000000 0.000000 
#    y 0.000000 1.745820 0.000000 
#    z 0.000000 0.000000 1.761160 
# 
# From -- ./inp_files/31503.got.cif
#   From: 2010.06.25/outbox.cif.g09.slc.cpg/sg71_16_cif.got.tgz:31503.got - 2010.06.28 04:59:45.
