data_PCOD8292714
_publ_section_title
;
Structure prediction by ZEFSAII (Michael W. Deem and Ramdas Pophale) SiO2 
 PCOD8292714
Probable space group: I M M M
;
_chemical_formula_sum "Si O2"
_cell_formula_units_Z 72
_cell_length_a 16.994615
_cell_length_b 18.725161
_cell_length_c 17.071062
_cell_angle_alpha 90.000000
_cell_angle_beta 90.000000
_cell_angle_gamma 90.000000
_cell_volume 5432.471174
_symmetry_space_group_name_H-M "I M M M"
_symmetry_group_IT_number 71
_symmetry_cell_setting 'orthorhombic'
loop_
_space_group_symop_operation_xyz
x,y,z
-x,-y,z
x,-y,-z
-x,y,-z
-x,-y,-z
x,y,-z
-x,y,z
x,-y,z
1/2+x,1/2+y,1/2+z
1/2-x,1/2-y,1/2+z
1/2+x,1/2-y,1/2-z
1/2-x,1/2+y,1/2-z
1/2-x,1/2-y,1/2-z
1/2+x,1/2+y,1/2-z
1/2-x,1/2+y,1/2+z
1/2+x,1/2-y,1/2+z
loop_
_atom_site_type_symbol
_atom_site_label
_atom_site_fract_x
_atom_site_fract_y
_atom_site_fract_z
Si Si1 0.092843 0.168424 0.000000
Si Si2 0.351490 0.915231 0.816916
Si Si3 0.500000 0.085281 0.911474
Si Si4 0.706537 0.580025 0.413663
Si Si5 0.907042 0.667368 0.000000
Si Si6 0.092048 0.582758 0.149667
O O1 0.129234 0.130795 0.078301
O O2 0.118708 0.250645 0.000000
O O3 0.000000 0.158241 0.000000
O O4 0.423353 0.883551 0.867508
O O5 0.268390 0.887124 0.851485
O O6 0.360165 0.892341 0.726520
O O7 0.353491 0.000000 0.824843
O O8 0.500000 0.000000 0.908654
O O9 0.500000 0.113929 0.000000
O O10 0.747741 0.576962 0.500000
O O11 0.679967 0.500000 0.388575
O O12 0.874034 0.628803 0.922388
O O13 0.000000 0.658193 0.000000
O O14 0.106785 0.500000 0.130300
O O15 0.000000 0.596710 0.165354
#
# Coordination Sequence:
#
# PCOD8292714 Si02
#       6
#     8  16   8  16   8  16
#     4   9  17  29  41  52  69  97 129 163 191 226
#     4   9  14  22  34  55  80 101 121 148 180 214
#     4   9  14  18  30  51  79 105 123 140 167 212
#     4   8  15  25  39  55  74  96 121 153 190 222
#     4   9  17  27  39  53  70  99 133 163 189 211
#     4   9  15  24  38  56  78 101 127 153 178 213
#
# _framework density 13.253636
#
# number of rings (size 3 to 8) (size 9 to 14) (size 15 to 20)
#    0.667    2.556    1.111    1.000    0.000    4.889 
#    0.000    1.111    0.000    0.000    0.000    0.000 
#    0.000    0.000    0.000    0.444    0.000   15.778 
#
# Total GULP energy -446035.653065 kJ/mol
# GULP energy per Si atom -12389.879252 kJ/mol
# Density = 1.322347 g / cm^3
# Si number density = 13.253636 Si / 1000 Ang^3
#
#
#
# Elastic Constant Matrix: (Units=GPa)
#
#
# Indices 1 2 3 4 5 6 
#
# 1 69.5315 34.8784 44.9040 0.0000 0.0000 0.0000
# 2 34.8784 54.5730 38.2866 0.0000 0.0000 0.0000
# 3 44.9040 38.2866 96.0889 0.0000 0.0000 0.0000
# 4 0.0000 0.0000 0.0000 7.1986 0.0000 0.0000
# 5 0.0000 0.0000 0.0000 0.0000 12.5628 0.0000
# 6 0.0000 0.0000 0.0000 0.0000 0.0000 9.3305
#
#
#
# Elastic Compliance Matrix: (Units=1/GPa)
#
#
# Indices 1 2 3 4 5 6 
#
# 1 0.024267 -0.010484 -0.007163 0.000000 0.000000 0.000000
# 2 -0.010484 0.029963 -0.007039 0.000000 0.000000 0.000000
# 3 -0.007163 -0.007039 0.016559 0.000000 0.000000 0.000000
# 4 0.000000 0.000000 0.000000 0.138915 0.000000 0.000000
# 5 0.000000 0.000000 0.000000 0.000000 0.079600 0.000000
# 6 0.000000 0.000000 0.000000 0.000000 0.000000 0.107175
#
#
# Mechanical properties :
#
#
# Convention : Reuss Voigt Hill
#
# Bulk Modulus (GPa) = 46.69305 50.70348 48.69826
# Shear Modulus (GPa) = 11.03774 12.62669 11.83222
#
# Velocity S-wave (km/s) = 2.88897 3.08993 2.99114
# Velocity P-wave (km/s) = 6.81433 7.14629 6.98228
#
# Compressibility (1/GPa) = 0.02141646
#
# Stress axis : x y z
#
# Youngs Moduli (GPa) = 41.20853 33.37425 60.38908
#
# Poissons Ratio (x) = 0.34989 0.43256
# Poissons Ratio (y) = 0.43203 0.42511
# Poissons Ratio (z) = 0.29518 0.23494
#
# Static dielectric constant tensor:
#      x y z
#    x 2.461030 0.000000 0.000000 
#    y 0.000000 2.369910 0.000000 
#    z 0.000000 0.000000 2.712470 
# 
# 
# High freq. dielectric constant tensor:
#      x y z
#    x 1.477860 0.000000 0.000000 
#    y 0.000000 1.465730 0.000000 
#    z 0.000000 0.000000 1.501540 
# 
# From -- ./inp_files/45960.got.cif
#   From: 2010.06.25/outbox.cif.g09.slc.cpg/sg71_23_cif.got.tgz:45960.got - 2010.06.28 04:59:45.
