data_PCOD8292615
_publ_section_title
;
Structure prediction by ZEFSAII (Michael W. Deem and Ramdas Pophale) SiO2 
 PCOD8292615
Probable space group: I M M M
;
_chemical_formula_sum "Si O2"
_cell_formula_units_Z 96
_cell_length_a 18.721556
_cell_length_b 32.987029
_cell_length_c 9.451955
_cell_angle_alpha 90.000000
_cell_angle_beta 90.000000
_cell_angle_gamma 90.000000
_cell_volume 5837.229773
_symmetry_space_group_name_H-M "I M M M"
_symmetry_group_IT_number 71
_symmetry_cell_setting 'orthorhombic'
loop_
_space_group_symop_operation_xyz
x,y,z
-x,-y,z
x,-y,-z
-x,y,-z
-x,-y,-z
x,y,-z
-x,y,z
x,-y,z
1/2+x,1/2+y,1/2+z
1/2-x,1/2-y,1/2+z
1/2+x,1/2-y,1/2-z
1/2-x,1/2+y,1/2-z
1/2-x,1/2-y,1/2-z
1/2+x,1/2+y,1/2-z
1/2-x,1/2+y,1/2+z
1/2+x,1/2-y,1/2+z
loop_
_atom_site_type_symbol
_atom_site_label
_atom_site_fract_x
_atom_site_fract_y
_atom_site_fract_z
Si Si1 0.215461 0.544660 0.168142
Si Si2 0.159608 0.331964 0.167832
Si Si3 0.079610 0.254813 0.831560
Si Si4 0.298905 0.622816 0.167342
Si Si5 0.083215 0.835684 0.836467
Si Si6 0.421215 0.089946 0.668530
O O1 0.235184 0.500000 0.228223
O O2 0.273366 0.578029 0.216928
O O3 0.136162 0.556835 0.222891
O O4 0.214005 0.544124 0.000000
O O5 0.135509 0.288118 0.229222
O O6 0.239567 0.344020 0.215723
O O7 0.103681 0.365747 0.221909
O O8 0.157342 0.330953 0.000000
O O9 0.102027 0.209771 0.782154
O O10 0.000000 0.265087 0.775337
O O11 0.078107 0.255546 0.000000
O O12 0.372683 0.632200 0.245023
O O13 0.311285 0.624188 0.000000
O O14 0.000000 0.844833 0.813053
O O15 0.104041 0.840808 0.000000
O O16 0.423433 0.089643 0.500000
O O17 0.500000 0.080217 0.730419
#
# Coordination Sequence:
#
# PCOD8292615 Si02
#       6
#    16  16  16  16  16  16
#     4   8  14  24  37  55  81 110 136 163 197 238
#     4   8  13  21  34  55  83 111 139 169 195 224
#     4   8  13  22  37  56  80 112 143 166 193 231
#     4   9  17  28  43  63  84 107 134 163 200 243
#     4   9  18  31  45  61  80 103 133 168 205 244
#     4   8  12  17  28  50  81 115 144 166 192 226
#
# _framework density 16.446156999999999
#
# number of rings (size 3 to 8) (size 9 to 14) (size 15 to 20)
#    0.000    3.667    0.000    3.500    0.000    3.333 
#    0.000    1.667    0.000    1.000    0.000    3.500 
#    0.000   16.000    0.000    6.000    0.000    6.667 
#
# Total GULP energy -594683.428929 kJ/mol
# GULP energy per Si atom -12389.238103 kJ/mol
# Density = 1.640872 g / cm^3
# Si number density = 16.446157 Si / 1000 Ang^3
#
#
#
# Elastic Constant Matrix: (Units=GPa)
#
#
# Indices 1 2 3 4 5 6 
#
# 1 95.6309 72.6469 27.1336 -0.0012 -0.0005 0.0001
# 2 72.6469 122.8654 23.1181 -0.0004 0.0002 0.0002
# 3 27.1336 23.1181 17.6822 0.0055 -0.0009 0.0004
# 4 -0.0012 -0.0004 0.0055 10.6347 0.0003 0.0001
# 5 -0.0005 0.0002 -0.0009 0.0003 14.7871 0.0000
# 6 0.0001 0.0002 0.0004 0.0001 0.0000 19.8614
#
#
#
# Elastic Compliance Matrix: (Units=1/GPa)
#
#
# Indices 1 2 3 4 5 6 
#
# 1 0.025589 -0.010268 -0.025843 0.000016 -0.000001 0.000000
# 2 -0.010268 0.014914 -0.003743 0.000001 -0.000001 0.000000
# 3 -0.025843 -0.003743 0.101105 -0.000055 0.000006 -0.000002
# 4 0.000016 0.000001 -0.000055 0.094032 -0.000002 0.000000
# 5 -0.000001 -0.000001 0.000006 -0.000002 0.067627 0.000000
# 6 0.000000 0.000000 -0.000002 0.000000 0.000000 0.050349
#
#
# Mechanical properties :
#
#
# Convention : Reuss Voigt Hill
#
# Bulk Modulus (GPa) = 16.15500 53.55286 34.85393
# Shear Modulus (GPa) = 11.01424 16.60863 13.81144
#
# Velocity S-wave (km/s) = 2.59069 3.18131 2.90107
# Velocity P-wave (km/s) = 4.33511 6.79172 5.69740
#
# Compressibility (1/GPa) = 0.06190034
#
# Stress axis : x y z
#
# Youngs Moduli (GPa) = 39.07873 67.04946 9.89071
#
# Poissons Ratio (x) = 0.68844 0.25561
# Poissons Ratio (y) = 0.40125 0.03703
# Poissons Ratio (z) = 1.00991 0.25099
#
# Static dielectric constant tensor:
#      x y z
#    x 3.100660 0.000000 0.000000 
#    y 0.000000 3.432160 -0.000010 
#    z 0.000000 -0.000010 2.407010 
# 
# 
# High freq. dielectric constant tensor:
#      x y z
#    x 1.629170 0.000000 0.000000 
#    y 0.000000 1.633030 0.000000 
#    z 0.000000 0.000000 1.557900 
# 
# From -- ./inp_files/24425.got.cif
#   From: 2010.06.25/outbox.cif.g09.slc.cpg/sg71_13_cif.got.tgz:24425.got - 2010.06.28 04:59:45.
