data_PCOD8292117
_publ_section_title
;
Structure prediction by ZEFSAII (Michael W. Deem and Ramdas Pophale) SiO2 
 PCOD8292117
Probable space group: I M M M
;
_chemical_formula_sum "Si O2"
_cell_formula_units_Z 104
_cell_length_a 8.831935
_cell_length_b 27.597300
_cell_length_c 21.692092
_cell_angle_alpha 90.000000
_cell_angle_beta 90.000000
_cell_angle_gamma 90.000000
_cell_volume 5287.177571
_symmetry_space_group_name_H-M "I M M M"
_symmetry_group_IT_number 71
_symmetry_cell_setting 'orthorhombic'
loop_
_space_group_symop_operation_xyz
x,y,z
-x,-y,z
x,-y,-z
-x,y,-z
-x,-y,-z
x,y,-z
-x,y,z
x,-y,z
1/2+x,1/2+y,1/2+z
1/2-x,1/2-y,1/2+z
1/2+x,1/2-y,1/2-z
1/2-x,1/2+y,1/2-z
1/2-x,1/2-y,1/2-z
1/2+x,1/2+y,1/2-z
1/2-x,1/2+y,1/2+z
1/2+x,1/2-y,1/2+z
loop_
_atom_site_type_symbol
_atom_site_label
_atom_site_fract_x
_atom_site_fract_y
_atom_site_fract_z
Si Si1 0.321260 0.798298 0.500000
Si Si2 0.173419 0.054440 0.380112
Si Si3 0.329858 0.500000 0.426694
Si Si4 0.321014 0.767736 0.632515
Si Si5 0.677001 0.903381 0.069252
Si Si6 0.821990 0.329545 0.673336
Si Si7 0.321827 0.093563 0.500000
Si Si8 0.177156 0.855853 0.702116
O O1 0.500000 0.804139 0.500000
O O2 0.269607 0.769107 0.560821
O O3 0.249467 0.852285 0.500000
O O4 0.273095 0.064779 0.439700
O O5 0.212156 0.090931 0.324572
O O6 0.000000 0.060430 0.400523
O O7 0.207341 0.000000 0.356482
O O8 0.500000 0.500000 0.402214
O O9 0.318216 0.500000 0.500000
O O10 0.250882 0.548494 0.401465
O O11 0.500000 0.759649 0.639721
O O12 0.232214 0.725489 0.667263
O O13 0.275415 0.818036 0.663325
O O14 0.500000 0.912880 0.068418
O O15 0.720196 0.857389 0.110574
O O16 0.737693 0.892981 0.000000
O O17 0.732289 0.355874 0.727741
O O18 0.000000 0.330435 0.687494
O O19 0.500000 0.097270 0.500000
O O20 0.000000 0.842566 0.698221
#
# Coordination Sequence:
#
# PCOD8292117 Si02
#       8
#     8  16   8  16  16  16   8  16
#     4   9  20  36  58  89 122 155 191 244 301 346
#     4  10  22  40  61  87 121 160 203 250 299 353
#     4   9  17  31  55  85 113 143 183 228 277 334
#     4  11  22  40  63  87 119 155 195 242 295 351
#     4   9  19  37  59  82 113 150 188 233 287 347
#     4  11  24  40  60  88 119 153 195 242 294 353
#     4  11  20  36  61  92 126 158 199 247 299 354
#     4  11  23  41  62  84 115 158 203 243 292 351
#
# _framework density 19.670231000000001
#
# number of rings (size 3 to 8) (size 9 to 14) (size 15 to 20)
#    0.000    1.769    1.538    2.538    1.077    4.000 
#    1.385    1.154    0.000    0.000    0.000    0.000 
#    0.000    0.000    0.000    0.000    0.000    0.000 
#
# Total GULP energy -644957.164478 kJ/mol
# GULP energy per Si atom -12403.022394 kJ/mol
# Density = 1.962546 g / cm^3
# Si number density = 19.670231 Si / 1000 Ang^3
#
#
#
# Elastic Constant Matrix: (Units=GPa)
#
#
# Indices 1 2 3 4 5 6 
#
# 1 48.5398 32.4745 30.4968 0.0000 0.0000 0.0000
# 2 32.4745 124.6510 48.4941 0.0000 0.0000 0.0000
# 3 30.4968 48.4941 110.2653 -0.0001 0.0000 0.0000
# 4 0.0000 0.0000 -0.0001 19.6049 0.0000 0.0000
# 5 0.0000 0.0000 0.0000 0.0000 25.0354 0.0000
# 6 0.0000 0.0000 0.0000 0.0000 0.0000 21.6215
#
#
#
# Elastic Compliance Matrix: (Units=1/GPa)
#
#
# Indices 1 2 3 4 5 6 
#
# 1 0.027331 -0.005042 -0.005342 0.000000 0.000000 0.000000
# 2 -0.005042 0.010609 -0.003271 0.000000 0.000000 0.000000
# 3 -0.005342 -0.003271 0.011985 0.000000 0.000000 0.000000
# 4 0.000000 0.000000 0.000000 0.051008 0.000000 0.000000
# 5 0.000000 0.000000 0.000000 0.000000 0.039943 0.000000
# 6 0.000000 0.000000 0.000000 0.000000 0.000000 0.046250
#
#
# Mechanical properties :
#
#
# Convention : Reuss Voigt Hill
#
# Bulk Modulus (GPa) = 44.21868 56.26522 50.24195
# Shear Modulus (GPa) = 22.52515 24.71841 23.62178
#
# Velocity S-wave (km/s) = 3.38766 3.54876 3.46914
# Velocity P-wave (km/s) = 6.15065 6.74225 6.45323
#
# Compressibility (1/GPa) = 0.02261488
#
# Stress axis : x y z
#
# Youngs Moduli (GPa) = 36.58830 94.26322 83.43785
#
# Poissons Ratio (x) = 0.47531 0.44569
# Poissons Ratio (y) = 0.18449 0.27293
# Poissons Ratio (z) = 0.19544 0.30834
#
# Static dielectric constant tensor:
#      x y z
#    x 3.528350 0.000000 0.000000 
#    y 0.000000 3.678190 0.000000 
#    z 0.000000 0.000000 3.727740 
# 
# 
# High freq. dielectric constant tensor:
#      x y z
#    x 1.764390 0.000000 0.000000 
#    y 0.000000 1.773770 0.000000 
#    z 0.000000 0.000000 1.761410 
# 
# From -- ./inp_files/50960.got.cif
#   From: 2010.06.25/outbox.cif.g09.slc.cpg/sg71_26_cif.got.tgz:50960.got - 2010.06.28 04:59:45.
