data_PCOD8292734
_publ_section_title
;
Structure prediction by ZEFSAII (Michael W. Deem and Ramdas Pophale) SiO2 
 PCOD8292734
Probable space group: I M M M
;
_chemical_formula_sum "Si O2"
_cell_formula_units_Z 96
_cell_length_a 27.156806
_cell_length_b 23.455006
_cell_length_c 9.591073
_cell_angle_alpha 90.000000
_cell_angle_beta 90.000000
_cell_angle_gamma 90.000000
_cell_volume 6109.159089
_symmetry_space_group_name_H-M "I M M M"
_symmetry_group_IT_number 71
_symmetry_cell_setting 'orthorhombic'
loop_
_space_group_symop_operation_xyz
x,y,z
-x,-y,z
x,-y,-z
-x,y,-z
-x,-y,-z
x,y,-z
-x,y,z
x,-y,z
1/2+x,1/2+y,1/2+z
1/2-x,1/2-y,1/2+z
1/2+x,1/2-y,1/2-z
1/2-x,1/2+y,1/2-z
1/2-x,1/2-y,1/2-z
1/2+x,1/2+y,1/2-z
1/2-x,1/2+y,1/2+z
1/2+x,1/2-y,1/2+z
loop_
_atom_site_type_symbol
_atom_site_label
_atom_site_fract_x
_atom_site_fract_y
_atom_site_fract_z
Si Si1 0.700479 0.307102 0.343035
Si Si2 0.355754 0.500000 0.334182
Si Si3 0.709808 0.119399 0.163330
Si Si4 0.604085 0.618490 0.656764
Si Si5 0.256536 0.000000 0.166733
Si Si6 0.852781 0.718993 0.662412
Si Si7 0.555314 0.710061 0.161961
O O1 0.710455 0.284601 0.500000
O O2 0.747056 0.340065 0.278294
O O3 0.656217 0.351263 0.343818
O O4 0.688612 0.254179 0.243993
O O5 0.352007 0.500000 0.500000
O O6 0.386451 0.555084 0.282892
O O7 0.299639 0.500000 0.276062
O O8 0.714107 0.055606 0.226632
O O9 0.657457 0.151510 0.194816
O O10 0.718851 0.113149 0.000000
O O11 0.582129 0.616420 0.500000
O O12 0.565926 0.652113 0.754321
O O13 0.256670 0.000000 0.000000
O O14 0.844456 0.731346 0.500000
O O15 0.907800 0.738466 0.707543
O O16 0.500000 0.730994 0.194901
O O17 0.562080 0.695462 0.000000
#
# Coordination Sequence:
#
# PCOD8292734 Si02
#       7
#    16   8  16  16   8  16  16
#     4   9  15  24  39  60  84 108 130 155 195 241
#     4   9  14  24  40  60  85 111 134 157 195 240
#     4   9  15  23  37  60  86 108 132 160 192 233
#     4   9  16  26  43  64  82 103 134 168 199 236
#     4   9  14  22  38  60  87 115 135 157 189 234
#     4   9  17  27  40  60  81 102 133 170 201 234
#     4   9  18  32  45  56  76 107 138 170 211 248
#
# _framework density 15.714111000000001
#
# number of rings (size 3 to 8) (size 9 to 14) (size 15 to 20)
#    0.000    3.000    1.667    0.500    0.000    0.333 
#    0.000    0.833    0.000    2.500    0.000    2.917 
#    0.000    4.667    0.000    0.000    0.000   14.750 
#
# Total GULP energy -594727.075928 kJ/mol
# GULP energy per Si atom -12390.147415 kJ/mol
# Density = 1.567834 g / cm^3
# Si number density = 15.714111 Si / 1000 Ang^3
#
#
#
# Elastic Constant Matrix: (Units=GPa)
#
#
# Indices 1 2 3 4 5 6 
#
# 1 80.9257 68.1958 19.7177 0.0000 0.0000 0.0000
# 2 68.1958 118.8847 26.9466 0.0000 0.0000 0.0000
# 3 19.7177 26.9466 26.5098 0.0000 0.0000 0.0000
# 4 0.0000 0.0000 0.0000 15.1253 0.0000 0.0000
# 5 0.0000 0.0000 0.0000 0.0000 11.4453 0.0000
# 6 0.0000 0.0000 0.0000 0.0000 0.0000 12.7342
#
#
#
# Elastic Compliance Matrix: (Units=1/GPa)
#
#
# Indices 1 2 3 4 5 6 
#
# 1 0.024440 -0.012863 -0.005103 0.000000 0.000000 0.000000
# 2 -0.012863 0.017699 -0.008424 0.000000 0.000000 0.000000
# 3 -0.005103 -0.008424 0.050080 0.000000 0.000000 0.000000
# 4 0.000000 0.000000 0.000000 0.066114 0.000000 0.000000
# 5 0.000000 0.000000 0.000000 0.000000 0.087372 0.000000
# 6 0.000000 0.000000 0.000000 0.000000 0.000000 0.078529
#
#
# Mechanical properties :
#
#
# Convention : Reuss Voigt Hill
#
# Bulk Modulus (GPa) = 25.35518 50.67115 38.01316
# Shear Modulus (GPa) = 12.81522 15.29163 14.05342
#
# Velocity S-wave (km/s) = 2.85883 3.12286 2.99376
# Velocity P-wave (km/s) = 5.20265 6.73191 6.01607
#
# Compressibility (1/GPa) = 0.03943967
#
# Stress axis : x y z
#
# Youngs Moduli (GPa) = 40.91700 56.49963 19.96786
#
# Poissons Ratio (x) = 0.72673 0.10191
# Poissons Ratio (y) = 0.52630 0.16821
# Poissons Ratio (z) = 0.20882 0.47594
#
# Static dielectric constant tensor:
#      x y z
#    x 2.938410 0.000000 0.000000 
#    y 0.000000 3.262210 0.000000 
#    z 0.000000 0.000000 2.824730 
# 
# 
# High freq. dielectric constant tensor:
#      x y z
#    x 1.583450 0.000000 0.000000 
#    y 0.000000 1.599170 0.000000 
#    z 0.000000 0.000000 1.568700 
# 
# From -- ./inp_files/29054.got.cif
#   From: 2010.06.25/outbox.cif.g09.slc.cpg/sg71_15_cif.got.tgz:29054.got - 2010.06.28 04:59:45.
