data_PCOD8292687
_publ_section_title
;
Structure prediction by ZEFSAII (Michael W. Deem and Ramdas Pophale) SiO2 
 PCOD8292687
Probable space group: I M M M
;
_chemical_formula_sum "Si O2"
_cell_formula_units_Z 64
_cell_length_a 15.106005
_cell_length_b 24.518539
_cell_length_c 9.765422
_cell_angle_alpha 90.000000
_cell_angle_beta 90.000000
_cell_angle_gamma 90.000000
_cell_volume 3616.889391
_symmetry_space_group_name_H-M "I M M M"
_symmetry_group_IT_number 71
_symmetry_cell_setting 'orthorhombic'
loop_
_space_group_symop_operation_xyz
x,y,z
-x,-y,z
x,-y,-z
-x,y,-z
-x,-y,-z
x,y,-z
-x,y,z
x,-y,z
1/2+x,1/2+y,1/2+z
1/2-x,1/2-y,1/2+z
1/2+x,1/2-y,1/2-z
1/2-x,1/2+y,1/2-z
1/2-x,1/2-y,1/2-z
1/2+x,1/2+y,1/2-z
1/2-x,1/2+y,1/2+z
1/2+x,1/2-y,1/2+z
loop_
_atom_site_type_symbol
_atom_site_label
_atom_site_fract_x
_atom_site_fract_y
_atom_site_fract_z
Si Si1 0.602336 0.353997 0.841057
Si Si2 0.753531 0.939212 0.337625
Si Si3 0.901548 0.636291 0.163146
Si Si4 0.394950 0.256744 0.348062
O O1 0.500000 0.366541 0.808536
O O2 0.657510 0.407122 0.795756
O O3 0.639603 0.302307 0.757140
O O4 0.617247 0.340208 0.000000
O O5 0.746066 0.942562 0.500000
O O6 0.667104 0.908209 0.278235
O O7 0.757654 0.000000 0.274315
O O8 0.867497 0.696663 0.206371
O O9 0.000000 0.623907 0.222083
O O10 0.905074 0.634470 0.000000
O O11 0.355714 0.268071 0.500000
O O12 0.500000 0.258471 0.355913
#
# Coordination Sequence:
#
# PCOD8292687 Si02
#       4
#    16  16  16  16
#     4   9  17  28  42  62  88 114 139 170 206 244
#     4   9  17  27  39  58  83 111 144 176 205 243
#     4   8  14  25  41  61  84 108 135 171 213 252
#     4   8  14  26  44  64  85 109 137 169 208 253
#
# _framework density 17.694762000000001
#
# number of rings (size 3 to 8) (size 9 to 14) (size 15 to 20)
#    0.000    3.500    0.000    1.500    0.000    2.000 
#    0.000    5.000    0.000    0.750    0.000    3.500 
#    0.000    0.000    0.000   12.000    0.000   12.500 
#
# Total GULP energy -396575.274528 kJ/mol
# GULP energy per Si atom -12392.977329 kJ/mol
# Density = 1.765449 g / cm^3
# Si number density = 17.694762 Si / 1000 Ang^3
#
#
#
# Elastic Constant Matrix: (Units=GPa)
#
#
# Indices 1 2 3 4 5 6 
#
# 1 89.4579 73.9182 21.5531 0.0001 0.0001 0.0000
# 2 73.9182 182.4239 39.1776 0.0000 0.0001 0.0000
# 3 21.5531 39.1776 29.8925 0.0001 -0.0006 -0.0002
# 4 0.0001 0.0000 0.0001 19.9410 -0.0001 0.0000
# 5 0.0001 0.0001 -0.0006 -0.0001 8.6396 0.0000
# 6 0.0000 0.0000 -0.0002 0.0000 0.0000 32.7744
#
#
#
# Elastic Compliance Matrix: (Units=1/GPa)
#
#
# Indices 1 2 3 4 5 6 
#
# 1 0.017240 -0.006007 -0.004558 0.000000 -0.000001 0.000000
# 2 -0.006007 0.009722 -0.008411 0.000000 -0.000001 0.000000
# 3 -0.004558 -0.008411 0.047763 0.000000 0.000003 0.000000
# 4 0.000000 0.000000 0.000000 0.050148 0.000000 0.000000
# 5 -0.000001 -0.000001 0.000003 0.000000 0.115746 0.000000
# 6 0.000000 0.000000 0.000000 0.000000 0.000000 0.030512
#
#
# Mechanical properties :
#
#
# Convention : Reuss Voigt Hill
#
# Bulk Modulus (GPa) = 27.19308 63.45244 45.32276
# Shear Modulus (GPa) = 15.55992 23.41269 19.48630
#
# Velocity S-wave (km/s) = 2.96860 3.64145 3.32210
# Velocity P-wave (km/s) = 5.21070 7.32240 6.35487
#
# Compressibility (1/GPa) = 0.03677406
#
# Stress axis : x y z
#
# Youngs Moduli (GPa) = 58.00506 102.85942 20.93679
#
# Poissons Ratio (x) = 0.61785 0.09542
# Poissons Ratio (y) = 0.34842 0.17610
# Poissons Ratio (z) = 0.26437 0.86513
#
# Static dielectric constant tensor:
#      x y z
#    x 3.336290 0.000000 0.000000 
#    y 0.000000 3.640400 0.000000 
#    z 0.000000 0.000000 2.930290 
# 
# 
# High freq. dielectric constant tensor:
#      x y z
#    x 1.682850 0.000000 0.000000 
#    y 0.000000 1.686710 0.000000 
#    z 0.000000 0.000000 1.619720 
# 
# From -- ./inp_files/5439.got.cif
#   From: 2010.06.25/outbox.cif.g09.slc.cpg/sg71_3_cif.got.tgz:5439.got - 2010.06.28 04:59:45.
