data_PCOD8292844
_publ_section_title
;
Structure prediction by ZEFSAII (Michael W. Deem and Ramdas Pophale) SiO2 
 PCOD8292844
Probable space group: I B A M
;
_chemical_formula_sum "Si O2"
_cell_formula_units_Z 112
_cell_length_a 27.573348
_cell_length_b 27.145696
_cell_length_c 9.765016
_cell_angle_alpha 90.000000
_cell_angle_beta 90.000000
_cell_angle_gamma 90.000000
_cell_volume 7309.092236
_symmetry_space_group_name_H-M "I B A M"
_symmetry_group_IT_number 72
_symmetry_cell_setting 'orthorhombic'
loop_
_space_group_symop_operation_xyz
x,y,z
-x,-y,z
x,-y,1/2-z
-x,y,1/2-z
-x,-y,-z
x,y,-z
-x,y,1/2+z
x,-y,1/2+z
1/2+x,1/2+y,1/2+z
1/2-x,1/2-y,1/2+z
1/2+x,1/2-y,-z
1/2-x,1/2+y,-z
1/2-x,1/2-y,1/2-z
1/2+x,1/2+y,1/2-z
1/2-x,1/2+y,z
1/2+x,1/2-y,z
loop_
_atom_site_type_symbol
_atom_site_label
_atom_site_fract_x
_atom_site_fract_y
_atom_site_fract_z
Si Si1 0.854753 0.792747 0.660110
Si Si2 0.261091 0.954508 0.340227
Si Si3 0.704831 0.645256 0.343670
Si Si4 0.851952 0.397137 0.838234
Si Si5 0.544391 0.871050 0.842034
Si Si6 0.802151 0.697672 0.658994
Si Si7 0.044266 0.743262 0.843171
O O1 0.847157 0.803802 0.500000
O O2 0.840506 0.841933 0.744854
O O3 0.819140 0.749979 0.718422
O O4 0.909781 0.777148 0.691878
O O5 0.259138 0.968754 0.500000
O O6 0.226024 0.908497 0.309161
O O7 0.316535 0.941635 0.292591
O O8 0.242557 0.000000 0.250000
O O9 0.686819 0.646744 0.500000
O O10 0.745627 0.686955 0.317670
O O11 0.908593 0.404011 0.800066
O O12 0.832984 0.346298 0.770787
O O13 0.845557 0.391599 0.000000
O O14 0.500000 0.889691 0.750000
O O15 0.556876 0.813875 0.813794
O O16 0.530449 0.879480 0.000000
O O17 0.815863 0.699328 0.500000
O O18 0.000000 0.761479 0.750000
O O19 0.028505 0.749962 0.000000
#
# Coordination Sequence:
#
# PCOD8292844 Si02
#       7
#    16  16  16  16  16  16  16
#     4  10  17  26  42  62  86 116 146 174 203 241
#     4   9  18  32  49  65  82 107 140 177 218 262
#     4   9  18  29  42  62  86 112 140 170 211 257
#     4   8  13  25  44  61  79 110 145 173 211 261
#     4   9  15  25  41  59  81 109 143 180 214 249
#     4   8  13  24  40  58  83 114 144 170 200 246
#     4   9  17  27  40  59  84 117 151 179 207 240
#
# _framework density 15.323380999999999
#
# number of rings (size 3 to 8) (size 9 to 14) (size 15 to 20)
#    0.000    3.143    1.429    2.143    0.000    1.143 
#    0.000    0.714    0.000    2.143    0.000    3.000 
#    0.000    0.571    0.000    6.286    0.000    4.571 
#
# Total GULP energy -693902.000077 kJ/mol
# GULP energy per Si atom -12391.107144 kJ/mol
# Density = 1.528850 g / cm^3
# Si number density = 15.323381 Si / 1000 Ang^3
#
#
#
# Elastic Constant Matrix: (Units=GPa)
#
#
# Indices 1 2 3 4 5 6 
#
# 1 54.3811 35.9823 37.9694 0.0000 0.0000 0.0000
# 2 35.9823 62.4478 36.3637 0.0000 0.0000 0.0000
# 3 37.9694 36.3637 52.0507 0.0000 0.0000 0.0000
# 4 0.0000 0.0000 0.0000 18.7107 0.0000 0.0000
# 5 0.0000 0.0000 0.0000 0.0000 25.6528 0.0000
# 6 0.0000 0.0000 0.0000 0.0000 0.0000 15.4732
#
#
#
# Elastic Compliance Matrix: (Units=1/GPa)
#
#
# Indices 1 2 3 4 5 6 
#
# 1 0.041204 -0.010518 -0.022709 0.000000 0.000000 0.000000
# 2 -0.010518 0.029680 -0.013063 0.000000 0.000000 0.000000
# 3 -0.022709 -0.013063 0.044903 0.000000 0.000000 0.000000
# 4 0.000000 0.000000 0.000000 0.053445 0.000000 0.000000
# 5 0.000000 0.000000 0.000000 0.000000 0.038982 0.000000
# 6 0.000000 0.000000 0.000000 0.000000 0.000000 0.064628
#
#
# Mechanical properties :
#
#
# Convention : Reuss Voigt Hill
#
# Bulk Modulus (GPa) = 43.08802 43.27896 43.18349
# Shear Modulus (GPa) = 13.39917 15.87161 14.63539
#
# Velocity S-wave (km/s) = 2.96028 3.22184 3.09383
# Velocity P-wave (km/s) = 6.31383 6.49195 6.40351
#
# Compressibility (1/GPa) = 0.02320831
#
# Stress axis : x y z
#
# Youngs Moduli (GPa) = 24.26976 33.69225 22.27015
#
# Poissons Ratio (x) = 0.35438 0.50572
# Poissons Ratio (y) = 0.25527 0.29091
# Poissons Ratio (z) = 0.55113 0.44011
#
# Static dielectric constant tensor:
#      x y z
#    x 2.889300 0.000000 0.000000 
#    y 0.000000 2.673570 0.000000 
#    z 0.000000 0.000000 2.692460 
# 
# 
# High freq. dielectric constant tensor:
#      x y z
#    x 1.577480 0.000000 0.000000 
#    y 0.000000 1.554390 0.000000 
#    z 0.000000 0.000000 1.565430 
# 
# From -- ./inp_files/15621.got.cif
#   From: 2010.03.12/outbox.cif.g09.slc.cpg/sg72_8_cif.got.tgz:15621.got - 2010.04.16 14:54:00.
