data_PCOD8292093
_publ_section_title
;
Structure prediction by ZEFSAII (Michael W. Deem and Ramdas Pophale) SiO2 
 PCOD8292093
Probable space group: I M M M
;
_chemical_formula_sum "Si O2"
_cell_formula_units_Z 88
_cell_length_a 26.740158
_cell_length_b 17.782144
_cell_length_c 9.274442
_cell_angle_alpha 90.000000
_cell_angle_beta 90.000000
_cell_angle_gamma 90.000000
_cell_volume 4409.972502
_symmetry_space_group_name_H-M "I M M M"
_symmetry_group_IT_number 71
_symmetry_cell_setting 'orthorhombic'
loop_
_space_group_symop_operation_xyz
x,y,z
-x,-y,z
x,-y,-z
-x,y,-z
-x,-y,-z
x,y,-z
-x,y,z
x,-y,z
1/2+x,1/2+y,1/2+z
1/2-x,1/2-y,1/2+z
1/2+x,1/2-y,1/2-z
1/2-x,1/2+y,1/2-z
1/2-x,1/2-y,1/2-z
1/2+x,1/2+y,1/2-z
1/2-x,1/2+y,1/2+z
1/2+x,1/2-y,1/2+z
loop_
_atom_site_type_symbol
_atom_site_label
_atom_site_fract_x
_atom_site_fract_y
_atom_site_fract_z
Si Si1 0.299615 0.588045 0.843297
Si Si2 0.113452 0.651034 0.669956
Si Si3 0.442359 0.000000 0.171175
Si Si4 0.088193 0.913690 0.666703
Si Si5 0.943858 0.778108 0.162215
Si Si6 0.727920 0.178378 0.831585
O O1 0.302492 0.500000 0.855577
O O2 0.355374 0.616810 0.810341
O O3 0.262338 0.609053 0.715479
O O4 0.282338 0.620989 0.000000
O O5 0.105379 0.658782 0.500000
O O6 0.087921 0.573597 0.726527
O O7 0.088575 0.721662 0.744642
O O8 0.171817 0.654996 0.711554
O O9 0.500000 0.000000 0.229314
O O10 0.443121 0.000000 0.000000
O O11 0.072247 0.905800 0.500000
O O12 0.054612 0.860745 0.766380
O O13 0.081573 0.000000 0.717110
O O14 0.000000 0.746841 0.159366
O O15 0.922206 0.783343 0.000000
O O16 0.750000 0.250000 0.750000
O O17 0.732556 0.193058 0.000000
#
# Coordination Sequence:
#
# PCOD8292093 Si02
#       6
#    16  16   8  16  16  16
#     4   9  19  36  57  81 112 147 184 225 273 331
#     4  10  22  39  61  86 113 150 196 244 292 349
#     4   9  18  36  63  89 111 141 191 253 306 349
#     4   9  19  37  60  85 113 149 195 241 280 332
#     4  11  24  39  56  82 116 150 187 236 293 352
#     4  11  23  36  55  83 117 152 190 237 283 340
#
# _framework density 19.954772999999999
#
# number of rings (size 3 to 8) (size 9 to 14) (size 15 to 20)
#    0.000    2.091    0.000    3.818    1.273    9.818 
#    0.000    4.091    0.000    1.636    0.000    0.000 
#    0.000    0.000    0.000    0.000    0.000    0.000 
#
# Total GULP energy -545503.131122 kJ/mol
# GULP energy per Si atom -12397.798435 kJ/mol
# Density = 1.990935 g / cm^3
# Si number density = 19.954773 Si / 1000 Ang^3
#
#
#
# Elastic Constant Matrix: (Units=GPa)
#
#
# Indices 1 2 3 4 5 6 
#
# 1 101.5054 38.1715 38.7874 0.0000 0.0000 0.0000
# 2 38.1715 93.6210 36.3556 0.0000 0.0000 0.0000
# 3 38.7874 36.3556 54.1136 0.0000 0.0000 0.0000
# 4 0.0000 0.0000 0.0000 26.0905 0.0000 0.0000
# 5 0.0000 0.0000 0.0000 0.0000 28.9767 0.0000
# 6 0.0000 0.0000 0.0000 0.0000 0.0000 36.3272
#
#
#
# Elastic Compliance Matrix: (Units=1/GPa)
#
#
# Indices 1 2 3 4 5 6 
#
# 1 0.013970 -0.002445 -0.008370 0.000000 0.000000 0.000000
# 2 -0.002445 0.014880 -0.008244 0.000000 0.000000 0.000000
# 3 -0.008370 -0.008244 0.030018 0.000000 0.000000 0.000000
# 4 0.000000 0.000000 0.000000 0.038328 0.000000 0.000000
# 5 0.000000 0.000000 0.000000 0.000000 0.034510 0.000000
# 6 0.000000 0.000000 0.000000 0.000000 0.000000 0.027528
#
#
# Mechanical properties :
#
#
# Convention : Reuss Voigt Hill
#
# Bulk Modulus (GPa) = 48.19722 52.87430 50.53576
# Shear Modulus (GPa) = 24.47752 27.34058 25.90905
#
# Velocity S-wave (km/s) = 3.50616 3.70554 3.60723
# Velocity P-wave (km/s) = 6.37154 6.69796 6.53679
#
# Compressibility (1/GPa) = 0.02074808
#
# Stress axis : x y z
#
# Youngs Moduli (GPa) = 71.58324 67.20525 33.31341
#
# Poissons Ratio (x) = 0.16434 0.27884
# Poissons Ratio (y) = 0.17505 0.27464
# Poissons Ratio (z) = 0.59917 0.55404
#
# Static dielectric constant tensor:
#      x y z
#    x 4.283040 0.000000 0.000000 
#    y 0.000000 3.736700 0.000000 
#    z 0.000000 0.000000 2.911030 
# 
# 
# High freq. dielectric constant tensor:
#      x y z
#    x 1.785000 0.000000 0.000000 
#    y 0.000000 1.785350 0.000000 
#    z 0.000000 0.000000 1.763570 
# 
# From -- ./inp_files/12573.got.cif
#   From: 2010.06.25/outbox.cif.g09.slc.cpg/sg71_7_cif.got.tgz:12573.got - 2010.06.28 04:59:45.
