data_PCOD8292950
_publ_section_title
;
Structure prediction by ZEFSAII (Michael W. Deem and Ramdas Pophale) SiO2 
 PCOD8292950
Probable space group: I B A M
;
_chemical_formula_sum "Si O2"
_cell_formula_units_Z 96
_cell_length_a 26.313562
_cell_length_b 23.320394
_cell_length_c 8.741114
_cell_angle_alpha 90.000000
_cell_angle_beta 90.000000
_cell_angle_gamma 90.000000
_cell_volume 5363.920214
_symmetry_space_group_name_H-M "I B A M"
_symmetry_group_IT_number 72
_symmetry_cell_setting 'orthorhombic'
loop_
_space_group_symop_operation_xyz
x,y,z
-x,-y,z
x,-y,1/2-z
-x,y,1/2-z
-x,-y,-z
x,y,-z
-x,y,1/2+z
x,-y,1/2+z
1/2+x,1/2+y,1/2+z
1/2-x,1/2-y,1/2+z
1/2+x,1/2-y,-z
1/2-x,1/2+y,-z
1/2-x,1/2-y,1/2-z
1/2+x,1/2+y,1/2-z
1/2-x,1/2+y,z
1/2+x,1/2-y,z
loop_
_atom_site_type_symbol
_atom_site_label
_atom_site_fract_x
_atom_site_fract_y
_atom_site_fract_z
Si Si1 0.046917 0.250509 0.833468
Si Si2 0.611856 0.838382 0.178757
Si Si3 0.446478 0.562092 0.183101
Si Si4 0.130206 0.156378 0.833082
Si Si5 0.194891 0.752945 0.179643
Si Si6 0.554109 0.062070 0.182188
O O1 0.063162 0.299890 0.716031
O O2 0.088124 0.203263 0.861019
O O3 0.000000 0.219848 0.750000
O O4 0.033180 0.277221 0.000000
O O5 0.661329 0.801894 0.236885
O O6 0.601944 0.897625 0.269238
O O7 0.615857 0.851707 0.000000
O O8 0.434710 0.500000 0.250000
O O9 0.500000 0.585304 0.250000
O O10 0.398533 0.601010 0.237066
O O11 0.450556 0.560941 0.000000
O O12 0.172120 0.184453 0.722725
O O13 0.154592 0.141643 0.000000
O O14 0.250000 0.750000 0.250000
O O15 0.198907 0.750228 0.000000
O O16 0.500000 0.084142 0.250000
O O17 0.566697 0.000000 0.250000
O O18 0.550170 0.058984 0.000000
#
# Coordination Sequence:
#
# PCOD8292950 Si02
#       6
#    16  16  16  16  16  16
#     4  10  18  28  43  66  96 129 161 199 244 294
#     4  10  20  34  50  72  99 130 166 204 247 298
#     4  10  19  31  48  72 103 140 175 210 246 291
#     4   9  19  33  49  70  98 130 167 207 250 297
#     4  10  21  36  57  79 101 128 162 207 259 309
#     4  11  21  34  52  75 105 141 175 209 244 289
#
# _framework density 17.897358000000001
#
# number of rings (size 3 to 8) (size 9 to 14) (size 15 to 20)
#    0.000    2.000    0.000    5.500    0.000    4.000 
#    0.000    0.000    0.000    1.000    0.000    4.667 
#    0.000    0.000    0.000    0.000    0.000    0.000 
#
# Total GULP energy -594741.684221 kJ/mol
# GULP energy per Si atom -12390.451755 kJ/mol
# Density = 1.785662 g / cm^3
# Si number density = 17.897358 Si / 1000 Ang^3
#
#
#
# Elastic Constant Matrix: (Units=GPa)
#
#
# Indices 1 2 3 4 5 6 
#
# 1 102.2860 52.5419 50.5246 0.0000 0.0000 0.0000
# 2 52.5419 99.8796 38.5324 0.0000 0.0000 0.0000
# 3 50.5246 38.5324 96.4790 0.0000 0.0000 0.0000
# 4 0.0000 0.0000 0.0000 707.1626 0.0000 0.0000
# 5 0.0000 0.0000 0.0000 0.0000 27.0296 0.0000
# 6 0.0000 0.0000 0.0000 0.0000 0.0000 28.8540
#
#
#
# Elastic Compliance Matrix: (Units=1/GPa)
#
#
# Indices 1 2 3 4 5 6 
#
# 1 0.015765 -0.006039 -0.005844 0.000000 0.000000 0.000000
# 2 -0.006039 0.014149 -0.002488 0.000000 0.000000 0.000000
# 3 -0.005844 -0.002488 0.014419 0.000000 0.000000 0.000000
# 4 0.000000 0.000000 0.000000 0.001414 0.000000 0.000000
# 5 0.000000 0.000000 0.000000 0.000000 0.036996 0.000000
# 6 0.000000 0.000000 0.000000 0.000000 0.000000 0.034657
#
#
# Mechanical properties :
#
#
# Convention : Reuss Voigt Hill
#
# Bulk Modulus (GPa) = 64.14139 64.64914 64.39527
# Shear Modulus (GPa) = 33.03803 163.07896 98.05849
#
# Velocity S-wave (km/s) = 4.30114 9.55598 7.41001
# Velocity P-wave (km/s) = 7.78349 12.56807 10.45321
#
# Compressibility (1/GPa) = 0.01559056
#
# Stress axis : x y z
#
# Youngs Moduli (GPa) = 63.43071 70.67762 69.35129
#
# Poissons Ratio (x) = 0.42680 0.40531
# Poissons Ratio (y) = 0.38304 0.17258
# Poissons Ratio (z) = 0.37070 0.17588
#
# Static dielectric constant tensor:
#      x y z
#    x 8.093170 0.000000 0.000000 
#    y 0.000000 3.488000 0.000000 
#    z 0.000000 0.000000 3.506820 
# 
# 
# High freq. dielectric constant tensor:
#      x y z
#    x 1.663440 0.000000 0.000000 
#    y 0.000000 1.686830 0.000000 
#    z 0.000000 0.000000 1.707320 
# 
# From -- ./inp_files/8271.got.cif
#   From: 2010.03.12/outbox.cif.g09.slc.cpg/sg72_5_cif.got.tgz:8271.got - 2010.04.16 14:54:00.
