data_PCOD8292575
_publ_section_title
;
Structure prediction by ZEFSAII (Michael W. Deem and Ramdas Pophale) SiO2 
 PCOD8292575
Probable space group: I M M M
;
_chemical_formula_sum "Si O2"
_cell_formula_units_Z 88
_cell_length_a 19.657905
_cell_length_b 8.939535
_cell_length_c 23.944672
_cell_angle_alpha 90.000000
_cell_angle_beta 90.000000
_cell_angle_gamma 90.000000
_cell_volume 4207.857785
_symmetry_space_group_name_H-M "I M M M"
_symmetry_group_IT_number 71
_symmetry_cell_setting 'orthorhombic'
loop_
_space_group_symop_operation_xyz
x,y,z
-x,-y,z
x,-y,-z
-x,y,-z
-x,-y,-z
x,y,-z
-x,y,z
x,-y,z
1/2+x,1/2+y,1/2+z
1/2-x,1/2-y,1/2+z
1/2+x,1/2-y,1/2-z
1/2-x,1/2+y,1/2-z
1/2-x,1/2-y,1/2-z
1/2+x,1/2+y,1/2-z
1/2-x,1/2+y,1/2+z
1/2+x,1/2-y,1/2+z
loop_
_atom_site_type_symbol
_atom_site_label
_atom_site_fract_x
_atom_site_fract_y
_atom_site_fract_z
Si Si1 0.732942 0.833233 0.936736
Si Si2 0.123594 0.826669 0.627752
Si Si3 0.608372 0.328117 0.437500
Si Si4 0.000000 0.322871 0.564314
Si Si5 0.424359 0.828715 0.670230
Si Si6 0.676228 0.324356 0.247485
O O1 0.695237 0.707234 0.901341
O O2 0.811812 0.797848 0.933189
O O3 0.717510 0.000000 0.913141
O O4 0.706545 0.824322 0.000000
O O5 0.133375 0.780665 0.692306
O O6 0.065656 0.731139 0.597968
O O7 0.104909 0.000000 0.621537
O O8 0.582921 0.290075 0.500000
O O9 0.591332 0.500000 0.423305
O O10 0.570856 0.220316 0.394329
O O11 0.000000 0.500000 0.563961
O O12 0.000000 0.262988 0.500000
O O13 0.500000 0.808757 0.696185
O O14 0.369296 0.726248 0.700669
O O15 0.400703 0.000000 0.674569
O O16 0.688452 0.500000 0.250896
O O17 0.750000 0.250000 0.250000
#
# Coordination Sequence:
#
# PCOD8292575 Si02
#       6
#    16  16  16   8  16  16
#     4   9  18  34  57  86 119 155 198 246 298 361
#     4  11  24  39  59  89 122 157 202 257 313 369
#     4   9  19  37  62  91 122 160 205 252 306 367
#     4  11  25  43  63  89 123 167 214 257 310 381
#     4  11  25  42  61  89 125 164 207 255 310 369
#     4  11  25  44  67  94 125 162 209 263 319 381
#
# _framework density 20.913253999999998
#
# number of rings (size 3 to 8) (size 9 to 14) (size 15 to 20)
#    0.000    1.727    0.000    4.636    1.273   12.000 
#    0.000    3.636    0.000    0.000    0.000    0.000 
#    0.000    0.000    0.000    0.000    0.000    0.000 
#
# Total GULP energy -545662.567282 kJ/mol
# GULP energy per Si atom -12401.421984 kJ/mol
# Density = 2.086565 g / cm^3
# Si number density = 20.913254 Si / 1000 Ang^3
#
#
#
# Elastic Constant Matrix: (Units=GPa)
#
#
# Indices 1 2 3 4 5 6 
#
# 1 93.7432 45.2787 48.0855 0.0000 0.0000 0.0000
# 2 45.2787 77.7617 49.9346 0.0000 0.0000 0.0000
# 3 48.0855 49.9346 116.1945 0.0000 0.0000 0.0000
# 4 0.0000 0.0000 0.0000 34.6144 0.0000 0.0000
# 5 0.0000 0.0000 0.0000 0.0000 33.3773 0.0000
# 6 0.0000 0.0000 0.0000 0.0000 0.0000 32.7729
#
#
#
# Elastic Compliance Matrix: (Units=1/GPa)
#
#
# Indices 1 2 3 4 5 6 
#
# 1 0.015852 -0.006930 -0.003582 0.000000 0.000000 0.000000
# 2 -0.006930 0.020791 -0.006067 0.000000 0.000000 0.000000
# 3 -0.003582 -0.006067 0.012696 0.000000 0.000000 0.000000
# 4 0.000000 0.000000 0.000000 0.028890 0.000000 0.000000
# 5 0.000000 0.000000 0.000000 0.000000 0.029960 0.000000
# 6 0.000000 0.000000 0.000000 0.000000 0.000000 0.030513
#
#
# Mechanical properties :
#
#
# Convention : Reuss Voigt Hill
#
# Bulk Modulus (GPa) = 61.80159 63.81078 62.80619
# Shear Modulus (GPa) = 28.20813 29.77963 28.99388
#
# Velocity S-wave (km/s) = 3.67661 3.77763 3.72746
# Velocity P-wave (km/s) = 6.90209 7.04313 6.97297
#
# Compressibility (1/GPa) = 0.01618081
#
# Stress axis : x y z
#
# Youngs Moduli (GPa) = 63.08304 48.09784 78.76566
#
# Poissons Ratio (x) = 0.33333 0.28213
# Poissons Ratio (y) = 0.43718 0.47787
# Poissons Ratio (z) = 0.22596 0.29181
#
# Static dielectric constant tensor:
#      x y z
#    x 3.773710 0.000000 0.000000 
#    y 0.000000 3.702220 0.000000 
#    z 0.000000 0.000000 4.022400 
# 
# 
# High freq. dielectric constant tensor:
#      x y z
#    x 1.827000 0.000000 0.000000 
#    y 0.000000 1.815600 0.000000 
#    z 0.000000 0.000000 1.826800 
# 
# From -- ./inp_files/61121.got.cif
#   From: 2010.06.25/outbox.cif.g09.slc.cpg/sg71_31_cif.got.tgz:61121.got - 2010.06.28 04:59:45.
