data_PCOD8292017
_publ_section_title
;
Structure prediction by ZEFSAII (Michael W. Deem and Ramdas Pophale) SiO2 
 PCOD8292017
Probable space group: I M M M
;
_chemical_formula_sum "Si O2"
_cell_formula_units_Z 52
_cell_length_a 7.716013
_cell_length_b 19.917751
_cell_length_c 16.997963
_cell_angle_alpha 90.000000
_cell_angle_beta 90.000000
_cell_angle_gamma 90.000000
_cell_volume 2612.342578
_symmetry_space_group_name_H-M "I M M M"
_symmetry_group_IT_number 71
_symmetry_cell_setting 'orthorhombic'
loop_
_space_group_symop_operation_xyz
x,y,z
-x,-y,z
x,-y,-z
-x,y,-z
-x,-y,-z
x,y,-z
-x,y,z
x,-y,z
1/2+x,1/2+y,1/2+z
1/2-x,1/2-y,1/2+z
1/2+x,1/2-y,1/2-z
1/2-x,1/2+y,1/2-z
1/2-x,1/2-y,1/2-z
1/2+x,1/2+y,1/2-z
1/2-x,1/2+y,1/2+z
1/2+x,1/2-y,1/2+z
loop_
_atom_site_type_symbol
_atom_site_label
_atom_site_fract_x
_atom_site_fract_y
_atom_site_fract_z
Si Si1 0.795959 0.373620 0.911802
Si Si2 0.000000 0.000000 0.818461
Si Si3 0.308554 0.770147 0.093082
Si Si4 0.204890 0.500000 0.807260
Si Si5 0.500000 0.638274 0.406217
O O1 0.719280 0.305254 0.874215
O O2 0.740978 0.435155 0.857346
O O3 0.000000 0.365608 0.915439
O O4 0.723471 0.386499 0.000000
O O5 0.821929 0.000000 0.769913
O O6 0.000000 0.063871 0.874278
O O7 0.500000 0.795629 0.117252
O O8 0.168811 0.822465 0.126854
O O9 0.284990 0.765869 0.000000
O O10 0.000000 0.500000 0.785697
O O11 0.500000 0.635002 0.500000
#
# Coordination Sequence:
#
# PCOD8292017 Si02
#       5
#    16   4  16   8   8
#     4   9  16  32  59  88 119 156 190 226 273 327
#     4  12  27  42  59  80 108 158 198 230 287 346
#     4   9  17  31  58  91 115 136 178 239 292 332
#     4  10  23  39  55  79 127 159 191 227 270 331
#     4  10  21  42  64  84 107 137 190 252 295 335
#
# _framework density 19.905507
#
# number of rings (size 3 to 8) (size 9 to 14) (size 15 to 20)
#    0.000    2.462    1.538    0.692    2.154    3.077 
#    0.000    2.308    0.000    4.615    0.000    0.000 
#    0.000    0.000    0.000    0.000    0.000    0.000 
#
# Total GULP energy -322350.675817 kJ/mol
# GULP energy per Si atom -12398.102916 kJ/mol
# Density = 1.986020 g / cm^3
# Si number density = 19.905507 Si / 1000 Ang^3
#
#
#
# Elastic Constant Matrix: (Units=GPa)
#
#
# Indices 1 2 3 4 5 6 
#
# 1 121.0399 83.3576 34.0831 0.0000 0.0000 0.0000
# 2 83.3576 178.5276 38.6341 0.0000 0.0000 0.0000
# 3 34.0831 38.6341 38.2413 0.0000 0.0000 0.0000
# 4 0.0000 0.0000 0.0000 -0.4277 0.0000 0.0000
# 5 0.0000 0.0000 0.0000 0.0000 19.0955 0.0000
# 6 0.0000 0.0000 0.0000 0.0000 0.0000 15.0588
#
#
#
# Elastic Compliance Matrix: (Units=1/GPa)
#
#
# Indices 1 2 3 4 5 6 
#
# 1 0.013605 -0.004771 -0.007305 0.000000 0.000000 0.000000
# 2 -0.004771 0.008842 -0.004680 0.000000 0.000000 0.000000
# 3 -0.007305 -0.004680 0.037389 -0.000002 0.000000 0.000000
# 4 0.000000 0.000000 -0.000002 -2.338243 0.000000 0.000000
# 5 0.000000 0.000000 0.000000 0.000000 0.052368 0.000000
# 6 0.000000 0.000000 0.000000 0.000000 0.000000 0.066407
#
#
# Mechanical properties :
#
#
# Convention : Reuss Voigt Hill
#
# Bulk Modulus (GPa) = 37.99073 72.21760 55.10416
# Shear Modulus (GPa) = -2.36145 18.86091 8.24973
#
# Velocity S-wave (km/s) = -1.09037 3.08152 2.03800
# Velocity P-wave (km/s) = 4.18829 7.00143 5.76896
#
# Compressibility (1/GPa) = 0.02632221
#
# Stress axis : x y z
#
# Youngs Moduli (GPa) = 73.50399 113.09562 26.74601
#
# Poissons Ratio (x) = 0.53963 0.19538
# Poissons Ratio (y) = 0.35072 0.12518
# Poissons Ratio (z) = 0.53694 0.52932
#
# Static dielectric constant tensor:
#      x y z
#    x 3.723160 0.000000 0.000000 
#    y 0.000000 3.760890 0.000000 
#    z 0.000000 0.000000 3.200440 
# 
# 
# High freq. dielectric constant tensor:
#      x y z
#    x 1.785600 0.000000 0.000000 
#    y 0.000000 1.784430 0.000000 
#    z 0.000000 0.000000 1.730740 
# 
# From -- ./inp_files/7128.got.cif
#   From: 2010.06.25/outbox.cif.g09.slc.cpg/sg71_4_cif.got.tgz:7128.got - 2010.06.28 04:59:45.
