data_PCOD8292772
_publ_section_title
;
Structure prediction by ZEFSAII (Michael W. Deem and Ramdas Pophale) SiO2 
 PCOD8292772
Probable space group: I M M M
;
_chemical_formula_sum "Si O2"
_cell_formula_units_Z 120
_cell_length_a 19.167084
_cell_length_b 13.038146
_cell_length_c 28.404095
_cell_angle_alpha 90.000000
_cell_angle_beta 90.000000
_cell_angle_gamma 90.000000
_cell_volume 7098.275358
_symmetry_space_group_name_H-M "I M M M"
_symmetry_group_IT_number 71
_symmetry_cell_setting 'orthorhombic'
loop_
_space_group_symop_operation_xyz
x,y,z
-x,-y,z
x,-y,-z
-x,y,-z
-x,-y,-z
x,y,-z
-x,y,z
x,-y,z
1/2+x,1/2+y,1/2+z
1/2-x,1/2-y,1/2+z
1/2+x,1/2-y,1/2-z
1/2-x,1/2+y,1/2-z
1/2-x,1/2-y,1/2-z
1/2+x,1/2+y,1/2-z
1/2-x,1/2+y,1/2+z
1/2+x,1/2-y,1/2+z
loop_
_atom_site_type_symbol
_atom_site_label
_atom_site_fract_x
_atom_site_fract_y
_atom_site_fract_z
Si Si1 0.420384 0.500000 0.444183
Si Si2 0.843896 0.381147 0.129054
Si Si3 0.582363 0.114231 0.276399
Si Si4 0.686654 0.239851 0.947762
Si Si5 0.683829 0.617340 0.137164
Si Si6 0.580737 0.749301 0.809940
Si Si7 0.155238 0.792300 0.945408
Si Si8 0.923078 0.617206 0.401109
O O1 0.500000 0.500000 0.425628
O O2 0.417503 0.500000 0.500000
O O3 0.382492 0.604278 0.426266
O O4 0.854514 0.500000 0.113252
O O5 0.892839 0.349707 0.172325
O O6 0.765234 0.363474 0.147750
O O7 0.865418 0.307694 0.085456
O O8 0.500000 0.109898 0.276147
O O9 0.607343 0.195786 0.237583
O O10 0.612426 0.000000 0.265468
O O11 0.666063 0.330394 0.912506
O O12 0.762392 0.190524 0.939260
O O13 0.631523 0.148811 0.941098
O O14 0.681404 0.286089 0.000000
O O15 0.665536 0.500000 0.130524
O O16 0.634395 0.656875 0.179576
O O17 0.500000 0.711165 0.805936
O O18 0.590149 0.829032 0.851705
O O19 0.134996 0.770549 0.000000
O O20 0.913286 0.500000 0.389196
O O21 0.000000 0.642326 0.420789
#
# Coordination Sequence:
#
# PCOD8292772 Si02
#       8
#     8  16  16  16  16  16  16  16
#     4   9  18  32  50  70  91 123 165 201 234 278
#     4   9  18  32  50  74 102 127 157 198 244 289
#     4   9  17  30  50  73  95 120 150 189 240 294
#     4   9  18  30  45  67  93 124 159 197 237 279
#     4   9  18  32  48  67  93 126 160 197 237 278
#     4   9  17  30  48  68  90 121 161 198 231 279
#     4   9  18  32  50  71  96 129 166 200 235 282
#     4   9  17  28  43  65  93 122 152 191 238 284
#
# _framework density 16.905515000000001
#
# number of rings (size 3 to 8) (size 9 to 14) (size 15 to 20)
#    0.000    3.000    0.000    0.400    0.933    4.000 
#    0.000    3.333    1.467    0.000    0.000    7.467 
#    0.000    0.000    0.000    0.000    0.000    0.000 
#
# Total GULP energy -743710.042370 kJ/mol
# GULP energy per Si atom -12395.167373 kJ/mol
# Density = 1.686704 g / cm^3
# Si number density = 16.905515 Si / 1000 Ang^3
#
#
#
# Elastic Constant Matrix: (Units=GPa)
#
#
# Indices 1 2 3 4 5 6 
#
# 1 43.8143 49.0384 29.2397 0.0000 0.0000 0.0000
# 2 49.0384 100.0548 47.8440 0.0000 0.0000 0.0000
# 3 29.2397 47.8440 77.1703 0.0000 0.0000 0.0000
# 4 0.0000 0.0000 0.0000 24.5339 0.0000 0.0000
# 5 0.0000 0.0000 0.0000 0.0000 27.2222 0.0000
# 6 0.0000 0.0000 0.0000 0.0000 0.0000 25.0719
#
#
#
# Elastic Compliance Matrix: (Units=1/GPa)
#
#
# Indices 1 2 3 4 5 6 
#
# 1 0.052186 -0.022916 -0.005566 0.000000 0.000000 0.000000
# 2 -0.022916 0.024269 -0.006363 0.000000 0.000000 0.000000
# 3 -0.005566 -0.006363 0.019012 0.000000 0.000000 0.000000
# 4 0.000000 0.000000 0.000000 0.040760 0.000000 0.000000
# 5 0.000000 0.000000 0.000000 0.000000 0.036735 0.000000
# 6 0.000000 0.000000 0.000000 0.000000 0.000000 0.039885
#
#
# Mechanical properties :
#
#
# Convention : Reuss Voigt Hill
#
# Bulk Modulus (GPa) = 38.79402 52.58706 45.69054
# Shear Modulus (GPa) = 17.17448 21.69340 19.43394
#
# Velocity S-wave (km/s) = 3.19079 3.58608 3.39420
# Velocity P-wave (km/s) = 6.04750 6.95131 6.51509
#
# Compressibility (1/GPa) = 0.02577717
#
# Stress axis : x y z
#
# Youngs Moduli (GPa) = 19.16221 41.20544 52.59709
#
# Poissons Ratio (x) = 0.94425 0.29275
# Poissons Ratio (y) = 0.43911 0.33469
# Poissons Ratio (z) = 0.10666 0.26220
#
# Static dielectric constant tensor:
#      x y z
#    x 3.294450 0.000000 0.000000 
#    y 0.000000 3.224080 0.000000 
#    z 0.000000 0.000000 3.102150 
# 
# 
# High freq. dielectric constant tensor:
#      x y z
#    x 1.651660 0.000000 0.000000 
#    y 0.000000 1.645440 0.000000 
#    z 0.000000 0.000000 1.637850 
# 
# From -- ./inp_files/26514.got.cif
#   From: 2010.06.25/outbox.cif.g09.slc.cpg/sg71_14_cif.got.tgz:26514.got - 2010.06.28 04:59:45.
