data_PCOD8292549
_publ_section_title
;
Structure prediction by ZEFSAII (Michael W. Deem and Ramdas Pophale) SiO2 
 PCOD8292549
Probable space group: I M M M
;
_chemical_formula_sum "Si O2"
_cell_formula_units_Z 72
_cell_length_a 14.356741
_cell_length_b 8.745111
_cell_length_c 29.880391
_cell_angle_alpha 90.000000
_cell_angle_beta 90.000000
_cell_angle_gamma 90.000000
_cell_volume 3751.521745
_symmetry_space_group_name_H-M "I M M M"
_symmetry_group_IT_number 71
_symmetry_cell_setting 'orthorhombic'
loop_
_space_group_symop_operation_xyz
x,y,z
-x,-y,z
x,-y,-z
-x,y,-z
-x,-y,-z
x,y,-z
-x,y,z
x,-y,z
1/2+x,1/2+y,1/2+z
1/2-x,1/2-y,1/2+z
1/2+x,1/2-y,1/2-z
1/2-x,1/2+y,1/2-z
1/2-x,1/2-y,1/2-z
1/2+x,1/2+y,1/2-z
1/2-x,1/2+y,1/2+z
1/2+x,1/2-y,1/2+z
loop_
_atom_site_type_symbol
_atom_site_label
_atom_site_fract_x
_atom_site_fract_y
_atom_site_fract_z
Si Si1 0.686698 0.322776 0.049879
Si Si2 0.000000 0.180919 0.160148
Si Si3 0.500000 0.319293 0.764649
Si Si4 0.308689 0.820875 0.367858
Si Si5 0.000000 0.328678 0.446788
Si Si6 0.191575 0.681393 0.290232
O O1 0.664497 0.500000 0.046928
O O2 0.775233 0.290664 0.081384
O O3 0.594088 0.248678 0.071454
O O4 0.708832 0.257577 0.000000
O O5 0.911416 0.253968 0.136246
O O6 0.000000 0.224321 0.212375
O O7 0.000000 0.000000 0.153246
O O8 0.500000 0.500000 0.771504
O O9 0.588085 0.246867 0.789056
O O10 0.238507 0.730264 0.336238
O O11 0.308197 0.000000 0.355521
O O12 0.000000 0.500000 0.428788
O O13 0.000000 0.316582 0.500000
O O14 0.190594 0.500000 0.285929
O O15 0.250000 0.750000 0.250000
#
# Coordination Sequence:
#
# PCOD8292549 Si02
#       6
#    16   8   8  16   8  16
#     4   9  19  37  60  86 117 155 197 240 287 342
#     4  11  23  39  61  85 114 154 198 243 291 352
#     4  11  23  40  62  88 118 156 198 242 289 348
#     4  11  23  39  62  88 117 154 197 244 293 349
#     4   9  17  30  53  84 115 150 188 230 286 345
#     4  12  24  39  60  87 118 153 192 239 290 347
#
# _framework density 19.192212999999999
#
# number of rings (size 3 to 8) (size 9 to 14) (size 15 to 20)
#    0.000    1.444    2.222    3.667    0.000    4.889 
#    0.000    1.667    0.000    3.333    0.000    0.000 
#    0.000    0.000    0.000    0.000    0.000    0.000 
#
# Total GULP energy -446501.995412 kJ/mol
# GULP energy per Si atom -12402.833206 kJ/mol
# Density = 1.914853 g / cm^3
# Si number density = 19.192213 Si / 1000 Ang^3
#
#
#
# Elastic Constant Matrix: (Units=GPa)
#
#
# Indices 1 2 3 4 5 6 
#
# 1 180.7989 66.6254 63.0765 0.0000 0.0000 0.0000
# 2 66.6254 113.6371 45.5873 0.0000 0.0000 0.0000
# 3 63.0765 45.5873 88.0957 0.0000 0.0000 0.0000
# 4 0.0000 0.0000 0.0000 24.9066 0.0000 0.0000
# 5 0.0000 0.0000 0.0000 0.0000 28.7210 0.0000
# 6 0.0000 0.0000 0.0000 0.0000 0.0000 36.8906
#
#
#
# Elastic Compliance Matrix: (Units=1/GPa)
#
#
# Indices 1 2 3 4 5 6 
#
# 1 0.008143 -0.003073 -0.004240 0.000000 0.000000 0.000000
# 2 -0.003073 0.012265 -0.004147 0.000000 0.000000 0.000000
# 3 -0.004240 -0.004147 0.016533 0.000000 0.000000 0.000000
# 4 0.000000 0.000000 0.000000 0.040150 0.000000 0.000000
# 5 0.000000 0.000000 0.000000 0.000000 0.034818 0.000000
# 6 0.000000 0.000000 0.000000 0.000000 0.000000 0.027107
#
#
# Mechanical properties :
#
#
# Convention : Reuss Voigt Hill
#
# Bulk Modulus (GPa) = 71.31914 81.45670 76.38792
# Shear Modulus (GPa) = 30.01046 31.91979 30.96512
#
# Velocity S-wave (km/s) = 3.95863 4.08261 4.02110
# Velocity P-wave (km/s) = 7.62466 8.04726 7.83881
#
# Compressibility (1/GPa) = 0.01402148
#
# Stress axis : x y z
#
# Youngs Moduli (GPa) = 122.80968 81.53158 60.48587
#
# Poissons Ratio (x) = 0.25056 0.25645
# Poissons Ratio (y) = 0.37741 0.25081
# Poissons Ratio (z) = 0.52070 0.33807
#
# Static dielectric constant tensor:
#      x y z
#    x 3.665340 0.000000 0.000000 
#    y 0.000000 3.667660 0.000000 
#    z 0.000000 0.000000 3.622010 
# 
# 
# High freq. dielectric constant tensor:
#      x y z
#    x 1.754880 0.000000 0.000000 
#    y 0.000000 1.758990 0.000000 
#    z 0.000000 0.000000 1.735580 
# 
# From -- ./inp_files/6189.got.cif
#   From: 2010.06.25/outbox.cif.g09.slc.cpg/sg71_4_cif.got.tgz:6189.got - 2010.06.28 04:59:45.
