data_PCOD8292194
_publ_section_title
;
Structure prediction by ZEFSAII (Michael W. Deem and Ramdas Pophale) SiO2 
 PCOD8292194
Probable space group: I M M M
;
_chemical_formula_sum "Si O2"
_cell_formula_units_Z 84
_cell_length_a 22.631162
_cell_length_b 11.547086
_cell_length_c 15.776115
_cell_angle_alpha 90.000000
_cell_angle_beta 90.000000
_cell_angle_gamma 90.000000
_cell_volume 4122.677064
_symmetry_space_group_name_H-M "I M M M"
_symmetry_group_IT_number 71
_symmetry_cell_setting 'orthorhombic'
loop_
_space_group_symop_operation_xyz
x,y,z
-x,-y,z
x,-y,-z
-x,y,-z
-x,-y,-z
x,y,-z
-x,y,z
x,-y,z
1/2+x,1/2+y,1/2+z
1/2-x,1/2-y,1/2+z
1/2+x,1/2-y,1/2-z
1/2-x,1/2+y,1/2-z
1/2-x,1/2-y,1/2-z
1/2+x,1/2+y,1/2-z
1/2-x,1/2+y,1/2+z
1/2+x,1/2-y,1/2+z
loop_
_atom_site_type_symbol
_atom_site_label
_atom_site_fract_x
_atom_site_fract_y
_atom_site_fract_z
Si Si1 0.930426 0.632850 0.500000
Si Si2 0.140711 0.280173 0.653222
Si Si3 0.383032 0.637959 0.314317
Si Si4 0.500000 0.251452 0.398730
Si Si5 0.381873 0.000000 0.746357
Si Si6 0.500000 0.000000 0.677422
Si Si7 0.689556 0.000000 0.595769
Si Si8 0.233905 0.739766 0.152263
O O1 0.906862 0.500000 0.500000
O O2 0.909072 0.700491 0.583109
O O3 0.000000 0.635748 0.500000
O O4 0.122195 0.172943 0.714526
O O5 0.148134 0.388208 0.715391
O O6 0.204514 0.274404 0.605916
O O7 0.386310 0.500000 0.321210
O O8 0.441539 0.692123 0.356941
O O9 0.324612 0.683046 0.366121
O O10 0.500000 0.273419 0.500000
O O11 0.500000 0.114286 0.380571
O O12 0.371949 0.000000 0.645275
O O13 0.451528 0.000000 0.751936
O O14 0.727472 0.890065 0.621067
O O15 0.670254 0.000000 0.500000
O O16 0.250000 0.750000 0.250000
#
# Coordination Sequence:
#
# PCOD8292194 Si02
#       8
#     8  16  16   8   8   4   8  16
#     4  11  26  42  69  99 135 176 221 298 343 398
#     4  11  24  42  68 100 135 170 232 274 346 402
#     4  11  25  43  69  96 133 182 223 268 332 411
#     4  12  26  46  67  99 136 175 226 276 329 399
#     4  12  22  41  70  96 130 177 216 286 333 410
#     4  12  23  40  70 105 122 168 216 271 346 384
#     4  12  24  42  66 104 141 173 222 289 343 396
#     4  10  23  41  68  97 131 176 223 274 339 402
#
# _framework density 20.375109999999999
#
# number of rings (size 3 to 8) (size 9 to 14) (size 15 to 20)
#    0.000    0.857    6.667    0.429   10.667    3.810 
#    0.000    0.476    0.000    0.571    0.000    0.000 
#    0.000    0.000    0.000    0.000    0.000    0.000 
#
# Total GULP energy -520423.299710 kJ/mol
# GULP energy per Si atom -12391.030945 kJ/mol
# Density = 2.032874 g / cm^3
# Si number density = 20.375110 Si / 1000 Ang^3
#
#
#
# Elastic Constant Matrix: (Units=GPa)
#
#
# Indices 1 2 3 4 5 6 
#
# 1 170.1796 64.9738 41.0611 0.0000 0.0000 0.0000
# 2 64.9738 164.9048 43.0504 0.0000 0.0000 0.0000
# 3 41.0611 43.0504 91.9609 0.0000 0.0000 0.0000
# 4 0.0000 0.0000 0.0000 14.5834 0.0000 0.0000
# 5 0.0000 0.0000 0.0000 0.0000 29.2308 0.0000
# 6 0.0000 0.0000 0.0000 0.0000 0.0000 65.2030
#
#
#
# Elastic Compliance Matrix: (Units=1/GPa)
#
#
# Indices 1 2 3 4 5 6 
#
# 1 0.007279 -0.002301 -0.002173 0.000000 0.000000 0.000000
# 2 -0.002301 0.007636 -0.002547 0.000000 0.000000 0.000000
# 3 -0.002173 -0.002547 0.013037 0.000000 0.000000 0.000000
# 4 0.000000 0.000000 0.000000 0.068571 0.000000 0.000000
# 5 0.000000 0.000000 0.000000 0.000000 0.034211 0.000000
# 6 0.000000 0.000000 0.000000 0.000000 0.000000 0.015337
#
#
# Mechanical properties :
#
#
# Convention : Reuss Voigt Hill
#
# Bulk Modulus (GPa) = 71.89334 80.57956 76.23645
# Shear Modulus (GPa) = 30.34941 40.33411 35.34176
#
# Velocity S-wave (km/s) = 3.86363 4.45407 4.16932
# Velocity P-wave (km/s) = 7.43405 8.12930 7.78944
#
# Compressibility (1/GPa) = 0.01390949
#
# Stress axis : x y z
#
# Youngs Moduli (GPa) = 137.38484 130.96617 76.70519
#
# Poissons Ratio (x) = 0.30130 0.16668
# Poissons Ratio (y) = 0.31607 0.19539
# Poissons Ratio (z) = 0.29854 0.33360
#
# Static dielectric constant tensor:
#      x y z
#    x 4.374400 0.000000 0.000000 
#    y 0.000000 5.427960 0.000000 
#    z 0.000000 0.000000 3.629800 
# 
# 
# High freq. dielectric constant tensor:
#      x y z
#    x 1.822080 0.000000 0.000000 
#    y 0.000000 1.797210 0.000000 
#    z 0.000000 0.000000 1.781750 
# 
# From -- ./inp_files/39062.got.cif
#   From: 2010.06.25/outbox.cif.g09.slc.cpg/sg71_20_cif.got.tgz:39062.got - 2010.06.28 04:59:45.
