data_PCOD8292638
_publ_section_title
;
Structure prediction by ZEFSAII (Michael W. Deem and Ramdas Pophale) SiO2 
 PCOD8292638
Probable space group: I M M M
;
_chemical_formula_sum "Si O2"
_cell_formula_units_Z 96
_cell_length_a 9.743031
_cell_length_b 29.111833
_cell_length_c 20.101658
_cell_angle_alpha 90.000000
_cell_angle_beta 90.000000
_cell_angle_gamma 90.000000
_cell_volume 5701.583848
_symmetry_space_group_name_H-M "I M M M"
_symmetry_group_IT_number 71
_symmetry_cell_setting 'orthorhombic'
loop_
_space_group_symop_operation_xyz
x,y,z
-x,-y,z
x,-y,-z
-x,y,-z
-x,-y,-z
x,y,-z
-x,y,z
x,-y,z
1/2+x,1/2+y,1/2+z
1/2-x,1/2-y,1/2+z
1/2+x,1/2-y,1/2-z
1/2-x,1/2+y,1/2-z
1/2-x,1/2-y,1/2-z
1/2+x,1/2+y,1/2-z
1/2-x,1/2+y,1/2+z
1/2+x,1/2-y,1/2+z
loop_
_atom_site_type_symbol
_atom_site_label
_atom_site_fract_x
_atom_site_fract_y
_atom_site_fract_z
Si Si1 0.152968 0.274984 0.153741
Si Si2 0.652951 0.798723 0.193605
Si Si3 0.662789 0.051286 0.928312
Si Si4 0.164116 0.599440 0.700883
Si Si5 0.163544 0.551975 0.834590
Si Si6 0.836846 0.634908 0.075442
O O1 0.256201 0.232232 0.142978
O O2 0.143483 0.279651 0.232442
O O3 0.212741 0.320610 0.117520
O O4 0.000000 0.264047 0.125597
O O5 0.500000 0.800884 0.162361
O O6 0.720377 0.848862 0.201144
O O7 0.500000 0.050281 0.920942
O O8 0.726286 0.078676 0.866815
O O9 0.721425 0.000000 0.925101
O O10 0.703495 0.073458 0.000000
O O11 0.219134 0.570205 0.763536
O O12 0.000000 0.599737 0.703371
O O13 0.219004 0.500000 0.847788
O O14 0.217465 0.587537 0.890972
O O15 0.000000 0.551208 0.834271
O O16 0.000000 0.634055 0.076235
O O17 0.780064 0.637710 0.000000
#
# Coordination Sequence:
#
# PCOD8292638 Si02
#       6
#    16  16  16  16  16  16
#     4   9  16  28  43  60  82 109 140 170 203 247
#     4   9  16  26  43  63  83 106 136 173 209 245
#     4   8  13  20  30  46  71 105 138 160 188 241
#     4   9  14  22  35  53  78 106 132 165 208 247
#     4   9  15  22  34  54  79 106 137 171 207 250
#     4   9  16  26  39  55  79 111 142 172 210 253
#
# _framework density 16.837427000000002
#
# number of rings (size 3 to 8) (size 9 to 14) (size 15 to 20)
#    0.000    3.167    1.667    1.000    0.000    2.333 
#    0.000    2.500    0.000    1.500    0.000    0.000 
#    0.000    4.667    0.000    3.333    0.000    3.333 
#
# Total GULP energy -594644.416298 kJ/mol
# GULP energy per Si atom -12388.425340 kJ/mol
# Density = 1.679910 g / cm^3
# Si number density = 16.837427 Si / 1000 Ang^3
#
#
#
# Elastic Constant Matrix: (Units=GPa)
#
#
# Indices 1 2 3 4 5 6 
#
# 1 21.2120 26.3200 13.5834 0.0000 0.0000 0.0000
# 2 26.3200 125.9511 43.9724 -0.0001 0.0000 0.0000
# 3 13.5834 43.9724 87.3076 -0.0003 -0.0001 0.0000
# 4 0.0000 -0.0001 -0.0003 25.3272 0.0000 0.0000
# 5 0.0000 0.0000 -0.0001 0.0000 6.2926 0.0000
# 6 0.0000 0.0000 0.0000 0.0000 0.0000 14.3279
#
#
#
# Elastic Compliance Matrix: (Units=1/GPa)
#
#
# Indices 1 2 3 4 5 6 
#
# 1 0.064752 -0.012151 -0.003955 0.000000 0.000000 0.000000
# 2 -0.012151 0.011914 -0.004110 0.000000 0.000000 0.000000
# 3 -0.003955 -0.004110 0.014139 0.000000 0.000000 0.000000
# 4 0.000000 0.000000 0.000000 0.039483 0.000000 0.000000
# 5 0.000000 0.000000 0.000000 0.000000 0.158917 0.000000
# 6 0.000000 0.000000 0.000000 0.000000 0.000000 0.069794
#
#
# Mechanical properties :
#
#
# Convention : Reuss Voigt Hill
#
# Bulk Modulus (GPa) = 19.85128 44.69134 32.27131
# Shear Modulus (GPa) = 12.01287 19.22920 15.62103
#
# Velocity S-wave (km/s) = 2.67397 3.38309 3.04921
# Velocity P-wave (km/s) = 4.62050 6.47000 5.62183
#
# Compressibility (1/GPa) = 0.05037459
#
# Stress axis : x y z
#
# Youngs Moduli (GPa) = 15.44352 83.93812 70.72678
#
# Poissons Ratio (x) = 1.01990 0.27969
# Poissons Ratio (y) = 0.18765 0.29068
# Poissons Ratio (z) = 0.06107 0.34497
#
# Static dielectric constant tensor:
#      x y z
#    x 2.658120 0.000000 0.000000 
#    y 0.000000 3.402470 0.000000 
#    z 0.000000 0.000000 3.278380 
# 
# 
# High freq. dielectric constant tensor:
#      x y z
#    x 1.563730 0.000000 0.000000 
#    y 0.000000 1.658200 0.000000 
#    z 0.000000 0.000000 1.643030 
# 
# From -- ./inp_files/26372.got.cif
#   From: 2010.06.25/outbox.cif.g09.slc.cpg/sg71_14_cif.got.tgz:26372.got - 2010.06.28 04:59:45.
