data_PCOD8292544
_publ_section_title
;
Structure prediction by ZEFSAII (Michael W. Deem and Ramdas Pophale) SiO2 
 PCOD8292544
Probable space group: I M M M
;
_chemical_formula_sum "Si O2"
_cell_formula_units_Z 72
_cell_length_a 22.840422
_cell_length_b 17.645091
_cell_length_c 8.851309
_cell_angle_alpha 90.000000
_cell_angle_beta 90.000000
_cell_angle_gamma 90.000000
_cell_volume 3567.266278
_symmetry_space_group_name_H-M "I M M M"
_symmetry_group_IT_number 71
_symmetry_cell_setting 'orthorhombic'
loop_
_space_group_symop_operation_xyz
x,y,z
-x,-y,z
x,-y,-z
-x,y,-z
-x,-y,-z
x,y,-z
-x,y,z
x,-y,z
1/2+x,1/2+y,1/2+z
1/2-x,1/2-y,1/2+z
1/2+x,1/2-y,1/2-z
1/2-x,1/2+y,1/2-z
1/2-x,1/2-y,1/2-z
1/2+x,1/2+y,1/2-z
1/2-x,1/2+y,1/2+z
1/2+x,1/2-y,1/2+z
loop_
_atom_site_type_symbol
_atom_site_label
_atom_site_fract_x
_atom_site_fract_y
_atom_site_fract_z
Si Si1 0.123603 0.913056 0.323972
Si Si2 0.368134 0.140376 0.176746
Si Si3 0.433130 0.000000 0.678545
Si Si4 0.067768 0.223948 0.174539
Si Si5 0.757328 0.411904 0.826628
O O1 0.112506 0.896967 0.500000
O O2 0.081084 0.862027 0.223197
O O3 0.190692 0.894225 0.281493
O O4 0.109227 0.000000 0.285548
O O5 0.402937 0.075164 0.261883
O O6 0.393367 0.221411 0.222799
O O7 0.299699 0.137623 0.221120
O O8 0.375267 0.128388 0.000000
O O9 0.500000 0.000000 0.732956
O O10 0.427805 0.000000 0.500000
O O11 0.000000 0.241930 0.203450
O O12 0.084006 0.235708 0.000000
O O13 0.771656 0.500000 0.801062
O O14 0.768702 0.389816 0.000000
#
# Coordination Sequence:
#
# PCOD8292544 Si02
#       5
#    16  16   8  16  16
#     4   9  20  40  66  94 120 153 196 245 302 359
#     4  12  24  37  59  90 121 157 201 250 299 348
#     4  11  23  39  59  83 117 163 206 243 292 355
#     4  11  25  43  61  84 118 161 205 249 301 359
#     4   9  18  36  62  89 122 160 196 239 294 358
#
# _framework density 20.183522
#
# number of rings (size 3 to 8) (size 9 to 14) (size 15 to 20)
#    0.000    1.667    1.111    5.000    0.000    8.000 
#    0.000    4.444    0.000    0.000    0.000    0.000 
#    0.000    0.000    0.000    0.000    0.000    0.000 
#
# Total GULP energy -446584.900488 kJ/mol
# GULP energy per Si atom -12405.136125 kJ/mol
# Density = 2.013758 g / cm^3
# Si number density = 20.183522 Si / 1000 Ang^3
#
#
#
# Elastic Constant Matrix: (Units=GPa)
#
#
# Indices 1 2 3 4 5 6 
#
# 1 39.4248 15.3141 22.2833 0.0000 0.0000 0.0000
# 2 15.3141 75.2046 13.6817 0.0000 0.0000 0.0000
# 3 22.2833 13.6817 59.0369 0.0000 0.0000 0.0000
# 4 0.0000 0.0000 0.0000 34.0393 0.0000 0.0000
# 5 0.0000 0.0000 0.0000 0.0000 29.6030 0.0000
# 6 0.0000 0.0000 0.0000 0.0000 0.0000 31.2434
#
#
#
# Elastic Compliance Matrix: (Units=1/GPa)
#
#
# Indices 1 2 3 4 5 6 
#
# 1 0.033802 -0.004763 -0.011655 0.000000 0.000000 0.000000
# 2 -0.004763 0.014553 -0.001575 0.000000 0.000000 0.000000
# 3 -0.011655 -0.001575 0.021703 0.000000 0.000000 0.000000
# 4 0.000000 0.000000 0.000000 0.029378 0.000000 0.000000
# 5 0.000000 0.000000 0.000000 0.000000 0.033780 0.000000
# 6 0.000000 0.000000 0.000000 0.000000 0.000000 0.032007
#
#
# Mechanical properties :
#
#
# Convention : Reuss Voigt Hill
#
# Bulk Modulus (GPa) = 29.34879 30.69163 30.02021
# Shear Modulus (GPa) = 23.52206 27.13627 25.32917
#
# Velocity S-wave (km/s) = 3.41751 3.67069 3.54636
# Velocity P-wave (km/s) = 5.49045 5.76234 5.62804
#
# Compressibility (1/GPa) = 0.03407296
#
# Stress axis : x y z
#
# Youngs Moduli (GPa) = 29.58381 68.71204 46.07738
#
# Poissons Ratio (x) = 0.32727 0.53702
# Poissons Ratio (y) = 0.14091 0.07257
# Poissons Ratio (z) = 0.34479 0.10822
#
# Static dielectric constant tensor:
#      x y z
#    x 3.772640 0.000000 0.000000 
#    y 0.000000 3.634090 0.000000 
#    z 0.000000 0.000000 3.561590 
# 
# 
# High freq. dielectric constant tensor:
#      x y z
#    x 1.796050 0.000000 0.000000 
#    y 0.000000 1.787080 0.000000 
#    z 0.000000 0.000000 1.785630 
# 
# From -- ./inp_files/12171.got.cif
#   From: 2010.06.25/outbox.cif.g09.slc.cpg/sg71_7_cif.got.tgz:12171.got - 2010.06.28 04:59:45.
