data_PCOD8292922
_publ_section_title
;
Structure prediction by ZEFSAII (Michael W. Deem and Ramdas Pophale) SiO2 
 PCOD8292922
Probable space group: I B A M
;
_chemical_formula_sum "Si O2"
_cell_formula_units_Z 84
_cell_length_a 22.377617
_cell_length_b 12.346149
_cell_length_c 18.283637
_cell_angle_alpha 90.000000
_cell_angle_beta 90.000000
_cell_angle_gamma 90.000000
_cell_volume 5051.355579
_symmetry_space_group_name_H-M "I B A M"
_symmetry_group_IT_number 72
_symmetry_cell_setting 'orthorhombic'
loop_
_space_group_symop_operation_xyz
x,y,z
-x,-y,z
x,-y,1/2-z
-x,y,1/2-z
-x,-y,-z
x,y,-z
-x,y,1/2+z
x,-y,1/2+z
1/2+x,1/2+y,1/2+z
1/2-x,1/2-y,1/2+z
1/2+x,1/2-y,-z
1/2-x,1/2+y,-z
1/2-x,1/2-y,1/2-z
1/2+x,1/2+y,1/2-z
1/2-x,1/2+y,z
1/2+x,1/2-y,z
loop_
_atom_site_type_symbol
_atom_site_label
_atom_site_fract_x
_atom_site_fract_y
_atom_site_fract_z
Si Si1 0.826085 0.108891 0.324520
Si Si2 0.500000 0.500000 0.750000
Si Si3 0.108140 0.898619 0.175826
Si Si4 0.156703 0.279824 0.583385
Si Si5 0.209257 0.696719 0.583876
Si Si6 0.806214 0.523273 0.329179
O O1 0.852273 0.139597 0.245211
O O2 0.831401 0.211093 0.378383
O O3 0.757759 0.076256 0.314152
O O4 0.863543 0.008668 0.358024
O O5 0.540274 0.422044 0.699525
O O6 0.108420 0.804122 0.115956
O O7 0.139685 0.303975 0.500000
O O8 0.221500 0.226141 0.590221
O O9 0.152555 0.392135 0.627259
O O10 0.189124 0.687458 0.500000
O O11 0.198246 0.583749 0.622891
O O12 0.835766 0.500000 0.250000
#
# Coordination Sequence:
#
# PCOD8292922 Si02
#       6
#    16   4  16  16  16  16
#     4   9  17  28  45  65  94 128 162 194 234 280
#     4   8  20  32  58  72  90 116 168 218 244 288
#     4  10  17  35  49  73  92 123 165 210 247 275
#     4  10  20  29  44  68 102 133 157 193 239 285
#     4  10  19  28  41  68 103 137 163 184 225 294
#     4  11  17  28  44  68  96 137 166 188 223 286
#
# _framework density 16.629199
#
# number of rings (size 3 to 8) (size 9 to 14) (size 15 to 20)
#    0.000    2.286    3.810    1.714    0.000    4.571 
#    0.000    0.476    0.000    1.143    0.000   16.667 
#    0.000   19.810    0.000    0.000    0.000    0.000 
#
# Total GULP energy -520762.724682 kJ/mol
# GULP energy per Si atom -12399.112492 kJ/mol
# Density = 1.659135 g / cm^3
# Si number density = 16.629199 Si / 1000 Ang^3
#
#
#
# Elastic Constant Matrix: (Units=GPa)
#
#
# Indices 1 2 3 4 5 6 
#
# 1 53.9984 21.4282 32.3729 0.0000 0.0000 0.0000
# 2 21.4282 106.0764 81.7936 0.0000 0.0000 0.0000
# 3 32.3729 81.7936 137.9886 0.0000 0.0000 0.0000
# 4 0.0000 0.0000 0.0000 33.1682 0.0000 0.0000
# 5 0.0000 0.0000 0.0000 0.0000 13.7153 0.0000
# 6 0.0000 0.0000 0.0000 0.0000 0.0000 14.7738
#
#
#
# Elastic Compliance Matrix: (Units=1/GPa)
#
#
# Indices 1 2 3 4 5 6 
#
# 1 0.021591 -0.000839 -0.004568 0.000000 0.000000 0.000000
# 2 -0.000839 0.017396 -0.010115 0.000000 0.000000 0.000000
# 3 -0.004568 -0.010115 0.014314 0.000000 0.000000 0.000000
# 4 0.000000 0.000000 0.000000 0.030149 0.000000 0.000000
# 5 0.000000 0.000000 0.000000 0.000000 0.072911 0.000000
# 6 0.000000 0.000000 0.000000 0.000000 0.000000 0.067687
#
#
# Mechanical properties :
#
#
# Convention : Reuss Voigt Hill
#
# Bulk Modulus (GPa) = 44.92934 63.25032 54.08983
# Shear Modulus (GPa) = 19.04683 23.16272 21.10478
#
# Velocity S-wave (km/s) = 3.38802 3.73620 3.56636
# Velocity P-wave (km/s) = 6.51014 7.53197 7.03962
#
# Compressibility (1/GPa) = 0.02225717
#
# Stress axis : x y z
#
# Youngs Moduli (GPa) = 46.31654 57.48466 69.86113
#
# Poissons Ratio (x) = 0.04825 0.31911
# Poissons Ratio (y) = 0.03888 0.70662
# Poissons Ratio (z) = 0.21156 0.58144
#
# Static dielectric constant tensor:
#      x y z
#    x 2.672050 0.000000 0.000000 
#    y 0.000000 3.282840 0.000000 
#    z 0.000000 0.000000 3.260620 
# 
# 
# High freq. dielectric constant tensor:
#      x y z
#    x 1.578720 0.000000 0.000000 
#    y 0.000000 1.652300 0.000000 
#    z 0.000000 0.000000 1.646080 
# 
# From -- ./inp_files/33210.got.cif
#   From: 2010.03.12/outbox.cif.g09.slc.cpg/sg72_17_cif.got.tgz:33210.got - 2010.04.16 14:54:00.
