data_PCOD8292699
_publ_section_title
;
Structure prediction by ZEFSAII (Michael W. Deem and Ramdas Pophale) SiO2 
 PCOD8292699
Probable space group: I M M M
;
_chemical_formula_sum "Si O2"
_cell_formula_units_Z 96
_cell_length_a 19.152716
_cell_length_b 31.078737
_cell_length_c 9.401010
_cell_angle_alpha 90.000000
_cell_angle_beta 90.000000
_cell_angle_gamma 90.000000
_cell_volume 5595.878095
_symmetry_space_group_name_H-M "I M M M"
_symmetry_group_IT_number 71
_symmetry_cell_setting 'orthorhombic'
loop_
_space_group_symop_operation_xyz
x,y,z
-x,-y,z
x,-y,-z
-x,y,-z
-x,-y,-z
x,y,-z
-x,y,z
x,-y,z
1/2+x,1/2+y,1/2+z
1/2-x,1/2-y,1/2+z
1/2+x,1/2-y,1/2-z
1/2-x,1/2+y,1/2-z
1/2-x,1/2-y,1/2-z
1/2+x,1/2+y,1/2-z
1/2-x,1/2+y,1/2+z
1/2+x,1/2-y,1/2+z
loop_
_atom_site_type_symbol
_atom_site_label
_atom_site_fract_x
_atom_site_fract_y
_atom_site_fract_z
Si Si1 0.919202 0.834834 0.665447
Si Si2 0.170425 0.500000 0.661087
Si Si3 0.577849 0.839531 0.330708
Si Si4 0.334692 0.417873 0.165094
Si Si5 0.583058 0.254493 0.658063
Si Si6 0.663640 0.500000 0.660834
Si Si7 0.171848 0.417652 0.165727
O O1 0.907693 0.826834 0.500000
O O2 0.876324 0.876127 0.717946
O O3 0.888428 0.792688 0.742906
O O4 0.000000 0.842731 0.703144
O O5 0.141162 0.500000 0.500000
O O6 0.253397 0.500000 0.661440
O O7 0.143438 0.541974 0.744431
O O8 0.575218 0.838540 0.500000
O O9 0.500000 0.849186 0.271003
O O10 0.605089 0.792412 0.279613
O O11 0.630781 0.875977 0.276580
O O12 0.363311 0.457837 0.256722
O O13 0.253277 0.409366 0.192376
O O14 0.349434 0.428065 0.000000
O O15 0.613906 0.261467 0.500000
O O16 0.500000 0.255584 0.652573
O O17 0.634237 0.500000 0.500000
O O18 0.156599 0.426773 0.000000
#
# Coordination Sequence:
#
# PCOD8292699 Si02
#       7
#    16   8  16  16  16   8  16
#     4   9  17  29  44  62  85 113 143 173 206 247
#     4   9  17  29  44  63  88 114 140 171 208 252
#     4   8  14  26  45  67  87 108 139 177 211 244
#     4   9  17  29  45  64  85 110 141 175 209 246
#     4   8  14  26  44  63  83 110 142 173 207 248
#     4   9  17  29  46  65  84 110 142 173 208 252
#     4   9  16  28  47  66  83 108 143 177 207 245
#
# _framework density 17.155484000000001
#
# number of rings (size 3 to 8) (size 9 to 14) (size 15 to 20)
#    0.000    3.333    0.000    1.500    0.000    2.667 
#    0.000    2.500    0.000    6.500    0.000    0.000 
#    0.000    0.000    0.000    0.000    0.000    0.000 
#
# Total GULP energy -595003.096268 kJ/mol
# GULP energy per Si atom -12395.897839 kJ/mol
# Density = 1.711644 g / cm^3
# Si number density = 17.155484 Si / 1000 Ang^3
#
#
#
# Elastic Constant Matrix: (Units=GPa)
#
#
# Indices 1 2 3 4 5 6 
#
# 1 39.2342 55.2814 26.5447 0.0000 0.0003 0.0000
# 2 55.2814 201.0726 75.6166 -0.0004 0.0001 0.0000
# 3 26.5447 75.6166 69.1327 -0.0066 0.0037 0.0012
# 4 0.0000 -0.0004 -0.0066 29.9496 0.0003 0.0001
# 5 0.0003 0.0001 0.0037 0.0003 11.4496 0.0003
# 6 0.0000 0.0000 0.0012 0.0001 0.0003 31.3717
#
#
#
# Elastic Compliance Matrix: (Units=1/GPa)
#
#
# Indices 1 2 3 4 5 6 
#
# 1 0.043063 -0.009549 -0.006090 -0.000002 0.000001 0.000000
# 2 -0.009549 0.010566 -0.007890 -0.000002 0.000003 0.000000
# 3 -0.006090 -0.007890 0.025434 0.000005 -0.000008 -0.000001
# 4 -0.000002 -0.000002 0.000005 0.033389 -0.000001 0.000000
# 5 0.000001 0.000003 -0.000008 -0.000001 0.087339 -0.000001
# 6 0.000000 0.000000 -0.000001 0.000000 -0.000001 0.031876
#
#
# Mechanical properties :
#
#
# Convention : Reuss Voigt Hill
#
# Bulk Modulus (GPa) = 31.24642 69.36941 50.30792
# Shear Modulus (GPa) = 17.27741 24.68729 20.98235
#
# Velocity S-wave (km/s) = 3.17694 3.79757 3.50104
# Velocity P-wave (km/s) = 5.63120 7.72996 6.76250
#
# Compressibility (1/GPa) = 0.03200366
#
# Stress axis : x y z
#
# Youngs Moduli (GPa) = 23.22165 94.64282 39.31774
#
# Poissons Ratio (x) = 0.90376 0.23945
# Poissons Ratio (y) = 0.22175 0.31023
# Poissons Ratio (z) = 0.14142 0.74677
#
# Static dielectric constant tensor:
#      x y z
#    x 2.915390 0.000000 0.000000 
#    y 0.000000 3.579770 -0.000010 
#    z 0.000000 -0.000010 3.136620 
# 
# 
# High freq. dielectric constant tensor:
#      x y z
#    x 1.621180 0.000000 0.000000 
#    y 0.000000 1.677990 0.000000 
#    z 0.000000 0.000000 1.642000 
# 
# From -- ./inp_files/13228.got.cif
#   From: 2010.06.25/outbox.cif.g09.slc.cpg/sg71_7_cif.got.tgz:13228.got - 2010.06.28 04:59:45.
