data_PCOD8292607
_publ_section_title
;
Structure prediction by ZEFSAII (Michael W. Deem and Ramdas Pophale) SiO2 
 PCOD8292607
Probable space group: I M M M
;
_chemical_formula_sum "Si O2"
_cell_formula_units_Z 104
_cell_length_a 26.735749
_cell_length_b 24.322669
_cell_length_c 9.334303
_cell_angle_alpha 90.000000
_cell_angle_beta 90.000000
_cell_angle_gamma 90.000000
_cell_volume 6069.955111
_symmetry_space_group_name_H-M "I M M M"
_symmetry_group_IT_number 71
_symmetry_cell_setting 'orthorhombic'
loop_
_space_group_symop_operation_xyz
x,y,z
-x,-y,z
x,-y,-z
-x,y,-z
-x,-y,-z
x,y,-z
-x,y,z
x,-y,z
1/2+x,1/2+y,1/2+z
1/2-x,1/2-y,1/2+z
1/2+x,1/2-y,1/2-z
1/2-x,1/2+y,1/2-z
1/2-x,1/2-y,1/2-z
1/2+x,1/2+y,1/2-z
1/2-x,1/2+y,1/2+z
1/2+x,1/2-y,1/2+z
loop_
_atom_site_type_symbol
_atom_site_label
_atom_site_fract_x
_atom_site_fract_y
_atom_site_fract_z
Si Si1 0.625512 0.936759 0.167490
Si Si2 0.393674 0.561102 0.672177
Si Si3 0.142494 0.271312 0.833139
Si Si4 0.209720 0.353269 0.332411
Si Si5 0.500000 0.564903 0.344664
Si Si6 0.057393 0.353152 0.832635
Si Si7 0.822227 0.153064 0.830292
O O1 0.679935 0.909975 0.200295
O O2 0.581833 0.904446 0.250050
O O3 0.626860 0.000000 0.219267
O O4 0.613017 0.932775 0.000000
O O5 0.396337 0.562625 0.500000
O O6 0.379523 0.500000 0.724857
O O7 0.448107 0.580229 0.735312
O O8 0.352832 0.602307 0.735606
O O9 0.183960 0.303377 0.746501
O O10 0.087440 0.296402 0.798840
O O11 0.148587 0.208314 0.783119
O O12 0.154812 0.277575 0.000000
O O13 0.209286 0.340276 0.500000
O O14 0.266045 0.354136 0.271113
O O15 0.500000 0.500000 0.368958
O O16 0.500000 0.594454 0.500000
O O17 0.000000 0.345203 0.782623
O O18 0.060256 0.367193 0.000000
O O19 0.820871 0.148954 0.000000
#
# Coordination Sequence:
#
# PCOD8292607 Si02
#       7
#    16  16  16  16   8  16  16
#     4   9  18  31  46  66  90 115 145 180 219 262
#     4   8  13  21  33  52  80 111 140 170 206 247
#     4   9  17  30  45  62  86 113 144 179 214 253
#     4   9  17  29  45  63  86 114 143 175 213 256
#     4   7  10  18  30  44  70 108 139 159 188 237
#     4   9  18  32  47  63  87 118 148 180 220 262
#     4   9  16  25  39  61  83 109 146 180 209 250
#
# _framework density 17.133569999999999
#
# number of rings (size 3 to 8) (size 9 to 14) (size 15 to 20)
#    0.000    3.308    0.000    1.385    0.000    1.538 
#    1.385    4.615    0.000    0.000    0.000    0.000 
#    0.000    1.846    0.000    0.000    0.000   17.308 
#
# Total GULP energy -644285.355373 kJ/mol
# GULP energy per Si atom -12390.102988 kJ/mol
# Density = 1.709457 g / cm^3
# Si number density = 17.133570 Si / 1000 Ang^3
#
#
#
# Elastic Constant Matrix: (Units=GPa)
#
#
# Indices 1 2 3 4 5 6 
#
# 1 168.4533 96.3739 27.9392 0.0000 0.0000 0.0000
# 2 96.3739 138.0456 25.5650 0.0000 0.0000 0.0000
# 3 27.9392 25.5650 17.8457 0.0000 0.0000 0.0000
# 4 0.0000 0.0000 0.0000 15.3197 0.0000 0.0000
# 5 0.0000 0.0000 0.0000 0.0000 14.3636 0.0000
# 6 0.0000 0.0000 0.0000 0.0000 0.0000 20.3443
#
#
#
# Elastic Compliance Matrix: (Units=1/GPa)
#
#
# Indices 1 2 3 4 5 6 
#
# 1 0.010706 -0.005948 -0.008240 0.000000 0.000000 0.000000
# 2 -0.005948 0.013165 -0.009546 0.000000 0.000000 0.000000
# 3 -0.008240 -0.009546 0.082613 0.000000 0.000000 0.000000
# 4 0.000000 0.000000 0.000000 0.065276 0.000000 0.000000
# 5 0.000000 0.000000 0.000000 0.000000 0.069620 0.000000
# 6 0.000000 0.000000 0.000000 0.000000 0.000000 0.049154
#
#
# Mechanical properties :
#
#
# Convention : Reuss Voigt Hill
#
# Bulk Modulus (GPa) = 16.94526 69.34451 43.14489
# Shear Modulus (GPa) = 13.97919 21.63661 17.80790
#
# Velocity S-wave (km/s) = 2.85949 3.55747 3.22740
# Velocity P-wave (km/s) = 4.56221 7.57858 6.25495
#
# Compressibility (1/GPa) = 0.05901354
#
# Stress axis : x y z
#
# Youngs Moduli (GPa) = 93.40443 75.96146 12.10466
#
# Poissons Ratio (x) = 0.45184 0.09975
# Poissons Ratio (y) = 0.55559 0.11556
# Poissons Ratio (z) = 0.76968 0.72516
#
# Static dielectric constant tensor:
#      x y z
#    x 3.606190 0.000000 0.000000 
#    y 0.000000 3.303520 0.000000 
#    z 0.000000 0.000000 2.788360 
# 
# 
# High freq. dielectric constant tensor:
#      x y z
#    x 1.673430 0.000000 0.000000 
#    y 0.000000 1.656520 0.000000 
#    z 0.000000 0.000000 1.611570 
# 
# From -- ./inp_files/15269.got.cif
#   From: 2010.06.25/outbox.cif.g09.slc.cpg/sg71_8_cif.got.tgz:15269.got - 2010.06.28 04:59:45.
