data_PCOD8292854
_publ_section_title
;
Structure prediction by ZEFSAII (Michael W. Deem and Ramdas Pophale) SiO2 
 PCOD8292854
Probable space group: I B A M
;
_chemical_formula_sum "Si O2"
_cell_formula_units_Z 112
_cell_length_a 17.186335
_cell_length_b 22.165619
_cell_length_c 18.405752
_cell_angle_alpha 90.000000
_cell_angle_beta 90.000000
_cell_angle_gamma 90.000000
_cell_volume 7011.593067
_symmetry_space_group_name_H-M "I B A M"
_symmetry_group_IT_number 72
_symmetry_cell_setting 'orthorhombic'
loop_
_space_group_symop_operation_xyz
x,y,z
-x,-y,z
x,-y,1/2-z
-x,y,1/2-z
-x,-y,-z
x,y,-z
-x,y,1/2+z
x,-y,1/2+z
1/2+x,1/2+y,1/2+z
1/2-x,1/2-y,1/2+z
1/2+x,1/2-y,-z
1/2-x,1/2+y,-z
1/2-x,1/2-y,1/2-z
1/2+x,1/2+y,1/2-z
1/2-x,1/2+y,z
1/2+x,1/2-y,z
loop_
_atom_site_type_symbol
_atom_site_label
_atom_site_fract_x
_atom_site_fract_y
_atom_site_fract_z
Si Si1 0.252285 0.183695 0.340105
Si Si2 0.393782 0.278870 0.083714
Si Si3 0.702860 0.321268 0.184274
Si Si4 0.663358 0.854001 0.085823
Si Si5 0.096694 0.665654 0.584561
Si Si6 0.036492 0.779552 0.671966
Si Si7 0.473072 0.937192 0.583651
O O1 0.180385 0.181630 0.395039
O O2 0.279480 0.251245 0.324695
O O3 0.228876 0.154023 0.263187
O O4 0.320396 0.147422 0.380754
O O5 0.379347 0.208891 0.105594
O O6 0.466844 0.308092 0.125323
O O7 0.411787 0.285127 0.000000
O O8 0.752280 0.358846 0.124735
O O9 0.608884 0.326859 0.175892
O O10 0.606696 0.907568 0.115041
O O11 0.678289 0.857710 0.000000
O O12 0.105007 0.685245 0.500000
O O13 0.060373 0.719071 0.630813
O O14 0.044023 0.607706 0.593143
O O15 0.000000 0.763301 0.750000
O O16 0.455072 0.950297 0.500000
O O17 0.500000 0.000000 0.621983
#
# Coordination Sequence:
#
# PCOD8292854 Si02
#       7
#    16  16  16  16  16  16  16
#     4   9  17  28  41  60  84 118 150 183 221 264
#     4  10  17  27  43  63  88 117 152 188 216 257
#     4   9  18  28  41  60  85 118 152 178 220 271
#     4   9  17  29  44  62  86 117 153 189 225 260
#     4  10  19  29  44  64  86 117 156 191 222 258
#     4  11  19  28  43  63  91 121 152 179 220 274
#     4   9  17  30  47  66  88 117 154 192 229 264
#
# _framework density 15.973545
#
# number of rings (size 3 to 8) (size 9 to 14) (size 15 to 20)
#    0.000    2.429    2.857    0.857    2.000    4.000 
#    0.000    0.000    0.000    3.857    0.000    0.000 
#    0.000    1.143    0.857    8.571    0.286    0.000 
#
# Total GULP energy -693941.770067 kJ/mol
# GULP energy per Si atom -12391.817323 kJ/mol
# Density = 1.593719 g / cm^3
# Si number density = 15.973545 Si / 1000 Ang^3
#
#
#
# Elastic Constant Matrix: (Units=GPa)
#
#
# Indices 1 2 3 4 5 6 
#
# 1 117.1736 24.3797 47.2197 0.0000 0.0000 0.0000
# 2 24.3797 33.4514 16.2078 0.0001 0.0000 0.0000
# 3 47.2197 16.2078 83.0203 -0.0001 0.0000 0.0001
# 4 0.0000 0.0001 -0.0001 6.1132 0.0000 0.0000
# 5 0.0000 0.0000 0.0000 0.0000 36.6428 0.0000
# 6 0.0000 0.0000 0.0001 0.0000 0.0000 11.0184
#
#
#
# Elastic Compliance Matrix: (Units=1/GPa)
#
#
# Indices 1 2 3 4 5 6 
#
# 1 0.012088 -0.006051 -0.005694 0.000000 0.000000 0.000000
# 2 -0.006051 0.036046 -0.003596 0.000000 0.000000 0.000000
# 3 -0.005694 -0.003596 0.015986 0.000000 0.000000 0.000000
# 4 0.000000 0.000000 0.000000 0.163582 0.000000 -0.000001
# 5 0.000000 0.000000 0.000000 0.000000 0.027290 0.000000
# 6 0.000000 0.000000 0.000000 -0.000001 0.000000 0.090758
#
#
# Mechanical properties :
#
#
# Convention : Reuss Voigt Hill
#
# Bulk Modulus (GPa) = 29.90527 45.47329 37.68928
# Shear Modulus (GPa) = 12.90065 20.47740 16.68903
#
# Velocity S-wave (km/s) = 2.84496 3.58433 3.23583
# Velocity P-wave (km/s) = 5.43637 6.75718 6.13244
#
# Compressibility (1/GPa) = 0.03343893
#
# Stress axis : x y z
#
# Youngs Moduli (GPa) = 82.72693 27.74211 62.55553
#
# Poissons Ratio (x) = 0.16787 0.35619
# Poissons Ratio (y) = 0.50058 0.22492
# Poissons Ratio (z) = 0.47105 0.09975
#
# Static dielectric constant tensor:
#      x y z
#    x 3.505250 0.000000 0.000000 
#    y 0.000000 2.587480 0.000000 
#    z 0.000000 0.000000 3.144920 
# 
# 
# High freq. dielectric constant tensor:
#      x y z
#    x 1.633460 0.000000 0.000000 
#    y 0.000000 1.534660 0.000000 
#    z 0.000000 0.000000 1.619040 
# 
# From -- ./inp_files/31902.got.cif
#   From: 2010.03.12/outbox.cif.g09.slc.cpg/sg72_16_cif.got.tgz:31902.got - 2010.04.16 14:54:00.
