data_PCOD8292340
_publ_section_title
;
Structure prediction by ZEFSAII (Michael W. Deem and Ramdas Pophale) SiO2 
 PCOD8292340
Probable space group: I M M M
;
_chemical_formula_sum "Si O2"
_cell_formula_units_Z 96
_cell_length_a 19.745952
_cell_length_b 30.779657
_cell_length_c 8.986388
_cell_angle_alpha 90.000000
_cell_angle_beta 90.000000
_cell_angle_gamma 90.000000
_cell_volume 5461.689653
_symmetry_space_group_name_H-M "I M M M"
_symmetry_group_IT_number 71
_symmetry_cell_setting 'orthorhombic'
loop_
_space_group_symop_operation_xyz
x,y,z
-x,-y,z
x,-y,-z
-x,y,-z
-x,-y,-z
x,y,-z
-x,y,z
x,-y,z
1/2+x,1/2+y,1/2+z
1/2-x,1/2-y,1/2+z
1/2+x,1/2-y,1/2-z
1/2-x,1/2+y,1/2-z
1/2-x,1/2-y,1/2-z
1/2+x,1/2+y,1/2-z
1/2-x,1/2+y,1/2+z
1/2+x,1/2-y,1/2+z
loop_
_atom_site_type_symbol
_atom_site_label
_atom_site_fract_x
_atom_site_fract_y
_atom_site_fract_z
Si Si1 0.829145 0.788969 0.664982
Si Si2 0.672739 0.881386 0.176235
Si Si3 0.074933 0.951553 0.323147
Si Si4 0.183481 0.883753 0.322550
Si Si5 0.421106 0.049961 0.671156
Si Si6 0.668100 0.793660 0.334229
O O1 0.857472 0.780512 0.500000
O O2 0.849096 0.837085 0.721717
O O3 0.748251 0.788624 0.663557
O O4 0.861344 0.751364 0.767457
O O5 0.745530 0.892777 0.244032
O O6 0.621047 0.919146 0.220735
O O7 0.645785 0.835039 0.236772
O O8 0.678383 0.878452 0.000000
O O9 0.075786 0.949735 0.500000
O O10 0.131078 0.919082 0.259447
O O11 0.000000 0.938312 0.265772
O O12 0.092868 0.000000 0.267900
O O13 0.195367 0.886035 0.500000
O O14 0.403107 0.060535 0.500000
O O15 0.500000 0.058291 0.701271
O O16 0.402641 0.000000 0.707057
O O17 0.638917 0.799891 0.500000
#
# Coordination Sequence:
#
# PCOD8292340 Si02
#       6
#    16  16  16  16  16  16
#     4   8  14  24  39  62  92 124 157 195 240 285
#     4  11  21  31  47  73 103 129 156 195 239 280
#     4   8  14  26  46  71  95 121 158 201 240 279
#     4   9  17  29  46  70  99 129 162 200 243 289
#     4   9  19  37  58  75  93 123 161 196 234 285
#     4   9  16  27  44  65  91 124 160 195 235 284
#
# _framework density 17.576976999999999
#
# number of rings (size 3 to 8) (size 9 to 14) (size 15 to 20)
#    0.000    3.000    0.000    4.000    0.000    5.333 
#    0.000    2.500    0.000    1.500    0.000    3.500 
#    0.000    0.000    0.000    0.000    0.000    0.000 
#
# Total GULP energy -594939.420987 kJ/mol
# GULP energy per Si atom -12394.571271 kJ/mol
# Density = 1.753697 g / cm^3
# Si number density = 17.576977 Si / 1000 Ang^3
#
#
#
# Elastic Constant Matrix: (Units=GPa)
#
#
# Indices 1 2 3 4 5 6 
#
# 1 59.5637 65.1106 36.8408 0.0000 0.0000 0.0000
# 2 65.1106 148.1298 55.5482 0.0000 -0.0001 0.0000
# 3 36.8408 55.5482 85.1145 -0.0016 -0.0024 -0.0005
# 4 0.0000 0.0000 -0.0016 28.7947 -0.0004 -0.0002
# 5 0.0000 -0.0001 -0.0024 -0.0004 8.9644 0.0000
# 6 0.0000 0.0000 -0.0005 -0.0002 0.0000 2.9704
#
#
#
# Elastic Compliance Matrix: (Units=1/GPa)
#
#
# Indices 1 2 3 4 5 6 
#
# 1 0.035035 -0.012860 -0.006771 0.000000 -0.000002 -0.000001
# 2 -0.012860 0.013659 -0.003348 0.000000 -0.000001 -0.000001
# 3 -0.006771 -0.003348 0.016865 0.000001 0.000005 0.000003
# 4 0.000000 0.000000 0.000001 0.034729 0.000001 0.000002
# 5 -0.000002 -0.000001 0.000005 0.000001 0.111552 -0.000002
# 6 -0.000001 -0.000001 0.000003 0.000002 -0.000002 0.336659
#
#
# Mechanical properties :
#
#
# Convention : Reuss Voigt Hill
#
# Bulk Modulus (GPa) = 51.02186 67.53415 59.27800
# Shear Modulus (GPa) = 8.31959 17.16647 12.74303
#
# Velocity S-wave (km/s) = 2.17796 3.12852 2.69547
# Velocity P-wave (km/s) = 5.95108 7.18022 6.59435
#
# Compressibility (1/GPa) = 0.01959944
#
# Stress axis : x y z
#
# Youngs Moduli (GPa) = 28.54298 73.21162 59.29547
#
# Poissons Ratio (x) = 0.94153 0.40151
# Poissons Ratio (y) = 0.36707 0.19851
# Poissons Ratio (z) = 0.19328 0.24510
#
# Static dielectric constant tensor:
#      x y z
#    x 2.963500 0.000000 0.000000 
#    y 0.000000 3.657250 0.000000 
#    z 0.000000 0.000000 3.154140 
# 
# 
# High freq. dielectric constant tensor:
#      x y z
#    x 1.636020 0.000000 0.000000 
#    y 0.000000 1.696470 0.000000 
#    z 0.000000 0.000000 1.660120 
# 
# From -- ./inp_files/13155.got.cif
#   From: 2010.06.25/outbox.cif.g09.slc.cpg/sg71_7_cif.got.tgz:13155.got - 2010.06.28 04:59:45.
