data_PCOD8292413
_publ_section_title
;
Structure prediction by ZEFSAII (Michael W. Deem and Ramdas Pophale) SiO2 
 PCOD8292413
Probable space group: I M M M
;
_chemical_formula_sum "Si O2"
_cell_formula_units_Z 72
_cell_length_a 8.994099
_cell_length_b 20.001198
_cell_length_c 20.154872
_cell_angle_alpha 90.000000
_cell_angle_beta 90.000000
_cell_angle_gamma 90.000000
_cell_volume 3625.715449
_symmetry_space_group_name_H-M "I M M M"
_symmetry_group_IT_number 71
_symmetry_cell_setting 'orthorhombic'
loop_
_space_group_symop_operation_xyz
x,y,z
-x,-y,z
x,-y,-z
-x,y,-z
-x,-y,-z
x,y,-z
-x,y,z
x,-y,z
1/2+x,1/2+y,1/2+z
1/2-x,1/2-y,1/2+z
1/2+x,1/2-y,1/2-z
1/2-x,1/2+y,1/2-z
1/2-x,1/2-y,1/2-z
1/2+x,1/2+y,1/2-z
1/2-x,1/2+y,1/2+z
1/2+x,1/2-y,1/2+z
loop_
_atom_site_type_symbol
_atom_site_label
_atom_site_fract_x
_atom_site_fract_y
_atom_site_fract_z
Si Si1 0.167081 0.201189 0.386674
Si Si2 0.672864 0.925649 0.369337
Si Si3 0.832497 0.866685 0.742858
Si Si4 0.676303 0.335337 0.390601
Si Si5 0.172756 0.421172 0.500000
O O1 0.239466 0.130760 0.412303
O O2 0.168012 0.198787 0.305681
O O3 0.262264 0.263293 0.413314
O O4 0.000000 0.207240 0.414768
O O5 0.500000 0.908719 0.372337
O O6 0.727309 0.922194 0.292098
O O7 0.705440 0.000000 0.397319
O O8 0.772205 0.848356 0.815254
O O9 0.000000 0.895390 0.748452
O O10 0.500000 0.335591 0.399503
O O11 0.748507 0.392702 0.434770
O O12 0.195702 0.500000 0.500000
O O13 0.000000 0.401177 0.500000
#
# Coordination Sequence:
#
# PCOD8292413 Si02
#       5
#    16  16  16  16   8
#     4   9  18  32  52  80 111 144 179 221 278 339
#     4   9  17  28  44  72 110 146 178 213 259 320
#     4   8  18  31  49  77 108 141 177 221 278 336
#     4  11  21  37  59  80 104 138 184 238 283 327
#     4  11  27  47  61  77 106 147 194 239 283 331
#
# _framework density 19.858150999999999
#
# number of rings (size 3 to 8) (size 9 to 14) (size 15 to 20)
#    1.333    1.222    0.000    2.333    0.000    5.333 
#    0.000    4.444    0.000    0.000    0.000    0.778 
#    0.000    6.222    0.000    0.000    0.000    0.222 
#
# Total GULP energy -446002.748217 kJ/mol
# GULP energy per Si atom -12388.965228 kJ/mol
# Density = 1.981295 g / cm^3
# Si number density = 19.858151 Si / 1000 Ang^3
#
#
#
# Elastic Constant Matrix: (Units=GPa)
#
#
# Indices 1 2 3 4 5 6 
#
# 1 119.8110 59.1802 15.0854 0.0000 0.0000 0.0000
# 2 59.1802 116.3116 13.7771 0.0000 0.0000 0.0000
# 3 15.0854 13.7771 37.6955 0.0000 0.0000 0.0000
# 4 0.0000 0.0000 0.0000 21.9594 0.0000 0.0000
# 5 0.0000 0.0000 0.0000 0.0000 19.5846 0.0000
# 6 0.0000 0.0000 0.0000 0.0000 0.0000 36.5795
#
#
#
# Elastic Compliance Matrix: (Units=1/GPa)
#
#
# Indices 1 2 3 4 5 6 
#
# 1 0.011378 -0.005487 -0.002548 0.000000 0.000000 0.000000
# 2 -0.005487 0.011633 -0.002056 0.000000 0.000000 0.000000
# 3 -0.002548 -0.002056 0.028299 0.000000 0.000000 0.000000
# 4 0.000000 0.000000 0.000000 0.045539 0.000000 0.000000
# 5 0.000000 0.000000 0.000000 0.000000 0.051061 0.000000
# 6 0.000000 0.000000 0.000000 0.000000 0.000000 0.027338
#
#
# Mechanical properties :
#
#
# Convention : Reuss Voigt Hill
#
# Bulk Modulus (GPa) = 32.12484 49.98928 41.05706
# Shear Modulus (GPa) = 24.29489 28.00972 26.15230
#
# Velocity S-wave (km/s) = 3.50154 3.75972 3.63293
# Velocity P-wave (km/s) = 5.70613 6.63891 6.19012
#
# Compressibility (1/GPa) = 0.03112856
#
# Stress axis : x y z
#
# Youngs Moduli (GPa) = 87.89133 85.96190 35.33653
#
# Poissons Ratio (x) = 0.47170 0.09003
# Poissons Ratio (y) = 0.48228 0.07264
# Poissons Ratio (z) = 0.22392 0.17671
#
# Static dielectric constant tensor:
#      x y z
#    x 3.601530 0.000000 0.000000 
#    y 0.000000 3.395850 0.000000 
#    z 0.000000 0.000000 3.277040 
# 
# 
# High freq. dielectric constant tensor:
#      x y z
#    x 1.784570 0.000000 0.000000 
#    y 0.000000 1.763860 0.000000 
#    z 0.000000 0.000000 1.741620 
# 
# From -- ./inp_files/50196.got.cif
#   From: 2010.06.25/outbox.cif.g09.slc.cpg/sg71_26_cif.got.tgz:50196.got - 2010.06.28 04:59:45.
