data_PCOD8292318
_publ_section_title
;
Structure prediction by ZEFSAII (Michael W. Deem and Ramdas Pophale) SiO2 
 PCOD8292318
Probable space group: I M M M
;
_chemical_formula_sum "Si O2"
_cell_formula_units_Z 64
_cell_length_a 10.057316
_cell_length_b 18.429183
_cell_length_c 19.758368
_cell_angle_alpha 90.000000
_cell_angle_beta 90.000000
_cell_angle_gamma 90.000000
_cell_volume 3662.176305
_symmetry_space_group_name_H-M "I M M M"
_symmetry_group_IT_number 71
_symmetry_cell_setting 'orthorhombic'
loop_
_space_group_symop_operation_xyz
x,y,z
-x,-y,z
x,-y,-z
-x,y,-z
-x,-y,-z
x,y,-z
-x,y,z
x,-y,z
1/2+x,1/2+y,1/2+z
1/2-x,1/2-y,1/2+z
1/2+x,1/2-y,1/2-z
1/2-x,1/2+y,1/2-z
1/2-x,1/2-y,1/2-z
1/2+x,1/2+y,1/2-z
1/2-x,1/2+y,1/2+z
1/2+x,1/2-y,1/2+z
loop_
_atom_site_type_symbol
_atom_site_label
_atom_site_fract_x
_atom_site_fract_y
_atom_site_fract_z
Si Si1 0.500000 0.500000 0.144567
Si Si2 0.741729 0.212655 0.356802
Si Si3 0.000000 0.365425 0.921051
Si Si4 0.657007 0.653169 0.719459
Si Si5 0.774336 0.000000 0.753384
Si Si6 0.500000 0.657570 0.921131
Si Si7 0.500000 0.000000 0.678181
O O1 0.366440 0.500000 0.187439
O O2 0.500000 0.426105 0.102052
O O3 0.629458 0.180932 0.404993
O O4 0.704745 0.296519 0.342203
O O5 0.755066 0.170635 0.285725
O O6 0.877132 0.205475 0.397048
O O7 0.000000 0.433144 0.871977
O O8 0.000000 0.388532 0.000000
O O9 0.500000 0.664132 0.734985
O O10 0.690665 0.570047 0.700677
O O11 0.623777 0.000000 0.728704
O O12 0.500000 0.653320 0.000000
#
# Coordination Sequence:
#
# PCOD8292318 Si02
#       7
#     4  16   8  16   8   8   4
#     4  12  19  38  52  84 116 160 197 212 258 350
#     4  11  22  36  56  83 107 151 193 236 280 330
#     4  12  23  38  53  76 118 160 192 223 269 330
#     4  11  20  36  60  80 112 145 188 241 291 338
#     4  12  20  34  59  82 117 148 183 232 293 339
#     4  12  23  38  57  82 118 158 196 227 267 330
#     4  12  23  34  48  88 116 152 189 222 266 346
#
# _framework density 17.475947999999999
#
# number of rings (size 3 to 8) (size 9 to 14) (size 15 to 20)
#    0.000    0.500    8.750    1.125    0.000    1.000 
#    0.000    3.750    0.000    0.000    0.000    5.250 
#    0.000    0.000    0.000    0.000    0.000    0.000 
#
# Total GULP energy -396788.928284 kJ/mol
# GULP energy per Si atom -12399.654009 kJ/mol
# Density = 1.743617 g / cm^3
# Si number density = 17.475948 Si / 1000 Ang^3
#
#
#
# Elastic Constant Matrix: (Units=GPa)
#
#
# Indices 1 2 3 4 5 6 
#
# 1 134.9419 40.3315 28.8020 0.0000 0.0000 0.0000
# 2 40.3315 136.7938 35.3778 0.0000 0.0000 0.0000
# 3 28.8020 35.3778 42.1021 0.0000 0.0000 0.0000
# 4 0.0000 0.0000 0.0000 -63.4189 0.0000 0.0000
# 5 0.0000 0.0000 0.0000 0.0000 38.1735 0.0000
# 6 0.0000 0.0000 0.0000 0.0000 0.0000 34.9216
#
#
#
# Elastic Compliance Matrix: (Units=1/GPa)
#
#
# Indices 1 2 3 4 5 6 
#
# 1 0.008865 -0.001335 -0.004942 0.000000 0.000000 0.000000
# 2 -0.001335 0.009541 -0.007104 0.000000 0.000000 0.000000
# 3 -0.004942 -0.007104 0.033102 0.000000 0.000000 0.000000
# 4 0.000000 0.000000 0.000000 -0.015768 0.000000 0.000000
# 5 0.000000 0.000000 0.000000 0.000000 0.026196 0.000000
# 6 0.000000 0.000000 0.000000 0.000000 0.000000 0.028636
#
#
# Mechanical properties :
#
#
# Convention : Reuss Voigt Hill
#
# Bulk Modulus (GPa) = 40.41218 58.09562 49.25390
# Shear Modulus (GPa) = 39.81463 15.89035 27.85249
#
# Velocity S-wave (km/s) = 4.77828 3.01868 3.99652
# Velocity P-wave (km/s) = 7.32238 6.74279 7.03856
#
# Compressibility (1/GPa) = 0.02474501
#
# Stress axis : x y z
#
# Youngs Moduli (GPa) = 112.80854 104.80875 30.20985
#
# Poissons Ratio (x) = 0.13997 0.14930
# Poissons Ratio (y) = 0.15065 0.21460
# Poissons Ratio (z) = 0.55751 0.74453
#
# Static dielectric constant tensor:
#      x y z
#    x 3.496250 0.000000 0.000000 
#    y 0.000000 3.320870 0.000000 
#    z 0.000000 0.000000 2.985920 
# 
# 
# High freq. dielectric constant tensor:
#      x y z
#    x 1.698400 0.000000 0.000000 
#    y 0.000000 1.681700 0.000000 
#    z 0.000000 0.000000 1.636120 
# 
# From -- ./inp_files/50184.got.cif
#   From: 2010.06.25/outbox.cif.g09.slc.cpg/sg71_26_cif.got.tgz:50184.got - 2010.06.28 04:59:45.
