data_PCOD8292289
_publ_section_title
;
Structure prediction by ZEFSAII (Michael W. Deem and Ramdas Pophale) SiO2 
 PCOD8292289
Probable space group: I M M M
;
_chemical_formula_sum "Si O2"
_cell_formula_units_Z 80
_cell_length_a 9.122811
_cell_length_b 20.410264
_cell_length_c 25.075168
_cell_angle_alpha 90.000000
_cell_angle_beta 90.000000
_cell_angle_gamma 90.000000
_cell_volume 4668.970728
_symmetry_space_group_name_H-M "I M M M"
_symmetry_group_IT_number 71
_symmetry_cell_setting 'orthorhombic'
loop_
_space_group_symop_operation_xyz
x,y,z
-x,-y,z
x,-y,-z
-x,y,-z
-x,-y,-z
x,y,-z
-x,y,z
x,-y,z
1/2+x,1/2+y,1/2+z
1/2-x,1/2-y,1/2+z
1/2+x,1/2-y,1/2-z
1/2-x,1/2+y,1/2-z
1/2-x,1/2-y,1/2-z
1/2+x,1/2+y,1/2-z
1/2-x,1/2+y,1/2+z
1/2+x,1/2-y,1/2+z
loop_
_atom_site_type_symbol
_atom_site_label
_atom_site_fract_x
_atom_site_fract_y
_atom_site_fract_z
Si Si1 0.165130 0.634939 0.251600
Si Si2 0.167166 0.924458 0.438061
Si Si3 0.835134 0.694889 0.641559
Si Si4 0.170388 0.926603 0.161381
Si Si5 0.826951 0.675390 0.864731
O O1 0.164668 0.696413 0.293330
O O2 0.268830 0.578838 0.277528
O O3 0.227024 0.656615 0.194535
O O4 0.000000 0.607075 0.245298
O O5 0.195088 0.910571 0.500000
O O6 0.279891 0.881230 0.404872
O O7 0.000000 0.906596 0.422885
O O8 0.198967 0.000000 0.424627
O O9 0.755108 0.626500 0.624015
O O10 0.749148 0.756832 0.618104
O O11 0.000000 0.695440 0.618513
O O12 0.000000 0.909123 0.161462
O O13 0.198908 0.000000 0.139866
O O14 0.000000 0.685462 0.867160
#
# Coordination Sequence:
#
# PCOD8292289 Si02
#       5
#    16  16  16  16  16
#     4   8  18  30  42  62  91 127 160 193 234 282
#     4   9  20  39  57  71  92 124 161 202 249 299
#     4   9  18  31  46  65  93 129 163 195 234 284
#     4   9  17  28  42  61  89 125 161 196 231 268
#     4  11  20  31  49  72  95 120 156 202 247 290
#
# _framework density 17.134398000000001
#
# number of rings (size 3 to 8) (size 9 to 14) (size 15 to 20)
#    1.200    1.600    0.000    2.400    0.000    4.800 
#    0.000    5.000    0.000    0.000    0.000    0.000 
#    0.000    0.800    0.000    8.400    0.000    3.600 
#
# Total GULP energy -495592.633754 kJ/mol
# GULP energy per Si atom -12389.815844 kJ/mol
# Density = 1.709540 g / cm^3
# Si number density = 17.134398 Si / 1000 Ang^3
#
#
#
# Elastic Constant Matrix: (Units=GPa)
#
#
# Indices 1 2 3 4 5 6 
#
# 1 97.9131 54.6962 15.6415 0.0000 0.0000 0.0000
# 2 54.6962 103.5259 21.7288 0.0000 0.0000 0.0000
# 3 15.6415 21.7288 25.7834 0.0000 0.0000 0.0000
# 4 0.0000 0.0000 0.0000 19.5791 0.0000 0.0000
# 5 0.0000 0.0000 0.0000 0.0000 19.8429 0.0000
# 6 0.0000 0.0000 0.0000 0.0000 0.0000 34.1331
#
#
#
# Elastic Compliance Matrix: (Units=1/GPa)
#
#
# Indices 1 2 3 4 5 6 
#
# 1 0.014663 -0.007143 -0.002875 0.000000 0.000000 0.000000
# 2 -0.007143 0.015215 -0.008489 0.000000 0.000000 0.000000
# 3 -0.002875 -0.008489 0.047683 0.000000 0.000000 0.000000
# 4 0.000000 0.000000 0.000000 0.051075 0.000000 0.000000
# 5 0.000000 0.000000 0.000000 0.000000 0.050396 0.000000
# 6 0.000000 0.000000 0.000000 0.000000 0.000000 0.029297
#
#
# Mechanical properties :
#
#
# Convention : Reuss Voigt Hill
#
# Bulk Modulus (GPa) = 24.66338 45.70616 35.18477
# Shear Modulus (GPa) = 19.31547 23.72139 21.51843
#
# Velocity S-wave (km/s) = 3.36116 3.72483 3.54766
# Velocity P-wave (km/s) = 5.43033 6.72549 6.11231
#
# Compressibility (1/GPa) = 0.04054594
#
# Stress axis : x y z
#
# Youngs Moduli (GPa) = 68.19927 65.72332 20.97181
#
# Poissons Ratio (x) = 0.46949 0.06030
# Poissons Ratio (y) = 0.48718 0.17803
# Poissons Ratio (z) = 0.19608 0.55793
#
# Static dielectric constant tensor:
#      x y z
#    x 3.188400 0.000000 0.000000 
#    y 0.000000 3.041420 0.000000 
#    z 0.000000 0.000000 2.716970 
# 
# 
# High freq. dielectric constant tensor:
#      x y z
#    x 1.672860 0.000000 0.000000 
#    y 0.000000 1.657210 0.000000 
#    z 0.000000 0.000000 1.604480 
# 
# From -- ./inp_files/68121.got.cif
#   From: 2010.06.25/outbox.cif.g09.slc.cpg/sg71_35_cif.got.tgz:68121.got - 2010.06.28 04:59:45.
