data_PCOD8292125
_publ_section_title
;
Structure prediction by ZEFSAII (Michael W. Deem and Ramdas Pophale) SiO2 
 PCOD8292125
Probable space group: I M M M
;
_chemical_formula_sum "Si O2"
_cell_formula_units_Z 80
_cell_length_a 8.742788
_cell_length_b 18.336862
_cell_length_c 24.606436
_cell_angle_alpha 90.000000
_cell_angle_beta 90.000000
_cell_angle_gamma 90.000000
_cell_volume 3944.788097
_symmetry_space_group_name_H-M "I M M M"
_symmetry_group_IT_number 71
_symmetry_cell_setting 'orthorhombic'
loop_
_space_group_symop_operation_xyz
x,y,z
-x,-y,z
x,-y,-z
-x,y,-z
-x,-y,-z
x,y,-z
-x,y,z
x,-y,z
1/2+x,1/2+y,1/2+z
1/2-x,1/2-y,1/2+z
1/2+x,1/2-y,1/2-z
1/2-x,1/2+y,1/2-z
1/2-x,1/2-y,1/2-z
1/2+x,1/2+y,1/2-z
1/2-x,1/2+y,1/2+z
1/2+x,1/2-y,1/2+z
loop_
_atom_site_type_symbol
_atom_site_label
_atom_site_fract_x
_atom_site_fract_y
_atom_site_fract_z
Si Si1 0.177672 0.833307 0.092189
Si Si2 0.821043 0.682100 0.217735
Si Si3 0.676519 0.417355 0.298948
Si Si4 0.318289 0.417087 0.000000
Si Si5 0.331137 0.915356 0.000000
Si Si6 0.180259 0.817651 0.400377
O O1 0.210727 0.861702 0.152487
O O2 0.276091 0.762189 0.078223
O O3 0.000000 0.815901 0.083484
O O4 0.232560 0.895909 0.052376
O O5 0.750000 0.750000 0.250000
O O6 0.781143 0.607404 0.248809
O O7 0.761519 0.670631 0.157000
O O8 0.000000 0.696028 0.214948
O O9 0.500000 0.412753 0.281391
O O10 0.720179 0.500000 0.315368
O O11 0.261063 0.376002 0.054695
O O12 0.254498 0.500000 0.000000
O O13 0.500000 0.416791 0.000000
O O14 0.500000 0.878001 0.000000
O O15 0.355042 0.000000 0.000000
O O16 0.000000 0.823882 0.391896
#
# Coordination Sequence:
#
# PCOD8292125 Si02
#       6
#    16  16  16   8   8  16
#     4  11  22  38  62  89 121 161 207 258 313 378
#     4  12  24  40  63  92 127 169 215 263 319 381
#     4  10  22  40  62  90 124 163 206 258 321 382
#     4   9  21  42  66  94 128 167 214 265 320 382
#     4  11  24  39  56  82 120 163 206 253 306 366
#     4  11  22  39  67  97 125 163 211 265 321 380
#
# _framework density 20.279923
#
# number of rings (size 3 to 8) (size 9 to 14) (size 15 to 20)
#    0.000    1.200    2.000    4.500    0.000    4.400 
#    0.000    3.500    0.000    4.200    0.000    0.000 
#    0.000    0.000    0.000    0.000    0.000    0.000 
#
# Total GULP energy -496078.359235 kJ/mol
# GULP energy per Si atom -12401.958981 kJ/mol
# Density = 2.023377 g / cm^3
# Si number density = 20.279923 Si / 1000 Ang^3
#
#
#
# Elastic Constant Matrix: (Units=GPa)
#
#
# Indices 1 2 3 4 5 6 
#
# 1 97.7735 42.2439 62.8134 0.0000 0.0000 0.0000
# 2 42.2439 130.1184 57.7548 0.0000 0.0000 0.0000
# 3 62.8134 57.7548 147.6542 0.0000 0.0000 0.0000
# 4 0.0000 0.0000 0.0000 55.4057 0.0000 0.0000
# 5 0.0000 0.0000 0.0000 0.0000 34.1685 0.0000
# 6 0.0000 0.0000 0.0000 0.0000 0.0000 27.4301
#
#
#
# Elastic Compliance Matrix: (Units=1/GPa)
#
#
# Indices 1 2 3 4 5 6 
#
# 1 0.014674 -0.002412 -0.005299 0.000000 0.000000 0.000000
# 2 -0.002412 0.009696 -0.002767 0.000000 0.000000 0.000000
# 3 -0.005299 -0.002767 0.010109 0.000000 0.000000 0.000000
# 4 0.000000 0.000000 0.000000 0.018049 0.000000 0.000000
# 5 0.000000 0.000000 0.000000 0.000000 0.029267 0.000000
# 6 0.000000 0.000000 0.000000 0.000000 0.000000 0.036456
#
#
# Mechanical properties :
#
#
# Convention : Reuss Voigt Hill
#
# Bulk Modulus (GPa) = 73.94187 77.90782 75.92484
# Shear Modulus (GPa) = 34.79114 37.58313 36.18714
#
# Velocity S-wave (km/s) = 4.14641 4.30957 4.22878
# Velocity P-wave (km/s) = 7.71125 7.95379 7.83346
#
# Compressibility (1/GPa) = 0.01352414
#
# Stress axis : x y z
#
# Youngs Moduli (GPa) = 68.14697 103.13104 98.92155
#
# Poissons Ratio (x) = 0.24875 0.52419
# Poissons Ratio (y) = 0.16437 0.27368
# Poissons Ratio (z) = 0.36111 0.28533
#
# Static dielectric constant tensor:
#      x y z
#    x 3.694720 0.000000 0.000000 
#    y 0.000000 3.819560 0.000000 
#    z 0.000000 0.000000 3.827110 
# 
# 
# High freq. dielectric constant tensor:
#      x y z
#    x 1.788250 0.000000 0.000000 
#    y 0.000000 1.795160 0.000000 
#    z 0.000000 0.000000 1.803450 
# 
# From -- ./inp_files/63072.got.cif
#   From: 2010.06.25/outbox.cif.g09.slc.cpg/sg71_32_cif.got.tgz:63072.got - 2010.06.28 04:59:45.
