data_PCOD8292286
_publ_section_title
;
Structure prediction by ZEFSAII (Michael W. Deem and Ramdas Pophale) SiO2 
 PCOD8292286
Probable space group: I M M M
;
_chemical_formula_sum "Si O2"
_cell_formula_units_Z 88
_cell_length_a 18.769143
_cell_length_b 19.620343
_cell_length_c 13.350488
_cell_angle_alpha 90.000000
_cell_angle_beta 90.000000
_cell_angle_gamma 90.000000
_cell_volume 4916.410973
_symmetry_space_group_name_H-M "I M M M"
_symmetry_group_IT_number 71
_symmetry_cell_setting 'orthorhombic'
loop_
_space_group_symop_operation_xyz
x,y,z
-x,-y,z
x,-y,-z
-x,y,-z
-x,-y,-z
x,y,-z
-x,y,z
x,-y,z
1/2+x,1/2+y,1/2+z
1/2-x,1/2-y,1/2+z
1/2+x,1/2-y,1/2-z
1/2-x,1/2+y,1/2-z
1/2-x,1/2-y,1/2-z
1/2+x,1/2+y,1/2-z
1/2-x,1/2+y,1/2+z
1/2+x,1/2-y,1/2+z
loop_
_atom_site_type_symbol
_atom_site_label
_atom_site_fract_x
_atom_site_fract_y
_atom_site_fract_z
Si Si1 0.581930 0.808965 0.886505
Si Si2 0.291690 0.420557 0.116707
Si Si3 0.348845 0.866656 0.698332
Si Si4 0.083788 0.500000 0.888231
Si Si5 0.082041 0.763411 0.111729
Si Si6 0.081138 0.838840 0.693551
O O1 0.500000 0.827474 0.860704
O O2 0.634682 0.850814 0.814541
O O3 0.593589 0.728517 0.872549
O O4 0.600985 0.828974 0.000000
O O5 0.281057 0.500000 0.138595
O O6 0.235069 0.377977 0.182054
O O7 0.370112 0.399130 0.152104
O O8 0.281057 0.404167 0.000000
O O9 0.372013 0.804079 0.628668
O O10 0.391533 0.933639 0.669530
O O11 0.000000 0.500000 0.894938
O O12 0.117609 0.500000 0.000000
O O13 0.101464 0.822490 0.190754
O O14 0.000000 0.741834 0.127743
O O15 0.096214 0.791519 0.000000
O O16 0.000000 0.864481 0.684622
#
# Coordination Sequence:
#
# PCOD8292286 Si02
#       6
#    16  16  16   8  16  16
#     4   9  18  34  56  81 108 139 177 219 259 305
#     4  11  23  37  53  75 106 140 173 218 271 315
#     4  11  20  33  50  75 110 141 172 213 259 310
#     4  11  20  30  49  73 100 140 179 206 245 303
#     4   9  17  31  54  83 110 134 167 213 261 311
#     4   9  19  36  57  79 103 134 175 221 269 319
#
# _framework density 17.899235999999998
#
# number of rings (size 3 to 8) (size 9 to 14) (size 15 to 20)
#    0.000    2.091    0.909    4.909    0.000    5.818 
#    0.000    4.091    0.000    3.273    0.000    2.545 
#    0.000    0.000    0.000    0.000    0.000    0.000 
#
# Total GULP energy -545659.678733 kJ/mol
# GULP energy per Si atom -12401.356335 kJ/mol
# Density = 1.785850 g / cm^3
# Si number density = 17.899236 Si / 1000 Ang^3
#
#
#
# Elastic Constant Matrix: (Units=GPa)
#
#
# Indices 1 2 3 4 5 6 
#
# 1 97.2961 33.5905 46.0199 0.0000 0.0000 0.0000
# 2 33.5905 40.6176 34.0340 0.0000 0.0000 0.0000
# 3 46.0199 34.0340 131.9288 0.0000 0.0000 0.0000
# 4 0.0000 0.0000 0.0000 22.3320 0.0000 0.0000
# 5 0.0000 0.0000 0.0000 0.0000 25.4184 0.0000
# 6 0.0000 0.0000 0.0000 0.0000 0.0000 37.9967
#
#
#
# Elastic Compliance Matrix: (Units=1/GPa)
#
#
# Indices 1 2 3 4 5 6 
#
# 1 0.015054 -0.010269 -0.002602 0.000000 0.000000 0.000000
# 2 -0.010269 0.038415 -0.006328 0.000000 0.000000 0.000000
# 3 -0.002602 -0.006328 0.010120 0.000000 0.000000 0.000000
# 4 0.000000 0.000000 0.000000 0.044779 0.000000 0.000000
# 5 0.000000 0.000000 0.000000 0.000000 0.039342 0.000000
# 6 0.000000 0.000000 0.000000 0.000000 0.000000 0.026318
#
#
# Mechanical properties :
#
#
# Convention : Reuss Voigt Hill
#
# Bulk Modulus (GPa) = 39.69764 55.23680 47.46722
# Shear Modulus (GPa) = 22.64267 27.56261 25.10264
#
# Velocity S-wave (km/s) = 3.56055 3.92838 3.74898
# Velocity P-wave (km/s) = 6.25539 7.17657 6.73175
#
# Compressibility (1/GPa) = 0.02519042
#
# Stress axis : x y z
#
# Youngs Moduli (GPa) = 66.42755 26.03172 98.81555
#
# Poissons Ratio (x) = 0.26733 0.25712
# Poissons Ratio (y) = 0.68217 0.62528
# Poissons Ratio (z) = 0.17284 0.16472
#
# Static dielectric constant tensor:
#      x y z
#    x 3.276900 0.000000 0.000000 
#    y 0.000000 2.957710 0.000000 
#    z 0.000000 0.000000 3.488930 
# 
# 
# High freq. dielectric constant tensor:
#      x y z
#    x 1.690840 0.000000 0.000000 
#    y 0.000000 1.667950 0.000000 
#    z 0.000000 0.000000 1.698840 
# 
# From -- ./inp_files/36596.got.cif
#   From: 2010.06.25/outbox.cif.g09.slc.cpg/sg71_19_cif.got.tgz:36596.got - 2010.06.28 04:59:45.
