data_PCOD8292806
_publ_section_title
;
Structure prediction by ZEFSAII (Michael W. Deem and Ramdas Pophale) SiO2 
 PCOD8292806
Probable space group: I M M M
;
_chemical_formula_sum "Si O2"
_cell_formula_units_Z 32
_cell_length_a 12.000000
_cell_length_b 30.000000
_cell_length_c 9.000000
_cell_angle_alpha 90.000000
_cell_angle_beta 90.000000
_cell_angle_gamma 90.000000
_cell_volume 3240.000000
_symmetry_space_group_name_H-M "I M M M"
_symmetry_group_IT_number 71
_symmetry_cell_setting 'orthorhombic'
loop_
_space_group_symop_operation_xyz
x,y,z
-x,-y,z
x,-y,-z
-x,y,-z
-x,-y,-z
x,y,-z
-x,y,z
x,-y,z
1/2+x,1/2+y,1/2+z
1/2-x,1/2-y,1/2+z
1/2+x,1/2-y,1/2-z
1/2-x,1/2+y,1/2-z
1/2-x,1/2-y,1/2-z
1/2+x,1/2+y,1/2-z
1/2-x,1/2+y,1/2+z
1/2+x,1/2-y,1/2+z
loop_
_atom_site_type_symbol
_atom_site_label
_atom_site_fract_x
_atom_site_fract_y
_atom_site_fract_z
Si Si1 0.236732 0.951509 0.823846
Si Si2 0.500000 0.429613 0.664067
Si Si3 0.500000 0.674910 0.333304
Si Si4 0.869130 0.632744 0.671892
Si Si5 0.776998 0.796184 0.676457
O O1 0.112949 0.945234 0.752547
O O2 0.321551 0.914116 0.766939
O O3 0.283586 0.000000 0.777544
O O4 0.226450 0.946770 0.000000
O O5 0.500000 0.451319 0.500000
O O6 0.500000 0.377242 0.649616
O O7 0.500000 0.696359 0.500000
O O8 0.605930 0.688497 0.239323
O O9 0.835065 0.641512 0.500000
O O10 0.820917 0.670655 0.776742
O O11 0.000000 0.631700 0.691264
O O12 0.782794 0.792070 0.500000
O O13 0.750000 0.750000 0.750000
#
# Coordination Sequence:
#
# PCOD8292806 Si02
#       5
#    16   8   8  16  16
#     4   9  16  28  51  86 122 156 198 250 305 357
#     4   9  15  27  52  84 120 154 190 243 301 355
#     4  11  21  40  67  93 124 158 197 248 307 362
#     4  10  21  38  59  86 122 161 205 256 305 358
#     4  12  26  43  64  90 121 159 204 251 305 364
#
# _framework density 9.8765429999999999
#
# number of rings (size 3 to 8) (size 9 to 14) (size 15 to 20)
#    0.000    1.750    2.500    3.000    1.750    2.500 
#    0.000    2.500    0.000    0.750    0.000    3.500 
#    0.000    0.000    0.000    0.000    0.000    0.000 
#
# Total GULP energy -396655.186468 kJ/mol
# GULP energy per Si atom -12395.474577 kJ/mol
# Density = 0.985406 g / cm^3
# Si number density = 9.876543 Si / 1000 Ang^3
#
#
#
# Elastic Constant Matrix: (Units=GPa)
#
#
# Indices 1 2 3 4 5 6 
#
# 1 105.6561 57.7479 44.0644 -0.0002 -0.0001 0.0000
# 2 57.7479 146.9634 48.3895 0.0005 0.0003 0.0001
# 3 44.0644 48.3895 105.7694 0.0054 0.0021 -0.0005
# 4 -0.0002 0.0005 0.0054 17.4045 -0.0003 -0.0003
# 5 -0.0001 0.0003 0.0021 -0.0003 35.8821 0.0000
# 6 0.0000 0.0001 -0.0005 -0.0003 0.0000 29.6870
#
#
#
# Elastic Compliance Matrix: (Units=1/GPa)
#
#
# Indices 1 2 3 4 5 6 
#
# 1 0.013161 -0.003963 -0.003670 0.000001 0.000000 0.000000
# 2 -0.003963 0.009205 -0.002560 0.000000 0.000000 0.000000
# 3 -0.003670 -0.002560 0.012155 -0.000004 -0.000001 0.000000
# 4 0.000001 0.000000 -0.000004 0.057456 0.000001 0.000001
# 5 0.000000 0.000000 -0.000001 0.000001 0.027869 0.000000
# 6 0.000000 0.000000 0.000000 0.000001 0.000000 0.033685
#
#
# Mechanical properties :
#
#
# Convention : Reuss Voigt Hill
#
# Bulk Modulus (GPa) = 70.74999 73.19918 71.97458
# Shear Modulus (GPa) = 27.99098 30.47385 29.23241
#
# Velocity S-wave (km/s) = 3.76845 3.93203 3.85111
# Velocity P-wave (km/s) = 7.40472 7.59948 7.50273
#
# Compressibility (1/GPa) = 0.01413428
#
# Stress axis : x y z
#
# Youngs Moduli (GPa) = 75.97959 108.64065 82.27295
#
# Poissons Ratio (x) = 0.43057 0.30194
# Poissons Ratio (y) = 0.30113 0.21062
# Poissons Ratio (z) = 0.27884 0.27812
#
# Static dielectric constant tensor:
#      x y z
#    x 3.660720 0.000000 0.000000 
#    y 0.000000 3.924120 -0.000010 
#    z 0.000000 -0.000010 3.209320 
# 
# 
# High freq. dielectric constant tensor:
#      x y z
#    x 1.779200 0.000000 0.000000 
#    y 0.000000 1.778920 0.000000 
#    z 0.000000 0.000000 1.721720 
# 
# From -- ./inp_files/3719.got.cif
#   From: 2010.06.25/outbox.ucp.g09.slc.cvg/sg71_2_cif.got.tgz:3719.got - 2010.06.28 16:23:14.
