data_PCOD8292241
_publ_section_title
;
Structure prediction by ZEFSAII (Michael W. Deem and Ramdas Pophale) SiO2 
 PCOD8292241
Probable space group: I M M M
;
_chemical_formula_sum "Si O2"
_cell_formula_units_Z 80
_cell_length_a 22.851910
_cell_length_b 10.987338
_cell_length_c 18.758264
_cell_angle_alpha 90.000000
_cell_angle_beta 90.000000
_cell_angle_gamma 90.000000
_cell_volume 4709.856047
_symmetry_space_group_name_H-M "I M M M"
_symmetry_group_IT_number 71
_symmetry_cell_setting 'orthorhombic'
loop_
_space_group_symop_operation_xyz
x,y,z
-x,-y,z
x,-y,-z
-x,y,-z
-x,-y,-z
x,y,-z
-x,y,z
x,-y,z
1/2+x,1/2+y,1/2+z
1/2-x,1/2-y,1/2+z
1/2+x,1/2-y,1/2-z
1/2-x,1/2+y,1/2-z
1/2-x,1/2-y,1/2-z
1/2+x,1/2+y,1/2-z
1/2-x,1/2+y,1/2+z
1/2+x,1/2-y,1/2+z
loop_
_atom_site_type_symbol
_atom_site_label
_atom_site_fract_x
_atom_site_fract_y
_atom_site_fract_z
Si Si1 0.916665 0.000000 0.419864
Si Si2 0.129560 0.641691 0.500000
Si Si3 0.720028 0.500000 0.079184
Si Si4 0.665894 0.855829 0.230436
Si Si5 0.232967 0.742473 0.857725
Si Si6 0.761822 0.143650 0.000000
Si Si7 0.065800 0.259239 0.637126
O O1 0.937361 0.114875 0.374049
O O2 0.944455 0.000000 0.500000
O O3 0.848345 0.000000 0.429870
O O4 0.138715 0.500000 0.500000
O O5 0.195080 0.698069 0.500000
O O6 0.093673 0.680398 0.431900
O O7 0.737367 0.615072 0.125351
O O8 0.749329 0.500000 0.000000
O O9 0.718291 0.833439 0.174390
O O10 0.680242 0.783601 0.303261
O O11 0.604802 0.798497 0.204436
O O12 0.658976 0.000000 0.242593
O O13 0.206799 0.804714 0.929074
O O14 0.765585 0.000000 0.000000
O O15 0.000000 0.308833 0.648975
#
# Coordination Sequence:
#
# PCOD8292241 Si02
#       7
#     8   8   8  16  16   8  16
#     4  11  21  36  53  76 108 141 186 231 263 308
#     4  11  21  35  51  76 110 146 187 223 257 307
#     4  11  18  33  58  79 105 138 175 225 272 323
#     4  11  23  37  52  77 110 143 179 223 269 318
#     4  11  21  35  55  80 107 140 178 218 274 327
#     4  11  20  36  57  81 113 142 173 221 267 319
#     4  12  24  37  53  74 106 149 191 226 263 310
#
# _framework density 16.985657
#
# number of rings (size 3 to 8) (size 9 to 14) (size 15 to 20)
#    0.000    0.800    7.000    1.800    0.000    2.400 
#    1.800    0.000    0.000    0.000    0.000    0.700 
#    0.000    3.200    0.000    0.000    0.000    0.000 
#
# Total GULP energy -496038.484054 kJ/mol
# GULP energy per Si atom -12400.962101 kJ/mol
# Density = 1.694700 g / cm^3
# Si number density = 16.985657 Si / 1000 Ang^3
#
#
#
# Elastic Constant Matrix: (Units=GPa)
#
#
# Indices 1 2 3 4 5 6 
#
# 1 79.2587 24.9289 50.4042 0.0000 0.0000 0.0000
# 2 24.9289 86.7932 35.8100 0.0000 0.0000 0.0000
# 3 50.4042 35.8100 123.1960 0.0000 0.0000 0.0000
# 4 0.0000 0.0000 0.0000 32.9137 0.0000 0.0000
# 5 0.0000 0.0000 0.0000 0.0000 -1.7437 0.0000
# 6 0.0000 0.0000 0.0000 0.0000 0.0000 12.2945
#
#
#
# Elastic Compliance Matrix: (Units=1/GPa)
#
#
# Indices 1 2 3 4 5 6 
#
# 1 0.017466 -0.002350 -0.006463 0.000000 0.000000 0.000000
# 2 -0.002350 0.013408 -0.002936 0.000000 0.000000 0.000000
# 3 -0.006463 -0.002936 0.011615 0.000000 0.000000 0.000000
# 4 0.000000 0.000000 0.000000 0.030382 0.000000 0.000000
# 5 0.000000 0.000000 0.000000 0.000000 -0.573508 0.000000
# 6 0.000000 0.000000 0.000000 0.000000 0.000000 0.081337
#
#
# Mechanical properties :
#
#
# Convention : Reuss Voigt Hill
#
# Bulk Modulus (GPa) = 52.65637 56.83714 54.74675
# Shear Modulus (GPa) = -12.83794 20.56656 3.86431
#
# Velocity S-wave (km/s) = -2.75218 3.48346 1.50996
# Velocity P-wave (km/s) = 4.57913 7.05080 5.94484
#
# Compressibility (1/GPa) = 0.01899106
#
# Stress axis : x y z
#
# Youngs Moduli (GPa) = 57.25349 74.58272 86.09735
#
# Poissons Ratio (x) = 0.17528 0.55644
# Poissons Ratio (y) = 0.13455 0.25277
# Poissons Ratio (z) = 0.37003 0.21896
#
# Static dielectric constant tensor:
#      x y z
#    x 3.008860 0.000000 0.000000 
#    y 0.000000 3.391340 0.000000 
#    z 0.000000 0.000000 3.339070 
# 
# 
# High freq. dielectric constant tensor:
#      x y z
#    x 1.615960 0.000000 0.000000 
#    y 0.000000 1.676730 0.000000 
#    z 0.000000 0.000000 1.649450 
# 
# From -- ./inp_files/27385.got.cif
#   From: 2010.06.25/outbox.cif.g09.slc.cpg/sg71_14_cif.got.tgz:27385.got - 2010.06.28 04:59:45.
