data_PCOD8292916
_publ_section_title
;
Structure prediction by ZEFSAII (Michael W. Deem and Ramdas Pophale) SiO2 
 PCOD8292916
Probable space group: I B A M
;
_chemical_formula_sum "Si O2"
_cell_formula_units_Z 112
_cell_length_a 30.116228
_cell_length_b 13.162785
_cell_length_c 14.627346
_cell_angle_alpha 90.000000
_cell_angle_beta 90.000000
_cell_angle_gamma 90.000000
_cell_volume 5798.476461
_symmetry_space_group_name_H-M "I B A M"
_symmetry_group_IT_number 72
_symmetry_cell_setting 'orthorhombic'
loop_
_space_group_symop_operation_xyz
x,y,z
-x,-y,z
x,-y,1/2-z
-x,y,1/2-z
-x,-y,-z
x,y,-z
-x,y,1/2+z
x,-y,1/2+z
1/2+x,1/2+y,1/2+z
1/2-x,1/2-y,1/2+z
1/2+x,1/2-y,-z
1/2-x,1/2+y,-z
1/2-x,1/2-y,1/2-z
1/2+x,1/2+y,1/2-z
1/2-x,1/2+y,z
1/2+x,1/2-y,z
loop_
_atom_site_type_symbol
_atom_site_label
_atom_site_fract_x
_atom_site_fract_y
_atom_site_fract_z
Si Si1 0.881251 0.719838 0.891297
Si Si2 0.808380 0.221472 0.898416
Si Si3 0.246682 0.905736 0.397727
Si Si4 0.607624 0.141676 0.404397
Si Si5 0.337026 0.394605 0.275674
Si Si6 0.670888 0.028338 0.145014
Si Si7 0.949304 0.379240 0.261423
O O1 0.870489 0.820117 0.830641
O O2 0.838727 0.646954 0.873996
O O3 0.926423 0.665005 0.853693
O O4 0.886874 0.744179 0.000000
O O5 0.771608 0.303067 0.866840
O O6 0.855268 0.274405 0.906612
O O7 0.813968 0.141937 0.817874
O O8 0.796942 0.174849 0.000000
O O9 0.229341 0.893218 0.500000
O O10 0.204177 0.926408 0.337830
O O11 0.280742 0.001088 0.393724
O O12 0.580371 0.144372 0.500000
O O13 0.575489 0.171483 0.323042
O O14 0.630621 0.031541 0.401479
O O15 0.362689 0.500000 0.250000
O O16 0.669310 0.000000 0.250000
O O17 0.944103 0.500000 0.250000
O O18 0.000000 0.345350 0.250000
#
# Coordination Sequence:
#
# PCOD8292916 Si02
#       7
#    16  16  16  16  16  16  16
#     4  12  23  40  63  89 121 165 203 245 301 363
#     4   9  19  36  60  81 108 151 204 249 297 358
#     4  10  21  36  55  87 117 152 199 249 298 358
#     4  10  17  33  58  85 116 155 193 228 283 360
#     4  12  25  40  55  79 115 158 205 264 309 344
#     4  11  18  34  59  84 121 162 199 236 290 355
#     4  11  22  37  60  97 135 159 187 233 293 370
#
# _framework density 19.315418000000001
#
# number of rings (size 3 to 8) (size 9 to 14) (size 15 to 20)
#    0.000    1.286    4.286    4.286    0.000    2.857 
#    0.000    2.857    0.000    0.429    0.000    1.000 
#    0.000    0.000    0.000    0.000    0.000    0.000 
#
# Total GULP energy -693920.705013 kJ/mol
# GULP energy per Si atom -12391.441161 kJ/mol
# Density = 1.927146 g / cm^3
# Si number density = 19.315418 Si / 1000 Ang^3
#
#
#
# Elastic Constant Matrix: (Units=GPa)
#
#
# Indices 1 2 3 4 5 6 
#
# 1 66.3767 22.7421 29.1574 0.0000 0.0000 0.0000
# 2 22.7421 97.2118 35.3758 0.0000 0.0000 0.0000
# 3 29.1574 35.3758 130.4228 0.0000 0.0000 0.0000
# 4 0.0000 0.0000 0.0000 35.2434 0.0000 0.0000
# 5 0.0000 0.0000 0.0000 0.0000 12.8756 0.0000
# 6 0.0000 0.0000 0.0000 0.0000 0.0000 6.8741
#
#
#
# Elastic Compliance Matrix: (Units=1/GPa)
#
#
# Indices 1 2 3 4 5 6 
#
# 1 0.017438 -0.002952 -0.003098 0.000000 0.000000 0.000000
# 2 -0.002952 0.011913 -0.002571 0.000000 0.000000 0.000000
# 3 -0.003098 -0.002571 0.009057 0.000000 0.000000 0.000000
# 4 0.000000 0.000000 0.000000 0.028374 0.000000 0.000000
# 5 0.000000 0.000000 0.000000 0.000000 0.077666 0.000000
# 6 0.000000 0.000000 0.000000 0.000000 0.000000 0.145473
#
#
# Mechanical properties :
#
#
# Convention : Reuss Voigt Hill
#
# Bulk Modulus (GPa) = 47.24581 52.06246 49.65413
# Shear Modulus (GPa) = 15.91246 24.78102 20.34674
#
# Velocity S-wave (km/s) = 2.87334 3.58574 3.24912
# Velocity P-wave (km/s) = 5.95998 6.64498 6.31178
#
# Compressibility (1/GPa) = 0.02116590
#
# Stress axis : x y z
#
# Youngs Moduli (GPa) = 57.34691 83.94065 110.40786
#
# Poissons Ratio (x) = 0.24781 0.34200
# Poissons Ratio (y) = 0.16930 0.28389
# Poissons Ratio (z) = 0.17764 0.21584
#
# Static dielectric constant tensor:
#      x y z
#    x 3.297400 0.000000 0.000000 
#    y 0.000000 3.526010 0.000000 
#    z 0.000000 0.000000 4.108050 
# 
# 
# High freq. dielectric constant tensor:
#      x y z
#    x 1.712910 0.000000 0.000000 
#    y 0.000000 1.730600 0.000000 
#    z 0.000000 0.000000 1.779250 
# 
# From -- ./inp_files/26424.got.cif
#   From: 2010.03.12/outbox.cif.g09.slc.cpg/sg72_14_cif.got.tgz:26424.got - 2010.04.16 14:54:00.
