data_PCOD8292434
_publ_section_title
;
Structure prediction by ZEFSAII (Michael W. Deem and Ramdas Pophale) SiO2 
 PCOD8292434
Probable space group: I M M M
;
_chemical_formula_sum "Si O2"
_cell_formula_units_Z 88
_cell_length_a 19.635793
_cell_length_b 8.985950
_cell_length_c 29.757452
_cell_angle_alpha 90.000000
_cell_angle_beta 90.000000
_cell_angle_gamma 90.000000
_cell_volume 5250.590937
_symmetry_space_group_name_H-M "I M M M"
_symmetry_group_IT_number 71
_symmetry_cell_setting 'orthorhombic'
loop_
_space_group_symop_operation_xyz
x,y,z
-x,-y,z
x,-y,-z
-x,y,-z
-x,-y,-z
x,y,-z
-x,y,z
x,-y,z
1/2+x,1/2+y,1/2+z
1/2-x,1/2-y,1/2+z
1/2+x,1/2-y,1/2-z
1/2-x,1/2+y,1/2-z
1/2-x,1/2-y,1/2-z
1/2+x,1/2+y,1/2-z
1/2-x,1/2+y,1/2+z
1/2+x,1/2-y,1/2+z
loop_
_atom_site_type_symbol
_atom_site_label
_atom_site_fract_x
_atom_site_fract_y
_atom_site_fract_z
Si Si1 0.365124 0.827883 0.550243
Si Si2 0.202658 0.329646 0.862729
Si Si3 0.710568 0.174981 0.791444
Si Si4 0.424949 0.332700 0.775277
Si Si5 0.924127 0.834190 0.168940
Si Si6 0.500000 0.330859 0.553232
O O1 0.346092 0.770924 0.500000
O O2 0.299965 0.802603 0.583128
O O3 0.430187 0.742071 0.571342
O O4 0.385579 0.000000 0.548923
O O5 0.220256 0.500000 0.850910
O O6 0.256922 0.223305 0.838904
O O7 0.126678 0.294616 0.845960
O O8 0.750000 0.250000 0.750000
O O9 0.631569 0.219497 0.793639
O O10 0.718015 0.000000 0.785496
O O11 0.500000 0.287345 0.794024
O O12 0.406521 0.500000 0.791281
O O13 0.427567 0.327028 0.722147
O O14 0.000000 0.805213 0.148583
O O15 0.898939 0.000000 0.154534
O O16 0.500000 0.500000 0.568835
O O17 0.500000 0.309230 0.500000
#
# Coordination Sequence:
#
# PCOD8292434 Si02
#       6
#    16  16  16  16  16   8
#     4   9  19  35  50  65  90 124 163 207 251 294
#     4  11  22  33  49  71  93 126 167 206 249 294
#     4  12  23  35  51  72 101 132 164 202 242 288
#     4   9  18  34  54  73  96 128 163 200 241 284
#     4   9  18  31  46  66  94 128 163 204 248 287
#     4   9  17  29  47  69  91 121 161 205 253 297
#
# _framework density 16.760019
#
# number of rings (size 3 to 8) (size 9 to 14) (size 15 to 20)
#    0.000    2.091    1.818    3.545    1.273    3.273 
#    0.000    1.818    0.000    0.000    0.000    0.000 
#    0.000    0.727    0.000    8.364    0.000    2.364 
#
# Total GULP energy -545437.879279 kJ/mol
# GULP energy per Si atom -12396.315438 kJ/mol
# Density = 1.672187 g / cm^3
# Si number density = 16.760019 Si / 1000 Ang^3
#
#
#
# Elastic Constant Matrix: (Units=GPa)
#
#
# Indices 1 2 3 4 5 6 
#
# 1 91.1582 44.0349 34.3066 0.0000 0.0000 0.0000
# 2 44.0349 97.4091 32.2258 0.0000 0.0000 0.0000
# 3 34.3066 32.2258 55.9969 0.0000 0.0000 0.0000
# 4 0.0000 0.0000 0.0000 17.4031 0.0000 0.0000
# 5 0.0000 0.0000 0.0000 0.0000 25.1145 0.0000
# 6 0.0000 0.0000 0.0000 0.0000 0.0000 28.9579
#
#
#
# Elastic Compliance Matrix: (Units=1/GPa)
#
#
# Indices 1 2 3 4 5 6 
#
# 1 0.015960 -0.004916 -0.006949 0.000000 0.000000 0.000000
# 2 -0.004916 0.014194 -0.005157 0.000000 0.000000 0.000000
# 3 -0.006949 -0.005157 0.025083 0.000000 0.000000 0.000000
# 4 0.000000 0.000000 0.000000 0.057461 0.000000 0.000000
# 5 0.000000 0.000000 0.000000 0.000000 0.039818 0.000000
# 6 0.000000 0.000000 0.000000 0.000000 0.000000 0.034533
#
#
# Mechanical properties :
#
#
# Convention : Reuss Voigt Hill
#
# Bulk Modulus (GPa) = 47.18332 51.74432 49.46382
# Shear Modulus (GPa) = 21.91478 23.22822 22.57150
#
# Velocity S-wave (km/s) = 3.61995 3.72685 3.67379
# Velocity P-wave (km/s) = 6.75910 7.03277 6.89729
#
# Compressibility (1/GPa) = 0.02119393
#
# Stress axis : x y z
#
# Youngs Moduli (GPa) = 62.65781 70.45050 39.86758
#
# Poissons Ratio (x) = 0.34633 0.27703
# Poissons Ratio (y) = 0.30802 0.20560
# Poissons Ratio (z) = 0.43539 0.36331
#
# Static dielectric constant tensor:
#      x y z
#    x 3.286290 0.000000 0.000000 
#    y 0.000000 3.198370 0.000000 
#    z 0.000000 0.000000 3.221250 
# 
# 
# High freq. dielectric constant tensor:
#      x y z
#    x 1.619460 0.000000 0.000000 
#    y 0.000000 1.650430 0.000000 
#    z 0.000000 0.000000 1.631030 
# 
# From -- ./inp_files/11388.got.cif
#   From: 2010.06.25/outbox.cif.g09.slc.cpg/sg71_6_cif.got.tgz:11388.got - 2010.06.28 04:59:45.
