data_PCOD8292416
_publ_section_title
;
Structure prediction by ZEFSAII (Michael W. Deem and Ramdas Pophale) SiO2 
 PCOD8292416
Probable space group: I M M M
;
_chemical_formula_sum "Si O2"
_cell_formula_units_Z 88
_cell_length_a 12.048141
_cell_length_b 14.806862
_cell_length_c 23.252957
_cell_angle_alpha 90.000000
_cell_angle_beta 90.000000
_cell_angle_gamma 90.000000
_cell_volume 4148.215011
_symmetry_space_group_name_H-M "I M M M"
_symmetry_group_IT_number 71
_symmetry_cell_setting 'orthorhombic'
loop_
_space_group_symop_operation_xyz
x,y,z
-x,-y,z
x,-y,-z
-x,y,-z
-x,-y,-z
x,y,-z
-x,y,z
x,-y,z
1/2+x,1/2+y,1/2+z
1/2-x,1/2-y,1/2+z
1/2+x,1/2-y,1/2-z
1/2-x,1/2+y,1/2-z
1/2-x,1/2-y,1/2-z
1/2+x,1/2+y,1/2-z
1/2-x,1/2+y,1/2+z
1/2+x,1/2-y,1/2+z
loop_
_atom_site_type_symbol
_atom_site_label
_atom_site_fract_x
_atom_site_fract_y
_atom_site_fract_z
Si Si1 0.500000 0.897457 0.583231
Si Si2 0.734445 0.103015 0.115553
Si Si3 0.871760 0.101088 0.353605
Si Si4 0.264193 0.853805 0.754585
Si Si5 0.000000 0.401528 0.218366
Si Si6 0.282130 0.783956 0.435687
Si Si7 0.500000 0.105468 0.935756
O O1 0.500000 0.903374 0.650607
O O2 0.607235 0.843355 0.562414
O O3 0.500000 0.000000 0.557831
O O4 0.759183 0.104112 0.183277
O O5 0.809446 0.180941 0.085487
O O6 0.608431 0.133081 0.100692
O O7 0.760238 0.000000 0.093429
O O8 0.813887 0.096202 0.291167
O O9 0.809714 0.171258 0.394662
O O10 0.000000 0.131059 0.347177
O O11 0.863636 0.000000 0.379872
O O12 0.250000 0.750000 0.750000
O O13 0.392609 0.854351 0.740986
O O14 0.000000 0.500000 0.245568
O O15 0.233190 0.779407 0.500000
O O16 0.500000 0.000000 0.944652
O O17 0.500000 0.150289 0.000000
#
# Coordination Sequence:
#
# PCOD8292416 Si02
#       7
#     8  16  16  16   8  16   8
#     4  11  23  45  72  98 129 166 221 287 343 398
#     4  11  23  41  65  98 137 180 225 271 329 397
#     4  11  25  45  67  96 135 175 218 277 348 412
#     4  12  23  40  67  98 136 173 222 277 335 399
#     4  11  21  37  67  98 127 167 217 269 324 392
#     4  12  26  44  68  98 131 172 226 279 337 405
#     4   9  19  37  63  96 134 177 223 270 320 380
#
# _framework density 21.213943
#
# number of rings (size 3 to 8) (size 9 to 14) (size 15 to 20)
#    0.000    0.818    3.636    3.545    2.545    4.000 
#    1.636    1.364    0.000    1.091    0.000    0.000 
#    0.000    0.000    0.000    0.000    0.000    0.000 
#
# Total GULP energy -545387.876289 kJ/mol
# GULP energy per Si atom -12395.179007 kJ/mol
# Density = 2.116566 g / cm^3
# Si number density = 21.213943 Si / 1000 Ang^3
#
#
#
# Elastic Constant Matrix: (Units=GPa)
#
#
# Indices 1 2 3 4 5 6 
#
# 1 124.4048 53.0298 40.3059 0.0000 0.0000 0.0000
# 2 53.0298 162.0225 38.2272 0.0000 0.0000 0.0000
# 3 40.3059 38.2272 141.9835 0.0000 0.0000 0.0000
# 4 0.0000 0.0000 0.0000 -15.0961 0.0000 0.0000
# 5 0.0000 0.0000 0.0000 0.0000 21.7810 0.0000
# 6 0.0000 0.0000 0.0000 0.0000 0.0000 34.5027
#
#
#
# Elastic Compliance Matrix: (Units=1/GPa)
#
#
# Indices 1 2 3 4 5 6 
#
# 1 0.009878 -0.002746 -0.002065 0.000000 0.000000 0.000000
# 2 -0.002746 0.007354 -0.001200 0.000000 0.000000 0.000000
# 3 -0.002065 -0.001200 0.007952 0.000000 0.000000 0.000000
# 4 0.000000 0.000000 0.000000 -0.066242 0.000000 0.000000
# 5 0.000000 0.000000 0.000000 0.000000 0.045912 0.000000
# 6 0.000000 0.000000 0.000000 0.000000 0.000000 0.028983
#
#
# Mechanical properties :
#
#
# Convention : Reuss Voigt Hill
#
# Bulk Modulus (GPa) = 75.97673 76.83739 76.40706
# Shear Modulus (GPa) = 99.51030 28.02738 63.76884
#
# Velocity S-wave (km/s) = 6.85637 3.63874 5.48864
# Velocity P-wave (km/s) = 9.92834 7.34526 8.73284
#
# Compressibility (1/GPa) = 0.01316192
#
# Stress axis : x y z
#
# Youngs Moduli (GPa) = 101.23828 135.98204 125.74772
#
# Poissons Ratio (x) = 0.37338 0.25964
# Poissons Ratio (y) = 0.27798 0.15096
# Poissons Ratio (z) = 0.20904 0.16324
#
# Static dielectric constant tensor:
#      x y z
#    x 3.737810 0.000000 0.000000 
#    y 0.000000 4.076570 0.000000 
#    z 0.000000 0.000000 4.044530 
# 
# 
# High freq. dielectric constant tensor:
#      x y z
#    x 1.819450 0.000000 0.000000 
#    y 0.000000 1.850790 0.000000 
#    z 0.000000 0.000000 1.837880 
# 
# From -- ./inp_files/58756.got.cif
#   From: 2010.06.25/outbox.cif.g09.slc.cpg/sg71_30_cif.got.tgz:58756.got - 2010.06.28 04:59:45.
