data_PCOD8292243
_publ_section_title
;
Structure prediction by ZEFSAII (Michael W. Deem and Ramdas Pophale) SiO2 
 PCOD8292243
Probable space group: I M M M
;
_chemical_formula_sum "Si O2"
_cell_formula_units_Z 104
_cell_length_a 9.116274
_cell_length_b 28.391389
_cell_length_c 32.624414
_cell_angle_alpha 90.000000
_cell_angle_beta 90.000000
_cell_angle_gamma 90.000000
_cell_volume 8443.970934
_symmetry_space_group_name_H-M "I M M M"
_symmetry_group_IT_number 71
_symmetry_cell_setting 'orthorhombic'
loop_
_space_group_symop_operation_xyz
x,y,z
-x,-y,z
x,-y,-z
-x,y,-z
-x,-y,-z
x,y,-z
-x,y,z
x,-y,z
1/2+x,1/2+y,1/2+z
1/2-x,1/2-y,1/2+z
1/2+x,1/2-y,1/2-z
1/2-x,1/2+y,1/2-z
1/2-x,1/2-y,1/2-z
1/2+x,1/2+y,1/2-z
1/2-x,1/2+y,1/2+z
1/2+x,1/2-y,1/2+z
loop_
_atom_site_type_symbol
_atom_site_label
_atom_site_fract_x
_atom_site_fract_y
_atom_site_fract_z
Si Si1 0.175321 0.410972 0.580977
Si Si2 0.161009 0.814833 0.725420
Si Si3 0.172792 0.500000 0.368154
Si Si4 0.660901 0.738480 0.689270
Si Si5 0.825119 0.500000 0.723703
Si Si6 0.174340 0.145936 0.146869
Si Si7 0.174912 0.055380 0.000000
Si Si8 0.825864 0.905657 0.229916
O O1 0.229294 0.454810 0.607868
O O2 0.236765 0.365786 0.605397
O O3 0.255033 0.416879 0.537866
O O4 0.000000 0.407922 0.575152
O O5 0.249601 0.787355 0.690062
O O6 0.151981 0.783185 0.765713
O O7 0.228042 0.865562 0.737956
O O8 0.000000 0.822705 0.707096
O O9 0.236246 0.500000 0.322630
O O10 0.000000 0.500000 0.365725
O O11 0.500000 0.752229 0.673732
O O12 0.726493 0.698816 0.658857
O O13 0.758836 0.547158 0.743766
O O14 0.000000 0.500000 0.727842
O O15 0.217392 0.110191 0.183735
O O16 0.000000 0.144157 0.139299
O O17 0.000000 0.060856 0.000000
O O18 0.220260 0.000000 0.000000
O O19 0.000000 0.912925 0.232898
#
# Coordination Sequence:
#
# PCOD8292243 Si02
#       8
#    16  16   8  16   8  16   8  16
#     4  11  20  32  45  56  71  88 109 142 179 214
#     4   8  14  24  36  50  68  88 112 136 162 201
#     4   9  18  28  38  53  70  84 105 141 179 209
#     4   8  14  24  37  52  70  88 107 133 166 201
#     4  11  19  27  36  52  71  90 117 146 176 211
#     4   9  17  28  40  55  72  89 110 137 170 212
#     4  11  23  35  45  57  69  87 115 141 173 220
#     4   9  17  27  37  50  69  93 115 139 172 207
#
# _framework density 12.31648
#
# number of rings (size 3 to 8) (size 9 to 14) (size 15 to 20)
#    0.000    2.692    2.308    2.769    0.000    1.538 
#    0.000    3.077    0.000    0.000    0.000    0.000 
#    0.000    0.000    0.000    0.000    0.000    0.000 
#
# Total GULP energy -644379.014116 kJ/mol
# GULP energy per Si atom -12391.904118 kJ/mol
# Density = 1.228845 g / cm^3
# Si number density = 12.316480 Si / 1000 Ang^3
#
#
#
# Elastic Constant Matrix: (Units=GPa)
#
#
# Indices 1 2 3 4 5 6 
#
# 1 53.4540 40.5335 25.3594 0.0000 0.0000 0.0000
# 2 40.5335 90.3808 39.8902 0.0000 0.0000 0.0000
# 3 25.3594 39.8902 41.8074 0.0000 0.0000 0.0000
# 4 0.0000 0.0000 0.0000 12.3349 0.0000 0.0000
# 5 0.0000 0.0000 0.0000 0.0000 15.2735 0.0000
# 6 0.0000 0.0000 0.0000 0.0000 0.0000 20.5402
#
#
#
# Elastic Compliance Matrix: (Units=1/GPa)
#
#
# Indices 1 2 3 4 5 6 
#
# 1 0.030330 -0.009471 -0.009361 0.000000 0.000000 0.000000
# 2 -0.009471 0.022070 -0.015314 0.000000 0.000000 0.000000
# 3 -0.009361 -0.015314 0.044209 0.000000 0.000000 0.000000
# 4 0.000000 0.000000 0.000000 0.081071 0.000000 0.000000
# 5 0.000000 0.000000 0.000000 0.000000 0.065473 0.000000
# 6 0.000000 0.000000 0.000000 0.000000 0.000000 0.048685
#
#
# Mechanical properties :
#
#
# Convention : Reuss Voigt Hill
#
# Bulk Modulus (GPa) = 35.31267 44.13427 39.72347
# Shear Modulus (GPa) = 13.52926 14.95364 14.24145
#
# Velocity S-wave (km/s) = 3.31791 3.48820 3.40412
# Velocity P-wave (km/s) = 6.58873 7.22043 6.91180
#
# Compressibility (1/GPa) = 0.02831845
#
# Stress axis : x y z
#
# Youngs Moduli (GPa) = 32.97028 45.30946 22.61989
#
# Poissons Ratio (x) = 0.42911 0.21175
# Poissons Ratio (y) = 0.31225 0.34639
# Poissons Ratio (z) = 0.30864 0.69385
#
# Static dielectric constant tensor:
#      x y z
#    x 2.593380 0.000000 0.000000 
#    y 0.000000 2.580770 0.000000 
#    z 0.000000 0.000000 2.259360 
# 
# 
# High freq. dielectric constant tensor:
#      x y z
#    x 1.471500 0.000000 0.000000 
#    y 0.000000 1.456640 0.000000 
#    z 0.000000 0.000000 1.415180 
# 
# From -- ./inp_files/63938.got.cif
#   From: 2010.06.25/outbox.cif.g09.slc.cpg/sg71_32_cif.got.tgz:63938.got - 2010.06.28 04:59:45.
