data_PCOD8292002
_publ_section_title
;
Structure prediction by ZEFSAII (Michael W. Deem and Ramdas Pophale) SiO2 
 PCOD8292002
Probable space group: I M M M
;
_chemical_formula_sum "Si O2"
_cell_formula_units_Z 80
_cell_length_a 23.868367
_cell_length_b 11.620493
_cell_length_c 14.201732
_cell_angle_alpha 90.000000
_cell_angle_beta 90.000000
_cell_angle_gamma 90.000000
_cell_volume 3939.023513
_symmetry_space_group_name_H-M "I M M M"
_symmetry_group_IT_number 71
_symmetry_cell_setting 'orthorhombic'
loop_
_space_group_symop_operation_xyz
x,y,z
-x,-y,z
x,-y,-z
-x,y,-z
-x,-y,-z
x,y,-z
-x,y,z
x,-y,z
1/2+x,1/2+y,1/2+z
1/2-x,1/2-y,1/2+z
1/2+x,1/2-y,1/2-z
1/2-x,1/2+y,1/2-z
1/2-x,1/2-y,1/2-z
1/2+x,1/2+y,1/2-z
1/2-x,1/2+y,1/2+z
1/2+x,1/2-y,1/2+z
loop_
_atom_site_type_symbol
_atom_site_label
_atom_site_fract_x
_atom_site_fract_y
_atom_site_fract_z
Si Si1 0.646580 0.750896 0.392436
Si Si2 0.241925 0.129561 0.388276
Si Si3 0.613935 0.500000 0.605190
Si Si4 0.623052 0.282385 0.888919
Si Si5 0.565217 0.865953 0.747667
Si Si6 0.936399 0.000000 0.699396
O O1 0.638360 0.789251 0.500000
O O2 0.702654 0.807539 0.349005
O O3 0.652753 0.612952 0.383300
O O4 0.591876 0.794513 0.337828
O O5 0.244371 0.122752 0.500000
O O6 0.187936 0.204360 0.358692
O O7 0.238067 0.000000 0.346548
O O8 0.585983 0.500000 0.500000
O O9 0.567434 0.500000 0.686852
O O10 0.597042 0.166818 0.844419
O O11 0.591139 0.389287 0.845530
O O12 0.614686 0.277636 0.000000
O O13 0.500000 0.832427 0.754996
O O14 0.573525 0.000000 0.728464
O O15 0.000000 0.000000 0.668843
#
# Coordination Sequence:
#
# PCOD8292002 Si02
#       6
#    16  16   8  16  16   8
#     4  10  21  40  65  92 124 162 198 246 310 367
#     4   9  18  36  62  91 124 157 200 253 301 359
#     4  10  22  40  61  94 132 159 195 247 304 366
#     4  11  23  41  63  91 123 160 206 257 307 357
#     4  11  25  43  61  88 123 159 208 257 300 366
#     4  12  23  39  64  93 123 160 205 249 302 370
#
# _framework density 20.309602999999999
#
# number of rings (size 3 to 8) (size 9 to 14) (size 15 to 20)
#    0.000    1.600    3.000    1.500    0.000    5.000 
#    1.800    4.000    0.000    0.000    0.000    0.000 
#    0.000    0.000    0.000    0.000    0.000    0.000 
#
# Total GULP energy -495993.949982 kJ/mol
# GULP energy per Si atom -12399.848750 kJ/mol
# Density = 2.026338 g / cm^3
# Si number density = 20.309603 Si / 1000 Ang^3
#
#
#
# Elastic Constant Matrix: (Units=GPa)
#
#
# Indices 1 2 3 4 5 6 
#
# 1 135.7241 59.7255 52.6400 0.0000 0.0000 0.0000
# 2 59.7255 114.5635 35.8056 0.0000 0.0000 0.0000
# 3 52.6400 35.8056 103.5155 0.0000 0.0000 0.0000
# 4 0.0000 0.0000 0.0000 32.5456 0.0000 0.0000
# 5 0.0000 0.0000 0.0000 0.0000 29.4869 0.0000
# 6 0.0000 0.0000 0.0000 0.0000 0.0000 383.5293
#
#
#
# Elastic Compliance Matrix: (Units=1/GPa)
#
#
# Indices 1 2 3 4 5 6 
#
# 1 0.010859 -0.004412 -0.003996 0.000000 0.000000 0.000000
# 2 -0.004412 0.011580 -0.001762 0.000000 0.000000 0.000000
# 3 -0.003996 -0.001762 0.012302 0.000000 0.000000 0.000000
# 4 0.000000 0.000000 0.000000 0.030726 0.000000 0.000000
# 5 0.000000 0.000000 0.000000 0.000000 0.033913 0.000000
# 6 0.000000 0.000000 0.000000 0.000000 0.000000 0.002607
#
#
# Mechanical properties :
#
#
# Convention : Reuss Voigt Hill
#
# Bulk Modulus (GPa) = 69.44023 72.23835 70.83929
# Shear Modulus (GPa) = 39.33044 102.82116 71.07580
#
# Velocity S-wave (km/s) = 4.40539 7.12298 5.92217
# Velocity P-wave (km/s) = 7.75511 10.16341 9.03982
#
# Compressibility (1/GPa) = 0.01440087
#
# Stress axis : x y z
#
# Youngs Moduli (GPa) = 92.08585 86.35818 81.28916
#
# Poissons Ratio (x) = 0.38105 0.32483
# Poissons Ratio (y) = 0.40632 0.14319
# Poissons Ratio (z) = 0.36798 0.15212
#
# Static dielectric constant tensor:
#      x y z
#    x 3.812450 0.000000 0.000000 
#    y 0.000000 3.769120 0.000000 
#    z 0.000000 0.000000 3.733520 
# 
# 
# High freq. dielectric constant tensor:
#      x y z
#    x 1.792200 0.000000 0.000000 
#    y 0.000000 1.799020 0.000000 
#    z 0.000000 0.000000 1.792640 
# 
# From -- ./inp_files/38973.got.cif
#   From: 2010.06.25/outbox.cif.g09.slc.cpg/sg71_20_cif.got.tgz:38973.got - 2010.06.28 04:59:45.
