data_PCOD8292565
_publ_section_title
;
Structure prediction by ZEFSAII (Michael W. Deem and Ramdas Pophale) SiO2 
 PCOD8292565
Probable space group: I M M M
;
_chemical_formula_sum "Si O2"
_cell_formula_units_Z 72
_cell_length_a 32.451944
_cell_length_b 7.817950
_cell_length_c 13.582855
_cell_angle_alpha 90.000000
_cell_angle_beta 90.000000
_cell_angle_gamma 90.000000
_cell_volume 3446.074570
_symmetry_space_group_name_H-M "I M M M"
_symmetry_group_IT_number 71
_symmetry_cell_setting 'orthorhombic'
loop_
_space_group_symop_operation_xyz
x,y,z
-x,-y,z
x,-y,-z
-x,y,-z
-x,-y,-z
x,y,-z
-x,y,z
x,-y,z
1/2+x,1/2+y,1/2+z
1/2-x,1/2-y,1/2+z
1/2+x,1/2-y,1/2-z
1/2-x,1/2+y,1/2-z
1/2-x,1/2-y,1/2-z
1/2+x,1/2+y,1/2-z
1/2-x,1/2+y,1/2+z
1/2+x,1/2-y,1/2+z
loop_
_atom_site_type_symbol
_atom_site_label
_atom_site_fract_x
_atom_site_fract_y
_atom_site_fract_z
Si Si1 0.861612 0.500000 0.614592
Si Si2 0.769949 0.500000 0.617748
Si Si3 0.913957 0.195069 0.697944
Si Si4 0.283062 0.187114 0.382680
Si Si5 0.871321 0.197837 0.891540
Si Si6 0.000000 0.297383 0.385901
O O1 0.855048 0.500000 0.500000
O O2 0.816075 0.500000 0.662400
O O3 0.885988 0.327729 0.639331
O O4 0.769097 0.500000 0.500000
O O5 0.747368 0.331316 0.660594
O O6 0.908463 0.231414 0.814885
O O7 0.961120 0.219223 0.669437
O O8 0.900344 0.000000 0.672829
O O9 0.282161 0.198018 0.500000
O O10 0.330393 0.212020 0.349362
O O11 0.268088 0.000000 0.345472
O O12 0.860222 0.000000 0.900174
O O13 0.884199 0.268389 0.000000
O O14 0.000000 0.500000 0.376599
O O15 0.000000 0.240792 0.500000
#
# Coordination Sequence:
#
# PCOD8292565 Si02
#       6
#     8   8  16  16  16   8
#     4  11  24  41  61  86 122 164 204 262 320 357
#     4   9  18  34  53  79 118 159 203 253 306 357
#     4  11  24  41  65  94 125 154 204 255 303 368
#     4   9  16  28  53  83 111 157 210 246 289 358
#     4   9  18  36  62  90 124 164 203 246 302 361
#     4  11  23  43  70  94 120 162 203 246 305 364
#
# _framework density 20.893339000000001
#
# number of rings (size 3 to 8) (size 9 to 14) (size 15 to 20)
#    0.000    2.111    2.222    1.000    1.556    3.111 
#    0.000    3.889    0.000    3.333    0.000    0.000 
#    0.000    0.000    0.000    0.000    0.000    0.000 
#
# Total GULP energy -446329.267471 kJ/mol
# GULP energy per Si atom -12398.035208 kJ/mol
# Density = 2.084578 g / cm^3
# Si number density = 20.893339 Si / 1000 Ang^3
#
#
#
# Elastic Constant Matrix: (Units=GPa)
#
#
# Indices 1 2 3 4 5 6 
#
# 1 159.6324 70.3074 60.8428 0.0000 0.0000 0.0000
# 2 70.3074 138.7815 42.4481 0.0000 0.0000 0.0000
# 3 60.8428 42.4481 66.2018 0.0000 0.0000 0.0000
# 4 0.0000 0.0000 0.0000 28.0948 0.0000 0.0000
# 5 0.0000 0.0000 0.0000 0.0000 7.9217 0.0000
# 6 0.0000 0.0000 0.0000 0.0000 0.0000 18.4971
#
#
#
# Elastic Compliance Matrix: (Units=1/GPa)
#
#
# Indices 1 2 3 4 5 6 
#
# 1 0.010533 -0.002955 -0.007786 0.000000 0.000000 0.000000
# 2 -0.002955 0.009792 -0.003563 0.000000 0.000000 0.000000
# 3 -0.007786 -0.003563 0.024546 0.000000 0.000000 0.000000
# 4 0.000000 0.000000 0.000000 0.035594 0.000000 0.000000
# 5 0.000000 0.000000 0.000000 0.000000 0.126235 0.000000
# 6 0.000000 0.000000 0.000000 0.000000 0.000000 0.054063
#
#
# Mechanical properties :
#
#
# Convention : Reuss Voigt Hill
#
# Bulk Modulus (GPa) = 61.48780 79.09027 70.28903
# Shear Modulus (GPa) = 16.96111 23.63723 20.29917
#
# Velocity S-wave (km/s) = 2.85229 3.36717 3.12037
# Velocity P-wave (km/s) = 6.35143 7.28379 6.83353
#
# Compressibility (1/GPa) = 0.01626339
#
# Stress axis : x y z
#
# Youngs Moduli (GPa) = 94.93599 102.12077 40.74008
#
# Poissons Ratio (x) = 0.30175 0.31721
# Poissons Ratio (y) = 0.28052 0.14516
# Poissons Ratio (z) = 0.73918 0.36387
#
# Static dielectric constant tensor:
#      x y z
#    x 3.712790 0.000000 0.000000 
#    y 0.000000 4.036670 0.000000 
#    z 0.000000 0.000000 3.819540 
# 
# 
# High freq. dielectric constant tensor:
#      x y z
#    x 1.798590 0.000000 0.000000 
#    y 0.000000 1.833130 0.000000 
#    z 0.000000 0.000000 1.822750 
# 
# From -- ./inp_files/40707.got.cif
#   From: 2010.06.25/outbox.cif.g09.slc.cpg/sg71_21_cif.got.tgz:40707.got - 2010.06.28 04:59:45.
