data_PCOD8292201
_publ_section_title
;
Structure prediction by ZEFSAII (Michael W. Deem and Ramdas Pophale) SiO2 
 PCOD8292201
Probable space group: I M M M
;
_chemical_formula_sum "Si O2"
_cell_formula_units_Z 72
_cell_length_a 22.438121
_cell_length_b 8.736196
_cell_length_c 18.835848
_cell_angle_alpha 90.000000
_cell_angle_beta 90.000000
_cell_angle_gamma 90.000000
_cell_volume 3692.274933
_symmetry_space_group_name_H-M "I M M M"
_symmetry_group_IT_number 71
_symmetry_cell_setting 'orthorhombic'
loop_
_space_group_symop_operation_xyz
x,y,z
-x,-y,z
x,-y,-z
-x,y,-z
-x,-y,-z
x,y,-z
-x,y,z
x,-y,z
1/2+x,1/2+y,1/2+z
1/2-x,1/2-y,1/2+z
1/2+x,1/2-y,1/2-z
1/2-x,1/2+y,1/2-z
1/2-x,1/2-y,1/2-z
1/2+x,1/2+y,1/2-z
1/2-x,1/2+y,1/2+z
1/2+x,1/2-y,1/2+z
loop_
_atom_site_type_symbol
_atom_site_label
_atom_site_fract_x
_atom_site_fract_y
_atom_site_fract_z
Si Si1 0.768454 0.679063 0.324435
Si Si2 0.000000 0.677622 0.416647
Si Si3 0.844440 0.177408 0.918259
Si Si4 0.068964 0.676904 0.813152
Si Si5 0.392663 0.319674 0.831774
O O1 0.778358 0.500000 0.313477
O O2 0.750000 0.750000 0.250000
O O3 0.718296 0.716054 0.382071
O O4 0.828834 0.753222 0.353975
O O5 0.058593 0.751928 0.384266
O O6 0.000000 0.500000 0.396524
O O7 0.000000 0.706704 0.500000
O O8 0.896580 0.278961 0.884527
O O9 0.860932 0.000000 0.908214
O O10 0.839122 0.223568 0.000000
O O11 0.079741 0.500000 0.794262
O O12 0.093626 0.778989 0.749399
O O13 0.000000 0.712722 0.825798
O O14 0.391902 0.500000 0.840242
#
# Coordination Sequence:
#
# PCOD8292201 Si02
#       5
#    16   8  16  16  16
#     4  11  22  38  63  93 126 164 211 260 311 372
#     4  11  25  45  67  93 128 167 208 261 321 375
#     4  10  23  42  63  90 125 164 207 258 317 375
#     4  11  23  39  63  92 124 163 210 258 309 372
#     4  12  24  39  64  95 127 165 210 259 312 373
#
# _framework density 19.500171999999999
#
# number of rings (size 3 to 8) (size 9 to 14) (size 15 to 20)
#    0.000    1.000    3.333    3.667    0.000    4.889 
#    0.000    4.444    0.000    0.000    0.000    0.000 
#    0.000    0.000    0.000    0.000    0.000    0.000 
#
# Total GULP energy -446660.812606 kJ/mol
# GULP energy per Si atom -12407.244795 kJ/mol
# Density = 1.945579 g / cm^3
# Si number density = 19.500172 Si / 1000 Ang^3
#
#
#
# Elastic Constant Matrix: (Units=GPa)
#
#
# Indices 1 2 3 4 5 6 
#
# 1 136.4505 51.0657 46.1173 0.0000 0.0000 0.0000
# 2 51.0657 99.3469 49.4434 0.0000 0.0000 0.0000
# 3 46.1173 49.4434 105.0884 0.0000 0.0000 0.0000
# 4 0.0000 0.0000 0.0000 32.2454 0.0000 0.0000
# 5 0.0000 0.0000 0.0000 0.0000 36.3819 0.0000
# 6 0.0000 0.0000 0.0000 0.0000 0.0000 38.5718
#
#
#
# Elastic Compliance Matrix: (Units=1/GPa)
#
#
# Indices 1 2 3 4 5 6 
#
# 1 0.009535 -0.003680 -0.002453 0.000000 0.000000 0.000000
# 2 -0.003680 0.014564 -0.005237 0.000000 0.000000 0.000000
# 3 -0.002453 -0.005237 0.013056 0.000000 0.000000 0.000000
# 4 0.000000 0.000000 0.000000 0.031012 0.000000 0.000000
# 5 0.000000 0.000000 0.000000 0.000000 0.027486 0.000000
# 6 0.000000 0.000000 0.000000 0.000000 0.000000 0.025926
#
#
# Mechanical properties :
#
#
# Convention : Reuss Voigt Hill
#
# Bulk Modulus (GPa) = 69.37426 70.45986 69.91706
# Shear Modulus (GPa) = 33.52898 34.39045 33.95972
#
# Velocity S-wave (km/s) = 4.15109 4.20408 4.17767
# Velocity P-wave (km/s) = 7.65695 7.73156 7.69434
#
# Compressibility (1/GPa) = 0.01441457
#
# Stress axis : x y z
#
# Youngs Moduli (GPa) = 104.87649 68.66259 76.59192
#
# Poissons Ratio (x) = 0.25271 0.18786
# Poissons Ratio (y) = 0.38599 0.40112
# Poissons Ratio (z) = 0.25724 0.35959
#
# Static dielectric constant tensor:
#      x y z
#    x 3.662680 0.000000 0.000000 
#    y 0.000000 3.683630 0.000000 
#    z 0.000000 0.000000 3.522490 
# 
# 
# High freq. dielectric constant tensor:
#      x y z
#    x 1.778880 0.000000 0.000000 
#    y 0.000000 1.771570 0.000000 
#    z 0.000000 0.000000 1.755950 
# 
# From -- ./inp_files/47921.got.cif
#   From: 2010.06.25/outbox.cif.g09.slc.cpg/sg71_24_cif.got.tgz:47921.got - 2010.06.28 04:59:45.
