data_PCOD8292927
_publ_section_title
;
Structure prediction by ZEFSAII (Michael W. Deem and Ramdas Pophale) SiO2 
 PCOD8292927
Probable space group: I B A M
;
_chemical_formula_sum "Si O2"
_cell_formula_units_Z 88
_cell_length_a 26.501262
_cell_length_b 10.338271
_cell_length_c 12.833132
_cell_angle_alpha 90.000000
_cell_angle_beta 90.000000
_cell_angle_gamma 90.000000
_cell_volume 3515.985937
_symmetry_space_group_name_H-M "I B A M"
_symmetry_group_IT_number 72
_symmetry_cell_setting 'orthorhombic'
loop_
_space_group_symop_operation_xyz
x,y,z
-x,-y,z
x,-y,1/2-z
-x,y,1/2-z
-x,-y,-z
x,y,-z
-x,y,1/2+z
x,-y,1/2+z
1/2+x,1/2+y,1/2+z
1/2-x,1/2-y,1/2+z
1/2+x,1/2-y,-z
1/2-x,1/2+y,-z
1/2-x,1/2-y,1/2-z
1/2+x,1/2+y,1/2-z
1/2-x,1/2+y,z
1/2+x,1/2-y,z
loop_
_atom_site_type_symbol
_atom_site_label
_atom_site_fract_x
_atom_site_fract_y
_atom_site_fract_z
Si Si1 0.231659 0.158144 0.374861
Si Si2 0.411028 0.135506 0.880250
Si Si3 0.541817 0.395932 0.122462
Si Si4 0.300392 0.932038 0.624335
Si Si5 0.500000 0.170603 0.250000
Si Si6 0.624078 0.417767 0.621087
O O1 0.232569 0.153307 0.500000
O O2 0.234111 0.308748 0.337715
O O3 0.179442 0.099243 0.329654
O O4 0.277598 0.067790 0.331890
O O5 0.358230 0.077732 0.837493
O O6 0.459351 0.083305 0.814467
O O7 0.410898 0.290833 0.865184
O O8 0.418923 0.095972 0.000000
O O9 0.500000 0.500000 0.155222
O O10 0.532766 0.256890 0.171210
O O11 0.595337 0.454467 0.164567
O O12 0.542751 0.375724 0.000000
O O13 0.300263 0.928043 0.500000
O O14 0.632526 0.440159 0.500000
#
# Coordination Sequence:
#
# PCOD8292927 Si02
#       6
#    16  16  16  16   8  16
#     4   8  13  23  41  63  90 127 164 201 249 305
#     4   9  17  27  38  59  93 128 161 203 250 301
#     4  10  18  26  36  56  87 121 157 199 245 302
#     4   8  14  25  42  65  95 130 166 205 253 305
#     4  12  19  24  40  60  86 129 168 191 248 317
#     4   8  14  24  36  54  84 120 153 189 238 293
#
# _framework density 25.028542999999999
#
# number of rings (size 3 to 8) (size 9 to 14) (size 15 to 20)
#    0.000    3.091    1.818    3.000    0.000    0.000 
#    0.000    0.000    0.000    1.091    0.000    0.000 
#    0.000    8.727    0.000   37.455    0.000    2.909 
#
# Total GULP energy -545352.886966 kJ/mol
# GULP energy per Si atom -12394.383795 kJ/mol
# Density = 2.497158 g / cm^3
# Si number density = 25.028543 Si / 1000 Ang^3
#
#
#
# Elastic Constant Matrix: (Units=GPa)
#
#
# Indices 1 2 3 4 5 6 
#
# 1 173.0558 69.5402 30.2956 0.0000 0.0000 0.0000
# 2 69.5402 108.6299 39.1134 0.0000 0.0000 0.0000
# 3 30.2956 39.1134 53.5757 0.0000 0.0000 0.0000
# 4 0.0000 0.0000 0.0000 31.1442 0.0000 0.0000
# 5 0.0000 0.0000 0.0000 0.0000 12.4731 0.0000
# 6 0.0000 0.0000 0.0000 0.0000 0.0000 22.8519
#
#
#
# Elastic Compliance Matrix: (Units=1/GPa)
#
#
# Indices 1 2 3 4 5 6 
#
# 1 0.007822 -0.004633 -0.001041 0.000000 0.000000 0.000000
# 2 -0.004633 0.015232 -0.008501 0.000000 0.000000 0.000000
# 3 -0.001041 -0.008501 0.025460 0.000000 0.000000 0.000000
# 4 0.000000 0.000000 0.000000 0.032109 0.000000 0.000000
# 5 0.000000 0.000000 0.000000 0.000000 0.080173 0.000000
# 6 0.000000 0.000000 0.000000 0.000000 0.000000 0.043760
#
#
# Mechanical properties :
#
#
# Convention : Reuss Voigt Hill
#
# Bulk Modulus (GPa) = 49.59020 68.12888 58.85954
# Shear Modulus (GPa) = 20.86584 26.38131 23.62358
#
# Velocity S-wave (km/s) = 2.89049 3.25013 3.07557
# Velocity P-wave (km/s) = 5.56744 6.43149 6.01500
#
# Compressibility (1/GPa) = 0.02016528
#
# Stress axis : x y z
#
# Youngs Moduli (GPa) = 127.83932 65.65170 39.27749
#
# Poissons Ratio (x) = 0.30414 0.04090
# Poissons Ratio (y) = 0.59223 0.33388
# Poissons Ratio (z) = 0.13311 0.55808
#
# Static dielectric constant tensor:
#      x y z
#    x 4.713900 0.000000 0.000000 
#    y 0.000000 4.351910 0.000000 
#    z 0.000000 0.000000 4.420380 
# 
# 
# High freq. dielectric constant tensor:
#      x y z
#    x 1.991310 0.000000 0.000000 
#    y 0.000000 1.972220 0.000000 
#    z 0.000000 0.000000 2.017140 
# 
# From -- ./inp_files/25010.got.cif
#   From: 2010.03.12/outbox.cif.g09.slc.cpg/sg72_13_cif.got.tgz:25010.got - 2010.04.16 14:54:00.
