data_PCOD8292969
_publ_section_title
;
Structure prediction by ZEFSAII (Michael W. Deem and Ramdas Pophale) SiO2 
 PCOD8292969
Probable space group: I B A M
;
_chemical_formula_sum "Si O2"
_cell_formula_units_Z 80
_cell_length_a 23.908914
_cell_length_b 23.498421
_cell_length_c 9.179434
_cell_angle_alpha 90.000000
_cell_angle_beta 90.000000
_cell_angle_gamma 90.000000
_cell_volume 5157.205461
_symmetry_space_group_name_H-M "I B A M"
_symmetry_group_IT_number 72
_symmetry_cell_setting 'orthorhombic'
loop_
_space_group_symop_operation_xyz
x,y,z
-x,-y,z
x,-y,1/2-z
-x,y,1/2-z
-x,-y,-z
x,y,-z
-x,y,1/2+z
x,-y,1/2+z
1/2+x,1/2+y,1/2+z
1/2-x,1/2-y,1/2+z
1/2+x,1/2-y,-z
1/2-x,1/2+y,-z
1/2-x,1/2-y,1/2-z
1/2+x,1/2+y,1/2-z
1/2-x,1/2+y,z
1/2+x,1/2-y,z
loop_
_atom_site_type_symbol
_atom_site_label
_atom_site_fract_x
_atom_site_fract_y
_atom_site_fract_z
Si Si1 0.944244 0.746271 0.329701
Si Si2 0.227879 0.670085 0.166280
Si Si3 0.163284 0.765516 0.667741
Si Si4 0.945104 0.613516 0.669137
Si Si5 0.168765 0.556947 0.830715
O O1 0.948769 0.759880 0.500000
O O2 0.891839 0.779878 0.260919
O O3 0.934822 0.679730 0.297369
O O4 0.000000 0.768130 0.250000
O O5 0.192419 0.708342 0.275527
O O6 0.293897 0.681741 0.185797
O O7 0.216014 0.604247 0.201921
O O8 0.208632 0.684148 0.000000
O O9 0.146522 0.756041 0.500000
O O10 0.955062 0.603388 0.500000
O O11 0.891339 0.579178 0.726629
O O12 0.000000 0.590305 0.750000
O O13 0.187041 0.500000 0.750000
O O14 0.164851 0.543165 0.000000
#
# Coordination Sequence:
#
# PCOD8292969 Si02
#       5
#    16  16  16  16  16
#     4  10  18  30  46  66  94 122 149 185 227 270
#     4   9  18  33  47  63  91 120 149 187 231 273
#     4  10  18  28  48  71  89 116 151 185 226 277
#     4   9  18  31  45  59  83 116 151 189 228 261
#     4  10  20  34  47  62  86 118 153 194 233 265
#
# _framework density 15.512278
#
# number of rings (size 3 to 8) (size 9 to 14) (size 15 to 20)
#    0.000    2.400    2.000    1.200    0.000    3.600 
#    0.000    2.000    0.000    0.000    0.000    0.000 
#    0.000    0.800    0.000    9.200    0.000    2.800 
#
# Total GULP energy -496031.768297 kJ/mol
# GULP energy per Si atom -12400.794207 kJ/mol
# Density = 1.547697 g / cm^3
# Si number density = 15.512278 Si / 1000 Ang^3
#
#
#
# Elastic Constant Matrix: (Units=GPa)
#
#
# Indices 1 2 3 4 5 6 
#
# 1 111.5300 49.8398 58.5938 0.0000 0.0000 0.0000
# 2 49.8398 70.2570 34.1131 0.0000 0.0000 0.0000
# 3 58.5938 34.1131 80.3422 0.0000 0.0000 0.0000
# 4 0.0000 0.0000 0.0000 20.2113 0.0000 0.0000
# 5 0.0000 0.0000 0.0000 0.0000 29.3805 0.0000
# 6 0.0000 0.0000 0.0000 0.0000 0.0000 20.6444
#
#
#
# Elastic Compliance Matrix: (Units=1/GPa)
#
#
# Indices 1 2 3 4 5 6 
#
# 1 0.017353 -0.007766 -0.009358 0.000000 0.000000 0.000000
# 2 -0.007766 0.021406 -0.003425 0.000000 0.000000 0.000000
# 3 -0.009358 -0.003425 0.020726 0.000000 0.000000 0.000000
# 4 0.000000 0.000000 0.000000 0.049477 0.000000 0.000000
# 5 0.000000 0.000000 0.000000 0.000000 0.034036 0.000000
# 6 0.000000 0.000000 0.000000 0.000000 0.000000 0.048439
#
#
# Mechanical properties :
#
#
# Convention : Reuss Voigt Hill
#
# Bulk Modulus (GPa) = 54.38878 60.80252 57.59565
# Shear Modulus (GPa) = 20.94986 22.01940 21.48463
#
# Velocity S-wave (km/s) = 3.67895 3.77169 3.72561
# Velocity P-wave (km/s) = 7.29274 7.63210 7.46435
#
# Compressibility (1/GPa) = 0.01838615
#
# Stress axis : x y z
#
# Youngs Moduli (GPa) = 57.62610 46.71632 48.24900
#
# Poissons Ratio (x) = 0.36282 0.45152
# Poissons Ratio (y) = 0.44755 0.16524
# Poissons Ratio (z) = 0.53927 0.15999
#
# Static dielectric constant tensor:
#      x y z
#    x 3.119580 0.000000 0.000000 
#    y 0.000000 2.670370 0.000000 
#    z 0.000000 0.000000 3.011530 
# 
# 
# High freq. dielectric constant tensor:
#      x y z
#    x 1.596340 0.000000 0.000000 
#    y 0.000000 1.548130 0.000000 
#    z 0.000000 0.000000 1.604430 
# 
# From -- ./inp_files/4764.got.cif
#   From: 2010.03.12/outbox.cif.g09.slc.cpg/sg72_3_cif.got.tgz:4764.got - 2010.04.16 14:54:00.
