data_PCOD8292566
_publ_section_title
;
Structure prediction by ZEFSAII (Michael W. Deem and Ramdas Pophale) SiO2 
 PCOD8292566
Probable space group: I M M M
;
_chemical_formula_sum "Si O2"
_cell_formula_units_Z 88
_cell_length_a 14.403969
_cell_length_b 19.080711
_cell_length_c 17.331534
_cell_angle_alpha 90.000000
_cell_angle_beta 90.000000
_cell_angle_gamma 90.000000
_cell_volume 4763.363617
_symmetry_space_group_name_H-M "I M M M"
_symmetry_group_IT_number 71
_symmetry_cell_setting 'orthorhombic'
loop_
_space_group_symop_operation_xyz
x,y,z
-x,-y,z
x,-y,-z
-x,y,-z
-x,-y,-z
x,y,-z
-x,y,z
x,-y,z
1/2+x,1/2+y,1/2+z
1/2-x,1/2-y,1/2+z
1/2+x,1/2-y,1/2-z
1/2-x,1/2+y,1/2-z
1/2-x,1/2-y,1/2-z
1/2+x,1/2+y,1/2-z
1/2-x,1/2+y,1/2+z
1/2+x,1/2-y,1/2+z
loop_
_atom_site_type_symbol
_atom_site_label
_atom_site_fract_x
_atom_site_fract_y
_atom_site_fract_z
Si Si1 0.000000 0.919814 0.585947
Si Si2 0.192600 0.835236 0.139461
Si Si3 0.500000 0.922921 0.412879
Si Si4 0.851756 0.150600 0.685508
Si Si5 0.892651 0.082491 0.000000
Si Si6 0.101520 0.307807 0.325635
Si Si7 0.851595 0.323593 0.847389
O O1 0.089005 0.905499 0.639280
O O2 0.000000 0.882092 0.500000
O O3 0.000000 0.000000 0.566741
O O4 0.153355 0.860928 0.222076
O O5 0.154748 0.887322 0.075960
O O6 0.305857 0.839428 0.134586
O O7 0.154972 0.756757 0.122837
O O8 0.500000 0.944479 0.500000
O O9 0.410517 0.874718 0.400006
O O10 0.500000 0.000000 0.368700
O O11 0.896738 0.224779 0.665557
O O12 0.749756 0.143970 0.651918
O O13 0.000000 0.103559 0.000000
O O14 0.877746 0.000000 0.000000
O O15 0.102908 0.326814 0.236254
O O16 0.000000 0.334054 0.358898
#
# Coordination Sequence:
#
# PCOD8292566 Si02
#       7
#     8  16   8  16   8  16  16
#     4  11  24  37  52  79 115 154 193 237 291 350
#     4   9  21  36  61  91 112 150 194 238 290 341
#     4  11  24  35  48  80 120 154 189 234 286 338
#     4   9  19  37  58  85 113 146 193 241 285 336
#     4  11  26  42  57  87 127 151 185 242 291 347
#     4   9  15  34  63  88 112 137 187 253 284 322
#     4   9  19  35  59  84 112 147 196 239 279 337
#
# _framework density 18.474340000000002
#
# number of rings (size 3 to 8) (size 9 to 14) (size 15 to 20)
#    0.000    2.455    1.818    2.182    3.818    2.182 
#    4.909    5.000    0.000    0.545    0.000    0.000 
#    0.000    0.000    0.000    0.000    0.000    0.000 
#
# Total GULP energy -545098.765108 kJ/mol
# GULP energy per Si atom -12388.608298 kJ/mol
# Density = 1.843229 g / cm^3
# Si number density = 18.474340 Si / 1000 Ang^3
#
#
#
# Elastic Constant Matrix: (Units=GPa)
#
#
# Indices 1 2 3 4 5 6 
#
# 1 165.2833 55.2409 59.5251 0.0000 0.0000 0.0000
# 2 55.2409 73.0913 46.5622 0.0000 0.0000 0.0000
# 3 59.5251 46.5622 91.5511 0.0000 0.0000 0.0000
# 4 0.0000 0.0000 0.0000 20.1064 0.0000 0.0000
# 5 0.0000 0.0000 0.0000 0.0000 47.4585 0.0000
# 6 0.0000 0.0000 0.0000 0.0000 0.0000 21.2464
#
#
#
# Elastic Compliance Matrix: (Units=1/GPa)
#
#
# Indices 1 2 3 4 5 6 
#
# 1 0.008775 -0.004434 -0.003450 0.000000 0.000000 0.000000
# 2 -0.004434 0.022479 -0.008550 0.000000 0.000000 0.000000
# 3 -0.003450 -0.008550 0.017514 0.000000 0.000000 0.000000
# 4 0.000000 0.000000 0.000000 0.049735 0.000000 0.000000
# 5 0.000000 0.000000 0.000000 0.000000 0.021071 0.000000
# 6 0.000000 0.000000 0.000000 0.000000 0.000000 0.047067
#
#
# Mechanical properties :
#
#
# Convention : Reuss Voigt Hill
#
# Bulk Modulus (GPa) = 62.89085 72.50910 67.69998
# Shear Modulus (GPa) = 24.41292 29.00208 26.70750
#
# Velocity S-wave (km/s) = 3.63912 3.96644 3.80630
# Velocity P-wave (km/s) = 7.19540 7.76599 7.48613
#
# Compressibility (1/GPa) = 0.01590056
#
# Stress axis : x y z
#
# Youngs Moduli (GPa) = 113.96526 44.48561 57.09558
#
# Poissons Ratio (x) = 0.19724 0.19699
# Poissons Ratio (y) = 0.50530 0.48816
# Poissons Ratio (z) = 0.39319 0.38035
#
# Static dielectric constant tensor:
#      x y z
#    x 3.940180 0.000000 0.000000 
#    y 0.000000 3.159660 0.000000 
#    z 0.000000 0.000000 3.260840 
# 
# 
# High freq. dielectric constant tensor:
#      x y z
#    x 1.737620 0.000000 0.000000 
#    y 0.000000 1.692620 0.000000 
#    z 0.000000 0.000000 1.700610 
# 
# From -- ./inp_files/44753.got.cif
#   From: 2010.06.25/outbox.cif.g09.slc.cpg/sg71_23_cif.got.tgz:44753.got - 2010.06.28 04:59:45.
