data_PCOD8292742
_publ_section_title
;
Structure prediction by ZEFSAII (Michael W. Deem and Ramdas Pophale) SiO2 
 PCOD8292742
Probable space group: I M M M
;
_chemical_formula_sum "Si O2"
_cell_formula_units_Z 104
_cell_length_a 27.916422
_cell_length_b 9.763658
_cell_length_c 21.816653
_cell_angle_alpha 90.000000
_cell_angle_beta 90.000000
_cell_angle_gamma 90.000000
_cell_volume 5946.486503
_symmetry_space_group_name_H-M "I M M M"
_symmetry_group_IT_number 71
_symmetry_cell_setting 'orthorhombic'
loop_
_space_group_symop_operation_xyz
x,y,z
-x,-y,z
x,-y,-z
-x,y,-z
-x,-y,-z
x,y,-z
-x,y,z
x,-y,z
1/2+x,1/2+y,1/2+z
1/2-x,1/2-y,1/2+z
1/2+x,1/2-y,1/2-z
1/2-x,1/2+y,1/2-z
1/2-x,1/2-y,1/2-z
1/2+x,1/2+y,1/2-z
1/2-x,1/2+y,1/2+z
1/2+x,1/2-y,1/2+z
loop_
_atom_site_type_symbol
_atom_site_label
_atom_site_fract_x
_atom_site_fract_y
_atom_site_fract_z
Si Si1 0.410420 0.339897 0.728960
Si Si2 0.445829 0.350382 0.398704
Si Si3 0.306392 0.345404 0.295831
Si Si4 0.230057 0.845472 0.342063
Si Si5 0.557300 0.847908 0.500000
Si Si6 0.946438 0.836615 0.357816
Si Si7 0.854843 0.837235 0.430781
O O1 0.402898 0.500000 0.741705
O O2 0.445731 0.308503 0.672670
O O3 0.359114 0.278682 0.709032
O O4 0.432318 0.275658 0.790889
O O5 0.500000 0.364950 0.420657
O O6 0.420442 0.500000 0.407565
O O7 0.422158 0.233355 0.440744
O O8 0.306985 0.500000 0.322184
O O9 0.275937 0.254508 0.343995
O O10 0.286958 0.345736 0.227338
O O11 0.188480 0.786742 0.387015
O O12 0.244358 0.000000 0.362183
O O13 0.500000 0.859010 0.500000
O O14 0.579642 0.000000 0.500000
O O15 0.906418 0.783476 0.405888
O O16 0.000000 0.783714 0.375674
O O17 0.947055 0.000000 0.355755
O O18 0.847408 0.781604 0.500000
O O19 0.855653 0.000000 0.429830
#
# Coordination Sequence:
#
# PCOD8292742 Si02
#       7
#    16  16  16  16   8  16  16
#     4   9  15  25  41  64  91 117 146 186 236 275
#     4   9  16  26  43  65  85 110 148 186 219 266
#     4   9  16  27  46  67  88 113 144 185 230 273
#     4   9  16  28  45  66  90 116 148 185 225 268
#     4   9  17  29  43  59  83 115 147 179 217 261
#     4   9  15  23  37  61  95 128 157 191 228 270
#     4   9  16  26  41  62  91 128 162 189 227 279
#
# _framework density 17.489318000000001
#
# number of rings (size 3 to 8) (size 9 to 14) (size 15 to 20)
#    0.000    3.000    1.538    0.692    0.000    3.077 
#    0.000    2.308    1.692    0.462    0.000    0.000 
#    0.000    1.846    0.000    1.385    0.000    1.538 
#
# Total GULP energy -644237.112245 kJ/mol
# GULP energy per Si atom -12389.175235 kJ/mol
# Density = 1.744951 g / cm^3
# Si number density = 17.489318 Si / 1000 Ang^3
#
#
#
# Elastic Constant Matrix: (Units=GPa)
#
#
# Indices 1 2 3 4 5 6 
#
# 1 98.2549 18.6034 31.2833 0.0000 0.0000 0.0000
# 2 18.6034 47.5450 23.7384 0.0000 0.0000 0.0000
# 3 31.2833 23.7384 87.4097 0.0000 0.0000 0.0000
# 4 0.0000 0.0000 0.0000 9.4557 0.0000 0.0000
# 5 0.0000 0.0000 0.0000 0.0000 25.1272 0.0000
# 6 0.0000 0.0000 0.0000 0.0000 0.0000 16.0540
#
#
#
# Elastic Compliance Matrix: (Units=1/GPa)
#
#
# Indices 1 2 3 4 5 6 
#
# 1 0.011824 -0.002908 -0.003442 0.000000 0.000000 0.000000
# 2 -0.002908 0.025047 -0.005761 0.000000 0.000000 0.000000
# 3 -0.003442 -0.005761 0.014237 0.000000 0.000000 0.000000
# 4 0.000000 0.000000 0.000000 0.105757 0.000000 0.000000
# 5 0.000000 0.000000 0.000000 0.000000 0.039798 0.000000
# 6 0.000000 0.000000 0.000000 0.000000 0.000000 0.062290
#
#
# Mechanical properties :
#
#
# Convention : Reuss Voigt Hill
#
# Bulk Modulus (GPa) = 37.19514 42.27330 39.73422
# Shear Modulus (GPa) = 17.11529 20.76635 18.94082
#
# Velocity S-wave (km/s) = 3.13167 3.44957 3.29446
# Velocity P-wave (km/s) = 5.86430 6.33162 6.10244
#
# Compressibility (1/GPa) = 0.02688524
#
# Stress axis : x y z
#
# Youngs Moduli (GPa) = 84.57296 39.92474 70.23990
#
# Poissons Ratio (x) = 0.11610 0.24177
# Poissons Ratio (y) = 0.24594 0.40468
# Poissons Ratio (z) = 0.29110 0.23002
#
# Static dielectric constant tensor:
#      x y z
#    x 3.326030 0.000000 0.000000 
#    y 0.000000 3.002870 0.000000 
#    z 0.000000 0.000000 3.265380 
# 
# 
# High freq. dielectric constant tensor:
#      x y z
#    x 1.665280 0.000000 0.000000 
#    y 0.000000 1.615380 0.000000 
#    z 0.000000 0.000000 1.669480 
# 
# From -- ./inp_files/56711.got.cif
#   From: 2010.06.25/outbox.cif.g09.slc.cpg/sg71_29_cif.got.tgz:56711.got - 2010.06.28 04:59:45.
