data_PCOD8292341
_publ_section_title
;
Structure prediction by ZEFSAII (Michael W. Deem and Ramdas Pophale) SiO2 
 PCOD8292341
Probable space group: I M M M
;
_chemical_formula_sum "Si O2"
_cell_formula_units_Z 104
_cell_length_a 12.621649
_cell_length_b 18.564699
_cell_length_c 26.676767
_cell_angle_alpha 90.000000
_cell_angle_beta 90.000000
_cell_angle_gamma 90.000000
_cell_volume 6250.823069
_symmetry_space_group_name_H-M "I M M M"
_symmetry_group_IT_number 71
_symmetry_cell_setting 'orthorhombic'
loop_
_space_group_symop_operation_xyz
x,y,z
-x,-y,z
x,-y,-z
-x,y,-z
-x,-y,-z
x,y,-z
-x,y,z
x,-y,z
1/2+x,1/2+y,1/2+z
1/2-x,1/2-y,1/2+z
1/2+x,1/2-y,1/2-z
1/2-x,1/2+y,1/2-z
1/2-x,1/2-y,1/2-z
1/2+x,1/2+y,1/2-z
1/2-x,1/2+y,1/2+z
1/2+x,1/2-y,1/2+z
loop_
_atom_site_type_symbol
_atom_site_label
_atom_site_fract_x
_atom_site_fract_y
_atom_site_fract_z
Si Si1 0.621228 0.084011 0.943091
Si Si2 0.622479 0.183739 0.237488
Si Si3 0.691041 0.654891 0.387359
Si Si4 0.702373 0.581400 0.713225
Si Si5 0.746899 0.785898 0.668294
Si Si6 0.879422 0.918104 0.321100
Si Si7 0.500000 0.582691 0.558930
O O1 0.500000 0.100325 0.928327
O O2 0.695236 0.125569 0.904429
O O3 0.646407 0.000000 0.938775
O O4 0.643295 0.109830 0.000000
O O5 0.500000 0.171103 0.229890
O O6 0.680040 0.108336 0.226263
O O7 0.646833 0.205407 0.294835
O O8 0.661289 0.244189 0.198623
O O9 0.655183 0.625996 0.333031
O O10 0.705921 0.741582 0.380672
O O11 0.602245 0.629493 0.426089
O O12 0.710105 0.500000 0.695577
O O13 0.626459 0.592458 0.760970
O O14 0.798888 0.862427 0.651561
O O15 0.000000 0.903352 0.338099
O O16 0.845624 0.000000 0.335123
O O17 0.500000 0.500000 0.581023
O O18 0.500000 0.576156 0.500000
#
# Coordination Sequence:
#
# PCOD8292341 Si02
#       7
#    16  16  16  16  16  16   8
#     4   9  18  33  50  65  86 118 151 186 235 291
#     4   9  17  29  43  57  87 128 154 191 244 280
#     4  11  21  31  48  70  94 126 160 205 246 280
#     4   9  18  29  41  67  93 119 165 202 230 274
#     4   9  19  30  42  67  89 118 160 200 232 287
#     4   9  17  30  48  66  94 132 161 195 240 285
#     4  11  24  38  52  72 101 135 167 205 250 290
#
# _framework density 16.637809000000001
#
# number of rings (size 3 to 8) (size 9 to 14) (size 15 to 20)
#    0.000    2.538    0.000    3.692    2.154    4.615 
#    0.000    0.000    0.000    0.000    0.000    0.000 
#    0.000    3.077    0.000    8.462    0.000    0.000 
#
# Total GULP energy -644563.070041 kJ/mol
# GULP energy per Si atom -12395.443655 kJ/mol
# Density = 1.659994 g / cm^3
# Si number density = 16.637809 Si / 1000 Ang^3
#
#
#
# Elastic Constant Matrix: (Units=GPa)
#
#
# Indices 1 2 3 4 5 6 
#
# 1 69.8610 25.5911 11.8481 0.0000 0.0000 0.0000
# 2 25.5911 99.2641 23.3186 0.0000 0.0000 0.0000
# 3 11.8481 23.3186 39.0760 0.0000 0.0000 0.0000
# 4 0.0000 0.0000 0.0000 21.2767 0.0000 0.0000
# 5 0.0000 0.0000 0.0000 0.0000 18.7453 0.0000
# 6 0.0000 0.0000 0.0000 0.0000 0.0000 18.1194
#
#
#
# Elastic Compliance Matrix: (Units=1/GPa)
#
#
# Indices 1 2 3 4 5 6 
#
# 1 0.016064 -0.003486 -0.002791 0.000000 0.000000 0.000000
# 2 -0.003486 0.012473 -0.006386 0.000000 0.000000 0.000000
# 3 -0.002791 -0.006386 0.030248 0.000000 0.000000 0.000000
# 4 0.000000 0.000000 0.000000 0.047000 0.000000 0.000000
# 5 0.000000 0.000000 0.000000 0.000000 0.053347 0.000000
# 6 0.000000 0.000000 0.000000 0.000000 0.000000 0.055189
#
#
# Mechanical properties :
#
#
# Convention : Reuss Voigt Hill
#
# Bulk Modulus (GPa) = 29.88646 36.63520 33.26083
# Shear Modulus (GPa) = 19.93614 21.45783 20.69698
#
# Velocity S-wave (km/s) = 3.46532 3.59514 3.53083
# Velocity P-wave (km/s) = 5.83209 6.26900 6.05449
#
# Compressibility (1/GPa) = 0.03345997
#
# Stress axis : x y z
#
# Youngs Moduli (GPa) = 62.24956 80.17259 33.05971
#
# Poissons Ratio (x) = 0.27948 0.09226
# Poissons Ratio (y) = 0.21700 0.21113
# Poissons Ratio (z) = 0.17371 0.51201
#
# Static dielectric constant tensor:
#      x y z
#    x 3.022610 0.000000 0.000000 
#    y 0.000000 3.369610 0.000000 
#    z 0.000000 0.000000 2.860210 
# 
# 
# High freq. dielectric constant tensor:
#      x y z
#    x 1.639690 0.000000 0.000000 
#    y 0.000000 1.636200 0.000000 
#    z 0.000000 0.000000 1.599600 
# 
# From -- ./inp_files/52186.got.cif
#   From: 2010.06.25/outbox.cif.g09.slc.cpg/sg71_27_cif.got.tgz:52186.got - 2010.06.28 04:59:45.
