data_PCOD8292570
_publ_section_title
;
Structure prediction by ZEFSAII (Michael W. Deem and Ramdas Pophale) SiO2 
 PCOD8292570
Probable space group: I M M M
;
_chemical_formula_sum "Si O2"
_cell_formula_units_Z 72
_cell_length_a 27.461045
_cell_length_b 17.949681
_cell_length_c 7.526371
_cell_angle_alpha 90.000000
_cell_angle_beta 90.000000
_cell_angle_gamma 90.000000
_cell_volume 3709.876197
_symmetry_space_group_name_H-M "I M M M"
_symmetry_group_IT_number 71
_symmetry_cell_setting 'orthorhombic'
loop_
_space_group_symop_operation_xyz
x,y,z
-x,-y,z
x,-y,-z
-x,y,-z
-x,-y,-z
x,y,-z
-x,y,z
x,-y,z
1/2+x,1/2+y,1/2+z
1/2-x,1/2-y,1/2+z
1/2+x,1/2-y,1/2-z
1/2-x,1/2+y,1/2-z
1/2-x,1/2-y,1/2-z
1/2+x,1/2+y,1/2-z
1/2-x,1/2+y,1/2+z
1/2+x,1/2-y,1/2+z
loop_
_atom_site_type_symbol
_atom_site_label
_atom_site_fract_x
_atom_site_fract_y
_atom_site_fract_z
Si Si1 0.804369 0.727712 0.793194
Si Si2 0.397527 0.686893 0.707778
Si Si3 0.147561 0.581691 0.787771
Si Si4 0.056893 0.087772 0.500000
Si Si5 0.052835 0.659031 0.208115
O O1 0.750000 0.750000 0.750000
O O2 0.842935 0.789683 0.726012
O O3 0.815391 0.645105 0.713874
O O4 0.813555 0.721403 0.000000
O O5 0.398276 0.663900 0.500000
O O6 0.432690 0.756094 0.747493
O O7 0.416678 0.618259 0.823372
O O8 0.162140 0.500000 0.713016
O O9 0.093550 0.602678 0.716310
O O10 0.147973 0.580564 0.000000
O O11 0.000000 0.109448 0.500000
O O12 0.064225 0.000000 0.500000
O O13 0.000000 0.643004 0.296365
O O14 0.049270 0.646562 0.000000
#
# Coordination Sequence:
#
# PCOD8292570 Si02
#       5
#    16  16  16   8  16
#     4   9  18  32  54  79 102 138 184 222 271 332
#     4   9  19  36  55  78 111 144 180 233 279 327
#     4   8  14  25  41  67 102 130 159 207 257 302
#     4  11  24  38  56  84 111 145 193 235 289 352
#     4   8  13  23  43  70  98 133 171 201 243 307
#
# _framework density 19.407655999999999
#
# number of rings (size 3 to 8) (size 9 to 14) (size 15 to 20)
#    0.000    3.222    0.000    3.333    1.556    2.222 
#    0.000    4.444    0.000    2.000    0.000    0.000 
#    0.000    8.444    0.000    0.444    0.000    0.000 
#
# Total GULP energy -446004.394507 kJ/mol
# GULP energy per Si atom -12389.010959 kJ/mol
# Density = 1.936348 g / cm^3
# Si number density = 19.407656 Si / 1000 Ang^3
#
#
#
# Elastic Constant Matrix: (Units=GPa)
#
#
# Indices 1 2 3 4 5 6 
#
# 1 176.1080 85.4226 18.2935 0.0000 0.0000 0.0000
# 2 85.4226 141.1618 34.7242 0.0000 0.0000 0.0000
# 3 18.2935 34.7242 55.0871 0.0000 0.0000 0.0000
# 4 0.0000 0.0000 0.0000 13.1310 0.0000 0.0000
# 5 0.0000 0.0000 0.0000 0.0000 20.2386 0.0000
# 6 0.0000 0.0000 0.0000 0.0000 0.0000 21.5187
#
#
#
# Elastic Compliance Matrix: (Units=1/GPa)
#
#
# Indices 1 2 3 4 5 6 
#
# 1 0.008048 -0.004986 0.000470 0.000000 0.000000 0.000000
# 2 -0.004986 0.011473 -0.005576 0.000000 0.000000 0.000000
# 3 0.000470 -0.005576 0.021512 0.000000 0.000000 0.000000
# 4 0.000000 0.000000 0.000000 0.076156 0.000000 0.000000
# 5 0.000000 0.000000 0.000000 0.000000 0.049410 0.000000
# 6 0.000000 0.000000 0.000000 0.000000 0.000000 0.046471
#
#
# Mechanical properties :
#
#
# Convention : Reuss Voigt Hill
#
# Bulk Modulus (GPa) = 47.96379 72.13750 60.05065
# Shear Modulus (GPa) = 20.81570 26.57211 23.69391
#
# Velocity S-wave (km/s) = 3.27854 3.70423 3.49786
# Velocity P-wave (km/s) = 6.25294 7.45287 6.87912
#
# Compressibility (1/GPa) = 0.02084906
#
# Stress axis : x y z
#
# Youngs Moduli (GPa) = 124.25653 87.16252 46.48595
#
# Poissons Ratio (x) = 0.43457 -0.02186
# Poissons Ratio (y) = 0.61951 0.25922
# Poissons Ratio (z) = -0.05843 0.48604
#
# Static dielectric constant tensor:
#      x y z
#    x 3.382130 0.000000 0.000000 
#    y 0.000000 3.476590 0.000000 
#    z 0.000000 0.000000 3.239410 
# 
# 
# High freq. dielectric constant tensor:
#      x y z
#    x 1.754700 0.000000 0.000000 
#    y 0.000000 1.739630 0.000000 
#    z 0.000000 0.000000 1.733880 
# 
# From -- ./inp_files/8141.got.cif
#   From: 2010.06.25/outbox.cif.g09.slc.cpg/sg71_5_cif.got.tgz:8141.got - 2010.06.28 04:59:45.
