data_PCOD8292359
_publ_section_title
;
Structure prediction by ZEFSAII (Michael W. Deem and Ramdas Pophale) SiO2 
 PCOD8292359
Probable space group: I M M M
;
_chemical_formula_sum "Si O2"
_cell_formula_units_Z 104
_cell_length_a 9.291958
_cell_length_b 28.000910
_cell_length_c 23.985087
_cell_angle_alpha 90.000000
_cell_angle_beta 90.000000
_cell_angle_gamma 90.000000
_cell_volume 6240.518599
_symmetry_space_group_name_H-M "I M M M"
_symmetry_group_IT_number 71
_symmetry_cell_setting 'orthorhombic'
loop_
_space_group_symop_operation_xyz
x,y,z
-x,-y,z
x,-y,-z
-x,y,-z
-x,-y,-z
x,y,-z
-x,y,z
x,-y,z
1/2+x,1/2+y,1/2+z
1/2-x,1/2-y,1/2+z
1/2+x,1/2-y,1/2-z
1/2-x,1/2+y,1/2-z
1/2-x,1/2-y,1/2-z
1/2+x,1/2+y,1/2-z
1/2-x,1/2+y,1/2+z
1/2+x,1/2-y,1/2+z
loop_
_atom_site_type_symbol
_atom_site_label
_atom_site_fract_x
_atom_site_fract_y
_atom_site_fract_z
Si Si1 0.164503 0.945245 0.240084
Si Si2 0.832492 0.672434 0.434837
Si Si3 0.658782 0.721042 0.066163
Si Si4 0.330658 0.869121 0.436665
Si Si5 0.834523 0.500000 0.566077
Si Si6 0.669471 0.054296 0.652066
Si Si7 0.669236 0.412189 0.380725
O O1 0.260774 0.926296 0.290994
O O2 0.198359 0.914599 0.185313
O O3 0.000000 0.939875 0.258667
O O4 0.202043 0.000000 0.225652
O O5 0.800495 0.665422 0.500000
O O6 0.793080 0.726107 0.414591
O O7 0.727682 0.638582 0.400371
O O8 0.000000 0.661079 0.422557
O O9 0.500000 0.709587 0.089685
O O10 0.765612 0.680013 0.087906
O O11 0.654983 0.721396 0.000000
O O12 0.278810 0.878837 0.500000
O O13 0.500000 0.863252 0.433920
O O14 0.277281 0.913430 0.399419
O O15 0.828356 0.500000 0.500000
O O16 0.754698 0.546734 0.587626
O O17 0.000000 0.500000 0.586930
O O18 0.500000 0.057650 0.659586
O O19 0.719086 0.000000 0.639830
O O20 0.500000 0.417562 0.394007
#
# Coordination Sequence:
#
# PCOD8292359 Si02
#       7
#    16  16  16  16   8  16  16
#     4   9  18  34  50  65  90 123 160 200 240 279
#     4   9  18  32  48  69  97 126 158 197 241 288
#     4   8  15  29  48  68  93 126 161 194 229 279
#     4   9  17  29  47  73 103 129 153 188 234 281
#     4  11  23  35  47  67  97 131 162 195 240 291
#     4   9  18  31  48  72  98 126 161 194 228 279
#     4  11  21  33  49  70  95 124 160 203 246 288
#
# _framework density 16.665281
#
# number of rings (size 3 to 8) (size 9 to 14) (size 15 to 20)
#    0.000    2.692    0.769    2.077    0.000    5.538 
#    0.000    3.077    0.000    0.923    0.000    4.308 
#    0.000    0.000    0.000    0.000    0.000    0.000 
#
# Total GULP energy -644701.964345 kJ/mol
# GULP energy per Si atom -12398.114699 kJ/mol
# Density = 1.662735 g / cm^3
# Si number density = 16.665281 Si / 1000 Ang^3
#
#
#
# Elastic Constant Matrix: (Units=GPa)
#
#
# Indices 1 2 3 4 5 6 
#
# 1 67.4670 56.1716 49.0212 0.0000 0.0000 0.0000
# 2 56.1716 117.8347 61.2847 0.0000 0.0000 0.0000
# 3 49.0212 61.2847 86.0385 0.0001 0.0000 0.0000
# 4 0.0000 0.0000 0.0001 2.8231 0.0000 0.0000
# 5 0.0000 0.0000 0.0000 0.0000 24.9508 0.0000
# 6 0.0000 0.0000 0.0000 0.0000 0.0000 30.1589
#
#
#
# Elastic Compliance Matrix: (Units=1/GPa)
#
#
# Indices 1 2 3 4 5 6 
#
# 1 0.029898 -0.008566 -0.010933 0.000000 0.000000 0.000000
# 2 -0.008566 0.015935 -0.006470 0.000000 0.000000 0.000000
# 3 -0.010933 -0.006470 0.022460 -0.000001 0.000000 0.000000
# 4 0.000000 0.000000 -0.000001 0.354221 0.000000 0.000000
# 5 0.000000 0.000000 0.000000 0.000000 0.040079 0.000000
# 6 0.000000 0.000000 0.000000 0.000000 0.000000 0.033158
#
#
# Mechanical properties :
#
#
# Convention : Reuss Voigt Hill
#
# Bulk Modulus (GPa) = 61.14215 67.14391 64.14303
# Shear Modulus (GPa) = 9.03931 18.57741 13.80836
#
# Velocity S-wave (km/s) = 2.33148 3.34239 2.88161
# Velocity P-wave (km/s) = 6.63444 7.43455 7.04586
#
# Compressibility (1/GPa) = 0.01635533
#
# Stress axis : x y z
#
# Youngs Moduli (GPa) = 33.44720 62.75628 44.52338
#
# Poissons Ratio (x) = 0.53758 0.48677
# Poissons Ratio (y) = 0.28651 0.28805
# Poissons Ratio (z) = 0.36568 0.40600
#
# Static dielectric constant tensor:
#      x y z
#    x 3.195710 0.000000 0.000000 
#    y 0.000000 3.369430 0.000000 
#    z 0.000000 0.000000 3.043390 
# 
# 
# High freq. dielectric constant tensor:
#      x y z
#    x 1.643980 0.000000 0.000000 
#    y 0.000000 1.639670 0.000000 
#    z 0.000000 0.000000 1.619960 
# 
# From -- ./inp_files/15554.got.cif
#   From: 2010.06.25/outbox.cif.g09.slc.cpg/sg71_8_cif.got.tgz:15554.got - 2010.06.28 04:59:45.
