data_PCOD8292644
_publ_section_title
;
Structure prediction by ZEFSAII (Michael W. Deem and Ramdas Pophale) SiO2 
 PCOD8292644
Probable space group: I M M M
;
_chemical_formula_sum "Si O2"
_cell_formula_units_Z 80
_cell_length_a 9.895299
_cell_length_b 22.884078
_cell_length_c 28.041785
_cell_angle_alpha 90.000000
_cell_angle_beta 90.000000
_cell_angle_gamma 90.000000
_cell_volume 6349.916232
_symmetry_space_group_name_H-M "I M M M"
_symmetry_group_IT_number 71
_symmetry_cell_setting 'orthorhombic'
loop_
_space_group_symop_operation_xyz
x,y,z
-x,-y,z
x,-y,-z
-x,y,-z
-x,-y,-z
x,y,-z
-x,y,z
x,-y,z
1/2+x,1/2+y,1/2+z
1/2-x,1/2-y,1/2+z
1/2+x,1/2-y,1/2-z
1/2-x,1/2+y,1/2-z
1/2-x,1/2-y,1/2-z
1/2+x,1/2+y,1/2-z
1/2-x,1/2+y,1/2+z
1/2+x,1/2-y,1/2+z
loop_
_atom_site_type_symbol
_atom_site_label
_atom_site_fract_x
_atom_site_fract_y
_atom_site_fract_z
Si Si1 0.339133 0.435049 0.725356
Si Si2 0.154250 0.567188 0.555463
Si Si3 0.841309 0.125682 0.129628
Si Si4 0.851013 0.241337 0.181077
Si Si5 0.150870 0.173689 0.719644
O O1 0.500000 0.433428 0.724525
O O2 0.282865 0.500000 0.735929
O O3 0.288608 0.414082 0.673538
O O4 0.290795 0.390831 0.767196
O O5 0.174154 0.580660 0.500000
O O6 0.190228 0.500000 0.566517
O O7 0.255996 0.609092 0.583410
O O8 0.000000 0.580342 0.570705
O O9 0.811928 0.193714 0.141121
O O10 0.000000 0.115279 0.119852
O O11 0.852551 0.210246 0.231979
O O12 0.746132 0.295221 0.180612
O O13 0.000000 0.266800 0.170422
O O14 0.000000 0.169763 0.697892
#
# Coordination Sequence:
#
# PCOD8292644 Si02
#       5
#    16  16  16  16  16
#     4   8  13  21  33  49  68  87 109 141 173 195
#     4   9  18  30  39  48  66  89 109 134 172 210
#     4   9  16  25  38  53  65  82 112 144 171 200
#     4   8  14  23  33  47  66  83 102 135 171 194
#     4   8  13  21  33  47  62  84 111 132 158 199
#
# _framework density 12.598592
#
# number of rings (size 3 to 8) (size 9 to 14) (size 15 to 20)
#    0.000    3.600    0.000    3.600    0.000    2.400 
#    0.000    4.000    0.000    1.800    0.000    0.000 
#    0.000    0.000    0.000    0.000    0.000    1.000 
#
# Total GULP energy -495686.316807 kJ/mol
# GULP energy per Si atom -12392.157920 kJ/mol
# Density = 1.256992 g / cm^3
# Si number density = 12.598592 Si / 1000 Ang^3
#
#
#
# Elastic Constant Matrix: (Units=GPa)
#
#
# Indices 1 2 3 4 5 6 
#
# 1 62.9434 44.4345 36.3967 0.0000 0.0000 0.0000
# 2 44.4345 82.5597 35.8166 0.0000 0.0000 0.0000
# 3 36.3967 35.8166 41.4345 0.0000 0.0000 0.0000
# 4 0.0000 0.0000 0.0000 21.1375 0.0000 0.0000
# 5 0.0000 0.0000 0.0000 0.0000 19.0717 0.0000
# 6 0.0000 0.0000 0.0000 0.0000 0.0000 18.5546
#
#
#
# Elastic Compliance Matrix: (Units=1/GPa)
#
#
# Indices 1 2 3 4 5 6 
#
# 1 0.036087 -0.009073 -0.023857 0.000000 0.000000 0.000000
# 2 -0.009073 0.021661 -0.010755 0.000000 0.000000 0.000000
# 3 -0.023857 -0.010755 0.054387 0.000000 0.000000 0.000000
# 4 0.000000 0.000000 0.000000 0.047309 0.000000 0.000000
# 5 0.000000 0.000000 0.000000 0.000000 0.052434 0.000000
# 6 0.000000 0.000000 0.000000 0.000000 0.000000 0.053895
#
#
# Mechanical properties :
#
#
# Convention : Reuss Voigt Hill
#
# Bulk Modulus (GPa) = 40.37624 46.69256 43.53440
# Shear Modulus (GPa) = 13.83517 16.43877 15.13697
#
# Velocity S-wave (km/s) = 3.31743 3.61613 3.47000
# Velocity P-wave (km/s) = 6.84044 7.38765 7.11931
#
# Compressibility (1/GPa) = 0.02476704
#
# Stress axis : x y z
#
# Youngs Moduli (GPa) = 27.71055 46.16577 18.38664
#
# Poissons Ratio (x) = 0.41885 0.43865
# Poissons Ratio (y) = 0.25141 0.19774
# Poissons Ratio (z) = 0.66109 0.49649
#
# Static dielectric constant tensor:
#      x y z
#    x 2.594010 0.000000 0.000000 
#    y 0.000000 2.743190 0.000000 
#    z 0.000000 0.000000 2.229800 
# 
# 
# High freq. dielectric constant tensor:
#      x y z
#    x 1.471420 0.000000 0.000000 
#    y 0.000000 1.468620 0.000000 
#    z 0.000000 0.000000 1.431070 
# 
# From -- ./inp_files/11256.got.cif
#   From: 2010.06.25/outbox.cif.g09.slc.cpg/sg71_6_cif.got.tgz:11256.got - 2010.06.28 04:59:45.
