data_PCOD8292004
_publ_section_title
;
Structure prediction by ZEFSAII (Michael W. Deem and Ramdas Pophale) SiO2 
 PCOD8292004
Probable space group: I M M M
;
_chemical_formula_sum "Si O2"
_cell_formula_units_Z 104
_cell_length_a 28.391311
_cell_length_b 13.053358
_cell_length_c 12.978424
_cell_angle_alpha 90.000000
_cell_angle_beta 90.000000
_cell_angle_gamma 90.000000
_cell_volume 4809.829198
_symmetry_space_group_name_H-M "I M M M"
_symmetry_group_IT_number 71
_symmetry_cell_setting 'orthorhombic'
loop_
_space_group_symop_operation_xyz
x,y,z
-x,-y,z
x,-y,-z
-x,y,-z
-x,-y,-z
x,y,-z
-x,y,z
x,-y,z
1/2+x,1/2+y,1/2+z
1/2-x,1/2-y,1/2+z
1/2+x,1/2-y,1/2-z
1/2-x,1/2+y,1/2-z
1/2-x,1/2-y,1/2-z
1/2+x,1/2+y,1/2-z
1/2-x,1/2+y,1/2+z
1/2+x,1/2-y,1/2+z
loop_
_atom_site_type_symbol
_atom_site_label
_atom_site_fract_x
_atom_site_fract_y
_atom_site_fract_z
Si Si1 0.397429 0.800617 0.380895
Si Si2 0.387492 0.692977 0.880385
Si Si3 0.053454 0.385692 0.622256
Si Si4 0.947080 0.500000 0.123547
Si Si5 0.294370 0.250053 0.618027
Si Si6 0.711812 0.378683 0.190821
Si Si7 0.946397 0.112672 0.211622
O O1 0.395103 0.826782 0.500000
O O2 0.344389 0.790124 0.339448
O O3 0.425657 0.695284 0.367021
O O4 0.423237 0.897746 0.327849
O O5 0.407985 0.802312 0.836845
O O6 0.332261 0.680883 0.858984
O O7 0.416560 0.608299 0.817513
O O8 0.398374 0.678818 0.000000
O O9 0.059031 0.391718 0.500000
O O10 0.063493 0.500000 0.668351
O O11 0.000000 0.350789 0.649989
O O12 0.000000 0.500000 0.163672
O O13 0.945015 0.500000 0.000000
O O14 0.297176 0.288305 0.500000
O O15 0.280531 0.346809 0.689668
O O16 0.257388 0.157202 0.627095
O O17 0.705359 0.500000 0.181165
O O18 0.000000 0.140237 0.237572
O O19 0.942332 0.000000 0.160383
#
# Coordination Sequence:
#
# PCOD8292004 Si02
#       7
#    16  16  16   8  16  16  16
#     4  10  21  40  66  93 126 165 208 260 321 385
#     4  11  22  38  60  88 126 171 218 265 317 376
#     4   8  15  31  56  83 113 155 207 261 316 374
#     4   9  18  34  60  94 129 165 207 259 317 379
#     4  10  23  43  68  98 126 162 209 260 319 385
#     4  11  24  43  67  96 129 165 209 263 321 383
#     4  11  24  40  58  87 127 167 214 265 311 373
#
# _framework density 21.622389999999999
#
# number of rings (size 3 to 8) (size 9 to 14) (size 15 to 20)
#    0.000    1.923    1.538    2.308    1.077    4.615 
#    1.385    6.154    0.000    3.692    0.000    0.000 
#    0.000    0.000    0.000    0.000    0.000    0.000 
#
# Total GULP energy -644794.143916 kJ/mol
# GULP energy per Si atom -12399.887383 kJ/mol
# Density = 2.157318 g / cm^3
# Si number density = 21.622390 Si / 1000 Ang^3
#
#
#
# Elastic Constant Matrix: (Units=GPa)
#
#
# Indices 1 2 3 4 5 6 
#
# 1 124.1715 55.0415 -9.1637 0.0000 0.0000 0.0000
# 2 55.0415 145.2673 10.2031 0.0000 0.0000 0.0000
# 3 -9.1637 10.2031 21.3499 0.0000 0.0000 0.0000
# 4 0.0000 0.0000 0.0000 26.3246 0.0000 0.0000
# 5 0.0000 0.0000 0.0000 0.0000 25.8369 0.0000
# 6 0.0000 0.0000 0.0000 0.0000 0.0000 30.0821
#
#
#
# Elastic Compliance Matrix: (Units=1/GPa)
#
#
# Indices 1 2 3 4 5 6 
#
# 1 0.010517 -0.004451 0.006641 0.000000 0.000000 0.000000
# 2 -0.004451 0.009007 -0.006215 0.000000 0.000000 0.000000
# 3 0.006641 -0.006215 0.052659 0.000000 0.000000 0.000000
# 4 0.000000 0.000000 0.000000 0.037987 0.000000 0.000000
# 5 0.000000 0.000000 0.000000 0.000000 0.038704 0.000000
# 6 0.000000 0.000000 0.000000 0.000000 0.000000 0.033242
#
#
# Mechanical properties :
#
#
# Convention : Reuss Voigt Hill
#
# Bulk Modulus (GPa) = 15.59264 44.77226 30.18245
# Shear Modulus (GPa) = 23.63570 32.09589 27.86580
#
# Velocity S-wave (km/s) = 3.30981 3.85695 3.59381
# Velocity P-wave (km/s) = 4.67263 6.37072 5.58657
#
# Compressibility (1/GPa) = 0.06413283
#
# Stress axis : x y z
#
# Youngs Moduli (GPa) = 95.08828 111.02589 18.98999
#
# Poissons Ratio (x) = 0.49419 -0.12611
# Poissons Ratio (y) = 0.42325 0.11802
# Poissons Ratio (z) = -0.63149 0.69002
#
# Static dielectric constant tensor:
#      x y z
#    x 4.018440 0.000000 0.000000 
#    y 0.000000 4.027900 0.000000 
#    z 0.000000 0.000000 3.895390 
# 
# 
# High freq. dielectric constant tensor:
#      x y z
#    x 1.852570 0.000000 0.000000 
#    y 0.000000 1.845330 0.000000 
#    z 0.000000 0.000000 1.866340 
# 
# From -- ./inp_files/40951.got.cif
#   From: 2010.06.25/outbox.cif.g09.slc.cpg/sg71_21_cif.got.tgz:40951.got - 2010.06.28 04:59:45.
