data_PCOD8292775
_publ_section_title
;
Structure prediction by ZEFSAII (Michael W. Deem and Ramdas Pophale) SiO2 
 PCOD8292775
Probable space group: I M M M
;
_chemical_formula_sum "Si O2"
_cell_formula_units_Z 88
_cell_length_a 20.696758
_cell_length_b 18.922816
_cell_length_c 12.943694
_cell_angle_alpha 90.000000
_cell_angle_beta 90.000000
_cell_angle_gamma 90.000000
_cell_volume 5069.280530
_symmetry_space_group_name_H-M "I M M M"
_symmetry_group_IT_number 71
_symmetry_cell_setting 'orthorhombic'
loop_
_space_group_symop_operation_xyz
x,y,z
-x,-y,z
x,-y,-z
-x,y,-z
-x,-y,-z
x,y,-z
-x,y,z
x,-y,z
1/2+x,1/2+y,1/2+z
1/2-x,1/2-y,1/2+z
1/2+x,1/2-y,1/2-z
1/2-x,1/2+y,1/2-z
1/2-x,1/2-y,1/2-z
1/2+x,1/2+y,1/2-z
1/2-x,1/2+y,1/2+z
1/2+x,1/2-y,1/2+z
loop_
_atom_site_type_symbol
_atom_site_label
_atom_site_fract_x
_atom_site_fract_y
_atom_site_fract_z
Si Si1 0.808527 0.081157 0.709663
Si Si2 0.763047 0.183562 0.878818
Si Si3 0.570266 0.661567 0.218747
Si Si4 0.650152 0.789692 0.263608
Si Si5 0.000000 0.916729 0.119510
Si Si6 0.828175 0.420717 0.118518
O O1 0.790589 0.114693 0.820365
O O2 0.870577 0.122488 0.660014
O O3 0.748777 0.091494 0.632012
O O4 0.826953 0.000000 0.725739
O O5 0.690020 0.199458 0.842116
O O6 0.806535 0.251012 0.850375
O O7 0.763599 0.168806 0.000000
O O8 0.500000 0.657802 0.160188
O O9 0.586645 0.743941 0.238229
O O10 0.563091 0.619655 0.328300
O O11 0.630977 0.865751 0.311871
O O12 0.000000 0.000000 0.141084
O O13 0.000000 0.898261 0.000000
O O14 0.846323 0.500000 0.154800
O O15 0.846505 0.409318 0.000000
#
# Coordination Sequence:
#
# PCOD8292775 Si02
#       6
#    16  16  16  16   8  16
#     4   9  17  29  45  68  96 122 149 181 222 273
#     4   9  17  28  45  67  88 113 147 188 232 271
#     4   9  19  30  43  61  88 125 158 179 215 259
#     4   9  17  30  45  64  88 116 150 187 227 270
#     4   9  18  30  42  60  86 118 156 185 208 250
#     4   9  17  29  48  71  91 115 148 189 235 274
#
# _framework density 17.359466000000001
#
# number of rings (size 3 to 8) (size 9 to 14) (size 15 to 20)
#    0.545    2.455    0.000    2.182    0.000    4.000 
#    0.000    0.000    0.000    2.727    0.000    3.818 
#    0.000    0.000    0.000    9.091    0.000    0.000 
#
# Total GULP energy -545179.207299 kJ/mol
# GULP energy per Si atom -12390.436530 kJ/mol
# Density = 1.731996 g / cm^3
# Si number density = 17.359466 Si / 1000 Ang^3
#
#
#
# Elastic Constant Matrix: (Units=GPa)
#
#
# Indices 1 2 3 4 5 6 
#
# 1 51.6584 23.4370 -5.2252 0.0000 0.0000 0.0000
# 2 23.4370 111.4765 3.5871 0.0000 0.0000 0.0000
# 3 -5.2252 3.5871 33.5442 0.0000 0.0000 0.0000
# 4 0.0000 0.0000 0.0000 18.8773 0.0000 0.0000
# 5 0.0000 0.0000 0.0000 0.0000 9.5776 0.0000
# 6 0.0000 0.0000 0.0000 0.0000 0.0000 26.5786
#
#
#
# Elastic Compliance Matrix: (Units=1/GPa)
#
#
# Indices 1 2 3 4 5 6 
#
# 1 0.021900 -0.004730 0.003917 0.000000 0.000000 0.000000
# 2 -0.004730 0.010023 -0.001809 0.000000 0.000000 0.000000
# 3 0.003917 -0.001809 0.030615 0.000000 0.000000 0.000000
# 4 0.000000 0.000000 0.000000 0.052974 0.000000 0.000000
# 5 0.000000 0.000000 0.000000 0.000000 0.104411 0.000000
# 6 0.000000 0.000000 0.000000 0.000000 0.000000 0.037624
#
#
# Mechanical properties :
#
#
# Convention : Reuss Voigt Hill
#
# Bulk Modulus (GPa) = 17.45358 26.69745 22.07552
# Shear Modulus (GPa) = 17.73746 22.66537 20.20142
#
# Velocity S-wave (km/s) = 3.19999 3.61730 3.41502
# Velocity P-wave (km/s) = 4.87127 5.73228 5.31922
#
# Compressibility (1/GPa) = 0.05729483
#
# Stress axis : x y z
#
# Youngs Moduli (GPa) = 45.66149 99.76825 32.66374
#
# Poissons Ratio (x) = 0.47194 -0.12795
# Poissons Ratio (y) = 0.21600 0.05908
# Poissons Ratio (z) = -0.17887 0.18045
#
# Static dielectric constant tensor:
#      x y z
#    x 3.025460 0.000000 0.000000 
#    y 0.000000 3.496940 0.000000 
#    z 0.000000 0.000000 2.833030 
# 
# 
# High freq. dielectric constant tensor:
#      x y z
#    x 1.641030 0.000000 0.000000 
#    y 0.000000 1.685370 0.000000 
#    z 0.000000 0.000000 1.632900 
# 
# From -- ./inp_files/39378.got.cif
#   From: 2010.06.25/outbox.cif.g09.slc.cpg/sg71_20_cif.got.tgz:39378.got - 2010.06.28 04:59:45.
