data_PCOD8292060
_publ_section_title
;
Structure prediction by ZEFSAII (Michael W. Deem and Ramdas Pophale) SiO2 
 PCOD8292060
Probable space group: I M M M
;
_chemical_formula_sum "Si O2"
_cell_formula_units_Z 88
_cell_length_a 22.770631
_cell_length_b 16.620134
_cell_length_c 12.487664
_cell_angle_alpha 90.000000
_cell_angle_beta 90.000000
_cell_angle_gamma 90.000000
_cell_volume 4725.968160
_symmetry_space_group_name_H-M "I M M M"
_symmetry_group_IT_number 71
_symmetry_cell_setting 'orthorhombic'
loop_
_space_group_symop_operation_xyz
x,y,z
-x,-y,z
x,-y,-z
-x,y,-z
-x,-y,-z
x,y,-z
-x,y,z
x,-y,z
1/2+x,1/2+y,1/2+z
1/2-x,1/2-y,1/2+z
1/2+x,1/2-y,1/2-z
1/2-x,1/2+y,1/2-z
1/2-x,1/2-y,1/2-z
1/2+x,1/2+y,1/2-z
1/2-x,1/2+y,1/2+z
1/2+x,1/2-y,1/2+z
loop_
_atom_site_type_symbol
_atom_site_label
_atom_site_fract_x
_atom_site_fract_y
_atom_site_fract_z
Si Si1 0.434407 0.408728 0.626415
Si Si2 0.417194 0.000000 0.623756
Si Si3 0.220699 0.500000 0.879450
Si Si4 0.064966 0.351558 0.726912
Si Si5 0.256487 0.672717 0.123355
Si Si6 0.069982 0.411374 0.500000
Si Si7 0.654257 0.278445 0.708615
O O1 0.434832 0.404696 0.500000
O O2 0.500000 0.380410 0.667103
O O3 0.423634 0.500000 0.666162
O O4 0.378393 0.357256 0.664773
O O5 0.348286 0.000000 0.622657
O O6 0.440392 0.924608 0.690269
O O7 0.440736 0.000000 0.500000
O O8 0.241013 0.415567 0.824926
O O9 0.244582 0.500000 0.000000
O O10 0.092711 0.371010 0.609885
O O11 0.103480 0.285526 0.782454
O O12 0.000000 0.316681 0.708542
O O13 0.315997 0.702314 0.178181
O O14 0.204586 0.738980 0.133893
O O15 0.270868 0.662650 0.000000
O O16 0.097190 0.500000 0.500000
O O17 0.000000 0.415532 0.500000
#
# Coordination Sequence:
#
# PCOD8292060 Si02
#       7
#    16   8   8  16  16   8  16
#     4   9  19  37  60  84 112 148 188 233 289 346
#     4  11  21  35  57  86 120 150 184 229 279 344
#     4   9  18  37  57  73 105 147 181 219 277 339
#     4  11  22  36  55  83 116 152 191 230 282 339
#     4  10  22  38  56  81 111 146 187 230 280 334
#     4   9  18  34  54  74 107 155 193 221 261 332
#     4  11  22  35  58  85 112 146 185 239 280 332
#
# _framework density 18.620522999999999
#
# number of rings (size 3 to 8) (size 9 to 14) (size 15 to 20)
#    0.000    1.909    2.727    1.909    2.545    1.455 
#    0.000    0.000    0.000    0.000    0.000    1.273 
#    0.000    0.000    0.000    0.000    0.000    0.000 
#
# Total GULP energy -545134.442394 kJ/mol
# GULP energy per Si atom -12389.419145 kJ/mol
# Density = 1.857814 g / cm^3
# Si number density = 18.620523 Si / 1000 Ang^3
#
#
#
# Elastic Constant Matrix: (Units=GPa)
#
#
# Indices 1 2 3 4 5 6 
#
# 1 92.9699 52.2017 20.5340 0.0000 0.0000 0.0000
# 2 52.2017 100.2922 20.6324 0.0000 0.0000 0.0000
# 3 20.5340 20.6324 82.5360 0.0000 0.0000 0.0000
# 4 0.0000 0.0000 0.0000 25.8318 0.0000 0.0000
# 5 0.0000 0.0000 0.0000 0.0000 17.3111 0.0000
# 6 0.0000 0.0000 0.0000 0.0000 0.0000 26.0975
#
#
#
# Elastic Compliance Matrix: (Units=1/GPa)
#
#
# Indices 1 2 3 4 5 6 
#
# 1 0.015486 -0.007662 -0.001937 0.000000 0.000000 0.000000
# 2 -0.007662 0.014302 -0.001669 0.000000 0.000000 0.000000
# 3 -0.001937 -0.001669 0.013015 0.000000 0.000000 0.000000
# 4 0.000000 0.000000 0.000000 0.038712 0.000000 0.000000
# 5 0.000000 0.000000 0.000000 0.000000 0.057767 0.000000
# 6 0.000000 0.000000 0.000000 0.000000 0.000000 0.038318
#
#
# Mechanical properties :
#
#
# Convention : Reuss Voigt Hill
#
# Bulk Modulus (GPa) = 49.34206 51.39270 50.36738
# Shear Modulus (GPa) = 24.16714 26.01006 25.08860
#
# Velocity S-wave (km/s) = 3.60651 3.74150 3.67463
# Velocity P-wave (km/s) = 6.62562 6.80625 6.71654
#
# Compressibility (1/GPa) = 0.02026669
#
# Stress axis : x y z
#
# Youngs Moduli (GPa) = 64.57368 69.91913 76.83334
#
# Poissons Ratio (x) = 0.53571 0.14886
# Poissons Ratio (y) = 0.49476 0.12824
# Poissons Ratio (z) = 0.12511 0.11670
#
# Static dielectric constant tensor:
#      x y z
#    x 3.500350 0.000000 0.000000 
#    y 0.000000 3.787840 0.000000 
#    z 0.000000 0.000000 3.388730 
# 
# 
# High freq. dielectric constant tensor:
#      x y z
#    x 1.720090 0.000000 0.000000 
#    y 0.000000 1.727940 0.000000 
#    z 0.000000 0.000000 1.707770 
# 
# From -- ./inp_files/25705.got.cif
#   From: 2010.06.25/outbox.cif.g09.slc.cpg/sg71_13_cif.got.tgz:25705.got - 2010.06.28 04:59:45.
