data_PCOD8292608
_publ_section_title
;
Structure prediction by ZEFSAII (Michael W. Deem and Ramdas Pophale) SiO2 
 PCOD8292608
Probable space group: I M M M
;
_chemical_formula_sum "Si O2"
_cell_formula_units_Z 72
_cell_length_a 13.473198
_cell_length_b 9.775610
_cell_length_c 39.534072
_cell_angle_alpha 90.000000
_cell_angle_beta 90.000000
_cell_angle_gamma 90.000000
_cell_volume 5206.982379
_symmetry_space_group_name_H-M "I M M M"
_symmetry_group_IT_number 71
_symmetry_cell_setting 'orthorhombic'
loop_
_space_group_symop_operation_xyz
x,y,z
-x,-y,z
x,-y,-z
-x,y,-z
-x,-y,-z
x,y,-z
-x,y,z
x,-y,z
1/2+x,1/2+y,1/2+z
1/2-x,1/2-y,1/2+z
1/2+x,1/2-y,1/2-z
1/2-x,1/2+y,1/2-z
1/2-x,1/2-y,1/2-z
1/2+x,1/2+y,1/2-z
1/2-x,1/2+y,1/2+z
1/2+x,1/2-y,1/2+z
loop_
_atom_site_type_symbol
_atom_site_label
_atom_site_fract_x
_atom_site_fract_y
_atom_site_fract_z
Si Si1 0.114352 0.657780 0.231328
Si Si2 0.884964 0.341700 0.367172
Si Si3 0.727337 0.158005 0.799376
Si Si4 0.391515 0.662137 0.000000
Si Si5 0.118689 0.846268 0.427465
O O1 0.131345 0.500000 0.221641
O O2 0.174798 0.750462 0.204986
O O3 0.149556 0.687133 0.269460
O O4 0.000000 0.699569 0.228707
O O5 0.869660 0.500000 0.375965
O O6 0.825002 0.298249 0.334010
O O7 0.841865 0.255060 0.398542
O O8 0.000000 0.308087 0.360470
O O9 0.759794 0.000000 0.799848
O O10 0.337623 0.702275 0.964413
O O11 0.404547 0.500000 0.000000
O O12 0.500000 0.732074 0.000000
O O13 0.000000 0.842058 0.429680
O O14 0.154628 0.000000 0.418777
#
# Coordination Sequence:
#
# PCOD8292608 Si02
#       5
#    16  16  16   8  16
#     4   9  17  29  43  57  73  94 121 153 187 220
#     4   9  16  25  36  51  73  99 124 151 184 218
#     4   9  17  28  41  56  74  97 123 150 183 222
#     4   7  10  18  31  45  63  89 120 151 180 209
#     4   8  13  21  33  48  66  91 123 154 181 210
#
# _framework density 13.827586
#
# number of rings (size 3 to 8) (size 9 to 14) (size 15 to 20)
#    0.000    3.444    0.000    2.000    0.000    4.000 
#    0.000    0.556    0.000    7.333    0.000    0.000 
#    0.000    0.000    0.000    1.000    0.000   19.667 
#
# Total GULP energy -446115.025839 kJ/mol
# GULP energy per Si atom -12392.084051 kJ/mol
# Density = 1.379611 g / cm^3
# Si number density = 13.827586 Si / 1000 Ang^3
#
#
#
# Elastic Constant Matrix: (Units=GPa)
#
#
# Indices 1 2 3 4 5 6 
#
# 1 61.8777 37.7467 41.4928 0.0000 0.0000 0.0000
# 2 37.7467 60.2958 61.0197 0.0000 0.0000 0.0000
# 3 41.4928 61.0197 131.6834 0.0000 0.0000 0.0000
# 4 0.0000 0.0000 0.0000 25.6016 0.0000 0.0000
# 5 0.0000 0.0000 0.0000 0.0000 12.2522 0.0000
# 6 0.0000 0.0000 0.0000 0.0000 0.0000 18.2682
#
#
#
# Elastic Compliance Matrix: (Units=1/GPa)
#
#
# Indices 1 2 3 4 5 6 
#
# 1 0.026252 -0.015183 -0.001236 0.000000 0.000000 0.000000
# 2 -0.015183 0.040012 -0.013757 0.000000 0.000000 0.000000
# 3 -0.001236 -0.013757 0.014358 0.000000 0.000000 0.000000
# 4 0.000000 0.000000 0.000000 0.039060 0.000000 0.000000
# 5 0.000000 0.000000 0.000000 0.000000 0.081618 0.000000
# 6 0.000000 0.000000 0.000000 0.000000 0.000000 0.054740
#
#
# Mechanical properties :
#
#
# Convention : Reuss Voigt Hill
#
# Bulk Modulus (GPa) = 49.33493 59.37504 54.35498
# Shear Modulus (GPa) = 15.47275 18.79757 17.13516
#
# Velocity S-wave (km/s) = 3.34874 3.69104 3.52405
# Velocity P-wave (km/s) = 7.12097 7.82290 7.48017
#
# Compressibility (1/GPa) = 0.02026961
#
# Stress axis : x y z
#
# Youngs Moduli (GPa) = 38.09231 24.99264 69.64753
#
# Poissons Ratio (x) = 0.37947 0.08610
# Poissons Ratio (y) = 0.57837 0.95811
# Poissons Ratio (z) = 0.04709 0.34381
#
# Static dielectric constant tensor:
#      x y z
#    x 2.365440 0.000000 0.000000 
#    y 0.000000 2.717310 0.000000 
#    z 0.000000 0.000000 3.001850 
# 
# 
# High freq. dielectric constant tensor:
#      x y z
#    x 1.472250 0.000000 0.000000 
#    y 0.000000 1.522630 0.000000 
#    z 0.000000 0.000000 1.533330 
# 
# From -- ./inp_files/19830.got.cif
#   From: 2010.06.25/outbox.cif.g09.slc.cpg/sg71_10_cif.got.tgz:19830.got - 2010.06.28 04:59:45.
