data_PCOD8292264
_publ_section_title
;
Structure prediction by ZEFSAII (Michael W. Deem and Ramdas Pophale) SiO2 
 PCOD8292264
Probable space group: I M M M
;
_chemical_formula_sum "Si O2"
_cell_formula_units_Z 72
_cell_length_a 18.324726
_cell_length_b 20.785191
_cell_length_c 10.681293
_cell_angle_alpha 90.000000
_cell_angle_beta 90.000000
_cell_angle_gamma 90.000000
_cell_volume 4068.322173
_symmetry_space_group_name_H-M "I M M M"
_symmetry_group_IT_number 71
_symmetry_cell_setting 'orthorhombic'
loop_
_space_group_symop_operation_xyz
x,y,z
-x,-y,z
x,-y,-z
-x,y,-z
-x,-y,-z
x,y,-z
-x,y,z
x,-y,z
1/2+x,1/2+y,1/2+z
1/2-x,1/2-y,1/2+z
1/2+x,1/2-y,1/2-z
1/2-x,1/2+y,1/2-z
1/2-x,1/2-y,1/2-z
1/2+x,1/2+y,1/2-z
1/2-x,1/2+y,1/2+z
1/2+x,1/2-y,1/2+z
loop_
_atom_site_type_symbol
_atom_site_label
_atom_site_fract_x
_atom_site_fract_y
_atom_site_fract_z
Si Si1 0.657497 0.882264 0.245728
Si Si2 0.914058 0.574587 0.500000
Si Si3 0.420533 0.000000 0.641846
Si Si4 0.810650 0.254649 0.856524
Si Si5 0.081362 0.000000 0.851319
Si Si6 0.316577 0.613386 0.357135
O O1 0.615376 0.884950 0.115800
O O2 0.638968 0.814910 0.316477
O O3 0.744060 0.891274 0.226867
O O4 0.627827 0.938379 0.331662
O O5 0.885788 0.500000 0.500000
O O6 0.000000 0.575850 0.500000
O O7 0.500000 0.000000 0.715306
O O8 0.441699 0.000000 0.500000
O O9 0.750000 0.250000 0.750000
O O10 0.851462 0.185411 0.852088
O O11 0.780753 0.264972 0.000000
O O12 0.123925 0.063515 0.804065
O O13 0.000000 0.000000 0.792899
O O14 0.075811 0.000000 0.000000
O O15 0.295165 0.595363 0.500000
#
# Coordination Sequence:
#
# PCOD8292264 Si02
#       6
#    16   8   8  16   8  16
#     4  11  19  33  54  75 105 139 184 228 269 326
#     4  11  22  34  52  80 108 143 185 231 280 330
#     4  11  23  35  47  69 107 147 180 220 275 334
#     4   9  19  33  53  80 112 142 178 227 277 326
#     4   9  17  28  46  72 104 133 167 215 265 322
#     4   9  17  31  51  78 102 133 174 216 274 317
#
# _framework density 17.697714000000001
#
# number of rings (size 3 to 8) (size 9 to 14) (size 15 to 20)
#    0.000    2.111    2.222    2.000    1.556    0.000 
#    0.000    2.222    0.000    5.333    0.000    0.000 
#    0.000   24.444    0.000    0.000    0.000    0.000 
#
# Total GULP energy -446026.314535 kJ/mol
# GULP energy per Si atom -12389.619848 kJ/mol
# Density = 1.765743 g / cm^3
# Si number density = 17.697714 Si / 1000 Ang^3
#
#
#
# Elastic Constant Matrix: (Units=GPa)
#
#
# Indices 1 2 3 4 5 6 
#
# 1 94.3230 68.4826 22.9292 0.0000 0.0000 0.0000
# 2 68.4826 176.7263 47.0743 0.0000 0.0000 0.0000
# 3 22.9292 47.0743 91.5801 0.0000 0.0000 0.0000
# 4 0.0000 0.0000 0.0000 34.6638 0.0000 0.0000
# 5 0.0000 0.0000 0.0000 0.0000-1613.5135 0.0000
# 6 0.0000 0.0000 0.0000 0.0000 0.0000 18.8928
#
#
#
# Elastic Compliance Matrix: (Units=1/GPa)
#
#
# Indices 1 2 3 4 5 6 
#
# 1 0.014813 -0.005506 -0.000879 0.000000 0.000000 0.000000
# 2 -0.005506 0.008603 -0.003043 0.000000 0.000000 0.000000
# 3 -0.000879 -0.003043 0.012704 0.000000 0.000000 0.000000
# 4 0.000000 0.000000 0.000000 0.028849 0.000000 0.000000
# 5 0.000000 0.000000 0.000000 0.000000 -0.000620 0.000000
# 6 0.000000 0.000000 0.000000 0.000000 0.000000 0.052930
#
#
# Mechanical properties :
#
#
# Convention : Reuss Voigt Hill
#
# Bulk Modulus (GPa) = 57.92584 71.06684 64.49634
# Shear Modulus (GPa) = 35.23865 -297.04852 -130.90493
#
# Velocity S-wave (km/s) = 4.46706 -12.96958 -8.60975
# Velocity P-wave (km/s) = 7.70765 13.56602 7.89395
#
# Compressibility (1/GPa) = 0.01726345
#
# Stress axis : x y z
#
# Youngs Moduli (GPa) = 67.50757 116.24084 78.71681
#
# Poissons Ratio (x) = 0.64004 0.06915
# Poissons Ratio (y) = 0.37171 0.23957
# Poissons Ratio (z) = 0.05931 0.35377
#
# Static dielectric constant tensor:
#      x y z
#    x 3.125580 0.000000 0.000000 
#    y 0.000000 4.181070 0.000000 
#    z 0.000000 0.000000 3.263130 
# 
# 
# High freq. dielectric constant tensor:
#      x y z
#    x 1.653800 0.000000 0.000000 
#    y 0.000000 1.703150 0.000000 
#    z 0.000000 0.000000 1.673290 
# 
# From -- ./inp_files/23746.got.cif
#   From: 2010.06.25/outbox.cif.g09.slc.cpg/sg71_12_cif.got.tgz:23746.got - 2010.06.28 04:59:45.
