data_PCOD8292123
_publ_section_title
;
Structure prediction by ZEFSAII (Michael W. Deem and Ramdas Pophale) SiO2 
 PCOD8292123
Probable space group: I M M M
;
_chemical_formula_sum "Si O2"
_cell_formula_units_Z 88
_cell_length_a 26.984436
_cell_length_b 19.017124
_cell_length_c 8.820586
_cell_angle_alpha 90.000000
_cell_angle_beta 90.000000
_cell_angle_gamma 90.000000
_cell_volume 4526.428059
_symmetry_space_group_name_H-M "I M M M"
_symmetry_group_IT_number 71
_symmetry_cell_setting 'orthorhombic'
loop_
_space_group_symop_operation_xyz
x,y,z
-x,-y,z
x,-y,-z
-x,y,-z
-x,-y,-z
x,y,-z
-x,y,z
x,-y,z
1/2+x,1/2+y,1/2+z
1/2-x,1/2-y,1/2+z
1/2+x,1/2-y,1/2-z
1/2-x,1/2+y,1/2-z
1/2-x,1/2-y,1/2-z
1/2+x,1/2+y,1/2-z
1/2-x,1/2+y,1/2+z
1/2+x,1/2-y,1/2+z
loop_
_atom_site_type_symbol
_atom_site_label
_atom_site_fract_x
_atom_site_fract_y
_atom_site_fract_z
Si Si1 0.725533 0.317135 0.324110
Si Si2 0.000000 0.420450 0.180187
Si Si3 0.402463 0.839452 0.321262
Si Si4 0.058254 0.079584 0.171294
Si Si5 0.621594 0.307686 0.176731
Si Si6 0.186452 0.581083 0.325764
O O1 0.717600 0.301451 0.500000
O O2 0.750000 0.250000 0.250000
O O3 0.672962 0.331909 0.249557
O O4 0.760220 0.384338 0.295799
O O5 0.951253 0.379844 0.239218
O O6 0.000000 0.500000 0.245927
O O7 0.000000 0.423438 0.000000
O O8 0.405012 0.828577 0.500000
O O9 0.399928 0.763773 0.244904
O O10 0.354295 0.884555 0.281623
O O11 0.082992 0.130341 0.293109
O O12 0.000000 0.086374 0.191182
O O13 0.075464 0.000000 0.204323
O O14 0.073675 0.101037 0.000000
O O15 0.629695 0.296070 0.000000
O O16 0.170206 0.592119 0.500000
O O17 0.191524 0.500000 0.282436
#
# Coordination Sequence:
#
# PCOD8292123 Si02
#       6
#    16   8  16  16  16  16
#     4  11  22  39  62  87 119 160 200 247 301 355
#     4   9  20  38  59  87 120 153 196 251 303 352
#     4  11  22  38  62  89 119 160 206 252 298 355
#     4   9  20  41  67  92 120 157 202 251 305 365
#     4  12  25  39  59  90 127 163 202 252 301 359
#     4  10  22  40  62  89 121 155 194 245 306 368
#
# _framework density 19.441379999999999
#
# number of rings (size 3 to 8) (size 9 to 14) (size 15 to 20)
#    0.000    1.545    1.818    3.818    1.273    3.273 
#    0.000    4.091    0.000    3.273    0.000    0.000 
#    0.000    0.000    0.000    0.000    0.000    0.000 
#
# Total GULP energy -545794.058380 kJ/mol
# GULP energy per Si atom -12404.410418 kJ/mol
# Density = 1.939713 g / cm^3
# Si number density = 19.441380 Si / 1000 Ang^3
#
#
#
# Elastic Constant Matrix: (Units=GPa)
#
#
# Indices 1 2 3 4 5 6 
#
# 1 109.2538 65.5832 47.9696 0.0000 0.0000 0.0000
# 2 65.5832 141.4157 52.0512 0.0000 0.0000 0.0000
# 3 47.9696 52.0512 101.9071 0.0000 0.0000 0.0000
# 4 0.0000 0.0000 0.0000 28.7784 0.0000 0.0000
# 5 0.0000 0.0000 0.0000 0.0000 32.4489 0.0000
# 6 0.0000 0.0000 0.0000 0.0000 0.0000 37.7518
#
#
#
# Elastic Compliance Matrix: (Units=1/GPa)
#
#
# Indices 1 2 3 4 5 6 
#
# 1 0.013893 -0.004971 -0.004001 0.000000 0.000000 0.000000
# 2 -0.004971 0.010487 -0.003017 0.000000 0.000000 0.000000
# 3 -0.004001 -0.003017 0.013237 0.000000 0.000000 0.000000
# 4 0.000000 0.000000 0.000000 0.034748 0.000000 0.000000
# 5 0.000000 0.000000 0.000000 0.000000 0.030818 0.000000
# 6 0.000000 0.000000 0.000000 0.000000 0.000000 0.026489
#
#
# Mechanical properties :
#
#
# Convention : Reuss Voigt Hill
#
# Bulk Modulus (GPa) = 73.30958 75.97605 74.64282
# Shear Modulus (GPa) = 31.60640 32.26065 31.93353
#
# Velocity S-wave (km/s) = 4.03641 4.07797 4.05724
# Velocity P-wave (km/s) = 7.71449 7.83183 7.77338
#
# Compressibility (1/GPa) = 0.01364078
#
# Stress axis : x y z
#
# Youngs Moduli (GPa) = 71.97612 95.35748 75.54541
#
# Poissons Ratio (x) = 0.47398 0.30227
# Poissons Ratio (y) = 0.35776 0.22789
# Poissons Ratio (z) = 0.28798 0.28766
#
# Static dielectric constant tensor:
#      x y z
#    x 3.455780 0.000000 0.000000 
#    y 0.000000 3.714290 0.000000 
#    z 0.000000 0.000000 3.453410 
# 
# 
# High freq. dielectric constant tensor:
#      x y z
#    x 1.765850 0.000000 0.000000 
#    y 0.000000 1.769190 0.000000 
#    z 0.000000 0.000000 1.751300 
# 
# From -- ./inp_files/16624.got.cif
#   From: 2010.06.25/outbox.cif.g09.slc.cpg/sg71_9_cif.got.tgz:16624.got - 2010.06.28 04:59:45.
