data_PCOD8292480
_publ_section_title
;
Structure prediction by ZEFSAII (Michael W. Deem and Ramdas Pophale) SiO2 
 PCOD8292480
Probable space group: I M M M
;
_chemical_formula_sum "Si O2"
_cell_formula_units_Z 72
_cell_length_a 8.551851
_cell_length_b 15.607405
_cell_length_c 26.976500
_cell_angle_alpha 90.000000
_cell_angle_beta 90.000000
_cell_angle_gamma 90.000000
_cell_volume 3600.612859
_symmetry_space_group_name_H-M "I M M M"
_symmetry_group_IT_number 71
_symmetry_cell_setting 'orthorhombic'
loop_
_space_group_symop_operation_xyz
x,y,z
-x,-y,z
x,-y,-z
-x,y,-z
-x,-y,-z
x,y,-z
-x,y,z
x,-y,z
1/2+x,1/2+y,1/2+z
1/2-x,1/2-y,1/2+z
1/2+x,1/2-y,1/2-z
1/2-x,1/2+y,1/2-z
1/2-x,1/2-y,1/2-z
1/2+x,1/2+y,1/2-z
1/2-x,1/2+y,1/2+z
1/2+x,1/2-y,1/2+z
loop_
_atom_site_type_symbol
_atom_site_label
_atom_site_fract_x
_atom_site_fract_y
_atom_site_fract_z
Si Si1 0.186166 0.500000 0.278126
Si Si2 0.186596 0.500000 0.389778
Si Si3 0.817689 0.500000 0.941581
Si Si4 0.184751 0.667756 0.222545
Si Si5 0.314872 0.336373 0.887043
Si Si6 0.313907 0.168654 0.055649
O O1 0.251789 0.500000 0.333954
O O2 0.250542 0.583807 0.250274
O O3 0.000000 0.500000 0.278371
O O4 0.251656 0.583991 0.417463
O O5 0.000000 0.500000 0.389923
O O6 0.737048 0.582782 0.918770
O O7 0.000000 0.500000 0.928084
O O8 0.788016 0.500000 0.000000
O O9 0.250000 0.750000 0.250000
O O10 0.237331 0.662856 0.166278
O O11 0.000000 0.670740 0.225304
O O12 0.500000 0.336294 0.880787
O O13 0.254329 0.251815 0.915117
O O14 0.500000 0.166684 0.054522
O O15 0.246401 0.171634 0.000000
#
# Coordination Sequence:
#
# PCOD8292480 Si02
#       6
#     8   8   8  16  16  16
#     4   9  19  34  53  77 108 145 182 229 286 338
#     4   9  15  27  48  75 108 141 174 215 270 332
#     4  11  24  41  60  84 116 155 198 245 300 358
#     4  11  22  38  59  84 116 153 194 240 292 349
#     4  11  22  37  58  84 115 151 193 240 290 346
#     4   9  17  29  49  79 111 141 176 222 276 335
#
# _framework density 19.996596
#
# number of rings (size 3 to 8) (size 9 to 14) (size 15 to 20)
#    0.000    1.889    0.000    4.667    0.000    7.556 
#    0.000    1.667    0.000    0.000    0.000    2.333 
#    0.000   10.667    0.000    0.000    0.000    0.000 
#
# Total GULP energy -446499.785678 kJ/mol
# GULP energy per Si atom -12402.771824 kJ/mol
# Density = 1.995108 g / cm^3
# Si number density = 19.996596 Si / 1000 Ang^3
#
#
#
# Elastic Constant Matrix: (Units=GPa)
#
#
# Indices 1 2 3 4 5 6 
#
# 1 38.4088 24.0726 14.6947 0.0000 0.0000 0.0000
# 2 24.0726 207.8905 90.3576 0.0000 0.0000 0.0000
# 3 14.6947 90.3576 170.6050 0.0000 0.0000 0.0000
# 4 0.0000 0.0000 0.0000 56.9454 0.0000 0.0000
# 5 0.0000 0.0000 0.0000 0.0000 29.3627 0.0000
# 6 0.0000 0.0000 0.0000 0.0000 0.0000 15.6900
#
#
#
# Elastic Compliance Matrix: (Units=1/GPa)
#
#
# Indices 1 2 3 4 5 6 
#
# 1 0.028181 -0.002869 -0.000908 0.000000 0.000000 0.000000
# 2 -0.002869 0.006541 -0.003217 0.000000 0.000000 0.000000
# 3 -0.000908 -0.003217 0.007644 0.000000 0.000000 0.000000
# 4 0.000000 0.000000 0.000000 0.017561 0.000000 0.000000
# 5 0.000000 0.000000 0.000000 0.000000 0.034057 0.000000
# 6 0.000000 0.000000 0.000000 0.000000 0.000000 0.063735
#
#
# Mechanical properties :
#
#
# Convention : Reuss Voigt Hill
#
# Bulk Modulus (GPa) = 35.23873 75.01714 55.12794
# Shear Modulus (GPa) = 27.59927 39.58491 33.59209
#
# Velocity S-wave (km/s) = 3.71913 4.45408 4.10309
# Velocity P-wave (km/s) = 6.00860 8.00301 7.07642
#
# Compressibility (1/GPa) = 0.02837787
#
# Stress axis : x y z
#
# Youngs Moduli (GPa) = 35.48499 152.89007 130.82920
#
# Poissons Ratio (x) = 0.43857 0.11880
# Poissons Ratio (y) = 0.10179 0.42088
# Poissons Ratio (z) = 0.03222 0.49186
#
# Static dielectric constant tensor:
#      x y z
#    x 3.293460 0.000000 0.000000 
#    y 0.000000 4.002600 0.000000 
#    z 0.000000 0.000000 3.817730 
# 
# 
# High freq. dielectric constant tensor:
#      x y z
#    x 1.742180 0.000000 0.000000 
#    y 0.000000 1.803450 0.000000 
#    z 0.000000 0.000000 1.802820 
# 
# From -- ./inp_files/6176.got.cif
#   From: 2010.06.25/outbox.cif.g09.slc.cpg/sg71_4_cif.got.tgz:6176.got - 2010.06.28 04:59:45.
