data_PCOD8292513
_publ_section_title
;
Structure prediction by ZEFSAII (Michael W. Deem and Ramdas Pophale) SiO2 
 PCOD8292513
Probable space group: I M M M
;
_chemical_formula_sum "Si O2"
_cell_formula_units_Z 64
_cell_length_a 27.772244
_cell_length_b 11.376039
_cell_length_c 10.194465
_cell_angle_alpha 90.000000
_cell_angle_beta 90.000000
_cell_angle_gamma 90.000000
_cell_volume 3220.820217
_symmetry_space_group_name_H-M "I M M M"
_symmetry_group_IT_number 71
_symmetry_cell_setting 'orthorhombic'
loop_
_space_group_symop_operation_xyz
x,y,z
-x,-y,z
x,-y,-z
-x,y,-z
-x,-y,-z
x,y,-z
-x,y,z
x,-y,z
1/2+x,1/2+y,1/2+z
1/2-x,1/2-y,1/2+z
1/2+x,1/2-y,1/2-z
1/2-x,1/2+y,1/2-z
1/2-x,1/2-y,1/2-z
1/2+x,1/2+y,1/2-z
1/2-x,1/2+y,1/2+z
1/2+x,1/2-y,1/2+z
loop_
_atom_site_type_symbol
_atom_site_label
_atom_site_fract_x
_atom_site_fract_y
_atom_site_fract_z
Si Si1 0.335111 0.000000 0.000000
Si Si2 0.914679 0.500000 0.281932
Si Si3 0.202461 0.247343 0.500000
Si Si4 0.053830 0.751566 0.651326
Si Si5 0.813978 0.259564 0.000000
Si Si6 0.870984 0.500000 0.000000
Si Si7 0.852268 0.861248 0.743655
O O1 0.300700 0.112098 0.000000
O O2 0.366036 0.000000 0.132976
O O3 0.945721 0.613657 0.317075
O O4 0.904163 0.500000 0.127848
O O5 0.257766 0.211838 0.500000
O O6 0.176864 0.196502 0.626743
O O7 0.067891 0.771543 0.500000
O O8 0.091730 0.822664 0.739598
O O9 0.000000 0.798961 0.680382
O O10 0.828704 0.182927 0.123831
O O11 0.838554 0.385278 0.000000
O O12 0.848562 0.000000 0.734053
#
# Coordination Sequence:
#
# PCOD8292513 Si02
#       7
#     4   8   8  16   8   4  16
#     4  12  20  40  73  90 134 164 217 282 318 368
#     4  12  19  41  62 101 132 166 210 272 326 380
#     4  12  25  44  69  98 127 172 227 271 320 374
#     4  11  22  40  69 100 128 168 216 269 329 384
#     4  12  27  46  65  98 131 180 215 265 330 388
#     4  12  24  40  71  90 136 168 213 272 326 374
#     4  12  25  45  66  96 138 172 218 269 319 388
#
# _framework density 19.870715000000001
#
# number of rings (size 3 to 8) (size 9 to 14) (size 15 to 20)
#    0.000    0.250    7.500    1.875    3.500    1.500 
#    0.000    4.375    0.000    1.500    0.000    0.000 
#    0.000    0.000    0.000    0.000    0.000    0.000 
#
# Total GULP energy -396972.017469 kJ/mol
# GULP energy per Si atom -12405.375546 kJ/mol
# Density = 1.982549 g / cm^3
# Si number density = 19.870715 Si / 1000 Ang^3
#
#
#
# Elastic Constant Matrix: (Units=GPa)
#
#
# Indices 1 2 3 4 5 6 
#
# 1 116.8938 22.5241 38.4155 0.0000 0.0000 0.0000
# 2 22.5241 130.4175 13.4986 0.0000 0.0000 0.0000
# 3 38.4155 13.4986 112.3071 0.0000 0.0000 0.0000
# 4 0.0000 0.0000 0.0000 39.6841 0.0000 0.0000
# 5 0.0000 0.0000 0.0000 0.0000 -16.7315 0.0000
# 6 0.0000 0.0000 0.0000 0.0000 0.0000 113.4911
#
#
#
# Elastic Compliance Matrix: (Units=1/GPa)
#
#
# Indices 1 2 3 4 5 6 
#
# 1 0.009875 -0.001373 -0.003213 0.000000 0.000000 0.000000
# 2 -0.001373 0.007955 -0.000487 0.000000 0.000000 0.000000
# 3 -0.003213 -0.000487 0.010062 0.000000 0.000000 0.000000
# 4 0.000000 0.000000 0.000000 0.025199 0.000000 0.000000
# 5 0.000000 0.000000 0.000000 0.000000 -0.059768 0.000000
# 6 0.000000 0.000000 0.000000 0.000000 0.000000 0.008811
#
#
# Mechanical properties :
#
#
# Convention : Reuss Voigt Hill
#
# Bulk Modulus (GPa) = 56.34676 56.49941 56.42309
# Shear Modulus (GPa) = 274.79987 46.30077 160.55032
#
# Velocity S-wave (km/s) = 11.77260 4.83235 8.99849
# Velocity P-wave (km/s) = 14.60173 7.72209 11.67992
#
# Compressibility (1/GPa) = 0.01774725
#
# Stress axis : x y z
#
# Youngs Moduli (GPa) = 101.26390 125.70457 99.38758
#
# Poissons Ratio (x) = 0.17259 0.31932
# Poissons Ratio (y) = 0.13903 0.04835
# Poissons Ratio (z) = 0.32535 0.06116
#
# Static dielectric constant tensor:
#      x y z
#    x 3.645550 0.000000 0.000000 
#    y 0.000000 3.756470 0.000000 
#    z 0.000000 0.000000 3.886170 
# 
# 
# High freq. dielectric constant tensor:
#      x y z
#    x 1.781100 0.000000 0.000000 
#    y 0.000000 1.784720 0.000000 
#    z 0.000000 0.000000 1.781090 
# 
# From -- ./inp_files/16248.got.cif
#   From: 2010.06.25/outbox.cif.g09.slc.cpg/sg71_9_cif.got.tgz:16248.got - 2010.06.28 04:59:45.
