data_PCOD8292632
_publ_section_title
;
Structure prediction by ZEFSAII (Michael W. Deem and Ramdas Pophale) SiO2 
 PCOD8292632
Probable space group: I M M M
;
_chemical_formula_sum "Si O2"
_cell_formula_units_Z 104
_cell_length_a 31.287339
_cell_length_b 28.386815
_cell_length_c 10.018758
_cell_angle_alpha 90.000000
_cell_angle_beta 90.000000
_cell_angle_gamma 90.000000
_cell_volume 8898.138919
_symmetry_space_group_name_H-M "I M M M"
_symmetry_group_IT_number 71
_symmetry_cell_setting 'orthorhombic'
loop_
_space_group_symop_operation_xyz
x,y,z
-x,-y,z
x,-y,-z
-x,y,-z
-x,-y,-z
x,y,-z
-x,y,z
x,-y,z
1/2+x,1/2+y,1/2+z
1/2-x,1/2-y,1/2+z
1/2+x,1/2-y,1/2-z
1/2-x,1/2+y,1/2-z
1/2-x,1/2-y,1/2-z
1/2+x,1/2+y,1/2-z
1/2-x,1/2+y,1/2+z
1/2+x,1/2-y,1/2+z
loop_
_atom_site_type_symbol
_atom_site_label
_atom_site_fract_x
_atom_site_fract_y
_atom_site_fract_z
Si Si1 0.305427 0.779888 0.149573
Si Si2 0.161695 0.869176 0.350439
Si Si3 0.744567 0.317732 0.850564
Si Si4 0.402076 0.408199 0.654477
Si Si5 0.888146 0.771663 0.350652
Si Si6 0.547697 0.500000 0.341803
Si Si7 0.450606 0.311602 0.347268
O O1 0.279575 0.731610 0.157497
O O2 0.284811 0.818113 0.249857
O O3 0.354855 0.769817 0.188717
O O4 0.302860 0.800576 0.000000
O O5 0.158755 0.890781 0.500000
O O6 0.211214 0.859242 0.312235
O O7 0.141011 0.904367 0.242527
O O8 0.136683 0.820468 0.346706
O O9 0.762151 0.325820 0.000000
O O10 0.388408 0.412927 0.500000
O O11 0.427361 0.453751 0.706833
O O12 0.432942 0.363895 0.676926
O O13 0.906232 0.762935 0.500000
O O14 0.926831 0.773197 0.245200
O O15 0.500000 0.500000 0.279659
O O16 0.544139 0.500000 0.500000
O O17 0.443584 0.296182 0.500000
O O18 0.500000 0.311835 0.307509
#
# Coordination Sequence:
#
# PCOD8292632 Si02
#       7
#    16  16  16  16  16   8  16
#     4   8  13  20  29  42  59  75  91 111 130 152
#     4   8  14  24  34  44  60  77  90 108 135 167
#     4   8  13  20  30  43  58  76  93 106 126 158
#     4   9  16  25  37  49  58  71  92 117 147 184
#     4   8  14  23  32  42  57  76  94 111 136 168
#     4   9  16  26  39  51  61  73  91 119 155 191
#     4   9  16  24  33  45  58  71  92 122 150 176
#
# _framework density 11.687837
#
# number of rings (size 3 to 8) (size 9 to 14) (size 15 to 20)
#    0.000    3.615    0.000    2.308    0.000    3.385 
#    0.000    6.538    0.000    1.846    0.000    0.000 
#    0.000    0.000    0.000    0.000    0.000    0.000 
#
# Total GULP energy -644373.391110 kJ/mol
# GULP energy per Si atom -12391.795983 kJ/mol
# Density = 1.166124 g / cm^3
# Si number density = 11.687837 Si / 1000 Ang^3
#
#
#
# Elastic Constant Matrix: (Units=GPa)
#
#
# Indices 1 2 3 4 5 6 
#
# 1 76.2375 34.7675 59.3404 0.0000 0.0000 0.0000
# 2 34.7675 24.6575 29.1922 0.0000 0.0000 0.0000
# 3 59.3404 29.1922 77.2069 0.0000 0.0000 0.0000
# 4 0.0000 0.0000 0.0000 9.7183 0.0000 0.0000
# 5 0.0000 0.0000 0.0000 0.0000 22.9577 0.0000
# 6 0.0000 0.0000 0.0000 0.0000 0.0000 18.2532
#
#
#
# Elastic Compliance Matrix: (Units=1/GPa)
#
#
# Indices 1 2 3 4 5 6 
#
# 1 0.051373 -0.046510 -0.021899 0.000000 0.000000 0.000000
# 2 -0.046510 0.115530 -0.007935 0.000000 0.000000 0.000000
# 3 -0.021899 -0.007935 0.032784 0.000000 0.000000 0.000000
# 4 0.000000 0.000000 0.000000 0.102898 0.000000 0.000000
# 5 0.000000 0.000000 0.000000 0.000000 0.043558 0.000000
# 6 0.000000 0.000000 0.000000 0.000000 0.000000 0.054785
#
#
# Mechanical properties :
#
#
# Convention : Reuss Voigt Hill
#
# Bulk Modulus (GPa) = 21.27735 47.18912 34.23323
# Shear Modulus (GPa) = 8.78296 13.83928 11.31112
#
# Velocity S-wave (km/s) = 2.74425 3.44477 3.11427
# Velocity P-wave (km/s) = 5.31841 7.50228 6.50268
#
# Compressibility (1/GPa) = 0.04699833
#
# Stress axis : x y z
#
# Youngs Moduli (GPa) = 19.46553 8.65573 30.50281
#
# Poissons Ratio (x) = 0.40258 0.66798
# Poissons Ratio (y) = 0.90535 0.24205
# Poissons Ratio (z) = 0.42627 0.06868
#
# Static dielectric constant tensor:
#      x y z
#    x 2.555250 0.000000 0.000000 
#    y 0.000000 2.115410 0.000000 
#    z 0.000000 0.000000 2.610630 
# 
# 
# High freq. dielectric constant tensor:
#      x y z
#    x 1.431590 0.000000 0.000000 
#    y 0.000000 1.380510 0.000000 
#    z 0.000000 0.000000 1.447950 
# 
# From -- ./inp_files/28043.got.cif
#   From: 2010.06.25/outbox.cif.g09.slc.cpg/sg71_15_cif.got.tgz:28043.got - 2010.06.28 04:59:45.
