data_PCOD8292193
_publ_section_title
;
Structure prediction by ZEFSAII (Michael W. Deem and Ramdas Pophale) SiO2 
 PCOD8292193
Probable space group: I M M M
;
_chemical_formula_sum "Si O2"
_cell_formula_units_Z 72
_cell_length_a 28.716103
_cell_length_b 12.006874
_cell_length_c 10.504388
_cell_angle_alpha 90.000000
_cell_angle_beta 90.000000
_cell_angle_gamma 90.000000
_cell_volume 3621.814561
_symmetry_space_group_name_H-M "I M M M"
_symmetry_group_IT_number 71
_symmetry_cell_setting 'orthorhombic'
loop_
_space_group_symop_operation_xyz
x,y,z
-x,-y,z
x,-y,-z
-x,y,-z
-x,-y,-z
x,y,-z
-x,y,z
x,-y,z
1/2+x,1/2+y,1/2+z
1/2-x,1/2-y,1/2+z
1/2+x,1/2-y,1/2-z
1/2-x,1/2+y,1/2-z
1/2-x,1/2-y,1/2-z
1/2+x,1/2+y,1/2-z
1/2-x,1/2+y,1/2+z
1/2+x,1/2-y,1/2+z
loop_
_atom_site_type_symbol
_atom_site_label
_atom_site_fract_x
_atom_site_fract_y
_atom_site_fract_z
Si Si1 0.944415 0.868558 0.000000
Si Si2 0.819397 0.783208 0.353255
Si Si3 0.735213 0.623936 0.361460
Si Si4 0.918378 0.260720 0.243883
Si Si5 0.500000 0.376614 0.143849
Si Si6 0.945059 0.500000 0.143875
O O1 0.918052 0.812144 0.883332
O O2 0.000000 0.839608 0.000000
O O3 0.935702 0.000000 0.000000
O O4 0.817575 0.826587 0.500000
O O5 0.782568 0.686397 0.326199
O O6 0.804108 0.874905 0.249112
O O7 0.870455 0.740926 0.320266
O O8 0.715457 0.666089 0.500000
O O9 0.752700 0.500000 0.375538
O O10 0.955890 0.200080 0.331015
O O11 0.928948 0.389970 0.218079
O O12 0.500000 0.500000 0.217428
O O13 0.500000 0.411295 0.000000
O O14 0.000000 0.500000 0.136785
O O15 0.924481 0.500000 0.000000
#
# Coordination Sequence:
#
# PCOD8292193 Si02
#       6
#     8  16  16  16   8   8
#     4  11  22  39  63  91 125 166 214 264 312 371
#     4  10  23  41  63  92 127 161 204 260 316 378
#     4   9  20  41  66  90 121 161 205 256 315 379
#     4  12  23  40  63  94 127 166 212 258 322 379
#     4  11  24  42  61  86 126 170 212 263 322 385
#     4  11  22  40  62  92 132 172 209 269 313 370
#
# _framework density 19.879538
#
# number of rings (size 3 to 8) (size 9 to 14) (size 15 to 20)
#    0.000    1.444    3.333    1.333    3.111    2.222 
#    0.000    2.222    0.000    0.000    0.000    0.000 
#    0.000    0.000    0.000    0.000    0.000    0.000 
#
# Total GULP energy -446041.922413 kJ/mol
# GULP energy per Si atom -12390.053400 kJ/mol
# Density = 1.983429 g / cm^3
# Si number density = 19.879538 Si / 1000 Ang^3
#
#
#
# Elastic Constant Matrix: (Units=GPa)
#
#
# Indices 1 2 3 4 5 6 
#
# 1 116.7570 40.5584 58.3057 0.0000 0.0000 0.0000
# 2 40.5584 131.8388 41.3716 0.0000 0.0000 0.0000
# 3 58.3057 41.3716 133.3355 0.0000 0.0000 0.0000
# 4 0.0000 0.0000 0.0000 28.2311 0.0000 0.0000
# 5 0.0000 0.0000 0.0000 0.0000 40.1592 0.0000
# 6 0.0000 0.0000 0.0000 0.0000 0.0000 15.6652
#
#
#
# Elastic Compliance Matrix: (Units=1/GPa)
#
#
# Indices 1 2 3 4 5 6 
#
# 1 0.011492 -0.002170 -0.004352 0.000000 0.000000 0.000000
# 2 -0.002170 0.008813 -0.001786 0.000000 0.000000 0.000000
# 3 -0.004352 -0.001786 0.009957 0.000000 0.000000 0.000000
# 4 0.000000 0.000000 0.000000 0.035422 0.000000 0.000000
# 5 0.000000 0.000000 0.000000 0.000000 0.024901 0.000000
# 6 0.000000 0.000000 0.000000 0.000000 0.000000 0.063836
#
#
# Mechanical properties :
#
#
# Convention : Reuss Voigt Hill
#
# Bulk Modulus (GPa) = 73.27636 73.60029 73.43832
# Shear Modulus (GPa) = 28.47642 32.92413 30.70027
#
# Velocity S-wave (km/s) = 3.78888 4.07404 3.93404
# Velocity P-wave (km/s) = 7.48872 7.69635 7.59325
#
# Compressibility (1/GPa) = 0.01364697
#
# Stress axis : x y z
#
# Youngs Moduli (GPa) = 87.01902 113.47081 100.43166
#
# Poissons Ratio (x) = 0.24619 0.43708
# Poissons Ratio (y) = 0.18880 0.17934
# Poissons Ratio (z) = 0.37871 0.20263
#
# Static dielectric constant tensor:
#      x y z
#    x 3.504750 0.000000 0.000000 
#    y 0.000000 3.579640 0.000000 
#    z 0.000000 0.000000 4.080680 
# 
# 
# High freq. dielectric constant tensor:
#      x y z
#    x 1.766550 0.000000 0.000000 
#    y 0.000000 1.777670 0.000000 
#    z 0.000000 0.000000 1.792000 
# 
# From -- ./inp_files/28383.got.cif
#   From: 2010.06.25/outbox.cif.g09.slc.cpg/sg71_15_cif.got.tgz:28383.got - 2010.06.28 04:59:45.
