data_PCOD8292613
_publ_section_title
;
Structure prediction by ZEFSAII (Michael W. Deem and Ramdas Pophale) SiO2 
 PCOD8292613
Probable space group: I M M M
;
_chemical_formula_sum "Si O2"
_cell_formula_units_Z 96
_cell_length_a 24.942985
_cell_length_b 25.320053
_cell_length_c 9.371782
_cell_angle_alpha 90.000000
_cell_angle_beta 90.000000
_cell_angle_gamma 90.000000
_cell_volume 5918.821105
_symmetry_space_group_name_H-M "I M M M"
_symmetry_group_IT_number 71
_symmetry_cell_setting 'orthorhombic'
loop_
_space_group_symop_operation_xyz
x,y,z
-x,-y,z
x,-y,-z
-x,y,-z
-x,-y,-z
x,y,-z
-x,y,z
x,-y,z
1/2+x,1/2+y,1/2+z
1/2-x,1/2-y,1/2+z
1/2+x,1/2-y,1/2-z
1/2-x,1/2+y,1/2-z
1/2-x,1/2-y,1/2-z
1/2+x,1/2+y,1/2-z
1/2-x,1/2+y,1/2+z
1/2+x,1/2-y,1/2+z
loop_
_atom_site_type_symbol
_atom_site_label
_atom_site_fract_x
_atom_site_fract_y
_atom_site_fract_z
Si Si1 0.438553 0.100154 0.664683
Si Si2 0.438310 0.500000 0.167383
Si Si3 0.562174 0.386068 0.168799
Si Si4 0.754673 0.303837 0.334902
Si Si5 0.352862 0.813130 0.665282
Si Si6 0.636088 0.308540 0.337894
Si Si7 0.063761 0.500000 0.338801
O O1 0.433085 0.083541 0.500000
O O2 0.500000 0.112980 0.704071
O O3 0.404962 0.152362 0.700102
O O4 0.415224 0.052086 0.758269
O O5 0.500000 0.500000 0.207969
O O6 0.415282 0.556265 0.224743
O O7 0.430500 0.500000 0.000000
O O8 0.500000 0.379098 0.211533
O O9 0.596177 0.339945 0.237989
O O10 0.568877 0.381984 0.000000
O O11 0.768746 0.293226 0.500000
O O12 0.750000 0.250000 0.250000
O O13 0.803143 0.335912 0.259676
O O14 0.696596 0.332026 0.321955
O O15 0.336032 0.816759 0.500000
O O16 0.366000 0.752904 0.707718
O O17 0.616221 0.314561 0.500000
O O18 0.085918 0.500000 0.500000
O O19 0.000000 0.500000 0.334698
#
# Coordination Sequence:
#
# PCOD8292613 Si02
#       7
#    16   8  16  16  16  16   8
#     4   9  17  30  48  68  91 121 154 185 220 268
#     4   7  12  26  45  62  83 112 147 184 216 249
#     4   9  17  29  46  67  89 116 150 185 221 261
#     4   9  17  30  47  65  87 117 153 188 222 262
#     4   9  18  31  47  68  92 119 151 184 221 266
#     4   9  18  30  44  66  94 120 145 178 223 269
#     4   9  17  29  45  66  91 118 151 190 228 265
#
# _framework density 16.219445
#
# number of rings (size 3 to 8) (size 9 to 14) (size 15 to 20)
#    0.000    3.167    0.000    2.750    0.000    6.000 
#    0.000    2.083    0.000    4.500    0.000    3.500 
#    0.000    0.000    0.000    0.000    0.000    0.000 
#
# Total GULP energy -594719.609731 kJ/mol
# GULP energy per Si atom -12389.991869 kJ/mol
# Density = 1.618253 g / cm^3
# Si number density = 16.219445 Si / 1000 Ang^3
#
#
#
# Elastic Constant Matrix: (Units=GPa)
#
#
# Indices 1 2 3 4 5 6 
#
# 1 87.2216 57.7973 50.4809 0.0000 0.0000 0.0000
# 2 57.7973 100.3019 47.6194 0.0000 0.0000 0.0000
# 3 50.4809 47.6194 75.6405 0.0000 0.0000 0.0000
# 4 0.0000 0.0000 0.0000 23.4052 0.0000 0.0000
# 5 0.0000 0.0000 0.0000 0.0000 28.5324 0.0000
# 6 0.0000 0.0000 0.0000 0.0000 0.0000 2.6128
#
#
#
# Elastic Compliance Matrix: (Units=1/GPa)
#
#
# Indices 1 2 3 4 5 6 
#
# 1 0.022776 -0.008426 -0.009895 0.000000 0.000000 0.000000
# 2 -0.008426 0.017337 -0.005291 0.000000 0.000000 0.000000
# 3 -0.009895 -0.005291 0.023156 0.000000 0.000000 0.000000
# 4 0.000000 0.000000 0.000000 0.042726 0.000000 0.000000
# 5 0.000000 0.000000 0.000000 0.000000 0.035048 0.000000
# 6 0.000000 0.000000 0.000000 0.000000 0.000000 0.382728
#
#
# Mechanical properties :
#
#
# Convention : Reuss Voigt Hill
#
# Bulk Modulus (GPa) = 62.33250 63.88437 63.10844
# Shear Modulus (GPa) = 8.67538 18.06117 13.36828
#
# Velocity S-wave (km/s) = 2.31525 3.34061 2.87403
# Velocity P-wave (km/s) = 6.75731 7.37242 7.07156
#
# Compressibility (1/GPa) = 0.01604299
#
# Stress axis : x y z
#
# Youngs Moduli (GPa) = 43.90624 57.67846 43.18627
#
# Poissons Ratio (x) = 0.48601 0.42734
# Poissons Ratio (y) = 0.36997 0.22851
# Poissons Ratio (z) = 0.43447 0.30519
#
# Static dielectric constant tensor:
#      x y z
#    x 3.251810 0.000000 0.000000 
#    y 0.000000 3.081430 0.000000 
#    z 0.000000 0.000000 3.116640 
# 
# 
# High freq. dielectric constant tensor:
#      x y z
#    x 1.607500 0.000000 0.000000 
#    y 0.000000 1.608420 0.000000 
#    z 0.000000 0.000000 1.620420 
# 
# From -- ./inp_files/13167.got.cif
#   From: 2010.06.25/outbox.cif.g09.slc.cpg/sg71_7_cif.got.tgz:13167.got - 2010.06.28 04:59:45.
