data_PCOD8292678
_publ_section_title
;
Structure prediction by ZEFSAII (Michael W. Deem and Ramdas Pophale) SiO2 
 PCOD8292678
Probable space group: I M M M
;
_chemical_formula_sum "Si O2"
_cell_formula_units_Z 72
_cell_length_a 9.804950
_cell_length_b 14.103805
_cell_length_c 29.023717
_cell_angle_alpha 90.000000
_cell_angle_beta 90.000000
_cell_angle_gamma 90.000000
_cell_volume 4013.605737
_symmetry_space_group_name_H-M "I M M M"
_symmetry_group_IT_number 71
_symmetry_cell_setting 'orthorhombic'
loop_
_space_group_symop_operation_xyz
x,y,z
-x,-y,z
x,-y,-z
-x,y,-z
-x,-y,-z
x,y,-z
-x,y,z
x,-y,z
1/2+x,1/2+y,1/2+z
1/2-x,1/2-y,1/2+z
1/2+x,1/2-y,1/2-z
1/2-x,1/2+y,1/2-z
1/2-x,1/2-y,1/2-z
1/2+x,1/2+y,1/2-z
1/2-x,1/2+y,1/2+z
1/2+x,1/2-y,1/2+z
loop_
_atom_site_type_symbol
_atom_site_label
_atom_site_fract_x
_atom_site_fract_y
_atom_site_fract_z
Si Si1 0.662050 0.292481 0.091280
Si Si2 0.661868 0.104136 0.865919
Si Si3 0.651991 0.112771 0.763501
Si Si4 0.337009 0.608122 0.000000
Si Si5 0.154218 0.112384 0.316116
O O1 0.500000 0.298139 0.088763
O O2 0.710808 0.182728 0.096983
O O3 0.723078 0.337697 0.044729
O O4 0.713871 0.351898 0.135215
O O5 0.500000 0.095255 0.866297
O O6 0.704673 0.139865 0.814781
O O7 0.724882 0.000000 0.877704
O O8 0.500000 0.153207 0.754366
O O9 0.755541 0.155184 0.725513
O O10 0.648664 0.000000 0.759820
O O11 0.284236 0.500000 0.000000
O O12 0.500000 0.609855 0.000000
O O13 0.000000 0.149592 0.308875
O O14 0.159010 0.000000 0.316623
#
# Coordination Sequence:
#
# PCOD8292678 Si02
#       5
#    16  16  16   8  16
#     4   9  16  25  38  56  77 103 135 169 207 247
#     4   8  14  25  39  54  75 104 136 168 201 240
#     4   8  14  25  40  57  80 112 144 169 198 241
#     4   9  16  26  39  55  78 106 133 164 206 254
#     4   9  16  25  38  59  86 111 136 170 208 243
#
# _framework density 17.938980999999998
#
# number of rings (size 3 to 8) (size 9 to 14) (size 15 to 20)
#    0.000    3.444    0.000    2.000    0.000    3.556 
#    0.000    0.556    0.000    3.333    0.000    0.778 
#    0.000    4.444    0.000    0.000    0.000   18.889 
#
# Total GULP energy -446101.356487 kJ/mol
# GULP energy per Si atom -12391.704347 kJ/mol
# Density = 1.789815 g / cm^3
# Si number density = 17.938981 Si / 1000 Ang^3
#
#
#
# Elastic Constant Matrix: (Units=GPa)
#
#
# Indices 1 2 3 4 5 6 
#
# 1 26.0786 18.0609 26.1132 0.0000 0.0000 0.0000
# 2 18.0609 83.9680 79.6593 0.0000 0.0000 0.0000
# 3 26.1132 79.6593 147.5805 0.0000 0.0000 0.0000
# 4 0.0000 0.0000 0.0000 33.5368 0.0000 0.0000
# 5 0.0000 0.0000 0.0000 0.0000 15.7991 0.0000
# 6 0.0000 0.0000 0.0000 0.0000 0.0000 5.9757
#
#
#
# Elastic Compliance Matrix: (Units=1/GPa)
#
#
# Indices 1 2 3 4 5 6 
#
# 1 0.047451 -0.004593 -0.005917 0.000000 0.000000 0.000000
# 2 -0.004593 0.024852 -0.012602 0.000000 0.000000 0.000000
# 3 -0.005917 -0.012602 0.014625 0.000000 0.000000 0.000000
# 4 0.000000 0.000000 0.000000 0.029818 0.000000 0.000000
# 5 0.000000 0.000000 0.000000 0.000000 0.063295 0.000000
# 6 0.000000 0.000000 0.000000 0.000000 0.000000 0.167345
#
#
# Mechanical properties :
#
#
# Convention : Reuss Voigt Hill
#
# Bulk Modulus (GPa) = 24.56702 56.14378 40.35540
# Shear Modulus (GPa) = 12.27964 19.98189 16.13076
#
# Velocity S-wave (km/s) = 2.61918 3.34111 3.00192
# Velocity P-wave (km/s) = 4.78239 6.80066 5.87879
#
# Compressibility (1/GPa) = 0.04070498
#
# Stress axis : x y z
#
# Youngs Moduli (GPa) = 21.07423 40.23751 68.37612
#
# Poissons Ratio (x) = 0.18482 0.40458
# Poissons Ratio (y) = 0.09680 0.86166
# Poissons Ratio (z) = 0.12469 0.50707
#
# Static dielectric constant tensor:
#      x y z
#    x 2.922670 0.000000 0.000000 
#    y 0.000000 3.526320 0.000000 
#    z 0.000000 0.000000 3.521970 
# 
# 
# High freq. dielectric constant tensor:
#      x y z
#    x 1.615980 0.000000 0.000000 
#    y 0.000000 1.708870 0.000000 
#    z 0.000000 0.000000 1.686140 
# 
# From -- ./inp_files/6454.got.cif
#   From: 2010.06.25/outbox.cif.g09.slc.cpg/sg71_4_cif.got.tgz:6454.got - 2010.06.28 04:59:45.
