data_PCOD8292255
_publ_section_title
;
Structure prediction by ZEFSAII (Michael W. Deem and Ramdas Pophale) SiO2 
 PCOD8292255
Probable space group: I M M M
;
_chemical_formula_sum "Si O2"
_cell_formula_units_Z 120
_cell_length_a 28.172207
_cell_length_b 18.253774
_cell_length_c 13.873546
_cell_angle_alpha 90.000000
_cell_angle_beta 90.000000
_cell_angle_gamma 90.000000
_cell_volume 7134.458540
_symmetry_space_group_name_H-M "I M M M"
_symmetry_group_IT_number 71
_symmetry_cell_setting 'orthorhombic'
loop_
_space_group_symop_operation_xyz
x,y,z
-x,-y,z
x,-y,-z
-x,y,-z
-x,-y,-z
x,y,-z
-x,y,z
x,-y,z
1/2+x,1/2+y,1/2+z
1/2-x,1/2-y,1/2+z
1/2+x,1/2-y,1/2-z
1/2-x,1/2+y,1/2-z
1/2-x,1/2-y,1/2-z
1/2+x,1/2+y,1/2-z
1/2-x,1/2+y,1/2+z
1/2+x,1/2-y,1/2+z
loop_
_atom_site_type_symbol
_atom_site_label
_atom_site_fract_x
_atom_site_fract_y
_atom_site_fract_z
Si Si1 0.571542 0.081934 0.609824
Si Si2 0.611973 0.859622 0.886071
Si Si3 0.707371 0.086078 0.202314
Si Si4 0.552957 0.783102 0.262464
Si Si5 0.306705 0.582536 0.613588
Si Si6 0.124813 0.791257 0.888568
Si Si7 0.174186 0.360573 0.106504
Si Si8 0.053241 0.500000 0.385809
O O1 0.554467 0.094931 0.500000
O O2 0.547422 0.141713 0.677514
O O3 0.628119 0.088648 0.615419
O O4 0.557283 0.000000 0.644596
O O5 0.666028 0.869143 0.852009
O O6 0.586436 0.792159 0.831856
O O7 0.581821 0.929395 0.850619
O O8 0.610301 0.846214 0.000000
O O9 0.757261 0.109617 0.157688
O O10 0.710806 0.109840 0.314172
O O11 0.698092 0.000000 0.188567
O O12 0.500000 0.758185 0.231589
O O13 0.576722 0.719912 0.327862
O O14 0.300560 0.587446 0.500000
O O15 0.319084 0.500000 0.647090
O O16 0.348934 0.635538 0.648341
O O17 0.160244 0.723261 0.872627
O O18 0.109923 0.797388 0.000000
O O19 0.197181 0.368010 0.000000
O O20 0.050950 0.500000 0.500000
O O21 0.000000 0.500000 0.342853
#
# Coordination Sequence:
#
# PCOD8292255 Si02
#       8
#    16  16  16  16  16  16  16   8
#     4   9  17  29  43  61  90 126 163 201 236 273
#     4  11  21  32  44  64  96 132 169 210 245 277
#     4  11  19  30  50  73  98 134 175 211 244 281
#     4  11  22  33  48  69  92 126 168 206 246 295
#     4   9  19  34  54  79 102 126 158 197 248 309
#     4   9  18  35  54  72  98 129 159 200 251 301
#     4   9  17  29  45  68  97 132 170 202 238 284
#     4   9  18  30  42  56  83 129 175 209 239 267
#
# _framework density 16.819776999999998
#
# number of rings (size 3 to 8) (size 9 to 14) (size 15 to 20)
#    0.000    2.200    3.333    2.400    0.933    4.000 
#    0.000    0.667    0.000    0.400    0.000    1.867 
#    0.000    0.000    0.000    1.200    0.000    0.000 
#
# Total GULP energy -743897.351465 kJ/mol
# GULP energy per Si atom -12398.289191 kJ/mol
# Density = 1.678149 g / cm^3
# Si number density = 16.819777 Si / 1000 Ang^3
#
#
#
# Elastic Constant Matrix: (Units=GPa)
#
#
# Indices 1 2 3 4 5 6 
#
# 1 94.3608 53.3565 42.3602 0.0000 0.0000 0.0000
# 2 53.3565 54.9386 28.5331 0.0000 0.0000 0.0000
# 3 42.3602 28.5331 71.0197 0.0000 0.0000 0.0000
# 4 0.0000 0.0000 0.0000 15.9461 0.0000 0.0000
# 5 0.0000 0.0000 0.0000 0.0000 17.5237 0.0000
# 6 0.0000 0.0000 0.0000 0.0000 0.0000 16.8099
#
#
#
# Elastic Compliance Matrix: (Units=1/GPa)
#
#
# Indices 1 2 3 4 5 6 
#
# 1 0.025825 -0.021585 -0.006731 0.000000 0.000000 0.000000
# 2 -0.021585 0.041043 -0.003615 0.000000 0.000000 0.000000
# 3 -0.006731 -0.003615 0.019548 0.000000 0.000000 0.000000
# 4 0.000000 0.000000 0.000000 0.062711 0.000000 0.000000
# 5 0.000000 0.000000 0.000000 0.000000 0.057066 0.000000
# 6 0.000000 0.000000 0.000000 0.000000 0.000000 0.059489
#
#
# Mechanical properties :
#
#
# Convention : Reuss Voigt Hill
#
# Bulk Modulus (GPa) = 44.33998 52.09096 48.21547
# Shear Modulus (GPa) = 14.83409 16.46056 15.64733
#
# Velocity S-wave (km/s) = 2.97297 3.13172 3.05338
# Velocity P-wave (km/s) = 6.18092 6.64185 6.41553
#
# Compressibility (1/GPa) = 0.02255301
#
# Stress axis : x y z
#
# Youngs Moduli (GPa) = 38.72259 24.36466 51.15638
#
# Poissons Ratio (x) = 0.52591 0.34435
# Poissons Ratio (y) = 0.83583 0.18493
# Poissons Ratio (z) = 0.26065 0.08808
#
# Static dielectric constant tensor:
#      x y z
#    x 2.987770 0.000000 0.000000 
#    y 0.000000 3.044260 0.000000 
#    z 0.000000 0.000000 3.242440 
# 
# 
# High freq. dielectric constant tensor:
#      x y z
#    x 1.627800 0.000000 0.000000 
#    y 0.000000 1.610200 0.000000 
#    z 0.000000 0.000000 1.653740 
# 
# From -- ./inp_files/40556.got.cif
#   From: 2010.06.25/outbox.cif.g09.slc.cpg/sg71_21_cif.got.tgz:40556.got - 2010.06.28 04:59:45.
