data_PCOD8292508
_publ_section_title
;
Structure prediction by ZEFSAII (Michael W. Deem and Ramdas Pophale) SiO2 
 PCOD8292508
Probable space group: I M M M
;
_chemical_formula_sum "Si O2"
_cell_formula_units_Z 66
_cell_length_a 16.731865
_cell_length_b 20.051234
_cell_length_c 10.052029
_cell_angle_alpha 90.000000
_cell_angle_beta 90.000000
_cell_angle_gamma 90.000000
_cell_volume 3372.400849
_symmetry_space_group_name_H-M "I M M M"
_symmetry_group_IT_number 71
_symmetry_cell_setting 'orthorhombic'
loop_
_space_group_symop_operation_xyz
x,y,z
-x,-y,z
x,-y,-z
-x,y,-z
-x,-y,-z
x,y,-z
-x,y,z
x,-y,z
1/2+x,1/2+y,1/2+z
1/2-x,1/2-y,1/2+z
1/2+x,1/2-y,1/2-z
1/2-x,1/2+y,1/2-z
1/2-x,1/2-y,1/2-z
1/2+x,1/2+y,1/2-z
1/2-x,1/2+y,1/2+z
1/2+x,1/2-y,1/2+z
loop_
_atom_site_type_symbol
_atom_site_label
_atom_site_fract_x
_atom_site_fract_y
_atom_site_fract_z
Si Si1 0.592961 0.125148 0.500000
Si Si2 0.352774 0.905825 0.000000
Si Si3 0.407247 0.283384 0.500000
Si Si4 0.788019 0.425766 0.213792
Si Si5 0.500000 0.000000 0.000000
Si Si6 0.319064 0.695469 0.235713
Si Si7 0.407139 0.241337 0.000000
O O1 0.500000 0.104628 0.500000
O O2 0.604375 0.204139 0.500000
O O3 0.632264 0.095214 0.633135
O O4 0.304765 0.927353 0.869873
O O5 0.357842 0.826438 0.000000
O O6 0.437356 0.940300 0.000000
O O7 0.500000 0.303147 0.500000
O O8 0.364141 0.315816 0.626117
O O9 0.762142 0.500000 0.167891
O O10 0.717380 0.374025 0.182754
O O11 0.250000 0.750000 0.250000
O O12 0.385214 0.717691 0.130817
O O13 0.500000 0.225702 0.000000
#
# Coordination Sequence:
#
# PCOD8292508 Si02
#       7
#     8   8   8  16   2  16   8
#     4  11  24  38  59  88 127 163 198 236 294 366
#     4  12  23  37  61  87 124 163 198 231 295 368
#     4  11  22  40  64  94 120 153 200 255 303 346
#     4  12  25  40  59  89 122 164 202 244 301 355
#     4  12  24  36  56  90 140 160 180 238 300 380
#     4  12  22  40  66  87 122 160 205 251 294 351
#     4  12  24  39  63  94 120 157 206 252 299 351
#
# _framework density 19.570626000000001
#
# number of rings (size 3 to 8) (size 9 to 14) (size 15 to 20)
#    0.000    0.242    6.667    3.273    1.697    2.909 
#    0.000    0.000    0.000    4.364    0.000    0.000 
#    0.000    0.000    0.000    0.000    0.000    0.000 
#
# Total GULP energy -408841.266974 kJ/mol
# GULP energy per Si atom -12389.129302 kJ/mol
# Density = 1.952608 g / cm^3
# Si number density = 19.570626 Si / 1000 Ang^3
#
#
#
# Elastic Constant Matrix: (Units=GPa)
#
#
# Indices 1 2 3 4 5 6 
#
# 1 81.9004 41.2030 23.6868 0.0000 0.0000 0.0000
# 2 41.2030 131.2307 9.4690 0.0000 0.0000 0.0000
# 3 23.6868 9.4690 109.6113 0.0000 0.0000 0.0000
# 4 0.0000 0.0000 0.0000 6.5018 0.0000 0.0000
# 5 0.0000 0.0000 0.0000 0.0000 1488.8258 0.0000
# 6 0.0000 0.0000 0.0000 0.0000 0.0000 34.3689
#
#
#
# Elastic Compliance Matrix: (Units=1/GPa)
#
#
# Indices 1 2 3 4 5 6 
#
# 1 0.015379 -0.004618 -0.002924 0.000000 0.000000 0.000000
# 2 -0.004618 0.009054 0.000216 0.000000 0.000000 0.000000
# 3 -0.002924 0.000216 0.009736 0.000000 0.000000 0.000000
# 4 0.000000 0.000000 0.000000 0.153804 0.000000 0.000000
# 5 0.000000 0.000000 0.000000 0.000000 0.000672 0.000000
# 6 0.000000 0.000000 0.000000 0.000000 0.000000 0.029096
#
#
# Mechanical properties :
#
#
# Convention : Reuss Voigt Hill
#
# Bulk Modulus (GPa) = 51.23728 52.38446 51.81087
# Shear Modulus (GPa) = 20.92929 322.49819 171.71374
#
# Velocity S-wave (km/s) = 3.27375 12.85086 9.37715
# Velocity P-wave (km/s) = 6.36612 15.71680 11.99052
#
# Compressibility (1/GPa) = 0.01951704
#
# Stress axis : x y z
#
# Youngs Moduli (GPa) = 65.02482 110.44372 102.70655
#
# Poissons Ratio (x) = 0.50997 0.30036
# Poissons Ratio (y) = 0.30025 -0.02215
# Poissons Ratio (z) = 0.19016 -0.02382
#
# Static dielectric constant tensor:
#      x y z
#    x 3.576140 0.000000 0.000000 
#    y 0.000000 3.798930 0.000000 
#    z 0.000000 0.000000 4.023680 
# 
# 
# High freq. dielectric constant tensor:
#      x y z
#    x 1.753870 0.000000 0.000000 
#    y 0.000000 1.763060 0.000000 
#    z 0.000000 0.000000 1.774210 
# 
# From -- ./inp_files/7708.got.cif
#   From: 2010.06.25/outbox.cif.g09.slc.cpg/sg71_4_cif.got.tgz:7708.got - 2010.06.28 04:59:45.
