data_PCOD8292258
_publ_section_title
;
Structure prediction by ZEFSAII (Michael W. Deem and Ramdas Pophale) SiO2 
 PCOD8292258
Probable space group: I M M M
;
_chemical_formula_sum "Si O2"
_cell_formula_units_Z 88
_cell_length_a 24.199389
_cell_length_b 29.497397
_cell_length_c 8.859248
_cell_angle_alpha 90.000000
_cell_angle_beta 90.000000
_cell_angle_gamma 90.000000
_cell_volume 6323.899411
_symmetry_space_group_name_H-M "I M M M"
_symmetry_group_IT_number 71
_symmetry_cell_setting 'orthorhombic'
loop_
_space_group_symop_operation_xyz
x,y,z
-x,-y,z
x,-y,-z
-x,y,-z
-x,-y,-z
x,y,-z
-x,y,z
x,-y,z
1/2+x,1/2+y,1/2+z
1/2-x,1/2-y,1/2+z
1/2+x,1/2-y,1/2-z
1/2-x,1/2+y,1/2-z
1/2-x,1/2-y,1/2-z
1/2+x,1/2+y,1/2-z
1/2-x,1/2+y,1/2+z
1/2+x,1/2-y,1/2+z
loop_
_atom_site_type_symbol
_atom_site_label
_atom_site_fract_x
_atom_site_fract_y
_atom_site_fract_z
Si Si1 0.619950 0.245850 0.320547
Si Si2 0.000000 0.245134 0.167284
Si Si3 0.000000 0.861667 0.830707
Si Si4 0.564504 0.500000 0.321323
Si Si5 0.281488 0.790854 0.174150
Si Si6 0.175668 0.159480 0.174164
Si Si7 0.101085 0.908365 0.678298
O O1 0.620030 0.242118 0.500000
O O2 0.557495 0.239382 0.253572
O O3 0.658186 0.205503 0.252413
O O4 0.643797 0.294962 0.271847
O O5 0.000000 0.191489 0.155130
O O6 0.000000 0.266055 0.000000
O O7 0.946997 0.876404 0.738361
O O8 0.000000 0.883524 0.000000
O O9 0.500000 0.500000 0.271446
O O10 0.569899 0.500000 0.500000
O O11 0.596322 0.457144 0.254490
O O12 0.250000 0.750000 0.250000
O O13 0.242248 0.834940 0.194709
O O14 0.290369 0.779634 0.000000
O O15 0.158069 0.116333 0.274358
O O16 0.160496 0.149864 0.000000
O O17 0.097688 0.914088 0.500000
#
# Coordination Sequence:
#
# PCOD8292258 Si02
#       7
#    16   8   8   8  16  16  16
#     4   9  16  27  42  59  79 105 135 166 198 238
#     4   9  16  27  42  58  79 109 139 165 199 246
#     4  11  19  32  46  55  77 109 138 162 201 257
#     4  11  23  37  51  59  74 110 138 157 202 261
#     4   9  17  28  41  57  77 102 130 164 201 237
#     4   9  17  30  45  57  75 106 136 161 200 253
#     4  12  23  32  45  65  82  96 128 177 215 240
#
# _framework density 13.915464
#
# number of rings (size 3 to 8) (size 9 to 14) (size 15 to 20)
#    0.000    2.091    2.727    3.818    0.000    4.000 
#    0.000    0.455    0.000    0.000    0.000    0.000 
#    0.000    0.000    0.000    0.000    0.000    0.909 
#
# Total GULP energy -545253.498577 kJ/mol
# GULP energy per Si atom -12392.124968 kJ/mol
# Density = 1.388379 g / cm^3
# Si number density = 13.915464 Si / 1000 Ang^3
#
#
#
# Elastic Constant Matrix: (Units=GPa)
#
#
# Indices 1 2 3 4 5 6 
#
# 1 117.5935 39.9494 35.6922 0.0000 0.0000 0.0000
# 2 39.9494 45.1564 27.3088 0.0000 0.0000 0.0000
# 3 35.6922 27.3088 65.7702 0.0000 0.0000 0.0000
# 4 0.0000 0.0000 0.0000 17.2937 0.0000 0.0000
# 5 0.0000 0.0000 0.0000 0.0000 18.3484 0.0000
# 6 0.0000 0.0000 0.0000 0.0000 0.0000 58.6056
#
#
#
# Elastic Compliance Matrix: (Units=1/GPa)
#
#
# Indices 1 2 3 4 5 6 
#
# 1 0.012571 -0.009341 -0.002943 0.000000 0.000000 0.000000
# 2 -0.009341 0.036512 -0.010091 0.000000 0.000000 0.000000
# 3 -0.002943 -0.010091 0.020992 0.000000 0.000000 0.000000
# 4 0.000000 0.000000 0.000000 0.057825 0.000000 0.000000
# 5 0.000000 0.000000 0.000000 0.000000 0.054501 0.000000
# 6 0.000000 0.000000 0.000000 0.000000 0.000000 0.017063
#
#
# Mechanical properties :
#
#
# Convention : Reuss Voigt Hill
#
# Bulk Modulus (GPa) = 39.48929 48.26898 43.87914
# Shear Modulus (GPa) = 19.78982 27.22084 23.50533
#
# Velocity S-wave (km/s) = 3.77523 4.42765 4.11439
# Velocity P-wave (km/s) = 6.88787 7.80393 7.36016
#
# Compressibility (1/GPa) = 0.02532332
#
# Stress axis : x y z
#
# Youngs Moduli (GPa) = 79.55046 27.38821 47.63792
#
# Poissons Ratio (x) = 0.25584 0.14021
# Poissons Ratio (y) = 0.74310 0.48072
# Poissons Ratio (z) = 0.23413 0.27638
#
# Static dielectric constant tensor:
#      x y z
#    x 3.228000 0.000000 0.000000 
#    y 0.000000 2.517610 0.000000 
#    z 0.000000 0.000000 2.819760 
# 
# 
# High freq. dielectric constant tensor:
#      x y z
#    x 1.528150 0.000000 0.000000 
#    y 0.000000 1.478700 0.000000 
#    z 0.000000 0.000000 1.534560 
# 
# From -- ./inp_files/13574.got.cif
#   From: 2010.06.25/outbox.cif.g09.slc.cpg/sg71_7_cif.got.tgz:13574.got - 2010.06.28 04:59:45.
