data_PCOD8292029
_publ_section_title
;
Structure prediction by ZEFSAII (Michael W. Deem and Ramdas Pophale) SiO2 
 PCOD8292029
Probable space group: I M M M
;
_chemical_formula_sum "Si O2"
_cell_formula_units_Z 88
_cell_length_a 17.392703
_cell_length_b 7.557948
_cell_length_c 32.793286
_cell_angle_alpha 90.000000
_cell_angle_beta 90.000000
_cell_angle_gamma 90.000000
_cell_volume 4310.780575
_symmetry_space_group_name_H-M "I M M M"
_symmetry_group_IT_number 71
_symmetry_cell_setting 'orthorhombic'
loop_
_space_group_symop_operation_xyz
x,y,z
-x,-y,z
x,-y,-z
-x,y,-z
-x,-y,-z
x,y,-z
-x,y,z
x,-y,z
1/2+x,1/2+y,1/2+z
1/2-x,1/2-y,1/2+z
1/2+x,1/2-y,1/2-z
1/2-x,1/2+y,1/2-z
1/2-x,1/2-y,1/2-z
1/2+x,1/2+y,1/2-z
1/2-x,1/2+y,1/2+z
1/2+x,1/2-y,1/2+z
loop_
_atom_site_type_symbol
_atom_site_label
_atom_site_fract_x
_atom_site_fract_y
_atom_site_fract_z
Si Si1 0.139663 0.210267 0.170095
Si Si2 0.159723 0.299728 0.580239
Si Si3 0.587379 0.000000 0.608826
Si Si4 0.183668 0.295933 0.329805
Si Si5 0.229526 0.500000 0.952217
Si Si6 0.417314 0.699998 0.244122
Si Si7 0.000000 0.804161 0.547732
O O1 0.096669 0.321426 0.135357
O O2 0.228543 0.260850 0.167807
O O3 0.113629 0.285894 0.214151
O O4 0.125652 0.000000 0.163002
O O5 0.193128 0.500000 0.578370
O O6 0.147084 0.240416 0.627052
O O7 0.076124 0.299925 0.560241
O O8 0.219943 0.173224 0.557702
O O9 0.500000 0.000000 0.591301
O O10 0.649176 0.000000 0.572100
O O11 0.173479 0.500000 0.320052
O O12 0.141686 0.199746 0.292988
O O13 0.209813 0.500000 0.000000
O O14 0.500000 0.786720 0.231937
O O15 0.430914 0.500000 0.256501
O O16 0.000000 0.821569 0.500000
O O17 0.000000 0.000000 0.567613
#
# Coordination Sequence:
#
# PCOD8292029 Si02
#       7
#    16  16   8  16   8  16   8
#     4  10  22  43  65  92 127 166 219 267 312 383
#     4  11  24  43  66  95 132 175 222 266 322 389
#     4  12  26  43  73 101 126 170 213 267 344 403
#     4  10  22  38  60  89 121 167 214 264 318 370
#     4  12  26  46  72 100 131 165 212 276 334 404
#     4  10  22  36  56  88 128 173 214 262 320 370
#     4  11  23  39  63  96 131 171 218 269 325 384
#
# _framework density 20.413937000000001
#
# number of rings (size 3 to 8) (size 9 to 14) (size 15 to 20)
#    0.000    1.364    2.727    1.909    5.091    3.455 
#    0.000    0.000    0.000    0.000    0.000    2.545 
#    0.000    0.000    0.000    0.000    0.000    0.000 
#
# Total GULP energy -545468.349121 kJ/mol
# GULP energy per Si atom -12397.007935 kJ/mol
# Density = 2.036747 g / cm^3
# Si number density = 20.413937 Si / 1000 Ang^3
#
#
#
# Elastic Constant Matrix: (Units=GPa)
#
#
# Indices 1 2 3 4 5 6 
#
# 1 142.7129 35.8127 57.8036 0.0000 0.0000 0.0000
# 2 35.8127 84.7281 42.0485 0.0000 0.0000 0.0000
# 3 57.8036 42.0485 136.2316 0.0000 0.0000 0.0000
# 4 0.0000 0.0000 0.0000 22.7100 0.0000 0.0000
# 5 0.0000 0.0000 0.0000 0.0000 24.9677 0.0000
# 6 0.0000 0.0000 0.0000 0.0000 0.0000 36.0854
#
#
#
# Elastic Compliance Matrix: (Units=1/GPa)
#
#
# Indices 1 2 3 4 5 6 
#
# 1 0.008796 -0.002203 -0.003052 0.000000 0.000000 0.000000
# 2 -0.002203 0.014489 -0.003537 0.000000 0.000000 0.000000
# 3 -0.003052 -0.003537 0.009727 0.000000 0.000000 0.000000
# 4 0.000000 0.000000 0.000000 0.044033 0.000000 0.000000
# 5 0.000000 0.000000 0.000000 0.000000 0.040052 0.000000
# 6 0.000000 0.000000 0.000000 0.000000 0.000000 0.027712
#
#
# Mechanical properties :
#
#
# Convention : Reuss Voigt Hill
#
# Bulk Modulus (GPa) = 64.82061 70.55578 67.68820
# Shear Modulus (GPa) = 29.84399 31.95314 30.89857
#
# Velocity S-wave (km/s) = 3.82768 3.96063 3.89472
# Velocity P-wave (km/s) = 7.16637 7.45339 7.31129
#
# Compressibility (1/GPa) = 0.01542719
#
# Stress axis : x y z
#
# Youngs Moduli (GPa) = 113.68533 69.01694 102.80317
#
# Poissons Ratio (x) = 0.15206 0.31378
# Poissons Ratio (y) = 0.25047 0.36365
# Poissons Ratio (z) = 0.34699 0.24414
#
# Static dielectric constant tensor:
#      x y z
#    x 3.877380 0.000000 0.000000 
#    y 0.000000 3.720060 0.000000 
#    z 0.000000 0.000000 3.664750 
# 
# 
# High freq. dielectric constant tensor:
#      x y z
#    x 1.800470 0.000000 0.000000 
#    y 0.000000 1.801920 0.000000 
#    z 0.000000 0.000000 1.794650 
# 
# From -- ./inp_files/70418.got.cif
#   From: 2010.06.25/outbox.cif.g09.slc.cpg/sg71_36_cif.got.tgz:70418.got - 2010.06.28 04:59:45.
