data_PCOD8292225
_publ_section_title
;
Structure prediction by ZEFSAII (Michael W. Deem and Ramdas Pophale) SiO2 
 PCOD8292225
Probable space group: I M M M
;
_chemical_formula_sum "Si O2"
_cell_formula_units_Z 64
_cell_length_a 15.181492
_cell_length_b 7.891788
_cell_length_c 25.200750
_cell_angle_alpha 90.000000
_cell_angle_beta 90.000000
_cell_angle_gamma 90.000000
_cell_volume 3019.279590
_symmetry_space_group_name_H-M "I M M M"
_symmetry_group_IT_number 71
_symmetry_cell_setting 'orthorhombic'
loop_
_space_group_symop_operation_xyz
x,y,z
-x,-y,z
x,-y,-z
-x,y,-z
-x,-y,-z
x,y,-z
-x,y,z
x,-y,z
1/2+x,1/2+y,1/2+z
1/2-x,1/2-y,1/2+z
1/2+x,1/2-y,1/2-z
1/2-x,1/2+y,1/2-z
1/2-x,1/2-y,1/2-z
1/2+x,1/2+y,1/2-z
1/2-x,1/2+y,1/2+z
1/2+x,1/2-y,1/2+z
loop_
_atom_site_type_symbol
_atom_site_label
_atom_site_fract_x
_atom_site_fract_y
_atom_site_fract_z
Si Si1 0.147819 0.809000 0.629937
Si Si2 0.000000 0.692522 0.829043
Si Si3 0.396688 0.000000 0.058003
Si Si4 0.099587 0.201541 0.000000
Si Si5 0.830641 0.195214 0.112456
Si Si6 0.000000 0.804225 0.712983
O O1 0.133149 0.674900 0.583782
O O2 0.252615 0.800972 0.641305
O O3 0.088258 0.757165 0.680233
O O4 0.121442 0.000000 0.612250
O O5 0.084502 0.790162 0.850716
O O6 0.000000 0.692430 0.765460
O O7 0.000000 0.500000 0.849350
O O8 0.500000 0.000000 0.055297
O O9 0.353182 0.000000 0.000000
O O10 0.149367 0.266000 0.053082
O O11 0.000000 0.274839 0.000000
O O12 0.094508 0.000000 0.000000
O O13 0.801128 0.000000 0.109063
O O14 0.000000 0.000000 0.729322
#
# Coordination Sequence:
#
# PCOD8292225 Si02
#       6
#    16   8   8   8  16   8
#     4  11  24  43  68  98 134 172 224 273 328 393
#     4  12  26  41  63  94 130 171 223 276 332 392
#     4  11  24  42  68  99 135 179 223 266 332 394
#     4   9  18  36  64  91 124 172 213 255 321 387
#     4  11  22  40  66  96 132 172 219 271 327 399
#     4  10  24  46  69  90 122 171 220 279 337 385
#
# _framework density 21.197109999999999
#
# number of rings (size 3 to 8) (size 9 to 14) (size 15 to 20)
#    0.000    1.250    3.750    1.875    3.500    1.500 
#    0.000    3.750    0.000    0.000    0.000    0.000 
#    0.000    0.000    0.000    0.000    0.000    0.000 
#
# Total GULP energy -396812.542785 kJ/mol
# GULP energy per Si atom -12400.391962 kJ/mol
# Density = 2.114886 g / cm^3
# Si number density = 21.197110 Si / 1000 Ang^3
#
#
#
# Elastic Constant Matrix: (Units=GPa)
#
#
# Indices 1 2 3 4 5 6 
#
# 1 144.7329 9.2865 61.3903 0.0000 0.0000 0.0000
# 2 9.2865 89.6310 35.1977 0.0000 0.0000 0.0000
# 3 61.3903 35.1977 137.3533 0.0000 0.0000 0.0000
# 4 0.0000 0.0000 0.0000 26.9290 0.0000 0.0000
# 5 0.0000 0.0000 0.0000 0.0000 2.3225 0.0000
# 6 0.0000 0.0000 0.0000 0.0000 0.0000 24.2219
#
#
#
# Elastic Compliance Matrix: (Units=1/GPa)
#
#
# Indices 1 2 3 4 5 6 
#
# 1 0.008563 0.000685 -0.004003 0.000000 0.000000 0.000000
# 2 0.000685 0.012460 -0.003499 0.000000 0.000000 0.000000
# 3 -0.004003 -0.003499 0.009966 0.000000 0.000000 0.000000
# 4 0.000000 0.000000 0.000000 0.037135 0.000000 0.000000
# 5 0.000000 0.000000 0.000000 0.000000 0.430577 0.000000
# 6 0.000000 0.000000 0.000000 0.000000 0.000000 0.041285
#
#
# Mechanical properties :
#
#
# Convention : Reuss Voigt Hill
#
# Bulk Modulus (GPa) = 57.61978 64.82957 61.22468
# Shear Modulus (GPa) = 8.93806 28.41752 18.67779
#
# Velocity S-wave (km/s) = 2.05567 3.66544 2.97163
# Velocity P-wave (km/s) = 5.73378 6.96882 6.38125
#
# Compressibility (1/GPa) = 0.01735515
#
# Stress axis : x y z
#
# Youngs Moduli (GPa) = 116.77914 80.25722 100.33950
#
# Poissons Ratio (x) = -0.05495 0.40164
# Poissons Ratio (y) = -0.07995 0.35108
# Poissons Ratio (z) = 0.46744 0.28082
#
# Static dielectric constant tensor:
#      x y z
#    x 4.233750 0.000000 0.000000 
#    y 0.000000 3.396630 0.000000 
#    z 0.000000 0.000000 3.800580 
# 
# 
# High freq. dielectric constant tensor:
#      x y z
#    x 1.850680 0.000000 0.000000 
#    y 0.000000 1.827700 0.000000 
#    z 0.000000 0.000000 1.815730 
# 
# From -- ./inp_files/59511.got.cif
#   From: 2010.06.25/outbox.cif.g09.slc.cpg/sg71_30_cif.got.tgz:59511.got - 2010.06.28 04:59:45.
