data_PCOD8292610
_publ_section_title
;
Structure prediction by ZEFSAII (Michael W. Deem and Ramdas Pophale) SiO2 
 PCOD8292610
Probable space group: I M M M
;
_chemical_formula_sum "Si O2"
_cell_formula_units_Z 80
_cell_length_a 9.293300
_cell_length_b 22.651337
_cell_length_c 22.082492
_cell_angle_alpha 90.000000
_cell_angle_beta 90.000000
_cell_angle_gamma 90.000000
_cell_volume 4648.489777
_symmetry_space_group_name_H-M "I M M M"
_symmetry_group_IT_number 71
_symmetry_cell_setting 'orthorhombic'
loop_
_space_group_symop_operation_xyz
x,y,z
-x,-y,z
x,-y,-z
-x,y,-z
-x,-y,-z
x,y,-z
-x,y,z
x,-y,z
1/2+x,1/2+y,1/2+z
1/2-x,1/2-y,1/2+z
1/2+x,1/2-y,1/2-z
1/2-x,1/2+y,1/2-z
1/2-x,1/2-y,1/2-z
1/2+x,1/2+y,1/2-z
1/2-x,1/2+y,1/2+z
1/2+x,1/2-y,1/2+z
loop_
_atom_site_type_symbol
_atom_site_label
_atom_site_fract_x
_atom_site_fract_y
_atom_site_fract_z
Si Si1 0.344028 0.930406 0.000000
Si Si2 0.332170 0.114826 0.570035
Si Si3 0.837499 0.000000 0.428135
Si Si4 0.668359 0.823388 0.201351
Si Si5 0.667870 0.787335 0.665225
Si Si6 0.672006 0.934590 0.870474
O O1 0.263916 0.914354 0.063374
O O2 0.500000 0.898663 0.000000
O O3 0.367254 0.000000 0.000000
O O4 0.296715 0.128892 0.500000
O O5 0.500000 0.100530 0.579078
O O6 0.284688 0.171084 0.609668
O O7 0.244776 0.058370 0.594649
O O8 0.836718 0.000000 0.500000
O O9 0.000000 0.000000 0.402557
O O10 0.500000 0.814879 0.190312
O O11 0.708627 0.819491 0.271913
O O12 0.746948 0.773896 0.161140
O O13 0.722655 0.887618 0.179521
O O14 0.500000 0.772707 0.662061
O O15 0.500000 0.936328 0.875707
O O16 0.728848 0.000000 0.852148
#
# Coordination Sequence:
#
# PCOD8292610 Si02
#       6
#     8  16   8  16  16  16
#     4   7  10  18  34  56  85 115 133 158 211 264
#     4   9  17  31  49  67  90 122 159 192 223 269
#     4   9  17  29  47  71  97 121 145 184 239 282
#     4   9  17  30  47  67  89 117 150 186 229 269
#     4   9  18  32  47  64  88 122 156 185 222 268
#     4   8  13  23  40  63  89 113 140 177 218 262
#
# _framework density 17.209890000000001
#
# number of rings (size 3 to 8) (size 9 to 14) (size 15 to 20)
#    0.000    3.400    0.000    1.500    0.000    2.000 
#    3.600    0.000    0.000    0.600    0.000    0.000 
#    0.000    2.400    0.000    0.000    0.000    0.000 
#
# Total GULP energy -495670.769418 kJ/mol
# GULP energy per Si atom -12391.769235 kJ/mol
# Density = 1.717072 g / cm^3
# Si number density = 17.209890 Si / 1000 Ang^3
#
#
#
# Elastic Constant Matrix: (Units=GPa)
#
#
# Indices 1 2 3 4 5 6 
#
# 1 37.6036 39.7691 24.2534 0.0000 0.0000 0.0000
# 2 39.7691 141.0111 69.5954 0.0000 0.0000 0.0000
# 3 24.2534 69.5954 79.0230 0.0000 0.0000 0.0000
# 4 0.0000 0.0000 0.0000 30.5279 0.0000 0.0000
# 5 0.0000 0.0000 0.0000 0.0000 13.4962 0.0000
# 6 0.0000 0.0000 0.0000 0.0000 0.0000 25.9093
#
#
#
# Elastic Compliance Matrix: (Units=1/GPa)
#
#
# Indices 1 2 3 4 5 6 
#
# 1 0.038597 -0.008913 -0.003996 0.000000 0.000000 0.000000
# 2 -0.008913 0.014602 -0.010125 0.000000 0.000000 0.000000
# 3 -0.003996 -0.010125 0.022798 0.000000 0.000000 0.000000
# 4 0.000000 0.000000 0.000000 0.032757 0.000000 0.000000
# 5 0.000000 0.000000 0.000000 0.000000 0.074095 0.000000
# 6 0.000000 0.000000 0.000000 0.000000 0.000000 0.038596
#
#
# Mechanical properties :
#
#
# Convention : Reuss Voigt Hill
#
# Bulk Modulus (GPa) = 33.41233 58.31929 45.86581
# Shear Modulus (GPa) = 18.01868 22.25468 20.13668
#
# Velocity S-wave (km/s) = 3.23924 3.59992 3.42433
# Velocity P-wave (km/s) = 5.78334 7.15820 6.50718
#
# Compressibility (1/GPa) = 0.02992907
#
# Stress axis : x y z
#
# Youngs Moduli (GPa) = 25.90871 68.48195 43.86367
#
# Poissons Ratio (x) = 0.61038 0.17529
# Poissons Ratio (y) = 0.23093 0.44411
# Poissons Ratio (z) = 0.10354 0.69336
#
# Static dielectric constant tensor:
#      x y z
#    x 2.910650 0.000000 0.000000 
#    y 0.000000 3.272340 0.000000 
#    z 0.000000 0.000000 3.364620 
# 
# 
# High freq. dielectric constant tensor:
#      x y z
#    x 1.625650 0.000000 0.000000 
#    y 0.000000 1.658970 0.000000 
#    z 0.000000 0.000000 1.658820 
# 
# From -- ./inp_files/57707.got.cif
#   From: 2010.06.25/outbox.cif.g09.slc.cpg/sg71_29_cif.got.tgz:57707.got - 2010.06.28 04:59:45.
