data_PCOD8292463
_publ_section_title
;
Structure prediction by ZEFSAII (Michael W. Deem and Ramdas Pophale) SiO2 
 PCOD8292463
Probable space group: I M M M
;
_chemical_formula_sum "Si O2"
_cell_formula_units_Z 104
_cell_length_a 21.625754
_cell_length_b 27.367311
_cell_length_c 8.736636
_cell_angle_alpha 90.000000
_cell_angle_beta 90.000000
_cell_angle_gamma 90.000000
_cell_volume 5170.679601
_symmetry_space_group_name_H-M "I M M M"
_symmetry_group_IT_number 71
_symmetry_cell_setting 'orthorhombic'
loop_
_space_group_symop_operation_xyz
x,y,z
-x,-y,z
x,-y,-z
-x,y,-z
-x,-y,-z
x,y,-z
-x,y,z
x,-y,z
1/2+x,1/2+y,1/2+z
1/2-x,1/2-y,1/2+z
1/2+x,1/2-y,1/2-z
1/2-x,1/2+y,1/2-z
1/2-x,1/2-y,1/2-z
1/2+x,1/2+y,1/2-z
1/2-x,1/2+y,1/2+z
1/2+x,1/2-y,1/2+z
loop_
_atom_site_type_symbol
_atom_site_label
_atom_site_fract_x
_atom_site_fract_y
_atom_site_fract_z
Si Si1 0.000000 0.446448 0.682159
Si Si2 0.308114 0.279556 0.180749
Si Si3 0.389774 0.118597 0.817840
Si Si4 0.429663 0.223522 0.182018
Si Si5 0.927665 0.945332 0.325287
Si Si6 0.331466 0.381470 0.676411
Si Si7 0.218802 0.554024 0.321413
O O1 0.059517 0.418754 0.742848
O O2 0.000000 0.500000 0.754757
O O3 0.000000 0.448691 0.500000
O O4 0.250000 0.250000 0.250000
O O5 0.376249 0.261053 0.236932
O O6 0.305474 0.335909 0.228399
O O7 0.302494 0.273814 0.000000
O O8 0.406166 0.171686 0.750600
O O9 0.326076 0.095945 0.752407
O O10 0.388314 0.123148 0.000000
O O11 0.500000 0.235808 0.242880
O O12 0.432964 0.221979 0.000000
O O13 0.905365 0.940560 0.500000
O O14 0.897901 0.901384 0.228250
O O15 0.000000 0.936493 0.312862
O O16 0.911291 0.000000 0.263886
O O17 0.332971 0.365566 0.500000
O O18 0.287935 0.427999 0.707266
O O19 0.203582 0.549376 0.500000
O O20 0.210155 0.500000 0.246445
#
# Coordination Sequence:
#
# PCOD8292463 Si02
#       7
#     8  16  16  16  16  16  16
#     4   9  14  18  30  56  90 126 161 197 238 289
#     4  11  23  39  59  82 110 147 193 245 299 353
#     4   9  14  23  39  62  95 133 171 207 249 306
#     4   9  17  31  51  75 103 140 182 224 276 339
#     4   9  19  37  60  85 115 152 192 234 285 348
#     4  11  22  36  55  81 112 147 188 235 290 347
#     4   9  17  28  44  70 106 144 176 210 260 323
#
# _framework density 20.113412
#
# number of rings (size 3 to 8) (size 9 to 14) (size 15 to 20)
#    0.000    2.385    0.769    3.231    0.000    6.154 
#    0.000    2.308    0.000    1.385    0.000    0.000 
#    0.000    0.000    0.000    1.385    0.000    1.538 
#
# Total GULP energy -644378.488651 kJ/mol
# GULP energy per Si atom -12391.894013 kJ/mol
# Density = 2.006763 g / cm^3
# Si number density = 20.113412 Si / 1000 Ang^3
#
#
#
# Elastic Constant Matrix: (Units=GPa)
#
#
# Indices 1 2 3 4 5 6 
#
# 1 115.5084 45.5066 28.8967 0.0000 0.0000 0.0000
# 2 45.5066 103.5493 23.4197 0.0000 0.0000 0.0000
# 3 28.8967 23.4197 34.6684 0.0000 0.0000 0.0000
# 4 0.0000 0.0000 0.0000 21.9779 0.0000 0.0000
# 5 0.0000 0.0000 0.0000 0.0000 20.5235 0.0000
# 6 0.0000 0.0000 0.0000 0.0000 0.0000 -129.2314
#
#
#
# Elastic Compliance Matrix: (Units=1/GPa)
#
#
# Indices 1 2 3 4 5 6 
#
# 1 0.011944 -0.003538 -0.007565 0.000000 0.000000 0.000000
# 2 -0.003538 0.012447 -0.005459 0.000000 0.000000 0.000000
# 3 -0.007565 -0.005459 0.038839 0.000000 0.000000 0.000000
# 4 0.000000 0.000000 0.000000 0.045500 0.000000 0.000000
# 5 0.000000 0.000000 0.000000 0.000000 0.048725 0.000000
# 6 0.000000 0.000000 0.000000 0.000000 0.000000 -0.007738
#
#
# Mechanical properties :
#
#
# Convention : Reuss Voigt Hill
#
# Bulk Modulus (GPa) = 33.21827 49.93023 41.57425
# Shear Modulus (GPa) = 25.92340 -6.95246 9.48547
#
# Velocity S-wave (km/s) = 3.59397 -1.86122 2.17399
# Velocity P-wave (km/s) = 5.81149 4.50104 5.19773
#
# Compressibility (1/GPa) = 0.03010392
#
# Stress axis : x y z
#
# Youngs Moduli (GPa) = 83.72532 80.34231 25.74755
#
# Poissons Ratio (x) = 0.28424 0.19479
# Poissons Ratio (y) = 0.29621 0.14057
# Poissons Ratio (z) = 0.63342 0.43862
#
# Static dielectric constant tensor:
#      x y z
#    x 3.872080 0.000000 0.000000 
#    y 0.000000 3.821330 0.000000 
#    z 0.000000 0.000000 3.053870 
# 
# 
# High freq. dielectric constant tensor:
#      x y z
#    x 1.800520 0.000000 0.000000 
#    y 0.000000 1.795610 0.000000 
#    z 0.000000 0.000000 1.719420 
# 
# From -- ./inp_files/11538.got.cif
#   From: 2010.06.25/outbox.cif.g09.slc.cpg/sg71_6_cif.got.tgz:11538.got - 2010.06.28 04:59:45.
