data_PCOD8292764
_publ_section_title
;
Structure prediction by ZEFSAII (Michael W. Deem and Ramdas Pophale) SiO2 
 PCOD8292764
Probable space group: I M M M
;
_chemical_formula_sum "Si O2"
_cell_formula_units_Z 72
_cell_length_a 27.430050
_cell_length_b 9.206002
_cell_length_c 14.703153
_cell_angle_alpha 90.000000
_cell_angle_beta 90.000000
_cell_angle_gamma 90.000000
_cell_volume 3712.856298
_symmetry_space_group_name_H-M "I M M M"
_symmetry_group_IT_number 71
_symmetry_cell_setting 'orthorhombic'
loop_
_space_group_symop_operation_xyz
x,y,z
-x,-y,z
x,-y,-z
-x,y,-z
-x,-y,-z
x,y,-z
-x,y,z
x,-y,z
1/2+x,1/2+y,1/2+z
1/2-x,1/2-y,1/2+z
1/2+x,1/2-y,1/2-z
1/2-x,1/2+y,1/2-z
1/2-x,1/2-y,1/2-z
1/2+x,1/2+y,1/2-z
1/2-x,1/2+y,1/2+z
1/2+x,1/2-y,1/2+z
loop_
_atom_site_type_symbol
_atom_site_label
_atom_site_fract_x
_atom_site_fract_y
_atom_site_fract_z
Si Si1 0.125089 0.665639 0.902116
Si Si2 0.808408 0.837761 0.339038
Si Si3 0.000000 0.672568 0.603262
Si Si4 0.595929 0.171317 0.794094
Si Si5 0.780673 0.161268 0.131531
O O1 0.142027 0.500000 0.887697
O O2 0.092637 0.710506 0.814296
O O3 0.173085 0.761138 0.911775
O O4 0.096762 0.682525 0.000000
O O5 0.859338 0.752490 0.341721
O O6 0.787236 0.848669 0.238682
O O7 0.768177 0.749173 0.396578
O O8 0.815853 0.000000 0.379351
O O9 0.047194 0.729553 0.657588
O O10 0.000000 0.500000 0.601990
O O11 0.000000 0.733429 0.500000
O O12 0.602851 0.000000 0.809149
O O13 0.776264 0.000000 0.090177
#
# Coordination Sequence:
#
# PCOD8292764 Si02
#       5
#    16  16   8  16  16
#     4   9  17  29  45  68 100 134 164 196 237 286
#     4   9  16  27  45  69  97 129 164 202 242 282
#     4   9  18  34  56  78  96 117 153 203 252 294
#     4   9  17  31  51  72  95 126 163 202 246 294
#     4   9  16  26  43  68  97 131 169 202 232 274
#
# _framework density 19.392078000000001
#
# number of rings (size 3 to 8) (size 9 to 14) (size 15 to 20)
#    0.000    3.000    0.000    1.333    0.000    5.778 
#    0.000    2.222    0.000    8.667    0.000    0.000 
#    0.000    7.111    0.000    0.000    0.000    0.000 
#
# Total GULP energy -446074.620318 kJ/mol
# GULP energy per Si atom -12390.961676 kJ/mol
# Density = 1.934794 g / cm^3
# Si number density = 19.392078 Si / 1000 Ang^3
#
#
#
# Elastic Constant Matrix: (Units=GPa)
#
#
# Indices 1 2 3 4 5 6 
#
# 1 138.3748 49.6214 59.1137 0.0000 0.0000 0.0000
# 2 49.6214 86.6848 26.2577 0.0000 0.0000 0.0000
# 3 59.1137 26.2577 108.8755 0.0000 0.0000 0.0000
# 4 0.0000 0.0000 0.0000 3.8608 0.0000 0.0000
# 5 0.0000 0.0000 0.0000 0.0000 11.3306 0.0000
# 6 0.0000 0.0000 0.0000 0.0000 0.0000 22.4827
#
#
#
# Elastic Compliance Matrix: (Units=1/GPa)
#
#
# Indices 1 2 3 4 5 6 
#
# 1 0.011024 -0.004852 -0.004815 0.000000 0.000000 0.000000
# 2 -0.004852 0.014581 -0.000882 0.000000 0.000000 0.000000
# 3 -0.004815 -0.000882 0.012012 0.000000 0.000000 0.000000
# 4 0.000000 0.000000 0.000000 0.259012 0.000000 0.000000
# 5 0.000000 0.000000 0.000000 0.000000 0.088257 0.000000
# 6 0.000000 0.000000 0.000000 0.000000 0.000000 0.044479
#
#
# Mechanical properties :
#
#
# Convention : Reuss Voigt Hill
#
# Bulk Modulus (GPa) = 60.54007 67.10229 63.82118
# Shear Modulus (GPa) = 10.96570 20.79765 15.88167
#
# Velocity S-wave (km/s) = 2.38055 3.27843 2.86488
# Velocity P-wave (km/s) = 6.23240 7.00063 6.62765
#
# Compressibility (1/GPa) = 0.01651799
#
# Stress axis : x y z
#
# Youngs Moduli (GPa) = 90.71427 68.58440 83.25061
#
# Poissons Ratio (x) = 0.33275 0.40086
# Poissons Ratio (y) = 0.44012 0.07344
# Poissons Ratio (z) = 0.43680 0.06050
#
# Static dielectric constant tensor:
#      x y z
#    x 3.351120 0.000000 0.000000 
#    y 0.000000 3.620650 0.000000 
#    z 0.000000 0.000000 3.541080 
# 
# 
# High freq. dielectric constant tensor:
#      x y z
#    x 1.724050 0.000000 0.000000 
#    y 0.000000 1.745600 0.000000 
#    z 0.000000 0.000000 1.752500 
# 
# From -- ./inp_files/6056.got.cif
#   From: 2010.06.25/outbox.cif.g09.slc.cpg/sg71_4_cif.got.tgz:6056.got - 2010.06.28 04:59:45.
