data_PCOD8292369
_publ_section_title
;
Structure prediction by ZEFSAII (Michael W. Deem and Ramdas Pophale) SiO2 
 PCOD8292369
Probable space group: I M M M
;
_chemical_formula_sum "Si O2"
_cell_formula_units_Z 104
_cell_length_a 23.262699
_cell_length_b 8.833164
_cell_length_c 26.242196
_cell_angle_alpha 90.000000
_cell_angle_beta 90.000000
_cell_angle_gamma 90.000000
_cell_volume 5392.331337
_symmetry_space_group_name_H-M "I M M M"
_symmetry_group_IT_number 71
_symmetry_cell_setting 'orthorhombic'
loop_
_space_group_symop_operation_xyz
x,y,z
-x,-y,z
x,-y,-z
-x,y,-z
-x,-y,-z
x,y,-z
-x,y,z
x,-y,z
1/2+x,1/2+y,1/2+z
1/2-x,1/2-y,1/2+z
1/2+x,1/2-y,1/2-z
1/2-x,1/2+y,1/2-z
1/2-x,1/2-y,1/2-z
1/2+x,1/2+y,1/2-z
1/2-x,1/2+y,1/2+z
1/2+x,1/2-y,1/2+z
loop_
_atom_site_type_symbol
_atom_site_label
_atom_site_fract_x
_atom_site_fract_y
_atom_site_fract_z
Si Si1 0.935767 0.820968 0.294091
Si Si2 0.749169 0.822054 0.058778
Si Si3 0.065905 0.822852 0.177993
Si Si4 0.630635 0.178749 0.411363
Si Si5 0.067036 0.167911 0.000000
Si Si6 0.562720 0.834083 0.059445
Si Si7 0.149168 0.174339 0.619851
O O1 0.920987 0.777359 0.236204
O O2 0.883609 0.758490 0.329770
O O3 0.000000 0.757543 0.308078
O O4 0.937713 0.000000 0.300828
O O5 0.808583 0.744276 0.072291
O O6 0.704770 0.767164 0.102113
O O7 0.756280 0.000000 0.064178
O O8 0.731181 0.780455 0.000000
O O9 0.111280 0.729186 0.144808
O O10 0.000000 0.781176 0.164127
O O11 0.076321 0.000000 0.168658
O O12 0.583369 0.239741 0.450080
O O13 0.634132 0.000000 0.413951
O O14 0.000000 0.146635 0.000000
O O15 0.096161 0.000000 0.000000
O O16 0.500000 0.812923 0.084565
O O17 0.602595 0.695212 0.075456
O O18 0.588176 0.000000 0.075468
O O19 0.556337 0.828009 0.000000
O O20 0.166774 0.000000 0.626464
#
# Coordination Sequence:
#
# PCOD8292369 Si02
#       7
#    16  16  16  16   8  16  16
#     4   8  16  33  57  85 116 151 190 234 285 342
#     4  11  24  42  61  78 107 154 202 239 282 348
#     4   9  18  36  62  87 115 154 193 225 272 346
#     4  12  24  38  59  88 120 148 185 239 291 332
#     4  11  23  39  61  89 121 157 192 221 266 343
#     4   9  18  32  48  69 102 143 185 229 282 347
#     4  11  21  33  54  83 112 142 187 243 295 341
#
# _framework density 19.286650000000002
#
# number of rings (size 3 to 8) (size 9 to 14) (size 15 to 20)
#    0.000    1.923    0.769    5.308    0.000    6.769 
#    0.000    3.077    0.000    1.846    0.000    0.000 
#    0.000    0.000    0.000    0.000    0.000    0.000 
#
# Total GULP energy -644421.807083 kJ/mol
# GULP energy per Si atom -12392.727059 kJ/mol
# Density = 1.924275 g / cm^3
# Si number density = 19.286650 Si / 1000 Ang^3
#
#
#
# Elastic Constant Matrix: (Units=GPa)
#
#
# Indices 1 2 3 4 5 6 
#
# 1 87.4351 47.7539 57.3634 0.0000 0.0000 0.0000
# 2 47.7539 90.2990 47.3247 0.0000 0.0000 0.0000
# 3 57.3634 47.3247 111.3321 0.0000 0.0000 0.0000
# 4 0.0000 0.0000 0.0000 11.4664 0.0000 0.0000
# 5 0.0000 0.0000 0.0000 0.0000 36.0245 0.0000
# 6 0.0000 0.0000 0.0000 0.0000 0.0000 24.5801
#
#
#
# Elastic Compliance Matrix: (Units=1/GPa)
#
#
# Indices 1 2 3 4 5 6 
#
# 1 0.019961 -0.006647 -0.007460 0.000000 0.000000 0.000000
# 2 -0.006647 0.016462 -0.003573 0.000000 0.000000 0.000000
# 3 -0.007460 -0.003573 0.014344 0.000000 0.000000 0.000000
# 4 0.000000 0.000000 0.000000 0.087211 0.000000 0.000000
# 5 0.000000 0.000000 0.000000 0.000000 0.027759 0.000000
# 6 0.000000 0.000000 0.000000 0.000000 0.000000 0.040683
#
#
# Mechanical properties :
#
#
# Convention : Reuss Voigt Hill
#
# Bulk Modulus (GPa) = 64.89669 65.99448 65.44558
# Shear Modulus (GPa) = 20.24979 23.52247 21.88613
#
# Velocity S-wave (km/s) = 3.24379 3.49610 3.37231
# Velocity P-wave (km/s) = 6.91022 7.11259 7.01213
#
# Compressibility (1/GPa) = 0.01540911
#
# Stress axis : x y z
#
# Youngs Moduli (GPa) = 50.09687 60.74613 69.71380
#
# Poissons Ratio (x) = 0.40377 0.52003
# Poissons Ratio (y) = 0.33299 0.24907
# Poissons Ratio (z) = 0.37370 0.21703
#
# Static dielectric constant tensor:
#      x y z
#    x 3.653620 0.000000 0.000000 
#    y 0.000000 3.516120 0.000000 
#    z 0.000000 0.000000 3.474690 
# 
# 
# High freq. dielectric constant tensor:
#      x y z
#    x 1.748910 0.000000 0.000000 
#    y 0.000000 1.738320 0.000000 
#    z 0.000000 0.000000 1.750580 
# 
# From -- ./inp_files/66801.got.cif
#   From: 2010.06.25/outbox.cif.g09.slc.cpg/sg71_34_cif.got.tgz:66801.got - 2010.06.28 04:59:45.
