data_PCOD8292075
_publ_section_title
;
Structure prediction by ZEFSAII (Michael W. Deem and Ramdas Pophale) SiO2 
 PCOD8292075
Probable space group: I M M M
;
_chemical_formula_sum "Si O2"
_cell_formula_units_Z 88
_cell_length_a 11.795373
_cell_length_b 24.040710
_cell_length_c 15.193984
_cell_angle_alpha 90.000000
_cell_angle_beta 90.000000
_cell_angle_gamma 90.000000
_cell_volume 4308.545001
_symmetry_space_group_name_H-M "I M M M"
_symmetry_group_IT_number 71
_symmetry_cell_setting 'orthorhombic'
loop_
_space_group_symop_operation_xyz
x,y,z
-x,-y,z
x,-y,-z
-x,y,-z
-x,-y,-z
x,y,-z
-x,y,z
x,-y,z
1/2+x,1/2+y,1/2+z
1/2-x,1/2-y,1/2+z
1/2+x,1/2-y,1/2-z
1/2-x,1/2+y,1/2-z
1/2-x,1/2-y,1/2-z
1/2+x,1/2+y,1/2-z
1/2-x,1/2+y,1/2+z
1/2+x,1/2-y,1/2+z
loop_
_atom_site_type_symbol
_atom_site_label
_atom_site_fract_x
_atom_site_fract_y
_atom_site_fract_z
Si Si1 0.500000 0.134817 0.605809
Si Si2 0.633406 0.433886 0.500000
Si Si3 0.124260 0.939431 0.602352
Si Si4 0.125031 0.739213 0.402900
Si Si5 0.761401 0.662183 0.832186
Si Si6 0.788266 0.375990 0.358041
Si Si7 0.500000 0.064804 0.776780
O O1 0.500000 0.119748 0.500000
O O2 0.610231 0.170671 0.633026
O O3 0.500000 0.082472 0.673323
O O4 0.648842 0.500000 0.500000
O O5 0.500000 0.417665 0.500000
O O6 0.693198 0.409355 0.412583
O O7 0.110745 0.946931 0.500000
O O8 0.212822 0.890735 0.616970
O O9 0.000000 0.924418 0.642650
O O10 0.164813 0.000000 0.641264
O O11 0.119762 0.765561 0.500000
O O12 0.201982 0.778997 0.345043
O O13 0.170068 0.676696 0.413497
O O14 0.000000 0.737627 0.359739
O O15 0.738786 0.649422 0.730919
O O16 0.891262 0.415884 0.331765
O O17 0.500000 0.000000 0.775593
#
# Coordination Sequence:
#
# PCOD8292075 Si02
#       7
#     8   8  16  16  16  16   8
#     4  10  22  39  57  89 140 176 211 249 305 391
#     4  11  26  47  69  95 129 170 216 267 332 410
#     4   9  18  34  57  86 119 154 202 259 312 375
#     4  11  22  40  67  92 120 156 209 270 318 376
#     4  11  23  38  61  92 128 170 213 256 322 380
#     4  11  23  44  62  91 127 162 212 272 327 379
#     4  10  22  40  68  96 121 165 221 273 327 382
#
# _framework density 20.424527999999999
#
# number of rings (size 3 to 8) (size 9 to 14) (size 15 to 20)
#    0.000    1.545    1.818    3.818    0.000    7.091 
#    1.636    2.727    0.000    0.000    0.000    0.000 
#    0.000    0.000    0.000    0.000    0.000    0.000 
#
# Total GULP energy -545236.126656 kJ/mol
# GULP energy per Si atom -12391.730151 kJ/mol
# Density = 2.037804 g / cm^3
# Si number density = 20.424528 Si / 1000 Ang^3
#
#
#
# Elastic Constant Matrix: (Units=GPa)
#
#
# Indices 1 2 3 4 5 6 
#
# 1 152.7332 73.9454 55.4460 0.0000 0.0000 0.0000
# 2 73.9454 126.1220 37.6461 0.0007 -0.0001 0.0000
# 3 55.4460 37.6461 120.6608 0.0015 -0.0002 0.0001
# 4 0.0000 0.0007 0.0015 40.8801 -0.0005 0.0000
# 5 0.0000 -0.0001 -0.0002 -0.0005 29.9059 0.0000
# 6 0.0000 0.0000 0.0001 0.0000 0.0000 30.6964
#
#
#
# Elastic Compliance Matrix: (Units=1/GPa)
#
#
# Indices 1 2 3 4 5 6 
#
# 1 0.010081 -0.004993 -0.003075 0.000000 0.000000 0.000000
# 2 -0.004993 0.011216 -0.001205 0.000000 0.000000 0.000000
# 3 -0.003075 -0.001205 0.010077 0.000000 0.000000 0.000000
# 4 0.000000 0.000000 0.000000 0.024462 0.000000 0.000000
# 5 0.000000 0.000000 0.000000 0.000000 0.033438 0.000000
# 6 0.000000 0.000000 0.000000 0.000000 0.000000 0.032577
#
#
# Mechanical properties :
#
#
# Convention : Reuss Voigt Hill
#
# Bulk Modulus (GPa) = 77.95230 81.51010 79.73120
# Shear Modulus (GPa) = 34.56127 35.79504 35.17816
#
# Velocity S-wave (km/s) = 4.11803 4.19089 4.15462
# Velocity P-wave (km/s) = 7.80127 7.96321 7.88265
#
# Compressibility (1/GPa) = 0.01282836
#
# Stress axis : x y z
#
# Youngs Moduli (GPa) = 99.19989 89.16088 99.24056
#
# Poissons Ratio (x) = 0.44514 0.30512
# Poissons Ratio (y) = 0.49526 0.11960
# Poissons Ratio (z) = 0.30500 0.10745
#
# Static dielectric constant tensor:
#      x y z
#    x 3.975830 0.000000 0.000000 
#    y 0.000000 3.938760 0.000000 
#    z 0.000000 0.000000 3.809510 
# 
# 
# High freq. dielectric constant tensor:
#      x y z
#    x 1.803900 0.000000 0.000000 
#    y 0.000000 1.802720 0.000000 
#    z 0.000000 0.000000 1.797250 
# 
# From -- ./inp_files/32777.got.cif
#   From: 2010.06.25/outbox.cif.g09.slc.cpg/sg71_17_cif.got.tgz:32777.got - 2010.06.28 04:59:45.
