data_PCOD8292614
_publ_section_title
;
Structure prediction by ZEFSAII (Michael W. Deem and Ramdas Pophale) SiO2 
 PCOD8292614
Probable space group: I M M M
;
_chemical_formula_sum "Si O2"
_cell_formula_units_Z 56
_cell_length_a 9.564297
_cell_length_b 9.792120
_cell_length_c 35.499530
_cell_angle_alpha 90.000000
_cell_angle_beta 90.000000
_cell_angle_gamma 90.000000
_cell_volume 3324.699392
_symmetry_space_group_name_H-M "I M M M"
_symmetry_group_IT_number 71
_symmetry_cell_setting 'orthorhombic'
loop_
_space_group_symop_operation_xyz
x,y,z
-x,-y,z
x,-y,-z
-x,y,-z
-x,-y,-z
x,y,-z
-x,y,z
x,-y,z
1/2+x,1/2+y,1/2+z
1/2-x,1/2-y,1/2+z
1/2+x,1/2-y,1/2-z
1/2-x,1/2+y,1/2-z
1/2-x,1/2-y,1/2-z
1/2+x,1/2+y,1/2-z
1/2-x,1/2+y,1/2+z
1/2+x,1/2-y,1/2+z
loop_
_atom_site_type_symbol
_atom_site_label
_atom_site_fract_x
_atom_site_fract_y
_atom_site_fract_z
Si Si1 0.339919 0.158563 0.636665
Si Si2 0.161515 0.344431 0.776853
Si Si3 0.166714 0.656554 0.418582
Si Si4 0.152348 0.661254 0.500000
O O1 0.500000 0.192757 0.626305
O O2 0.310276 0.195798 0.679971
O O3 0.236528 0.247779 0.611974
O O4 0.308795 0.000000 0.629145
O O5 0.207051 0.500000 0.769803
O O6 0.250000 0.250000 0.750000
O O7 0.000000 0.324208 0.766834
O O8 0.207106 0.500000 0.409760
O O9 0.226483 0.700809 0.460314
O O10 0.000000 0.675079 0.417380
O O11 0.131399 0.500000 0.500000
O O12 0.000000 0.731409 0.500000
#
# Coordination Sequence:
#
# PCOD8292614 Si02
#       4
#    16  16  16   8
#     4   9  19  35  50  66  95 131 159 187 230 281
#     4   9  19  35  52  70  94 124 157 193 233 278
#     4   9  17  30  50  74  96 121 157 198 236 276
#     4   7  12  26  46  67  94 124 152 189 236 277
#
# _framework density 16.843626
#
# number of rings (size 3 to 8) (size 9 to 14) (size 15 to 20)
#    0.000    3.286    0.000    3.429    0.000    4.000 
#    0.000   10.000    0.000    6.857    0.000    0.000 
#    0.000    0.000    0.000    0.000    0.000    0.000 
#
# Total GULP energy -346939.863883 kJ/mol
# GULP energy per Si atom -12390.709424 kJ/mol
# Density = 1.680529 g / cm^3
# Si number density = 16.843626 Si / 1000 Ang^3
#
#
#
# Elastic Constant Matrix: (Units=GPa)
#
#
# Indices 1 2 3 4 5 6 
#
# 1 50.4007 42.0757 53.7400 0.0000 0.0000 0.0000
# 2 42.0757 70.9270 65.6112 0.0000 0.0000 0.0000
# 3 53.7400 65.6112 116.6499 0.0000 0.0000 0.0000
# 4 0.0000 0.0000 0.0000 27.8826 0.0000 0.0000
# 5 0.0000 0.0000 0.0000 0.0000 26.2406 0.0000
# 6 0.0000 0.0000 0.0000 0.0000 0.0000 33.5689
#
#
#
# Elastic Compliance Matrix: (Units=1/GPa)
#
#
# Indices 1 2 3 4 5 6 
#
# 1 0.046476 -0.016186 -0.012307 0.000000 0.000000 0.000000
# 2 -0.016186 0.035029 -0.012246 0.000000 0.000000 0.000000
# 3 -0.012307 -0.012246 0.021130 0.000000 0.000000 0.000000
# 4 0.000000 0.000000 0.000000 0.035865 0.000000 0.000000
# 5 0.000000 0.000000 0.000000 0.000000 0.038109 0.000000
# 6 0.000000 0.000000 0.000000 0.000000 0.000000 0.029789
#
#
# Mechanical properties :
#
#
# Convention : Reuss Voigt Hill
#
# Bulk Modulus (GPa) = 47.26462 62.31461 54.78962
# Shear Modulus (GPa) = 16.95327 22.64178 19.79753
#
# Velocity S-wave (km/s) = 3.17600 3.67036 3.43209
# Velocity P-wave (km/s) = 6.44756 7.41878 6.95016
#
# Compressibility (1/GPa) = 0.02115747
#
# Stress axis : x y z
#
# Youngs Moduli (GPa) = 21.51641 28.54808 47.32535
#
# Poissons Ratio (x) = 0.46207 0.58245
# Poissons Ratio (y) = 0.34826 0.57953
# Poissons Ratio (z) = 0.26481 0.34959
#
# Static dielectric constant tensor:
#      x y z
#    x 2.908130 0.000000 0.000000 
#    y 0.000000 2.974540 0.000000 
#    z 0.000000 0.000000 3.383540 
# 
# 
# High freq. dielectric constant tensor:
#      x y z
#    x 1.629220 0.000000 0.000000 
#    y 0.000000 1.635070 0.000000 
#    z 0.000000 0.000000 1.663960 
# 
# From -- ./inp_files/3325.got.cif
#   From: 2010.06.25/outbox.cif.g09.slc.cpg/sg71_2_cif.got.tgz:3325.got - 2010.06.28 04:59:45.
