data_PCOD8292065
_publ_section_title
;
Structure prediction by ZEFSAII (Michael W. Deem and Ramdas Pophale) SiO2 
 PCOD8292065
Probable space group: I M M M
;
_chemical_formula_sum "Si O2"
_cell_formula_units_Z 90
_cell_length_a 8.676879
_cell_length_b 22.650110
_cell_length_c 23.616874
_cell_angle_alpha 90.000000
_cell_angle_beta 90.000000
_cell_angle_gamma 90.000000
_cell_volume 4641.477711
_symmetry_space_group_name_H-M "I M M M"
_symmetry_group_IT_number 71
_symmetry_cell_setting 'orthorhombic'
loop_
_space_group_symop_operation_xyz
x,y,z
-x,-y,z
x,-y,-z
-x,y,-z
-x,-y,-z
x,y,-z
-x,y,z
x,-y,z
1/2+x,1/2+y,1/2+z
1/2-x,1/2-y,1/2+z
1/2+x,1/2-y,1/2-z
1/2-x,1/2+y,1/2-z
1/2-x,1/2-y,1/2-z
1/2+x,1/2+y,1/2-z
1/2-x,1/2+y,1/2+z
1/2+x,1/2-y,1/2+z
loop_
_atom_site_type_symbol
_atom_site_label
_atom_site_fract_x
_atom_site_fract_y
_atom_site_fract_z
Si Si1 0.667163 0.500000 0.613213
Si Si2 0.681704 0.279502 0.564782
Si Si3 0.000000 0.000000 0.000000
Si Si4 0.181880 0.622849 0.358888
Si Si5 0.325387 0.433392 0.933969
Si Si6 0.319295 0.314740 0.250630
Si Si7 0.178347 0.335042 0.135120
O O1 0.500000 0.500000 0.644948
O O2 0.639647 0.500000 0.545738
O O3 0.763154 0.556673 0.631983
O O4 0.733768 0.269569 0.500000
O O5 0.500000 0.289881 0.568448
O O6 0.762854 0.337696 0.588380
O O7 0.733601 0.223096 0.601374
O O8 0.249258 0.646820 0.300508
O O9 0.000000 0.624921 0.355311
O O10 0.500000 0.412541 0.921193
O O11 0.301322 0.500000 0.912042
O O12 0.202661 0.391978 0.903524
O O13 0.290617 0.430008 0.000000
O O14 0.500000 0.310445 0.260337
O O15 0.250000 0.250000 0.250000
O O16 0.280053 0.344738 0.190905
O O17 0.000000 0.329492 0.151787
#
# Coordination Sequence:
#
# PCOD8292065 Si02
#       7
#     8  16   2  16  16  16  16
#     4  10  23  45  69  95 125 172 213 264 320 386
#     4  10  22  38  60  89 126 167 205 252 315 382
#     4   8  24  44  78  96 128 180 222 260 336 404
#     4  12  25  42  65  95 129 167 214 268 320 383
#     4   9  19  37  60  86 121 165 208 253 307 368
#     4  12  24  42  66  92 122 165 209 256 316 379
#     4  11  22  38  61  91 124 161 207 260 313 373
#
# _framework density 19.390376
#
# number of rings (size 3 to 8) (size 9 to 14) (size 15 to 20)
#    0.267    1.067    1.778    5.067    1.244    2.489 
#    1.600    1.333    0.000    0.000    0.000    0.000 
#    0.000    0.000    0.000    0.000    0.000    0.000 
#
# Total GULP energy -557639.843735 kJ/mol
# GULP energy per Si atom -12391.996527 kJ/mol
# Density = 1.934624 g / cm^3
# Si number density = 19.390376 Si / 1000 Ang^3
#
#
#
# Elastic Constant Matrix: (Units=GPa)
#
#
# Indices 1 2 3 4 5 6 
#
# 1 93.0310 45.9914 55.8022 0.0000 0.0000 0.0000
# 2 45.9914 124.8244 58.3612 0.0000 0.0000 0.0000
# 3 55.8022 58.3612 126.3175 0.0000 0.0000 0.0000
# 4 0.0000 0.0000 0.0000 15.4055 0.0000 0.0000
# 5 0.0000 0.0000 0.0000 0.0000 33.1271 0.0000
# 6 0.0000 0.0000 0.0000 0.0000 0.0000 31.4487
#
#
#
# Elastic Compliance Matrix: (Units=1/GPa)
#
#
# Indices 1 2 3 4 5 6 
#
# 1 0.015575 -0.003216 -0.005394 0.000000 0.000000 0.000000
# 2 -0.003216 0.010883 -0.003607 0.000000 0.000000 0.000000
# 3 -0.005394 -0.003607 0.011966 0.000000 0.000000 0.000000
# 4 0.000000 0.000000 0.000000 0.064912 0.000000 0.000000
# 5 0.000000 0.000000 0.000000 0.000000 0.030187 0.000000
# 6 0.000000 0.000000 0.000000 0.000000 0.000000 0.031798
#
#
# Mechanical properties :
#
#
# Convention : Reuss Voigt Hill
#
# Bulk Modulus (GPa) = 71.48999 73.83138 72.66069
# Shear Modulus (GPa) = 25.71764 28.26412 26.99088
#
# Velocity S-wave (km/s) = 3.64580 3.82204 3.73496
# Velocity P-wave (km/s) = 7.39401 7.59186 7.49359
#
# Compressibility (1/GPa) = 0.01398797
#
# Stress axis : x y z
#
# Youngs Moduli (GPa) = 64.20613 91.88740 83.56903
#
# Poissons Ratio (x) = 0.29555 0.45080
# Poissons Ratio (y) = 0.20651 0.30145
# Poissons Ratio (z) = 0.34635 0.33146
#
# Static dielectric constant tensor:
#      x y z
#    x 3.591260 0.000000 0.000000 
#    y 0.000000 3.538890 0.000000 
#    z 0.000000 0.000000 4.023830 
# 
# 
# High freq. dielectric constant tensor:
#      x y z
#    x 1.760710 0.000000 0.000000 
#    y 0.000000 1.752600 0.000000 
#    z 0.000000 0.000000 1.764870 
# 
# From -- ./inp_files/57586.got.cif
#   From: 2010.06.25/outbox.cif.g09.slc.cpg/sg71_29_cif.got.tgz:57586.got - 2010.06.28 04:59:45.
