data_PCOD8292640
_publ_section_title
;
Structure prediction by ZEFSAII (Michael W. Deem and Ramdas Pophale) SiO2 
 PCOD8292640
Probable space group: I M M M
;
_chemical_formula_sum "Si O2"
_cell_formula_units_Z 88
_cell_length_a 29.953043
_cell_length_b 18.397238
_cell_length_c 9.932848
_cell_angle_alpha 90.000000
_cell_angle_beta 90.000000
_cell_angle_gamma 90.000000
_cell_volume 5473.528280
_symmetry_space_group_name_H-M "I M M M"
_symmetry_group_IT_number 71
_symmetry_cell_setting 'orthorhombic'
loop_
_space_group_symop_operation_xyz
x,y,z
-x,-y,z
x,-y,-z
-x,y,-z
-x,-y,-z
x,y,-z
-x,y,z
x,-y,z
1/2+x,1/2+y,1/2+z
1/2-x,1/2-y,1/2+z
1/2+x,1/2-y,1/2-z
1/2-x,1/2+y,1/2-z
1/2-x,1/2-y,1/2-z
1/2+x,1/2+y,1/2-z
1/2-x,1/2+y,1/2+z
1/2+x,1/2-y,1/2+z
loop_
_atom_site_type_symbol
_atom_site_label
_atom_site_fract_x
_atom_site_fract_y
_atom_site_fract_z
Si Si1 0.626228 0.842420 0.149002
Si Si2 0.549270 0.418769 0.839792
Si Si3 0.448008 0.913403 0.000000
Si Si4 0.807154 0.414201 0.149230
Si Si5 0.208576 0.081401 0.340038
Si Si6 0.628077 0.321390 0.160394
O O1 0.655204 0.890384 0.247913
O O2 0.624459 0.761436 0.210574
O O3 0.648987 0.840800 0.000000
O O4 0.576588 0.878522 0.132046
O O5 0.500000 0.395281 0.789778
O O6 0.560515 0.500000 0.789026
O O7 0.585438 0.363575 0.778888
O O8 0.550872 0.417454 0.000000
O O9 0.500000 0.891084 0.000000
O O10 0.441997 0.000000 0.000000
O O11 0.807689 0.500000 0.139626
O O12 0.757948 0.390361 0.201558
O O13 0.816611 0.381643 0.000000
O O14 0.205622 0.077372 0.500000
O O15 0.172600 0.139106 0.283269
O O16 0.199031 0.000000 0.282519
O O17 0.627107 0.324038 0.000000
#
# Coordination Sequence:
#
# PCOD8292640 Si02
#       6
#    16  16   8  16  16  16
#     4   9  19  29  44  69  90 114 144 182 226 267
#     4   8  13  20  32  52  80 116 150 178 212 255
#     4   9  18  32  48  64  85 115 147 179 219 269
#     4   9  17  30  47  65  84 113 152 186 216 258
#     4   8  14  24  40  59  82 116 152 182 213 257
#     4   9  15  24  35  57  88 117 146 180 219 265
#
# _framework density 16.077382
#
# number of rings (size 3 to 8) (size 9 to 14) (size 15 to 20)
#    0.545    2.818    0.000    2.727    0.000    3.636 
#    0.000    0.000    0.000    0.545    0.000    2.545 
#    0.000    2.182    0.000    2.000    0.000    3.455 
#
# Total GULP energy -545098.985579 kJ/mol
# GULP energy per Si atom -12388.613309 kJ/mol
# Density = 1.604079 g / cm^3
# Si number density = 16.077382 Si / 1000 Ang^3
#
#
#
# Elastic Constant Matrix: (Units=GPa)
#
#
# Indices 1 2 3 4 5 6 
#
# 1 141.8047 56.7784 30.6504 0.0000 0.0000 0.0000
# 2 56.7784 69.1971 16.8293 0.0000 0.0000 0.0000
# 3 30.6504 16.8293 25.3278 0.0000 0.0000 0.0000
# 4 0.0000 0.0000 0.0000 11.1031 0.0000 0.0000
# 5 0.0000 0.0000 0.0000 0.0000 14.0042 0.0000
# 6 0.0000 0.0000 0.0000 0.0000 0.0000 14.7541
#
#
#
# Elastic Compliance Matrix: (Units=1/GPa)
#
#
# Indices 1 2 3 4 5 6 
#
# 1 0.012216 -0.007667 -0.009689 0.000000 0.000000 0.000000
# 2 -0.007667 0.022049 -0.005372 0.000000 0.000000 0.000000
# 3 -0.009689 -0.005372 0.054777 0.000000 0.000000 0.000000
# 4 0.000000 0.000000 0.000000 0.090065 0.000000 0.000000
# 5 0.000000 0.000000 0.000000 0.000000 0.071407 0.000000
# 6 0.000000 0.000000 0.000000 0.000000 0.000000 0.067778
#
#
# Mechanical properties :
#
#
# Convention : Reuss Voigt Hill
#
# Bulk Modulus (GPa) = 22.94333 49.42729 36.18531
# Shear Modulus (GPa) = 13.21783 16.77705 14.99744
#
# Velocity S-wave (km/s) = 2.87041 3.23386 3.05754
# Velocity P-wave (km/s) = 5.02864 6.68984 5.91782
#
# Compressibility (1/GPa) = 0.04358566
#
# Stress axis : x y z
#
# Youngs Moduli (GPa) = 81.85916 45.35280 18.25590
#
# Poissons Ratio (x) = 0.34774 0.17688
# Poissons Ratio (y) = 0.62764 0.09808
# Poissons Ratio (z) = 0.79311 0.24365
#
# Static dielectric constant tensor:
#      x y z
#    x 3.308630 0.000000 0.000000 
#    y 0.000000 3.171050 0.000000 
#    z 0.000000 0.000000 2.425970 
# 
# 
# High freq. dielectric constant tensor:
#      x y z
#    x 1.624490 0.000000 0.000000 
#    y 0.000000 1.622300 0.000000 
#    z 0.000000 0.000000 1.541870 
# 
# From -- ./inp_files/30135.got.cif
#   From: 2010.06.25/outbox.cif.g09.slc.cpg/sg71_16_cif.got.tgz:30135.got - 2010.06.28 04:59:45.
