data_PCOD8292900
_publ_section_title
;
Structure prediction by ZEFSAII (Michael W. Deem and Ramdas Pophale) SiO2 
 PCOD8292900
Probable space group: I B A M
;
_chemical_formula_sum "Si O2"
_cell_formula_units_Z 112
_cell_length_a 19.014111
_cell_length_b 19.451767
_cell_length_c 17.299441
_cell_angle_alpha 90.000000
_cell_angle_beta 90.000000
_cell_angle_gamma 90.000000
_cell_volume 6398.337633
_symmetry_space_group_name_H-M "I B A M"
_symmetry_group_IT_number 72
_symmetry_cell_setting 'orthorhombic'
loop_
_space_group_symop_operation_xyz
x,y,z
-x,-y,z
x,-y,1/2-z
-x,y,1/2-z
-x,-y,-z
x,y,-z
-x,y,1/2+z
x,-y,1/2+z
1/2+x,1/2+y,1/2+z
1/2-x,1/2-y,1/2+z
1/2+x,1/2-y,-z
1/2-x,1/2+y,-z
1/2-x,1/2-y,1/2-z
1/2+x,1/2+y,1/2-z
1/2-x,1/2+y,z
1/2+x,1/2-y,z
loop_
_atom_site_type_symbol
_atom_site_label
_atom_site_fract_x
_atom_site_fract_y
_atom_site_fract_z
Si Si1 0.239483 0.140820 0.658204
Si Si2 0.351128 0.246054 0.645163
Si Si3 0.489718 0.295344 0.412060
Si Si4 0.296040 0.507947 0.158815
Si Si5 0.737267 0.854595 0.839779
Si Si6 0.559637 0.555612 0.589010
Si Si7 0.874317 0.248662 0.826541
O O1 0.310469 0.175205 0.624488
O O2 0.248046 0.141896 0.749408
O O3 0.170999 0.185970 0.638384
O O4 0.227520 0.064961 0.621947
O O5 0.419768 0.248920 0.591885
O O6 0.299173 0.308723 0.623085
O O7 0.375276 0.251299 0.734110
O O8 0.517207 0.298703 0.500000
O O9 0.470331 0.371465 0.380535
O O10 0.547487 0.258946 0.358622
O O11 0.292456 0.500000 0.250000
O O12 0.242269 0.567246 0.128245
O O13 0.374402 0.530505 0.138015
O O14 0.661239 0.820330 0.856098
O O15 0.500000 0.500000 0.601564
O O16 0.582524 0.562289 0.500000
#
# Coordination Sequence:
#
# PCOD8292900 Si02
#       7
#    16  16  16  16  16  16  16
#     4   8  16  28  50  73  95 119 159 203 241 284
#     4   9  16  32  49  69  94 128 159 197 245 285
#     4  11  21  32  47  70  99 130 163 200 238 283
#     4  10  17  30  50  76  96 122 159 201 237 286
#     4   8  15  29  49  71  96 121 160 202 243 281
#     4  10  21  34  44  63 103 139 155 183 240 295
#     4   9  17  31  49  69  95 129 160 199 242 289
#
# _framework density 17.504546000000001
#
# number of rings (size 3 to 8) (size 9 to 14) (size 15 to 20)
#    0.000    2.714    1.429    3.000    0.000    0.286 
#    2.571    4.286    0.000    0.857    0.000    6.000 
#    0.000    0.000    0.000    0.000    0.000    0.000 
#
# Total GULP energy -694036.690950 kJ/mol
# GULP energy per Si atom -12393.512338 kJ/mol
# Density = 1.746471 g / cm^3
# Si number density = 17.504546 Si / 1000 Ang^3
#
#
#
# Elastic Constant Matrix: (Units=GPa)
#
#
# Indices 1 2 3 4 5 6 
#
# 1 98.7283 59.3384 13.4913 0.0000 0.0000 0.0000
# 2 59.3384 134.2552 16.3336 0.0000 0.0000 0.0000
# 3 13.4913 16.3336 19.4559 0.0000 0.0000 0.0000
# 4 0.0000 0.0000 0.0000 14.5416 0.0000 0.0000
# 5 0.0000 0.0000 0.0000 0.0000 11.8699 0.0000
# 6 0.0000 0.0000 0.0000 0.0000 0.0000 28.7072
#
#
#
# Elastic Compliance Matrix: (Units=1/GPa)
#
#
# Indices 1 2 3 4 5 6 
#
# 1 0.014235 -0.005670 -0.005111 0.000000 0.000000 0.000000
# 2 -0.005670 0.010554 -0.004929 0.000000 0.000000 0.000000
# 3 -0.005111 -0.004929 0.059080 0.000000 0.000000 0.000000
# 4 0.000000 0.000000 0.000000 0.068768 0.000000 0.000000
# 5 0.000000 0.000000 0.000000 0.000000 0.084247 0.000000
# 6 0.000000 0.000000 0.000000 0.000000 0.000000 0.034834
#
#
# Mechanical properties :
#
#
# Convention : Reuss Voigt Hill
#
# Bulk Modulus (GPa) = 19.06574 47.86289 33.46431
# Shear Modulus (GPa) = 15.59472 21.90881 18.75177
#
# Velocity S-wave (km/s) = 2.98803 3.54164 3.27655
# Velocity P-wave (km/s) = 4.77702 6.64280 5.78562
#
# Compressibility (1/GPa) = 0.05245011
#
# Stress axis : x y z
#
# Youngs Moduli (GPa) = 70.24975 94.75022 16.92613
#
# Poissons Ratio (x) = 0.53721 0.08651
# Poissons Ratio (y) = 0.39830 0.08342
# Poissons Ratio (z) = 0.35905 0.46700
#
# Static dielectric constant tensor:
#      x y z
#    x 3.155350 0.000000 0.000000 
#    y 0.000000 3.902050 0.000000 
#    z 0.000000 0.000000 2.883970 
# 
# 
# High freq. dielectric constant tensor:
#      x y z
#    x 1.665350 0.000000 0.000000 
#    y 0.000000 1.676240 0.000000 
#    z 0.000000 0.000000 1.643490 
# 
# From -- ./inp_files/39210.got.cif
#   From: 2010.03.12/outbox.cif.g09.slc.cpg/sg72_20_cif.got.tgz:39210.got - 2010.04.16 14:54:00.
