data_PCOD8292729
_publ_section_title
;
Structure prediction by ZEFSAII (Michael W. Deem and Ramdas Pophale) SiO2 
 PCOD8292729
Probable space group: I M M M
;
_chemical_formula_sum "Si O2"
_cell_formula_units_Z 104
_cell_length_a 33.071490
_cell_length_b 9.153632
_cell_length_c 19.298839
_cell_angle_alpha 90.000000
_cell_angle_beta 90.000000
_cell_angle_gamma 90.000000
_cell_volume 5842.226546
_symmetry_space_group_name_H-M "I M M M"
_symmetry_group_IT_number 71
_symmetry_cell_setting 'orthorhombic'
loop_
_space_group_symop_operation_xyz
x,y,z
-x,-y,z
x,-y,-z
-x,y,-z
-x,-y,-z
x,y,-z
-x,y,z
x,-y,z
1/2+x,1/2+y,1/2+z
1/2-x,1/2-y,1/2+z
1/2+x,1/2-y,1/2-z
1/2-x,1/2+y,1/2-z
1/2-x,1/2-y,1/2-z
1/2+x,1/2+y,1/2-z
1/2-x,1/2+y,1/2+z
1/2+x,1/2-y,1/2+z
loop_
_atom_site_type_symbol
_atom_site_label
_atom_site_fract_x
_atom_site_fract_y
_atom_site_fract_z
Si Si1 0.045420 0.326727 0.693615
Si Si2 0.264907 0.335503 0.582399
Si Si3 0.812572 0.835414 0.582445
Si Si4 0.607455 0.828869 0.920599
Si Si5 0.000000 0.674398 0.077422
Si Si6 0.076543 0.326332 0.160665
Si Si7 0.654871 0.171445 0.580261
O O1 0.042086 0.500000 0.697176
O O2 0.069203 0.277356 0.624782
O O3 0.070257 0.270261 0.760696
O O4 0.000000 0.260265 0.691960
O O5 0.262647 0.336531 0.500000
O O6 0.264820 0.500000 0.611829
O O7 0.226114 0.250283 0.612904
O O8 0.305370 0.254235 0.606832
O O9 0.810598 0.835714 0.500000
O O10 0.853196 0.755103 0.607161
O O11 0.812306 0.000000 0.611673
O O12 0.616260 0.000000 0.911815
O O13 0.597444 0.789049 0.000000
O O14 0.039558 0.735762 0.115572
O O15 0.000000 0.500000 0.078118
O O16 0.000000 0.736309 0.000000
O O17 0.076571 0.500000 0.157365
O O18 0.118337 0.268788 0.127850
O O19 0.644987 0.206667 0.500000
O O20 0.662355 0.000000 0.590256
#
# Coordination Sequence:
#
# PCOD8292729 Si02
#       7
#    16  16  16  16   8  16  16
#     4   9  16  27  43  63  89 121 154 187 227 273
#     4   9  16  26  42  65  93 123 152 183 222 268
#     4   9  16  27  45  68  93 119 147 183 228 274
#     4   9  17  28  44  68  94 118 148 187 227 268
#     4   9  14  20  34  58  88 120 152 189 231 267
#     4   9  15  24  38  59  89 122 153 187 227 270
#     4   9  16  25  39  63  93 121 151 188 227 264
#
# _framework density 17.801432999999999
#
# number of rings (size 3 to 8) (size 9 to 14) (size 15 to 20)
#    0.000    3.000    0.769    1.385    0.000    5.846 
#    0.000    1.538    0.000    2.308    0.000    2.692 
#    0.000    3.077    0.000    0.000    0.000    0.000 
#
# Total GULP energy -644639.194356 kJ/mol
# GULP energy per Si atom -12396.907584 kJ/mol
# Density = 1.776092 g / cm^3
# Si number density = 17.801433 Si / 1000 Ang^3
#
#
#
# Elastic Constant Matrix: (Units=GPa)
#
#
# Indices 1 2 3 4 5 6 
#
# 1 174.0164 50.9650 68.2565 0.0000 0.0000 0.0000
# 2 50.9650 58.2330 23.4967 0.0000 0.0000 0.0000
# 3 68.2565 23.4967 83.0985 0.0000 0.0000 0.0000
# 4 0.0000 0.0000 0.0000 6.2909 0.0000 0.0000
# 5 0.0000 0.0000 0.0000 0.0000 12.2065 0.0000
# 6 0.0000 0.0000 0.0000 0.0000 0.0000 20.8225
#
#
#
# Elastic Compliance Matrix: (Units=1/GPa)
#
#
# Indices 1 2 3 4 5 6 
#
# 1 0.010151 -0.006230 -0.006576 0.000000 0.000000 0.000000
# 2 -0.006230 0.023208 -0.001445 0.000000 0.000000 0.000000
# 3 -0.006576 -0.001445 0.017844 0.000000 0.000000 0.000000
# 4 0.000000 0.000000 0.000000 0.158960 0.000000 0.000000
# 5 0.000000 0.000000 0.000000 0.000000 0.081923 0.000000
# 6 0.000000 0.000000 0.000000 0.000000 0.000000 0.048025
#
#
# Mechanical properties :
#
#
# Convention : Reuss Voigt Hill
#
# Bulk Modulus (GPa) = 44.05182 66.75382 55.40282
# Shear Modulus (GPa) = 13.29152 19.37263 16.33207
#
# Velocity S-wave (km/s) = 2.73546 3.30246 3.03224
# Velocity P-wave (km/s) = 5.89720 7.21957 6.59163
#
# Compressibility (1/GPa) = 0.02270054
#
# Stress axis : x y z
#
# Youngs Moduli (GPa) = 98.51537 43.08838 56.04155
#
# Poissons Ratio (x) = 0.26846 0.36853
# Poissons Ratio (y) = 0.61379 0.08096
# Poissons Ratio (z) = 0.64784 0.06225
#
# Static dielectric constant tensor:
#      x y z
#    x 3.522270 0.000000 0.000000 
#    y 0.000000 2.976490 0.000000 
#    z 0.000000 0.000000 3.082500 
# 
# 
# High freq. dielectric constant tensor:
#      x y z
#    x 1.703450 0.000000 0.000000 
#    y 0.000000 1.645870 0.000000 
#    z 0.000000 0.000000 1.654370 
# 
# From -- ./inp_files/56720.got.cif
#   From: 2010.06.25/outbox.cif.g09.slc.cpg/sg71_29_cif.got.tgz:56720.got - 2010.06.28 04:59:45.
