data_PCOD8292146
_publ_section_title
;
Structure prediction by ZEFSAII (Michael W. Deem and Ramdas Pophale) SiO2 
 PCOD8292146
Probable space group: I M M M
;
_chemical_formula_sum "Si O2"
_cell_formula_units_Z 72
_cell_length_a 27.348550
_cell_length_b 14.577552
_cell_length_c 9.722318
_cell_angle_alpha 90.000000
_cell_angle_beta 90.000000
_cell_angle_gamma 90.000000
_cell_volume 3876.044251
_symmetry_space_group_name_H-M "I M M M"
_symmetry_group_IT_number 71
_symmetry_cell_setting 'orthorhombic'
loop_
_space_group_symop_operation_xyz
x,y,z
-x,-y,z
x,-y,-z
-x,y,-z
-x,-y,-z
x,y,-z
-x,y,z
x,-y,z
1/2+x,1/2+y,1/2+z
1/2-x,1/2-y,1/2+z
1/2+x,1/2-y,1/2-z
1/2-x,1/2+y,1/2-z
1/2-x,1/2-y,1/2-z
1/2+x,1/2+y,1/2-z
1/2-x,1/2+y,1/2+z
1/2+x,1/2-y,1/2+z
loop_
_atom_site_type_symbol
_atom_site_label
_atom_site_fract_x
_atom_site_fract_y
_atom_site_fract_z
Si Si1 0.942311 0.105565 0.000000
Si Si2 0.552080 0.396727 0.000000
Si Si3 0.122819 0.363500 0.335674
Si Si4 0.794209 0.500000 0.658931
Si Si5 0.115859 0.840507 0.250075
Si Si6 0.185803 0.000000 0.164465
Si Si7 0.558422 0.000000 0.664566
O O1 0.922006 0.162327 0.873675
O O2 0.000000 0.107304 0.000000
O O3 0.922893 0.000000 0.000000
O O4 0.584455 0.378888 0.871005
O O5 0.535958 0.500000 0.000000
O O6 0.500000 0.340645 0.000000
O O7 0.109923 0.370157 0.500000
O O8 0.174262 0.411235 0.301143
O O9 0.133269 0.260901 0.286947
O O10 0.080196 0.410587 0.243708
O O11 0.782655 0.500000 0.500000
O O12 0.740706 0.500000 0.728414
O O13 0.161371 0.906984 0.220688
O O14 0.183397 0.000000 0.000000
O O15 0.500000 0.000000 0.682427
O O16 0.571854 0.000000 0.500000
#
# Coordination Sequence:
#
# PCOD8292146 Si02
#       7
#     8   8  16   8  16   8   8
#     4  11  22  38  56  82 120 164 204 237 288 349
#     4  11  22  36  54  82 122 164 196 235 288 349
#     4  10  22  41  63  87 120 157 196 242 297 354
#     4   8  19  41  64  83 110 155 196 246 302 352
#     4  12  21  37  60  87 120 155 198 246 292 350
#     4  11  21  38  63  88 116 152 203 246 298 355
#     4  10  23  41  63  89 119 156 199 250 295 341
#
# _framework density 18.575638999999999
#
# number of rings (size 3 to 8) (size 9 to 14) (size 15 to 20)
#    0.000    1.444    4.444    1.667    1.556    5.333 
#    0.000    0.000    9.778    0.000    0.000    0.000 
#    0.000    0.000    0.000    0.000    0.000    0.000 
#
# Total GULP energy -446103.815803 kJ/mol
# GULP energy per Si atom -12391.772661 kJ/mol
# Density = 1.853336 g / cm^3
# Si number density = 18.575639 Si / 1000 Ang^3
#
#
#
# Elastic Constant Matrix: (Units=GPa)
#
#
# Indices 1 2 3 4 5 6 
#
# 1 157.9161 67.4600 62.3153 0.0000 0.0000 0.0000
# 2 67.4600 148.6957 47.8365 0.0000 0.0000 0.0000
# 3 62.3153 47.8365 133.9221 0.0000 0.0000 0.0000
# 4 0.0000 0.0000 0.0000 27.5938 0.0000 0.0000
# 5 0.0000 0.0000 0.0000 0.0000 25.7045 0.0000
# 6 0.0000 0.0000 0.0000 0.0000 0.0000 14.5012
#
#
#
# Elastic Compliance Matrix: (Units=1/GPa)
#
#
# Indices 1 2 3 4 5 6 
#
# 1 0.008819 -0.003029 -0.003022 0.000000 0.000000 0.000000
# 2 -0.003029 0.008639 -0.001676 0.000000 0.000000 0.000000
# 3 -0.003022 -0.001676 0.009472 0.000000 0.000000 0.000000
# 4 0.000000 0.000000 0.000000 0.036240 0.000000 0.000000
# 5 0.000000 0.000000 0.000000 0.000000 0.038904 0.000000
# 6 0.000000 0.000000 0.000000 0.000000 0.000000 0.068960
#
#
# Mechanical properties :
#
#
# Convention : Reuss Voigt Hill
#
# Bulk Modulus (GPa) = 87.14106 88.41748 87.77927
# Shear Modulus (GPa) = 26.27280 31.08804 28.68042
#
# Velocity S-wave (km/s) = 3.76489 4.09539 3.93361
# Velocity P-wave (km/s) = 8.11865 8.37048 8.24553
#
# Compressibility (1/GPa) = 0.01147565
#
# Stress axis : x y z
#
# Youngs Moduli (GPa) = 113.39575 115.76049 105.57698
#
# Poissons Ratio (x) = 0.35061 0.31901
# Poissons Ratio (y) = 0.34345 0.17698
# Poissons Ratio (z) = 0.34263 0.19405
#
# Static dielectric constant tensor:
#      x y z
#    x 3.589510 0.000000 0.000000 
#    y 0.000000 3.702880 0.000000 
#    z 0.000000 0.000000 3.653760 
# 
# 
# High freq. dielectric constant tensor:
#      x y z
#    x 1.727380 0.000000 0.000000 
#    y 0.000000 1.720670 0.000000 
#    z 0.000000 0.000000 1.726500 
# 
# From -- ./inp_files/14412.got.cif
#   From: 2010.06.25/outbox.cif.g09.slc.cpg/sg71_8_cif.got.tgz:14412.got - 2010.06.28 04:59:45.
