data_PCOD8292514
_publ_section_title
;
Structure prediction by ZEFSAII (Michael W. Deem and Ramdas Pophale) SiO2 
 PCOD8292514
Probable space group: I M M M
;
_chemical_formula_sum "Si O2"
_cell_formula_units_Z 64
_cell_length_a 7.516302
_cell_length_b 27.488350
_cell_length_c 15.417292
_cell_angle_alpha 90.000000
_cell_angle_beta 90.000000
_cell_angle_gamma 90.000000
_cell_volume 3185.378110
_symmetry_space_group_name_H-M "I M M M"
_symmetry_group_IT_number 71
_symmetry_cell_setting 'orthorhombic'
loop_
_space_group_symop_operation_xyz
x,y,z
-x,-y,z
x,-y,-z
-x,y,-z
-x,-y,-z
x,y,-z
-x,y,z
x,-y,z
1/2+x,1/2+y,1/2+z
1/2-x,1/2-y,1/2+z
1/2+x,1/2-y,1/2-z
1/2-x,1/2+y,1/2-z
1/2-x,1/2-y,1/2-z
1/2+x,1/2+y,1/2-z
1/2-x,1/2+y,1/2+z
1/2+x,1/2-y,1/2+z
loop_
_atom_site_type_symbol
_atom_site_label
_atom_site_fract_x
_atom_site_fract_y
_atom_site_fract_z
Si Si1 0.500000 0.194253 0.397954
Si Si2 0.210322 0.553801 0.500000
Si Si3 0.209642 0.555822 0.000000
Si Si4 0.500000 0.694473 0.602798
Si Si5 0.206494 0.622118 0.345993
Si Si6 0.701440 0.622799 0.157349
O O1 0.500000 0.188493 0.500000
O O2 0.500000 0.249725 0.367306
O O3 0.676935 0.169123 0.362215
O O4 0.296098 0.500000 0.500000
O O5 0.274982 0.581964 0.414244
O O6 0.000000 0.549622 0.500000
O O7 0.284713 0.580694 0.086110
O O8 0.271212 0.500000 0.000000
O O9 0.000000 0.561743 0.000000
O O10 0.500000 0.689279 0.500000
O O11 0.678363 0.670760 0.641615
O O12 0.238675 0.600565 0.249924
O O13 0.000000 0.635297 0.361354
O O14 0.500000 0.641909 0.161114
#
# Coordination Sequence:
#
# PCOD8292514 Si02
#       6
#     8   8   8   8  16  16
#     4  11  24  44  64  93 126 165 213 258 315 375
#     4   9  20  39  65  92 122 163 208 253 309 372
#     4  11  23  43  69  93 127 169 211 260 319 379
#     4  11  24  42  66  93 126 163 215 260 311 375
#     4  11  22  41  65  91 130 168 206 259 314 370
#     4  12  23  41  66  92 130 167 207 261 312 369
#
# _framework density 20.091805999999998
#
# number of rings (size 3 to 8) (size 9 to 14) (size 15 to 20)
#    0.000    1.000    6.250    0.375    0.000    4.000 
#    0.000    6.250    0.000    0.000    0.000    0.000 
#    0.000    0.000    0.000    0.000    0.000    0.000 
#
# Total GULP energy -396908.377395 kJ/mol
# GULP energy per Si atom -12403.386794 kJ/mol
# Density = 2.004608 g / cm^3
# Si number density = 20.091806 Si / 1000 Ang^3
#
#
#
# Elastic Constant Matrix: (Units=GPa)
#
#
# Indices 1 2 3 4 5 6 
#
# 1 140.3312 59.4636 33.0473 0.0001 0.0000 0.0000
# 2 59.4636 153.8425 80.4287 0.0000 0.0000 0.0000
# 3 33.0473 80.4287 171.2620 0.0002 0.0002 0.0001
# 4 0.0001 0.0000 0.0002 -4.4617 0.0000 0.0000
# 5 0.0000 0.0000 0.0002 0.0000 25.9528 0.0000
# 6 0.0000 0.0000 0.0001 0.0000 0.0000 18.3336
#
#
#
# Elastic Compliance Matrix: (Units=1/GPa)
#
#
# Indices 1 2 3 4 5 6 
#
# 1 0.008524 -0.003227 -0.000129 0.000000 0.000000 0.000000
# 2 -0.003227 0.009837 -0.003997 0.000000 0.000000 0.000000
# 3 -0.000129 -0.003997 0.007741 0.000000 0.000000 0.000000
# 4 0.000000 0.000000 0.000000 -0.224130 0.000000 0.000000
# 5 0.000000 0.000000 0.000000 0.000000 0.038532 0.000000
# 6 0.000000 0.000000 0.000000 0.000000 0.000000 0.054545
#
#
# Mechanical properties :
#
#
# Convention : Reuss Voigt Hill
#
# Bulk Modulus (GPa) = 87.75578 90.14611 88.95094
# Shear Modulus (GPa) = -57.83958 27.46467 -15.18746
#
# Velocity S-wave (km/s) = -5.37123 3.70125 -2.75235
# Velocity P-wave (km/s) = 2.30334 7.95174 5.85387
#
# Compressibility (1/GPa) = 0.01139526
#
# Stress axis : x y z
#
# Youngs Moduli (GPa) = 117.31750 101.65554 129.18124
#
# Poissons Ratio (x) = 0.32805 0.01670
# Poissons Ratio (y) = 0.37859 0.51634
# Poissons Ratio (z) = 0.01517 0.40632
#
# Static dielectric constant tensor:
#      x y z
#    x 3.874610 0.000000 0.000000 
#    y 0.000000 3.667060 0.000000 
#    z 0.000000 0.000000 3.978540 
# 
# 
# High freq. dielectric constant tensor:
#      x y z
#    x 1.796780 0.000000 0.000000 
#    y 0.000000 1.767430 0.000000 
#    z 0.000000 0.000000 1.803550 
# 
# From -- ./inp_files/31383.got.cif
#   From: 2010.06.25/outbox.cif.g09.slc.cpg/sg71_16_cif.got.tgz:31383.got - 2010.06.28 04:59:45.
