data_PCOD8292406
_publ_section_title
;
Structure prediction by ZEFSAII (Michael W. Deem and Ramdas Pophale) SiO2 
 PCOD8292406
Probable space group: I M M M
;
_chemical_formula_sum "Si O2"
_cell_formula_units_Z 72
_cell_length_a 7.664882
_cell_length_b 24.560992
_cell_length_c 17.840167
_cell_angle_alpha 90.000000
_cell_angle_beta 90.000000
_cell_angle_gamma 90.000000
_cell_volume 3358.538201
_symmetry_space_group_name_H-M "I M M M"
_symmetry_group_IT_number 71
_symmetry_cell_setting 'orthorhombic'
loop_
_space_group_symop_operation_xyz
x,y,z
-x,-y,z
x,-y,-z
-x,y,-z
-x,-y,-z
x,y,-z
-x,y,z
x,-y,z
1/2+x,1/2+y,1/2+z
1/2-x,1/2-y,1/2+z
1/2+x,1/2-y,1/2-z
1/2-x,1/2+y,1/2-z
1/2-x,1/2-y,1/2-z
1/2+x,1/2+y,1/2-z
1/2-x,1/2+y,1/2+z
1/2+x,1/2-y,1/2+z
loop_
_atom_site_type_symbol
_atom_site_label
_atom_site_fract_x
_atom_site_fract_y
_atom_site_fract_z
Si Si1 0.500000 0.064007 0.587540
Si Si2 0.292764 0.750811 0.916545
Si Si3 0.302692 0.363637 0.852007
Si Si4 0.803482 0.345083 0.689197
Si Si5 0.703978 0.438158 0.585165
O O1 0.500000 0.078112 0.500000
O O2 0.674339 0.087661 0.625569
O O3 0.500000 0.000000 0.602491
O O4 0.500000 0.754845 0.916582
O O5 0.232138 0.691098 0.891214
O O6 0.218008 0.795908 0.859117
O O7 0.218876 0.762138 0.000000
O O8 0.500000 0.377760 0.878571
O O9 0.310183 0.354647 0.762909
O O10 0.810889 0.399371 0.639607
O O11 0.000000 0.330517 0.713929
O O12 0.760142 0.425786 0.500000
O O13 0.500000 0.427512 0.595901
O O14 0.751350 0.500000 0.606154
#
# Coordination Sequence:
#
# PCOD8292406 Si02
#       5
#     8  16  16  16  16
#     4  11  26  48  72 100 129 161 216 274 321 390
#     4   9  19  36  61  92 127 170 217 264 318 386
#     4  11  23  43  68  94 132 172 210 262 329 386
#     4  11  21  36  59  91 130 168 212 267 318 372
#     4   9  19  36  55  78 115 163 215 267 316 375
#
# _framework density 21.437899000000002
#
# number of rings (size 3 to 8) (size 9 to 14) (size 15 to 20)
#    0.000    1.889    1.111    3.333    0.000    4.444 
#    4.000    2.222    0.000    0.000    0.000    0.000 
#    0.000    0.000    0.000    0.000    0.000    0.000 
#
# Total GULP energy -446507.143300 kJ/mol
# GULP energy per Si atom -12402.976203 kJ/mol
# Density = 2.138911 g / cm^3
# Si number density = 21.437899 Si / 1000 Ang^3
#
#
#
# Elastic Constant Matrix: (Units=GPa)
#
#
# Indices 1 2 3 4 5 6 
#
# 1 76.3020 37.4668 26.4104 0.0000 0.0000 0.0000
# 2 37.4668 127.8410 62.2541 0.0001 0.0000 0.0000
# 3 26.4104 62.2541 127.9251 0.0006 0.0000 -0.0002
# 4 0.0000 0.0001 0.0006 28.5357 0.0000 -0.0001
# 5 0.0000 0.0000 0.0000 0.0000 0.9911 0.0000
# 6 0.0000 0.0000 -0.0002 -0.0001 0.0000 22.8321
#
#
#
# Elastic Compliance Matrix: (Units=1/GPa)
#
#
# Indices 1 2 3 4 5 6 
#
# 1 0.015471 -0.003904 -0.001294 0.000000 0.000000 0.000000
# 2 -0.003904 0.011237 -0.004662 0.000000 0.000000 0.000000
# 3 -0.001294 -0.004662 0.010353 0.000000 0.000000 0.000000
# 4 0.000000 0.000000 0.000000 0.035044 0.000000 0.000000
# 5 0.000000 0.000000 0.000000 0.000000 1.009003 -0.000001
# 6 0.000000 0.000000 0.000000 0.000000 -0.000001 0.043798
#
#
# Mechanical properties :
#
#
# Convention : Reuss Voigt Hill
#
# Bulk Modulus (GPa) = 57.67053 64.92563 61.29808
# Shear Modulus (GPa) = 4.34629 24.20091 14.27360
#
# Velocity S-wave (km/s) = 1.42541 3.36353 2.58313
# Velocity P-wave (km/s) = 5.44689 6.74060 6.12798
#
# Compressibility (1/GPa) = 0.01733988
#
# Stress axis : x y z
#
# Youngs Moduli (GPa) = 64.63843 88.99388 96.58887
#
# Poissons Ratio (x) = 0.34742 0.12500
# Poissons Ratio (y) = 0.25234 0.45033
# Poissons Ratio (z) = 0.08365 0.41492
#
# Static dielectric constant tensor:
#      x y z
#    x 3.602470 0.000000 0.000000 
#    y 0.000000 3.865300 0.000000 
#    z 0.000000 0.000000 3.936350 
# 
# 
# High freq. dielectric constant tensor:
#      x y z
#    x 1.829630 0.000000 0.000000 
#    y 0.000000 1.840530 0.000000 
#    z 0.000000 0.000000 1.846940 
# 
# From -- ./inp_files/7964.got.cif
#   From: 2010.06.25/outbox.cif.g09.slc.cpg/sg71_4_cif.got.tgz:7964.got - 2010.06.28 04:59:45.
