data_PCOD8292443
_publ_section_title
;
Structure prediction by ZEFSAII (Michael W. Deem and Ramdas Pophale) SiO2 
 PCOD8292443
Probable space group: I M M M
;
_chemical_formula_sum "Si O2"
_cell_formula_units_Z 112
_cell_length_a 14.007828
_cell_length_b 27.412551
_cell_length_c 15.430040
_cell_angle_alpha 90.000000
_cell_angle_beta 90.000000
_cell_angle_gamma 90.000000
_cell_volume 5924.985680
_symmetry_space_group_name_H-M "I M M M"
_symmetry_group_IT_number 71
_symmetry_cell_setting 'orthorhombic'
loop_
_space_group_symop_operation_xyz
x,y,z
-x,-y,z
x,-y,-z
-x,y,-z
-x,-y,-z
x,y,-z
-x,y,z
x,-y,z
1/2+x,1/2+y,1/2+z
1/2-x,1/2-y,1/2+z
1/2+x,1/2-y,1/2-z
1/2-x,1/2+y,1/2-z
1/2-x,1/2-y,1/2-z
1/2+x,1/2+y,1/2-z
1/2-x,1/2+y,1/2+z
1/2+x,1/2-y,1/2+z
loop_
_atom_site_type_symbol
_atom_site_label
_atom_site_fract_x
_atom_site_fract_y
_atom_site_fract_z
Si Si1 0.610816 0.305822 0.743082
Si Si2 0.604473 0.199741 0.682690
Si Si3 0.392116 0.554484 0.334923
Si Si4 0.893641 0.391779 0.693917
Si Si5 0.257208 0.055159 0.312858
Si Si6 0.276430 0.346289 0.098326
Si Si7 0.782240 0.136910 0.905207
O O1 0.500000 0.319434 0.728077
O O2 0.628609 0.248139 0.737702
O O3 0.642640 0.326862 0.836114
O O4 0.678066 0.327832 0.668731
O O5 0.500000 0.204997 0.637879
O O6 0.602915 0.157102 0.751525
O O7 0.682582 0.187569 0.609716
O O8 0.500000 0.569695 0.314960
O O9 0.383972 0.500000 0.371344
O O10 0.337590 0.560815 0.244268
O O11 0.348501 0.589051 0.408157
O O12 0.849523 0.435153 0.752391
O O13 0.826269 0.380353 0.612131
O O14 0.000000 0.407016 0.663055
O O15 0.249579 0.096479 0.386938
O O16 0.265110 0.000000 0.351677
O O17 0.313328 0.340445 0.000000
O O18 0.786452 0.162039 0.000000
#
# Coordination Sequence:
#
# PCOD8292443 Si02
#       7
#    16  16  16  16  16  16  16
#     4  11  22  39  58  81 116 151 188 233 280 333
#     4   9  19  38  62  80 106 148 189 231 280 329
#     4   9  17  32  54  75 101 141 185 229 277 326
#     4   9  18  36  58  80 108 144 185 231 284 338
#     4   9  18  34  55  82 112 148 191 232 278 335
#     4  11  22  36  58  87 118 153 190 233 284 337
#     4  11  22  34  53  82 111 142 183 229 281 338
#
# _framework density 18.902999000000001
#
# number of rings (size 3 to 8) (size 9 to 14) (size 15 to 20)
#    0.000    2.143    4.286    0.857    0.000    3.429 
#    0.000    2.143    0.000    2.571    0.000   11.000 
#    0.000    0.000    0.000    0.000    0.000    0.000 
#
# Total GULP energy -694055.451998 kJ/mol
# GULP energy per Si atom -12393.847357 kJ/mol
# Density = 1.885998 g / cm^3
# Si number density = 18.902999 Si / 1000 Ang^3
#
#
#
# Elastic Constant Matrix: (Units=GPa)
#
#
# Indices 1 2 3 4 5 6 
#
# 1 136.4330 29.6080 29.4776 0.0000 0.0000 0.0000
# 2 29.6080 90.1453 27.4918 -0.0001 0.0000 0.0000
# 3 29.4776 27.4918 102.8070 -0.0004 0.0000 0.0001
# 4 0.0000 -0.0001 -0.0004 9.3043 0.0000 0.0000
# 5 0.0000 0.0000 0.0000 0.0000 10.7369 0.0000
# 6 0.0000 0.0000 0.0001 0.0000 0.0000 25.6741
#
#
#
# Elastic Compliance Matrix: (Units=1/GPa)
#
#
# Indices 1 2 3 4 5 6 
#
# 1 0.008178 -0.002146 -0.001771 0.000000 0.000000 0.000000
# 2 -0.002146 0.012641 -0.002765 0.000000 0.000000 0.000000
# 3 -0.001771 -0.002765 0.010974 0.000000 0.000000 0.000000
# 4 0.000000 0.000000 0.000000 0.107478 0.000000 0.000000
# 5 0.000000 0.000000 0.000000 0.000000 0.093137 0.000000
# 6 0.000000 0.000000 0.000000 0.000000 0.000000 0.038950
#
#
# Mechanical properties :
#
#
# Convention : Reuss Voigt Hill
#
# Bulk Modulus (GPa) = 54.26132 55.83778 55.04955
# Shear Modulus (GPa) = 17.19011 25.33024 21.26018
#
# Velocity S-wave (km/s) = 3.01887 3.66459 3.35729
# Velocity P-wave (km/s) = 6.39679 6.89267 6.64935
#
# Compressibility (1/GPa) = 0.01842933
#
# Stress axis : x y z
#
# Youngs Moduli (GPa) = 122.28018 79.10566 91.12285
#
# Poissons Ratio (x) = 0.16975 0.16138
# Poissons Ratio (y) = 0.26240 0.25197
# Poissons Ratio (z) = 0.21656 0.21874
#
# Static dielectric constant tensor:
#      x y z
#    x 3.946990 0.000000 0.000000 
#    y 0.000000 3.788320 0.000000 
#    z 0.000000 0.000000 3.006450 
# 
# 
# High freq. dielectric constant tensor:
#      x y z
#    x 1.745320 0.000000 0.000000 
#    y 0.000000 1.744760 0.000000 
#    z 0.000000 0.000000 1.693640 
# 
# From -- ./inp_files/35160.got.cif
#   From: 2010.06.25/outbox.cif.g09.slc.cpg/sg71_18_cif.got.tgz:35160.got - 2010.06.28 04:59:45.
