data_PCOD8292303
_publ_section_title
;
Structure prediction by ZEFSAII (Michael W. Deem and Ramdas Pophale) SiO2 
 PCOD8292303
Probable space group: I M M M
;
_chemical_formula_sum "Si O2"
_cell_formula_units_Z 88
_cell_length_a 24.133156
_cell_length_b 9.847055
_cell_length_c 20.312820
_cell_angle_alpha 90.000000
_cell_angle_beta 90.000000
_cell_angle_gamma 90.000000
_cell_volume 4827.148995
_symmetry_space_group_name_H-M "I M M M"
_symmetry_group_IT_number 71
_symmetry_cell_setting 'orthorhombic'
loop_
_space_group_symop_operation_xyz
x,y,z
-x,-y,z
x,-y,-z
-x,y,-z
-x,-y,-z
x,y,-z
-x,y,z
x,-y,z
1/2+x,1/2+y,1/2+z
1/2-x,1/2-y,1/2+z
1/2+x,1/2-y,1/2-z
1/2-x,1/2+y,1/2-z
1/2-x,1/2-y,1/2-z
1/2+x,1/2+y,1/2-z
1/2-x,1/2+y,1/2+z
1/2+x,1/2-y,1/2+z
loop_
_atom_site_type_symbol
_atom_site_label
_atom_site_fract_x
_atom_site_fract_y
_atom_site_fract_z
Si Si1 0.802952 0.162476 0.500000
Si Si2 0.000000 0.661548 0.923271
Si Si3 0.065303 0.000000 0.577052
Si Si4 0.177657 0.338980 0.000000
Si Si5 0.371918 0.249308 0.120818
Si Si6 0.882614 0.339166 0.127191
Si Si7 0.065168 0.500000 0.426502
Si Si8 0.807288 0.664999 0.251155
O O1 0.740192 0.207945 0.500000
O O2 0.827641 0.232945 0.436323
O O3 0.810459 0.000000 0.500000
O O4 0.946356 0.712575 0.881006
O O5 0.000000 0.500000 0.927113
O O6 0.000000 0.714859 0.000000
O O7 0.087513 0.123316 0.619980
O O8 0.086737 0.000000 0.500000
O O9 0.000000 0.000000 0.575824
O O10 0.149284 0.277642 0.935380
O O11 0.171685 0.500000 0.000000
O O12 0.338640 0.224146 0.186558
O O13 0.413827 0.127869 0.112248
O O14 0.882538 0.500000 0.125830
O O15 0.848429 0.292664 0.191540
O O16 0.089407 0.500000 0.500000
O O17 0.000000 0.500000 0.427583
O O18 0.796881 0.500000 0.253634
O O19 0.750000 0.750000 0.250000
#
# Coordination Sequence:
#
# PCOD8292303 Si02
#       8
#     8   8   8   8  16  16   8  16
#     4  11  20  33  57  86 111 153 201 256 295 343
#     4   9  14  26  54  82 115 142 175 234 296 353
#     4  11  22  40  65  90 116 155 208 255 299 359
#     4   9  16  27  51  77 106 137 189 240 287 345
#     4  12  21  39  58  87 118 153 205 248 301 361
#     4   9  17  32  50  81 111 148 186 228 295 354
#     4  11  22  38  59  84 120 157 190 245 313 369
#     4  11  25  41  59  83 121 165 201 249 307 366
#
# _framework density 18.230222000000001
#
# number of rings (size 3 to 8) (size 9 to 14) (size 15 to 20)
#    0.000    1.545    4.545    1.636    1.273    2.909 
#    3.273    0.000    0.000    0.000    0.000    0.000 
#    0.000    0.727    0.000    0.000    0.000    0.000 
#
# Total GULP energy -545131.011335 kJ/mol
# GULP energy per Si atom -12389.341167 kJ/mol
# Density = 1.818873 g / cm^3
# Si number density = 18.230222 Si / 1000 Ang^3
#
#
#
# Elastic Constant Matrix: (Units=GPa)
#
#
# Indices 1 2 3 4 5 6 
#
# 1 158.8845 42.2206 77.2513 0.0000 0.0000 0.0000
# 2 42.2206 90.8846 37.9895 0.0000 0.0000 0.0000
# 3 77.2513 37.9895 152.6169 0.0000 0.0000 0.0000
# 4 0.0000 0.0000 0.0000 50.3725 0.0000 0.0000
# 5 0.0000 0.0000 0.0000 0.0000 79.2404 0.0000
# 6 0.0000 0.0000 0.0000 0.0000 0.0000 29.7754
#
#
#
# Elastic Compliance Matrix: (Units=1/GPa)
#
#
# Indices 1 2 3 4 5 6 
#
# 1 0.008827 -0.002492 -0.003848 0.000000 0.000000 0.000000
# 2 -0.002492 0.012984 -0.001971 0.000000 0.000000 0.000000
# 3 -0.003848 -0.001971 0.008990 0.000000 0.000000 0.000000
# 4 0.000000 0.000000 0.000000 0.019852 0.000000 0.000000
# 5 0.000000 0.000000 0.000000 0.000000 0.012620 0.000000
# 6 0.000000 0.000000 0.000000 0.000000 0.000000 0.033585
#
#
# Mechanical properties :
#
#
# Convention : Reuss Voigt Hill
#
# Bulk Modulus (GPa) = 70.51735 79.70099 75.10917
# Shear Modulus (GPa) = 42.29892 48.20597 45.25245
#
# Velocity S-wave (km/s) = 4.82214 5.14784 4.98765
# Velocity P-wave (km/s) = 8.35282 8.89650 8.62894
#
# Compressibility (1/GPa) = 0.01418091
#
# Stress axis : x y z
#
# Youngs Moduli (GPa) = 113.29013 77.01523 111.22929
#
# Poissons Ratio (x) = 0.19194 0.42797
# Poissons Ratio (y) = 0.28235 0.21919
# Poissons Ratio (z) = 0.43590 0.15176
#
# Static dielectric constant tensor:
#      x y z
#    x 3.717740 0.000000 0.000000 
#    y 0.000000 3.177780 0.000000 
#    z 0.000000 0.000000 3.354340 
# 
# 
# High freq. dielectric constant tensor:
#      x y z
#    x 1.731790 0.000000 0.000000 
#    y 0.000000 1.668790 0.000000 
#    z 0.000000 0.000000 1.707940 
# 
# From -- ./inp_files/55663.got.cif
#   From: 2010.06.25/outbox.cif.g09.slc.cpg/sg71_28_cif.got.tgz:55663.got - 2010.06.28 04:59:45.
