data_PCOD8292665
_publ_section_title
;
Structure prediction by ZEFSAII (Michael W. Deem and Ramdas Pophale) SiO2 
 PCOD8292665
Probable space group: I M M M
;
_chemical_formula_sum "Si O2"
_cell_formula_units_Z 88
_cell_length_a 10.059689
_cell_length_b 29.059580
_cell_length_c 17.427017
_cell_angle_alpha 90.000000
_cell_angle_beta 90.000000
_cell_angle_gamma 90.000000
_cell_volume 5094.445757
_symmetry_space_group_name_H-M "I M M M"
_symmetry_group_IT_number 71
_symmetry_cell_setting 'orthorhombic'
loop_
_space_group_symop_operation_xyz
x,y,z
-x,-y,z
x,-y,-z
-x,y,-z
-x,-y,-z
x,y,-z
-x,y,z
x,-y,z
1/2+x,1/2+y,1/2+z
1/2-x,1/2-y,1/2+z
1/2+x,1/2-y,1/2-z
1/2-x,1/2+y,1/2-z
1/2-x,1/2-y,1/2-z
1/2+x,1/2+y,1/2-z
1/2-x,1/2+y,1/2+z
1/2+x,1/2-y,1/2+z
loop_
_atom_site_type_symbol
_atom_site_label
_atom_site_fract_x
_atom_site_fract_y
_atom_site_fract_z
Si Si1 0.657755 0.383760 0.362859
Si Si2 0.351464 0.717919 0.350088
Si Si3 0.146706 0.208720 0.668124
Si Si4 0.155736 0.894209 0.690593
Si Si5 0.147004 0.554314 0.085503
Si Si6 0.341311 0.552622 0.500000
O O1 0.500000 0.383887 0.362575
O O2 0.701861 0.331220 0.382397
O O3 0.707530 0.397670 0.278336
O O4 0.713193 0.420176 0.425158
O O5 0.500000 0.728482 0.381695
O O6 0.251407 0.758428 0.375825
O O7 0.355396 0.716529 0.258698
O O8 0.184652 0.155741 0.653984
O O9 0.000000 0.219416 0.634837
O O10 0.239613 0.930425 0.643421
O O11 0.000000 0.906434 0.685485
O O12 0.146764 0.500000 0.085324
O O13 0.000000 0.572179 0.110557
O O14 0.179619 0.572653 0.000000
O O15 0.287464 0.500000 0.500000
O O16 0.500000 0.552395 0.500000
#
# Coordination Sequence:
#
# PCOD8292665 Si02
#       6
#    16  16  16  16  16   8
#     4   8  15  27  42  65  96 125 157 198 237 275
#     4   8  13  23  40  61  87 119 152 186 224 268
#     4   8  14  24  39  63  92 117 145 184 228 271
#     4   9  17  29  47  72  98 122 153 195 236 277
#     4   9  19  35  51  67  91 122 153 188 231 280
#     4   9  16  26  42  64  93 129 161 195 246 289
#
# _framework density 17.273713999999998
#
# number of rings (size 3 to 8) (size 9 to 14) (size 15 to 20)
#    0.000    3.545    0.000    2.727    0.000    2.182 
#    0.000    5.455    2.000    0.000    0.000    1.909 
#    0.000    4.364    0.000    0.000    0.000    0.000 
#
# Total GULP energy -545216.953186 kJ/mol
# GULP energy per Si atom -12391.294391 kJ/mol
# Density = 1.723440 g / cm^3
# Si number density = 17.273714 Si / 1000 Ang^3
#
#
#
# Elastic Constant Matrix: (Units=GPa)
#
#
# Indices 1 2 3 4 5 6 
#
# 1 65.8682 44.9053 37.2202 0.0002 0.0000 0.0000
# 2 44.9053 94.5141 47.7806 0.0001 0.0000 0.0000
# 3 37.2202 47.7806 70.2931 0.0007 0.0000 0.0000
# 4 0.0002 0.0001 0.0007 19.9551 0.0001 0.0000
# 5 0.0000 0.0000 0.0000 0.0001 13.7456 0.0001
# 6 0.0000 0.0000 0.0000 0.0000 0.0001 30.8610
#
#
#
# Elastic Compliance Matrix: (Units=1/GPa)
#
#
# Indices 1 2 3 4 5 6 
#
# 1 0.025022 -0.007908 -0.007874 0.000000 0.000000 0.000000
# 2 -0.007908 0.018619 -0.008469 0.000000 0.000000 0.000000
# 3 -0.007874 -0.008469 0.024152 -0.000001 0.000000 0.000000
# 4 0.000000 0.000000 -0.000001 0.050112 0.000000 0.000000
# 5 0.000000 0.000000 0.000000 0.000000 0.072750 0.000000
# 6 0.000000 0.000000 0.000000 0.000000 0.000000 0.032403
#
#
# Mechanical properties :
#
#
# Convention : Reuss Voigt Hill
#
# Bulk Modulus (GPa) = 51.83522 54.49861 53.16692
# Shear Modulus (GPa) = 17.98618 19.63031 18.80825
#
# Velocity S-wave (km/s) = 3.23033 3.37475 3.30333
# Velocity P-wave (km/s) = 6.63225 6.84133 6.73760
#
# Compressibility (1/GPa) = 0.01929190
#
# Stress axis : x y z
#
# Youngs Moduli (GPa) = 39.96418 53.70904 41.40471
#
# Poissons Ratio (x) = 0.42473 0.32602
# Poissons Ratio (y) = 0.31603 0.35064
# Poissons Ratio (z) = 0.31468 0.45484
#
# Static dielectric constant tensor:
#      x y z
#    x 3.198860 0.000000 0.000000 
#    y 0.000000 3.353930 0.000000 
#    z 0.000000 0.000000 3.142030 
# 
# 
# High freq. dielectric constant tensor:
#      x y z
#    x 1.637240 0.000000 0.000000 
#    y 0.000000 1.667620 0.000000 
#    z 0.000000 0.000000 1.638820 
# 
# From -- ./inp_files/42506.got.cif
#   From: 2010.06.25/outbox.cif.g09.slc.cpg/sg71_22_cif.got.tgz:42506.got - 2010.06.28 04:59:45.
