data_PCOD8292869
_publ_section_title
;
Structure prediction by ZEFSAII (Michael W. Deem and Ramdas Pophale) SiO2 
 PCOD8292869
Probable space group: I B A M
;
_chemical_formula_sum "Si O2"
_cell_formula_units_Z 128
_cell_length_a 21.670278
_cell_length_b 20.373506
_cell_length_c 17.984808
_cell_angle_alpha 90.000000
_cell_angle_beta 90.000000
_cell_angle_gamma 90.000000
_cell_volume 7940.284438
_symmetry_space_group_name_H-M "I B A M"
_symmetry_group_IT_number 72
_symmetry_cell_setting 'orthorhombic'
loop_
_space_group_symop_operation_xyz
x,y,z
-x,-y,z
x,-y,1/2-z
-x,y,1/2-z
-x,-y,-z
x,y,-z
-x,y,1/2+z
x,-y,1/2+z
1/2+x,1/2+y,1/2+z
1/2-x,1/2-y,1/2+z
1/2+x,1/2-y,-z
1/2-x,1/2+y,-z
1/2-x,1/2-y,1/2-z
1/2+x,1/2+y,1/2-z
1/2-x,1/2+y,z
1/2+x,1/2-y,z
loop_
_atom_site_type_symbol
_atom_site_label
_atom_site_fract_x
_atom_site_fract_y
_atom_site_fract_z
Si Si1 0.644580 0.874885 0.320713
Si Si2 0.241505 0.633824 0.919136
Si Si3 0.071746 0.497512 0.838157
Si Si4 0.435473 0.212867 0.212796
Si Si5 0.264818 0.425558 0.734276
Si Si6 0.601034 0.870666 0.084695
Si Si7 0.218058 0.262700 0.862255
Si Si8 0.670663 0.304586 0.715969
O O1 0.605841 0.930631 0.364601
O O2 0.599151 0.840214 0.263022
O O3 0.701416 0.905263 0.274135
O O4 0.671302 0.822851 0.382183
O O5 0.259583 0.583265 0.854724
O O6 0.170618 0.656326 0.910835
O O7 0.283037 0.700545 0.917142
O O8 0.252753 0.600609 0.000000
O O9 0.082143 0.500000 0.750000
O O10 0.103911 0.556679 0.880780
O O11 0.000000 0.500000 0.859347
O O12 0.500000 0.230408 0.250000
O O13 0.443196 0.177781 0.132266
O O14 0.399898 0.282348 0.202639
O O15 0.282196 0.500000 0.750000
O O16 0.322130 0.381383 0.763438
O O17 0.576399 0.872733 0.000000
O O18 0.288135 0.289781 0.857026
O O19 0.196832 0.240581 0.781083
#
# Coordination Sequence:
#
# PCOD8292869 Si02
#       8
#    16  16  16  16  16  16  16  16
#     4  10  17  28  47  71  91 118 166 198 229 262
#     4  10  17  28  46  69  98 125 152 192 245 292
#     4  11  20  31  46  65  92 131 173 198 218 272
#     4  11  18  30  50  69  89 122 163 198 231 276
#     4  10  17  29  50  70  95 122 159 200 231 286
#     4  11  21  31  45  67  95 124 157 198 241 279
#     4   8  14  27  44  64  92 117 148 200 233 273
#     4   8  15  27  45  69  88 109 155 199 234 267
#
# _framework density 16.120329000000002
#
# number of rings (size 3 to 8) (size 9 to 14) (size 15 to 20)
#    0.000    2.125    3.750    3.375    0.000    0.250 
#    0.000    0.625    0.000   13.875    0.000    0.000 
#    0.000    0.000    0.000   11.250    0.000    0.000 
#
# Total GULP energy -792996.173986 kJ/mol
# GULP energy per Si atom -12390.565219 kJ/mol
# Density = 1.608364 g / cm^3
# Si number density = 16.120329 Si / 1000 Ang^3
#
#
#
# Elastic Constant Matrix: (Units=GPa)
#
#
# Indices 1 2 3 4 5 6 
#
# 1 74.8702 58.8681 24.9769 0.0000 0.0000 0.0000
# 2 58.8681 105.2228 31.7152 0.0000 0.0000 0.0000
# 3 24.9769 31.7152 73.1150 0.0000 0.0000 0.0000
# 4 0.0000 0.0000 0.0000 12.1825 0.0000 0.0000
# 5 0.0000 0.0000 0.0000 0.0000 9.9100 0.0000
# 6 0.0000 0.0000 0.0000 0.0000 0.0000 24.4737
#
#
#
# Elastic Compliance Matrix: (Units=1/GPa)
#
#
# Indices 1 2 3 4 5 6 
#
# 1 0.024324 -0.012774 -0.002768 0.000000 0.000000 0.000000
# 2 -0.012774 0.017641 -0.003289 0.000000 0.000000 0.000000
# 3 -0.002768 -0.003289 0.016049 0.000000 0.000000 0.000000
# 4 0.000000 0.000000 0.000000 0.082085 0.000000 0.000000
# 5 0.000000 0.000000 0.000000 0.000000 0.100908 0.000000
# 6 0.000000 0.000000 0.000000 0.000000 0.000000 0.040860
#
#
# Mechanical properties :
#
#
# Convention : Reuss Voigt Hill
#
# Bulk Modulus (GPa) = 49.13334 53.81427 51.47380
# Shear Modulus (GPa) = 15.32272 18.48976 16.90624
#
# Velocity S-wave (km/s) = 3.08640 3.39039 3.24196
# Velocity P-wave (km/s) = 6.57620 6.98439 6.78336
#
# Compressibility (1/GPa) = 0.02035278
#
# Stress axis : x y z
#
# Youngs Moduli (GPa) = 41.11249 56.68531 62.30798
#
# Poissons Ratio (x) = 0.72408 0.17249
# Poissons Ratio (y) = 0.52516 0.20491
# Poissons Ratio (z) = 0.11381 0.18642
#
# Static dielectric constant tensor:
#      x y z
#    x 3.042520 0.000000 0.000000 
#    y 0.000000 3.204690 0.000000 
#    z 0.000000 0.000000 2.864610 
# 
# 
# High freq. dielectric constant tensor:
#      x y z
#    x 1.594040 0.000000 0.000000 
#    y 0.000000 1.613010 0.000000 
#    z 0.000000 0.000000 1.592090 
# 
# From -- ./inp_files/32961.got.cif
#   From: 2010.03.12/outbox.cif.g09.slc.cpg/sg72_17_cif.got.tgz:32961.got - 2010.04.16 14:54:00.
