data_PCOD8292285
_publ_section_title
;
Structure prediction by ZEFSAII (Michael W. Deem and Ramdas Pophale) SiO2 
 PCOD8292285
Probable space group: I M M M
;
_chemical_formula_sum "Si O2"
_cell_formula_units_Z 104
_cell_length_a 31.182251
_cell_length_b 7.896375
_cell_length_c 23.867114
_cell_angle_alpha 90.000000
_cell_angle_beta 90.000000
_cell_angle_gamma 90.000000
_cell_volume 5876.721846
_symmetry_space_group_name_H-M "I M M M"
_symmetry_group_IT_number 71
_symmetry_cell_setting 'orthorhombic'
loop_
_space_group_symop_operation_xyz
x,y,z
-x,-y,z
x,-y,-z
-x,y,-z
-x,-y,-z
x,y,-z
-x,y,z
x,-y,z
1/2+x,1/2+y,1/2+z
1/2-x,1/2-y,1/2+z
1/2+x,1/2-y,1/2-z
1/2-x,1/2+y,1/2-z
1/2-x,1/2-y,1/2-z
1/2+x,1/2+y,1/2-z
1/2-x,1/2+y,1/2+z
1/2+x,1/2-y,1/2+z
loop_
_atom_site_type_symbol
_atom_site_label
_atom_site_fract_x
_atom_site_fract_y
_atom_site_fract_z
Si Si1 0.342281 0.802019 0.937109
Si Si2 0.047627 0.799357 0.252607
Si Si3 0.500000 0.807552 0.939604
Si Si4 0.809329 0.500000 0.066751
Si Si5 0.245646 0.187668 0.933444
Si Si6 0.420890 0.306296 0.867783
Si Si7 0.593204 0.000000 0.566318
Si Si8 0.051050 0.806117 0.870731
O O1 0.294152 0.764006 0.916083
O O2 0.373882 0.715063 0.893228
O O3 0.351639 0.000000 0.937809
O O4 0.349477 0.728831 0.000000
O O5 0.077341 0.732373 0.303962
O O6 0.065533 0.744512 0.191614
O O7 0.000000 0.724105 0.262301
O O8 0.044818 0.000000 0.251018
O O9 0.543202 0.775083 0.906063
O O10 0.500000 0.000000 0.955031
O O11 0.500000 0.709161 0.000000
O O12 0.786210 0.330776 0.090741
O O13 0.857913 0.500000 0.087963
O O14 0.806213 0.500000 0.000000
O O15 0.233355 0.000000 0.909870
O O16 0.243297 0.180631 0.000000
O O17 0.433458 0.500000 0.863952
O O18 0.571053 0.173262 0.586145
O O19 0.591001 0.000000 0.500000
O O20 0.000000 0.798549 0.875467
O O21 0.066462 0.000000 0.883730
#
# Coordination Sequence:
#
# PCOD8292285 Si02
#       8
#    16  16   8   8  16  16   8  16
#     4   9  18  31  44  64  99 134 168 214 267 320
#     4   8  15  32  52  69  95 128 171 226 261 287
#     4  11  23  35  41  55  97 145 175 210 269 332
#     4   9  18  31  50  75 106 135 164 203 252 305
#     4   8  15  29  48  68  95 133 172 210 253 305
#     4  11  20  30  47  70  93 124 174 228 269 310
#     4  11  23  36  53  88 122 138 163 206 247 309
#     4   9  19  37  58  78 108 149 181 209 249 290
#
# _framework density 17.696940999999999
#
# number of rings (size 3 to 8) (size 9 to 14) (size 15 to 20)
#    0.000    2.692    0.769    3.231    1.077    4.308 
#    2.769    2.308    0.000    0.000    0.000    1.077 
#    0.000    0.000    0.000    0.000    0.000    0.000 
#
# Total GULP energy -644361.897024 kJ/mol
# GULP energy per Si atom -12391.574943 kJ/mol
# Density = 1.765666 g / cm^3
# Si number density = 17.696941 Si / 1000 Ang^3
#
#
#
# Elastic Constant Matrix: (Units=GPa)
#
#
# Indices 1 2 3 4 5 6 
#
# 1 85.5809 45.4260 39.7034 0.0000 0.0000 0.0000
# 2 45.4260 85.3447 34.7170 0.0000 0.0000 0.0000
# 3 39.7034 34.7170 86.4879 0.0000 0.0000 0.0000
# 4 0.0000 0.0000 0.0000 59.3070 0.0000 0.0000
# 5 0.0000 0.0000 0.0000 0.0000 10.3864 0.0000
# 6 0.0000 0.0000 0.0000 0.0000 0.0000 25.9023
#
#
#
# Elastic Compliance Matrix: (Units=1/GPa)
#
#
# Indices 1 2 3 4 5 6 
#
# 1 0.018123 -0.007484 -0.005316 0.000000 0.000000 0.000000
# 2 -0.007484 0.017094 -0.003426 0.000000 0.000000 0.000000
# 3 -0.005316 -0.003426 0.015378 0.000000 0.000000 0.000000
# 4 0.000000 0.000000 0.000000 0.016861 0.000000 0.000000
# 5 0.000000 0.000000 0.000000 0.000000 0.096280 0.000000
# 6 0.000000 0.000000 0.000000 0.000000 0.000000 0.038607
#
#
# Mechanical properties :
#
#
# Convention : Reuss Voigt Hill
#
# Bulk Modulus (GPa) = 55.11504 55.23401 55.17452
# Shear Modulus (GPa) = 20.76041 28.29029 24.52535
#
# Velocity S-wave (km/s) = 3.42878 4.00258 3.72674
# Velocity P-wave (km/s) = 6.84739 7.25532 7.05431
#
# Compressibility (1/GPa) = 0.01814387
#
# Stress axis : x y z
#
# Youngs Moduli (GPa) = 55.17711 58.49847 65.02885
#
# Poissons Ratio (x) = 0.43781 0.34567
# Poissons Ratio (y) = 0.41296 0.22280
# Poissons Ratio (z) = 0.29330 0.20042
#
# Static dielectric constant tensor:
#      x y z
#    x 3.230470 0.000000 0.000000 
#    y 0.000000 3.374660 0.000000 
#    z 0.000000 0.000000 3.331740 
# 
# 
# High freq. dielectric constant tensor:
#      x y z
#    x 1.666150 0.000000 0.000000 
#    y 0.000000 1.687420 0.000000 
#    z 0.000000 0.000000 1.656350 
# 
# From -- ./inp_files/62347.got.cif
#   From: 2010.06.25/outbox.cif.g09.slc.cpg/sg71_32_cif.got.tgz:62347.got - 2010.06.28 04:59:45.
