data_PCOD8292479
_publ_section_title
;
Structure prediction by ZEFSAII (Michael W. Deem and Ramdas Pophale) SiO2 
 PCOD8292479
Probable space group: I M M M
;
_chemical_formula_sum "Si O2"
_cell_formula_units_Z 104
_cell_length_a 29.239820
_cell_length_b 8.643103
_cell_length_c 19.758378
_cell_angle_alpha 90.000000
_cell_angle_beta 90.000000
_cell_angle_gamma 90.000000
_cell_volume 4993.392137
_symmetry_space_group_name_H-M "I M M M"
_symmetry_group_IT_number 71
_symmetry_cell_setting 'orthorhombic'
loop_
_space_group_symop_operation_xyz
x,y,z
-x,-y,z
x,-y,-z
-x,y,-z
-x,-y,-z
x,y,-z
-x,y,z
x,-y,z
1/2+x,1/2+y,1/2+z
1/2-x,1/2-y,1/2+z
1/2+x,1/2-y,1/2-z
1/2-x,1/2+y,1/2-z
1/2-x,1/2-y,1/2-z
1/2+x,1/2+y,1/2-z
1/2-x,1/2+y,1/2+z
1/2+x,1/2-y,1/2+z
loop_
_atom_site_type_symbol
_atom_site_label
_atom_site_fract_x
_atom_site_fract_y
_atom_site_fract_z
Si Si1 0.418833 0.680578 0.168133
Si Si2 0.500000 0.315977 0.924635
Si Si3 0.256396 0.316843 0.571865
Si Si4 0.608495 0.818583 0.299703
Si Si5 0.206540 0.183431 0.790111
Si Si6 0.447751 0.682718 0.422518
Si Si7 0.153429 0.320218 0.576581
O O1 0.424293 0.500000 0.183796
O O2 0.456383 0.744429 0.116128
O O3 0.425549 0.770714 0.239057
O O4 0.371281 0.714217 0.131309
O O5 0.500000 0.500000 0.929347
O O6 0.500000 0.243674 0.000000
O O7 0.275815 0.253392 0.500000
O O8 0.254280 0.500000 0.569510
O O9 0.288361 0.261012 0.632176
O O10 0.204963 0.258708 0.582501
O O11 0.656799 0.749155 0.272742
O O12 0.588849 0.756694 0.370972
O O13 0.613539 0.000000 0.306376
O O14 0.250000 0.250000 0.750000
O O15 0.206654 0.000000 0.780711
O O16 0.435842 0.732026 0.500000
O O17 0.500000 0.735014 0.405569
O O18 0.443552 0.500000 0.415221
O O19 0.135163 0.293849 0.500000
O O20 0.148654 0.500000 0.597000
#
# Coordination Sequence:
#
# PCOD8292479 Si02
#       7
#    16   8  16  16  16  16  16
#     4  11  22  37  58  83 112 152 201 251 298 352
#     4   9  20  38  59  85 116 149 186 237 299 352
#     4   8  16  32  55  81 108 143 187 234 286 345
#     4  12  26  41  59  88 126 165 207 255 310 372
#     4  11  22  38  61  88 121 162 207 257 312 369
#     4   9  20  42  71  98 124 157 202 258 321 390
#     4   9  17  32  55  83 116 152 190 238 299 362
#
# _framework density 20.827525000000001
#
# number of rings (size 3 to 8) (size 9 to 14) (size 15 to 20)
#    0.000    2.077    0.000    5.077    1.077    3.385 
#    0.000    4.231    0.000    6.000    0.000    0.000 
#    0.000    0.000    0.000    0.000    0.000    0.000 
#
# Total GULP energy -644500.077196 kJ/mol
# GULP energy per Si atom -12394.232254 kJ/mol
# Density = 2.078012 g / cm^3
# Si number density = 20.827525 Si / 1000 Ang^3
#
#
#
# Elastic Constant Matrix: (Units=GPa)
#
#
# Indices 1 2 3 4 5 6 
#
# 1 84.7169 31.2732 55.5180 0.0000 0.0000 0.0000
# 2 31.2732 77.7543 42.5342 0.0000 0.0000 0.0000
# 3 55.5180 42.5342 140.0709 0.0000 0.0000 0.0000
# 4 0.0000 0.0000 0.0000 31.1027 0.0000 0.0000
# 5 0.0000 0.0000 0.0000 0.0000 20.6089 0.0000
# 6 0.0000 0.0000 0.0000 0.0000 0.0000 25.4933
#
#
#
# Elastic Compliance Matrix: (Units=1/GPa)
#
#
# Indices 1 2 3 4 5 6 
#
# 1 0.016805 -0.003736 -0.005526 0.000000 0.000000 0.000000
# 2 -0.003736 0.016254 -0.003455 0.000000 0.000000 0.000000
# 3 -0.005526 -0.003455 0.010379 0.000000 0.000000 0.000000
# 4 0.000000 0.000000 0.000000 0.032152 0.000000 0.000000
# 5 0.000000 0.000000 0.000000 0.000000 0.048523 0.000000
# 6 0.000000 0.000000 0.000000 0.000000 0.000000 0.039226
#
#
# Mechanical properties :
#
#
# Convention : Reuss Voigt Hill
#
# Bulk Modulus (GPa) = 55.54625 62.35479 58.95052
# Shear Modulus (GPa) = 25.67105 26.98876 26.32990
#
# Velocity S-wave (km/s) = 3.51458 3.60366 3.55940
# Velocity P-wave (km/s) = 6.57246 6.87886 6.72741
#
# Compressibility (1/GPa) = 0.01800302
#
# Stress axis : x y z
#
# Youngs Moduli (GPa) = 59.50741 61.52501 96.35143
#
# Poissons Ratio (x) = 0.22985 0.53245
# Poissons Ratio (y) = 0.22232 0.33288
# Poissons Ratio (z) = 0.32885 0.21256
#
# Static dielectric constant tensor:
#      x y z
#    x 3.871850 0.000000 0.000000 
#    y 0.000000 3.394650 0.000000 
#    z 0.000000 0.000000 3.874570 
# 
# 
# High freq. dielectric constant tensor:
#      x y z
#    x 1.809330 0.000000 0.000000 
#    y 0.000000 1.785970 0.000000 
#    z 0.000000 0.000000 1.838210 
# 
# From -- ./inp_files/56227.got.cif
#   From: 2010.06.25/outbox.cif.g09.slc.cpg/sg71_29_cif.got.tgz:56227.got - 2010.06.28 04:59:45.
