data_PCOD8292957
_publ_section_title
;
Structure prediction by ZEFSAII (Michael W. Deem and Ramdas Pophale) SiO2 
 PCOD8292957
Probable space group: I B A M
;
_chemical_formula_sum "Si O2"
_cell_formula_units_Z 112
_cell_length_a 17.159338
_cell_length_b 21.566926
_cell_length_c 17.203582
_cell_angle_alpha 90.000000
_cell_angle_beta 90.000000
_cell_angle_gamma 90.000000
_cell_volume 6366.601379
_symmetry_space_group_name_H-M "I B A M"
_symmetry_group_IT_number 72
_symmetry_cell_setting 'orthorhombic'
loop_
_space_group_symop_operation_xyz
x,y,z
-x,-y,z
x,-y,1/2-z
-x,y,1/2-z
-x,-y,-z
x,y,-z
-x,y,1/2+z
x,-y,1/2+z
1/2+x,1/2+y,1/2+z
1/2-x,1/2-y,1/2+z
1/2+x,1/2-y,-z
1/2-x,1/2+y,-z
1/2-x,1/2-y,1/2-z
1/2+x,1/2+y,1/2-z
1/2-x,1/2+y,z
1/2+x,1/2-y,z
loop_
_atom_site_type_symbol
_atom_site_label
_atom_site_fract_x
_atom_site_fract_y
_atom_site_fract_z
Si Si1 0.690765 0.183710 0.180806
Si Si2 0.360866 0.353621 0.189476
Si Si3 0.552471 0.205409 0.908953
Si Si4 0.466976 0.564798 0.411326
Si Si5 0.109255 0.286205 0.340149
Si Si6 0.402346 0.344711 0.635196
Si Si7 0.756886 0.797226 0.914399
O O1 0.765970 0.138986 0.191514
O O2 0.627326 0.162327 0.115142
O O3 0.638178 0.190832 0.256912
O O4 0.727567 0.249668 0.156589
O O5 0.393985 0.410469 0.138598
O O6 0.389477 0.288787 0.152126
O O7 0.400573 0.359071 0.273544
O O8 0.475823 0.187063 0.859991
O O9 0.575578 0.274195 0.883213
O O10 0.535547 0.199610 0.000000
O O11 0.500000 0.500000 0.377864
O O12 0.438449 0.556987 0.500000
O O13 0.537902 0.612391 0.408960
O O14 0.166906 0.316352 0.404842
O O15 0.315575 0.355015 0.598960
O O16 0.770527 0.767871 0.000000
#
# Coordination Sequence:
#
# PCOD8292957 Si02
#       7
#    16  16  16  16  16  16  16
#     4  10  19  32  46  70  98 135 170 211 251 309
#     4  11  20  33  53  69  94 133 178 212 261 308
#     4  11  21  29  46  74 103 136 173 206 249 308
#     4  11  25  39  52  73  99 132 177 223 262 302
#     4  11  18  31  46  73 100 137 168 208 250 312
#     4  11  19  33  49  69  95 130 174 213 258 298
#     4  10  18  28  45  67  96 129 169 209 247 304
#
# _framework density 17.591804
#
# number of rings (size 3 to 8) (size 9 to 14) (size 15 to 20)
#    0.000    1.286    5.714    4.714    0.000    4.000 
#    0.000    0.000    0.000    0.000    0.000    0.000 
#    0.000    1.143    0.857    6.000    2.000    0.000 
#
# Total GULP energy -693859.517265 kJ/mol
# GULP energy per Si atom -12390.348523 kJ/mol
# Density = 1.755176 g / cm^3
# Si number density = 17.591804 Si / 1000 Ang^3
#
#
#
# Elastic Constant Matrix: (Units=GPa)
#
#
# Indices 1 2 3 4 5 6 
#
# 1 113.6102 22.1790 31.4465 0.0000 0.0000 0.0000
# 2 22.1790 32.2676 17.4162 0.0000 0.0000 0.0000
# 3 31.4465 17.4162 106.3064 0.0000 0.0000 0.0000
# 4 0.0000 0.0000 0.0000 15.9130 0.0000 0.0000
# 5 0.0000 0.0000 0.0000 0.0000 31.6156 0.0000
# 6 0.0000 0.0000 0.0000 0.0000 0.0000 17.3708
#
#
#
# Elastic Compliance Matrix: (Units=1/GPa)
#
#
# Indices 1 2 3 4 5 6 
#
# 1 0.010587 -0.006129 -0.002128 0.000000 0.000000 0.000000
# 2 -0.006129 0.037545 -0.004338 0.000000 0.000000 0.000000
# 3 -0.002128 -0.004338 0.010747 0.000000 0.000000 0.000000
# 4 0.000000 0.000000 0.000000 0.062842 0.000000 0.000000
# 5 0.000000 0.000000 0.000000 0.000000 0.031630 0.000000
# 6 0.000000 0.000000 0.000000 0.000000 0.000000 0.057568
#
#
# Mechanical properties :
#
#
# Convention : Reuss Voigt Hill
#
# Bulk Modulus (GPa) = 29.68241 43.80751 36.74496
# Shear Modulus (GPa) = 20.21527 25.05605 22.63566
#
# Velocity S-wave (km/s) = 3.39356 3.77809 3.59097
# Velocity P-wave (km/s) = 5.68018 6.63236 6.17465
#
# Compressibility (1/GPa) = 0.03368999
#
# Stress axis : x y z
#
# Youngs Moduli (GPa) = 94.45139 26.63482 93.05018
#
# Poissons Ratio (x) = 0.16324 0.19799
# Poissons Ratio (y) = 0.57887 0.40365
# Poissons Ratio (z) = 0.20097 0.11554
#
# Static dielectric constant tensor:
#      x y z
#    x 4.087610 0.000000 0.000000 
#    y 0.000000 2.725890 0.000000 
#    z 0.000000 0.000000 3.374820 
# 
# 
# High freq. dielectric constant tensor:
#      x y z
#    x 1.709200 0.000000 0.000000 
#    y 0.000000 1.581520 0.000000 
#    z 0.000000 0.000000 1.699730 
# 
# From -- ./inp_files/31999.got.cif
#   From: 2010.03.12/outbox.cif.g09.slc.cpg/sg72_16_cif.got.tgz:31999.got - 2010.04.16 14:54:00.
