data_PCOD8292145
_publ_section_title
;
Structure prediction by ZEFSAII (Michael W. Deem and Ramdas Pophale) SiO2 
 PCOD8292145
Probable space group: I M M M
;
_chemical_formula_sum "Si O2"
_cell_formula_units_Z 104
_cell_length_a 21.343459
_cell_length_b 8.179932
_cell_length_c 29.487474
_cell_angle_alpha 90.000000
_cell_angle_beta 90.000000
_cell_angle_gamma 90.000000
_cell_volume 5148.160386
_symmetry_space_group_name_H-M "I M M M"
_symmetry_group_IT_number 71
_symmetry_cell_setting 'orthorhombic'
loop_
_space_group_symop_operation_xyz
x,y,z
-x,-y,z
x,-y,-z
-x,y,-z
-x,-y,-z
x,y,-z
-x,y,z
x,-y,z
1/2+x,1/2+y,1/2+z
1/2-x,1/2-y,1/2+z
1/2+x,1/2-y,1/2-z
1/2-x,1/2+y,1/2-z
1/2-x,1/2-y,1/2-z
1/2+x,1/2+y,1/2-z
1/2-x,1/2+y,1/2+z
1/2+x,1/2-y,1/2+z
loop_
_atom_site_type_symbol
_atom_site_label
_atom_site_fract_x
_atom_site_fract_y
_atom_site_fract_z
Si Si1 0.737127 0.685846 0.865247
Si Si2 0.128937 0.818067 0.137400
Si Si3 0.569067 0.000000 0.946614
Si Si4 0.812121 0.693925 0.723827
Si Si5 0.649688 0.686453 0.947480
Si Si6 0.069085 0.312007 0.222241
Si Si7 0.072289 0.688041 0.949395
O O1 0.757726 0.500000 0.857354
O O2 0.797143 0.796901 0.856875
O O3 0.686406 0.738276 0.827462
O O4 0.710262 0.709149 0.915848
O O5 0.088098 0.700858 0.169347
O O6 0.113697 0.791109 0.084868
O O7 0.111260 0.000000 0.152072
O O8 0.602181 0.829850 0.931851
O O9 0.500000 0.000000 0.924274
O O10 0.563206 0.000000 0.000000
O O11 0.814395 0.500000 0.724205
O O12 0.750000 0.750000 0.750000
O O13 0.875026 0.767229 0.747647
O O14 0.622187 0.500000 0.940816
O O15 0.669599 0.711085 0.000000
O O16 0.063385 0.500000 0.234940
O O17 0.000000 0.230788 0.230683
O O18 0.092277 0.500000 0.945851
O O19 0.000000 0.710416 0.936859
O O20 0.085528 0.753553 0.000000
#
# Coordination Sequence:
#
# PCOD8292145 Si02
#       7
#    16  16   8  16  16  16  16
#     4  11  23  39  61  86 117 158 202 246 296 358
#     4  12  24  35  55  87 117 150 195 247 301 354
#     4   9  18  34  60  90 120 160 203 247 305 367
#     4  11  22  38  63  90 120 156 199 248 300 360
#     4   9  20  38  60  89 125 163 204 253 304 361
#     4  10  22  41  63  86 116 156 199 242 294 359
#     4   9  19  37  58  78 108 154 200 240 288 349
#
# _framework density 20.201391999999998
#
# number of rings (size 3 to 8) (size 9 to 14) (size 15 to 20)
#    0.000    1.769    1.538    3.231    2.154    4.308 
#    0.000    4.615    0.000    0.923    0.000    0.000 
#    0.000    0.000    0.000    0.000    0.000    0.000 
#
# Total GULP energy -644634.284727 kJ/mol
# GULP energy per Si atom -12396.813168 kJ/mol
# Density = 2.015541 g / cm^3
# Si number density = 20.201392 Si / 1000 Ang^3
#
#
#
# Elastic Constant Matrix: (Units=GPa)
#
#
# Indices 1 2 3 4 5 6 
#
# 1 133.2570 31.9560 53.8839 0.0000 0.0000 0.0000
# 2 31.9560 75.5289 20.0322 0.0000 0.0000 0.0000
# 3 53.8839 20.0322 108.9789 0.0000 0.0000 0.0000
# 4 0.0000 0.0000 0.0000 26.1445 0.0000 0.0000
# 5 0.0000 0.0000 0.0000 0.0000 31.6131 0.0000
# 6 0.0000 0.0000 0.0000 0.0000 0.0000 25.4512
#
#
#
# Elastic Compliance Matrix: (Units=1/GPa)
#
#
# Indices 1 2 3 4 5 6 
#
# 1 0.010015 -0.003074 -0.004387 0.000000 0.000000 0.000000
# 2 -0.003074 0.014862 -0.001212 0.000000 0.000000 0.000000
# 3 -0.004387 -0.001212 0.011568 0.000000 0.000000 0.000000
# 4 0.000000 0.000000 0.000000 0.038249 0.000000 0.000000
# 5 0.000000 0.000000 0.000000 0.000000 0.031632 0.000000
# 6 0.000000 0.000000 0.000000 0.000000 0.000000 0.039291
#
#
# Mechanical properties :
#
#
# Convention : Reuss Voigt Hill
#
# Bulk Modulus (GPa) = 52.35738 58.83434 55.59586
# Shear Modulus (GPa) = 29.52813 30.76794 30.14804
#
# Velocity S-wave (km/s) = 3.82735 3.90687 3.86732
# Velocity P-wave (km/s) = 6.74577 7.03837 6.89363
#
# Compressibility (1/GPa) = 0.01909950
#
# Stress axis : x y z
#
# Youngs Moduli (GPa) = 99.84652 67.28573 86.44539
#
# Poissons Ratio (x) = 0.20683 0.37924
# Poissons Ratio (y) = 0.30692 0.10477
# Poissons Ratio (z) = 0.43803 0.08155
#
# Static dielectric constant tensor:
#      x y z
#    x 4.845880 0.000000 0.000000 
#    y 0.000000 3.678360 0.000000 
#    z 0.000000 0.000000 3.583640 
# 
# 
# High freq. dielectric constant tensor:
#      x y z
#    x 1.777240 0.000000 0.000000 
#    y 0.000000 1.787730 0.000000 
#    z 0.000000 0.000000 1.787610 
# 
# From -- ./inp_files/70723.got.cif
#   From: 2010.06.25/outbox.cif.g09.slc.cpg/sg71_36_cif.got.tgz:70723.got - 2010.06.28 04:59:45.
