data_PCOD8292634
_publ_section_title
;
Structure prediction by ZEFSAII (Michael W. Deem and Ramdas Pophale) SiO2 
 PCOD8292634
Probable space group: I M M M
;
_chemical_formula_sum "Si O2"
_cell_formula_units_Z 112
_cell_length_a 32.568819
_cell_length_b 9.633674
_cell_length_c 21.231936
_cell_angle_alpha 90.000000
_cell_angle_beta 90.000000
_cell_angle_gamma 90.000000
_cell_volume 6661.676714
_symmetry_space_group_name_H-M "I M M M"
_symmetry_group_IT_number 71
_symmetry_cell_setting 'orthorhombic'
loop_
_space_group_symop_operation_xyz
x,y,z
-x,-y,z
x,-y,-z
-x,y,-z
-x,-y,-z
x,y,-z
-x,y,z
x,-y,z
1/2+x,1/2+y,1/2+z
1/2-x,1/2-y,1/2+z
1/2+x,1/2-y,1/2-z
1/2-x,1/2+y,1/2-z
1/2-x,1/2-y,1/2-z
1/2+x,1/2+y,1/2-z
1/2-x,1/2+y,1/2+z
1/2+x,1/2-y,1/2+z
loop_
_atom_site_type_symbol
_atom_site_label
_atom_site_fract_x
_atom_site_fract_y
_atom_site_fract_z
Si Si1 0.830560 0.658593 0.929540
Si Si2 0.805871 0.340895 0.699107
Si Si3 0.266457 0.159641 0.334662
Si Si4 0.421520 0.165877 0.431060
Si Si5 0.545531 0.835279 0.699787
Si Si6 0.046415 0.335046 0.429466
Si Si7 0.100545 0.334727 0.686395
O O1 0.834320 0.500000 0.906804
O O2 0.796743 0.729926 0.885600
O O3 0.875485 0.726443 0.923173
O O4 0.813954 0.669960 0.000000
O O5 0.802564 0.500000 0.676374
O O6 0.775595 0.245125 0.658808
O O7 0.791425 0.324833 0.770420
O O8 0.852284 0.285048 0.689589
O O9 0.255142 0.000000 0.348442
O O10 0.439160 0.214632 0.500000
O O11 0.446783 0.223202 0.371182
O O12 0.420440 0.000000 0.431405
O O13 0.500000 0.789631 0.720467
O O14 0.577225 0.775611 0.751541
O O15 0.549543 0.000000 0.697359
O O16 0.059262 0.284314 0.500000
O O17 0.047140 0.500000 0.427575
O O18 0.078176 0.276676 0.376887
O O19 0.000000 0.283782 0.414074
O O20 0.098365 0.500000 0.687339
#
# Coordination Sequence:
#
# PCOD8292634 Si02
#       7
#    16  16  16  16  16  16  16
#     4   8  13  22  37  54  70  93 128 164 191 219
#     4   9  17  27  40  58  79 103 128 156 194 235
#     4   9  16  27  42  58  76  99 130 164 193 225
#     4   8  13  20  29  43  65  92 121 151 182 218
#     4   9  15  20  28  44  66  93 122 151 184 219
#     4   8  13  21  33  48  67  94 125 152 180 219
#     4   9  15  23  34  48  69  95 122 152 185 223
#
# _framework density 16.812584000000001
#
# number of rings (size 3 to 8) (size 9 to 14) (size 15 to 20)
#    0.000    3.429    0.000    2.571    0.000    5.429 
#    0.000    2.143    0.000    1.286    0.000    0.000 
#    0.000    2.286    0.000    1.857    0.000    2.429 
#
# Total GULP energy -693740.623782 kJ/mol
# GULP energy per Si atom -12388.225425 kJ/mol
# Density = 1.677432 g / cm^3
# Si number density = 16.812584 Si / 1000 Ang^3
#
#
#
# Elastic Constant Matrix: (Units=GPa)
#
#
# Indices 1 2 3 4 5 6 
#
# 1 118.9078 15.9445 51.5764 0.0000 0.0000 0.0000
# 2 15.9445 13.1782 8.0072 0.0000 0.0000 0.0000
# 3 51.5764 8.0072 90.1778 0.0000 0.0000 0.0000
# 4 0.0000 0.0000 0.0000 6.2419 0.0000 0.0000
# 5 0.0000 0.0000 0.0000 0.0000 33.6106 0.0000
# 6 0.0000 0.0000 0.0000 0.0000 0.0000 14.9016
#
#
#
# Elastic Compliance Matrix: (Units=1/GPa)
#
#
# Indices 1 2 3 4 5 6 
#
# 1 0.012650 -0.011532 -0.006211 0.000000 0.000000 0.000000
# 2 -0.011532 0.090723 -0.001460 0.000000 0.000000 0.000000
# 3 -0.006211 -0.001460 0.014771 0.000000 0.000000 0.000000
# 4 0.000000 0.000000 0.000000 0.160208 0.000000 0.000000
# 5 0.000000 0.000000 0.000000 0.000000 0.029753 0.000000
# 6 0.000000 0.000000 0.000000 0.000000 0.000000 0.067107
#
#
# Mechanical properties :
#
#
# Convention : Reuss Voigt Hill
#
# Bulk Modulus (GPa) = 12.54107 41.48000 27.01053
# Shear Modulus (GPa) = 11.35853 20.73320 16.04586
#
# Velocity S-wave (km/s) = 2.60204 3.51550 3.09268
# Velocity P-wave (km/s) = 4.06239 6.41902 5.37154
#
# Compressibility (1/GPa) = 0.07973804
#
# Stress axis : x y z
#
# Youngs Moduli (GPa) = 79.04910 11.02258 67.69867
#
# Poissons Ratio (x) = 0.12711 0.42050
# Poissons Ratio (y) = 0.91158 0.09885
# Poissons Ratio (z) = 0.49100 0.01609
#
# Static dielectric constant tensor:
#      x y z
#    x 3.359250 0.000000 0.000000 
#    y 0.000000 2.438310 0.000000 
#    z 0.000000 0.000000 3.421860 
# 
# 
# High freq. dielectric constant tensor:
#      x y z
#    x 1.654270 0.000000 0.000000 
#    y 0.000000 1.554080 0.000000 
#    z 0.000000 0.000000 1.656190 
# 
# From -- ./inp_files/62132.got.cif
#   From: 2010.06.25/outbox.cif.g09.slc.cpg/sg71_32_cif.got.tgz:62132.got - 2010.06.28 04:59:45.
