data_PCOD8292312
_publ_section_title
;
Structure prediction by ZEFSAII (Michael W. Deem and Ramdas Pophale) SiO2 
 PCOD8292312
Probable space group: I M M M
;
_chemical_formula_sum "Si O2"
_cell_formula_units_Z 72
_cell_length_a 11.781289
_cell_length_b 24.238127
_cell_length_c 14.236780
_cell_angle_alpha 90.000000
_cell_angle_beta 90.000000
_cell_angle_gamma 90.000000
_cell_volume 4065.403346
_symmetry_space_group_name_H-M "I M M M"
_symmetry_group_IT_number 71
_symmetry_cell_setting 'orthorhombic'
loop_
_space_group_symop_operation_xyz
x,y,z
-x,-y,z
x,-y,-z
-x,y,-z
-x,-y,-z
x,y,-z
-x,y,z
x,-y,z
1/2+x,1/2+y,1/2+z
1/2-x,1/2-y,1/2+z
1/2+x,1/2-y,1/2-z
1/2-x,1/2+y,1/2-z
1/2-x,1/2-y,1/2-z
1/2+x,1/2+y,1/2-z
1/2-x,1/2+y,1/2+z
1/2+x,1/2-y,1/2+z
loop_
_atom_site_type_symbol
_atom_site_label
_atom_site_fract_x
_atom_site_fract_y
_atom_site_fract_z
Si Si1 0.271338 0.301836 0.317875
Si Si2 0.500000 0.258149 0.390197
Si Si3 0.375751 0.207649 0.000000
Si Si4 0.865758 0.000000 0.611377
Si Si5 0.254131 0.109881 0.666585
Si Si6 0.874280 0.836132 0.500000
Si Si7 0.000000 0.366543 0.888538
O O1 0.250000 0.250000 0.250000
O O2 0.395139 0.294298 0.358893
O O3 0.186061 0.308768 0.404345
O O4 0.265562 0.360369 0.265448
O O5 0.500000 0.249886 0.500000
O O6 0.500000 0.196106 0.347077
O O7 0.392943 0.272261 0.000000
O O8 0.500000 0.179252 0.000000
O O9 0.809502 0.948169 0.662733
O O10 0.837506 0.000000 0.500000
O O11 0.000000 0.000000 0.628754
O O12 0.199386 0.149501 0.589687
O O13 0.388400 0.101907 0.648451
O O14 0.000000 0.865592 0.500000
O O15 0.000000 0.367379 0.000000
#
# Coordination Sequence:
#
# PCOD8292312 Si02
#       7
#    16   8   8   8  16   8   8
#     4  12  24  37  59  91 124 163 201 244 299 360
#     4  11  22  38  57  85 128 163 196 245 299 353
#     4  11  24  39  56  90 130 163 201 243 299 366
#     4  11  24  43  63  86 119 157 201 250 298 355
#     4  12  24  38  60  88 122 163 202 244 297 356
#     4  11  20  34  57  89 123 160 203 244 287 352
#     4  11  20  35  58  85 125 157 194 244 293 355
#
# _framework density 17.710419000000002
#
# number of rings (size 3 to 8) (size 9 to 14) (size 15 to 20)
#    0.000    0.556    7.778    0.667    6.222    0.444 
#    0.000    1.111    0.000    0.667    0.000    2.333 
#    0.000    0.000    0.000    0.000    0.000    0.000 
#
# Total GULP energy -446391.066723 kJ/mol
# GULP energy per Si atom -12399.751853 kJ/mol
# Density = 1.767011 g / cm^3
# Si number density = 17.710419 Si / 1000 Ang^3
#
#
#
# Elastic Constant Matrix: (Units=GPa)
#
#
# Indices 1 2 3 4 5 6 
#
# 1 165.1528 48.8914 52.6917 0.0000 0.0000 0.0000
# 2 48.8914 104.9255 49.7767 -0.0001 0.0000 0.0000
# 3 52.6917 49.7767 113.2622 0.0001 0.0000 0.0000
# 4 0.0000 -0.0001 0.0001 24.8450 0.0000 0.0000
# 5 0.0000 0.0000 0.0000 0.0000 24.4620 0.0000
# 6 0.0000 0.0000 0.0000 0.0000 0.0000 23.3574
#
#
#
# Elastic Compliance Matrix: (Units=1/GPa)
#
#
# Indices 1 2 3 4 5 6 
#
# 1 0.007538 -0.002336 -0.002480 0.000000 0.000000 0.000000
# 2 -0.002336 0.012765 -0.004523 0.000000 0.000000 0.000000
# 3 -0.002480 -0.004523 0.011971 0.000000 0.000000 0.000000
# 4 0.000000 0.000000 0.000000 0.040249 0.000000 0.000000
# 5 0.000000 0.000000 0.000000 0.000000 0.040880 0.000000
# 6 0.000000 0.000000 0.000000 0.000000 0.000000 0.042813
#
#
# Mechanical properties :
#
#
# Convention : Reuss Voigt Hill
#
# Bulk Modulus (GPa) = 73.55665 76.22890 74.89277
# Shear Modulus (GPa) = 27.86673 29.99828 28.93250
#
# Velocity S-wave (km/s) = 3.97100 4.12007 4.04622
# Velocity P-wave (km/s) = 7.91506 8.10978 8.01301
#
# Compressibility (1/GPa) = 0.01359496
#
# Stress axis : x y z
#
# Youngs Moduli (GPa) = 132.66534 78.34072 83.53660
#
# Poissons Ratio (x) = 0.18298 0.20719
# Poissons Ratio (y) = 0.30987 0.37786
# Poissons Ratio (z) = 0.32904 0.35436
#
# Static dielectric constant tensor:
#      x y z
#    x 3.696740 0.000000 0.000000 
#    y 0.000000 3.109130 0.000000 
#    z 0.000000 0.000000 3.354760 
# 
# 
# High freq. dielectric constant tensor:
#      x y z
#    x 1.713050 0.000000 0.000000 
#    y 0.000000 1.652960 0.000000 
#    z 0.000000 0.000000 1.677000 
# 
# From -- ./inp_files/19922.got.cif
#   From: 2010.06.25/outbox.cif.g09.slc.cpg/sg71_10_cif.got.tgz:19922.got - 2010.06.28 04:59:45.
