data_PCOD8292923
_publ_section_title
;
Structure prediction by ZEFSAII (Michael W. Deem and Ramdas Pophale) SiO2 
 PCOD8292923
Probable space group: I B A M
;
_chemical_formula_sum "Si O2"
_cell_formula_units_Z 88
_cell_length_a 16.731379
_cell_length_b 20.510845
_cell_length_c 14.541031
_cell_angle_alpha 90.000000
_cell_angle_beta 90.000000
_cell_angle_gamma 90.000000
_cell_volume 4990.114261
_symmetry_space_group_name_H-M "I B A M"
_symmetry_group_IT_number 72
_symmetry_cell_setting 'orthorhombic'
loop_
_space_group_symop_operation_xyz
x,y,z
-x,-y,z
x,-y,1/2-z
-x,y,1/2-z
-x,-y,-z
x,y,-z
-x,y,1/2+z
x,-y,1/2+z
1/2+x,1/2+y,1/2+z
1/2-x,1/2-y,1/2+z
1/2+x,1/2-y,-z
1/2-x,1/2+y,-z
1/2-x,1/2-y,1/2-z
1/2+x,1/2+y,1/2-z
1/2-x,1/2+y,z
1/2+x,1/2-y,z
loop_
_atom_site_type_symbol
_atom_site_label
_atom_site_fract_x
_atom_site_fract_y
_atom_site_fract_z
Si Si1 0.907771 0.897275 0.500000
Si Si2 0.077839 0.215063 0.811671
Si Si3 0.709597 0.962757 0.336692
Si Si4 0.683349 0.651390 0.165618
Si Si5 0.419258 0.635063 0.000000
Si Si6 0.795339 0.021868 0.500000
Si Si7 0.851749 0.334130 0.604491
O O1 0.885948 0.854321 0.589377
O O2 0.002421 0.911122 0.500000
O O3 0.860280 0.964574 0.500000
O O4 0.153186 0.188906 0.754755
O O5 0.076896 0.178964 0.909164
O O6 0.089608 0.292217 0.830469
O O7 0.000000 0.203310 0.750000
O O8 0.787976 0.921460 0.304947
O O9 0.642404 0.911954 0.374421
O O10 0.672403 0.000000 0.250000
O O11 0.736924 0.015262 0.412590
O O12 0.759743 0.688886 0.121395
O O13 0.339537 0.591255 0.000000
O O14 0.876258 0.320883 0.500000
#
# Coordination Sequence:
#
# PCOD8292923 Si02
#       7
#     8  16  16  16   8   8  16
#     4  10  17  35  52  75 113 161 183 226 275 319
#     4  12  23  35  54  81 114 149 191 234 282 340
#     4   9  17  33  57  79 110 140 186 230 278 330
#     4   9  18  34  55  76 108 148 187 229 277 326
#     4  12  23  32  52  78 122 150 190 226 274 337
#     4  10  19  33  52  79 113 155 190 224 270 333
#     4  10  19  37  59  79 107 150 185 234 291 332
#
# _framework density 17.634867
#
# number of rings (size 3 to 8) (size 9 to 14) (size 15 to 20)
#    1.091    0.727    4.545    1.909    0.000    0.000 
#    0.000    0.000    0.000    1.636    0.000    1.273 
#    0.000    0.000    0.000    0.000    0.000    0.000 
#
# Total GULP energy -545187.490782 kJ/mol
# GULP energy per Si atom -12390.624790 kJ/mol
# Density = 1.759473 g / cm^3
# Si number density = 17.634867 Si / 1000 Ang^3
#
#
#
# Elastic Constant Matrix: (Units=GPa)
#
#
# Indices 1 2 3 4 5 6 
#
# 1 13.0713 21.8419 15.9274 0.0000 0.0000 0.0000
# 2 21.8419 71.0293 48.0297 0.0000 0.0000 0.0000
# 3 15.9274 48.0297 122.1343 0.0000 0.0000 0.0000
# 4 0.0000 0.0000 0.0000 35.9432 0.0000 0.0000
# 5 0.0000 0.0000 0.0000 0.0000 15.8137 0.0000
# 6 0.0000 0.0000 0.0000 0.0000 0.0000 26.9918
#
#
#
# Elastic Compliance Matrix: (Units=1/GPa)
#
#
# Indices 1 2 3 4 5 6 
#
# 1 0.157732 -0.047126 -0.002037 0.000000 0.000000 0.000000
# 2 -0.047126 0.033258 -0.006933 0.000000 0.000000 0.000000
# 3 -0.002037 -0.006933 0.011180 0.000000 0.000000 0.000000
# 4 0.000000 0.000000 0.000000 0.027822 0.000000 0.000000
# 5 0.000000 0.000000 0.000000 0.000000 0.063236 0.000000
# 6 0.000000 0.000000 0.000000 0.000000 0.000000 0.037048
#
#
# Mechanical properties :
#
#
# Convention : Reuss Voigt Hill
#
# Bulk Modulus (GPa) = 11.11389 41.98144 26.54767
# Shear Modulus (GPa) = 10.58288 23.77883 17.18085
#
# Velocity S-wave (km/s) = 2.45237 3.67604 3.12469
# Velocity P-wave (km/s) = 3.78613 6.47111 5.30142
#
# Compressibility (1/GPa) = 0.08997746
#
# Stress axis : x y z
#
# Youngs Moduli (GPa) = 6.33988 30.06768 89.44585
#
# Poissons Ratio (x) = 1.41696 0.18224
# Poissons Ratio (y) = 0.29877 0.62016
# Poissons Ratio (z) = 0.01292 0.20847
#
# Static dielectric constant tensor:
#      x y z
#    x 2.923390 0.000000 0.000000 
#    y 0.000000 3.046940 0.000000 
#    z 0.000000 0.000000 3.258060 
# 
# 
# High freq. dielectric constant tensor:
#      x y z
#    x 1.645480 0.000000 0.000000 
#    y 0.000000 1.663280 0.000000 
#    z 0.000000 0.000000 1.695010 
# 
# From -- ./inp_files/23345.got.cif
#   From: 2010.03.12/outbox.cif.g09.slc.cpg/sg72_12_cif.got.tgz:23345.got - 2010.04.16 14:54:00.
