data_PCOD8292964
_publ_section_title
;
Structure prediction by ZEFSAII (Michael W. Deem and Ramdas Pophale) SiO2 
 PCOD8292964
Probable space group: I B A M
;
_chemical_formula_sum "Si O2"
_cell_formula_units_Z 104
_cell_length_a 24.027792
_cell_length_b 8.907449
_cell_length_c 25.731453
_cell_angle_alpha 90.000000
_cell_angle_beta 90.000000
_cell_angle_gamma 90.000000
_cell_volume 5507.208498
_symmetry_space_group_name_H-M "I B A M"
_symmetry_group_IT_number 72
_symmetry_cell_setting 'orthorhombic'
loop_
_space_group_symop_operation_xyz
x,y,z
-x,-y,z
x,-y,1/2-z
-x,y,1/2-z
-x,-y,-z
x,y,-z
-x,y,1/2+z
x,-y,1/2+z
1/2+x,1/2+y,1/2+z
1/2-x,1/2-y,1/2+z
1/2+x,1/2-y,-z
1/2-x,1/2+y,-z
1/2-x,1/2-y,1/2-z
1/2+x,1/2+y,1/2-z
1/2-x,1/2+y,z
1/2+x,1/2-y,z
loop_
_atom_site_type_symbol
_atom_site_label
_atom_site_fract_x
_atom_site_fract_y
_atom_site_fract_z
Si Si1 0.379690 0.811564 0.000000
Si Si2 0.786082 0.465568 0.000000
Si Si3 0.153509 0.268133 0.580436
Si Si4 0.291819 0.152513 0.180823
Si Si5 0.343427 0.480761 0.000000
Si Si6 0.676878 0.347842 0.777134
Si Si7 0.064188 0.488527 0.091168
Si Si8 0.884504 0.422311 0.696223
O O1 0.379135 0.631828 0.000000
O O2 0.410029 0.866682 0.947859
O O3 0.316477 0.873036 0.000000
O O4 0.803008 0.372307 0.949616
O O5 0.721424 0.489882 0.000000
O O6 0.184391 0.239865 0.635372
O O7 0.141469 0.111559 0.551957
O O8 0.093988 0.350461 0.584168
O O9 0.301524 0.229960 0.235266
O O10 0.225304 0.118248 0.179852
O O11 0.325515 0.995693 0.178437
O O12 0.655993 0.500000 0.750000
O O13 0.624554 0.258566 0.801508
O O14 0.069760 0.442076 0.151474
O O15 0.000000 0.500000 0.076607
O O16 0.905744 0.500000 0.750000
#
# Coordination Sequence:
#
# PCOD8292964 Si02
#       8
#     8   8  16  16   8  16  16  16
#     4  10  21  35  56  85 108 137 182 222 270 332
#     4   9  19  34  50  75 109 141 168 195 243 321
#     4   9  20  35  52  74 104 141 177 214 259 314
#     4   9  17  30  47  70 104 144 175 201 243 309
#     4  11  21  35  53  82 117 140 167 217 276 331
#     4  10  18  28  46  75 110 139 166 208 261 311
#     4  10  21  40  60  75  99 139 188 237 276 321
#     4   9  19  34  52  79 106 136 182 219 259 326
#
# _framework density 18.884340000000002
#
# number of rings (size 3 to 8) (size 9 to 14) (size 15 to 20)
#    0.000    2.462    0.000    3.923    0.000    7.692 
#    0.000    1.538    0.000    0.000    0.000    9.692 
#    0.000    0.000    0.000    0.000    0.000    0.000 
#
# Total GULP energy -644555.400728 kJ/mol
# GULP energy per Si atom -12395.296168 kJ/mol
# Density = 1.884136 g / cm^3
# Si number density = 18.884340 Si / 1000 Ang^3
#
#
#
# Elastic Constant Matrix: (Units=GPa)
#
#
# Indices 1 2 3 4 5 6 
#
# 1 89.4885 34.6603 33.3536 0.0000 0.0000 0.0000
# 2 34.6603 110.5099 20.9734 0.0000 0.0000 0.0000
# 3 33.3536 20.9734 95.4112 0.0000 0.0000 0.0000
# 4 0.0000 0.0000 0.0000 27.8459 0.0000 0.0000
# 5 0.0000 0.0000 0.0000 0.0000 15.6751 0.0000
# 6 0.0000 0.0000 0.0000 0.0000 0.0000 8.9110
#
#
#
# Elastic Compliance Matrix: (Units=1/GPa)
#
#
# Indices 1 2 3 4 5 6 
#
# 1 0.014129 -0.003646 -0.004138 0.000000 0.000000 0.000000
# 2 -0.003646 0.010384 -0.001008 0.000000 0.000000 0.000000
# 3 -0.004138 -0.001008 0.012149 0.000000 0.000000 0.000000
# 4 0.000000 0.000000 0.000000 0.035912 0.000000 0.000000
# 5 0.000000 0.000000 0.000000 0.000000 0.063795 0.000000
# 6 0.000000 0.000000 0.000000 0.000000 0.000000 0.112220
#
#
# Mechanical properties :
#
#
# Convention : Reuss Voigt Hill
#
# Bulk Modulus (GPa) = 52.41583 52.59825 52.50704
# Shear Modulus (GPa) = 18.34644 24.24789 21.29717
#
# Velocity S-wave (km/s) = 3.12030 3.58721 3.36187
# Velocity P-wave (km/s) = 6.38734 6.71348 6.55244
#
# Compressibility (1/GPa) = 0.01907821
#
# Stress axis : x y z
#
# Youngs Moduli (GPa) = 70.77644 96.30351 82.31151
#
# Poissons Ratio (x) = 0.35114 0.34058
# Poissons Ratio (y) = 0.25806 0.08297
# Poissons Ratio (z) = 0.29285 0.09707
#
# Static dielectric constant tensor:
#      x y z
#    x 3.178920 0.000000 0.000000 
#    y 0.000000 3.495910 0.000000 
#    z 0.000000 0.000000 3.707200 
# 
# 
# High freq. dielectric constant tensor:
#      x y z
#    x 1.694630 0.000000 0.000000 
#    y 0.000000 1.726120 0.000000 
#    z 0.000000 0.000000 1.744310 
# 
# From -- ./inp_files/49709.got.cif
#   From: 2010.03.12/outbox.cif.g09.slc.cpg/sg72_25_cif.got.tgz:49709.got - 2010.04.16 14:54:00.
