data_PCOD8292591
_publ_section_title
;
Structure prediction by ZEFSAII (Michael W. Deem and Ramdas Pophale) SiO2 
 PCOD8292591
Probable space group: I M M M
;
_chemical_formula_sum "Si O2"
_cell_formula_units_Z 52
_cell_length_a 14.058073
_cell_length_b 7.376736
_cell_length_c 32.400706
_cell_angle_alpha 90.000000
_cell_angle_beta 90.000000
_cell_angle_gamma 90.000000
_cell_volume 3360.040473
_symmetry_space_group_name_H-M "I M M M"
_symmetry_group_IT_number 71
_symmetry_cell_setting 'orthorhombic'
loop_
_space_group_symop_operation_xyz
x,y,z
-x,-y,z
x,-y,-z
-x,y,-z
-x,-y,-z
x,y,-z
-x,y,z
x,-y,z
1/2+x,1/2+y,1/2+z
1/2-x,1/2-y,1/2+z
1/2+x,1/2-y,1/2-z
1/2-x,1/2+y,1/2-z
1/2-x,1/2-y,1/2-z
1/2+x,1/2+y,1/2-z
1/2-x,1/2+y,1/2+z
1/2+x,1/2-y,1/2+z
loop_
_atom_site_type_symbol
_atom_site_label
_atom_site_fract_x
_atom_site_fract_y
_atom_site_fract_z
Si Si1 0.500000 0.000000 0.800077
Si Si2 0.387104 0.000000 0.934355
Si Si3 0.306018 0.000000 0.846213
Si Si4 0.111783 0.203552 0.500000
Si Si5 0.500000 0.292052 0.731480
Si Si6 0.294819 0.206576 0.705518
O O1 0.589763 0.000000 0.828567
O O2 0.500000 0.180428 0.773319
O O3 0.317324 0.000000 0.895223
O O4 0.500000 0.000000 0.923572
O O5 0.359130 0.181354 0.959610
O O6 0.250976 0.822668 0.830851
O O7 0.000000 0.181473 0.500000
O O8 0.158133 0.000000 0.500000
O O9 0.500000 0.500000 0.744755
O O10 0.407297 0.244029 0.704927
O O11 0.250000 0.250000 0.750000
O O12 0.273718 0.000000 0.694632
#
# Coordination Sequence:
#
# PCOD8292591 Si02
#       6
#     4   8   8   8   8  16
#     4  12  22  32  50  67  98 136 180 225 256 290
#     4   9  18  32  49  73 103 131 164 210 251 301
#     4  12  23  33  48  75 103 136 176 221 259 288
#     4   8  15  31  54  73  95 130 163 194 254 320
#     4  12  20  34  52  66  87 132 183 220 259 297
#     4  12  21  34  49  68  95 131 176 219 258 302
#
# _framework density 15.476004
#
# number of rings (size 3 to 8) (size 9 to 14) (size 15 to 20)
#    0.000    1.077    8.462    0.923    0.000    1.231 
#    0.000    0.000    0.000    0.000    0.000    0.000 
#    0.000    9.846    0.000   17.231    0.000    0.000 
#
# Total GULP energy -322357.554776 kJ/mol
# GULP energy per Si atom -12398.367491 kJ/mol
# Density = 1.544078 g / cm^3
# Si number density = 15.476004 Si / 1000 Ang^3
#
#
#
# Elastic Constant Matrix: (Units=GPa)
#
#
# Indices 1 2 3 4 5 6 
#
# 1 96.5996 34.6198 43.2708 0.0000 0.0000 0.0000
# 2 34.6198 170.3806 61.8829 0.0000 0.0000 0.0000
# 3 43.2708 61.8829 118.0563 0.0000 0.0000 0.0000
# 4 0.0000 0.0000 0.0000 16.0866 0.0000 0.0000
# 5 0.0000 0.0000 0.0000 0.0000 25.6222 0.0000
# 6 0.0000 0.0000 0.0000 0.0000 0.0000 24.0217
#
#
#
# Elastic Compliance Matrix: (Units=1/GPa)
#
#
# Indices 1 2 3 4 5 6 
#
# 1 0.012546 -0.001086 -0.004029 0.000000 0.000000 0.000000
# 2 -0.001086 0.007343 -0.003451 0.000000 0.000000 0.000000
# 3 -0.004029 -0.003451 0.011756 0.000000 0.000000 0.000000
# 4 0.000000 0.000000 0.000000 0.062164 0.000000 0.000000
# 5 0.000000 0.000000 0.000000 0.000000 0.039029 0.000000
# 6 0.000000 0.000000 0.000000 0.000000 0.000000 0.041629
#
#
# Mechanical properties :
#
#
# Convention : Reuss Voigt Hill
#
# Bulk Modulus (GPa) = 68.90316 73.84261 71.37288
# Shear Modulus (GPa) = 25.45338 29.49697 27.47517
#
# Velocity S-wave (km/s) = 4.05989 4.37049 4.21805
# Velocity P-wave (km/s) = 8.16065 8.56073 8.36308
#
# Compressibility (1/GPa) = 0.01451312
#
# Stress axis : x y z
#
# Youngs Moduli (GPa) = 79.70648 136.17758 85.05947
#
# Poissons Ratio (x) = 0.14786 0.34273
# Poissons Ratio (y) = 0.08654 0.29356
# Poissons Ratio (z) = 0.32116 0.46999
#
# Static dielectric constant tensor:
#      x y z
#    x 2.977580 0.000000 0.000000 
#    y 0.000000 3.428210 0.000000 
#    z 0.000000 0.000000 2.750540 
# 
# 
# High freq. dielectric constant tensor:
#      x y z
#    x 1.579690 0.000000 0.000000 
#    y 0.000000 1.617090 0.000000 
#    z 0.000000 0.000000 1.562720 
# 
# From -- ./inp_files/68758.got.cif
#   From: 2010.06.25/outbox.cif.g09.slc.cpg/sg71_35_cif.got.tgz:68758.got - 2010.06.28 04:59:45.
