data_PCOD8292265
_publ_section_title
;
Structure prediction by ZEFSAII (Michael W. Deem and Ramdas Pophale) SiO2 
 PCOD8292265
Probable space group: I M M M
;
_chemical_formula_sum "Si O2"
_cell_formula_units_Z 120
_cell_length_a 15.295809
_cell_length_b 27.398111
_cell_length_c 14.439953
_cell_angle_alpha 90.000000
_cell_angle_beta 90.000000
_cell_angle_gamma 90.000000
_cell_volume 6051.441683
_symmetry_space_group_name_H-M "I M M M"
_symmetry_group_IT_number 71
_symmetry_cell_setting 'orthorhombic'
loop_
_space_group_symop_operation_xyz
x,y,z
-x,-y,z
x,-y,-z
-x,y,-z
-x,-y,-z
x,y,-z
-x,y,z
x,-y,z
1/2+x,1/2+y,1/2+z
1/2-x,1/2-y,1/2+z
1/2+x,1/2-y,1/2-z
1/2-x,1/2+y,1/2-z
1/2-x,1/2-y,1/2-z
1/2+x,1/2+y,1/2-z
1/2-x,1/2+y,1/2+z
1/2+x,1/2-y,1/2+z
loop_
_atom_site_type_symbol
_atom_site_label
_atom_site_fract_x
_atom_site_fract_y
_atom_site_fract_z
Si Si1 0.601162 0.682561 0.362679
Si Si2 0.500000 0.557969 0.605286
Si Si3 0.335168 0.557387 0.726388
Si Si4 0.148732 0.790154 0.663515
Si Si5 0.596337 0.184139 0.205079
Si Si6 0.401183 0.610708 0.102035
Si Si7 0.761290 0.378564 0.601319
Si Si8 0.655991 0.787159 0.396665
O O1 0.500000 0.662940 0.368685
O O2 0.641026 0.681025 0.259904
O O3 0.669062 0.648881 0.417225
O O4 0.601898 0.737136 0.403068
O O5 0.500000 0.500000 0.599830
O O6 0.500000 0.579133 0.500000
O O7 0.415655 0.575433 0.662660
O O8 0.332531 0.500000 0.742563
O O9 0.337442 0.583761 0.825968
O O10 0.249538 0.575279 0.670487
O O11 0.093729 0.740633 0.671971
O O12 0.112039 0.830555 0.592989
O O13 0.246099 0.774719 0.635618
O O14 0.500000 0.162402 0.187360
O O15 0.665447 0.156224 0.143405
O O16 0.615738 0.178971 0.315742
O O17 0.500000 0.598743 0.131787
O O18 0.381541 0.589304 0.000000
O O19 0.792707 0.396768 0.500000
O O20 0.653267 0.811703 0.500000
#
# Coordination Sequence:
#
# PCOD8292265 Si02
#       8
#    16   8  16  16  16  16  16  16
#     4  11  21  35  55  78 114 158 200 248 299 350
#     4   9  18  34  57  83 109 145 188 234 299 369
#     4  11  23  41  60  82 117 152 194 254 310 365
#     4  11  19  36  56  83 123 168 205 248 291 352
#     4  11  23  41  62  86 123 166 207 256 307 359
#     4  11  22  35  55  85 120 162 209 248 292 360
#     4  12  25  40  60  89 118 151 204 256 308 373
#     4  11  20  34  56  83 120 162 207 253 298 350
#
# _framework density 19.829985000000001
#
# number of rings (size 3 to 8) (size 9 to 14) (size 15 to 20)
#    0.000    1.000    4.667    4.400    0.933    3.733 
#    0.000    0.667    0.000    0.400    0.000    0.933 
#    0.000    0.000    0.000    5.200    0.000    0.000 
#
# Total GULP energy -743664.168786 kJ/mol
# GULP energy per Si atom -12394.402813 kJ/mol
# Density = 1.978485 g / cm^3
# Si number density = 19.829985 Si / 1000 Ang^3
#
#
#
# Elastic Constant Matrix: (Units=GPa)
#
#
# Indices 1 2 3 4 5 6 
#
# 1 97.3049 26.0657 45.5906 -0.0001 0.0000 0.0000
# 2 26.0657 56.0043 40.3164 0.0007 0.0000 0.0003
# 3 45.5906 40.3164 136.3774 0.0007 0.0002 0.0002
# 4 -0.0001 0.0007 0.0007 18.6655 0.0001 0.0002
# 5 0.0000 0.0000 0.0002 0.0001 8.8507 0.0000
# 6 0.0000 0.0003 0.0002 0.0002 0.0000 19.5113
#
#
#
# Elastic Compliance Matrix: (Units=1/GPa)
#
#
# Indices 1 2 3 4 5 6 
#
# 1 0.012744 -0.003639 -0.003184 0.000000 0.000000 0.000000
# 2 -0.003639 0.023722 -0.005796 -0.000001 0.000000 0.000000
# 3 -0.003184 -0.005796 0.010111 0.000000 0.000000 0.000000
# 4 0.000000 -0.000001 0.000000 0.053575 0.000000 0.000000
# 5 0.000000 0.000000 0.000000 0.000000 0.112985 0.000000
# 6 0.000000 0.000000 0.000000 0.000000 0.000000 0.051252
#
#
# Mechanical properties :
#
#
# Convention : Reuss Voigt Hill
#
# Bulk Modulus (GPa) = 46.86648 57.07023 51.96836
# Shear Modulus (GPa) = 16.84973 21.25308 19.05141
#
# Velocity S-wave (km/s) = 2.91814 3.27733 3.10294
# Velocity P-wave (km/s) = 5.91942 6.56989 6.25312
#
# Compressibility (1/GPa) = 0.02133721
#
# Stress axis : x y z
#
# Youngs Moduli (GPa) = 78.46973 42.15489 98.90510
#
# Poissons Ratio (x) = 0.15339 0.31496
# Poissons Ratio (y) = 0.28554 0.57329
# Poissons Ratio (z) = 0.24989 0.24435
#
# Static dielectric constant tensor:
#      x y z
#    x 3.476740 0.000000 0.000000 
#    y 0.000000 3.301420 0.000000 
#    z 0.000000 0.000000 3.818590 
# 
# 
# High freq. dielectric constant tensor:
#      x y z
#    x 1.749790 0.000000 0.000000 
#    y 0.000000 1.737620 0.000000 
#    z 0.000000 0.000000 1.792760 
# 
# From -- ./inp_files/35447.got.cif
#   From: 2010.06.25/outbox.cif.g09.slc.cpg/sg71_18_cif.got.tgz:35447.got - 2010.06.28 04:59:45.
