data_PCOD8292670
_publ_section_title
;
Structure prediction by ZEFSAII (Michael W. Deem and Ramdas Pophale) SiO2 
 PCOD8292670
Probable space group: I M M M
;
_chemical_formula_sum "Si O2"
_cell_formula_units_Z 104
_cell_length_a 8.960093
_cell_length_b 20.913644
_cell_length_c 31.521557
_cell_angle_alpha 90.000000
_cell_angle_beta 90.000000
_cell_angle_gamma 90.000000
_cell_volume 5906.767676
_symmetry_space_group_name_H-M "I M M M"
_symmetry_group_IT_number 71
_symmetry_cell_setting 'orthorhombic'
loop_
_space_group_symop_operation_xyz
x,y,z
-x,-y,z
x,-y,-z
-x,y,-z
-x,-y,-z
x,y,-z
-x,y,z
x,-y,z
1/2+x,1/2+y,1/2+z
1/2-x,1/2-y,1/2+z
1/2+x,1/2-y,1/2-z
1/2-x,1/2+y,1/2-z
1/2-x,1/2-y,1/2-z
1/2+x,1/2+y,1/2-z
1/2-x,1/2+y,1/2+z
1/2+x,1/2-y,1/2+z
loop_
_atom_site_type_symbol
_atom_site_label
_atom_site_fract_x
_atom_site_fract_y
_atom_site_fract_z
Si Si1 0.675563 0.818495 0.254268
Si Si2 0.174801 0.337543 0.337517
Si Si3 0.822315 0.365195 0.500000
Si Si4 0.822502 0.865340 0.576435
Si Si5 0.823238 0.192047 0.336436
Si Si6 0.321927 0.927410 0.912301
Si Si7 0.321941 0.279394 0.000000
Si Si8 0.177823 0.000000 0.452423
O O1 0.500000 0.810129 0.259961
O O2 0.750000 0.750000 0.250000
O O3 0.709289 0.859961 0.211325
O O4 0.747946 0.846795 0.297139
O O5 0.234536 0.265010 0.341793
O O6 0.244713 0.384967 0.373064
O O7 0.000000 0.336585 0.346102
O O8 0.763239 0.400376 0.457466
O O9 0.760137 0.292846 0.500000
O O10 0.000000 0.365604 0.500000
O O11 0.766929 0.844240 0.622218
O O12 0.760058 0.816366 0.541240
O O13 0.000000 0.865092 0.573323
O O14 0.758770 0.936561 0.569871
O O15 0.000000 0.190262 0.329992
O O16 0.500000 0.925876 0.911633
O O17 0.263929 0.000000 0.906791
O O18 0.500000 0.278181 0.000000
O O19 0.237425 0.000000 0.500000
O O20 0.000000 0.000000 0.451435
#
# Coordination Sequence:
#
# PCOD8292670 Si02
#       8
#    16  16   8  16  16  16   8   8
#     4   9  16  27  44  64  86 109 138 174 214 254
#     4   8  14  24  37  53  74 101 134 169 200 239
#     4   9  15  20  28  46  73 102 133 166 199 242
#     4   9  15  22  35  55  81 112 142 175 216 260
#     4   9  16  26  41  63  88 111 139 175 217 257
#     4   9  15  22  32  47  71 105 139 166 196 238
#     4   9  14  20  32  52  79 110 140 174 215 251
#     4   9  14  22  34  52  81 113 145 179 215 258
#
# _framework density 17.606922999999998
#
# number of rings (size 3 to 8) (size 9 to 14) (size 15 to 20)
#    0.000    3.154    0.769    2.538    0.000    4.615 
#    0.000    0.000    1.692    0.000    0.000    0.538 
#    0.000    6.615    0.000    2.692    0.000   81.692 
#
# Total GULP energy -644209.358454 kJ/mol
# GULP energy per Si atom -12388.641509 kJ/mol
# Density = 1.756685 g / cm^3
# Si number density = 17.606923 Si / 1000 Ang^3
#
#
#
# Elastic Constant Matrix: (Units=GPa)
#
#
# Indices 1 2 3 4 5 6 
#
# 1 18.3364 9.0646 24.1370 0.0000 0.0000 0.0000
# 2 9.0646 123.9011 87.8930 0.0000 0.0000 0.0000
# 3 24.1370 87.8930 201.9244 0.0000 0.0000 0.0000
# 4 0.0000 0.0000 0.0000 18.0943 0.0000 0.0000
# 5 0.0000 0.0000 0.0000 0.0000 18.6191 0.0000
# 6 0.0000 0.0000 0.0000 0.0000 0.0000 4.8826
#
#
#
# Elastic Compliance Matrix: (Units=1/GPa)
#
#
# Indices 1 2 3 4 5 6 
#
# 1 0.064822 0.001091 -0.008223 0.000000 0.000000 0.000000
# 2 0.001091 0.011695 -0.005221 0.000000 0.000000 0.000000
# 3 -0.008223 -0.005221 0.008208 0.000000 0.000000 0.000000
# 4 0.000000 0.000000 0.000000 0.055266 0.000000 0.000000
# 5 0.000000 0.000000 0.000000 0.000000 0.053708 0.000000
# 6 0.000000 0.000000 0.000000 0.000000 0.000000 0.204807
#
#
# Mechanical properties :
#
#
# Convention : Reuss Voigt Hill
#
# Bulk Modulus (GPa) = 16.66167 65.15012 40.90590
# Shear Modulus (GPa) = 11.28113 23.19035 17.23574
#
# Velocity S-wave (km/s) = 2.53399 3.63315 3.13216
# Velocity P-wave (km/s) = 4.24796 7.39477 6.03025
#
# Compressibility (1/GPa) = 0.06001801
#
# Stress axis : x y z
#
# Youngs Moduli (GPa) = 15.42695 85.50876 121.83452
#
# Poissons Ratio (x) = -0.09330 1.00189
# Poissons Ratio (y) = -0.01683 0.63608
# Poissons Ratio (z) = 0.12686 0.44643
#
# Static dielectric constant tensor:
#      x y z
#    x 2.685210 0.000000 0.000000 
#    y 0.000000 3.308630 0.000000 
#    z 0.000000 0.000000 3.789870 
# 
# 
# High freq. dielectric constant tensor:
#      x y z
#    x 1.603550 0.000000 0.000000 
#    y 0.000000 1.660950 0.000000 
#    z 0.000000 0.000000 1.704290 
# 
# From -- ./inp_files/69532.got.cif
#   From: 2010.06.25/outbox.cif.g09.slc.cpg/sg71_35_cif.got.tgz:69532.got - 2010.06.28 04:59:45.
