data_PCOD8292907
_publ_section_title
;
Structure prediction by ZEFSAII (Michael W. Deem and Ramdas Pophale) SiO2 
 PCOD8292907
Probable space group: I B A M
;
_chemical_formula_sum "Si O2"
_cell_formula_units_Z 80
_cell_length_a 25.427655
_cell_length_b 9.902265
_cell_length_c 17.426942
_cell_angle_alpha 90.000000
_cell_angle_beta 90.000000
_cell_angle_gamma 90.000000
_cell_volume 4387.953743
_symmetry_space_group_name_H-M "I B A M"
_symmetry_group_IT_number 72
_symmetry_cell_setting 'orthorhombic'
loop_
_space_group_symop_operation_xyz
x,y,z
-x,-y,z
x,-y,1/2-z
-x,y,1/2-z
-x,-y,-z
x,y,-z
-x,y,1/2+z
x,-y,1/2+z
1/2+x,1/2+y,1/2+z
1/2-x,1/2-y,1/2+z
1/2+x,1/2-y,-z
1/2-x,1/2+y,-z
1/2-x,1/2-y,1/2-z
1/2+x,1/2+y,1/2-z
1/2-x,1/2+y,z
1/2+x,1/2-y,z
loop_
_atom_site_type_symbol
_atom_site_label
_atom_site_fract_x
_atom_site_fract_y
_atom_site_fract_z
Si Si1 0.180550 0.918735 0.644948
Si Si2 0.060512 0.348629 0.230675
Si Si3 0.149496 0.808304 0.804039
Si Si4 0.874327 0.672659 0.085842
Si Si5 0.798106 0.541612 0.338797
O O1 0.181575 0.842460 0.726765
O O2 0.155206 0.817284 0.583675
O O3 0.239987 0.961146 0.624910
O O4 0.145403 0.055501 0.645666
O O5 0.079306 0.500000 0.250000
O O6 0.091170 0.242907 0.283947
O O7 0.074484 0.322466 0.141324
O O8 0.000000 0.326997 0.250000
O O9 0.180468 0.693060 0.849764
O O10 0.833578 0.559836 0.112990
O O11 0.894015 0.639942 0.000000
O O12 0.798604 0.500000 0.250000
#
# Coordination Sequence:
#
# PCOD8292907 Si02
#       5
#    16  16  16  16  16
#     4  10  20  30  55  83 115 150 183 228 273 322
#     4  10  19  37  63  83 103 137 193 244 279 329
#     4  10  17  31  54  86 104 137 194 243 263 308
#     4  11  23  38  53  82 123 152 179 231 297 340
#     4  12  17  33  58  85 111 152 201 230 257 323
#
# _framework density 18.231732000000001
#
# number of rings (size 3 to 8) (size 9 to 14) (size 15 to 20)
#    0.000    1.400    8.000    1.800    0.000    0.800 
#    0.000   11.000    0.000    1.200    0.000    0.000 
#    0.000    0.000    0.000    0.000    0.000    0.000 
#
# Total GULP energy -495975.936005 kJ/mol
# GULP energy per Si atom -12399.398400 kJ/mol
# Density = 1.819024 g / cm^3
# Si number density = 18.231732 Si / 1000 Ang^3
#
#
#
# Elastic Constant Matrix: (Units=GPa)
#
#
# Indices 1 2 3 4 5 6 
#
# 1 120.1748 49.2844 46.8687 0.0000 0.0000 0.0000
# 2 49.2844 140.8646 35.2651 0.0000 0.0000 0.0000
# 3 46.8687 35.2651 82.0863 0.0000 0.0000 0.0000
# 4 0.0000 0.0000 0.0000 10.3036 0.0000 0.0000
# 5 0.0000 0.0000 0.0000 0.0000 11.6088 0.0000
# 6 0.0000 0.0000 0.0000 0.0000 0.0000 22.0899
#
#
#
# Elastic Compliance Matrix: (Units=1/GPa)
#
#
# Indices 1 2 3 4 5 6 
#
# 1 0.011540 -0.002676 -0.005439 0.000000 0.000000 0.000000
# 2 -0.002676 0.008575 -0.002156 0.000000 0.000000 0.000000
# 3 -0.005439 -0.002156 0.016214 0.000000 0.000000 0.000000
# 4 0.000000 0.000000 0.000000 0.097054 0.000000 0.000000
# 5 0.000000 0.000000 0.000000 0.000000 0.086142 0.000000
# 6 0.000000 0.000000 0.000000 0.000000 0.000000 0.045269
#
#
# Mechanical properties :
#
#
# Convention : Reuss Voigt Hill
#
# Bulk Modulus (GPa) = 63.34464 67.32915 65.33689
# Shear Modulus (GPa) = 17.20584 22.91429 20.06006
#
# Velocity S-wave (km/s) = 3.07535 3.54903 3.32065
# Velocity P-wave (km/s) = 6.88694 7.33512 7.11456
#
# Compressibility (1/GPa) = 0.01578666
#
# Stress axis : x y z
#
# Youngs Moduli (GPa) = 86.65551 116.61858 61.67383
#
# Poissons Ratio (x) = 0.31204 0.33547
# Poissons Ratio (y) = 0.23187 0.13298
# Poissons Ratio (z) = 0.47136 0.25144
#
# Static dielectric constant tensor:
#      x y z
#    x 3.202550 0.000000 0.000000 
#    y 0.000000 3.828710 0.000000 
#    z 0.000000 0.000000 3.044320 
# 
# 
# High freq. dielectric constant tensor:
#      x y z
#    x 1.691720 0.000000 0.000000 
#    y 0.000000 1.728340 0.000000 
#    z 0.000000 0.000000 1.662520 
# 
# From -- ./inp_files/33764.got.cif
#   From: 2010.03.12/outbox.cif.g09.slc.cpg/sg72_17_cif.got.tgz:33764.got - 2010.04.16 14:54:00.
