data_PCOD8292168
_publ_section_title
;
Structure prediction by ZEFSAII (Michael W. Deem and Ramdas Pophale) SiO2 
 PCOD8292168
Probable space group: I M M M
;
_chemical_formula_sum "Si O2"
_cell_formula_units_Z 56
_cell_length_a 7.660557
_cell_length_b 23.152376
_cell_length_c 15.278658
_cell_angle_alpha 90.000000
_cell_angle_beta 90.000000
_cell_angle_gamma 90.000000
_cell_volume 2709.824250
_symmetry_space_group_name_H-M "I M M M"
_symmetry_group_IT_number 71
_symmetry_cell_setting 'orthorhombic'
loop_
_space_group_symop_operation_xyz
x,y,z
-x,-y,z
x,-y,-z
-x,y,-z
-x,-y,-z
x,y,-z
-x,y,z
x,-y,z
1/2+x,1/2+y,1/2+z
1/2-x,1/2-y,1/2+z
1/2+x,1/2-y,1/2-z
1/2-x,1/2+y,1/2-z
1/2-x,1/2-y,1/2-z
1/2+x,1/2+y,1/2-z
1/2-x,1/2+y,1/2+z
1/2+x,1/2-y,1/2+z
loop_
_atom_site_type_symbol
_atom_site_label
_atom_site_fract_x
_atom_site_fract_y
_atom_site_fract_z
Si Si1 0.500000 0.000000 0.355986
Si Si2 0.793250 0.892582 0.097554
Si Si3 0.291946 0.500000 0.714177
Si Si4 0.500000 0.095479 0.500000
Si Si5 0.691694 0.685327 0.000000
Si Si6 0.295629 0.732338 0.347409
O O1 0.319933 0.000000 0.302194
O O2 0.500000 0.057444 0.413327
O O3 0.731564 0.944204 0.159560
O O4 0.723298 0.832177 0.136231
O O5 0.000000 0.892080 0.093154
O O6 0.716832 0.901818 0.000000
O O7 0.500000 0.500000 0.735239
O O8 0.328650 0.134168 0.500000
O O9 0.705326 0.724128 0.086261
O O10 0.500000 0.656729 0.000000
O O11 0.500000 0.735151 0.365595
O O12 0.250000 0.750000 0.250000
#
# Coordination Sequence:
#
# PCOD8292168 Si02
#       6
#     4  16   8   4   8  16
#     4  11  28  50  71  98 126 178 227 278 348 393
#     4   9  18  36  62  91 133 180 215 264 334 399
#     4  10  22  41  69  99 131 169 227 277 326 398
#     4  11  28  52  72  90 138 177 220 290 340 403
#     4  12  25  45  71 103 135 177 227 283 346 407
#     4  11  22  39  63  97 139 180 225 279 341 405
#
# _framework density 20.665545000000002
#
# number of rings (size 3 to 8) (size 9 to 14) (size 15 to 20)
#    0.000    1.571    2.857    1.286    4.000    2.857 
#    2.571    2.857    0.000    0.000    0.000    0.000 
#    0.000    0.000    0.000    0.000    0.000    0.000 
#
# Total GULP energy -347256.660769 kJ/mol
# GULP energy per Si atom -12402.023599 kJ/mol
# Density = 2.061851 g / cm^3
# Si number density = 20.665545 Si / 1000 Ang^3
#
#
#
# Elastic Constant Matrix: (Units=GPa)
#
#
# Indices 1 2 3 4 5 6 
#
# 1 107.3068 56.6218 45.5205 0.0000 0.0000 0.0000
# 2 56.6218 181.1381 90.7016 0.0000 0.0000 0.0000
# 3 45.5205 90.7016 185.8905 0.0001 0.0000 0.0000
# 4 0.0000 0.0000 0.0001 29.6197 0.0000 0.0000
# 5 0.0000 0.0000 0.0000 0.0000 27.7446 0.0000
# 6 0.0000 0.0000 0.0000 0.0000 0.0000 -15.2510
#
#
#
# Elastic Compliance Matrix: (Units=1/GPa)
#
#
# Indices 1 2 3 4 5 6 
#
# 1 0.011427 -0.002873 -0.001397 0.000000 0.000000 0.000000
# 2 -0.002873 0.008028 -0.003214 0.000000 0.000000 0.000000
# 3 -0.001397 -0.003214 0.007289 0.000000 0.000000 0.000000
# 4 0.000000 0.000000 0.000000 0.033761 0.000000 0.000000
# 5 0.000000 0.000000 0.000000 0.000000 0.036043 0.000000
# 6 0.000000 0.000000 0.000000 0.000000 0.000000 -0.065569
#
#
# Mechanical properties :
#
#
# Convention : Reuss Voigt Hill
#
# Bulk Modulus (GPa) = 84.89786 95.55815 90.22800
# Shear Modulus (GPa) = 100.25769 27.18876 63.72322
#
# Velocity S-wave (km/s) = 6.97279 3.63113 5.55900
# Velocity P-wave (km/s) = 10.29550 7.99505 9.21733
#
# Compressibility (1/GPa) = 0.01177886
#
# Stress axis : x y z
#
# Youngs Moduli (GPa) = 87.50919 124.56796 137.18400
#
# Poissons Ratio (x) = 0.35785 0.19159
# Poissons Ratio (y) = 0.25139 0.44084
# Poissons Ratio (z) = 0.12222 0.40030
#
# Static dielectric constant tensor:
#      x y z
#    x 3.626370 0.000000 0.000000 
#    y 0.000000 3.889410 0.000000 
#    z 0.000000 0.000000 3.780750 
# 
# 
# High freq. dielectric constant tensor:
#      x y z
#    x 1.802780 0.000000 0.000000 
#    y 0.000000 1.818580 0.000000 
#    z 0.000000 0.000000 1.818150 
# 
# From -- ./inp_files/31013.got.cif
#   From: 2010.06.25/outbox.cif.g09.slc.cpg/sg71_16_cif.got.tgz:31013.got - 2010.06.28 04:59:45.
