data_PCOD8292942
_publ_section_title
;
Structure prediction by ZEFSAII (Michael W. Deem and Ramdas Pophale) SiO2 
 PCOD8292942
Probable space group: I B A M
;
_chemical_formula_sum "Si O2"
_cell_formula_units_Z 80
_cell_length_a 28.958554
_cell_length_b 23.124673
_cell_length_c 9.269852
_cell_angle_alpha 90.000000
_cell_angle_beta 90.000000
_cell_angle_gamma 90.000000
_cell_volume 6207.622132
_symmetry_space_group_name_H-M "I B A M"
_symmetry_group_IT_number 72
_symmetry_cell_setting 'orthorhombic'
loop_
_space_group_symop_operation_xyz
x,y,z
-x,-y,z
x,-y,1/2-z
-x,y,1/2-z
-x,-y,-z
x,y,-z
-x,y,1/2+z
x,-y,1/2+z
1/2+x,1/2+y,1/2+z
1/2-x,1/2-y,1/2+z
1/2+x,1/2-y,-z
1/2-x,1/2+y,-z
1/2-x,1/2-y,1/2-z
1/2+x,1/2+y,1/2-z
1/2-x,1/2+y,z
1/2+x,1/2-y,z
loop_
_atom_site_type_symbol
_atom_site_label
_atom_site_fract_x
_atom_site_fract_y
_atom_site_fract_z
Si Si1 0.637885 0.624675 0.170223
Si Si2 0.181669 0.237360 0.340645
Si Si3 0.226730 0.058627 0.671319
Si Si4 0.454282 0.439446 0.826696
Si Si5 0.222425 0.670581 0.658712
O O1 0.647077 0.689638 0.231594
O O2 0.676045 0.579046 0.227171
O O3 0.586846 0.604254 0.211835
O O4 0.645231 0.628938 0.000000
O O5 0.164454 0.254099 0.500000
O O6 0.183382 0.297370 0.252979
O O7 0.231754 0.208772 0.347429
O O8 0.226876 0.049199 0.500000
O O9 0.264432 0.106954 0.718035
O O10 0.240703 0.000000 0.750000
O O11 0.442837 0.500000 0.750000
O O12 0.500000 0.413668 0.750000
O O13 0.460561 0.447238 0.000000
O O14 0.201071 0.664494 0.500000
#
# Coordination Sequence:
#
# PCOD8292942 Si02
#       5
#    16  16  16  16  16
#     4   8  15  26  38  50  65  85 109 142 176 202
#     4   8  13  23  37  49  61  81 108 133 162 200
#     4   9  16  25  35  48  67  89 113 139 168 198
#     4  10  18  28  39  50  66  87 112 141 175 209
#     4   8  14  23  33  47  67  85 102 132 168 195
#
# _framework density 12.887381
#
# number of rings (size 3 to 8) (size 9 to 14) (size 15 to 20)
#    0.000    3.400    0.000    4.200    0.000    0.800 
#    0.000    6.000    0.000    0.000    0.000    0.000 
#    0.000    0.000    0.000    0.000    0.000    1.000 
#
# Total GULP energy -495538.942617 kJ/mol
# GULP energy per Si atom -12388.473565 kJ/mol
# Density = 1.285805 g / cm^3
# Si number density = 12.887381 Si / 1000 Ang^3
#
#
#
# Elastic Constant Matrix: (Units=GPa)
#
#
# Indices 1 2 3 4 5 6 
#
# 1 53.5121 49.4645 26.7506 0.0000 0.0000 0.0000
# 2 49.4645 104.8397 41.2982 0.0000 0.0000 0.0000
# 3 26.7506 41.2982 48.8612 0.0000 0.0000 0.0000
# 4 0.0000 0.0000 0.0000 21.1554 0.0000 0.0000
# 5 0.0000 0.0000 0.0000 0.0000 13.1641 0.0000
# 6 0.0000 0.0000 0.0000 0.0000 0.0000 22.1352
#
#
#
# Elastic Compliance Matrix: (Units=1/GPa)
#
#
# Indices 1 2 3 4 5 6 
#
# 1 0.035021 -0.013448 -0.007807 0.000000 0.000000 0.000000
# 2 -0.013448 0.019463 -0.009088 0.000000 0.000000 0.000000
# 3 -0.007807 -0.009088 0.032422 0.000000 0.000000 0.000000
# 4 0.000000 0.000000 0.000000 0.047269 0.000000 0.000000
# 5 0.000000 0.000000 0.000000 0.000000 0.075964 0.000000
# 6 0.000000 0.000000 0.000000 0.000000 0.000000 0.045177
#
#
# Mechanical properties :
#
#
# Convention : Reuss Voigt Hill
#
# Bulk Modulus (GPa) = 38.13903 49.13774 43.63838
# Shear Modulus (GPa) = 15.39685 17.27092 16.33389
#
# Velocity S-wave (km/s) = 3.46023 3.66477 3.56396
# Velocity P-wave (km/s) = 6.75445 7.49124 7.13236
#
# Compressibility (1/GPa) = 0.02621986
#
# Stress axis : x y z
#
# Youngs Moduli (GPa) = 28.55450 51.37901 30.84368
#
# Poissons Ratio (x) = 0.69094 0.24079
# Poissons Ratio (y) = 0.38400 0.28031
# Poissons Ratio (z) = 0.22292 0.46694
#
# Static dielectric constant tensor:
#      x y z
#    x 2.439850 0.000000 0.000000 
#    y 0.000000 2.689680 0.000000 
#    z 0.000000 0.000000 2.653010 
# 
# 
# High freq. dielectric constant tensor:
#      x y z
#    x 1.445140 0.000000 0.000000 
#    y 0.000000 1.480920 0.000000 
#    z 0.000000 0.000000 1.483580 
# 
# From -- ./inp_files/7372.got.cif
#   From: 2010.03.12/outbox.cif.g09.slc.cpg/sg72_4_cif.got.tgz:7372.got - 2010.04.16 14:54:00.
