data_PCOD8292221
_publ_section_title
;
Structure prediction by ZEFSAII (Michael W. Deem and Ramdas Pophale) SiO2 
 PCOD8292221
Probable space group: I M M M
;
_chemical_formula_sum "Si O2"
_cell_formula_units_Z 104
_cell_length_a 19.384271
_cell_length_b 19.547212
_cell_length_c 13.775448
_cell_angle_alpha 90.000000
_cell_angle_beta 90.000000
_cell_angle_gamma 90.000000
_cell_volume 5219.633715
_symmetry_space_group_name_H-M "I M M M"
_symmetry_group_IT_number 71
_symmetry_cell_setting 'orthorhombic'
loop_
_space_group_symop_operation_xyz
x,y,z
-x,-y,z
x,-y,-z
-x,y,-z
-x,-y,-z
x,y,-z
-x,y,z
x,-y,z
1/2+x,1/2+y,1/2+z
1/2-x,1/2-y,1/2+z
1/2+x,1/2-y,1/2-z
1/2-x,1/2+y,1/2-z
1/2-x,1/2-y,1/2-z
1/2+x,1/2+y,1/2-z
1/2-x,1/2+y,1/2+z
1/2+x,1/2-y,1/2+z
loop_
_atom_site_type_symbol
_atom_site_label
_atom_site_fract_x
_atom_site_fract_y
_atom_site_fract_z
Si Si1 0.421716 0.110655 0.611661
Si Si2 0.081786 0.805924 0.311065
Si Si3 0.799289 0.424070 0.240026
Si Si4 0.631218 0.163479 0.113538
Si Si5 0.329693 0.578147 0.888667
Si Si6 0.000000 0.422619 0.615315
Si Si7 0.581086 0.732490 0.395892
O O1 0.417635 0.087217 0.500000
O O2 0.500000 0.098698 0.650622
O O3 0.367953 0.068308 0.674820
O O4 0.398881 0.189281 0.623278
O O5 0.119727 0.742748 0.362897
O O6 0.104571 0.875618 0.362075
O O7 0.105005 0.810877 0.197594
O O8 0.000000 0.796504 0.323001
O O9 0.785123 0.500000 0.283064
O O10 0.804883 0.368714 0.326957
O O11 0.735914 0.399131 0.174075
O O12 0.566549 0.118816 0.151343
O O13 0.645833 0.154801 0.000000
O O14 0.351191 0.500000 0.868380
O O15 0.309115 0.589240 0.000000
O O16 0.000000 0.500000 0.656776
O O17 0.000000 0.424205 0.500000
O O18 0.613651 0.707378 0.500000
O O19 0.500000 0.727255 0.406691
#
# Coordination Sequence:
#
# PCOD8292221 Si02
#       7
#    16  16  16  16  16   8  16
#     4   9  17  31  52  80 113 147 189 238 284 336
#     4  11  21  38  66  93 119 153 198 253 305 362
#     4  11  23  38  57  78 114 164 204 240 293 359
#     4  11  22  36  55  85 122 157 201 248 291 350
#     4  10  24  45  64  86 118 155 197 250 314 367
#     4   9  18  32  50  76 116 162 198 235 286 338
#     4   8  15  30  53  83 119 151 180 227 291 347
#
# _framework density 19.924769999999999
#
# number of rings (size 3 to 8) (size 9 to 14) (size 15 to 20)
#    0.000    2.077    2.308    2.308    1.077    4.000 
#    0.000    2.308    0.000    1.385    0.000    2.154 
#    0.000    0.000    0.000    0.000    0.000    0.000 
#
# Total GULP energy -644670.584511 kJ/mol
# GULP energy per Si atom -12397.511241 kJ/mol
# Density = 1.987942 g / cm^3
# Si number density = 19.924770 Si / 1000 Ang^3
#
#
#
# Elastic Constant Matrix: (Units=GPa)
#
#
# Indices 1 2 3 4 5 6 
#
# 1 43.1985 31.5769 34.8412 0.0000 0.0000 0.0000
# 2 31.5769 102.6915 51.8431 0.0000 0.0000 0.0000
# 3 34.8412 51.8431 106.0672 0.0000 0.0000 0.0000
# 4 0.0000 0.0000 0.0000 26.8974 0.0000 0.0000
# 5 0.0000 0.0000 0.0000 0.0000 30.1709 0.0000
# 6 0.0000 0.0000 0.0000 0.0000 0.0000 26.8296
#
#
#
# Elastic Compliance Matrix: (Units=1/GPa)
#
#
# Indices 1 2 3 4 5 6 
#
# 1 0.034462 -0.006481 -0.008152 0.000000 0.000000 0.000000
# 2 -0.006481 0.014147 -0.004786 0.000000 0.000000 0.000000
# 3 -0.008152 -0.004786 0.014445 0.000000 0.000000 0.000000
# 4 0.000000 0.000000 0.000000 0.037178 0.000000 0.000000
# 5 0.000000 0.000000 0.000000 0.000000 0.033144 0.000000
# 6 0.000000 0.000000 0.000000 0.000000 0.000000 0.037272
#
#
# Mechanical properties :
#
#
# Convention : Reuss Voigt Hill
#
# Bulk Modulus (GPa) = 41.29615 54.27552 47.78583
# Shear Modulus (GPa) = 22.98235 25.69265 24.33750
#
# Velocity S-wave (km/s) = 3.39994 3.59483 3.49874
# Velocity P-wave (km/s) = 6.01530 6.67306 6.35270
#
# Compressibility (1/GPa) = 0.02421533
#
# Stress axis : x y z
#
# Youngs Moduli (GPa) = 29.01783 70.68721 69.22823
#
# Poissons Ratio (x) = 0.45813 0.56436
# Poissons Ratio (y) = 0.18807 0.33131
# Poissons Ratio (z) = 0.23656 0.33829
#
# Static dielectric constant tensor:
#      x y z
#    x 3.273530 0.000000 0.000000 
#    y 0.000000 3.473890 0.000000 
#    z 0.000000 0.000000 3.796920 
# 
# 
# High freq. dielectric constant tensor:
#      x y z
#    x 1.742910 0.000000 0.000000 
#    y 0.000000 1.760390 0.000000 
#    z 0.000000 0.000000 1.795270 
# 
# From -- ./inp_files/38085.got.cif
#   From: 2010.06.25/outbox.cif.g09.slc.cpg/sg71_20_cif.got.tgz:38085.got - 2010.06.28 04:59:45.
