data_PCOD8292309
_publ_section_title
;
Structure prediction by ZEFSAII (Michael W. Deem and Ramdas Pophale) SiO2 
 PCOD8292309
Probable space group: I M M M
;
_chemical_formula_sum "Si O2"
_cell_formula_units_Z 72
_cell_length_a 26.582698
_cell_length_b 10.069541
_cell_length_c 14.734591
_cell_angle_alpha 90.000000
_cell_angle_beta 90.000000
_cell_angle_gamma 90.000000
_cell_volume 3944.090006
_symmetry_space_group_name_H-M "I M M M"
_symmetry_group_IT_number 71
_symmetry_cell_setting 'orthorhombic'
loop_
_space_group_symop_operation_xyz
x,y,z
-x,-y,z
x,-y,-z
-x,y,-z
-x,-y,-z
x,y,-z
-x,y,z
x,-y,z
1/2+x,1/2+y,1/2+z
1/2-x,1/2-y,1/2+z
1/2+x,1/2-y,1/2-z
1/2-x,1/2+y,1/2-z
1/2-x,1/2-y,1/2-z
1/2+x,1/2+y,1/2-z
1/2-x,1/2+y,1/2+z
1/2+x,1/2-y,1/2+z
loop_
_atom_site_type_symbol
_atom_site_label
_atom_site_fract_x
_atom_site_fract_y
_atom_site_fract_z
Si Si1 0.056509 0.841947 0.500000
Si Si2 0.442479 0.000000 0.392465
Si Si3 0.634478 0.346408 0.853040
Si Si4 0.781786 0.151351 0.500000
Si Si5 0.687698 0.341047 0.500000
Si Si6 0.058382 0.000000 0.100654
Si Si7 0.116067 0.240080 0.161315
O O1 0.086266 0.794424 0.410283
O O2 0.000000 0.782740 0.500000
O O3 0.055979 0.000000 0.500000
O O4 0.411456 0.876411 0.356900
O O5 0.500000 0.000000 0.355601
O O6 0.443423 0.000000 0.500000
O O7 0.627601 0.500000 0.826340
O O8 0.684894 0.327151 0.910584
O O9 0.639507 0.259119 0.762049
O O10 0.740175 0.264376 0.500000
O O11 0.759720 0.000000 0.500000
O O12 0.696450 0.500000 0.500000
O O13 0.659347 0.292799 0.410193
O O14 0.073164 0.871161 0.156719
O O15 0.000000 0.000000 0.085380
O O16 0.084863 0.000000 0.000000
#
# Coordination Sequence:
#
# PCOD8292309 Si02
#       7
#     8   8  16   8   8   8  16
#     4   8  15  28  52  85 117 148 187 236 281 332
#     4  11  24  40  56  82 124 164 198 231 284 357
#     4   9  18  37  59  86 119 150 193 240 288 347
#     4   9  22  41  64  86 115 158 191 240 304 355
#     4  12  23  39  60  89 117 143 201 254 299 352
#     4  11  20  34  56  84 116 152 188 225 290 349
#     4  12  21  38  59  85 118 155 191 246 290 342
#
# _framework density 18.255161999999999
#
# number of rings (size 3 to 8) (size 9 to 14) (size 15 to 20)
#    0.000    1.667    4.444    2.000    1.556    4.444 
#    2.000    0.000    0.000    0.000    0.000    2.333 
#    0.000    0.000    0.000    0.000    0.000    0.000 
#
# Total GULP energy -446355.544144 kJ/mol
# GULP energy per Si atom -12398.765115 kJ/mol
# Density = 1.821361 g / cm^3
# Si number density = 18.255162 Si / 1000 Ang^3
#
#
#
# Elastic Constant Matrix: (Units=GPa)
#
#
# Indices 1 2 3 4 5 6 
#
# 1 119.2148 65.0023 57.5089 0.0000 0.0000 0.0000
# 2 65.0023 133.2792 47.1335 0.0000 0.0000 0.0000
# 3 57.5089 47.1335 144.6155 0.0000 0.0000 0.0000
# 4 0.0000 0.0000 0.0000 58.4153 0.0000 0.0000
# 5 0.0000 0.0000 0.0000 0.0000 0.0275 0.0000
# 6 0.0000 0.0000 0.0000 0.0000 0.0000 50.7705
#
#
#
# Elastic Compliance Matrix: (Units=1/GPa)
#
#
# Indices 1 2 3 4 5 6 
#
# 1 0.012788 -0.005017 -0.003450 0.000000 0.000000 0.000000
# 2 -0.005017 0.010449 -0.001410 0.000000 0.000000 0.000000
# 3 -0.003450 -0.001410 0.008747 0.000000 0.000000 0.000000
# 4 0.000000 0.000000 0.000000 0.017119 0.000000 0.000000
# 5 0.000000 0.000000 0.000000 0.000000 36.346068 0.000000
# 6 0.000000 0.000000 0.000000 0.000000 0.000000 0.019696
#
#
# Mechanical properties :
#
#
# Convention : Reuss Voigt Hill
#
# Bulk Modulus (GPa) = 81.77754 81.82209 81.79982
# Shear Modulus (GPa) = 0.13722 37.00697 18.57209
#
# Velocity S-wave (km/s) = 0.27446 4.50733 3.19307
# Velocity P-wave (km/s) = 6.70780 8.48568 7.64857
#
# Compressibility (1/GPa) = 0.01222830
#
# Stress axis : x y z
#
# Youngs Moduli (GPa) = 78.19808 95.70682 114.32930
#
# Poissons Ratio (x) = 0.48014 0.39447
# Poissons Ratio (y) = 0.39230 0.16125
# Poissons Ratio (z) = 0.26981 0.13499
#
# Static dielectric constant tensor:
#      x y z
#    x 3.397060 0.000000 0.000000 
#    y 0.000000 3.207480 0.000000 
#    z 0.000000 0.000000 3.469550 
# 
# 
# High freq. dielectric constant tensor:
#      x y z
#    x 1.708110 0.000000 0.000000 
#    y 0.000000 1.687130 0.000000 
#    z 0.000000 0.000000 1.714450 
# 
# From -- ./inp_files/14402.got.cif
#   From: 2010.06.25/outbox.cif.g09.slc.cpg/sg71_8_cif.got.tgz:14402.got - 2010.06.28 04:59:45.
