data_PCOD8292510
_publ_section_title
;
Structure prediction by ZEFSAII (Michael W. Deem and Ramdas Pophale) SiO2 
 PCOD8292510
Probable space group: I M M M
;
_chemical_formula_sum "Si O2"
_cell_formula_units_Z 64
_cell_length_a 16.654247
_cell_length_b 8.672180
_cell_length_c 22.071598
_cell_angle_alpha 90.000000
_cell_angle_beta 90.000000
_cell_angle_gamma 90.000000
_cell_volume 3187.770611
_symmetry_space_group_name_H-M "I M M M"
_symmetry_group_IT_number 71
_symmetry_cell_setting 'orthorhombic'
loop_
_space_group_symop_operation_xyz
x,y,z
-x,-y,z
x,-y,-z
-x,y,-z
-x,-y,-z
x,y,-z
-x,y,z
x,-y,z
1/2+x,1/2+y,1/2+z
1/2-x,1/2-y,1/2+z
1/2+x,1/2-y,1/2-z
1/2-x,1/2+y,1/2-z
1/2-x,1/2-y,1/2-z
1/2+x,1/2+y,1/2-z
1/2-x,1/2+y,1/2+z
1/2+x,1/2-y,1/2+z
loop_
_atom_site_type_symbol
_atom_site_label
_atom_site_fract_x
_atom_site_fract_y
_atom_site_fract_z
Si Si1 0.090362 0.183237 0.765971
Si Si2 0.819965 0.817255 0.115147
Si Si3 0.350149 0.682528 0.863424
Si Si4 0.594559 0.821790 0.500000
Si Si5 0.000000 0.675587 0.428394
O O1 0.139282 0.247304 0.823441
O O2 0.134650 0.240472 0.705211
O O3 0.000000 0.250781 0.767416
O O4 0.086530 0.000000 0.767124
O O5 0.729785 0.757772 0.110400
O O6 0.870601 0.757806 0.059117
O O7 0.819854 0.000000 0.114246
O O8 0.342375 0.500000 0.866371
O O9 0.422282 0.735410 0.905523
O O10 0.500000 0.796885 0.500000
O O11 0.618932 0.000000 0.500000
O O12 0.000000 0.500000 0.404392
O O13 0.000000 0.680278 0.500000
#
# Coordination Sequence:
#
# PCOD8292510 Si02
#       5
#    16  16  16   8   8
#     4   9  18  36  62  92 124 161 204 253 307 367
#     4  11  23  39  64  93 126 163 207 256 309 369
#     4  11  22  40  65  92 127 164 206 254 310 370
#     4  11  25  45  65  90 125 162 209 259 309 367
#     4  11  25  43  63  89 125 164 211 260 308 366
#
# _framework density 20.076727000000002
#
# number of rings (size 3 to 8) (size 9 to 14) (size 15 to 20)
#    0.000    1.500    1.250    3.750    1.750    3.000 
#    0.000    3.750    0.000    0.000    0.000    0.000 
#    0.000    0.000    0.000    0.000    0.000    0.000 
#
# Total GULP energy -396955.576125 kJ/mol
# GULP energy per Si atom -12404.861754 kJ/mol
# Density = 2.003103 g / cm^3
# Si number density = 20.076727 Si / 1000 Ang^3
#
#
#
# Elastic Constant Matrix: (Units=GPa)
#
#
# Indices 1 2 3 4 5 6 
#
# 1 118.9017 44.1138 38.0021 0.0000 0.0000 0.0000
# 2 44.1138 81.0013 43.8999 0.0000 0.0000 0.0000
# 3 38.0021 43.8999 121.1521 0.0000 0.0000 0.0000
# 4 0.0000 0.0000 0.0000 -161.5744 0.0000 0.0000
# 5 0.0000 0.0000 0.0000 0.0000 37.6487 0.0000
# 6 0.0000 0.0000 0.0000 0.0000 0.0000 5.5977
#
#
#
# Elastic Compliance Matrix: (Units=1/GPa)
#
#
# Indices 1 2 3 4 5 6 
#
# 1 0.010772 -0.005021 -0.001559 0.000000 0.000000 0.000000
# 2 -0.005021 0.017703 -0.004840 0.000000 0.000000 0.000000
# 3 -0.001559 -0.004840 0.010497 0.000000 0.000000 0.000000
# 4 0.000000 0.000000 0.000000 -0.006189 0.000000 0.000000
# 5 0.000000 0.000000 0.000000 0.000000 0.026561 0.000000
# 6 0.000000 0.000000 0.000000 0.000000 0.000000 0.178645
#
#
# Mechanical properties :
#
#
# Convention : Reuss Voigt Hill
#
# Bulk Modulus (GPa) = 61.99229 63.67630 62.83430
# Shear Modulus (GPa) = 18.78241 -10.66298 4.05972
#
# Velocity S-wave (km/s) = 3.06196 -2.30709 1.42355
# Velocity P-wave (km/s) = 6.59132 4.96875 5.83670
#
# Compressibility (1/GPa) = 0.01613104
#
# Stress axis : x y z
#
# Youngs Moduli (GPa) = 92.83686 56.48748 95.26617
#
# Poissons Ratio (x) = 0.28363 0.14855
# Poissons Ratio (y) = 0.46615 0.46107
# Poissons Ratio (z) = 0.14476 0.27339
#
# Static dielectric constant tensor:
#      x y z
#    x 3.774200 0.000000 0.000000 
#    y 0.000000 3.574980 0.000000 
#    z 0.000000 0.000000 3.861730 
# 
# 
# High freq. dielectric constant tensor:
#      x y z
#    x 1.801390 0.000000 0.000000 
#    y 0.000000 1.772540 0.000000 
#    z 0.000000 0.000000 1.798610 
# 
# From -- ./inp_files/5511.got.cif
#   From: 2010.06.25/outbox.cif.g09.slc.cpg/sg71_3_cif.got.tgz:5511.got - 2010.06.28 04:59:45.
