data_PCOD8292780
_publ_section_title
;
Structure prediction by ZEFSAII (Michael W. Deem and Ramdas Pophale) SiO2 
 PCOD8292780
Probable space group: I M M M
;
_chemical_formula_sum "Si O2"
_cell_formula_units_Z 80
_cell_length_a 23.626848
_cell_length_b 21.945002
_cell_length_c 8.092977
_cell_angle_alpha 90.000000
_cell_angle_beta 90.000000
_cell_angle_gamma 90.000000
_cell_volume 4196.137572
_symmetry_space_group_name_H-M "I M M M"
_symmetry_group_IT_number 71
_symmetry_cell_setting 'orthorhombic'
loop_
_space_group_symop_operation_xyz
x,y,z
-x,-y,z
x,-y,-z
-x,y,-z
-x,-y,-z
x,y,-z
-x,y,z
x,-y,z
1/2+x,1/2+y,1/2+z
1/2-x,1/2-y,1/2+z
1/2+x,1/2-y,1/2-z
1/2-x,1/2+y,1/2-z
1/2-x,1/2-y,1/2-z
1/2+x,1/2+y,1/2-z
1/2-x,1/2+y,1/2+z
1/2+x,1/2-y,1/2+z
loop_
_atom_site_type_symbol
_atom_site_label
_atom_site_fract_x
_atom_site_fract_y
_atom_site_fract_z
Si Si1 0.164451 0.709372 0.190581
Si Si2 0.562380 0.427672 0.000000
Si Si3 0.632937 0.570727 0.686123
Si Si4 0.721244 0.670170 0.310189
Si Si5 0.063374 0.370148 0.806233
Si Si6 0.433011 0.000000 0.183717
O O1 0.219396 0.666511 0.214906
O O2 0.179959 0.776421 0.263536
O O3 0.108403 0.678334 0.272637
O O4 0.150057 0.715807 0.000000
O O5 0.591292 0.405241 0.170369
O O6 0.559998 0.500000 0.000000
O O7 0.500000 0.399161 0.000000
O O8 0.608126 0.583368 0.500000
O O9 0.646245 0.500000 0.709803
O O10 0.692004 0.605046 0.710082
O O11 0.734254 0.686184 0.500000
O O12 0.087159 0.438307 0.773781
O O13 0.000000 0.360391 0.729090
O O14 0.059553 0.360663 0.000000
O O15 0.500000 0.000000 0.181709
O O16 0.407515 0.000000 0.000000
#
# Coordination Sequence:
#
# PCOD8292780 Si02
#       6
#    16   8  16  16  16   8
#     4   9  18  32  51  74  96 130 173 209 254 306
#     4   9  18  32  52  78 106 138 173 208 256 314
#     4   9  18  33  53  77 106 139 173 215 263 308
#     4   9  18  33  51  73 100 132 170 211 256 306
#     4   9  17  31  50  71  98 130 166 207 250 300
#     4   9  17  29  47  69  95 129 163 197 245 298
#
# _framework density 19.065152000000001
#
# number of rings (size 3 to 8) (size 9 to 14) (size 15 to 20)
#    0.000    3.000    0.000    0.300    1.400    2.400 
#    1.800    3.000    0.000    3.600    0.000    0.000 
#    0.000    0.000    0.000    0.000    0.000    0.000 
#
# Total GULP energy -495589.665959 kJ/mol
# GULP energy per Si atom -12389.741649 kJ/mol
# Density = 1.902176 g / cm^3
# Si number density = 19.065152 Si / 1000 Ang^3
#
#
#
# Elastic Constant Matrix: (Units=GPa)
#
#
# Indices 1 2 3 4 5 6 
#
# 1 116.1969 59.1069 27.9571 0.0000 0.0000 0.0000
# 2 59.1069 71.9138 19.2326 0.0000 0.0000 0.0000
# 3 27.9571 19.2326 61.2235 0.0000 0.0000 0.0000
# 4 0.0000 0.0000 0.0000 14.8267 0.0000 0.0000
# 5 0.0000 0.0000 0.0000 0.0000 22.1894 0.0000
# 6 0.0000 0.0000 0.0000 0.0000 0.0000 28.6501
#
#
#
# Elastic Compliance Matrix: (Units=1/GPa)
#
#
# Indices 1 2 3 4 5 6 
#
# 1 0.015388 -0.011756 -0.003334 0.000000 0.000000 0.000000
# 2 -0.011756 0.024162 -0.002222 0.000000 0.000000 0.000000
# 3 -0.003334 -0.002222 0.018554 0.000000 0.000000 0.000000
# 4 0.000000 0.000000 0.000000 0.067446 0.000000 0.000000
# 5 0.000000 0.000000 0.000000 0.000000 0.045066 0.000000
# 6 0.000000 0.000000 0.000000 0.000000 0.000000 0.034904
#
#
# Mechanical properties :
#
#
# Convention : Reuss Voigt Hill
#
# Bulk Modulus (GPa) = 42.58838 51.32530 46.95684
# Shear Modulus (GPa) = 20.16356 22.66909 21.41632
#
# Velocity S-wave (km/s) = 3.25562 3.45198 3.35524
# Velocity P-wave (km/s) = 6.04309 6.54734 6.30026
#
# Compressibility (1/GPa) = 0.02348058
#
# Stress axis : x y z
#
# Youngs Moduli (GPa) = 64.98393 41.38646 53.89687
#
# Poissons Ratio (x) = 0.48655 0.17968
# Poissons Ratio (y) = 0.76397 0.11975
# Poissons Ratio (z) = 0.21665 0.09196
#
# Static dielectric constant tensor:
#      x y z
#    x 3.658840 0.000000 0.000000 
#    y 0.000000 3.512900 0.000000 
#    z 0.000000 0.000000 3.527970 
# 
# 
# High freq. dielectric constant tensor:
#      x y z
#    x 1.722360 0.000000 0.000000 
#    y 0.000000 1.728980 0.000000 
#    z 0.000000 0.000000 1.733370 
# 
# From -- ./inp_files/10297.got.cif
#   From: 2010.06.25/outbox.cif.g09.slc.cpg/sg71_6_cif.got.tgz:10297.got - 2010.06.28 04:59:45.
