data_PCOD8292707
_publ_section_title
;
Structure prediction by ZEFSAII (Michael W. Deem and Ramdas Pophale) SiO2 
 PCOD8292707
Probable space group: I M M M
;
_chemical_formula_sum "Si O2"
_cell_formula_units_Z 72
_cell_length_a 19.609036
_cell_length_b 21.949341
_cell_length_c 9.693727
_cell_angle_alpha 90.000000
_cell_angle_beta 90.000000
_cell_angle_gamma 90.000000
_cell_volume 4172.232620
_symmetry_space_group_name_H-M "I M M M"
_symmetry_group_IT_number 71
_symmetry_cell_setting 'orthorhombic'
loop_
_space_group_symop_operation_xyz
x,y,z
-x,-y,z
x,-y,-z
-x,y,-z
-x,-y,-z
x,y,-z
-x,y,z
x,-y,z
1/2+x,1/2+y,1/2+z
1/2-x,1/2-y,1/2+z
1/2+x,1/2-y,1/2-z
1/2-x,1/2+y,1/2-z
1/2-x,1/2-y,1/2-z
1/2+x,1/2+y,1/2-z
1/2-x,1/2+y,1/2+z
1/2+x,1/2-y,1/2+z
loop_
_atom_site_type_symbol
_atom_site_label
_atom_site_fract_x
_atom_site_fract_y
_atom_site_fract_z
Si Si1 0.691739 0.664646 0.162721
Si Si2 0.423086 0.430967 0.836411
Si Si3 0.189943 0.696066 0.345362
Si Si4 0.418472 0.000000 0.345724
Si Si5 0.077042 0.395604 0.346473
O O1 0.632335 0.618735 0.217765
O O2 0.761886 0.654911 0.246506
O O3 0.675066 0.734723 0.200917
O O4 0.703885 0.654672 0.000000
O O5 0.500000 0.415023 0.782828
O O6 0.403288 0.500000 0.788240
O O7 0.423565 0.428452 0.000000
O O8 0.220993 0.694311 0.500000
O O9 0.115484 0.667802 0.339390
O O10 0.390648 0.941525 0.264548
O O11 0.500000 0.000000 0.344105
O O12 0.388650 0.000000 0.500000
O O13 0.082202 0.424592 0.500000
O O14 0.000000 0.380245 0.307061
#
# Coordination Sequence:
#
# PCOD8292707 Si02
#       5
#    16  16  16   8  16
#     4   9  17  30  48  68  93 124 155 189 231 278
#     4   8  14  26  46  72  98 120 147 190 238 278
#     4   9  18  31  46  66  93 124 156 192 232 273
#     4   9  17  29  45  65  89 115 144 183 230 273
#     4   9  17  30  47  65  88 120 157 194 231 272
#
# _framework density 17.256947
#
# number of rings (size 3 to 8) (size 9 to 14) (size 15 to 20)
#    0.000    3.222    0.000    1.000    0.000    3.111 
#    2.000    4.444    0.000    0.667    0.000    7.778 
#    0.000    0.000    0.000    0.000    0.000    0.000 
#
# Total GULP energy -445994.601170 kJ/mol
# GULP energy per Si atom -12388.738921 kJ/mol
# Density = 1.721767 g / cm^3
# Si number density = 17.256947 Si / 1000 Ang^3
#
#
#
# Elastic Constant Matrix: (Units=GPa)
#
#
# Indices 1 2 3 4 5 6 
#
# 1 90.2062 63.9474 31.7628 0.0000 0.0000 0.0000
# 2 63.9474 92.8199 29.8473 0.0000 0.0000 0.0000
# 3 31.7628 29.8473 58.5916 0.0000 0.0000 0.0000
# 4 0.0000 0.0000 0.0000 16.9462 0.0000 0.0000
# 5 0.0000 0.0000 0.0000 0.0000 21.8148 0.0000
# 6 0.0000 0.0000 0.0000 0.0000 0.0000 33.5143
#
#
#
# Elastic Compliance Matrix: (Units=1/GPa)
#
#
# Indices 1 2 3 4 5 6 
#
# 1 0.022941 -0.014119 -0.005244 0.000000 0.000000 0.000000
# 2 -0.014119 0.021573 -0.003336 0.000000 0.000000 0.000000
# 3 -0.005244 -0.003336 0.021610 0.000000 0.000000 0.000000
# 4 0.000000 0.000000 0.000000 0.059010 0.000000 0.000000
# 5 0.000000 0.000000 0.000000 0.000000 0.045840 0.000000
# 6 0.000000 0.000000 0.000000 0.000000 0.000000 0.029838
#
#
# Mechanical properties :
#
#
# Convention : Reuss Voigt Hill
#
# Bulk Modulus (GPa) = 48.24796 54.74806 51.49801
# Shear Modulus (GPa) = 19.75358 22.19239 20.97298
#
# Velocity S-wave (km/s) = 3.38697 3.58997 3.48995
# Velocity P-wave (km/s) = 6.58139 6.99843 6.79311
#
# Compressibility (1/GPa) = 0.02072626
#
# Stress axis : x y z
#
# Youngs Moduli (GPa) = 43.59001 46.35389 46.27593
#
# Poissons Ratio (x) = 0.65446 0.24268
# Poissons Ratio (y) = 0.61543 0.15437
# Poissons Ratio (z) = 0.22860 0.15463
#
# Static dielectric constant tensor:
#      x y z
#    x 3.203070 0.000000 0.000000 
#    y 0.000000 3.290320 0.000000 
#    z 0.000000 0.000000 3.172690 
# 
# 
# High freq. dielectric constant tensor:
#      x y z
#    x 1.651340 0.000000 0.000000 
#    y 0.000000 1.665870 0.000000 
#    z 0.000000 0.000000 1.642220 
# 
# From -- ./inp_files/7907.got.cif
#   From: 2010.06.25/outbox.cif.g09.slc.cpg/sg71_4_cif.got.tgz:7907.got - 2010.06.28 04:59:45.
