data_PCOD8292405
_publ_section_title
;
Structure prediction by ZEFSAII (Michael W. Deem and Ramdas Pophale) SiO2 
 PCOD8292405
Probable space group: I M M M
;
_chemical_formula_sum "Si O2"
_cell_formula_units_Z 88
_cell_length_a 11.588782
_cell_length_b 17.747004
_cell_length_c 22.244559
_cell_angle_alpha 90.000000
_cell_angle_beta 90.000000
_cell_angle_gamma 90.000000
_cell_volume 4574.953042
_symmetry_space_group_name_H-M "I M M M"
_symmetry_group_IT_number 71
_symmetry_cell_setting 'orthorhombic'
loop_
_space_group_symop_operation_xyz
x,y,z
-x,-y,z
x,-y,-z
-x,y,-z
-x,-y,-z
x,y,-z
-x,y,z
x,-y,z
1/2+x,1/2+y,1/2+z
1/2-x,1/2-y,1/2+z
1/2+x,1/2-y,1/2-z
1/2-x,1/2+y,1/2-z
1/2-x,1/2-y,1/2-z
1/2+x,1/2+y,1/2-z
1/2-x,1/2+y,1/2+z
1/2+x,1/2-y,1/2+z
loop_
_atom_site_type_symbol
_atom_site_label
_atom_site_fract_x
_atom_site_fract_y
_atom_site_fract_z
Si Si1 0.368791 0.087860 0.845350
Si Si2 0.637644 0.173999 0.383610
Si Si3 0.500000 0.587542 0.603520
Si Si4 0.239619 0.161254 0.263475
Si Si5 0.363074 0.916403 0.500000
Si Si6 0.720290 0.327096 0.431822
Si Si7 0.000000 0.909604 0.756014
O O1 0.500000 0.107954 0.829813
O O2 0.288492 0.112764 0.791048
O O3 0.332801 0.131493 0.905783
O O4 0.350262 0.000000 0.856908
O O5 0.500000 0.179612 0.380415
O O6 0.686847 0.139023 0.322345
O O7 0.680203 0.124504 0.439868
O O8 0.692323 0.255911 0.390505
O O9 0.500000 0.500000 0.594380
O O10 0.611711 0.618028 0.569954
O O11 0.500000 0.609236 0.673504
O O12 0.250000 0.250000 0.250000
O O13 0.109301 0.132545 0.273817
O O14 0.500000 0.918241 0.500000
O O15 0.310628 0.000000 0.500000
O O16 0.745361 0.302317 0.500000
O O17 0.000000 0.000000 0.743489
#
# Coordination Sequence:
#
# PCOD8292405 Si02
#       7
#    16  16   8  16   8  16   8
#     4  11  25  43  62  89 129 168 210 262 315 375
#     4  11  22  39  64  94 126 160 203 258 315 369
#     4  11  21  36  59  90 125 160 202 252 309 375
#     4  12  24  38  67  95 125 164 216 260 317 379
#     4   9  20  38  62  91 123 156 195 246 307 366
#     4  12  23  38  63  91 125 166 209 254 310 376
#     4  11  24  43  64  92 133 169 204 264 332 386
#
# _framework density 19.235171000000001
#
# number of rings (size 3 to 8) (size 9 to 14) (size 15 to 20)
#    0.000    0.818    5.455    1.909    2.545    3.636 
#    0.000    2.727    0.000    0.545    0.000    1.273 
#    0.000    0.000    0.000    0.000    0.000    0.000 
#
# Total GULP energy -545767.528591 kJ/mol
# GULP energy per Si atom -12403.807468 kJ/mol
# Density = 1.919139 g / cm^3
# Si number density = 19.235171 Si / 1000 Ang^3
#
#
#
# Elastic Constant Matrix: (Units=GPa)
#
#
# Indices 1 2 3 4 5 6 
#
# 1 96.7699 45.3013 24.5745 0.0000 0.0000 0.0000
# 2 45.3013 93.1853 18.5056 0.0000 0.0000 0.0000
# 3 24.5745 18.5056 95.7614 0.0000 0.0000 0.0000
# 4 0.0000 0.0000 0.0000 23.1167 0.0000 0.0000
# 5 0.0000 0.0000 0.0000 0.0000 33.2741 0.0000
# 6 0.0000 0.0000 0.0000 0.0000 0.0000 30.7674
#
#
#
# Elastic Compliance Matrix: (Units=1/GPa)
#
#
# Indices 1 2 3 4 5 6 
#
# 1 0.013867 -0.006276 -0.002346 0.000000 0.000000 0.000000
# 2 -0.006276 0.014000 -0.001095 0.000000 0.000000 0.000000
# 3 -0.002346 -0.001095 0.011256 0.000000 0.000000 0.000000
# 4 0.000000 0.000000 0.000000 0.043259 0.000000 0.000000
# 5 0.000000 0.000000 0.000000 0.000000 0.030053 0.000000
# 6 0.000000 0.000000 0.000000 0.000000 0.000000 0.032502
#
#
# Mechanical properties :
#
#
# Convention : Reuss Voigt Hill
#
# Bulk Modulus (GPa) = 50.78658 51.38660 51.08659
# Shear Modulus (GPa) = 29.25108 30.58730 29.91919
#
# Velocity S-wave (km/s) = 3.90386 3.99203 3.94819
# Velocity P-wave (km/s) = 6.83962 6.92974 6.88483
#
# Compressibility (1/GPa) = 0.01969024
#
# Stress axis : x y z
#
# Youngs Moduli (GPa) = 72.11168 71.43062 88.83971
#
# Poissons Ratio (x) = 0.44827 0.20841
# Poissons Ratio (y) = 0.45255 0.09727
# Poissons Ratio (z) = 0.16917 0.07821
#
# Static dielectric constant tensor:
#      x y z
#    x 3.579900 0.000000 0.000000 
#    y 0.000000 3.634410 0.000000 
#    z 0.000000 0.000000 3.590120 
# 
# 
# High freq. dielectric constant tensor:
#      x y z
#    x 1.737370 0.000000 0.000000 
#    y 0.000000 1.757500 0.000000 
#    z 0.000000 0.000000 1.752390 
# 
# From -- ./inp_files/51815.got.cif
#   From: 2010.06.25/outbox.cif.g09.slc.cpg/sg71_26_cif.got.tgz:51815.got - 2010.06.28 04:59:45.
