data_PCOD8292887
_publ_section_title
;
Structure prediction by ZEFSAII (Michael W. Deem and Ramdas Pophale) SiO2 
 PCOD8292887
Probable space group: I B A M
;
_chemical_formula_sum "Si O2"
_cell_formula_units_Z 112
_cell_length_a 24.270186
_cell_length_b 12.806201
_cell_length_c 18.857732
_cell_angle_alpha 90.000000
_cell_angle_beta 90.000000
_cell_angle_gamma 90.000000
_cell_volume 5861.150566
_symmetry_space_group_name_H-M "I B A M"
_symmetry_group_IT_number 72
_symmetry_cell_setting 'orthorhombic'
loop_
_space_group_symop_operation_xyz
x,y,z
-x,-y,z
x,-y,1/2-z
-x,y,1/2-z
-x,-y,-z
x,y,-z
-x,y,1/2+z
x,-y,1/2+z
1/2+x,1/2+y,1/2+z
1/2-x,1/2-y,1/2+z
1/2+x,1/2-y,-z
1/2-x,1/2+y,-z
1/2-x,1/2-y,1/2-z
1/2+x,1/2+y,1/2-z
1/2-x,1/2+y,z
1/2+x,1/2-y,z
loop_
_atom_site_type_symbol
_atom_site_label
_atom_site_fract_x
_atom_site_fract_y
_atom_site_fract_z
Si Si1 0.350902 0.362790 0.079934
Si Si2 0.724514 0.130591 0.919012
Si Si3 0.362715 0.445656 0.678507
Si Si4 0.060972 0.484859 0.166086
Si Si5 0.125245 0.283473 0.832677
Si Si6 0.736913 0.056765 0.679480
Si Si7 0.865193 0.324832 0.831276
O O1 0.287072 0.328711 0.084079
O O2 0.364936 0.474612 0.113689
O O3 0.383955 0.273353 0.121627
O O4 0.372361 0.368395 0.000000
O O5 0.684404 0.201262 0.870697
O O6 0.727828 0.013911 0.889407
O O7 0.702694 0.129885 0.000000
O O8 0.386957 0.500000 0.750000
O O9 0.393819 0.337874 0.656132
O O10 0.299713 0.411079 0.694305
O O11 0.058679 0.500000 0.250000
O O12 0.082474 0.371247 0.138836
O O13 0.102374 0.574406 0.138416
O O14 0.000000 0.500000 0.133634
O O15 0.123549 0.298829 0.749348
O O16 0.700652 0.158316 0.663886
O O17 0.712786 0.000000 0.750000
#
# Coordination Sequence:
#
# PCOD8292887 Si02
#       7
#    16  16  16  16  16  16  16
#     4  10  22  35  49  77 114 149 179 218 268 319
#     4  10  20  32  47  76 113 145 183 221 265 323
#     4  10  20  31  50  78 108 143 183 221 253 318
#     4   9  19  35  57  86 110 133 174 236 290 321
#     4  11  19  33  56  78 105 143 184 225 273 322
#     4  10  17  29  48  75 107 143 180 222 263 315
#     4  11  18  32  56  79 104 142 185 223 269 325
#
# _framework density 19.108875999999999
#
# number of rings (size 3 to 8) (size 9 to 14) (size 15 to 20)
#    0.000    1.857    4.286    1.286    0.000    2.286 
#    0.000    2.857    0.000    2.571    0.000    1.000 
#    0.000    0.000    0.000    0.000    0.000    0.000 
#
# Total GULP energy -693972.652406 kJ/mol
# GULP energy per Si atom -12392.368793 kJ/mol
# Density = 1.906538 g / cm^3
# Si number density = 19.108876 Si / 1000 Ang^3
#
#
#
# Elastic Constant Matrix: (Units=GPa)
#
#
# Indices 1 2 3 4 5 6 
#
# 1 44.5221 34.8813 14.4706 0.0000 0.0000 0.0000
# 2 34.8813 147.4845 40.5531 0.0000 0.0000 0.0000
# 3 14.4706 40.5531 95.5796 0.0000 0.0000 0.0000
# 4 0.0000 0.0000 0.0000 22.7382 0.0000 0.0000
# 5 0.0000 0.0000 0.0000 0.0000 6.9742 0.0000
# 6 0.0000 0.0000 0.0000 0.0000 0.0000 13.1288
#
#
#
# Elastic Compliance Matrix: (Units=1/GPa)
#
#
# Indices 1 2 3 4 5 6 
#
# 1 0.027785 -0.006130 -0.001606 0.000000 0.000000 0.000000
# 2 -0.006130 0.009028 -0.002902 0.000000 0.000000 0.000000
# 3 -0.001606 -0.002902 0.011937 0.000000 0.000000 0.000000
# 4 0.000000 0.000000 0.000000 0.043979 0.000000 0.000000
# 5 0.000000 0.000000 0.000000 0.000000 0.143386 0.000000
# 6 0.000000 0.000000 0.000000 0.000000 0.000000 0.076168
#
#
# Mechanical properties :
#
#
# Convention : Reuss Voigt Hill
#
# Bulk Modulus (GPa) = 36.39791 51.93291 44.16541
# Shear Modulus (GPa) = 14.58925 21.74699 18.16812
#
# Velocity S-wave (km/s) = 2.76611 3.37717 3.08680
# Velocity P-wave (km/s) = 5.41210 6.51486 5.98892
#
# Compressibility (1/GPa) = 0.02747411
#
# Stress axis : x y z
#
# Youngs Moduli (GPa) = 35.99044 110.76381 83.77252
#
# Poissons Ratio (x) = 0.67897 0.13452
# Poissons Ratio (y) = 0.22062 0.24315
# Poissons Ratio (z) = 0.05779 0.32149
#
# Static dielectric constant tensor:
#      x y z
#    x 3.259430 0.000000 0.000000 
#    y 0.000000 3.675630 0.000000 
#    z 0.000000 0.000000 3.336820 
# 
# 
# High freq. dielectric constant tensor:
#      x y z
#    x 1.690040 0.000000 0.000000 
#    y 0.000000 1.753520 0.000000 
#    z 0.000000 0.000000 1.723130 
# 
# From -- ./inp_files/40872.got.cif
#   From: 2010.03.12/outbox.cif.g09.slc.cpg/sg72_21_cif.got.tgz:40872.got - 2010.04.16 14:54:00.
