data_PCOD8292971
_publ_section_title
;
Structure prediction by ZEFSAII (Michael W. Deem and Ramdas Pophale) SiO2 
 PCOD8292971
Probable space group: I B A M
;
_chemical_formula_sum "Si O2"
_cell_formula_units_Z 128
_cell_length_a 20.702827
_cell_length_b 17.467317
_cell_length_c 20.534770
_cell_angle_alpha 90.000000
_cell_angle_beta 90.000000
_cell_angle_gamma 90.000000
_cell_volume 7425.841887
_symmetry_space_group_name_H-M "I B A M"
_symmetry_group_IT_number 72
_symmetry_cell_setting 'orthorhombic'
loop_
_space_group_symop_operation_xyz
x,y,z
-x,-y,z
x,-y,1/2-z
-x,y,1/2-z
-x,-y,-z
x,y,-z
-x,y,1/2+z
x,-y,1/2+z
1/2+x,1/2+y,1/2+z
1/2-x,1/2-y,1/2+z
1/2+x,1/2-y,-z
1/2-x,1/2+y,-z
1/2-x,1/2-y,1/2-z
1/2+x,1/2+y,1/2-z
1/2-x,1/2+y,z
1/2+x,1/2-y,z
loop_
_atom_site_type_symbol
_atom_site_label
_atom_site_fract_x
_atom_site_fract_y
_atom_site_fract_z
Si Si1 0.130108 0.334861 0.175075
Si Si2 0.498575 0.755031 0.326052
Si Si3 0.803117 0.040637 0.313046
Si Si4 0.504320 0.376338 0.427376
Si Si5 0.366788 0.837105 0.329678
Si Si6 0.656339 0.000051 0.177538
Si Si7 0.605616 0.501441 0.072146
Si Si8 0.732068 0.713912 0.317988
O O1 0.056673 0.312930 0.159222
O O2 0.142035 0.341312 0.252035
O O3 0.139766 0.419010 0.142654
O O4 0.181568 0.272219 0.146359
O O5 0.500000 0.731386 0.250000
O O6 0.509795 0.682144 0.370159
O O7 0.430697 0.791355 0.348753
O O8 0.732679 0.006186 0.319588
O O9 0.803681 0.132654 0.306847
O O10 0.836057 0.000000 0.250000
O O11 0.838865 0.013833 0.377146
O O12 0.502916 0.338790 0.500000
O O13 0.573747 0.415569 0.415511
O O14 0.449058 0.438429 0.421623
O O15 0.372364 0.924162 0.358174
O O16 0.300222 0.797923 0.357325
O O17 0.626211 0.000000 0.250000
O O18 0.636485 0.498815 0.000000
O O19 0.750000 0.750000 0.250000
#
# Coordination Sequence:
#
# PCOD8292971 Si02
#       8
#    16  16  16  16  16  16  16  16
#     4   9  16  26  42  65  94 125 155 193 239 282
#     4  10  19  29  47  75  96 115 155 211 246 264
#     4  10  18  28  48  74  94 123 163 197 234 287
#     4   9  19  35  49  63  92 131 160 185 235 304
#     4   8  16  27  40  63  97 126 151 191 240 284
#     4   8  15  28  43  65  96 128 156 183 233 296
#     4   9  19  34  49  66  93 129 162 194 237 288
#     4   9  16  27  42  65  99 130 151 188 246 294
#
# _framework density 17.237102
#
# number of rings (size 3 to 8) (size 9 to 14) (size 15 to 20)
#    0.000    3.000    0.000    3.750    0.000    5.500 
#    0.000    3.750    0.000    3.750    0.000   10.500 
#    0.000    0.000    0.000    0.000    0.000    0.000 
#
# Total GULP energy -792908.771870 kJ/mol
# GULP energy per Si atom -12389.199560 kJ/mol
# Density = 1.719787 g / cm^3
# Si number density = 17.237102 Si / 1000 Ang^3
#
#
#
# Elastic Constant Matrix: (Units=GPa)
#
#
# Indices 1 2 3 4 5 6 
#
# 1 63.4098 30.8611 17.6486 0.0000 0.0000 0.0000
# 2 30.8611 111.6185 31.4957 0.0000 0.0000 0.0000
# 3 17.6486 31.4957 57.6679 0.0000 0.0000 0.0000
# 4 0.0000 0.0000 0.0000 8.6095 0.0000 0.0000
# 5 0.0000 0.0000 0.0000 0.0000 11.9720 0.0000
# 6 0.0000 0.0000 0.0000 0.0000 0.0000 18.6772
#
#
#
# Elastic Compliance Matrix: (Units=1/GPa)
#
#
# Indices 1 2 3 4 5 6 
#
# 1 0.018783 -0.004222 -0.003443 0.000000 0.000000 0.000000
# 2 -0.004222 0.011540 -0.005011 0.000000 0.000000 0.000000
# 3 -0.003443 -0.005011 0.021131 0.000000 0.000000 0.000000
# 4 0.000000 0.000000 0.000000 0.116151 0.000000 0.000000
# 5 0.000000 0.000000 0.000000 0.000000 0.083528 0.000000
# 6 0.000000 0.000000 0.000000 0.000000 0.000000 0.053541
#
#
# Mechanical properties :
#
#
# Convention : Reuss Voigt Hill
#
# Bulk Modulus (GPa) = 38.30829 43.63411 40.97120
# Shear Modulus (GPa) = 14.76118 18.03113 16.39615
#
# Velocity S-wave (km/s) = 2.92954 3.23780 3.08752
# Velocity P-wave (km/s) = 5.80650 6.27270 6.04410
#
# Compressibility (1/GPa) = 0.02610401
#
# Stress axis : x y z
#
# Youngs Moduli (GPa) = 53.23846 86.65284 47.32413
#
# Poissons Ratio (x) = 0.36585 0.16292
# Poissons Ratio (y) = 0.22477 0.23713
# Poissons Ratio (z) = 0.18328 0.43419
#
# Static dielectric constant tensor:
#      x y z
#    x 3.496380 0.000000 0.000000 
#    y 0.000000 3.562940 0.000000 
#    z 0.000000 0.000000 3.361260 
# 
# 
# High freq. dielectric constant tensor:
#      x y z
#    x 1.668320 0.000000 0.000000 
#    y 0.000000 1.678410 0.000000 
#    z 0.000000 0.000000 1.600510 
# 
# From -- ./inp_files/39946.got.cif
#   From: 2010.03.12/outbox.cif.g09.slc.cpg/sg72_20_cif.got.tgz:39946.got - 2010.04.16 14:54:00.
