data_PCOD8292147
_publ_section_title
;
Structure prediction by ZEFSAII (Michael W. Deem and Ramdas Pophale) SiO2 
 PCOD8292147
Probable space group: I M M M
;
_chemical_formula_sum "Si O2"
_cell_formula_units_Z 72
_cell_length_a 27.319907
_cell_length_b 14.546365
_cell_length_c 8.718413
_cell_angle_alpha 90.000000
_cell_angle_beta 90.000000
_cell_angle_gamma 90.000000
_cell_volume 3464.743874
_symmetry_space_group_name_H-M "I M M M"
_symmetry_group_IT_number 71
_symmetry_cell_setting 'orthorhombic'
loop_
_space_group_symop_operation_xyz
x,y,z
-x,-y,z
x,-y,-z
-x,y,-z
-x,-y,-z
x,y,-z
-x,y,z
x,-y,z
1/2+x,1/2+y,1/2+z
1/2-x,1/2-y,1/2+z
1/2+x,1/2-y,1/2-z
1/2-x,1/2+y,1/2-z
1/2-x,1/2-y,1/2-z
1/2+x,1/2+y,1/2-z
1/2-x,1/2+y,1/2+z
1/2+x,1/2-y,1/2+z
loop_
_atom_site_type_symbol
_atom_site_label
_atom_site_fract_x
_atom_site_fract_y
_atom_site_fract_z
Si Si1 0.135914 0.603143 0.176528
Si Si2 0.088182 0.213066 0.176698
Si Si3 0.330689 0.600366 0.826995
Si Si4 0.237326 0.652104 0.319149
Si Si5 0.500000 0.604154 0.820205
O O1 0.115287 0.500000 0.205967
O O2 0.093123 0.677682 0.214321
O O3 0.182771 0.619449 0.282250
O O4 0.152174 0.615910 0.000000
O O5 0.140399 0.169038 0.216686
O O6 0.047083 0.163201 0.275055
O O7 0.075260 0.196706 0.000000
O O8 0.356247 0.500000 0.828877
O O9 0.276384 0.584835 0.760297
O O10 0.329168 0.641073 0.000000
O O11 0.244446 0.651600 0.500000
O O12 0.250000 0.750000 0.250000
O O13 0.500000 0.500000 0.748391
O O14 0.500000 0.593555 0.000000
#
# Coordination Sequence:
#
# PCOD8292147 Si02
#       5
#    16  16  16  16   8
#     4  10  22  41  63  89 124 165 206 252 308 364
#     4  11  23  40  65  93 121 157 202 253 304 365
#     4  11  23  38  58  86 123 164 202 248 307 366
#     4  12  23  36  57  86 122 165 211 257 304 356
#     4  11  25  45  68  93 124 160 195 245 314 375
#
# _framework density 20.780757000000001
#
# number of rings (size 3 to 8) (size 9 to 14) (size 15 to 20)
#    0.000    1.000    2.222    5.000    0.000    9.333 
#    0.000    0.556    0.000    3.333    0.000    0.000 
#    0.000    0.000    0.000    0.000    0.000    0.000 
#
# Total GULP energy -446353.586213 kJ/mol
# GULP energy per Si atom -12398.710728 kJ/mol
# Density = 2.073346 g / cm^3
# Si number density = 20.780757 Si / 1000 Ang^3
#
#
#
# Elastic Constant Matrix: (Units=GPa)
#
#
# Indices 1 2 3 4 5 6 
#
# 1 87.6713 48.5045 26.1906 0.0000 0.0000 0.0000
# 2 48.5045 159.7097 41.5214 0.0000 0.0000 0.0000
# 3 26.1906 41.5214 91.5895 0.0000 0.0000 0.0000
# 4 0.0000 0.0000 0.0000 24.6105 0.0000 0.0000
# 5 0.0000 0.0000 0.0000 0.0000 36.3567 0.0000
# 6 0.0000 0.0000 0.0000 0.0000 0.0000 29.1239
#
#
#
# Elastic Compliance Matrix: (Units=1/GPa)
#
#
# Indices 1 2 3 4 5 6 
#
# 1 0.014153 -0.003680 -0.002379 0.000000 0.000000 0.000000
# 2 -0.003680 0.008055 -0.002599 0.000000 0.000000 0.000000
# 3 -0.002379 -0.002599 0.012777 0.000000 0.000000 0.000000
# 4 0.000000 0.000000 0.000000 0.040633 0.000000 0.000000
# 5 0.000000 0.000000 0.000000 0.000000 0.027505 0.000000
# 6 0.000000 0.000000 0.000000 0.000000 0.000000 0.034336
#
#
# Mechanical properties :
#
#
# Convention : Reuss Voigt Hill
#
# Bulk Modulus (GPa) = 56.59797 63.48929 60.04363
# Shear Modulus (GPa) = 31.12083 32.86848 31.99466
#
# Velocity S-wave (km/s) = 3.87406 3.98135 3.92807
# Velocity P-wave (km/s) = 6.87793 7.19396 7.03772
#
# Compressibility (1/GPa) = 0.01766848
#
# Stress axis : x y z
#
# Youngs Moduli (GPa) = 70.65764 124.15120 78.26632
#
# Poissons Ratio (x) = 0.45685 0.18618
# Poissons Ratio (y) = 0.26001 0.20344
# Poissons Ratio (z) = 0.16808 0.32270
#
# Static dielectric constant tensor:
#      x y z
#    x 3.624790 0.000000 0.000000 
#    y 0.000000 4.147040 0.000000 
#    z 0.000000 0.000000 3.761330 
# 
# 
# High freq. dielectric constant tensor:
#      x y z
#    x 1.787150 0.000000 0.000000 
#    y 0.000000 1.833660 0.000000 
#    z 0.000000 0.000000 1.818470 
# 
# From -- ./inp_files/6024.got.cif
#   From: 2010.06.25/outbox.cif.g09.slc.cpg/sg71_4_cif.got.tgz:6024.got - 2010.06.28 04:59:45.
