data_PCOD8292888
_publ_section_title
;
Structure prediction by ZEFSAII (Michael W. Deem and Ramdas Pophale) SiO2 
 PCOD8292888
Probable space group: I B A M
;
_chemical_formula_sum "Si O2"
_cell_formula_units_Z 116
_cell_length_a 27.367155
_cell_length_b 26.554688
_cell_length_c 9.338510
_cell_angle_alpha 90.000000
_cell_angle_beta 90.000000
_cell_angle_gamma 90.000000
_cell_volume 6786.540469
_symmetry_space_group_name_H-M "I B A M"
_symmetry_group_IT_number 72
_symmetry_cell_setting 'orthorhombic'
loop_
_space_group_symop_operation_xyz
x,y,z
-x,-y,z
x,-y,1/2-z
-x,y,1/2-z
-x,-y,-z
x,y,-z
-x,y,1/2+z
x,-y,1/2+z
1/2+x,1/2+y,1/2+z
1/2-x,1/2-y,1/2+z
1/2+x,1/2-y,-z
1/2-x,1/2+y,-z
1/2-x,1/2-y,1/2-z
1/2+x,1/2+y,1/2-z
1/2-x,1/2+y,z
1/2+x,1/2-y,z
loop_
_atom_site_type_symbol
_atom_site_label
_atom_site_fract_x
_atom_site_fract_y
_atom_site_fract_z
Si Si1 0.132074 0.757250 0.160264
Si Si2 0.048902 0.686117 0.829064
Si Si3 0.290569 0.174541 0.836763
Si Si4 0.722395 0.452844 0.336422
Si Si5 0.804755 0.843649 0.329936
Si Si6 0.500000 0.000000 0.750000
Si Si7 0.670322 0.915678 0.667815
Si Si8 0.080012 0.425405 0.660416
O O1 0.089061 0.725548 0.236034
O O2 0.183375 0.728197 0.164697
O O3 0.145776 0.813585 0.218578
O O4 0.113015 0.763728 0.000000
O O5 0.062624 0.629288 0.784716
O O6 0.000000 0.702388 0.750000
O O7 0.042972 0.689424 0.000000
O O8 0.239833 0.180728 0.755481
O O9 0.326313 0.136454 0.753772
O O10 0.282397 0.155738 0.000000
O O11 0.701380 0.500000 0.250000
O O12 0.713123 0.465489 0.500000
O O13 0.692231 0.402849 0.291044
O O14 0.780047 0.446527 0.304817
O O15 0.794725 0.837350 0.500000
O O16 0.534777 0.964140 0.844024
O O17 0.662434 0.905561 0.500000
O O18 0.623158 0.944677 0.733090
O O19 0.101344 0.421536 0.500000
#
# Coordination Sequence:
#
# PCOD8292888 Si02
#       8
#    16  16  16  16  16   4  16  16
#     4   9  17  31  51  71  97 129 159 195 247 299
#     4  10  20  37  55  73  95 126 163 205 254 305
#     4  10  17  29  49  74 100 129 159 195 243 297
#     4   9  19  33  48  69  96 128 161 193 233 281
#     4   9  18  32  48  71 100 129 162 198 235 291
#     4  12  26  40  52  74  94 124 164 226 276 300
#     4  10  21  35  51  71  94 125 166 208 249 296
#     4  11  23  39  55  70  92 123 167 215 262 306
#
# _framework density 17.092656999999999
#
# number of rings (size 3 to 8) (size 9 to 14) (size 15 to 20)
#    0.000    2.207    2.069    2.276    0.966    4.414 
#    0.000    1.379    0.000    0.000    0.000    0.000 
#    0.000    0.552    0.000    6.897    0.000    0.000 
#
# Total GULP energy -718749.392221 kJ/mol
# GULP energy per Si atom -12392.230900 kJ/mol
# Density = 1.705375 g / cm^3
# Si number density = 17.092657 Si / 1000 Ang^3
#
#
#
# Elastic Constant Matrix: (Units=GPa)
#
#
# Indices 1 2 3 4 5 6 
#
# 1 71.5608 59.1523 23.8306 0.0000 0.0000 0.0000
# 2 59.1523 114.5336 33.1958 0.0000 0.0000 0.0000
# 3 23.8306 33.1958 57.6829 0.0000 0.0000 0.0000
# 4 0.0000 0.0000 0.0000 20.9541 0.0000 0.0000
# 5 0.0000 0.0000 0.0000 0.0000 16.1240 0.0000
# 6 0.0000 0.0000 0.0000 0.0000 0.0000 27.1720
#
#
#
# Elastic Compliance Matrix: (Units=1/GPa)
#
#
# Indices 1 2 3 4 5 6 
#
# 1 0.024950 -0.011880 -0.003471 0.000000 0.000000 0.000000
# 2 -0.011880 0.016135 -0.004378 0.000000 0.000000 0.000000
# 3 -0.003471 -0.004378 0.021289 0.000000 0.000000 0.000000
# 4 0.000000 0.000000 0.000000 0.047723 0.000000 0.000000
# 5 0.000000 0.000000 0.000000 0.000000 0.062019 0.000000
# 6 0.000000 0.000000 0.000000 0.000000 0.000000 0.036803
#
#
# Mechanical properties :
#
#
# Convention : Reuss Voigt Hill
#
# Bulk Modulus (GPa) = 43.63431 52.90386 48.26908
# Shear Modulus (GPa) = 19.53006 21.35659 20.44332
#
# Velocity S-wave (km/s) = 3.38390 3.53860 3.46212
# Velocity P-wave (km/s) = 6.39150 6.90754 6.65452
#
# Compressibility (1/GPa) = 0.02291774
#
# Stress axis : x y z
#
# Youngs Moduli (GPa) = 40.08074 61.97616 46.97153
#
# Poissons Ratio (x) = 0.73625 0.16304
# Poissons Ratio (y) = 0.47614 0.20563
# Poissons Ratio (z) = 0.13912 0.27132
#
# Static dielectric constant tensor:
#      x y z
#    x 3.072620 0.000000 0.000000 
#    y 0.000000 3.255510 0.000000 
#    z 0.000000 0.000000 3.085660 
# 
# 
# High freq. dielectric constant tensor:
#      x y z
#    x 1.625970 0.000000 0.000000 
#    y 0.000000 1.654410 0.000000 
#    z 0.000000 0.000000 1.651260 
# 
# From -- ./inp_files/7547.got.cif
#   From: 2010.03.12/outbox.cif.g09.slc.cpg/sg72_4_cif.got.tgz:7547.got - 2010.04.16 14:54:00.
