data_PCOD8292527
_publ_section_title
;
Structure prediction by ZEFSAII (Michael W. Deem and Ramdas Pophale) SiO2 
 PCOD8292527
Probable space group: I M M M
;
_chemical_formula_sum "Si O2"
_cell_formula_units_Z 64
_cell_length_a 20.828575
_cell_length_b 18.189038
_cell_length_c 9.137101
_cell_angle_alpha 90.000000
_cell_angle_beta 90.000000
_cell_angle_gamma 90.000000
_cell_volume 3461.606632
_symmetry_space_group_name_H-M "I M M M"
_symmetry_group_IT_number 71
_symmetry_cell_setting 'orthorhombic'
loop_
_space_group_symop_operation_xyz
x,y,z
-x,-y,z
x,-y,-z
-x,y,-z
-x,-y,-z
x,y,-z
-x,y,z
x,-y,z
1/2+x,1/2+y,1/2+z
1/2-x,1/2-y,1/2+z
1/2+x,1/2-y,1/2-z
1/2-x,1/2+y,1/2-z
1/2-x,1/2-y,1/2-z
1/2+x,1/2+y,1/2-z
1/2-x,1/2+y,1/2+z
1/2+x,1/2-y,1/2+z
loop_
_atom_site_type_symbol
_atom_site_label
_atom_site_fract_x
_atom_site_fract_y
_atom_site_fract_z
Si Si1 0.638960 0.912258 0.167671
Si Si2 0.751044 0.327710 0.172709
Si Si3 0.375068 0.415519 0.170565
Si Si4 0.500000 0.587489 0.334700
Si Si5 0.500000 0.079927 0.172496
O O1 0.688704 0.875209 0.276165
O O2 0.567692 0.880885 0.213538
O O3 0.641037 0.000000 0.186193
O O4 0.654999 0.890474 0.000000
O O5 0.750000 0.250000 0.250000
O O6 0.686802 0.370088 0.219360
O O7 0.755300 0.316804 0.000000
O O8 0.362295 0.500000 0.213733
O O9 0.436336 0.382429 0.255320
O O10 0.389723 0.407507 0.000000
O O11 0.500000 0.500000 0.325449
O O12 0.500000 0.616523 0.500000
O O13 0.500000 0.000000 0.248849
O O14 0.500000 0.068056 0.000000
#
# Coordination Sequence:
#
# PCOD8292527 Si02
#       5
#    16  16  16   8   8
#     4   9  17  32  56  82 106 135 172 212 254 303
#     4  11  23  37  52  73 104 140 178 217 258 305
#     4   9  18  34  55  76 100 133 170 207 252 309
#     4   9  17  29  50  81 108 127 157 207 258 301
#     4   7  12  26  50  79 106 131 163 203 248 303
#
# _framework density 18.488524999999999
#
# number of rings (size 3 to 8) (size 9 to 14) (size 15 to 20)
#    0.000    2.750    0.000    3.375    0.000    5.000 
#    0.000    4.375    0.000    5.250    0.000    0.000 
#    0.000    0.000    0.000    0.000    0.000    0.000 
#
# Total GULP energy -396619.907443 kJ/mol
# GULP energy per Si atom -12394.372108 kJ/mol
# Density = 1.844644 g / cm^3
# Si number density = 18.488525 Si / 1000 Ang^3
#
#
#
# Elastic Constant Matrix: (Units=GPa)
#
#
# Indices 1 2 3 4 5 6 
#
# 1 200.1101 61.0176 76.1634 0.0000 0.0000 0.0000
# 2 61.0176 64.3104 39.2171 0.0000 0.0000 0.0000
# 3 76.1634 39.2171 74.1280 0.0000 0.0000 0.0000
# 4 0.0000 0.0000 0.0000 26.1346 0.0000 0.0000
# 5 0.0000 0.0000 0.0000 0.0000 36.4434 0.0000
# 6 0.0000 0.0000 0.0000 0.0000 0.0000 -3.4948
#
#
#
# Elastic Compliance Matrix: (Units=1/GPa)
#
#
# Indices 1 2 3 4 5 6 
#
# 1 0.008929 -0.004248 -0.006927 0.000000 0.000000 0.000000
# 2 -0.004248 0.024976 -0.008849 0.000000 0.000000 0.000000
# 3 -0.006927 -0.008849 0.025289 0.000000 0.000000 0.000000
# 4 0.000000 0.000000 0.000000 0.038263 0.000000 0.000000
# 5 0.000000 0.000000 0.000000 0.000000 0.027440 0.000000
# 6 0.000000 0.000000 0.000000 0.000000 0.000000 -0.286143
#
#
# Mechanical properties :
#
#
# Convention : Reuss Voigt Hill
#
# Bulk Modulus (GPa) = 52.22913 76.81607 64.52260
# Shear Modulus (GPa) = -43.54766 22.62668 -10.46049
#
# Velocity S-wave (km/s) = -4.85850 3.50211 -2.38120
# Velocity P-wave (km/s) = 1.77836 7.61520 5.23587
#
# Compressibility (1/GPa) = 0.01914640
#
# Stress axis : x y z
#
# Youngs Moduli (GPa) = 111.99687 40.03832 39.54312
#
# Poissons Ratio (x) = 0.17007 0.27391
# Poissons Ratio (y) = 0.47572 0.34993
# Poissons Ratio (z) = 0.77578 0.35431
#
# Static dielectric constant tensor:
#      x y z
#    x 3.874760 0.000000 0.000000 
#    y 0.000000 3.078570 0.000000 
#    z 0.000000 0.000000 3.286410 
# 
# 
# High freq. dielectric constant tensor:
#      x y z
#    x 1.741160 0.000000 0.000000 
#    y 0.000000 1.681750 0.000000 
#    z 0.000000 0.000000 1.704090 
# 
# From -- ./inp_files/7519.got.cif
#   From: 2010.06.25/outbox.cif.g09.slc.cpg/sg71_4_cif.got.tgz:7519.got - 2010.06.28 04:59:45.
