data_PCOD8292348
_publ_section_title
;
Structure prediction by ZEFSAII (Michael W. Deem and Ramdas Pophale) SiO2 
 PCOD8292348
Probable space group: I M M M
;
_chemical_formula_sum "Si O2"
_cell_formula_units_Z 104
_cell_length_a 9.121364
_cell_length_b 23.914436
_cell_length_c 28.349289
_cell_angle_alpha 90.000000
_cell_angle_beta 90.000000
_cell_angle_gamma 90.000000
_cell_volume 6183.894922
_symmetry_space_group_name_H-M "I M M M"
_symmetry_group_IT_number 71
_symmetry_cell_setting 'orthorhombic'
loop_
_space_group_symop_operation_xyz
x,y,z
-x,-y,z
x,-y,-z
-x,y,-z
-x,-y,-z
x,y,-z
-x,y,z
x,-y,z
1/2+x,1/2+y,1/2+z
1/2-x,1/2-y,1/2+z
1/2+x,1/2-y,1/2-z
1/2-x,1/2+y,1/2-z
1/2-x,1/2-y,1/2-z
1/2+x,1/2+y,1/2-z
1/2-x,1/2+y,1/2+z
1/2+x,1/2-y,1/2+z
loop_
_atom_site_type_symbol
_atom_site_label
_atom_site_fract_x
_atom_site_fract_y
_atom_site_fract_z
Si Si1 0.825751 0.356431 0.052049
Si Si2 0.170162 0.435860 0.680715
Si Si3 0.332309 0.730791 0.444816
Si Si4 0.668851 0.433959 0.500000
Si Si5 0.834749 0.066479 0.727385
Si Si6 0.672391 0.874357 0.914977
Si Si7 0.172595 0.435553 0.865477
O O1 0.776578 0.293646 0.065586
O O2 0.765516 0.400298 0.090282
O O3 0.000000 0.358274 0.050181
O O4 0.764301 0.372360 0.000000
O O5 0.213872 0.500000 0.670153
O O6 0.258311 0.411004 0.725216
O O7 0.212679 0.399279 0.635729
O O8 0.000000 0.431196 0.693290
O O9 0.318385 0.716644 0.500000
O O10 0.500000 0.723090 0.428236
O O11 0.228113 0.689373 0.415742
O O12 0.684310 0.500000 0.500000
O O13 0.500000 0.414498 0.500000
O O14 0.745690 0.410932 0.546375
O O15 0.749293 0.088353 0.681384
O O16 0.000000 0.089257 0.725642
O O17 0.828715 0.000000 0.727761
O O18 0.500000 0.876668 0.925112
O O19 0.213397 0.500000 0.874883
O O20 0.000000 0.427587 0.858907
#
# Coordination Sequence:
#
# PCOD8292348 Si02
#       7
#    16  16  16   8  16  16  16
#     4   8  15  28  47  72  99 128 162 197 232 275
#     4   9  18  32  48  67  92 121 153 192 241 289
#     4   9  17  31  49  66  90 126 166 201 235 280
#     4  11  23  35  47  67  97 131 162 193 236 291
#     4   9  17  29  46  68  94 124 157 192 231 281
#     4  11  21  32  49  71  95 123 158 203 246 285
#     4   9  16  27  47  74 101 128 157 191 234 282
#
# _framework density 16.817879000000001
#
# number of rings (size 3 to 8) (size 9 to 14) (size 15 to 20)
#    0.000    2.692    0.769    2.538    0.000    4.615 
#    0.000    3.846    0.000    2.308    0.000    2.154 
#    0.000    0.000    0.000    0.000    0.000    0.000 
#
# Total GULP energy -644762.980002 kJ/mol
# GULP energy per Si atom -12399.288077 kJ/mol
# Density = 1.677960 g / cm^3
# Si number density = 16.817879 Si / 1000 Ang^3
#
#
#
# Elastic Constant Matrix: (Units=GPa)
#
#
# Indices 1 2 3 4 5 6 
#
# 1 72.4536 40.5769 64.9179 0.0000 0.0000 0.0000
# 2 40.5769 82.4313 72.6276 0.0000 0.0000 0.0000
# 3 64.9179 72.6276 152.8284 0.0000 0.0000 0.0000
# 4 0.0000 0.0000 0.0000 11.8581 0.0000 0.0000
# 5 0.0000 0.0000 0.0000 0.0000 17.5239 0.0000
# 6 0.0000 0.0000 0.0000 0.0000 0.0000 16.4180
#
#
#
# Elastic Compliance Matrix: (Units=1/GPa)
#
#
# Indices 1 2 3 4 5 6 
#
# 1 0.023308 -0.004731 -0.007652 0.000000 0.000000 0.000000
# 2 -0.004731 0.021830 -0.008364 0.000000 0.000000 0.000000
# 3 -0.007652 -0.008364 0.013769 0.000000 0.000000 0.000000
# 4 0.000000 0.000000 0.000000 0.084331 0.000000 0.000000
# 5 0.000000 0.000000 0.000000 0.000000 0.057065 0.000000
# 6 0.000000 0.000000 0.000000 0.000000 0.000000 0.060909
#
#
# Mechanical properties :
#
#
# Convention : Reuss Voigt Hill
#
# Bulk Modulus (GPa) = 57.43534 73.77309 65.60421
# Shear Modulus (GPa) = 16.20691 17.79938 17.00314
#
# Velocity S-wave (km/s) = 3.10767 3.25677 3.18310
# Velocity P-wave (km/s) = 6.86311 7.62255 7.25278
#
# Compressibility (1/GPa) = 0.01741088
#
# Stress axis : x y z
#
# Youngs Moduli (GPa) = 42.90369 45.80897 72.62825
#
# Poissons Ratio (x) = 0.21673 0.55578
# Poissons Ratio (y) = 0.20298 0.60749
# Poissons Ratio (z) = 0.32831 0.38316
#
# Static dielectric constant tensor:
#      x y z
#    x 3.064720 0.000000 0.000000 
#    y 0.000000 3.097840 0.000000 
#    z 0.000000 0.000000 3.310680 
# 
# 
# High freq. dielectric constant tensor:
#      x y z
#    x 1.636840 0.000000 0.000000 
#    y 0.000000 1.627870 0.000000 
#    z 0.000000 0.000000 1.648150 
# 
# From -- ./inp_files/13269.got.cif
#   From: 2010.06.25/outbox.cif.g09.slc.cpg/sg71_7_cif.got.tgz:13269.got - 2010.06.28 04:59:45.
