data_PCOD8292866
_publ_section_title
;
Structure prediction by ZEFSAII (Michael W. Deem and Ramdas Pophale) SiO2 
 PCOD8292866
Probable space group: I B A M
;
_chemical_formula_sum "Si O2"
_cell_formula_units_Z 96
_cell_length_a 17.801133
_cell_length_b 22.534472
_cell_length_c 14.126833
_cell_angle_alpha 90.000000
_cell_angle_beta 90.000000
_cell_angle_gamma 90.000000
_cell_volume 5666.825544
_symmetry_space_group_name_H-M "I B A M"
_symmetry_group_IT_number 72
_symmetry_cell_setting 'orthorhombic'
loop_
_space_group_symop_operation_xyz
x,y,z
-x,-y,z
x,-y,1/2-z
-x,y,1/2-z
-x,-y,-z
x,y,-z
-x,y,1/2+z
x,-y,1/2+z
1/2+x,1/2+y,1/2+z
1/2-x,1/2-y,1/2+z
1/2+x,1/2-y,-z
1/2-x,1/2+y,-z
1/2-x,1/2-y,1/2-z
1/2+x,1/2+y,1/2-z
1/2-x,1/2+y,z
1/2+x,1/2-y,z
loop_
_atom_site_type_symbol
_atom_site_label
_atom_site_fract_x
_atom_site_fract_y
_atom_site_fract_z
Si Si1 0.680246 0.289971 0.725138
Si Si2 0.948122 0.416885 0.886937
Si Si3 0.896717 0.748700 0.893455
Si Si4 0.784832 0.361874 0.608569
Si Si5 0.392991 0.038979 0.612586
Si Si6 0.435888 0.786210 0.388555
O O1 0.750000 0.250000 0.750000
O O2 0.635310 0.300374 0.823843
O O3 0.711907 0.349168 0.674502
O O4 0.625657 0.257009 0.653078
O O5 0.891063 0.469728 0.853567
O O6 0.920610 0.352981 0.849380
O O7 0.031424 0.430574 0.846799
O O8 0.952362 0.415614 0.000000
O O9 0.847612 0.689264 0.883998
O O10 0.980525 0.733581 0.859712
O O11 0.894646 0.773799 0.000000
O O12 0.757523 0.367371 0.500000
O O13 0.820563 0.423683 0.646442
O O14 0.396403 0.042025 0.500000
O O15 0.426550 0.784515 0.500000
#
# Coordination Sequence:
#
# PCOD8292866 Si02
#       6
#    16  16  16  16  16  16
#     4  10  20  29  40  60  86 123 154 189 231 283
#     4   8  13  21  39  66  90 118 155 193 220 253
#     4   9  17  29  44  59  80 115 157 200 237 268
#     4   9  15  26  42  63  91 123 154 187 230 277
#     4   8  12  21  39  64  92 121 156 188 221 261
#     4  10  17  28  45  66  89 117 155 196 233 273
#
# _framework density 16.940702000000002
#
# number of rings (size 3 to 8) (size 9 to 14) (size 15 to 20)
#    0.000    3.000    1.667    2.000    0.000    0.667 
#    0.000    0.000    0.000    4.000    0.000    0.000 
#    0.000    1.333    0.000   27.333    0.000  235.833 
#
# Total GULP energy -594703.454534 kJ/mol
# GULP energy per Si atom -12389.655303 kJ/mol
# Density = 1.690214 g / cm^3
# Si number density = 16.940702 Si / 1000 Ang^3
#
#
#
# Elastic Constant Matrix: (Units=GPa)
#
#
# Indices 1 2 3 4 5 6 
#
# 1 89.3303 59.3054 42.6510 0.0000 0.0000 0.0000
# 2 59.3054 83.1801 37.3555 0.0000 0.0000 0.0000
# 3 42.6510 37.3555 48.6981 0.0000 0.0000 0.0000
# 4 0.0000 0.0000 0.0000 11.2299 0.0000 0.0000
# 5 0.0000 0.0000 0.0000 0.0000 28.0904 0.0000
# 6 0.0000 0.0000 0.0000 0.0000 0.0000 35.3884
#
#
#
# Elastic Compliance Matrix: (Units=1/GPa)
#
#
# Indices 1 2 3 4 5 6 
#
# 1 0.025635 -0.012500 -0.012863 0.000000 0.000000 0.000000
# 2 -0.012500 0.024436 -0.007796 0.000000 0.000000 0.000000
# 3 -0.012863 -0.007796 0.037780 0.000000 0.000000 0.000000
# 4 0.000000 0.000000 0.000000 0.089048 0.000000 0.000000
# 5 0.000000 0.000000 0.000000 0.000000 0.035599 0.000000
# 6 0.000000 0.000000 0.000000 0.000000 0.000000 0.028258
#
#
# Mechanical properties :
#
#
# Convention : Reuss Voigt Hill
#
# Bulk Modulus (GPa) = 46.44142 55.53694 50.98918
# Shear Modulus (GPa) = 15.91083 20.40151 18.15617
#
# Velocity S-wave (km/s) = 3.06797 3.47405 3.27731
# Velocity P-wave (km/s) = 6.32642 6.99617 6.66971
#
# Compressibility (1/GPa) = 0.02153250
#
# Stress axis : x y z
#
# Youngs Moduli (GPa) = 39.00985 40.92372 26.46884
#
# Poissons Ratio (x) = 0.51156 0.34046
# Poissons Ratio (y) = 0.48764 0.20635
# Poissons Ratio (z) = 0.50177 0.31904
#
# Static dielectric constant tensor:
#      x y z
#    x 3.291380 0.000000 0.000000 
#    y 0.000000 3.175670 0.000000 
#    z 0.000000 0.000000 3.417130 
# 
# 
# High freq. dielectric constant tensor:
#      x y z
#    x 1.625050 0.000000 0.000000 
#    y 0.000000 1.607840 0.000000 
#    z 0.000000 0.000000 1.667940 
# 
# From -- ./inp_files/24422.got.cif
#   From: 2010.03.12/outbox.cif.g09.slc.cpg/sg72_13_cif.got.tgz:24422.got - 2010.04.16 14:54:00.
