data_PCOD8292639
_publ_section_title
;
Structure prediction by ZEFSAII (Michael W. Deem and Ramdas Pophale) SiO2 
 PCOD8292639
Probable space group: I M M M
;
_chemical_formula_sum "Si O2"
_cell_formula_units_Z 48
_cell_length_a 9.386349
_cell_length_b 30.413895
_cell_length_c 10.091216
_cell_angle_alpha 90.000000
_cell_angle_beta 90.000000
_cell_angle_gamma 90.000000
_cell_volume 2880.794256
_symmetry_space_group_name_H-M "I M M M"
_symmetry_group_IT_number 71
_symmetry_cell_setting 'orthorhombic'
loop_
_space_group_symop_operation_xyz
x,y,z
-x,-y,z
x,-y,-z
-x,y,-z
-x,-y,-z
x,y,-z
-x,y,z
x,-y,z
1/2+x,1/2+y,1/2+z
1/2-x,1/2-y,1/2+z
1/2+x,1/2-y,1/2-z
1/2-x,1/2+y,1/2-z
1/2-x,1/2-y,1/2-z
1/2+x,1/2+y,1/2-z
1/2-x,1/2+y,1/2+z
1/2+x,1/2-y,1/2+z
loop_
_atom_site_type_symbol
_atom_site_label
_atom_site_fract_x
_atom_site_fract_y
_atom_site_fract_z
Si Si1 0.666593 0.281510 0.152535
Si Si2 0.669550 0.549040 0.648099
Si Si3 0.669437 0.619335 0.146744
O O1 0.500000 0.275770 0.179680
O O2 0.750000 0.250000 0.250000
O O3 0.715889 0.331297 0.184686
O O4 0.702426 0.269947 0.000000
O O5 0.724066 0.560044 0.500000
O O6 0.500000 0.551295 0.651228
O O7 0.719646 0.500000 0.689501
O O8 0.735917 0.584669 0.749111
O O9 0.500000 0.616675 0.146955
O O10 0.726367 0.607324 0.000000
#
# Coordination Sequence:
#
# PCOD8292639 Si02
#       3
#    16  16  16
#     4   9  18  31  45  63  87 113 144 181 216 253
#     4   8  13  20  30  47  72 100 130 163 197 237
#     4   8  14  24  36  51  74 103 133 166 203 242
#
# _framework density 16.662071999999998
#
# number of rings (size 3 to 8) (size 9 to 14) (size 15 to 20)
#    0.000    3.667    0.000    3.000    0.000    2.667 
#    0.000    6.667    0.000    0.000    0.000    0.000 
#    0.000    1.333    0.000   14.667    0.000   24.000 
#
# Total GULP energy -297399.639540 kJ/mol
# GULP energy per Si atom -12391.651648 kJ/mol
# Density = 1.662415 g / cm^3
# Si number density = 16.662072 Si / 1000 Ang^3
#
#
#
# Elastic Constant Matrix: (Units=GPa)
#
#
# Indices 1 2 3 4 5 6 
#
# 1 16.0767 25.8011 28.3018 -0.0006 0.0015 0.0000
# 2 25.8011 156.9907 122.8858 0.0008 0.0015 0.0002
# 3 28.3018 122.8858 147.1917 -0.0196 -0.0065 0.0014
# 4 -0.0006 0.0008 -0.0196 44.0616 -0.0011 0.0007
# 5 0.0015 0.0015 -0.0065 -0.0011 17.0025 -0.0010
# 6 0.0000 0.0002 0.0014 0.0007 -0.0010 14.9805
#
#
#
# Elastic Compliance Matrix: (Units=1/GPa)
#
#
# Indices 1 2 3 4 5 6 
#
# 1 0.094804 -0.003787 -0.015067 -0.000005 -0.000014 0.000001
# 2 -0.003787 0.018535 -0.014746 -0.000007 -0.000007 0.000001
# 3 -0.015067 -0.014746 0.022002 0.000010 0.000011 -0.000002
# 4 -0.000005 -0.000007 0.000010 0.022696 0.000001 -0.000001
# 5 -0.000014 -0.000007 0.000011 0.000001 0.058815 0.000004
# 6 0.000001 0.000001 -0.000002 -0.000001 0.000004 0.066754
#
#
# Mechanical properties :
#
#
# Convention : Reuss Voigt Hill
#
# Bulk Modulus (GPa) = 14.67551 74.91516 44.79533
# Shear Modulus (GPa) = 13.38624 24.76027 19.07326
#
# Velocity S-wave (km/s) = 2.83750 3.85908 3.38703
# Velocity P-wave (km/s) = 4.42290 8.05703 6.49915
#
# Compressibility (1/GPa) = 0.06814072
#
# Stress axis : x y z
#
# Youngs Moduli (GPa) = 10.54805 53.95320 45.45082
#
# Poissons Ratio (x) = 0.20431 0.68482
# Poissons Ratio (y) = 0.03994 0.67021
# Poissons Ratio (z) = 0.15893 0.79558
#
# Static dielectric constant tensor:
#      x y z
#    x 2.436290 -0.000010 0.000000 
#    y -0.000010 3.413300 -0.000010 
#    z 0.000000 -0.000010 3.483980 
# 
# 
# High freq. dielectric constant tensor:
#      x y z
#    x 1.564070 0.000000 0.000000 
#    y 0.000000 1.651570 0.000000 
#    z 0.000000 0.000000 1.650880 
# 
# From -- ./inp_files/2073.got.cif
#   From: 2010.06.25/outbox.cif.g09.slc.cpg/sg71_2_cif.got.tgz:2073.got - 2010.06.28 04:59:45.
