data_PCOD8292571
_publ_section_title
;
Structure prediction by ZEFSAII (Michael W. Deem and Ramdas Pophale) SiO2 
 PCOD8292571
Probable space group: I M M M
;
_chemical_formula_sum "Si O2"
_cell_formula_units_Z 88
_cell_length_a 14.817501
_cell_length_b 15.619391
_cell_length_c 18.632579
_cell_angle_alpha 90.000000
_cell_angle_beta 90.000000
_cell_angle_gamma 90.000000
_cell_volume 4312.330452
_symmetry_space_group_name_H-M "I M M M"
_symmetry_group_IT_number 71
_symmetry_cell_setting 'orthorhombic'
loop_
_space_group_symop_operation_xyz
x,y,z
-x,-y,z
x,-y,-z
-x,y,-z
-x,-y,-z
x,y,-z
-x,y,z
x,-y,z
1/2+x,1/2+y,1/2+z
1/2-x,1/2-y,1/2+z
1/2+x,1/2-y,1/2-z
1/2-x,1/2+y,1/2-z
1/2-x,1/2-y,1/2-z
1/2+x,1/2+y,1/2-z
1/2-x,1/2+y,1/2+z
1/2+x,1/2-y,1/2+z
loop_
_atom_site_type_symbol
_atom_site_label
_atom_site_fract_x
_atom_site_fract_y
_atom_site_fract_z
Si Si1 0.903191 0.598247 0.922797
Si Si2 0.245107 0.662211 0.825928
Si Si3 0.273313 0.643499 0.333366
Si Si4 0.397396 0.598010 0.082465
Si Si5 0.399258 0.101019 0.080834
Si Si6 0.608600 0.500000 0.413583
O O1 0.919901 0.500000 0.935684
O O2 0.829162 0.604446 0.862310
O O3 0.000000 0.639989 0.900019
O O4 0.871939 0.638781 0.000000
O O5 0.264288 0.616779 0.749548
O O6 0.200067 0.756626 0.827843
O O7 0.338044 0.661687 0.870119
O O8 0.174795 0.641809 0.368222
O O9 0.345682 0.584556 0.376999
O O10 0.500000 0.609519 0.107513
O O11 0.366235 0.500000 0.093585
O O12 0.386267 0.624481 0.000000
O O13 0.500000 0.126508 0.107365
O O14 0.386898 0.000000 0.082396
O O15 0.384609 0.134922 0.000000
O O16 0.500000 0.500000 0.399407
O O17 0.627647 0.500000 0.500000
#
# Coordination Sequence:
#
# PCOD8292571 Si02
#       6
#    16  16  16  16  16   8
#     4   9  19  36  59  88 119 154 199 244 291 360
#     4  11  24  38  57  89 127 163 199 251 318 374
#     4  11  25  41  58  89 126 158 205 261 311 372
#     4   9  19  36  59  89 122 158 203 248 295 364
#     4   9  18  35  61  88 113 146 190 244 303 359
#     4  11  26  48  71  91 118 169 231 277 313 364
#
# _framework density 20.406599
#
# number of rings (size 3 to 8) (size 9 to 14) (size 15 to 20)
#    0.000    2.091    0.909    3.273    2.545    7.273 
#    0.000    9.091    0.000    0.000    0.000    0.000 
#    0.000    0.000    0.000    0.000    0.000    0.000 
#
# Total GULP energy -545143.899213 kJ/mol
# GULP energy per Si atom -12389.634073 kJ/mol
# Density = 2.036015 g / cm^3
# Si number density = 20.406599 Si / 1000 Ang^3
#
#
#
# Elastic Constant Matrix: (Units=GPa)
#
#
# Indices 1 2 3 4 5 6 
#
# 1 128.2047 26.0734 75.2131 0.0000 0.0000 0.0000
# 2 26.0734 52.9730 34.1634 0.0000 0.0000 0.0000
# 3 75.2131 34.1634 136.5391 0.0000 0.0000 0.0000
# 4 0.0000 0.0000 0.0000 42.0994 0.0000 0.0000
# 5 0.0000 0.0000 0.0000 0.0000 51.3683 0.0000
# 6 0.0000 0.0000 0.0000 0.0000 0.0000 5.7716
#
#
#
# Elastic Compliance Matrix: (Units=1/GPa)
#
#
# Indices 1 2 3 4 5 6 
#
# 1 0.011684 -0.001908 -0.005959 0.000000 0.000000 0.000000
# 2 -0.001908 0.022821 -0.004659 0.000000 0.000000 0.000000
# 3 -0.005959 -0.004659 0.011772 0.000000 0.000000 0.000000
# 4 0.000000 0.000000 0.000000 0.023753 0.000000 0.000000
# 5 0.000000 0.000000 0.000000 0.000000 0.019467 0.000000
# 6 0.000000 0.000000 0.000000 0.000000 0.000000 0.173262
#
#
# Mechanical properties :
#
#
# Convention : Reuss Voigt Hill
#
# Bulk Modulus (GPa) = 47.11260 65.40186 56.25723
# Shear Modulus (GPa) = 16.95569 31.99900 24.47734
#
# Velocity S-wave (km/s) = 2.88565 3.96418 3.46711
# Velocity P-wave (km/s) = 5.85147 7.28505 6.60725
#
# Compressibility (1/GPa) = 0.02122574
#
# Stress axis : x y z
#
# Youngs Moduli (GPa) = 85.58868 43.81850 84.94700
#
# Poissons Ratio (x) = 0.08360 0.50617
# Poissons Ratio (y) = 0.16329 0.39578
# Poissons Ratio (z) = 0.51000 0.20416
#
# Static dielectric constant tensor:
#      x y z
#    x 3.834620 0.000000 0.000000 
#    y 0.000000 3.498040 0.000000 
#    z 0.000000 0.000000 3.946610 
# 
# 
# High freq. dielectric constant tensor:
#      x y z
#    x 1.804630 0.000000 0.000000 
#    y 0.000000 1.781710 0.000000 
#    z 0.000000 0.000000 1.798420 
# 
# From -- ./inp_files/52895.got.cif
#   From: 2010.06.25/outbox.cif.g09.slc.cpg/sg71_27_cif.got.tgz:52895.got - 2010.06.28 04:59:45.
