data_PCOD8292275
_publ_section_title
;
Structure prediction by ZEFSAII (Michael W. Deem and Ramdas Pophale) SiO2 
 PCOD8292275
Probable space group: I M M M
;
_chemical_formula_sum "Si O2"
_cell_formula_units_Z 68
_cell_length_a 18.112222
_cell_length_b 20.836721
_cell_length_c 9.695869
_cell_angle_alpha 90.000000
_cell_angle_beta 90.000000
_cell_angle_gamma 90.000000
_cell_volume 3659.214334
_symmetry_space_group_name_H-M "I M M M"
_symmetry_group_IT_number 71
_symmetry_cell_setting 'orthorhombic'
loop_
_space_group_symop_operation_xyz
x,y,z
-x,-y,z
x,-y,-z
-x,y,-z
-x,-y,-z
x,y,-z
-x,y,z
x,-y,z
1/2+x,1/2+y,1/2+z
1/2-x,1/2-y,1/2+z
1/2+x,1/2-y,1/2-z
1/2-x,1/2+y,1/2-z
1/2-x,1/2-y,1/2-z
1/2+x,1/2+y,1/2-z
1/2-x,1/2+y,1/2+z
1/2+x,1/2-y,1/2+z
loop_
_atom_site_type_symbol
_atom_site_label
_atom_site_fract_x
_atom_site_fract_y
_atom_site_fract_z
Si Si1 0.871437 0.822134 0.500000
Si Si2 0.000000 0.655355 0.665531
Si Si3 0.156313 0.366576 0.772933
Si Si4 0.500000 0.296549 0.500000
Si Si5 0.000000 0.807701 0.701577
Si Si6 0.286907 0.186062 0.000000
Si Si7 0.347799 0.234865 0.500000
Si Si8 0.756649 0.428852 0.000000
O O1 0.924479 0.832007 0.368107
O O2 0.837283 0.750455 0.500000
O O3 0.808017 0.875615 0.500000
O O4 0.929686 0.621688 0.737330
O O5 0.000000 0.644606 0.500000
O O6 0.000000 0.730701 0.697732
O O7 0.199136 0.358379 0.630800
O O8 0.171073 0.302953 0.861511
O O9 0.191455 0.423761 0.863625
O O10 0.500000 0.336770 0.357403
O O11 0.432836 0.248485 0.500000
O O12 0.200456 0.201130 0.000000
O O13 0.721418 0.500000 0.000000
#
# Coordination Sequence:
#
# PCOD8292275 Si02
#       8
#     8   8  16   4   8   8   8   8
#     4  11  20  39  61  87 127 157 193 243 307 372
#     4  12  18  34  57  93 133 151 175 239 323 389
#     4  11  21  35  60  87 126 156 195 246 303 364
#     4  12  20  28  46  86 146 142 176 228 298 392
#     4  11  20  31  56  95 129 156 180 232 318 389
#     4  12  19  32  59  99 120 150 191 249 323 377
#     4  11  20  28  49  87 130 160 184 222 308 373
#     4  11  28  46  59  80 118 170 223 255 276 335
#
# _framework density 18.583224000000001
#
# number of rings (size 3 to 8) (size 9 to 14) (size 15 to 20)
#    0.000    0.706    9.412    0.706    3.294    1.412 
#    0.000    2.941    0.000    0.706    0.000    0.824 
#    0.000    0.000    0.000    0.000    0.000    0.000 
#
# Total GULP energy -421421.130610 kJ/mol
# GULP energy per Si atom -12394.739136 kJ/mol
# Density = 1.854093 g / cm^3
# Si number density = 18.583224 Si / 1000 Ang^3
#
#
#
# Elastic Constant Matrix: (Units=GPa)
#
#
# Indices 1 2 3 4 5 6 
#
# 1 101.3508 25.2008 38.0459 0.0000 0.0000 0.0000
# 2 25.2008 52.8085 24.9912 0.0000 0.0000 0.0000
# 3 38.0459 24.9912 167.0759 0.0000 0.0000 0.0000
# 4 0.0000 0.0000 0.0000 1.9537 0.0000 0.0000
# 5 0.0000 0.0000 0.0000 0.0000 104.9259 0.0000
# 6 0.0000 0.0000 0.0000 0.0000 0.0000 10.0827
#
#
#
# Elastic Compliance Matrix: (Units=1/GPa)
#
#
# Indices 1 2 3 4 5 6 
#
# 1 0.011774 -0.004681 -0.001981 0.000000 0.000000 0.000000
# 2 -0.004681 0.022240 -0.002261 0.000000 0.000000 0.000000
# 3 -0.001981 -0.002261 0.006775 0.000000 0.000000 0.000000
# 4 0.000000 0.000000 0.000000 0.511851 0.000000 0.000000
# 5 0.000000 0.000000 0.000000 0.000000 0.009531 0.000000
# 6 0.000000 0.000000 0.000000 0.000000 0.000000 0.099180
#
#
# Mechanical properties :
#
#
# Convention : Reuss Voigt Hill
#
# Bulk Modulus (GPa) = 43.58612 55.30122 49.44367
# Shear Modulus (GPa) = 7.27967 38.92563 23.10265
#
# Velocity S-wave (km/s) = 1.98137 4.58172 3.52973
# Velocity P-wave (km/s) = 5.36096 7.60347 6.57848
#
# Compressibility (1/GPa) = 0.02294308
#
# Stress axis : x y z
#
# Youngs Moduli (GPa) = 84.93024 44.96371 147.61126
#
# Poissons Ratio (x) = 0.21049 0.29241
# Poissons Ratio (y) = 0.39759 0.33370
# Poissons Ratio (z) = 0.16824 0.10165
#
# Static dielectric constant tensor:
#      x y z
#    x 3.694460 0.000000 0.000000 
#    y 0.000000 2.753720 0.000000 
#    z 0.000000 0.000000 4.099400 
# 
# 
# High freq. dielectric constant tensor:
#      x y z
#    x 1.741340 0.000000 0.000000 
#    y 0.000000 1.638930 0.000000 
#    z 0.000000 0.000000 1.747150 
# 
# From -- ./inp_files/7732.got.cif
#   From: 2010.06.25/outbox.cif.g09.slc.cpg/sg71_4_cif.got.tgz:7732.got - 2010.06.28 04:59:45.
