data_PCOD8292735
_publ_section_title
;
Structure prediction by ZEFSAII (Michael W. Deem and Ramdas Pophale) SiO2 
 PCOD8292735
Probable space group: I M M M
;
_chemical_formula_sum "Si O2"
_cell_formula_units_Z 104
_cell_length_a 9.170339
_cell_length_b 26.882181
_cell_length_c 32.578798
_cell_angle_alpha 90.000000
_cell_angle_beta 90.000000
_cell_angle_gamma 90.000000
_cell_volume 8031.283348
_symmetry_space_group_name_H-M "I M M M"
_symmetry_group_IT_number 71
_symmetry_cell_setting 'orthorhombic'
loop_
_space_group_symop_operation_xyz
x,y,z
-x,-y,z
x,-y,-z
-x,y,-z
-x,-y,-z
x,y,-z
-x,y,z
x,-y,z
1/2+x,1/2+y,1/2+z
1/2-x,1/2-y,1/2+z
1/2+x,1/2-y,1/2-z
1/2-x,1/2+y,1/2-z
1/2-x,1/2-y,1/2-z
1/2+x,1/2+y,1/2-z
1/2-x,1/2+y,1/2+z
1/2+x,1/2-y,1/2+z
loop_
_atom_site_type_symbol
_atom_site_label
_atom_site_fract_x
_atom_site_fract_y
_atom_site_fract_z
Si Si1 0.164941 0.793171 0.302077
Si Si2 0.169990 0.625534 0.572365
Si Si3 0.834982 0.847837 0.850390
Si Si4 0.834928 0.679412 0.725693
Si Si5 0.326465 0.055973 0.000000
Si Si6 0.835489 0.734103 0.122052
Si Si7 0.832084 0.736886 0.546390
O O1 0.164892 0.736238 0.288352
O O2 0.251046 0.826191 0.268805
O O3 0.244396 0.799150 0.345893
O O4 0.000000 0.813129 0.305798
O O5 0.258528 0.619097 0.614591
O O6 0.228683 0.583921 0.540863
O O7 0.200615 0.678634 0.551702
O O8 0.000000 0.618826 0.582512
O O9 0.747131 0.854354 0.807964
O O10 0.831949 0.790755 0.863600
O O11 0.000000 0.866479 0.843973
O O12 0.000000 0.659995 0.730853
O O13 0.500000 0.057038 0.000000
O O14 0.264486 0.000000 0.000000
O O15 0.764653 0.729872 0.076975
O O16 0.000000 0.713730 0.120266
O O17 0.792688 0.752328 0.500000
O O18 0.000000 0.747861 0.556582
#
# Coordination Sequence:
#
# PCOD8292735 Si02
#       7
#    16  16  16  16   8  16  16
#     4   9  15  22  31  42  58  78  96 114 135 161
#     4   9  15  25  38  50  62  76  93 116 145 178
#     4   9  16  24  33  46  61  76  93 113 137 167
#     4   9  15  22  32  45  59  76  95 114 134 159
#     4   9  16  26  41  57  67  77  97 123 151 187
#     4   9  16  23  30  42  58  75  95 118 142 169
#     4   9  15  23  34  45  57  74  96 121 150 182
#
# _framework density 12.949362000000001
#
# number of rings (size 3 to 8) (size 9 to 14) (size 15 to 20)
#    0.000    3.000    0.769    1.846    0.000    7.692 
#    0.000    0.385    0.000    0.923    0.000    0.000 
#    0.000    0.000    0.000    0.000    0.000    0.000 
#
# Total GULP energy -644654.891801 kJ/mol
# GULP energy per Si atom -12397.209458 kJ/mol
# Density = 1.291989 g / cm^3
# Si number density = 12.949362 Si / 1000 Ang^3
#
#
#
# Elastic Constant Matrix: (Units=GPa)
#
#
# Indices 1 2 3 4 5 6 
#
# 1 106.3619 15.7899 69.1881 0.0000 0.0000 0.0000
# 2 15.7899 14.2431 26.7395 0.0000 0.0000 0.0000
# 3 69.1881 26.7395 125.3835 0.0000 0.0000 0.0000
# 4 0.0000 0.0000 0.0000 8.2883 0.0000 0.0000
# 5 0.0000 0.0000 0.0000 0.0000 26.9234 0.0000
# 6 0.0000 0.0000 0.0000 0.0000 0.0000 4.7864
#
#
#
# Elastic Compliance Matrix: (Units=1/GPa)
#
#
# Indices 1 2 3 4 5 6 
#
# 1 0.014693 -0.001780 -0.007728 0.000000 0.000000 0.000000
# 2 -0.001780 0.117304 -0.024034 0.000000 0.000000 0.000000
# 3 -0.007728 -0.024034 0.017366 0.000000 0.000000 0.000000
# 4 0.000000 0.000000 0.000000 0.120652 0.000000 0.000000
# 5 0.000000 0.000000 0.000000 0.000000 0.037142 0.000000
# 6 0.000000 0.000000 0.000000 0.000000 0.000000 0.208925
#
#
# Mechanical properties :
#
#
# Convention : Reuss Voigt Hill
#
# Bulk Modulus (GPa) = 12.15396 52.15817 32.15606
# Shear Modulus (GPa) = 8.18876 16.95102 12.56989
#
# Velocity S-wave (km/s) = 2.51742 3.62197 3.11898
# Velocity P-wave (km/s) = 4.22564 7.60641 6.15279
#
# Compressibility (1/GPa) = 0.08227769
#
# Stress axis : x y z
#
# Youngs Moduli (GPa) = 68.05765 8.52487 57.58488
#
# Poissons Ratio (x) = 0.01518 0.44504
# Poissons Ratio (y) = 0.12116 1.38400
# Poissons Ratio (z) = 0.52597 0.20489
#
# Static dielectric constant tensor:
#      x y z
#    x 2.733780 0.000000 0.000000 
#    y 0.000000 1.994820 0.000000 
#    z 0.000000 0.000000 2.783600 
# 
# 
# High freq. dielectric constant tensor:
#      x y z
#    x 1.502880 0.000000 0.000000 
#    y 0.000000 1.394280 0.000000 
#    z 0.000000 0.000000 1.503860 
# 
# From -- ./inp_files/67310.got.cif
#   From: 2010.06.25/outbox.cif.g09.slc.cpg/sg71_34_cif.got.tgz:67310.got - 2010.06.28 04:59:45.
