data_PCOD8292929
_publ_section_title
;
Structure prediction by ZEFSAII (Michael W. Deem and Ramdas Pophale) SiO2 
 PCOD8292929
Probable space group: I B A M
;
_chemical_formula_sum "Si O2"
_cell_formula_units_Z 52
_cell_length_a 27.393056
_cell_length_b 9.429040
_cell_length_c 10.079978
_cell_angle_alpha 90.000000
_cell_angle_beta 90.000000
_cell_angle_gamma 90.000000
_cell_volume 2603.559743
_symmetry_space_group_name_H-M "I B A M"
_symmetry_group_IT_number 72
_symmetry_cell_setting 'orthorhombic'
loop_
_space_group_symop_operation_xyz
x,y,z
-x,-y,z
x,-y,1/2-z
-x,y,1/2-z
-x,-y,-z
x,y,-z
-x,y,1/2+z
x,-y,1/2+z
1/2+x,1/2+y,1/2+z
1/2-x,1/2-y,1/2+z
1/2+x,1/2-y,-z
1/2-x,1/2+y,-z
1/2-x,1/2-y,1/2-z
1/2+x,1/2+y,1/2-z
1/2-x,1/2+y,z
1/2+x,1/2-y,z
loop_
_atom_site_type_symbol
_atom_site_label
_atom_site_fract_x
_atom_site_fract_y
_atom_site_fract_z
Si Si1 0.193924 0.303585 0.500000
Si Si2 0.540048 0.732653 0.649712
Si Si3 0.790269 0.372685 0.500000
Si Si4 0.361301 0.164266 0.262486
Si Si5 0.500000 0.000000 0.250000
O O1 0.217231 0.459144 0.500000
O O2 0.236660 0.190226 0.500000
O O3 0.159635 0.278324 0.625569
O O4 0.500000 0.658611 0.750000
O O5 0.534446 0.671661 0.500000
O O6 0.595571 0.723729 0.701720
O O7 0.531092 0.902053 0.650101
O O8 0.819273 0.321926 0.628752
O O9 0.378995 0.000000 0.250000
#
# Coordination Sequence:
#
# PCOD8292929 Si02
#       5
#     8  16   8  16   4
#     4  10  22  32  53  71  99 131 170 210 245 292
#     4  10  18  26  40  64  97 130 161 193 238 299
#     4  10  20  36  49  73  97 133 166 212 247 288
#     4  10  18  30  48  67  98 132 165 198 251 295
#     4   8  18  20  42  56  98 124 160 188 234 288
#
# _framework density 19.972655
#
# number of rings (size 3 to 8) (size 9 to 14) (size 15 to 20)
#    0.923    1.231    3.077    1.385    2.154    0.000 
#    0.000    0.000    0.000    0.000    0.000    0.000 
#    0.000    7.385    0.000    0.000    0.000    0.000 
#
# Total GULP energy -322115.751222 kJ/mol
# GULP energy per Si atom -12389.067355 kJ/mol
# Density = 1.992720 g / cm^3
# Si number density = 19.972655 Si / 1000 Ang^3
#
#
#
# Elastic Constant Matrix: (Units=GPa)
#
#
# Indices 1 2 3 4 5 6 
#
# 1 118.4685 19.8289 68.6915 0.0000 0.0000 0.0000
# 2 19.8289 16.8786 14.7233 0.0000 0.0000 0.0000
# 3 68.6915 14.7233 187.6835 0.0000 0.0000 0.0000
# 4 0.0000 0.0000 0.0000 12.1058 0.0000 0.0000
# 5 0.0000 0.0000 0.0000 0.0000 67.9923 0.0000
# 6 0.0000 0.0000 0.0000 0.0000 0.0000 11.2735
#
#
#
# Elastic Compliance Matrix: (Units=1/GPa)
#
#
# Indices 1 2 3 4 5 6 
#
# 1 0.012490 -0.011470 -0.003671 0.000000 0.000000 0.000000
# 2 -0.011470 0.074133 -0.001617 0.000000 0.000000 0.000000
# 3 -0.003671 -0.001617 0.006799 0.000000 0.000000 0.000000
# 4 0.000000 0.000000 0.000000 0.082605 0.000000 0.000000
# 5 0.000000 0.000000 0.000000 0.000000 0.014708 0.000000
# 6 0.000000 0.000000 0.000000 0.000000 0.000000 0.088704
#
#
# Mechanical properties :
#
#
# Convention : Reuss Voigt Hill
#
# Bulk Modulus (GPa) = 16.69371 58.83535 37.76453
# Shear Modulus (GPa) = 15.01847 32.92677 23.97262
#
# Velocity S-wave (km/s) = 2.74515 4.06469 3.46825
# Velocity P-wave (km/s) = 4.29234 7.17989 5.91503
#
# Compressibility (1/GPa) = 0.05990282
#
# Stress axis : x y z
#
# Youngs Moduli (GPa) = 80.06615 13.48936 147.08671
#
# Poissons Ratio (x) = 0.15473 0.54001
# Poissons Ratio (y) = 0.91838 0.23791
# Poissons Ratio (z) = 0.29395 0.02182
#
# Static dielectric constant tensor:
#      x y z
#    x 3.555060 0.000000 0.000000 
#    y 0.000000 2.989860 0.000000 
#    z 0.000000 0.000000 3.662060 
# 
# 
# High freq. dielectric constant tensor:
#      x y z
#    x 1.786910 0.000000 0.000000 
#    y 0.000000 1.715440 0.000000 
#    z 0.000000 0.000000 1.791680 
# 
# From -- ./inp_files/2502.got.cif
#   From: 2010.03.12/outbox.cif.g09.slc.cpg/sg72_2_cif.got.tgz:2502.got - 2010.04.16 14:54:00.
