data_PCOD8292091
_publ_section_title
;
Structure prediction by ZEFSAII (Michael W. Deem and Ramdas Pophale) SiO2 
 PCOD8292091
Probable space group: I M M M
;
_chemical_formula_sum "Si O2"
_cell_formula_units_Z 104
_cell_length_a 21.653506
_cell_length_b 27.277432
_cell_length_c 8.906517
_cell_angle_alpha 90.000000
_cell_angle_beta 90.000000
_cell_angle_gamma 90.000000
_cell_volume 5260.652413
_symmetry_space_group_name_H-M "I M M M"
_symmetry_group_IT_number 71
_symmetry_cell_setting 'orthorhombic'
loop_
_space_group_symop_operation_xyz
x,y,z
-x,-y,z
x,-y,-z
-x,y,-z
-x,-y,-z
x,y,-z
-x,y,z
x,-y,z
1/2+x,1/2+y,1/2+z
1/2-x,1/2-y,1/2+z
1/2+x,1/2-y,1/2-z
1/2-x,1/2+y,1/2-z
1/2-x,1/2-y,1/2-z
1/2+x,1/2+y,1/2-z
1/2-x,1/2+y,1/2+z
1/2+x,1/2-y,1/2+z
loop_
_atom_site_type_symbol
_atom_site_label
_atom_site_fract_x
_atom_site_fract_y
_atom_site_fract_z
Si Si1 0.000000 0.096537 0.177865
Si Si2 0.070052 0.402484 0.675740
Si Si3 0.620003 0.443654 0.827517
Si Si4 0.169966 0.676503 0.323922
Si Si5 0.621840 0.269136 0.325665
Si Si6 0.800611 0.134054 0.173367
Si Si7 0.500000 0.702996 0.177582
Si Si8 0.073412 0.500000 0.831287
O O1 0.939938 0.066997 0.228044
O O2 0.000000 0.150199 0.246992
O O3 0.000000 0.102190 0.000000
O O4 0.072604 0.412083 0.500000
O O5 0.111329 0.356307 0.722030
O O6 0.098352 0.451074 0.751663
O O7 0.000000 0.391822 0.729710
O O8 0.639064 0.500000 0.807535
O O9 0.677853 0.411541 0.773365
O O10 0.604492 0.431179 0.000000
O O11 0.170960 0.689111 0.500000
O O12 0.167387 0.726601 0.230645
O O13 0.231754 0.648067 0.276660
O O14 0.606590 0.261690 0.500000
O O15 0.653949 0.320878 0.296147
O O16 0.559419 0.266367 0.229345
O O17 0.802452 0.118267 0.000000
O O18 0.500000 0.697461 0.000000
O O19 0.000000 0.500000 0.821497
O O20 0.098211 0.500000 0.000000
#
# Coordination Sequence:
#
# PCOD8292091 Si02
#       8
#     8  16  16  16  16  16   8   8
#     4  12  23  39  64  95 128 162 205 255 313 370
#     4   9  18  34  56  81 111 147 191 239 289 351
#     4  11  24  41  63  92 125 164 211 259 310 369
#     4  10  22  39  60  89 120 159 205 246 300 366
#     4  11  23  39  61  90 122 158 201 250 303 361
#     4  10  22  41  62  85 120 163 207 252 301 364
#     4  12  24  39  63  92 124 164 203 252 309 364
#     4   9  17  31  53  79 107 141 181 228 289 348
#
# _framework density 19.769411000000002
#
# number of rings (size 3 to 8) (size 9 to 14) (size 15 to 20)
#    0.000    1.615    1.538    3.231    1.077    4.923 
#    1.385    0.000    0.000    0.000    0.000    0.000 
#    0.000    0.000    0.000    0.000    0.000    0.000 
#
# Total GULP energy -645086.296034 kJ/mol
# GULP energy per Si atom -12405.505693 kJ/mol
# Density = 1.972441 g / cm^3
# Si number density = 19.769411 Si / 1000 Ang^3
#
#
#
# Elastic Constant Matrix: (Units=GPa)
#
#
# Indices 1 2 3 4 5 6 
#
# 1 111.7572 41.0105 49.1133 0.0000 0.0000 0.0000
# 2 41.0105 101.2650 59.7766 0.0000 0.0000 0.0000
# 3 49.1133 59.7766 111.7941 0.0000 0.0000 0.0000
# 4 0.0000 0.0000 0.0000 29.3851 0.0000 0.0000
# 5 0.0000 0.0000 0.0000 0.0000 25.9873 0.0000
# 6 0.0000 0.0000 0.0000 0.0000 0.0000 5.3301
#
#
#
# Elastic Compliance Matrix: (Units=1/GPa)
#
#
# Indices 1 2 3 4 5 6 
#
# 1 0.011489 -0.002445 -0.003740 0.000000 0.000000 0.000000
# 2 -0.002445 0.014950 -0.006920 0.000000 0.000000 0.000000
# 3 -0.003740 -0.006920 0.014288 0.000000 0.000000 0.000000
# 4 0.000000 0.000000 0.000000 0.034031 0.000000 0.000000
# 5 0.000000 0.000000 0.000000 0.000000 0.038480 0.000000
# 6 0.000000 0.000000 0.000000 0.000000 0.000000 0.187615
#
#
# Mechanical properties :
#
#
# Convention : Reuss Voigt Hill
#
# Bulk Modulus (GPa) = 68.88215 69.40191 69.14203
# Shear Modulus (GPa) = 15.06475 23.80156 19.43315
#
# Velocity S-wave (km/s) = 2.76347 3.47358 3.13867
# Velocity P-wave (km/s) = 6.71571 7.16028 6.94155
#
# Compressibility (1/GPa) = 0.01451755
#
# Stress axis : x y z
#
# Youngs Moduli (GPa) = 87.04170 66.88994 69.98931
#
# Poissons Ratio (x) = 0.16355 0.26175
# Poissons Ratio (y) = 0.21283 0.48430
# Poissons Ratio (z) = 0.32552 0.46285
#
# Static dielectric constant tensor:
#      x y z
#    x 3.645330 0.000000 0.000000 
#    y 0.000000 3.605720 0.000000 
#    z 0.000000 0.000000 3.613750 
# 
# 
# High freq. dielectric constant tensor:
#      x y z
#    x 1.766490 0.000000 0.000000 
#    y 0.000000 1.776110 0.000000 
#    z 0.000000 0.000000 1.772420 
# 
# From -- ./inp_files/11177.got.cif
#   From: 2010.06.25/outbox.cif.g09.slc.cpg/sg71_6_cif.got.tgz:11177.got - 2010.06.28 04:59:45.
