data_PCOD8292993
_publ_section_title
;
Structure prediction by ZEFSAII (Michael W. Deem and Ramdas Pophale) SiO2 
 PCOD8292993
Probable space group: I B A M
;
_chemical_formula_sum "Si O2"
_cell_formula_units_Z 68
_cell_length_a 20.567037
_cell_length_b 9.064237
_cell_length_c 20.399789
_cell_angle_alpha 90.000000
_cell_angle_beta 90.000000
_cell_angle_gamma 90.000000
_cell_volume 3803.020419
_symmetry_space_group_name_H-M "I B A M"
_symmetry_group_IT_number 72
_symmetry_cell_setting 'orthorhombic'
loop_
_space_group_symop_operation_xyz
x,y,z
-x,-y,z
x,-y,1/2-z
-x,y,1/2-z
-x,-y,-z
x,y,-z
-x,y,1/2+z
x,-y,1/2+z
1/2+x,1/2+y,1/2+z
1/2-x,1/2-y,1/2+z
1/2+x,1/2-y,-z
1/2-x,1/2+y,-z
1/2-x,1/2-y,1/2-z
1/2+x,1/2+y,1/2-z
1/2-x,1/2+y,z
1/2+x,1/2-y,z
loop_
_atom_site_type_symbol
_atom_site_label
_atom_site_fract_x
_atom_site_fract_y
_atom_site_fract_z
Si Si1 0.303624 0.661422 0.577034
Si Si2 0.424759 0.159460 0.923835
Si Si3 0.175208 0.176141 0.077703
Si Si4 0.500000 0.000000 0.250000
Si Si5 0.559679 0.846036 0.631838
O O1 0.304876 0.686219 0.500000
O O2 0.363816 0.753109 0.607877
O O3 0.235278 0.724937 0.602516
O O4 0.308706 0.491325 0.596143
O O5 0.491165 0.220125 0.892504
O O6 0.417503 0.985183 0.911697
O O7 0.428071 0.192388 0.000000
O O8 0.113614 0.220930 0.122245
O O9 0.160455 0.194779 0.000000
O O10 0.451649 0.101462 0.293368
#
# Coordination Sequence:
#
# PCOD8292993 Si02
#       5
#    16  16  16   4  16
#     4   9  18  29  45  74 110 130 151 184 236 292
#     4   9  16  28  47  73  98 125 152 191 237 290
#     4  10  18  29  48  75 101 131 156 190 235 287
#     4   8  20  36  50  70  88 128 164 210 248 268
#     4  10  18  31  52  67  94 123 166 201 236 287
#
# _framework density 17.880524999999999
#
# number of rings (size 3 to 8) (size 9 to 14) (size 15 to 20)
#    0.000    2.824    0.000    4.235    0.000    4.706 
#    0.000    3.529    0.000   24.000    0.000    0.000 
#    0.000    0.000    0.000    0.000    0.000    0.000 
#
# Total GULP energy -421472.084184 kJ/mol
# GULP energy per Si atom -12396.237770 kJ/mol
# Density = 1.783983 g / cm^3
# Si number density = 17.880525 Si / 1000 Ang^3
#
#
#
# Elastic Constant Matrix: (Units=GPa)
#
#
# Indices 1 2 3 4 5 6 
#
# 1 119.8363 49.0419 23.6834 0.0000 0.0000 0.0000
# 2 49.0419 72.0838 11.0757 0.0000 0.0000 0.0000
# 3 23.6834 11.0757 57.7514 0.0000 0.0000 0.0000
# 4 0.0000 0.0000 0.0000 8.3588 0.0000 0.0000
# 5 0.0000 0.0000 0.0000 0.0000 7.1527 0.0000
# 6 0.0000 0.0000 0.0000 0.0000 0.0000 43.7330
#
#
#
# Elastic Compliance Matrix: (Units=1/GPa)
#
#
# Indices 1 2 3 4 5 6 
#
# 1 0.012222 -0.007774 -0.003521 0.000000 0.000000 0.000000
# 2 -0.007774 0.019239 -0.000502 0.000000 0.000000 0.000000
# 3 -0.003521 -0.000502 0.018856 0.000000 0.000000 0.000000
# 4 0.000000 0.000000 0.000000 0.119634 0.000000 0.000000
# 5 0.000000 0.000000 0.000000 0.000000 0.139806 0.000000
# 6 0.000000 0.000000 0.000000 0.000000 0.000000 0.022866
#
#
# Mechanical properties :
#
#
# Convention : Reuss Voigt Hill
#
# Bulk Modulus (GPa) = 37.42111 46.36372 41.89242
# Shear Modulus (GPa) = 13.69394 22.90694 18.30044
#
# Velocity S-wave (km/s) = 2.77042 3.58314 3.20267
# Velocity P-wave (km/s) = 5.58636 6.56541 6.09557
#
# Compressibility (1/GPa) = 0.02672288
#
# Stress axis : x y z
#
# Youngs Moduli (GPa) = 81.81853 51.97779 53.03402
#
# Poissons Ratio (x) = 0.40409 0.18675
# Poissons Ratio (y) = 0.63608 0.02660
# Poissons Ratio (z) = 0.28810 0.02607
#
# Static dielectric constant tensor:
#      x y z
#    x 3.579400 0.000000 0.000000 
#    y 0.000000 3.232480 0.000000 
#    z 0.000000 0.000000 2.884800 
# 
# 
# High freq. dielectric constant tensor:
#      x y z
#    x 1.708630 0.000000 0.000000 
#    y 0.000000 1.684650 0.000000 
#    z 0.000000 0.000000 1.640970 
# 
# From -- ./inp_files/32315.got.cif
#   From: 2010.03.12/outbox.cif.g09.slc.cpg/sg72_17_cif.got.tgz:32315.got - 2010.04.16 14:54:00.
