data_PCOD8292124
_publ_section_title
;
Structure prediction by ZEFSAII (Michael W. Deem and Ramdas Pophale) SiO2 
 PCOD8292124
Probable space group: I M M M
;
_chemical_formula_sum "Si O2"
_cell_formula_units_Z 80
_cell_length_a 13.239906
_cell_length_b 12.128394
_cell_length_c 25.383264
_cell_angle_alpha 90.000000
_cell_angle_beta 90.000000
_cell_angle_gamma 90.000000
_cell_volume 4076.013984
_symmetry_space_group_name_H-M "I M M M"
_symmetry_group_IT_number 71
_symmetry_cell_setting 'orthorhombic'
loop_
_space_group_symop_operation_xyz
x,y,z
-x,-y,z
x,-y,-z
-x,y,-z
-x,-y,-z
x,y,-z
-x,y,z
x,-y,z
1/2+x,1/2+y,1/2+z
1/2-x,1/2-y,1/2+z
1/2+x,1/2-y,1/2-z
1/2-x,1/2+y,1/2-z
1/2-x,1/2-y,1/2-z
1/2+x,1/2+y,1/2-z
1/2-x,1/2+y,1/2+z
1/2+x,1/2-y,1/2+z
loop_
_atom_site_type_symbol
_atom_site_label
_atom_site_fract_x
_atom_site_fract_y
_atom_site_fract_z
Si Si1 0.215127 0.704552 0.195527
Si Si2 0.302058 0.179029 0.941237
Si Si3 0.382549 0.372410 0.883863
Si Si4 0.116581 0.500000 0.756256
Si Si5 0.616940 0.628738 0.382857
Si Si6 0.881795 0.500000 0.637785
O O1 0.250000 0.750000 0.250000
O O2 0.315353 0.665794 0.165197
O O3 0.143358 0.602659 0.207292
O O4 0.150500 0.798513 0.166686
O O5 0.345423 0.302628 0.934666
O O6 0.180770 0.170775 0.933600
O O7 0.349843 0.107596 0.894430
O O8 0.329539 0.137235 0.000000
O O9 0.500000 0.349463 0.870714
O O10 0.364415 0.500000 0.897240
O O11 0.166907 0.500000 0.697010
O O12 0.000000 0.500000 0.745044
O O13 0.500000 0.647156 0.395888
O O14 0.640579 0.500000 0.370910
O O15 0.000000 0.500000 0.642362
#
# Coordination Sequence:
#
# PCOD8292124 Si02
#       6
#    16  16  16   8  16   8
#     4  11  23  37  61  88 124 159 204 248 296 352
#     4  11  23  39  62  89 119 156 200 250 304 357
#     4  10  22  41  62  87 120 157 199 249 300 356
#     4  11  22  39  61  88 119 165 209 246 299 358
#     4  10  22  40  62  89 122 158 199 249 301 357
#     4  11  23  38  56  84 124 161 198 244 297 359
#
# _framework density 19.627018
#
# number of rings (size 3 to 8) (size 9 to 14) (size 15 to 20)
#    0.000    1.400    2.000    3.900    1.400    6.000 
#    0.000    4.000    0.000    0.000    0.000    2.800 
#    0.000    0.000    0.000    0.000    0.000    0.000 
#
# Total GULP energy -495857.138511 kJ/mol
# GULP energy per Si atom -12396.428463 kJ/mol
# Density = 1.958235 g / cm^3
# Si number density = 19.627018 Si / 1000 Ang^3
#
#
#
# Elastic Constant Matrix: (Units=GPa)
#
#
# Indices 1 2 3 4 5 6 
#
# 1 120.5797 57.9676 36.9195 0.0000 0.0000 0.0000
# 2 57.9676 136.8949 43.1113 0.0000 0.0000 0.0000
# 3 36.9195 43.1113 108.0733 0.0000 0.0000 0.0000
# 4 0.0000 0.0000 0.0000 20.0392 0.0000 0.0000
# 5 0.0000 0.0000 0.0000 0.0000 15.1948 0.0000
# 6 0.0000 0.0000 0.0000 0.0000 0.0000 33.6970
#
#
#
# Elastic Compliance Matrix: (Units=1/GPa)
#
#
# Indices 1 2 3 4 5 6 
#
# 1 0.010829 -0.003912 -0.002139 0.000000 0.000000 0.000000
# 2 -0.003912 0.009768 -0.002560 0.000000 0.000000 0.000000
# 3 -0.002139 -0.002560 0.011005 0.000000 0.000000 0.000000
# 4 0.000000 0.000000 0.000000 0.049902 0.000000 0.000000
# 5 0.000000 0.000000 0.000000 0.000000 0.065812 0.000000
# 6 0.000000 0.000000 0.000000 0.000000 0.000000 0.029676
#
#
# Mechanical properties :
#
#
# Convention : Reuss Voigt Hill
#
# Bulk Modulus (GPa) = 69.54191 71.28275 70.41233
# Shear Modulus (GPa) = 25.12485 28.95614 27.04050
#
# Velocity S-wave (km/s) = 3.58175 3.84516 3.71579
# Velocity P-wave (km/s) = 7.25354 7.49074 7.37310
#
# Compressibility (1/GPa) = 0.01437982
#
# Stress axis : x y z
#
# Youngs Moduli (GPa) = 92.34711 102.38011 90.86910
#
# Poissons Ratio (x) = 0.40049 0.19435
# Poissons Ratio (y) = 0.36124 0.23263
# Poissons Ratio (z) = 0.19751 0.26209
#
# Static dielectric constant tensor:
#      x y z
#    x 3.798130 0.000000 0.000000 
#    y 0.000000 4.073480 0.000000 
#    z 0.000000 0.000000 4.577560 
# 
# 
# High freq. dielectric constant tensor:
#      x y z
#    x 1.774890 0.000000 0.000000 
#    y 0.000000 1.779790 0.000000 
#    z 0.000000 0.000000 1.754300 
# 
# From -- ./inp_files/59641.got.cif
#   From: 2010.06.25/outbox.cif.g09.slc.cpg/sg71_30_cif.got.tgz:59641.got - 2010.06.28 04:59:45.
