data_PCOD8292427
_publ_section_title
;
Structure prediction by ZEFSAII (Michael W. Deem and Ramdas Pophale) SiO2 
 PCOD8292427
Probable space group: I M M M
;
_chemical_formula_sum "Si O2"
_cell_formula_units_Z 40
_cell_length_a 11.998103
_cell_length_b 7.598783
_cell_length_c 24.263518
_cell_angle_alpha 90.000000
_cell_angle_beta 90.000000
_cell_angle_gamma 90.000000
_cell_volume 2212.128741
_symmetry_space_group_name_H-M "I M M M"
_symmetry_group_IT_number 71
_symmetry_cell_setting 'orthorhombic'
loop_
_space_group_symop_operation_xyz
x,y,z
-x,-y,z
x,-y,-z
-x,y,-z
-x,-y,-z
x,y,-z
-x,y,z
x,-y,z
1/2+x,1/2+y,1/2+z
1/2-x,1/2-y,1/2+z
1/2+x,1/2-y,1/2-z
1/2-x,1/2+y,1/2-z
1/2-x,1/2-y,1/2-z
1/2+x,1/2+y,1/2-z
1/2-x,1/2+y,1/2+z
1/2+x,1/2-y,1/2+z
loop_
_atom_site_type_symbol
_atom_site_label
_atom_site_fract_x
_atom_site_fract_y
_atom_site_fract_z
Si Si1 0.786163 0.304903 0.873201
Si Si2 0.631334 0.000000 0.723297
Si Si3 0.368616 0.000000 0.149973
Si Si4 0.500000 0.790905 0.437429
O O1 0.753169 0.500000 0.896772
O O2 0.822487 0.326905 0.808829
O O3 0.681499 0.174526 0.878276
O O4 0.888788 0.220721 0.907413
O O5 0.500000 0.000000 0.717893
O O6 0.667969 0.000000 0.786364
O O7 0.500000 0.000000 0.140831
O O8 0.500000 0.722759 0.500000
O O9 0.500000 0.000000 0.432852
#
# Coordination Sequence:
#
# PCOD8292427 Si02
#       4
#    16   8   8   8
#     4   9  18  34  51  75 105 130 168 219 256 310
#     4   9  16  34  50  74 107 133 165 219 258 304
#     4  11  22  31  49  72 105 149 178 194 245 307
#     4   9  16  33  61  85 102 127 165 228 286 304
#
# _framework density 18.082131
#
# number of rings (size 3 to 8) (size 9 to 14) (size 15 to 20)
#    1.200    1.400    2.000    1.200    0.000    1.600 
#    0.000    2.000    4.400    2.400    0.000    5.600 
#    0.000    0.000    0.000    0.000    0.000    0.000 
#
# Total GULP energy -247787.550340 kJ/mol
# GULP energy per Si atom -12389.377517 kJ/mol
# Density = 1.804098 g / cm^3
# Si number density = 18.082131 Si / 1000 Ang^3
#
#
#
# Elastic Constant Matrix: (Units=GPa)
#
#
# Indices 1 2 3 4 5 6 
#
# 1 130.2887 63.1245 52.1560 0.0000 0.0000 0.0000
# 2 63.1245 87.7681 21.2646 0.0000 0.0000 0.0000
# 3 52.1560 21.2646 76.3055 0.0000 0.0000 0.0000
# 4 0.0000 0.0000 0.0000 -8.2847 0.0000 0.0000
# 5 0.0000 0.0000 0.0000 0.0000 16.8435 0.0000
# 6 0.0000 0.0000 0.0000 0.0000 0.0000 34.3526
#
#
#
# Elastic Compliance Matrix: (Units=1/GPa)
#
#
# Indices 1 2 3 4 5 6 
#
# 1 0.015200 -0.009024 -0.007874 0.000000 0.000000 0.000000
# 2 -0.009024 0.017576 0.001270 0.000000 0.000000 0.000000
# 3 -0.007874 0.001270 0.018134 0.000000 0.000000 0.000000
# 4 0.000000 0.000000 0.000000 -0.120705 0.000000 0.000000
# 5 0.000000 0.000000 0.000000 0.000000 0.059370 0.000000
# 6 0.000000 0.000000 0.000000 0.000000 0.000000 0.029110
#
#
# Mechanical properties :
#
#
# Convention : Reuss Voigt Hill
#
# Bulk Modulus (GPa) = 50.88403 63.05028 56.96716
# Shear Modulus (GPa) = 88.50781 19.10343 53.80562
#
# Velocity S-wave (km/s) = 7.00385 3.25388 5.46085
# Velocity P-wave (km/s) = 9.67506 7.00439 8.44596
#
# Compressibility (1/GPa) = 0.01965253
#
# Stress axis : x y z
#
# Youngs Moduli (GPa) = 65.79126 56.89503 55.14638
#
# Poissons Ratio (x) = 0.51342 0.43424
# Poissons Ratio (y) = 0.59370 -0.07003
# Poissons Ratio (z) = 0.51806 -0.07226
#
# Static dielectric constant tensor:
#      x y z
#    x 3.101050 0.000000 0.000000 
#    y 0.000000 3.018890 0.000000 
#    z 0.000000 0.000000 3.355380 
# 
# 
# High freq. dielectric constant tensor:
#      x y z
#    x 1.688460 0.000000 0.000000 
#    y 0.000000 1.681280 0.000000 
#    z 0.000000 0.000000 1.677650 
# 
# From -- ./inp_files/64026.got.cif
#   From: 2010.06.25/outbox.cif.g09.slc.cpg/sg71_33_cif.got.tgz:64026.got - 2010.06.28 04:59:45.
