data_PCOD8292064
_publ_section_title
;
Structure prediction by ZEFSAII (Michael W. Deem and Ramdas Pophale) SiO2 
 PCOD8292064
Probable space group: I M M M
;
_chemical_formula_sum "Si O2"
_cell_formula_units_Z 72
_cell_length_a 28.778377
_cell_length_b 9.942145
_cell_length_c 13.399742
_cell_angle_alpha 90.000000
_cell_angle_beta 90.000000
_cell_angle_gamma 90.000000
_cell_volume 3833.918061
_symmetry_space_group_name_H-M "I M M M"
_symmetry_group_IT_number 71
_symmetry_cell_setting 'orthorhombic'
loop_
_space_group_symop_operation_xyz
x,y,z
-x,-y,z
x,-y,-z
-x,y,-z
-x,-y,-z
x,y,-z
-x,y,z
x,-y,z
1/2+x,1/2+y,1/2+z
1/2-x,1/2-y,1/2+z
1/2+x,1/2-y,1/2-z
1/2-x,1/2+y,1/2-z
1/2-x,1/2-y,1/2-z
1/2+x,1/2+y,1/2-z
1/2-x,1/2+y,1/2+z
1/2+x,1/2-y,1/2+z
loop_
_atom_site_type_symbol
_atom_site_label
_atom_site_fract_x
_atom_site_fract_y
_atom_site_fract_z
Si Si1 0.232945 0.151684 0.883689
Si Si2 0.820737 0.656557 0.253604
Si Si3 0.419945 0.250707 0.741982
Si Si4 0.500000 0.659294 0.883054
Si Si5 0.053729 0.500000 0.109947
Si Si6 0.445123 0.500000 0.382469
O O1 0.197263 0.261184 0.841989
O O2 0.284858 0.176352 0.843453
O O3 0.216513 0.000000 0.855774
O O4 0.235414 0.173759 0.000000
O O5 0.826962 0.500000 0.223969
O O6 0.869284 0.722230 0.288399
O O7 0.454521 0.274045 0.834415
O O8 0.419853 0.374187 0.666257
O O9 0.433640 0.127938 0.673604
O O10 0.500000 0.500000 0.863108
O O11 0.500000 0.692945 0.000000
O O12 0.000000 0.500000 0.089075
O O13 0.078426 0.500000 0.000000
O O14 0.500000 0.500000 0.357562
O O15 0.436065 0.500000 0.500000
#
# Coordination Sequence:
#
# PCOD8292064 Si02
#       6
#    16  16  16   8   8   8
#     4   9  20  40  62  84 112 151 198 242 288 348
#     4  10  22  38  60  86 121 154 186 241 301 350
#     4  12  21  40  60  88 123 158 198 248 297 350
#     4  11  24  43  64  87 119 163 209 255 296 335
#     4  11  22  36  58  87 126 162 192 238 303 362
#     4  11  22  38  60  85 116 162 208 242 291 356
#
# _framework density 18.779744000000001
#
# number of rings (size 3 to 8) (size 9 to 14) (size 15 to 20)
#    0.000    1.444    4.444    0.667    1.556    4.889 
#    0.000    1.111    0.000    0.000    0.000    0.000 
#    0.000    0.000    0.000    0.000    0.000    0.000 
#
# Total GULP energy -446386.833390 kJ/mol
# GULP energy per Si atom -12399.634261 kJ/mol
# Density = 1.873700 g / cm^3
# Si number density = 18.779744 Si / 1000 Ang^3
#
#
#
# Elastic Constant Matrix: (Units=GPa)
#
#
# Indices 1 2 3 4 5 6 
#
# 1 132.3074 59.5596 50.0777 0.0000 0.0000 0.0000
# 2 59.5596 141.0487 57.9956 0.0000 0.0000 0.0000
# 3 50.0777 57.9956 117.0626 0.0000 0.0000 0.0000
# 4 0.0000 0.0000 0.0000 32.3106 0.0000 0.0000
# 5 0.0000 0.0000 0.0000 0.0000 18.6293 0.0000
# 6 0.0000 0.0000 0.0000 0.0000 0.0000 30.2914
#
#
#
# Elastic Compliance Matrix: (Units=1/GPa)
#
#
# Indices 1 2 3 4 5 6 
#
# 1 0.009987 -0.003090 -0.002741 0.000000 0.000000 0.000000
# 2 -0.003090 0.009859 -0.003563 0.000000 0.000000 0.000000
# 3 -0.002741 -0.003563 0.011480 0.000000 0.000000 0.000000
# 4 0.000000 0.000000 0.000000 0.030950 0.000000 0.000000
# 5 0.000000 0.000000 0.000000 0.000000 0.053679 0.000000
# 6 0.000000 0.000000 0.000000 0.000000 0.000000 0.033013
#
#
# Mechanical properties :
#
#
# Convention : Reuss Voigt Hill
#
# Bulk Modulus (GPa) = 79.75548 80.63161 80.19355
# Shear Modulus (GPa) = 29.08078 31.09865 30.08972
#
# Velocity S-wave (km/s) = 3.93939 4.07377 4.00715
# Velocity P-wave (km/s) = 7.95316 8.07193 8.01277
#
# Compressibility (1/GPa) = 0.01253832
#
# Stress axis : x y z
#
# Youngs Moduli (GPa) = 100.13354 101.42611 87.10608
#
# Poissons Ratio (x) = 0.31339 0.23879
# Poissons Ratio (y) = 0.30939 0.31034
# Poissons Ratio (z) = 0.27450 0.36136
#
# Static dielectric constant tensor:
#      x y z
#    x 3.684960 0.000000 0.000000 
#    y 0.000000 3.622090 0.000000 
#    z 0.000000 0.000000 3.371260 
# 
# 
# High freq. dielectric constant tensor:
#      x y z
#    x 1.732460 0.000000 0.000000 
#    y 0.000000 1.745750 0.000000 
#    z 0.000000 0.000000 1.724680 
# 
# From -- ./inp_files/16393.got.cif
#   From: 2010.06.25/outbox.cif.g09.slc.cpg/sg71_9_cif.got.tgz:16393.got - 2010.06.28 04:59:45.
