data_PCOD8292073
_publ_section_title
;
Structure prediction by ZEFSAII (Michael W. Deem and Ramdas Pophale) SiO2 
 PCOD8292073
Probable space group: I M M M
;
_chemical_formula_sum "Si O2"
_cell_formula_units_Z 88
_cell_length_a 28.630483
_cell_length_b 9.213412
_cell_length_c 17.525999
_cell_angle_alpha 90.000000
_cell_angle_beta 90.000000
_cell_angle_gamma 90.000000
_cell_volume 4623.085755
_symmetry_space_group_name_H-M "I M M M"
_symmetry_group_IT_number 71
_symmetry_cell_setting 'orthorhombic'
loop_
_space_group_symop_operation_xyz
x,y,z
-x,-y,z
x,-y,-z
-x,y,-z
-x,-y,-z
x,y,-z
-x,y,z
x,-y,z
1/2+x,1/2+y,1/2+z
1/2-x,1/2-y,1/2+z
1/2+x,1/2-y,1/2-z
1/2-x,1/2+y,1/2-z
1/2-x,1/2-y,1/2-z
1/2+x,1/2+y,1/2-z
1/2-x,1/2+y,1/2+z
1/2+x,1/2-y,1/2+z
loop_
_atom_site_type_symbol
_atom_site_label
_atom_site_fract_x
_atom_site_fract_y
_atom_site_fract_z
Si Si1 0.199040 0.833173 0.412364
Si Si2 0.597922 0.670128 0.141278
Si Si3 0.711677 0.663572 0.409165
Si Si4 0.945977 0.332700 0.219961
Si Si5 0.055201 0.664198 0.500000
Si Si6 0.621925 0.833099 0.586305
O O1 0.187893 0.791158 0.500000
O O2 0.153217 0.799676 0.362901
O O3 0.241542 0.739867 0.377741
O O4 0.214013 0.000000 0.406654
O O5 0.587043 0.500000 0.133054
O O6 0.579774 0.728139 0.221396
O O7 0.571646 0.753150 0.074671
O O8 0.712442 0.672030 0.500000
O O9 0.710903 0.500000 0.378359
O O10 0.665270 0.742964 0.379125
O O11 0.939785 0.500000 0.245650
O O12 0.923819 0.305365 0.136911
O O13 0.000000 0.289688 0.214788
O O14 0.075194 0.500000 0.500000
O O15 0.000000 0.660720 0.500000
O O16 0.609730 0.783953 0.500000
O O17 0.637384 0.000000 0.588061
#
# Coordination Sequence:
#
# PCOD8292073 Si02
#       6
#    16  16  16  16   8  16
#     4   9  17  32  52  76 108 144 183 224 266 316
#     4  11  22  37  56  81 111 147 190 231 276 328
#     4   9  17  29  50  82 113 140 175 221 273 326
#     4  10  22  39  57  80 111 144 182 231 284 334
#     4  11  23  37  55  79 109 147 191 237 280 323
#     4   9  18  35  59  83 108 143 183 224 276 336
#
# _framework density 19.034905999999999
#
# number of rings (size 3 to 8) (size 9 to 14) (size 15 to 20)
#    0.000    2.273    0.909    1.909    0.000    8.000 
#    0.000    2.727    0.000    0.000    0.000    3.818 
#    0.000    0.000    0.000    0.000    0.000    0.000 
#
# Total GULP energy -545689.532209 kJ/mol
# GULP energy per Si atom -12402.034823 kJ/mol
# Density = 1.899158 g / cm^3
# Si number density = 19.034906 Si / 1000 Ang^3
#
#
#
# Elastic Constant Matrix: (Units=GPa)
#
#
# Indices 1 2 3 4 5 6 
#
# 1 132.8670 65.1686 51.5404 0.0000 0.0000 0.0000
# 2 65.1686 106.6952 45.2129 0.0000 0.0000 0.0000
# 3 51.5404 45.2129 79.9040 0.0000 0.0000 0.0000
# 4 0.0000 0.0000 0.0000 25.2240 0.0000 0.0000
# 5 0.0000 0.0000 0.0000 0.0000 29.7154 0.0000
# 6 0.0000 0.0000 0.0000 0.0000 0.0000 30.8884
#
#
#
# Elastic Compliance Matrix: (Units=1/GPa)
#
#
# Indices 1 2 3 4 5 6 
#
# 1 0.011956 -0.005307 -0.004709 0.000000 0.000000 0.000000
# 2 -0.005307 0.014684 -0.004886 0.000000 0.000000 0.000000
# 3 -0.004709 -0.004886 0.018317 0.000000 0.000000 0.000000
# 4 0.000000 0.000000 0.000000 0.039645 0.000000 0.000000
# 5 0.000000 0.000000 0.000000 0.000000 0.033653 0.000000
# 6 0.000000 0.000000 0.000000 0.000000 0.000000 0.032375
#
#
# Mechanical properties :
#
#
# Convention : Reuss Voigt Hill
#
# Bulk Modulus (GPa) = 65.99070 71.47889 68.73480
# Shear Modulus (GPa) = 26.95640 27.66850 27.31245
#
# Velocity S-wave (km/s) = 3.76727 3.81670 3.79207
# Velocity P-wave (km/s) = 7.32575 7.55354 7.44052
#
# Compressibility (1/GPa) = 0.01515365
#
# Stress axis : x y z
#
# Youngs Moduli (GPa) = 83.63959 68.09909 54.59405
#
# Poissons Ratio (x) = 0.36142 0.25708
# Poissons Ratio (y) = 0.44389 0.26673
# Poissons Ratio (z) = 0.39386 0.33272
#
# Static dielectric constant tensor:
#      x y z
#    x 3.574400 0.000000 0.000000 
#    y 0.000000 3.603890 0.000000 
#    z 0.000000 0.000000 3.290010 
# 
# 
# High freq. dielectric constant tensor:
#      x y z
#    x 1.748970 0.000000 0.000000 
#    y 0.000000 1.743440 0.000000 
#    z 0.000000 0.000000 1.715270 
# 
# From -- ./inp_files/8827.got.cif
#   From: 2010.06.25/outbox.cif.g09.slc.cpg/sg71_5_cif.got.tgz:8827.got - 2010.06.28 04:59:45.
