data_PCOD8292818
_publ_section_title
;
Structure prediction by ZEFSAII (Michael W. Deem and Ramdas Pophale) SiO2 
 PCOD8292818
Probable space group: I B A M
;
_chemical_formula_sum "Si O2"
_cell_formula_units_Z 68
_cell_length_a 12.813600
_cell_length_b 24.053454
_cell_length_c 12.927903
_cell_angle_alpha 90.000000
_cell_angle_beta 90.000000
_cell_angle_gamma 90.000000
_cell_volume 3984.526283
_symmetry_space_group_name_H-M "I B A M"
_symmetry_group_IT_number 72
_symmetry_cell_setting 'orthorhombic'
loop_
_space_group_symop_operation_xyz
x,y,z
-x,-y,z
x,-y,1/2-z
-x,y,1/2-z
-x,-y,-z
x,y,-z
-x,y,1/2+z
x,-y,1/2+z
1/2+x,1/2+y,1/2+z
1/2-x,1/2-y,1/2+z
1/2+x,1/2-y,-z
1/2-x,1/2+y,-z
1/2-x,1/2-y,1/2-z
1/2+x,1/2+y,1/2-z
1/2-x,1/2+y,z
1/2+x,1/2-y,z
loop_
_atom_site_type_symbol
_atom_site_label
_atom_site_fract_x
_atom_site_fract_y
_atom_site_fract_z
Si Si1 0.543127 0.690561 0.886424
Si Si2 0.859008 0.729855 0.882527
Si Si3 0.883703 0.089030 0.617375
Si Si4 0.000000 0.000000 0.750000
Si Si5 0.769708 0.173988 0.269835
O O1 0.475245 0.746310 0.867038
O O2 0.469662 0.636912 0.880709
O O3 0.629484 0.685577 0.800776
O O4 0.594978 0.693231 0.000000
O O5 0.772442 0.778037 0.857948
O O6 0.834101 0.679048 0.802056
O O7 0.843064 0.709355 0.000000
O O8 0.854536 0.072175 0.500000
O O9 0.780336 0.113453 0.676237
O O10 0.924753 0.035436 0.676866
#
# Coordination Sequence:
#
# PCOD8292818 Si02
#       5
#    16  16  16   4  16
#     4   9  16  28  42  59  85 116 150 184 216 257
#     4   9  17  25  39  60  79 109 151 183 214 258
#     4  10  19  29  42  59  81 110 146 183 214 250
#     4  12  18  32  44  62  84 112 152 184 216 256
#     4  10  16  28  42  57  85 117 146 182 220 254
#
# _framework density 17.066020000000002
#
# number of rings (size 3 to 8) (size 9 to 14) (size 15 to 20)
#    0.000    2.353    2.353    5.294    0.000    0.000 
#    0.000    0.000    0.000    2.824    0.000    0.000 
#    0.000    0.000    0.000   38.118    0.000  268.471 
#
# Total GULP energy -421250.576314 kJ/mol
# GULP energy per Si atom -12389.722833 kJ/mol
# Density = 1.702718 g / cm^3
# Si number density = 17.066020 Si / 1000 Ang^3
#
#
#
# Elastic Constant Matrix: (Units=GPa)
#
#
# Indices 1 2 3 4 5 6 
#
# 1 23.0649 13.4026 21.8152 0.0000 0.0000 0.0000
# 2 13.4026 73.7918 45.8147 -0.0004 0.0000 0.0000
# 3 21.8152 45.8147 132.8041 -0.0002 -0.0002 0.0000
# 4 0.0000 -0.0004 -0.0002 25.8371 0.0000 0.0000
# 5 0.0000 0.0000 -0.0002 0.0000 18.2465 0.0000
# 6 0.0000 0.0000 0.0000 0.0000 0.0000 23.3260
#
#
#
# Elastic Compliance Matrix: (Units=1/GPa)
#
#
# Indices 1 2 3 4 5 6 
#
# 1 0.052950 -0.005366 -0.006847 0.000000 0.000000 0.000000
# 2 -0.005366 0.017789 -0.005255 0.000000 0.000000 0.000000
# 3 -0.006847 -0.005255 0.010468 0.000000 0.000000 0.000000
# 4 0.000000 0.000000 0.000000 0.038704 0.000000 0.000000
# 5 0.000000 0.000000 0.000000 0.000000 0.054805 0.000000
# 6 0.000000 0.000000 0.000000 0.000000 0.000000 0.042871
#
#
# Mechanical properties :
#
#
# Convention : Reuss Voigt Hill
#
# Bulk Modulus (GPa) = 21.61228 43.52511 32.56869
# Shear Modulus (GPa) = 18.66044 23.39046 21.02545
#
# Velocity S-wave (km/s) = 3.31029 3.70616 3.51380
# Velocity P-wave (km/s) = 5.22514 6.62371 5.96555
#
# Compressibility (1/GPa) = 0.04626999
#
# Stress axis : x y z
#
# Youngs Moduli (GPa) = 18.88576 56.21382 95.53323
#
# Poissons Ratio (x) = 0.30166 0.65408
# Poissons Ratio (y) = 0.10135 0.50207
# Poissons Ratio (z) = 0.12930 0.29543
#
# Static dielectric constant tensor:
#      x y z
#    x 3.002250 0.000000 0.000000 
#    y 0.000000 2.995390 0.000000 
#    z 0.000000 0.000000 3.908950 
# 
# 
# High freq. dielectric constant tensor:
#      x y z
#    x 1.612460 0.000000 0.000000 
#    y 0.000000 1.608270 0.000000 
#    z 0.000000 0.000000 1.695780 
# 
# From -- ./inp_files/19967.got.cif
#   From: 2010.03.12/outbox.cif.g09.slc.cpg/sg72_10_cif.got.tgz:19967.got - 2010.04.16 14:54:00.
