data_PCOD8292155
_publ_section_title
;
Structure prediction by ZEFSAII (Michael W. Deem and Ramdas Pophale) SiO2 
 PCOD8292155
Probable space group: I M M M
;
_chemical_formula_sum "Si O2"
_cell_formula_units_Z 72
_cell_length_a 27.216699
_cell_length_b 8.671748
_cell_length_c 14.529394
_cell_angle_alpha 90.000000
_cell_angle_beta 90.000000
_cell_angle_gamma 90.000000
_cell_volume 3429.174614
_symmetry_space_group_name_H-M "I M M M"
_symmetry_group_IT_number 71
_symmetry_cell_setting 'orthorhombic'
loop_
_space_group_symop_operation_xyz
x,y,z
-x,-y,z
x,-y,-z
-x,y,-z
-x,-y,-z
x,y,-z
-x,y,z
x,-y,z
1/2+x,1/2+y,1/2+z
1/2-x,1/2-y,1/2+z
1/2+x,1/2-y,1/2-z
1/2-x,1/2+y,1/2-z
1/2-x,1/2-y,1/2-z
1/2+x,1/2+y,1/2-z
1/2-x,1/2+y,1/2+z
1/2+x,1/2-y,1/2+z
loop_
_atom_site_type_symbol
_atom_site_label
_atom_site_fract_x
_atom_site_fract_y
_atom_site_fract_z
Si Si1 0.763232 0.682841 0.651805
Si Si2 0.500000 0.818074 0.395314
Si Si3 0.088513 0.179630 0.781335
Si Si4 0.168816 0.325386 0.899541
Si Si5 0.373262 0.819036 0.895783
O O1 0.758382 0.500000 0.649054
O O2 0.750000 0.750000 0.750000
O O3 0.723391 0.759217 0.584469
O O4 0.817278 0.735018 0.620341
O O5 0.500000 0.750385 0.500000
O O6 0.547512 0.766312 0.339467
O O7 0.500000 0.000000 0.400468
O O8 0.140711 0.218328 0.827204
O O9 0.090083 0.233300 0.674892
O O10 0.077311 0.000000 0.785126
O O11 0.170137 0.500000 0.860067
O O12 0.142889 0.323529 0.000000
O O13 0.378312 0.000000 0.878227
O O14 0.388826 0.775806 0.000000
#
# Coordination Sequence:
#
# PCOD8292155 Si02
#       5
#    16   8  16  16  16
#     4  11  21  35  58  88 124 167 213 260 312 366
#     4  11  25  47  74  99 126 161 199 248 312 379
#     4  12  25  41  65  95 127 161 202 258 315 374
#     4  11  23  38  58  86 123 167 212 257 308 369
#     4  10  22  41  64  89 124 171 217 260 310 370
#
# _framework density 20.996307000000002
#
# number of rings (size 3 to 8) (size 9 to 14) (size 15 to 20)
#    0.000    1.000    2.222    5.000    0.000    7.556 
#    0.000    0.556    0.000    3.333    0.000    0.000 
#    0.000    0.000    0.000    0.000    0.000    0.000 
#
# Total GULP energy -446428.086782 kJ/mol
# GULP energy per Si atom -12400.780188 kJ/mol
# Density = 2.094852 g / cm^3
# Si number density = 20.996307 Si / 1000 Ang^3
#
#
#
# Elastic Constant Matrix: (Units=GPa)
#
#
# Indices 1 2 3 4 5 6 
#
# 1 85.9560 27.4655 48.2595 0.0000 0.0000 0.0000
# 2 27.4655 87.0876 43.8246 0.0000 0.0000 0.0000
# 3 48.2595 43.8246 154.8383 0.0000 0.0000 0.0000
# 4 0.0000 0.0000 0.0000 22.9809 0.0000 0.0000
# 5 0.0000 0.0000 0.0000 0.0000 26.9817 0.0000
# 6 0.0000 0.0000 0.0000 0.0000 0.0000 34.0764
#
#
#
# Elastic Compliance Matrix: (Units=1/GPa)
#
#
# Indices 1 2 3 4 5 6 
#
# 1 0.014628 -0.002704 -0.003794 0.000000 0.000000 0.000000
# 2 -0.002704 0.013890 -0.003088 0.000000 0.000000 0.000000
# 3 -0.003794 -0.003088 0.008515 0.000000 0.000000 0.000000
# 4 0.000000 0.000000 0.000000 0.043514 0.000000 0.000000
# 5 0.000000 0.000000 0.000000 0.000000 0.037062 0.000000
# 6 0.000000 0.000000 0.000000 0.000000 0.000000 0.029346
#
#
# Mechanical properties :
#
#
# Convention : Reuss Voigt Hill
#
# Bulk Modulus (GPa) = 55.99197 62.99791 59.49494
# Shear Modulus (GPa) = 29.05607 30.69661 29.87634
#
# Velocity S-wave (km/s) = 3.72407 3.82776 3.77627
# Velocity P-wave (km/s) = 6.72436 7.04309 6.88557
#
# Compressibility (1/GPa) = 0.01785970
#
# Stress axis : x y z
#
# Youngs Moduli (GPa) = 68.36225 71.99580 117.44072
#
# Poissons Ratio (x) = 0.19469 0.44555
# Poissons Ratio (y) = 0.18486 0.36271
# Poissons Ratio (z) = 0.25935 0.22235
#
# Static dielectric constant tensor:
#      x y z
#    x 3.808830 0.000000 0.000000 
#    y 0.000000 3.777190 0.000000 
#    z 0.000000 0.000000 4.055050 
# 
# 
# High freq. dielectric constant tensor:
#      x y z
#    x 1.804720 0.000000 0.000000 
#    y 0.000000 1.821230 0.000000 
#    z 0.000000 0.000000 1.842420 
# 
# From -- ./inp_files/14341.got.cif
#   From: 2010.06.25/outbox.cif.g09.slc.cpg/sg71_8_cif.got.tgz:14341.got - 2010.06.28 04:59:45.
