data_PCOD8292300
_publ_section_title
;
Structure prediction by ZEFSAII (Michael W. Deem and Ramdas Pophale) SiO2 
 PCOD8292300
Probable space group: I M M M
;
_chemical_formula_sum "Si O2"
_cell_formula_units_Z 96
_cell_length_a 11.714218
_cell_length_b 16.336852
_cell_length_c 27.634032
_cell_angle_alpha 90.000000
_cell_angle_beta 90.000000
_cell_angle_gamma 90.000000
_cell_volume 5288.419924
_symmetry_space_group_name_H-M "I M M M"
_symmetry_group_IT_number 71
_symmetry_cell_setting 'orthorhombic'
loop_
_space_group_symop_operation_xyz
x,y,z
-x,-y,z
x,-y,-z
-x,y,-z
-x,-y,-z
x,y,-z
-x,y,z
x,-y,z
1/2+x,1/2+y,1/2+z
1/2-x,1/2-y,1/2+z
1/2+x,1/2-y,1/2-z
1/2-x,1/2+y,1/2-z
1/2-x,1/2-y,1/2-z
1/2+x,1/2+y,1/2-z
1/2-x,1/2+y,1/2+z
1/2+x,1/2-y,1/2+z
loop_
_atom_site_type_symbol
_atom_site_label
_atom_site_fract_x
_atom_site_fract_y
_atom_site_fract_z
Si Si1 0.367543 0.756807 0.445480
Si Si2 0.000000 0.093627 0.762725
Si Si3 0.737840 0.671752 0.857516
Si Si4 0.130587 0.909737 0.897345
Si Si5 0.126651 0.406371 0.777728
Si Si6 0.273721 0.341665 0.694281
Si Si7 0.000000 0.092709 0.648789
O O1 0.328852 0.777187 0.500000
O O2 0.500000 0.777069 0.437613
O O3 0.296737 0.813634 0.409230
O O4 0.344386 0.660019 0.436889
O O5 0.891240 0.147432 0.776924
O O6 0.000000 0.085361 0.705784
O O7 0.000000 0.000000 0.784578
O O8 0.799551 0.601232 0.826670
O O9 0.752110 0.750054 0.823153
O O10 0.609207 0.644509 0.869062
O O11 0.218217 0.900254 0.852678
O O12 0.000000 0.899861 0.877752
O O13 0.148156 0.000000 0.920583
O O14 0.126646 0.500000 0.762810
O O15 0.171086 0.360809 0.730084
O O16 0.000000 0.372988 0.788587
O O17 0.000000 0.000000 0.626830
#
# Coordination Sequence:
#
# PCOD8292300 Si02
#       7
#    16   8  16  16  16  16   8
#     4   9  19  36  56  81 110 141 178 224 282 338
#     4  11  20  32  54  81 115 157 190 219 261 310
#     4  11  23  36  58  80 107 140 185 229 277 329
#     4   9  16  27  48  79 113 147 182 219 259 308
#     4  11  23  35  50  75 112 150 182 221 268 320
#     4  11  21  31  52  79 117 151 189 221 257 313
#     4  11  24  40  59  82 107 142 185 233 282 330
#
# _framework density 18.152871000000001
#
# number of rings (size 3 to 8) (size 9 to 14) (size 15 to 20)
#    0.000    1.667    2.500    3.000    3.500    0.333 
#    0.000    2.083    0.000    2.500    0.000    5.833 
#    0.000    3.000    0.000    0.000    0.000    0.000 
#
# Total GULP energy -595059.409682 kJ/mol
# GULP energy per Si atom -12397.071035 kJ/mol
# Density = 1.811155 g / cm^3
# Si number density = 18.152871 Si / 1000 Ang^3
#
#
#
# Elastic Constant Matrix: (Units=GPa)
#
#
# Indices 1 2 3 4 5 6 
#
# 1 110.0468 36.2177 49.3288 0.0000 0.0000 0.0000
# 2 36.2177 72.5789 30.3246 0.0000 0.0000 0.0000
# 3 49.3288 30.3246 109.5801 0.0000 0.0000 0.0000
# 4 0.0000 0.0000 0.0000 14.2453 0.0000 0.0000
# 5 0.0000 0.0000 0.0000 0.0000 93.9564 0.0000
# 6 0.0000 0.0000 0.0000 0.0000 0.0000 40.2255
#
#
#
# Elastic Compliance Matrix: (Units=1/GPa)
#
#
# Indices 1 2 3 4 5 6 
#
# 1 0.012515 -0.004400 -0.004416 0.000000 0.000000 0.000000
# 2 -0.004400 0.017126 -0.002759 0.000000 0.000000 0.000000
# 3 -0.004416 -0.002759 0.011877 0.000000 0.000000 0.000000
# 4 0.000000 0.000000 0.000000 0.070199 0.000000 0.000000
# 5 0.000000 0.000000 0.000000 0.000000 0.010643 0.000000
# 6 0.000000 0.000000 0.000000 0.000000 0.000000 0.024860
#
#
# Mechanical properties :
#
#
# Convention : Reuss Voigt Hill
#
# Bulk Modulus (GPa) = 54.44031 58.21646 56.32838
# Shear Modulus (GPa) = 28.32989 41.44109 34.88549
#
# Velocity S-wave (km/s) = 3.95476 4.78315 4.38855
# Velocity P-wave (km/s) = 7.13502 7.91482 7.53502
#
# Compressibility (1/GPa) = 0.01836874
#
# Stress axis : x y z
#
# Youngs Moduli (GPa) = 79.90686 58.38949 84.19551
#
# Poissons Ratio (x) = 0.25690 0.37181
# Poissons Ratio (y) = 0.35158 0.23228
# Poissons Ratio (z) = 0.35287 0.16109
#
# Static dielectric constant tensor:
#      x y z
#    x 3.365430 0.000000 0.000000 
#    y 0.000000 3.416160 0.000000 
#    z 0.000000 0.000000 3.201770 
# 
# 
# High freq. dielectric constant tensor:
#      x y z
#    x 1.689430 0.000000 0.000000 
#    y 0.000000 1.707690 0.000000 
#    z 0.000000 0.000000 1.684300 
# 
# From -- ./inp_files/69264.got.cif
#   From: 2010.06.25/outbox.cif.g09.slc.cpg/sg71_35_cif.got.tgz:69264.got - 2010.06.28 04:59:45.
