data_PCOD8292885
_publ_section_title
;
Structure prediction by ZEFSAII (Michael W. Deem and Ramdas Pophale) SiO2 
 PCOD8292885
Probable space group: I B A M
;
_chemical_formula_sum "Si O2"
_cell_formula_units_Z 128
_cell_length_a 13.317711
_cell_length_b 24.841167
_cell_length_c 21.539841
_cell_angle_alpha 90.000000
_cell_angle_beta 90.000000
_cell_angle_gamma 90.000000
_cell_volume 7125.971382
_symmetry_space_group_name_H-M "I B A M"
_symmetry_group_IT_number 72
_symmetry_cell_setting 'orthorhombic'
loop_
_space_group_symop_operation_xyz
x,y,z
-x,-y,z
x,-y,1/2-z
-x,y,1/2-z
-x,-y,-z
x,y,-z
-x,y,1/2+z
x,-y,1/2+z
1/2+x,1/2+y,1/2+z
1/2-x,1/2-y,1/2+z
1/2+x,1/2-y,-z
1/2-x,1/2+y,-z
1/2-x,1/2-y,1/2-z
1/2+x,1/2+y,1/2-z
1/2-x,1/2+y,z
1/2+x,1/2-y,z
loop_
_atom_site_type_symbol
_atom_site_label
_atom_site_fract_x
_atom_site_fract_y
_atom_site_fract_z
Si Si1 0.938669 0.101403 0.187288
Si Si2 0.266101 0.808312 0.674988
Si Si3 0.739558 0.036679 0.810028
Si Si4 0.396083 0.104160 0.763468
Si Si5 0.253659 0.889337 0.430860
Si Si6 0.598231 0.032217 0.622626
Si Si7 0.455835 0.440431 0.570807
Si Si8 0.105925 0.781124 0.773680
O O1 0.846237 0.062101 0.175167
O O2 0.901686 0.162195 0.192196
O O3 0.000000 0.084947 0.250000
O O4 0.002760 0.098772 0.124279
O O5 0.309639 0.858499 0.711628
O O6 0.240522 0.833620 0.608062
O O7 0.168550 0.786604 0.710076
O O8 0.346881 0.759792 0.675706
O O9 0.652652 0.080492 0.798498
O O10 0.755828 0.000000 0.750000
O O11 0.696888 0.005420 0.869850
O O12 0.500000 0.135910 0.750000
O O13 0.428350 0.056096 0.809960
O O14 0.252016 0.867073 0.500000
O O15 0.361800 0.918834 0.420382
O O16 0.164426 0.933271 0.420469
O O17 0.500000 0.000000 0.596093
O O18 0.500000 0.500000 0.583828
O O19 0.486185 0.423289 0.500000
O O20 0.000000 0.758572 0.750000
#
# Coordination Sequence:
#
# PCOD8292885 Si02
#       8
#    16  16  16  16  16  16  16  16
#     4  11  22  33  54  83 111 137 181 232 275 324
#     4  10  20  35  55  77 106 138 177 221 275 327
#     4  10  20  29  45  78 112 141 174 217 267 322
#     4  10  17  29  47  73 105 141 171 210 263 325
#     4  10  21  37  55  76 105 144 188 223 255 318
#     4  10  19  30  48  73 106 142 178 217 260 311
#     4  10  22  38  56  79 112 152 182 215 275 338
#     4  10  20  35  54  82 108 133 167 230 289 327
#
# _framework density 17.962463
#
# number of rings (size 3 to 8) (size 9 to 14) (size 15 to 20)
#    0.000    1.875    2.500    2.625    5.250    0.250 
#    0.000    0.625    0.000    0.750    0.000    0.000 
#    0.000    0.000    0.000    0.000    0.000    0.000 
#
# Total GULP energy -792878.451818 kJ/mol
# GULP energy per Si atom -12388.725810 kJ/mol
# Density = 1.792158 g / cm^3
# Si number density = 17.962463 Si / 1000 Ang^3
#
#
#
# Elastic Constant Matrix: (Units=GPa)
#
#
# Indices 1 2 3 4 5 6 
#
# 1 108.2434 33.7526 37.4402 0.0000 0.0000 0.0000
# 2 33.7526 74.8152 33.5652 0.0000 0.0000 0.0000
# 3 37.4402 33.5652 90.5728 0.0000 0.0000 0.0000
# 4 0.0000 0.0000 0.0000 17.0813 0.0000 0.0000
# 5 0.0000 0.0000 0.0000 0.0000 17.2778 0.0000
# 6 0.0000 0.0000 0.0000 0.0000 0.0000 31.8421
#
#
#
# Elastic Compliance Matrix: (Units=1/GPa)
#
#
# Indices 1 2 3 4 5 6 
#
# 1 0.011570 -0.003687 -0.003416 0.000000 0.000000 0.000000
# 2 -0.003687 0.017207 -0.004852 0.000000 0.000000 0.000000
# 3 -0.003416 -0.004852 0.014251 0.000000 0.000000 0.000000
# 4 0.000000 0.000000 0.000000 0.058544 0.000000 0.000000
# 5 0.000000 0.000000 0.000000 0.000000 0.057878 0.000000
# 6 0.000000 0.000000 0.000000 0.000000 0.000000 0.031405
#
#
# Mechanical properties :
#
#
# Convention : Reuss Voigt Hill
#
# Bulk Modulus (GPa) = 52.31146 53.68304 52.99725
# Shear Modulus (GPa) = 22.61036 24.49846 23.55441
#
# Velocity S-wave (km/s) = 3.55174 3.69707 3.62513
# Velocity P-wave (km/s) = 6.78275 6.94086 6.86226
#
# Compressibility (1/GPa) = 0.01911627
#
# Stress axis : x y z
#
# Youngs Moduli (GPa) = 86.43214 58.11707 70.16906
#
# Poissons Ratio (x) = 0.21428 0.23972
# Poissons Ratio (y) = 0.31867 0.34049
# Poissons Ratio (z) = 0.29528 0.28201
#
# Static dielectric constant tensor:
#      x y z
#    x 3.498590 0.000000 0.000000 
#    y 0.000000 3.308150 0.000000 
#    z 0.000000 0.000000 3.220750 
# 
# 
# High freq. dielectric constant tensor:
#      x y z
#    x 1.712600 0.000000 0.000000 
#    y 0.000000 1.683840 0.000000 
#    z 0.000000 0.000000 1.664000 
# 
# From -- ./inp_files/43754.got.cif
#   From: 2010.03.12/outbox.cif.g09.slc.cpg/sg72_22_cif.got.tgz:43754.got - 2010.04.16 14:54:00.
