data_PCOD8292334
_publ_section_title
;
Structure prediction by ZEFSAII (Michael W. Deem and Ramdas Pophale) SiO2 
 PCOD8292334
Probable space group: I M M M
;
_chemical_formula_sum "Si O2"
_cell_formula_units_Z 72
_cell_length_a 9.126619
_cell_length_b 28.702885
_cell_length_c 15.289494
_cell_angle_alpha 90.000000
_cell_angle_beta 90.000000
_cell_angle_gamma 90.000000
_cell_volume 4005.240368
_symmetry_space_group_name_H-M "I M M M"
_symmetry_group_IT_number 71
_symmetry_cell_setting 'orthorhombic'
loop_
_space_group_symop_operation_xyz
x,y,z
-x,-y,z
x,-y,-z
-x,y,-z
-x,-y,-z
x,y,-z
-x,y,z
x,-y,z
1/2+x,1/2+y,1/2+z
1/2-x,1/2-y,1/2+z
1/2+x,1/2-y,1/2-z
1/2-x,1/2+y,1/2-z
1/2-x,1/2-y,1/2-z
1/2+x,1/2+y,1/2-z
1/2-x,1/2+y,1/2+z
1/2+x,1/2-y,1/2+z
loop_
_atom_site_type_symbol
_atom_site_label
_atom_site_fract_x
_atom_site_fract_y
_atom_site_fract_z
Si Si1 0.674054 0.697683 0.903629
Si Si2 0.167384 0.303136 0.398878
Si Si3 0.327075 0.949071 0.500000
Si Si4 0.671535 0.054445 0.689435
Si Si5 0.326352 0.362304 0.741211
O O1 0.500000 0.696408 0.905803
O O2 0.724534 0.750506 0.884334
O O3 0.735117 0.664959 0.826698
O O4 0.733387 0.681800 0.000000
O O5 0.179657 0.317127 0.500000
O O6 0.271492 0.337410 0.345741
O O7 0.000000 0.308335 0.366397
O O8 0.500000 0.955301 0.500000
O O9 0.281187 0.925801 0.592260
O O10 0.254429 0.000000 0.500000
O O11 0.500000 0.061905 0.706273
O O12 0.762756 0.085175 0.757954
O O13 0.712087 0.000000 0.700248
O O14 0.500000 0.364360 0.739809
#
# Coordination Sequence:
#
# PCOD8292334 Si02
#       5
#    16  16   8  16  16
#     4   8  16  31  49  72 104 138 168 199 241 295
#     4   9  18  35  56  72  93 132 176 212 247 294
#     4   7  12  26  47  67  89 123 165 205 239 271
#     4   9  18  33  51  70  97 134 173 209 243 288
#     4  11  21  30  49  78 106 134 163 206 256 300
#
# _framework density 17.976448999999999
#
# number of rings (size 3 to 8) (size 9 to 14) (size 15 to 20)
#    0.000    3.000    0.000    4.000    1.556    0.889 
#    0.000    1.111    0.000    5.333    0.000    4.667 
#    0.000    0.000    0.000    0.000    0.000    0.000 
#
# Total GULP energy -446089.992802 kJ/mol
# GULP energy per Si atom -12391.388689 kJ/mol
# Density = 1.793553 g / cm^3
# Si number density = 17.976449 Si / 1000 Ang^3
#
#
#
# Elastic Constant Matrix: (Units=GPa)
#
#
# Indices 1 2 3 4 5 6 
#
# 1 51.8916 39.7230 32.5457 0.0001 0.0000 0.0000
# 2 39.7230 89.9179 50.4173 0.0001 -0.0001 0.0000
# 3 32.5457 50.4173 72.8962 0.0008 -0.0003 0.0000
# 4 0.0001 0.0001 0.0008 26.4294 -0.0001 0.0000
# 5 0.0000 -0.0001 -0.0003 -0.0001 22.9885 0.0001
# 6 0.0000 0.0000 0.0000 0.0000 0.0001 20.9356
#
#
#
# Elastic Compliance Matrix: (Units=1/GPa)
#
#
# Indices 1 2 3 4 5 6 
#
# 1 0.031271 -0.009778 -0.007198 0.000000 0.000000 0.000000
# 2 -0.009778 0.021224 -0.010313 0.000000 0.000000 0.000000
# 3 -0.007198 -0.010313 0.024065 -0.000001 0.000000 0.000000
# 4 0.000000 0.000000 -0.000001 0.037837 0.000000 0.000000
# 5 0.000000 0.000000 0.000000 0.000000 0.043500 0.000000
# 6 0.000000 0.000000 0.000000 0.000000 0.000000 0.047766
#
#
# Mechanical properties :
#
#
# Convention : Reuss Voigt Hill
#
# Bulk Modulus (GPa) = 45.49678 51.11972 48.30825
# Shear Modulus (GPa) = 18.68678 20.20534 19.44606
#
# Velocity S-wave (km/s) = 3.22765 3.35623 3.29257
# Velocity P-wave (km/s) = 6.26533 6.59681 6.43320
#
# Compressibility (1/GPa) = 0.02197958
#
# Stress axis : x y z
#
# Youngs Moduli (GPa) = 31.97841 47.11697 41.55425
#
# Poissons Ratio (x) = 0.46073 0.29912
# Poissons Ratio (y) = 0.31270 0.42856
# Poissons Ratio (z) = 0.23019 0.48593
#
# Static dielectric constant tensor:
#      x y z
#    x 2.920540 0.000000 0.000000 
#    y 0.000000 3.223010 0.000000 
#    z 0.000000 0.000000 3.372300 
# 
# 
# High freq. dielectric constant tensor:
#      x y z
#    x 1.665220 0.000000 0.000000 
#    y 0.000000 1.689220 0.000000 
#    z 0.000000 0.000000 1.686270 
# 
# From -- ./inp_files/6020.got.cif
#   From: 2010.06.25/outbox.cif.g09.slc.cpg/sg71_4_cif.got.tgz:6020.got - 2010.06.28 04:59:45.
