data_PCOD8292122
_publ_section_title
;
Structure prediction by ZEFSAII (Michael W. Deem and Ramdas Pophale) SiO2 
 PCOD8292122
Probable space group: I M M M
;
_chemical_formula_sum "Si O2"
_cell_formula_units_Z 96
_cell_length_a 18.911260
_cell_length_b 29.397310
_cell_length_c 8.797396
_cell_angle_alpha 90.000000
_cell_angle_beta 90.000000
_cell_angle_gamma 90.000000
_cell_volume 4890.825852
_symmetry_space_group_name_H-M "I M M M"
_symmetry_group_IT_number 71
_symmetry_cell_setting 'orthorhombic'
loop_
_space_group_symop_operation_xyz
x,y,z
-x,-y,z
x,-y,-z
-x,y,-z
-x,-y,-z
x,y,-z
-x,y,z
x,-y,z
1/2+x,1/2+y,1/2+z
1/2-x,1/2-y,1/2+z
1/2+x,1/2-y,1/2-z
1/2-x,1/2+y,1/2-z
1/2-x,1/2-y,1/2-z
1/2+x,1/2+y,1/2-z
1/2-x,1/2+y,1/2+z
1/2+x,1/2-y,1/2+z
loop_
_atom_site_type_symbol
_atom_site_label
_atom_site_fract_x
_atom_site_fract_y
_atom_site_fract_z
Si Si1 0.582040 0.551803 0.677499
Si Si2 0.919040 0.304187 0.826700
Si Si3 0.316043 0.724494 0.326275
Si Si4 0.420965 0.052715 0.329916
Si Si5 0.672414 0.879779 0.825350
Si Si6 0.179922 0.128148 0.678580
O O1 0.596795 0.558650 0.500000
O O2 0.500000 0.560317 0.715156
O O3 0.602876 0.500000 0.724959
O O4 0.627422 0.588531 0.768173
O O5 0.887001 0.253970 0.814057
O O6 0.873631 0.336241 0.718614
O O7 0.000000 0.302614 0.771054
O O8 0.913966 0.322219 0.000000
O O9 0.294072 0.715645 0.500000
O O10 0.250000 0.750000 0.250000
O O11 0.337161 0.676936 0.250860
O O12 0.391834 0.062360 0.500000
O O13 0.500000 0.072827 0.317438
O O14 0.373303 0.075366 0.202035
O O15 0.421782 0.000000 0.293969
O O16 0.740819 0.884964 0.721765
O O17 0.695066 0.876267 0.000000
O O18 0.172822 0.133114 0.500000
#
# Coordination Sequence:
#
# PCOD8292122 Si02
#       6
#    16  16  16  16  16  16
#     4   9  20  42  70  97 127 163 204 256 318 380
#     4  10  22  40  62  87 117 156 199 243 299 368
#     4  11  22  39  63  89 121 162 204 253 310 367
#     4   9  19  37  59  81 110 151 195 240 294 356
#     4  12  24  37  57  85 118 156 198 249 302 356
#     4  12  25  40  62  91 125 165 206 252 304 364
#
# _framework density 19.628587
#
# number of rings (size 3 to 8) (size 9 to 14) (size 15 to 20)
#    0.000    1.500    1.667    5.000    0.000    5.667 
#    0.000    3.333    0.000    0.000    0.000    0.000 
#    0.000    0.000    0.000    0.000    0.000    0.000 
#
# Total GULP energy -595244.672944 kJ/mol
# GULP energy per Si atom -12400.930686 kJ/mol
# Density = 1.958391 g / cm^3
# Si number density = 19.628587 Si / 1000 Ang^3
#
#
#
# Elastic Constant Matrix: (Units=GPa)
#
#
# Indices 1 2 3 4 5 6 
#
# 1 104.3597 61.1773 50.0386 0.0000 0.0000 0.0000
# 2 61.1773 124.9206 63.4089 -0.0001 0.0000 0.0000
# 3 50.0386 63.4089 120.5517 -0.0001 -0.0001 0.0001
# 4 0.0000 -0.0001 -0.0001 36.5553 -0.0001 0.0000
# 5 0.0000 0.0000 -0.0001 -0.0001 32.2680 0.0000
# 6 0.0000 0.0000 0.0001 0.0000 0.0000 41.4975
#
#
#
# Elastic Compliance Matrix: (Units=1/GPa)
#
#
# Indices 1 2 3 4 5 6 
#
# 1 0.014221 -0.005413 -0.003055 0.000000 0.000000 0.000000
# 2 -0.005413 0.012982 -0.004581 0.000000 0.000000 0.000000
# 3 -0.003055 -0.004581 0.011973 0.000000 0.000000 0.000000
# 4 0.000000 0.000000 0.000000 0.027356 0.000000 0.000000
# 5 0.000000 0.000000 0.000000 0.000000 0.030990 0.000000
# 6 0.000000 0.000000 0.000000 0.000000 0.000000 0.024098
#
#
# Mechanical properties :
#
#
# Convention : Reuss Voigt Hill
#
# Bulk Modulus (GPa) = 76.47909 77.67574 77.07742
# Shear Modulus (GPa) = 32.87795 33.74464 33.31129
#
# Velocity S-wave (km/s) = 4.09712 4.15077 4.12403
# Velocity P-wave (km/s) = 7.83770 7.91395 7.87592
#
# Compressibility (1/GPa) = 0.01307547
#
# Stress axis : x y z
#
# Youngs Moduli (GPa) = 70.32037 77.03234 83.52109
#
# Poissons Ratio (x) = 0.41701 0.25518
# Poissons Ratio (y) = 0.38067 0.38262
# Poissons Ratio (z) = 0.21485 0.35290
#
# Static dielectric constant tensor:
#      x y z
#    x 3.670530 0.000000 0.000000 
#    y 0.000000 3.746550 0.000000 
#    z 0.000000 0.000000 3.562130 
# 
# 
# High freq. dielectric constant tensor:
#      x y z
#    x 1.766560 0.000000 0.000000 
#    y 0.000000 1.777220 0.000000 
#    z 0.000000 0.000000 1.762760 
# 
# From -- ./inp_files/10816.got.cif
#   From: 2010.06.25/outbox.cif.g09.slc.cpg/sg71_6_cif.got.tgz:10816.got - 2010.06.28 04:59:45.
