data_PCOD8292563
_publ_section_title
;
Structure prediction by ZEFSAII (Michael W. Deem and Ramdas Pophale) SiO2 
 PCOD8292563
Probable space group: I M M M
;
_chemical_formula_sum "Si O2"
_cell_formula_units_Z 68
_cell_length_a 17.966372
_cell_length_b 19.722438
_cell_length_c 9.616732
_cell_angle_alpha 90.000000
_cell_angle_beta 90.000000
_cell_angle_gamma 90.000000
_cell_volume 3407.599143
_symmetry_space_group_name_H-M "I M M M"
_symmetry_group_IT_number 71
_symmetry_cell_setting 'orthorhombic'
loop_
_space_group_symop_operation_xyz
x,y,z
-x,-y,z
x,-y,-z
-x,y,-z
-x,-y,-z
x,y,-z
-x,y,z
x,-y,z
1/2+x,1/2+y,1/2+z
1/2-x,1/2-y,1/2+z
1/2+x,1/2-y,1/2-z
1/2-x,1/2+y,1/2-z
1/2-x,1/2-y,1/2-z
1/2+x,1/2+y,1/2-z
1/2-x,1/2+y,1/2+z
1/2+x,1/2-y,1/2+z
loop_
_atom_site_type_symbol
_atom_site_label
_atom_site_fract_x
_atom_site_fract_y
_atom_site_fract_z
Si Si1 0.000000 0.867455 0.000000
Si Si2 0.198424 0.275955 0.500000
Si Si3 0.000000 0.579930 0.655682
Si Si4 0.137586 0.654999 0.228033
Si Si5 0.124887 0.757580 0.000000
Si Si6 0.120934 0.129474 0.500000
Si Si7 0.500000 0.421031 0.200319
Si Si8 0.776075 0.423667 0.000000
O O1 0.076147 0.824907 0.000000
O O2 0.000000 0.915314 0.865900
O O3 0.177534 0.318142 0.635334
O O4 0.286794 0.268786 0.500000
O O5 0.154797 0.205003 0.500000
O O6 0.927649 0.603767 0.736104
O O7 0.000000 0.500000 0.651101
O O8 0.000000 0.610734 0.500000
O O9 0.103058 0.716440 0.138823
O O10 0.197853 0.614756 0.138079
O O11 0.072118 0.116788 0.637817
O O12 0.187085 0.075208 0.500000
O O13 0.500000 0.500000 0.157051
O O14 0.806835 0.500000 0.000000
#
# Coordination Sequence:
#
# PCOD8292563 Si02
#       8
#     4   8   8  16   8   8   8   8
#     4  12  25  40  68  96 135 174 210 266 340 372
#     4  12  23  41  68  98 135 165 218 274 324 382
#     4  11  23  42  63  93 134 172 215 261 312 393
#     4  11  23  41  67  95 131 173 213 266 326 380
#     4  11  24  41  63  98 135 162 216 269 330 393
#     4  11  23  44  69  92 126 173 214 274 326 380
#     4  11  25  44  66  95 129 173 228 268 316 389
#     4  11  24  42  65  95 128 172 221 263 320 385
#
# _framework density 19.955397999999999
#
# number of rings (size 3 to 8) (size 9 to 14) (size 15 to 20)
#    0.000    0.824    3.529    5.118    3.294    3.294 
#    0.000    2.941    0.000    0.000    0.000    0.000 
#    0.000    0.000    0.000    0.000    0.000    0.000 
#
# Total GULP energy -421727.380271 kJ/mol
# GULP energy per Si atom -12403.746479 kJ/mol
# Density = 1.990998 g / cm^3
# Si number density = 19.955398 Si / 1000 Ang^3
#
#
#
# Elastic Constant Matrix: (Units=GPa)
#
#
# Indices 1 2 3 4 5 6 
#
# 1 137.1979 45.0679 47.3321 0.0000 0.0000 0.0000
# 2 45.0679 105.1680 45.0549 0.0000 0.0000 0.0000
# 3 47.3321 45.0549 160.5404 0.0000 0.0000 0.0000
# 4 0.0000 0.0000 0.0000 40.0203 0.0000 0.0000
# 5 0.0000 0.0000 0.0000 0.0000 10.4164 0.0000
# 6 0.0000 0.0000 0.0000 0.0000 0.0000 160.3313
#
#
#
# Elastic Compliance Matrix: (Units=1/GPa)
#
#
# Indices 1 2 3 4 5 6 
#
# 1 0.008903 -0.003058 -0.001767 0.000000 0.000000 0.000000
# 2 -0.003058 0.011859 -0.002426 0.000000 0.000000 0.000000
# 3 -0.001767 -0.002426 0.007431 0.000000 0.000000 0.000000
# 4 0.000000 0.000000 0.000000 0.024987 0.000000 0.000000
# 5 0.000000 0.000000 0.000000 0.000000 0.096003 0.000000
# 6 0.000000 0.000000 0.000000 0.000000 0.000000 0.006237
#
#
# Mechanical properties :
#
#
# Convention : Reuss Voigt Hill
#
# Bulk Modulus (GPa) = 73.04743 75.31290 74.18016
# Shear Modulus (GPa) = 28.65573 59.85036 44.25305
#
# Velocity S-wave (km/s) = 3.79356 5.48244 4.71425
# Velocity P-wave (km/s) = 7.47482 8.82603 8.17838
#
# Compressibility (1/GPa) = 0.01368974
#
# Stress axis : x y z
#
# Youngs Moduli (GPa) = 112.32417 84.32633 134.57616
#
# Poissons Ratio (x) = 0.25790 0.23773
# Poissons Ratio (y) = 0.34353 0.32653
# Poissons Ratio (z) = 0.19842 0.20461
#
# Static dielectric constant tensor:
#      x y z
#    x 3.632250 0.000000 0.000000 
#    y 0.000000 3.593360 0.000000 
#    z 0.000000 0.000000 3.881620 
# 
# 
# High freq. dielectric constant tensor:
#      x y z
#    x 1.787870 0.000000 0.000000 
#    y 0.000000 1.782050 0.000000 
#    z 0.000000 0.000000 1.795060 
# 
# From -- ./inp_files/7737.got.cif
#   From: 2010.06.25/outbox.cif.g09.slc.cpg/sg71_4_cif.got.tgz:7737.got - 2010.06.28 04:59:45.
