data_PCOD8292187
_publ_section_title
;
Structure prediction by ZEFSAII (Michael W. Deem and Ramdas Pophale) SiO2 
 PCOD8292187
Probable space group: I M M M
;
_chemical_formula_sum "Si O2"
_cell_formula_units_Z 64
_cell_length_a 23.720503
_cell_length_b 15.521341
_cell_length_c 8.864805
_cell_angle_alpha 90.000000
_cell_angle_beta 90.000000
_cell_angle_gamma 90.000000
_cell_volume 3263.790856
_symmetry_space_group_name_H-M "I M M M"
_symmetry_group_IT_number 71
_symmetry_cell_setting 'orthorhombic'
loop_
_space_group_symop_operation_xyz
x,y,z
-x,-y,z
x,-y,-z
-x,y,-z
-x,-y,-z
x,y,-z
-x,y,z
x,-y,z
1/2+x,1/2+y,1/2+z
1/2-x,1/2-y,1/2+z
1/2+x,1/2-y,1/2-z
1/2-x,1/2+y,1/2-z
1/2-x,1/2-y,1/2-z
1/2+x,1/2+y,1/2-z
1/2-x,1/2+y,1/2+z
1/2+x,1/2-y,1/2+z
loop_
_atom_site_type_symbol
_atom_site_label
_atom_site_fract_x
_atom_site_fract_y
_atom_site_fract_z
Si Si1 0.500000 0.362562 0.821437
Si Si2 0.000000 0.677422 0.175654
Si Si3 0.773091 0.336317 0.676709
Si Si4 0.894362 0.401248 0.328507
Si Si5 0.214881 0.000000 0.320140
Si Si6 0.587996 0.500000 0.178878
O O1 0.500000 0.268835 0.754113
O O2 0.555379 0.414325 0.765365
O O3 0.500000 0.353752 0.000000
O O4 0.055270 0.624021 0.218832
O O5 0.000000 0.692874 0.000000
O O6 0.758653 0.338694 0.500000
O O7 0.750000 0.250000 0.750000
O O8 0.840259 0.341418 0.703251
O O9 0.744343 0.415720 0.758312
O O10 0.915222 0.388768 0.500000
O O11 0.876835 0.500000 0.298580
O O12 0.151009 0.000000 0.257686
O O13 0.217518 0.000000 0.500000
O O14 0.588169 0.500000 0.000000
#
# Coordination Sequence:
#
# PCOD8292187 Si02
#       6
#     8   8  16  16   8   8
#     4   9  18  39  63  85 116 160 207 246 287 358
#     4  12  26  38  57  94 126 151 194 255 314 359
#     4  11  24  43  65  94 127 167 213 259 311 373
#     4  10  22  44  67  85 114 161 209 247 298 372
#     4  11  22  39  64  97 129 164 208 258 316 375
#     4   8  18  36  62  88 115 157 206 245 288 353
#
# _framework density 19.609097999999999
#
# number of rings (size 3 to 8) (size 9 to 14) (size 15 to 20)
#    0.000    1.750    1.250    3.375    3.500    4.000 
#    0.000    2.500    0.000    0.000    0.000    0.000 
#    0.000    0.000    0.000    0.000    0.000    0.000 
#
# Total GULP energy -396868.949549 kJ/mol
# GULP energy per Si atom -12402.154673 kJ/mol
# Density = 1.956447 g / cm^3
# Si number density = 19.609098 Si / 1000 Ang^3
#
#
#
# Elastic Constant Matrix: (Units=GPa)
#
#
# Indices 1 2 3 4 5 6 
#
# 1 117.2408 44.8172 42.0652 0.0000 0.0000 0.0000
# 2 44.8172 128.8235 38.4208 0.0000 0.0000 0.0000
# 3 42.0652 38.4208 77.4458 0.0000 0.0000 0.0000
# 4 0.0000 0.0000 0.0000 30.8935 0.0000 0.0000
# 5 0.0000 0.0000 0.0000 0.0000 31.5438 0.0000
# 6 0.0000 0.0000 0.0000 0.0000 0.0000 47.5703
#
#
#
# Elastic Compliance Matrix: (Units=1/GPa)
#
#
# Indices 1 2 3 4 5 6 
#
# 1 0.011215 -0.002447 -0.004877 0.000000 0.000000 0.000000
# 2 -0.002447 0.009644 -0.003456 0.000000 0.000000 0.000000
# 3 -0.004877 -0.003456 0.017276 0.000000 0.000000 0.000000
# 4 0.000000 0.000000 0.000000 0.032369 0.000000 0.000000
# 5 0.000000 0.000000 0.000000 0.000000 0.031702 0.000000
# 6 0.000000 0.000000 0.000000 0.000000 0.000000 0.021022
#
#
# Mechanical properties :
#
#
# Convention : Reuss Voigt Hill
#
# Bulk Modulus (GPa) = 60.33127 63.79071 62.06099
# Shear Modulus (GPa) = 33.26398 35.21532 34.23965
#
# Velocity S-wave (km/s) = 4.12315 4.24236 4.18318
# Velocity P-wave (km/s) = 7.31443 7.52321 7.41956
#
# Compressibility (1/GPa) = 0.01657515
#
# Stress axis : x y z
#
# Youngs Moduli (GPa) = 89.16758 103.68684 57.88451
#
# Poissons Ratio (x) = 0.25371 0.28233
# Poissons Ratio (y) = 0.21819 0.20002
# Poissons Ratio (z) = 0.43491 0.35829
#
# Static dielectric constant tensor:
#      x y z
#    x 3.904040 0.000000 0.000000 
#    y 0.000000 3.549940 0.000000 
#    z 0.000000 0.000000 3.488120 
# 
# 
# High freq. dielectric constant tensor:
#      x y z
#    x 1.777500 0.000000 0.000000 
#    y 0.000000 1.776520 0.000000 
#    z 0.000000 0.000000 1.751730 
# 
# From -- ./inp_files/12033.got.cif
#   From: 2010.06.25/outbox.cif.g09.slc.cpg/sg71_7_cif.got.tgz:12033.got - 2010.06.28 04:59:45.
