data_PCOD8292773
_publ_section_title
;
Structure prediction by ZEFSAII (Michael W. Deem and Ramdas Pophale) SiO2 
 PCOD8292773
Probable space group: I M M M
;
_chemical_formula_sum "Si O2"
_cell_formula_units_Z 72
_cell_length_a 13.376893
_cell_length_b 28.033411
_cell_length_c 10.424531
_cell_angle_alpha 90.000000
_cell_angle_beta 90.000000
_cell_angle_gamma 90.000000
_cell_volume 3909.198493
_symmetry_space_group_name_H-M "I M M M"
_symmetry_group_IT_number 71
_symmetry_cell_setting 'orthorhombic'
loop_
_space_group_symop_operation_xyz
x,y,z
-x,-y,z
x,-y,-z
-x,y,-z
-x,-y,-z
x,y,-z
-x,y,z
x,-y,z
1/2+x,1/2+y,1/2+z
1/2-x,1/2-y,1/2+z
1/2+x,1/2-y,1/2-z
1/2-x,1/2+y,1/2-z
1/2-x,1/2-y,1/2-z
1/2+x,1/2+y,1/2-z
1/2-x,1/2+y,1/2+z
1/2+x,1/2-y,1/2+z
loop_
_atom_site_type_symbol
_atom_site_label
_atom_site_fract_x
_atom_site_fract_y
_atom_site_fract_z
Si Si1 0.389185 0.500000 0.651373
Si Si2 0.610496 0.217282 0.783202
Si Si3 0.886361 0.622572 0.856526
Si Si4 0.233974 0.091874 0.151287
Si Si5 0.179558 0.194538 0.861980
O O1 0.500000 0.500000 0.713209
O O2 0.398882 0.500000 0.500000
O O3 0.330540 0.453103 0.696162
O O4 0.500000 0.212766 0.848239
O O5 0.619753 0.179690 0.666221
O O6 0.701436 0.205944 0.878378
O O7 0.622875 0.271727 0.736849
O O8 0.829612 0.593390 0.745005
O O9 0.000000 0.604764 0.849068
O O10 0.843047 0.612719 0.000000
O O11 0.167469 0.139185 0.177692
O O12 0.265920 0.089071 0.000000
O O13 0.129624 0.202767 0.000000
#
# Coordination Sequence:
#
# PCOD8292773 Si02
#       5
#     8  16  16  16  16
#     4   9  18  34  54  73  94 122 157 197 240 281
#     4   9  17  28  43  65  94 126 156 186 224 273
#     4   9  17  30  49  72  98 128 156 184 228 283
#     4   9  18  32  50  71  94 122 157 197 238 277
#     4   9  17  28  43  66  93 120 154 193 229 269
#
# _framework density 18.418098000000001
#
# number of rings (size 3 to 8) (size 9 to 14) (size 15 to 20)
#    0.000    3.000    0.000    0.667    0.000    3.111 
#    0.000    7.778    0.000    4.667    0.000    0.000 
#    0.000    0.000    0.000    0.000    0.000    0.000 
#
# Total GULP energy -445995.047134 kJ/mol
# GULP energy per Si atom -12388.751309 kJ/mol
# Density = 1.837618 g / cm^3
# Si number density = 18.418098 Si / 1000 Ang^3
#
#
#
# Elastic Constant Matrix: (Units=GPa)
#
#
# Indices 1 2 3 4 5 6 
#
# 1 79.1917 42.5587 25.3066 0.0001 0.0000 0.0000
# 2 42.5587 131.4113 30.1989 0.0000 0.0000 0.0000
# 3 25.3066 30.1989 78.8313 -0.0002 0.0000 0.0001
# 4 0.0001 0.0000 -0.0002 15.5004 -0.0001 0.0000
# 5 0.0000 0.0000 0.0000 -0.0001 11.9999 0.0000
# 6 0.0000 0.0000 0.0001 0.0000 0.0000 24.3463
#
#
#
# Elastic Compliance Matrix: (Units=1/GPa)
#
#
# Indices 1 2 3 4 5 6 
#
# 1 0.016115 -0.004419 -0.003480 0.000000 0.000000 0.000000
# 2 -0.004419 0.009556 -0.002242 0.000000 0.000000 0.000000
# 3 -0.003480 -0.002242 0.014661 0.000000 0.000000 0.000000
# 4 0.000000 0.000000 0.000000 0.064514 0.000000 0.000000
# 5 0.000000 0.000000 0.000000 0.000000 0.083334 0.000000
# 6 0.000000 0.000000 0.000000 0.000000 0.000000 0.041074
#
#
# Mechanical properties :
#
#
# Convention : Reuss Voigt Hill
#
# Bulk Modulus (GPa) = 49.87733 53.95142 51.91438
# Shear Modulus (GPa) = 19.51445 23.12735 21.32090
#
# Velocity S-wave (km/s) = 3.25857 3.54741 3.40605
# Velocity P-wave (km/s) = 6.42628 6.79228 6.61181
#
# Compressibility (1/GPa) = 0.02004919
#
# Stress axis : x y z
#
# Youngs Moduli (GPa) = 62.05547 104.64508 68.20588
#
# Poissons Ratio (x) = 0.46243 0.23738
# Poissons Ratio (y) = 0.27423 0.15293
# Poissons Ratio (z) = 0.21597 0.23463
#
# Static dielectric constant tensor:
#      x y z
#    x 3.378730 0.000000 0.000000 
#    y 0.000000 3.378480 0.000000 
#    z 0.000000 0.000000 3.134590 
# 
# 
# High freq. dielectric constant tensor:
#      x y z
#    x 1.703580 0.000000 0.000000 
#    y 0.000000 1.705730 0.000000 
#    z 0.000000 0.000000 1.687310 
# 
# From -- ./inp_files/20035.got.cif
#   From: 2010.06.25/outbox.cif.g09.slc.cpg/sg71_11_cif.got.tgz:20035.got - 2010.06.28 04:59:45.
