data_PCOD8292584
_publ_section_title
;
Structure prediction by ZEFSAII (Michael W. Deem and Ramdas Pophale) SiO2 
 PCOD8292584
Probable space group: I M M M
;
_chemical_formula_sum "Si O2"
_cell_formula_units_Z 64
_cell_length_a 16.797825
_cell_length_b 22.358408
_cell_length_c 9.049284
_cell_angle_alpha 90.000000
_cell_angle_beta 90.000000
_cell_angle_gamma 90.000000
_cell_volume 3398.663345
_symmetry_space_group_name_H-M "I M M M"
_symmetry_group_IT_number 71
_symmetry_cell_setting 'orthorhombic'
loop_
_space_group_symop_operation_xyz
x,y,z
-x,-y,z
x,-y,-z
-x,y,-z
-x,-y,-z
x,y,-z
-x,y,z
x,-y,z
1/2+x,1/2+y,1/2+z
1/2-x,1/2-y,1/2+z
1/2+x,1/2-y,1/2-z
1/2-x,1/2+y,1/2-z
1/2-x,1/2-y,1/2-z
1/2+x,1/2+y,1/2-z
1/2-x,1/2+y,1/2+z
1/2+x,1/2-y,1/2+z
loop_
_atom_site_type_symbol
_atom_site_label
_atom_site_fract_x
_atom_site_fract_y
_atom_site_fract_z
Si Si1 0.356647 0.644496 0.173783
Si Si2 0.092259 0.500000 0.324892
Si Si3 0.000000 0.065128 0.675383
Si Si4 0.822145 0.610242 0.171070
Si Si5 0.333571 0.757975 0.672306
O O1 0.420054 0.596667 0.229947
O O2 0.269882 0.619234 0.219349
O O3 0.385857 0.705827 0.253922
O O4 0.359302 0.656877 0.000000
O O5 0.098703 0.500000 0.500000
O O6 0.135636 0.440624 0.266277
O O7 0.000000 0.500000 0.273318
O O8 0.000000 0.061940 0.500000
O O9 0.000000 0.000000 0.747705
O O10 0.866516 0.674373 0.197436
O O11 0.827041 0.590968 0.000000
O O12 0.323188 0.745673 0.500000
O O13 0.250000 0.750000 0.750000
#
# Coordination Sequence:
#
# PCOD8292584 Si02
#       5
#    16   8   8  16  16
#     4   9  18  33  56  85 113 145 184 221 263 313
#     4  11  25  41  55  78 107 136 176 229 281 327
#     4   9  18  32  53  81 115 152 187 222 255 305
#     4   9  19  35  58  82 105 141 182 220 266 326
#     4   9  17  32  55  82 109 139 178 223 268 318
#
# _framework density 18.830933000000002
#
# number of rings (size 3 to 8) (size 9 to 14) (size 15 to 20)
#    0.000    2.750    0.000    2.625    1.750    6.000 
#    2.250    0.625    0.000    0.750    0.000    0.000 
#    0.000    0.000    0.000    0.000    0.000    0.000 
#
# Total GULP energy -396499.278409 kJ/mol
# GULP energy per Si atom -12390.602450 kJ/mol
# Density = 1.878807 g / cm^3
# Si number density = 18.830933 Si / 1000 Ang^3
#
#
#
# Elastic Constant Matrix: (Units=GPa)
#
#
# Indices 1 2 3 4 5 6 
#
# 1 96.2271 78.3418 34.8111 0.0000 0.0000 0.0000
# 2 78.3418 190.2928 65.1075 0.0000 0.0000 0.0000
# 3 34.8111 65.1075 73.5217 0.0000 0.0000 0.0000
# 4 0.0000 0.0000 0.0000 37.5069 0.0000 0.0000
# 5 0.0000 0.0000 0.0000 0.0000 19.7437 0.0000
# 6 0.0000 0.0000 0.0000 0.0000 0.0000 19.9202
#
#
#
# Elastic Compliance Matrix: (Units=1/GPa)
#
#
# Indices 1 2 3 4 5 6 
#
# 1 0.015943 -0.005711 -0.002491 0.000000 0.000000 0.000000
# 2 -0.005711 0.009585 -0.005784 0.000000 0.000000 0.000000
# 3 -0.002491 -0.005784 0.019903 0.000000 0.000000 0.000000
# 4 0.000000 0.000000 0.000000 0.026662 0.000000 0.000000
# 5 0.000000 0.000000 0.000000 0.000000 0.050649 0.000000
# 6 0.000000 0.000000 0.000000 0.000000 0.000000 0.050200
#
#
# Mechanical properties :
#
#
# Convention : Reuss Voigt Hill
#
# Bulk Modulus (GPa) = 57.27892 79.61807 68.44850
# Shear Modulus (GPa) = 24.18553 27.55289 25.86921
#
# Velocity S-wave (km/s) = 3.58767 3.82929 3.71045
# Velocity P-wave (km/s) = 6.90256 7.86915 7.40165
#
# Compressibility (1/GPa) = 0.01745843
#
# Stress axis : x y z
#
# Youngs Moduli (GPa) = 62.72340 104.32557 50.24344
#
# Poissons Ratio (x) = 0.59583 0.12516
# Poissons Ratio (y) = 0.35823 0.29062
# Poissons Ratio (z) = 0.15625 0.60344
#
# Static dielectric constant tensor:
#      x y z
#    x 3.346910 0.000000 0.000000 
#    y 0.000000 3.921500 0.000000 
#    z 0.000000 0.000000 3.581350 
# 
# 
# High freq. dielectric constant tensor:
#      x y z
#    x 1.708280 0.000000 0.000000 
#    y 0.000000 1.751480 0.000000 
#    z 0.000000 0.000000 1.715910 
# 
# From -- ./inp_files/7548.got.cif
#   From: 2010.06.25/outbox.cif.g09.slc.cpg/sg71_4_cif.got.tgz:7548.got - 2010.06.28 04:59:45.
