data_PCOD8292351
_publ_section_title
;
Structure prediction by ZEFSAII (Michael W. Deem and Ramdas Pophale) SiO2 
 PCOD8292351
Probable space group: I M M M
;
_chemical_formula_sum "Si O2"
_cell_formula_units_Z 96
_cell_length_a 13.284243
_cell_length_b 23.275809
_cell_length_c 17.900701
_cell_angle_alpha 90.000000
_cell_angle_beta 90.000000
_cell_angle_gamma 90.000000
_cell_volume 5534.923650
_symmetry_space_group_name_H-M "I M M M"
_symmetry_group_IT_number 71
_symmetry_cell_setting 'orthorhombic'
loop_
_space_group_symop_operation_xyz
x,y,z
-x,-y,z
x,-y,-z
-x,y,-z
-x,-y,-z
x,y,-z
-x,y,z
x,-y,z
1/2+x,1/2+y,1/2+z
1/2-x,1/2-y,1/2+z
1/2+x,1/2-y,1/2-z
1/2-x,1/2+y,1/2-z
1/2-x,1/2-y,1/2-z
1/2+x,1/2+y,1/2-z
1/2-x,1/2+y,1/2+z
1/2+x,1/2-y,1/2+z
loop_
_atom_site_type_symbol
_atom_site_label
_atom_site_fract_x
_atom_site_fract_y
_atom_site_fract_z
Si Si1 0.387717 0.276362 0.913665
Si Si2 0.696788 0.613308 0.841044
Si Si3 0.809617 0.785232 0.914973
Si Si4 0.118424 0.891416 0.178490
Si Si5 0.886951 0.000000 0.588216
Si Si6 0.386504 0.840155 0.414658
Si Si7 0.880806 0.000000 0.916697
O O1 0.500000 0.252086 0.899231
O O2 0.373825 0.334379 0.867017
O O3 0.306450 0.227838 0.891098
O O4 0.370362 0.293075 0.000000
O O5 0.682844 0.604215 0.753415
O O6 0.669566 0.555957 0.884051
O O7 0.813323 0.626567 0.858393
O O8 0.857678 0.831849 0.861399
O O9 0.874882 0.728008 0.905112
O O10 0.814929 0.807847 0.000000
O O11 0.155965 0.943351 0.126401
O O12 0.000000 0.895823 0.196421
O O13 0.887908 0.000000 0.500000
O O14 0.000000 0.000000 0.620838
O O15 0.360215 0.857217 0.500000
O O16 0.500000 0.857748 0.394176
O O17 0.000000 0.000000 0.922351
O O18 0.833753 0.000000 0.000000
#
# Coordination Sequence:
#
# PCOD8292351 Si02
#       7
#    16  16  16  16   8  16   8
#     4   9  17  31  50  72 101 134 165 202 247 294
#     4  11  21  33  48  73 105 131 162 203 252 302
#     4   9  18  32  51  74  97 129 174 211 243 294
#     4  11  21  32  49  74 104 133 161 203 256 304
#     4  11  21  33  52  73  94 128 169 201 234 288
#     4   9  18  34  54  74 100 135 171 206 242 285
#     4   9  19  35  53  72  96 129 166 203 247 296
#
# _framework density 17.344412999999999
#
# number of rings (size 3 to 8) (size 9 to 14) (size 15 to 20)
#    0.000    2.167    0.000    5.500    0.000    6.333 
#    0.000    2.917    0.000    1.500    0.000    1.750 
#    0.000    5.333    0.000    0.000    0.000    0.000 
#
# Total GULP energy -595250.103414 kJ/mol
# GULP energy per Si atom -12401.043821 kJ/mol
# Density = 1.730494 g / cm^3
# Si number density = 17.344413 Si / 1000 Ang^3
#
#
#
# Elastic Constant Matrix: (Units=GPa)
#
#
# Indices 1 2 3 4 5 6 
#
# 1 111.0226 33.2205 44.5700 0.0000 0.0000 0.0000
# 2 33.2205 81.5485 46.8394 0.0000 0.0000 0.0000
# 3 44.5700 46.8394 109.0801 0.0000 0.0000 0.0000
# 4 0.0000 0.0000 0.0000 56.5018 0.0000 0.0000
# 5 0.0000 0.0000 0.0000 0.0000 24.7096 0.0000
# 6 0.0000 0.0000 0.0000 0.0000 0.0000 16.5606
#
#
#
# Elastic Compliance Matrix: (Units=1/GPa)
#
#
# Indices 1 2 3 4 5 6 
#
# 1 0.011163 -0.002559 -0.003462 0.000000 0.000000 0.000000
# 2 -0.002559 0.016864 -0.006196 0.000000 0.000000 0.000000
# 3 -0.003462 -0.006196 0.013243 0.000000 0.000000 0.000000
# 4 0.000000 0.000000 0.000000 0.017699 0.000000 0.000000
# 5 0.000000 0.000000 0.000000 0.000000 0.040470 0.000000
# 6 0.000000 0.000000 0.000000 0.000000 0.000000 0.060384
#
#
# Mechanical properties :
#
#
# Convention : Reuss Voigt Hill
#
# Bulk Modulus (GPa) = 59.39846 61.21231 60.30538
# Shear Modulus (GPa) = 26.33407 31.35581 28.84494
#
# Velocity S-wave (km/s) = 3.90077 4.25648 4.08250
# Velocity P-wave (km/s) = 7.38978 7.71529 7.55428
#
# Compressibility (1/GPa) = 0.01683545
#
# Stress axis : x y z
#
# Youngs Moduli (GPa) = 89.58359 59.29887 75.51256
#
# Poissons Ratio (x) = 0.15173 0.26145
# Poissons Ratio (y) = 0.22922 0.46787
# Poissons Ratio (z) = 0.31017 0.36741
#
# Static dielectric constant tensor:
#      x y z
#    x 3.288740 0.000000 0.000000 
#    y 0.000000 3.100250 0.000000 
#    z 0.000000 0.000000 3.256470 
# 
# 
# High freq. dielectric constant tensor:
#      x y z
#    x 1.661680 0.000000 0.000000 
#    y 0.000000 1.658900 0.000000 
#    z 0.000000 0.000000 1.669370 
# 
# From -- ./inp_files/34777.got.cif
#   From: 2010.06.25/outbox.cif.g09.slc.cpg/sg71_18_cif.got.tgz:34777.got - 2010.06.28 04:59:45.
