data_PCOD8292109
_publ_section_title
;
Structure prediction by ZEFSAII (Michael W. Deem and Ramdas Pophale) SiO2 
 PCOD8292109
Probable space group: I M M M
;
_chemical_formula_sum "Si O2"
_cell_formula_units_Z 104
_cell_length_a 26.688586
_cell_length_b 21.264944
_cell_length_c 9.001660
_cell_angle_alpha 90.000000
_cell_angle_beta 90.000000
_cell_angle_gamma 90.000000
_cell_volume 5108.723682
_symmetry_space_group_name_H-M "I M M M"
_symmetry_group_IT_number 71
_symmetry_cell_setting 'orthorhombic'
loop_
_space_group_symop_operation_xyz
x,y,z
-x,-y,z
x,-y,-z
-x,y,-z
-x,-y,-z
x,y,-z
-x,y,z
x,-y,z
1/2+x,1/2+y,1/2+z
1/2-x,1/2-y,1/2+z
1/2+x,1/2-y,1/2-z
1/2-x,1/2+y,1/2-z
1/2-x,1/2-y,1/2-z
1/2+x,1/2+y,1/2-z
1/2-x,1/2+y,1/2+z
1/2+x,1/2-y,1/2+z
loop_
_atom_site_type_symbol
_atom_site_label
_atom_site_fract_x
_atom_site_fract_y
_atom_site_fract_z
Si Si1 0.441668 0.500000 0.836159
Si Si2 0.779901 0.693107 0.174789
Si Si3 0.381423 0.169805 0.167997
Si Si4 0.216164 0.071950 0.671725
Si Si5 0.943030 0.789915 0.331128
Si Si6 0.056370 0.426730 0.167814
Si Si7 0.886232 0.893664 0.175327
O O1 0.500000 0.500000 0.858527
O O2 0.427294 0.439154 0.744150
O O3 0.415780 0.500000 0.000000
O O4 0.750000 0.750000 0.250000
O O5 0.836220 0.695339 0.232916
O O6 0.757949 0.623762 0.213638
O O7 0.779142 0.705415 0.000000
O O8 0.428132 0.217216 0.176017
O O9 0.402186 0.104099 0.227554
O O10 0.362005 0.161289 0.000000
O O11 0.200864 0.078946 0.500000
O O12 0.168391 0.087014 0.770921
O O13 0.234838 0.000000 0.703957
O O14 0.938889 0.815490 0.500000
O O15 0.902686 0.824795 0.227834
O O16 0.000000 0.797538 0.272557
O O17 0.067500 0.500000 0.172094
O O18 0.000000 0.412667 0.224453
O O19 0.062658 0.401245 0.000000
O O20 0.887205 0.898040 0.000000
#
# Coordination Sequence:
#
# PCOD8292109 Si02
#       7
#     8  16  16  16  16  16  16
#     4  11  23  39  59  81 113 159 201 235 282 349
#     4  11  24  42  64  91 121 159 206 257 313 373
#     4  11  23  39  61  90 122 158 202 254 306 363
#     4  10  22  42  66  87 114 159 208 249 299 368
#     4  10  22  40  60  83 117 163 207 243 291 360
#     4   9  19  37  61  89 123 163 203 245 300 368
#     4  12  24  37  58  90 121 150 193 250 304 348
#
# _framework density 20.357334999999999
#
# number of rings (size 3 to 8) (size 9 to 14) (size 15 to 20)
#    0.000    1.462    0.769    4.846    0.000   10.769 
#    0.000    2.308    0.000    0.000    0.000    0.000 
#    0.000    0.000    0.000    0.000    0.000    0.000 
#
# Total GULP energy -644886.102997 kJ/mol
# GULP energy per Si atom -12401.655827 kJ/mol
# Density = 2.031100 g / cm^3
# Si number density = 20.357335 Si / 1000 Ang^3
#
#
#
# Elastic Constant Matrix: (Units=GPa)
#
#
# Indices 1 2 3 4 5 6 
#
# 1 88.6221 43.5932 43.2886 0.0000 0.0000 0.0000
# 2 43.5932 104.2911 51.6139 0.0000 0.0000 0.0000
# 3 43.2886 51.6139 117.5844 0.0000 0.0000 0.0000
# 4 0.0000 0.0000 0.0000 38.8576 0.0000 0.0000
# 5 0.0000 0.0000 0.0000 0.0000 29.2410 0.0000
# 6 0.0000 0.0000 0.0000 0.0000 0.0000 9.3087
#
#
#
# Elastic Compliance Matrix: (Units=1/GPa)
#
#
# Indices 1 2 3 4 5 6 
#
# 1 0.015319 -0.004615 -0.003614 0.000000 0.000000 0.000000
# 2 -0.004615 0.013640 -0.004288 0.000000 0.000000 0.000000
# 3 -0.003614 -0.004288 0.011717 0.000000 0.000000 0.000000
# 4 0.000000 0.000000 0.000000 0.025735 0.000000 0.000000
# 5 0.000000 0.000000 0.000000 0.000000 0.034199 0.000000
# 6 0.000000 0.000000 0.000000 0.000000 0.000000 0.107427
#
#
# Mechanical properties :
#
#
# Convention : Reuss Voigt Hill
#
# Bulk Modulus (GPa) = 63.92992 65.27656 64.60324
# Shear Modulus (GPa) = 20.98328 26.94825 23.96576
#
# Velocity S-wave (km/s) = 3.21401 3.64230 3.43484
# Velocity P-wave (km/s) = 6.72645 7.05857 6.89451
#
# Compressibility (1/GPa) = 0.01564213
#
# Stress axis : x y z
#
# Youngs Moduli (GPa) = 65.27746 73.31501 85.34299
#
# Poissons Ratio (x) = 0.33833 0.30844
# Poissons Ratio (y) = 0.30124 0.36598
# Poissons Ratio (z) = 0.23592 0.31440
#
# Static dielectric constant tensor:
#      x y z
#    x 3.686450 0.000000 0.000000 
#    y 0.000000 3.665070 0.000000 
#    z 0.000000 0.000000 3.805000 
# 
# 
# High freq. dielectric constant tensor:
#      x y z
#    x 1.793950 0.000000 0.000000 
#    y 0.000000 1.805770 0.000000 
#    z 0.000000 0.000000 1.795770 
# 
# From -- ./inp_files/14970.got.cif
#   From: 2010.06.25/outbox.cif.g09.slc.cpg/sg71_8_cif.got.tgz:14970.got - 2010.06.28 04:59:45.
