data_PCOD8292484
_publ_section_title
;
Structure prediction by ZEFSAII (Michael W. Deem and Ramdas Pophale) SiO2 
 PCOD8292484
Probable space group: I M M M
;
_chemical_formula_sum "Si O2"
_cell_formula_units_Z 104
_cell_length_a 9.051761
_cell_length_b 26.872939
_cell_length_c 21.657436
_cell_angle_alpha 90.000000
_cell_angle_beta 90.000000
_cell_angle_gamma 90.000000
_cell_volume 5268.115457
_symmetry_space_group_name_H-M "I M M M"
_symmetry_group_IT_number 71
_symmetry_cell_setting 'orthorhombic'
loop_
_space_group_symop_operation_xyz
x,y,z
-x,-y,z
x,-y,-z
-x,y,-z
-x,-y,-z
x,y,-z
-x,y,z
x,-y,z
1/2+x,1/2+y,1/2+z
1/2-x,1/2-y,1/2+z
1/2+x,1/2-y,1/2-z
1/2-x,1/2+y,1/2-z
1/2-x,1/2-y,1/2-z
1/2+x,1/2+y,1/2-z
1/2-x,1/2+y,1/2+z
1/2+x,1/2-y,1/2+z
loop_
_atom_site_type_symbol
_atom_site_label
_atom_site_fract_x
_atom_site_fract_y
_atom_site_fract_z
Si Si1 0.824970 0.223305 0.568968
Si Si2 0.335394 0.059674 0.000000
Si Si3 0.667347 0.610410 0.071519
Si Si4 0.835507 0.054938 0.112708
Si Si5 0.176390 0.721507 0.693200
Si Si6 0.673717 0.942769 0.327541
Si Si7 0.331904 0.622560 0.272139
O O1 0.765242 0.239926 0.500000
O O2 0.775070 0.166788 0.582965
O O3 0.768598 0.257455 0.626221
O O4 0.000000 0.225236 0.566082
O O5 0.262055 0.082829 0.061196
O O6 0.500000 0.078883 0.000000
O O7 0.317535 0.000000 0.000000
O O8 0.500000 0.604496 0.096997
O O9 0.776928 0.570819 0.103262
O O10 0.671354 0.597380 0.000000
O O11 0.830994 0.079962 0.177969
O O12 0.000000 0.053042 0.085744
O O13 0.770857 0.000000 0.123705
O O14 0.250000 0.750000 0.750000
O O15 0.230886 0.665438 0.699542
O O16 0.000000 0.724922 0.698609
O O17 0.500000 0.935141 0.318568
O O18 0.761289 0.901962 0.287846
O O19 0.717472 0.000000 0.312372
O O20 0.500000 0.640974 0.257993
#
# Coordination Sequence:
#
# PCOD8292484 Si02
#       7
#    16   8  16  16  16  16  16
#     4   8  16  34  59  85 113 148 190 236 286 340
#     4   9  17  29  49  77 105 135 173 219 269 321
#     4   9  18  35  61  89 115 149 194 237 281 344
#     4   9  18  34  55  76 102 141 185 226 274 334
#     4  11  22  37  60  87 117 151 192 241 293 351
#     4  11  24  39  56  82 117 154 193 242 296 349
#     4  11  23  39  58  81 111 148 191 237 290 347
#
# _framework density 19.741405
#
# number of rings (size 3 to 8) (size 9 to 14) (size 15 to 20)
#    0.000    2.231    0.000    3.923    0.000    5.846 
#    1.385    3.846    0.000    3.231    0.000    0.000 
#    0.000    0.000    0.000    0.000    0.000    0.000 
#
# Total GULP energy -644485.589075 kJ/mol
# GULP energy per Si atom -12393.953636 kJ/mol
# Density = 1.969647 g / cm^3
# Si number density = 19.741405 Si / 1000 Ang^3
#
#
#
# Elastic Constant Matrix: (Units=GPa)
#
#
# Indices 1 2 3 4 5 6 
#
# 1 81.2485 31.3210 43.3466 0.0000 0.0000 0.0000
# 2 31.3210 75.6434 42.0649 0.0000 0.0000 0.0000
# 3 43.3466 42.0649 113.7508 0.0002 0.0000 0.0000
# 4 0.0000 0.0000 0.0002 29.0697 0.0000 0.0000
# 5 0.0000 0.0000 0.0000 0.0000 24.3165 0.0000
# 6 0.0000 0.0000 0.0000 0.0000 0.0000 29.3855
#
#
#
# Elastic Compliance Matrix: (Units=1/GPa)
#
#
# Indices 1 2 3 4 5 6 
#
# 1 0.016437 -0.004183 -0.004717 0.000000 0.000000 0.000000
# 2 -0.004183 0.017707 -0.004954 0.000000 0.000000 0.000000
# 3 -0.004717 -0.004954 0.012420 0.000000 0.000000 0.000000
# 4 0.000000 0.000000 0.000000 0.034400 0.000000 0.000000
# 5 0.000000 0.000000 0.000000 0.000000 0.041124 0.000000
# 6 0.000000 0.000000 0.000000 0.000000 0.000000 0.034030
#
#
# Mechanical properties :
#
#
# Convention : Reuss Voigt Hill
#
# Bulk Modulus (GPa) = 53.03089 56.01196 54.52142
# Shear Modulus (GPa) = 26.30033 26.81502 26.55767
#
# Velocity S-wave (km/s) = 3.65395 3.68953 3.67178
# Velocity P-wave (km/s) = 6.68752 6.82529 6.75675
#
# Compressibility (1/GPa) = 0.01885693
#
# Stress axis : x y z
#
# Youngs Moduli (GPa) = 60.83912 56.47547 80.51210
#
# Poissons Ratio (x) = 0.23623 0.37975
# Poissons Ratio (y) = 0.25449 0.39886
# Poissons Ratio (z) = 0.28696 0.27978
#
# Static dielectric constant tensor:
#      x y z
#    x 3.691860 0.000000 0.000000 
#    y 0.000000 3.310300 0.000000 
#    z 0.000000 0.000000 3.868670 
# 
# 
# High freq. dielectric constant tensor:
#      x y z
#    x 1.755100 0.000000 0.000000 
#    y 0.000000 1.755130 0.000000 
#    z 0.000000 0.000000 1.786160 
# 
# From -- ./inp_files/50927.got.cif
#   From: 2010.06.25/outbox.cif.g09.slc.cpg/sg71_26_cif.got.tgz:50927.got - 2010.06.28 04:59:45.
