data_PCOD8292094
_publ_section_title
;
Structure prediction by ZEFSAII (Michael W. Deem and Ramdas Pophale) SiO2 
 PCOD8292094
Probable space group: I M M M
;
_chemical_formula_sum "Si O2"
_cell_formula_units_Z 72
_cell_length_a 7.674876
_cell_length_b 24.012691
_cell_length_c 19.298385
_cell_angle_alpha 90.000000
_cell_angle_beta 90.000000
_cell_angle_gamma 90.000000
_cell_volume 3556.584783
_symmetry_space_group_name_H-M "I M M M"
_symmetry_group_IT_number 71
_symmetry_cell_setting 'orthorhombic'
loop_
_space_group_symop_operation_xyz
x,y,z
-x,-y,z
x,-y,-z
-x,y,-z
-x,-y,-z
x,y,-z
-x,y,z
x,-y,z
1/2+x,1/2+y,1/2+z
1/2-x,1/2-y,1/2+z
1/2+x,1/2-y,1/2-z
1/2-x,1/2+y,1/2-z
1/2-x,1/2-y,1/2-z
1/2+x,1/2+y,1/2-z
1/2-x,1/2+y,1/2+z
1/2+x,1/2-y,1/2+z
loop_
_atom_site_type_symbol
_atom_site_label
_atom_site_fract_x
_atom_site_fract_y
_atom_site_fract_z
Si Si1 0.204987 0.000000 0.421603
Si Si2 0.797663 0.282408 0.819407
Si Si3 0.500000 0.897438 0.921979
Si Si4 0.500000 0.061396 0.223151
Si Si5 0.696538 0.595437 0.183972
Si Si6 0.194265 0.812303 0.078732
O O1 0.262819 0.055931 0.379469
O O2 0.287118 0.000000 0.500000
O O3 0.000000 0.000000 0.429863
O O4 0.750000 0.250000 0.750000
O O5 0.693153 0.339222 0.834436
O O6 0.741904 0.241596 0.880645
O O7 0.000000 0.297656 0.819833
O O8 0.500000 0.942407 0.860691
O O9 0.673485 0.862239 0.909507
O O10 0.500000 0.923615 0.000000
O O11 0.675351 0.090821 0.250218
O O12 0.500000 0.000000 0.253824
O O13 0.500000 0.577285 0.204931
O O14 0.000000 0.831304 0.103010
O O15 0.192420 0.793256 0.000000
#
# Coordination Sequence:
#
# PCOD8292094 Si02
#       6
#     8  16   8   8  16  16
#     4   9  20  41  65  89 120 164 212 254 298 353
#     4  11  22  35  57  88 122 156 200 246 296 355
#     4  10  22  39  62  88 116 155 196 246 306 362
#     4  12  24  41  64  86 118 154 205 253 303 367
#     4  11  23  40  61  88 125 161 203 252 306 353
#     4   9  20  38  57  82 119 157 194 236 291 358
#
# _framework density 20.244139000000001
#
# number of rings (size 3 to 8) (size 9 to 14) (size 15 to 20)
#    0.000    1.667    2.222    2.000    3.111    3.778 
#    0.000    1.111    0.000    0.000    0.000    4.667 
#    0.000    0.000    0.000    0.000    0.000    0.000 
#
# Total GULP energy -446238.028478 kJ/mol
# GULP energy per Si atom -12395.500791 kJ/mol
# Density = 2.019806 g / cm^3
# Si number density = 20.244139 Si / 1000 Ang^3
#
#
#
# Elastic Constant Matrix: (Units=GPa)
#
#
# Indices 1 2 3 4 5 6 
#
# 1 81.3539 1.7393 29.3563 0.0000 0.0000 0.0000
# 2 1.7393 77.0865 33.3958 0.0000 0.0000 0.0000
# 3 29.3563 33.3958 113.3242 -0.0003 0.0001 0.0000
# 4 0.0000 0.0000 -0.0003 35.4275 0.0000 0.0000
# 5 0.0000 0.0000 0.0001 0.0000 9.1346 0.0000
# 6 0.0000 0.0000 0.0000 0.0000 0.0000 21.4874
#
#
#
# Elastic Compliance Matrix: (Units=1/GPa)
#
#
# Indices 1 2 3 4 5 6 
#
# 1 0.013691 0.001407 -0.003961 0.000000 0.000000 0.000000
# 2 0.001407 0.015016 -0.004790 0.000000 0.000000 0.000000
# 3 -0.003961 -0.004790 0.011262 0.000000 0.000000 0.000000
# 4 0.000000 0.000000 0.000000 0.028227 0.000000 0.000000
# 5 0.000000 0.000000 0.000000 0.000000 0.109474 0.000000
# 6 0.000000 0.000000 0.000000 0.000000 0.000000 0.046539
#
#
# Mechanical properties :
#
#
# Convention : Reuss Voigt Hill
#
# Bulk Modulus (GPa) = 39.55464 44.52747 42.04105
# Shear Modulus (GPa) = 20.21649 27.02813 23.62231
#
# Velocity S-wave (km/s) = 3.16355 3.65788 3.41966
# Velocity P-wave (km/s) = 5.73805 6.31531 6.03359
#
# Compressibility (1/GPa) = 0.02528149
#
# Stress axis : x y z
#
# Youngs Moduli (GPa) = 73.03884 66.59725 88.79518
#
# Poissons Ratio (x) = -0.09372 0.35175
# Poissons Ratio (y) = -0.10279 0.42529
# Poissons Ratio (z) = 0.28934 0.31897
#
# Static dielectric constant tensor:
#      x y z
#    x 3.829040 0.000000 0.000000 
#    y 0.000000 3.516190 0.000000 
#    z 0.000000 0.000000 3.828310 
# 
# 
# High freq. dielectric constant tensor:
#      x y z
#    x 1.799610 0.000000 0.000000 
#    y 0.000000 1.781140 0.000000 
#    z 0.000000 0.000000 1.790210 
# 
# From -- ./inp_files/8020.got.cif
#   From: 2010.06.25/outbox.cif.g09.slc.cpg/sg71_5_cif.got.tgz:8020.got - 2010.06.28 04:59:45.
