data_PCOD8292350
_publ_section_title
;
Structure prediction by ZEFSAII (Michael W. Deem and Ramdas Pophale) SiO2 
 PCOD8292350
Probable space group: I M M M
;
_chemical_formula_sum "Si O2"
_cell_formula_units_Z 104
_cell_length_a 23.843592
_cell_length_b 28.170547
_cell_length_c 9.287505
_cell_angle_alpha 90.000000
_cell_angle_beta 90.000000
_cell_angle_gamma 90.000000
_cell_volume 6238.296641
_symmetry_space_group_name_H-M "I M M M"
_symmetry_group_IT_number 71
_symmetry_cell_setting 'orthorhombic'
loop_
_space_group_symop_operation_xyz
x,y,z
-x,-y,z
x,-y,-z
-x,y,-z
-x,-y,-z
x,y,-z
-x,y,z
x,-y,z
1/2+x,1/2+y,1/2+z
1/2-x,1/2-y,1/2+z
1/2+x,1/2-y,1/2-z
1/2-x,1/2+y,1/2-z
1/2-x,1/2-y,1/2-z
1/2+x,1/2+y,1/2-z
1/2-x,1/2+y,1/2+z
1/2+x,1/2-y,1/2+z
loop_
_atom_site_type_symbol
_atom_site_label
_atom_site_fract_x
_atom_site_fract_y
_atom_site_fract_z
Si Si1 0.566357 0.500000 0.333376
Si Si2 0.936545 0.625391 0.829073
Si Si3 0.566712 0.229902 0.659577
Si Si4 0.436208 0.680830 0.167541
Si Si5 0.874514 0.084744 0.670278
Si Si6 0.728697 0.555446 0.664001
Si Si7 0.143140 0.554655 0.666490
O O1 0.500000 0.500000 0.321198
O O2 0.586139 0.500000 0.500000
O O3 0.589047 0.453664 0.254343
O O4 0.915379 0.677958 0.780941
O O5 0.896763 0.586258 0.762450
O O6 0.000000 0.616333 0.774837
O O7 0.934109 0.621612 0.000000
O O8 0.591307 0.237808 0.500000
O O9 0.500000 0.230860 0.654933
O O10 0.589877 0.272348 0.758326
O O11 0.500000 0.671215 0.218731
O O12 0.399127 0.635887 0.210269
O O13 0.434191 0.690993 0.000000
O O14 0.876944 0.074486 0.500000
O O15 0.810598 0.084104 0.725955
O O16 0.717395 0.571728 0.500000
O O17 0.714721 0.500000 0.679550
O O18 0.792645 0.565895 0.707329
O O19 0.132308 0.566080 0.500000
O O20 0.129460 0.500000 0.699689
#
# Coordination Sequence:
#
# PCOD8292350 Si02
#       7
#     8  16  16  16  16  16  16
#     4  11  23  35  47  67  97 133 168 201 244 297
#     4   9  18  32  50  75 105 132 158 194 241 288
#     4   8  15  29  48  69  94 125 161 197 234 284
#     4   9  18  31  46  68  98 127 156 196 246 293
#     4  11  21  32  49  72  97 126 162 206 251 295
#     4   9  18  34  52  68  92 126 166 207 244 287
#     4   9  19  34  51  73 100 131 164 200 239 282
#
# _framework density 16.671218
#
# number of rings (size 3 to 8) (size 9 to 14) (size 15 to 20)
#    0.000    2.692    0.769    3.000    0.000    4.615 
#    0.000    6.154    0.000    0.923    0.000    0.000 
#    0.000    0.000    0.000    0.000    0.000    0.000 
#
# Total GULP energy -644681.326248 kJ/mol
# GULP energy per Si atom -12397.717812 kJ/mol
# Density = 1.663327 g / cm^3
# Si number density = 16.671218 Si / 1000 Ang^3
#
#
#
# Elastic Constant Matrix: (Units=GPa)
#
#
# Indices 1 2 3 4 5 6 
#
# 1 79.8698 59.4138 43.6173 0.0000 0.0000 0.0000
# 2 59.4138 117.3350 56.9317 0.0000 0.0000 0.0000
# 3 43.6173 56.9317 67.4692 0.0000 0.0000 0.0000
# 4 0.0000 0.0000 0.0000 33.8265 0.0000 0.0000
# 5 0.0000 0.0000 0.0000 0.0000 29.0133 0.0000
# 6 0.0000 0.0000 0.0000 0.0000 0.0000 9.7152
#
#
#
# Elastic Compliance Matrix: (Units=1/GPa)
#
#
# Indices 1 2 3 4 5 6 
#
# 1 0.022576 -0.007366 -0.008379 0.000000 0.000000 0.000000
# 2 -0.007366 0.016834 -0.009443 0.000000 0.000000 0.000000
# 3 -0.008379 -0.009443 0.028207 0.000000 0.000000 0.000000
# 4 0.000000 0.000000 0.000000 0.029563 0.000000 0.000000
# 5 0.000000 0.000000 0.000000 0.000000 0.034467 0.000000
# 6 0.000000 0.000000 0.000000 0.000000 0.000000 0.102931
#
#
# Mechanical properties :
#
#
# Convention : Reuss Voigt Hill
#
# Bulk Modulus (GPa) = 58.00362 64.95548 61.47955
# Shear Modulus (GPa) = 17.19982 21.49176 19.34579
#
# Velocity S-wave (km/s) = 3.21551 3.59437 3.41020
# Velocity P-wave (km/s) = 6.97525 7.50155 7.24318
#
# Compressibility (1/GPa) = 0.01724030
#
# Stress axis : x y z
#
# Youngs Moduli (GPa) = 44.29567 59.40273 35.45219
#
# Poissons Ratio (x) = 0.43754 0.29706
# Poissons Ratio (y) = 0.32627 0.33478
# Poissons Ratio (z) = 0.37117 0.56096
#
# Static dielectric constant tensor:
#      x y z
#    x 3.037170 0.000000 0.000000 
#    y 0.000000 3.242380 0.000000 
#    z 0.000000 0.000000 3.141870 
# 
# 
# High freq. dielectric constant tensor:
#      x y z
#    x 1.623190 0.000000 0.000000 
#    y 0.000000 1.640880 0.000000 
#    z 0.000000 0.000000 1.643270 
# 
# From -- ./inp_files/15530.got.cif
#   From: 2010.06.25/outbox.cif.g09.slc.cpg/sg71_8_cif.got.tgz:15530.got - 2010.06.28 04:59:45.
