data_PCOD8292901
_publ_section_title
;
Structure prediction by ZEFSAII (Michael W. Deem and Ramdas Pophale) SiO2 
 PCOD8292901
Probable space group: I B A M
;
_chemical_formula_sum "Si O2"
_cell_formula_units_Z 64
_cell_length_a 19.357486
_cell_length_b 8.436373
_cell_length_c 16.527146
_cell_angle_alpha 90.000000
_cell_angle_beta 90.000000
_cell_angle_gamma 90.000000
_cell_volume 2698.998173
_symmetry_space_group_name_H-M "I B A M"
_symmetry_group_IT_number 72
_symmetry_cell_setting 'orthorhombic'
loop_
_space_group_symop_operation_xyz
x,y,z
-x,-y,z
x,-y,1/2-z
-x,y,1/2-z
-x,-y,-z
x,y,-z
-x,y,1/2+z
x,-y,1/2+z
1/2+x,1/2+y,1/2+z
1/2-x,1/2-y,1/2+z
1/2+x,1/2-y,-z
1/2-x,1/2+y,-z
1/2-x,1/2-y,1/2-z
1/2+x,1/2+y,1/2-z
1/2-x,1/2+y,z
1/2+x,1/2-y,z
loop_
_atom_site_type_symbol
_atom_site_label
_atom_site_fract_x
_atom_site_fract_y
_atom_site_fract_z
Si Si1 0.523965 0.735398 0.340123
Si Si2 0.342980 0.148675 0.405459
Si Si3 0.225832 0.035586 0.843727
Si Si4 0.092841 0.929890 0.907537
O O1 0.500000 0.773396 0.250000
O O2 0.578432 0.868105 0.371111
O O3 0.563363 0.567461 0.348838
O O4 0.453308 0.728053 0.393621
O O5 0.346830 0.185829 0.500000
O O6 0.301181 0.288177 0.359984
O O7 0.300452 0.988569 0.386756
O O8 0.234014 0.000000 0.750000
O O9 0.172434 0.906374 0.882384
O O10 0.087143 0.986120 0.000000
#
# Coordination Sequence:
#
# PCOD8292901 Si02
#       4
#    16  16  16  16
#     4  10  18  30  51  79 111 145 187 238 283 328
#     4  11  22  39  60  88 119 154 192 237 289 347
#     4  11  22  37  59  87 120 155 191 236 289 345
#     4  10  17  30  52  82 113 146 186 239 291 338
#
# _framework density 23.712499999999999
#
# number of rings (size 3 to 8) (size 9 to 14) (size 15 to 20)
#    0.000    1.500    0.000   12.000    0.000    0.000 
#    0.000    0.000    0.000    5.250    0.000   10.500 
#    0.000    0.000    0.000    0.000    0.000    0.000 
#
# Total GULP energy -396601.643983 kJ/mol
# GULP energy per Si atom -12393.801374 kJ/mol
# Density = 2.365853 g / cm^3
# Si number density = 23.712500 Si / 1000 Ang^3
#
#
#
# Elastic Constant Matrix: (Units=GPa)
#
#
# Indices 1 2 3 4 5 6 
#
# 1 120.7691 -3.1804 20.9665 0.0000 0.0000 0.0000
# 2 -3.1804 15.4778 -1.3188 0.0000 0.0000 0.0000
# 3 20.9665 -1.3188 149.8194 0.0000 0.0000 0.0000
# 4 0.0000 0.0000 0.0000 -5.6906 0.0000 0.0000
# 5 0.0000 0.0000 0.0000 0.0000 42.8426 0.0000
# 6 0.0000 0.0000 0.0000 0.0000 0.0000 31.6248
#
#
#
# Elastic Compliance Matrix: (Units=1/GPa)
#
#
# Indices 1 2 3 4 5 6 
#
# 1 0.008528 0.001652 -0.001179 0.000000 0.000000 0.000000
# 2 0.001652 0.064977 0.000341 0.000000 0.000000 0.000000
# 3 -0.001179 0.000341 0.006843 0.000000 0.000000 0.000000
# 4 0.000000 0.000000 0.000000 -0.175727 0.000000 0.000000
# 5 0.000000 0.000000 0.000000 0.000000 0.023341 0.000000
# 6 0.000000 0.000000 0.000000 0.000000 0.000000 0.031621
#
#
# Mechanical properties :
#
#
# Convention : Reuss Voigt Hill
#
# Bulk Modulus (GPa) = 12.19872 35.44455 23.82164
# Shear Modulus (GPa) = -339.68904 31.72861 -153.98021
#
# Velocity S-wave (km/s) = -11.98183 3.66191 -8.06705
# Velocity P-wave (km/s) = 13.64783 5.73232 8.75796
#
# Compressibility (1/GPa) = 0.08197581
#
# Stress axis : x y z
#
# Youngs Moduli (GPa) = 117.25468 15.39003 146.14129
#
# Poissons Ratio (x) = -0.02542 0.17230
# Poissons Ratio (y) = -0.19370 -0.04980
# Poissons Ratio (z) = 0.13824 -0.00524
#
# Static dielectric constant tensor:
#      x y z
#    x 5.362430 0.000000 0.000000 
#    y 0.000000 3.678440 0.000000 
#    z 0.000000 0.000000 4.094980 
# 
# 
# High freq. dielectric constant tensor:
#      x y z
#    x 1.967580 0.000000 0.000000 
#    y 0.000000 1.878920 0.000000 
#    z 0.000000 0.000000 1.944140 
# 
# From -- ./inp_files/22799.got.cif
#   From: 2010.03.12/outbox.cif.g09.slc.cpg/sg72_12_cif.got.tgz:22799.got - 2010.04.16 14:54:00.
