data_PCOD8292519
_publ_section_title
;
Structure prediction by ZEFSAII (Michael W. Deem and Ramdas Pophale) SiO2 
 PCOD8292519
Probable space group: I M M M
;
_chemical_formula_sum "Si O2"
_cell_formula_units_Z 80
_cell_length_a 16.944615
_cell_length_b 27.517009
_cell_length_c 8.746760
_cell_angle_alpha 90.000000
_cell_angle_beta 90.000000
_cell_angle_gamma 90.000000
_cell_volume 4078.309131
_symmetry_space_group_name_H-M "I M M M"
_symmetry_group_IT_number 71
_symmetry_cell_setting 'orthorhombic'
loop_
_space_group_symop_operation_xyz
x,y,z
-x,-y,z
x,-y,-z
-x,y,-z
-x,-y,-z
x,y,-z
-x,y,z
x,-y,z
1/2+x,1/2+y,1/2+z
1/2-x,1/2-y,1/2+z
1/2+x,1/2-y,1/2-z
1/2-x,1/2+y,1/2-z
1/2-x,1/2-y,1/2-z
1/2+x,1/2+y,1/2-z
1/2-x,1/2+y,1/2+z
1/2+x,1/2-y,1/2+z
loop_
_atom_site_type_symbol
_atom_site_label
_atom_site_fract_x
_atom_site_fract_y
_atom_site_fract_z
Si Si1 0.650237 0.114240 0.318110
Si Si2 0.588936 0.500000 0.680362
Si Si3 0.500000 0.945079 0.682359
Si Si4 0.093613 0.821313 0.825036
Si Si5 0.676939 0.590378 0.179039
Si Si6 0.087608 0.714226 0.818529
O O1 0.648414 0.114112 0.500000
O O2 0.578183 0.081768 0.254333
O O3 0.732970 0.092452 0.260348
O O4 0.642088 0.170009 0.258233
O O5 0.500000 0.500000 0.747099
O O6 0.586281 0.500000 0.500000
O O7 0.633352 0.452241 0.733892
O O8 0.500000 0.944208 0.500000
O O9 0.500000 0.000000 0.744729
O O10 0.135134 0.858680 0.712160
O O11 0.120721 0.767256 0.770806
O O12 0.000000 0.826355 0.809442
O O13 0.119125 0.831630 0.000000
O O14 0.673611 0.579516 0.000000
O O15 0.000000 0.706468 0.750299
O O16 0.081415 0.713031 0.000000
#
# Coordination Sequence:
#
# PCOD8292519 Si02
#       6
#    16   8   8  16  16  16
#     4   9  17  29  47  77 114 143 176 221 268 316
#     4  11  25  45  65  78  97 138 188 223 255 313
#     4   9  16  26  46  72 106 148 180 215 266 315
#     4   9  18  33  54  77 104 143 191 227 257 310
#     4  11  23  35  53  85 117 137 165 220 283 327
#     4   8  13  26  49  74 103 145 189 225 256 300
#
# _framework density 19.615971999999999
#
# number of rings (size 3 to 8) (size 9 to 14) (size 15 to 20)
#    0.000    2.600    1.000    2.700    1.400    4.400 
#    0.000    0.000    0.000    1.200    0.000    3.500 
#    0.000    0.000    0.000    0.000    0.000    0.000 
#
# Total GULP energy -495844.267843 kJ/mol
# GULP energy per Si atom -12396.106696 kJ/mol
# Density = 1.957133 g / cm^3
# Si number density = 19.615972 Si / 1000 Ang^3
#
#
#
# Elastic Constant Matrix: (Units=GPa)
#
#
# Indices 1 2 3 4 5 6 
#
# 1 134.9142 86.0980 22.7358 -0.0028 -0.0006 0.0002
# 2 86.0980 170.6714 18.4034 -0.0009 -0.0002 0.0000
# 3 22.7358 18.4034 25.7660 -0.0039 -0.0006 -0.0035
# 4 -0.0028 -0.0009 -0.0039 -6.6580 -0.0003 0.0010
# 5 -0.0006 -0.0002 -0.0006 -0.0003 13.8481 0.0003
# 6 0.0002 0.0000 -0.0035 0.0010 0.0003 9.8143
#
#
#
# Elastic Compliance Matrix: (Units=1/GPa)
#
#
# Indices 1 2 3 4 5 6 
#
# 1 0.011923 -0.005288 -0.006744 0.000000 0.000000 -0.000003
# 2 -0.005288 0.008693 -0.001543 0.000002 0.000000 0.000000
# 3 -0.006744 -0.001543 0.045864 -0.000024 0.000002 0.000016
# 4 0.000000 0.000002 -0.000024 -0.150196 -0.000003 0.000016
# 5 0.000000 0.000000 0.000002 -0.000003 0.072212 -0.000002
# 6 -0.000003 0.000000 0.000016 0.000016 -0.000002 0.101892
#
#
# Mechanical properties :
#
#
# Convention : Reuss Voigt Hill
#
# Bulk Modulus (GPa) = 25.42579 65.09180 45.25879
# Shear Modulus (GPa) = 38.27064 17.00851 27.63957
#
# Velocity S-wave (km/s) = 4.42180 2.94781 3.75778
# Velocity P-wave (km/s) = 6.24977 6.69636 6.47691
#
# Compressibility (1/GPa) = 0.03933015
#
# Stress axis : x y z
#
# Youngs Moduli (GPa) = 83.87158 115.03500 21.80351
#
# Poissons Ratio (x) = 0.60825 0.14705
# Poissons Ratio (y) = 0.44347 0.03365
# Poissons Ratio (z) = 0.56565 0.17753
#
# Static dielectric constant tensor:
#      x y z
#    x 3.764330 0.000000 0.000000 
#    y 0.000000 3.945910 0.000000 
#    z 0.000000 0.000000 3.018720 
# 
# 
# High freq. dielectric constant tensor:
#      x y z
#    x 1.764690 0.000000 0.000000 
#    y 0.000000 1.783960 0.000000 
#    z 0.000000 0.000000 1.707040 
# 
# From -- ./inp_files/8390.got.cif
#   From: 2010.06.25/outbox.cif.g09.slc.cpg/sg71_5_cif.got.tgz:8390.got - 2010.06.28 04:59:45.
