data_PCOD8292448
_publ_section_title
;
Structure prediction by ZEFSAII (Michael W. Deem and Ramdas Pophale) SiO2 
 PCOD8292448
Probable space group: I M M M
;
_chemical_formula_sum "Si O2"
_cell_formula_units_Z 72
_cell_length_a 8.907588
_cell_length_b 32.054852
_cell_length_c 13.567213
_cell_angle_alpha 90.000000
_cell_angle_beta 90.000000
_cell_angle_gamma 90.000000
_cell_volume 3873.865526
_symmetry_space_group_name_H-M "I M M M"
_symmetry_group_IT_number 71
_symmetry_cell_setting 'orthorhombic'
loop_
_space_group_symop_operation_xyz
x,y,z
-x,-y,z
x,-y,-z
-x,y,-z
-x,-y,-z
x,y,-z
-x,y,z
x,-y,z
1/2+x,1/2+y,1/2+z
1/2-x,1/2-y,1/2+z
1/2+x,1/2-y,1/2-z
1/2-x,1/2+y,1/2-z
1/2-x,1/2-y,1/2-z
1/2+x,1/2+y,1/2-z
1/2-x,1/2+y,1/2+z
1/2+x,1/2-y,1/2+z
loop_
_atom_site_type_symbol
_atom_site_label
_atom_site_fract_x
_atom_site_fract_y
_atom_site_fract_z
Si Si1 0.331403 0.576389 0.713174
Si Si2 0.825805 0.293889 0.229108
Si Si3 0.333367 0.340746 0.611162
Si Si4 0.323239 0.000000 0.886990
Si Si5 0.676425 0.363938 0.887929
O O1 0.500000 0.559086 0.730130
O O2 0.329474 0.609666 0.624872
O O3 0.225439 0.539484 0.677755
O O4 0.272059 0.598638 0.814477
O O5 0.750000 0.250000 0.250000
O O6 0.799690 0.320406 0.327366
O O7 0.754548 0.319781 0.138179
O O8 0.000000 0.287430 0.207484
O O9 0.300770 0.328744 0.500000
O O10 0.500000 0.324495 0.643547
O O11 0.500000 0.000000 0.894522
O O12 0.256976 0.000000 0.000000
O O13 0.500000 0.356771 0.874028
O O14 0.718061 0.376318 0.000000
#
# Coordination Sequence:
#
# PCOD8292448 Si02
#       5
#    16  16  16   8  16
#     4   9  18  34  56  80 104 134 173 214 259 313
#     4  11  22  35  52  76 107 140 176 218 262 312
#     4   9  18  34  55  77 102 133 170 213 261 313
#     4  11  23  35  50  77 112 146 177 213 260 313
#     4   9  19  38  61  81 104 137 178 224 272 321
#
# _framework density 18.586086999999999
#
# number of rings (size 3 to 8) (size 9 to 14) (size 15 to 20)
#    0.000    2.333    0.000    4.333    0.000    7.111 
#    0.000    0.556    0.000    3.333    0.000    0.000 
#    0.000    0.000    0.000    0.000    0.000    0.000 
#
# Total GULP energy -446172.010895 kJ/mol
# GULP energy per Si atom -12393.666969 kJ/mol
# Density = 1.854378 g / cm^3
# Si number density = 18.586087 Si / 1000 Ang^3
#
#
#
# Elastic Constant Matrix: (Units=GPa)
#
#
# Indices 1 2 3 4 5 6 
#
# 1 80.2355 45.2825 34.7928 -0.0001 0.0000 0.0000
# 2 45.2825 104.8997 48.7218 -0.0003 0.0000 0.0000
# 3 34.7928 48.7218 120.0094 -0.0021 -0.0001 0.0000
# 4 -0.0001 -0.0003 -0.0021 17.6194 0.0000 0.0000
# 5 0.0000 0.0000 -0.0001 0.0000 25.5585 -0.0002
# 6 0.0000 0.0000 0.0000 0.0000 -0.0002 31.5307
#
#
#
# Elastic Compliance Matrix: (Units=1/GPa)
#
#
# Indices 1 2 3 4 5 6 
#
# 1 0.017023 -0.006231 -0.002406 0.000000 0.000000 0.000000
# 2 -0.006231 0.014029 -0.003889 0.000000 0.000000 0.000000
# 3 -0.002406 -0.003889 0.010609 0.000001 0.000000 0.000000
# 4 0.000000 0.000000 0.000001 0.056755 0.000000 0.000000
# 5 0.000000 0.000000 0.000000 0.000000 0.039126 0.000000
# 6 0.000000 0.000000 0.000000 0.000000 0.000000 0.031715
#
#
# Mechanical properties :
#
#
# Convention : Reuss Voigt Hill
#
# Bulk Modulus (GPa) = 60.20597 62.52654 61.36625
# Shear Modulus (GPa) = 25.01932 26.69825 25.85878
#
# Velocity S-wave (km/s) = 3.67295 3.79418 3.73406
# Velocity P-wave (km/s) = 7.10287 7.27386 7.18887
#
# Compressibility (1/GPa) = 0.01660965
#
# Stress axis : x y z
#
# Youngs Moduli (GPa) = 58.74370 71.28063 94.25982
#
# Poissons Ratio (x) = 0.44416 0.22675
# Poissons Ratio (y) = 0.36604 0.36658
# Poissons Ratio (z) = 0.14131 0.27721
#
# Static dielectric constant tensor:
#      x y z
#    x 3.484840 0.000000 0.000000 
#    y 0.000000 3.471250 0.000000 
#    z 0.000000 0.000000 3.527580 
# 
# 
# High freq. dielectric constant tensor:
#      x y z
#    x 1.710960 0.000000 0.000000 
#    y 0.000000 1.713300 0.000000 
#    z 0.000000 0.000000 1.723190 
# 
# From -- ./inp_files/6460.got.cif
#   From: 2010.06.25/outbox.cif.g09.slc.cpg/sg71_4_cif.got.tgz:6460.got - 2010.06.28 04:59:45.
