data_PCOD8292728
_publ_section_title
;
Structure prediction by ZEFSAII (Michael W. Deem and Ramdas Pophale) SiO2 
 PCOD8292728
Probable space group: I M M M
;
_chemical_formula_sum "Si O2"
_cell_formula_units_Z 72
_cell_length_a 9.371441
_cell_length_b 19.405311
_cell_length_c 22.508098
_cell_angle_alpha 90.000000
_cell_angle_beta 90.000000
_cell_angle_gamma 90.000000
_cell_volume 4093.226528
_symmetry_space_group_name_H-M "I M M M"
_symmetry_group_IT_number 71
_symmetry_cell_setting 'orthorhombic'
loop_
_space_group_symop_operation_xyz
x,y,z
-x,-y,z
x,-y,-z
-x,y,-z
-x,-y,-z
x,y,-z
-x,y,z
x,-y,z
1/2+x,1/2+y,1/2+z
1/2-x,1/2-y,1/2+z
1/2+x,1/2-y,1/2-z
1/2-x,1/2+y,1/2-z
1/2-x,1/2-y,1/2-z
1/2+x,1/2+y,1/2-z
1/2-x,1/2+y,1/2+z
1/2+x,1/2-y,1/2+z
loop_
_atom_site_type_symbol
_atom_site_label
_atom_site_fract_x
_atom_site_fract_y
_atom_site_fract_z
Si Si1 0.830355 0.160488 0.612181
Si Si2 0.333442 0.078616 0.844088
Si Si3 0.669402 0.805726 0.933215
Si Si4 0.166507 0.079426 0.273690
Si Si5 0.670349 0.577092 0.000000
O O1 0.775880 0.238715 0.603000
O O2 0.774114 0.128445 0.673889
O O3 0.769652 0.115244 0.558064
O O4 0.000000 0.156991 0.611959
O O5 0.500000 0.089657 0.831304
O O6 0.280060 0.126193 0.898293
O O7 0.250212 0.100795 0.785236
O O8 0.299311 0.000000 0.861959
O O9 0.500000 0.803095 0.937792
O O10 0.733778 0.807023 0.000000
O O11 0.000000 0.091707 0.261887
O O12 0.196017 0.000000 0.291198
O O13 0.730672 0.500000 0.000000
O O14 0.500000 0.577737 0.000000
#
# Coordination Sequence:
#
# PCOD8292728 Si02
#       5
#    16  16  16  16   8
#     4   9  15  24  39  62  90 117 143 175 218 263
#     4   9  18  31  46  65  88 115 149 185 219 258
#     4   9  16  27  43  63  88 115 144 183 226 261
#     4   9  17  29  45  66  92 118 144 177 217 261
#     4   9  14  20  34  58  88 118 144 173 213 259
#
# _framework density 17.590035
#
# number of rings (size 3 to 8) (size 9 to 14) (size 15 to 20)
#    0.000    3.000    1.111    0.667    0.000    4.000 
#    0.000    2.222    0.000    0.667    0.000    3.889 
#    0.000    4.444    0.000    0.000    0.000    0.000 
#
# Total GULP energy -446293.105872 kJ/mol
# GULP energy per Si atom -12397.030719 kJ/mol
# Density = 1.755000 g / cm^3
# Si number density = 17.590035 Si / 1000 Ang^3
#
#
#
# Elastic Constant Matrix: (Units=GPa)
#
#
# Indices 1 2 3 4 5 6 
#
# 1 15.2309 18.8252 25.7786 0.0000 0.0000 0.0000
# 2 18.8252 139.0050 96.8951 0.0000 0.0000 0.0000
# 3 25.7786 96.8951 155.6018 0.0000 0.0000 0.0000
# 4 0.0000 0.0000 0.0000 38.8967 0.0000 0.0000
# 5 0.0000 0.0000 0.0000 0.0000 20.5874 0.0000
# 6 0.0000 0.0000 0.0000 0.0000 0.0000 10.5108
#
#
#
# Elastic Compliance Matrix: (Units=1/GPa)
#
#
# Indices 1 2 3 4 5 6 
#
# 1 0.092061 -0.003245 -0.013231 0.000000 0.000000 0.000000
# 2 -0.003245 0.012826 -0.007449 0.000000 0.000000 0.000000
# 3 -0.013231 -0.007449 0.013258 0.000000 0.000000 0.000000
# 4 0.000000 0.000000 0.000000 0.025709 0.000000 0.000000
# 5 0.000000 0.000000 0.000000 0.000000 0.048573 0.000000
# 6 0.000000 0.000000 0.000000 0.000000 0.000000 0.095140
#
#
# Mechanical properties :
#
#
# Convention : Reuss Voigt Hill
#
# Bulk Modulus (GPa) = 14.22602 65.87061 40.04831
# Shear Modulus (GPa) = 13.93343 25.22157 19.57750
#
# Velocity S-wave (km/s) = 2.81752 3.79074 3.33977
# Velocity P-wave (km/s) = 4.32315 7.52918 6.13914
#
# Compressibility (1/GPa) = 0.07029375
#
# Stress axis : x y z
#
# Youngs Moduli (GPa) = 10.86240 77.96595 75.42873
#
# Poissons Ratio (x) = 0.25297 0.99802
# Poissons Ratio (y) = 0.03524 0.56190
# Poissons Ratio (z) = 0.14372 0.58080
#
# Static dielectric constant tensor:
#      x y z
#    x 2.666520 0.000000 0.000000 
#    y 0.000000 3.465060 0.000000 
#    z 0.000000 0.000000 3.439660 
# 
# 
# High freq. dielectric constant tensor:
#      x y z
#    x 1.609190 0.000000 0.000000 
#    y 0.000000 1.690480 0.000000 
#    z 0.000000 0.000000 1.688320 
# 
# From -- ./inp_files/7931.got.cif
#   From: 2010.06.25/outbox.cif.g09.slc.cpg/sg71_4_cif.got.tgz:7931.got - 2010.06.28 04:59:45.
