data_PCOD8292557
_publ_section_title
;
Structure prediction by ZEFSAII (Michael W. Deem and Ramdas Pophale) SiO2 
 PCOD8292557
Probable space group: I M M M
;
_chemical_formula_sum "Si O2"
_cell_formula_units_Z 48
_cell_length_a 8.520119
_cell_length_b 24.993185
_cell_length_c 10.637401
_cell_angle_alpha 90.000000
_cell_angle_beta 90.000000
_cell_angle_gamma 90.000000
_cell_volume 2265.180403
_symmetry_space_group_name_H-M "I M M M"
_symmetry_group_IT_number 71
_symmetry_cell_setting 'orthorhombic'
loop_
_space_group_symop_operation_xyz
x,y,z
-x,-y,z
x,-y,-z
-x,y,-z
-x,-y,-z
x,y,-z
-x,y,z
x,-y,z
1/2+x,1/2+y,1/2+z
1/2-x,1/2-y,1/2+z
1/2+x,1/2-y,1/2-z
1/2-x,1/2+y,1/2-z
1/2-x,1/2-y,1/2-z
1/2+x,1/2+y,1/2-z
1/2-x,1/2+y,1/2+z
1/2+x,1/2-y,1/2+z
loop_
_atom_site_type_symbol
_atom_site_label
_atom_site_fract_x
_atom_site_fract_y
_atom_site_fract_z
Si Si1 0.684579 0.788374 0.642198
Si Si2 0.683717 0.603658 0.754532
Si Si3 0.171696 0.500000 0.857627
Si Si4 0.314528 0.937579 0.000000
O O1 0.746796 0.774540 0.500000
O O2 0.500000 0.782245 0.643168
O O3 0.750000 0.750000 0.750000
O O4 0.729419 0.848608 0.675286
O O5 0.500000 0.615639 0.752575
O O6 0.721498 0.550461 0.829894
O O7 0.746612 0.595641 0.615040
O O8 0.000000 0.500000 0.784013
O O9 0.125149 0.500000 0.000000
O O10 0.500000 0.934643 0.000000
O O11 0.257925 0.000000 0.000000
#
# Coordination Sequence:
#
# PCOD8292557 Si02
#       4
#    16  16   8   8
#     4  11  26  48  73 101 136 179 229 282 340 406
#     4  12  25  41  66  98 135 173 220 277 337 402
#     4  11  23  40  63  92 129 173 219 269 332 401
#     4  11  23  41  67  97 134 180 226 271 332 401
#
# _framework density 21.190363999999999
#
# number of rings (size 3 to 8) (size 9 to 14) (size 15 to 20)
#    0.000    0.667    1.667    6.000    2.333    8.667 
#    0.000    0.000    0.000    0.000    0.000    0.000 
#    0.000    0.000    0.000    0.000    0.000    0.000 
#
# Total GULP energy -297573.948042 kJ/mol
# GULP energy per Si atom -12398.914502 kJ/mol
# Density = 2.114213 g / cm^3
# Si number density = 21.190364 Si / 1000 Ang^3
#
#
#
# Elastic Constant Matrix: (Units=GPa)
#
#
# Indices 1 2 3 4 5 6 
#
# 1 64.2481 13.9404 46.4865 0.0001 -0.0001 -0.0001
# 2 13.9404 130.7945 68.8488 0.0001 -0.0001 0.0000
# 3 46.4865 68.8488 182.9361 0.0000 -0.0001 0.0000
# 4 0.0001 0.0001 0.0000 48.0143 0.0000 0.0000
# 5 -0.0001 -0.0001 -0.0001 0.0000 34.9032 0.0000
# 6 -0.0001 0.0000 0.0000 0.0000 0.0000 43.8496
#
#
#
# Elastic Compliance Matrix: (Units=1/GPa)
#
#
# Indices 1 2 3 4 5 6 
#
# 1 0.019115 0.000648 -0.005101 0.000000 0.000000 0.000000
# 2 0.000648 0.009556 -0.003761 0.000000 0.000000 0.000000
# 3 -0.005101 -0.003761 0.008178 0.000000 0.000000 0.000000
# 4 0.000000 0.000000 0.000000 0.020827 0.000000 0.000000
# 5 0.000000 0.000000 0.000000 0.000000 0.028651 0.000000
# 6 0.000000 0.000000 0.000000 0.000000 0.000000 0.022805
#
#
# Mechanical properties :
#
#
# Convention : Reuss Voigt Hill
#
# Bulk Modulus (GPa) = 48.97020 70.72555 59.84788
# Shear Modulus (GPa) = 37.77326 41.93360 39.85343
#
# Velocity S-wave (km/s) = 4.22663 4.45331 4.34145
# Velocity P-wave (km/s) = 6.85412 7.73895 7.30994
#
# Compressibility (1/GPa) = 0.02042058
#
# Stress axis : x y z
#
# Youngs Moduli (GPa) = 52.31473 104.64196 122.27572
#
# Poissons Ratio (x) = -0.06780 0.62376
# Poissons Ratio (y) = -0.03389 0.45991
# Poissons Ratio (z) = 0.26687 0.39358
#
# Static dielectric constant tensor:
#      x y z
#    x 3.915150 0.000000 0.000000 
#    y 0.000000 3.904590 0.000000 
#    z 0.000000 0.000000 4.477990 
# 
# 
# High freq. dielectric constant tensor:
#      x y z
#    x 1.843720 0.000000 0.000000 
#    y 0.000000 1.834280 0.000000 
#    z 0.000000 0.000000 1.854050 
# 
# From -- ./inp_files/3060.got.cif
#   From: 2010.06.25/outbox.cif.g09.slc.cpg/sg71_2_cif.got.tgz:3060.got - 2010.06.28 04:59:45.
