data_PCOD8292815
_publ_section_title
;
Structure prediction by ZEFSAII (Michael W. Deem and Ramdas Pophale) SiO2 
 PCOD8292815
Probable space group: I B A M
;
_chemical_formula_sum "Si O2"
_cell_formula_units_Z 80
_cell_length_a 19.444482
_cell_length_b 8.278845
_cell_length_c 26.288333
_cell_angle_alpha 90.000000
_cell_angle_beta 90.000000
_cell_angle_gamma 90.000000
_cell_volume 4231.839394
_symmetry_space_group_name_H-M "I B A M"
_symmetry_group_IT_number 72
_symmetry_cell_setting 'orthorhombic'
loop_
_space_group_symop_operation_xyz
x,y,z
-x,-y,z
x,-y,1/2-z
-x,y,1/2-z
-x,-y,-z
x,y,-z
-x,y,1/2+z
x,-y,1/2+z
1/2+x,1/2+y,1/2+z
1/2-x,1/2-y,1/2+z
1/2+x,1/2-y,-z
1/2-x,1/2+y,-z
1/2-x,1/2-y,1/2-z
1/2+x,1/2+y,1/2-z
1/2-x,1/2+y,z
1/2+x,1/2-y,z
loop_
_atom_site_type_symbol
_atom_site_label
_atom_site_fract_x
_atom_site_fract_y
_atom_site_fract_z
Si Si1 0.079999 0.028714 0.895310
Si Si2 0.852591 0.952176 0.500000
Si Si3 0.325685 0.821628 0.107155
Si Si4 0.721384 0.216575 0.000000
Si Si5 0.217910 0.613676 0.167011
Si Si6 0.657108 0.418711 0.298609
O O1 0.104129 0.215742 0.889315
O O2 0.100628 0.956633 0.949930
O O3 0.114760 0.929212 0.850333
O O4 0.000000 0.000000 0.888868
O O5 0.804632 0.793735 0.500000
O O6 0.797206 0.095578 0.500000
O O7 0.258772 0.721000 0.125543
O O8 0.333239 0.986710 0.139197
O O9 0.311749 0.870107 0.049027
O O10 0.272291 0.518352 0.200619
O O11 0.173994 0.727408 0.205525
O O12 0.617310 0.500000 0.250000
#
# Coordination Sequence:
#
# PCOD8292815 Si02
#       6
#    16   8  16   8  16  16
#     4  10  21  35  49  70 103 144 182 210 250 318
#     4  10  19  32  54  76 101 132 168 220 274 320
#     4   9  17  29  49  75 106 137 169 219 270 317
#     4  10  16  26  48  78 100 126 168 214 268 318
#     4   9  17  31  49  76 104 126 165 221 281 322
#     4  10  19  32  53  77 101 132 168 218 271 319
#
# _framework density 18.904308
#
# number of rings (size 3 to 8) (size 9 to 14) (size 15 to 20)
#    0.000    2.400    0.000    5.700    0.000    0.400 
#    0.000    1.000    0.000    0.000    0.000   18.200 
#    0.000    0.000    0.000    0.000    0.000    0.000 
#
# Total GULP energy -495740.566541 kJ/mol
# GULP energy per Si atom -12393.514164 kJ/mol
# Density = 1.886128 g / cm^3
# Si number density = 18.904308 Si / 1000 Ang^3
#
#
#
# Elastic Constant Matrix: (Units=GPa)
#
#
# Indices 1 2 3 4 5 6 
#
# 1 89.6037 41.5329 24.3570 0.0000 0.0000 0.0000
# 2 41.5329 91.9347 28.2316 0.0000 0.0000 0.0000
# 3 24.3570 28.2316 95.9753 0.0000 0.0000 0.0000
# 4 0.0000 0.0000 0.0000 27.7451 0.0000 0.0000
# 5 0.0000 0.0000 0.0000 0.0000 2.7595 0.0000
# 6 0.0000 0.0000 0.0000 0.0000 0.0000 12.0524
#
#
#
# Elastic Compliance Matrix: (Units=1/GPa)
#
#
# Indices 1 2 3 4 5 6 
#
# 1 0.014430 -0.005930 -0.001918 0.000000 0.000000 0.000000
# 2 -0.005930 0.014394 -0.002729 0.000000 0.000000 0.000000
# 3 -0.001918 -0.002729 0.011709 0.000000 0.000000 0.000000
# 4 0.000000 0.000000 0.000000 0.036042 0.000000 0.000000
# 5 0.000000 0.000000 0.000000 0.000000 0.362386 0.000000
# 6 0.000000 0.000000 0.000000 0.000000 0.000000 0.082971
#
#
# Mechanical properties :
#
#
# Convention : Reuss Voigt Hill
#
# Bulk Modulus (GPa) = 51.60163 51.75075 51.67619
# Shear Modulus (GPa) = 9.09841 20.73753 14.91797
#
# Velocity S-wave (km/s) = 2.19621 3.31565 2.81219
# Velocity P-wave (km/s) = 5.81262 6.48788 6.15951
#
# Compressibility (1/GPa) = 0.01937923
#
# Stress axis : x y z
#
# Youngs Moduli (GPa) = 69.29849 69.47123 85.40538
#
# Poissons Ratio (x) = 0.41198 0.16379
# Poissons Ratio (y) = 0.41095 0.23309
# Poissons Ratio (z) = 0.13290 0.18960
#
# Static dielectric constant tensor:
#      x y z
#    x 3.071320 0.000000 0.000000 
#    y 0.000000 3.597250 0.000000 
#    z 0.000000 0.000000 3.692630 
# 
# 
# High freq. dielectric constant tensor:
#      x y z
#    x 1.681490 0.000000 0.000000 
#    y 0.000000 1.731130 0.000000 
#    z 0.000000 0.000000 1.753380 
# 
# From -- ./inp_files/42224.got.cif
#   From: 2010.03.12/outbox.cif.g09.slc.cpg/sg72_22_cif.got.tgz:42224.got - 2010.04.16 14:54:00.
