data_PCOD8292410
_publ_section_title
;
Structure prediction by ZEFSAII (Michael W. Deem and Ramdas Pophale) SiO2 
 PCOD8292410
Probable space group: I M M M
;
_chemical_formula_sum "Si O2"
_cell_formula_units_Z 60
_cell_length_a 11.539370
_cell_length_b 14.666659
_cell_length_c 17.630145
_cell_angle_alpha 90.000000
_cell_angle_beta 90.000000
_cell_angle_gamma 90.000000
_cell_volume 2983.796346
_symmetry_space_group_name_H-M "I M M M"
_symmetry_group_IT_number 71
_symmetry_cell_setting 'orthorhombic'
loop_
_space_group_symop_operation_xyz
x,y,z
-x,-y,z
x,-y,-z
-x,y,-z
-x,-y,-z
x,y,-z
-x,y,z
x,-y,z
1/2+x,1/2+y,1/2+z
1/2-x,1/2-y,1/2+z
1/2+x,1/2-y,1/2-z
1/2-x,1/2+y,1/2-z
1/2-x,1/2-y,1/2-z
1/2+x,1/2+y,1/2-z
1/2-x,1/2+y,1/2+z
1/2+x,1/2-y,1/2+z
loop_
_atom_site_type_symbol
_atom_site_label
_atom_site_fract_x
_atom_site_fract_y
_atom_site_fract_z
Si Si1 0.000000 0.805881 0.089933
Si Si2 0.805173 0.319006 0.845395
Si Si3 0.500000 0.500000 0.393481
Si Si4 0.629874 0.000000 0.412024
Si Si5 0.866773 0.667492 0.673901
Si Si6 0.261535 0.000000 0.917036
O O1 0.111323 0.747619 0.108965
O O2 0.000000 0.898177 0.143911
O O3 0.000000 0.832589 0.000000
O O4 0.793745 0.413022 0.889843
O O5 0.853719 0.346482 0.763406
O O6 0.681474 0.268623 0.844065
O O7 0.624257 0.500000 0.435497
O O8 0.500000 0.000000 0.374322
O O9 0.610686 0.000000 0.500000
O O10 0.797118 0.589410 0.629789
O O11 0.000000 0.662920 0.649095
O O12 0.322749 0.000000 0.000000
#
# Coordination Sequence:
#
# PCOD8292410 Si02
#       6
#     8  16   4   8  16   8
#     4  12  21  39  68  97 127 160 204 266 322 364
#     4  11  23  40  64  93 126 164 210 258 314 374
#     4  12  25  40  64 102 136 156 205 276 321 360
#     4  11  21  36  62  94 121 153 205 265 311 355
#     4  11  24  42  63  89 129 169 208 256 310 383
#     4  12  25  41  65  95 126 170 215 262 323 378
#
# _framework density 20.108609000000001
#
# number of rings (size 3 to 8) (size 9 to 14) (size 15 to 20)
#    0.000    0.667    5.333    3.200    0.000    2.133 
#    0.000    0.667    0.000    0.800    0.000    0.000 
#    0.000    0.000    0.000    0.000    0.000    0.000 
#
# Total GULP energy -371669.155140 kJ/mol
# GULP energy per Si atom -12388.971838 kJ/mol
# Density = 2.006284 g / cm^3
# Si number density = 20.108609 Si / 1000 Ang^3
#
#
#
# Elastic Constant Matrix: (Units=GPa)
#
#
# Indices 1 2 3 4 5 6 
#
# 1 114.4603 45.6730 36.0217 0.0000 0.0000 0.0000
# 2 45.6730 179.8104 49.9707 0.0000 0.0000 0.0000
# 3 36.0217 49.9707 90.9660 0.0000 0.0000 0.0000
# 4 0.0000 0.0000 0.0000 53.9297 0.0000 0.0000
# 5 0.0000 0.0000 0.0000 0.0000 7.8833 0.0000
# 6 0.0000 0.0000 0.0000 0.0000 0.0000 18.8889
#
#
#
# Elastic Compliance Matrix: (Units=1/GPa)
#
#
# Indices 1 2 3 4 5 6 
#
# 1 0.010439 -0.001773 -0.003159 0.000000 0.000000 0.000000
# 2 -0.001773 0.006865 -0.003069 0.000000 0.000000 0.000000
# 3 -0.003159 -0.003069 0.013930 0.000000 0.000000 0.000000
# 4 0.000000 0.000000 0.000000 0.018543 0.000000 0.000000
# 5 0.000000 0.000000 0.000000 0.000000 0.126851 0.000000
# 6 0.000000 0.000000 0.000000 0.000000 0.000000 0.052941
#
#
# Mechanical properties :
#
#
# Convention : Reuss Voigt Hill
#
# Bulk Modulus (GPa) = 65.65934 72.06308 68.86121
# Shear Modulus (GPa) = 19.94832 33.04512 26.49672
#
# Velocity S-wave (km/s) = 3.15307 4.05820 3.63392
# Velocity P-wave (km/s) = 6.78078 7.60746 7.20598
#
# Compressibility (1/GPa) = 0.01523013
#
# Stress axis : x y z
#
# Youngs Moduli (GPa) = 95.79829 145.67256 71.78767
#
# Poissons Ratio (x) = 0.25834 0.22680
# Poissons Ratio (y) = 0.16989 0.22030
# Poissons Ratio (z) = 0.30266 0.44703
#
# Static dielectric constant tensor:
#      x y z
#    x 3.704980 0.000000 0.000000 
#    y 0.000000 3.909340 0.000000 
#    z 0.000000 0.000000 3.559270 
# 
# 
# High freq. dielectric constant tensor:
#      x y z
#    x 1.776160 0.000000 0.000000 
#    y 0.000000 1.808140 0.000000 
#    z 0.000000 0.000000 1.772620 
# 
# From -- ./inp_files/51470.got.cif
#   From: 2010.06.25/outbox.cif.g09.slc.cpg/sg71_26_cif.got.tgz:51470.got - 2010.06.28 04:59:45.
