data_PCOD8292139
_publ_section_title
;
Structure prediction by ZEFSAII (Michael W. Deem and Ramdas Pophale) SiO2 
 PCOD8292139
Probable space group: I M M M
;
_chemical_formula_sum "Si O2"
_cell_formula_units_Z 104
_cell_length_a 9.013638
_cell_length_b 26.630524
_cell_length_c 22.619422
_cell_angle_alpha 90.000000
_cell_angle_beta 90.000000
_cell_angle_gamma 90.000000
_cell_volume 5429.518626
_symmetry_space_group_name_H-M "I M M M"
_symmetry_group_IT_number 71
_symmetry_cell_setting 'orthorhombic'
loop_
_space_group_symop_operation_xyz
x,y,z
-x,-y,z
x,-y,-z
-x,y,-z
-x,-y,-z
x,y,-z
-x,y,z
x,-y,z
1/2+x,1/2+y,1/2+z
1/2-x,1/2-y,1/2+z
1/2+x,1/2-y,1/2-z
1/2-x,1/2+y,1/2-z
1/2-x,1/2-y,1/2-z
1/2+x,1/2+y,1/2-z
1/2-x,1/2+y,1/2+z
1/2+x,1/2-y,1/2+z
loop_
_atom_site_type_symbol
_atom_site_label
_atom_site_fract_x
_atom_site_fract_y
_atom_site_fract_z
Si Si1 0.328062 0.173133 0.567628
Si Si2 0.661942 0.554504 0.568938
Si Si3 0.828971 0.628779 0.362281
Si Si4 0.824017 0.087401 0.366577
Si Si5 0.165473 0.500000 0.069147
Si Si6 0.326719 0.710758 0.566682
Si Si7 0.174205 0.558294 0.254724
O O1 0.289744 0.158560 0.500000
O O2 0.500000 0.161360 0.580529
O O3 0.227134 0.142684 0.613586
O O4 0.292102 0.231242 0.578675
O O5 0.656592 0.548464 0.500000
O O6 0.500000 0.574577 0.591174
O O7 0.693273 0.500000 0.597728
O O8 0.795373 0.591573 0.583816
O O9 0.747477 0.680644 0.378869
O O10 0.772455 0.598284 0.304525
O O11 0.000000 0.641542 0.356997
O O12 0.755232 0.049011 0.412993
O O13 0.767007 0.073458 0.302108
O O14 0.000000 0.083852 0.367548
O O15 0.000000 0.500000 0.098320
O O16 0.147627 0.500000 0.000000
O O17 0.269663 0.696070 0.500000
O O18 0.500000 0.699828 0.568973
O O19 0.208037 0.500000 0.272075
O O20 0.000000 0.564918 0.242379
#
# Coordination Sequence:
#
# PCOD8292139 Si02
#       7
#    16  16  16  16   8  16  16
#     4   9  19  38  63  87 114 153 193 225 275 349
#     4   9  18  32  49  71 102 141 182 227 284 347
#     4  11  22  34  53  82 110 143 190 240 290 338
#     4  12  24  37  58  90 120 146 186 239 289 333
#     4  11  23  39  61  87 119 159 192 219 268 343
#     4   9  19  37  60  85 114 151 194 236 281 342
#     4  10  22  41  60  76 107 157 201 236 283 345
#
# _framework density 19.154551999999999
#
# number of rings (size 3 to 8) (size 9 to 14) (size 15 to 20)
#    0.000    1.923    0.769    4.846    0.000    8.000 
#    0.000    3.077    0.000    0.000    0.000    0.000 
#    0.000    0.000    0.000    0.000    0.000    0.000 
#
# Total GULP energy -644475.135802 kJ/mol
# GULP energy per Si atom -12393.752612 kJ/mol
# Density = 1.911096 g / cm^3
# Si number density = 19.154552 Si / 1000 Ang^3
#
#
#
# Elastic Constant Matrix: (Units=GPa)
#
#
# Indices 1 2 3 4 5 6 
#
# 1 90.0096 56.0810 53.1509 0.0000 0.0000 0.0000
# 2 56.0810 117.0592 56.3367 0.0000 0.0000 0.0000
# 3 53.1509 56.3367 84.3507 -0.0002 0.0000 0.0002
# 4 0.0000 0.0000 -0.0002 13.7004 0.0000 0.0001
# 5 0.0000 0.0000 0.0000 0.0000 27.5871 0.0000
# 6 0.0000 0.0000 0.0002 0.0001 0.0000 147.2390
#
#
#
# Elastic Compliance Matrix: (Units=1/GPa)
#
#
# Indices 1 2 3 4 5 6 
#
# 1 0.019537 -0.005062 -0.008930 0.000000 0.000000 0.000000
# 2 -0.005062 0.013901 -0.006094 0.000000 0.000000 0.000000
# 3 -0.008930 -0.006094 0.021552 0.000000 0.000000 0.000000
# 4 0.000000 0.000000 0.000000 0.072990 0.000000 0.000000
# 5 0.000000 0.000000 0.000000 0.000000 0.036249 0.000000
# 6 0.000000 0.000000 0.000000 0.000000 0.000000 0.006792
#
#
# Mechanical properties :
#
#
# Convention : Reuss Voigt Hill
#
# Bulk Modulus (GPa) = 67.48687 69.17297 68.32992
# Shear Modulus (GPa) = 23.13390 46.09536 34.61463
#
# Velocity S-wave (km/s) = 3.47904 4.91093 4.25564
# Velocity P-wave (km/s) = 7.17270 8.26727 7.73936
#
# Compressibility (1/GPa) = 0.01481770
#
# Stress axis : x y z
#
# Youngs Moduli (GPa) = 51.18506 71.93728 46.39863
#
# Poissons Ratio (x) = 0.36417 0.41432
# Poissons Ratio (y) = 0.25911 0.28277
# Poissons Ratio (z) = 0.45706 0.43842
#
# Static dielectric constant tensor:
#      x y z
#    x 3.603150 0.000000 0.000000 
#    y 0.000000 3.690590 0.000000 
#    z 0.000000 0.000000 3.434550 
# 
# 
# High freq. dielectric constant tensor:
#      x y z
#    x 1.738230 0.000000 0.000000 
#    y 0.000000 1.753470 0.000000 
#    z 0.000000 0.000000 1.733650 
# 
# From -- ./inp_files/50890.got.cif
#   From: 2010.06.25/outbox.cif.g09.slc.cpg/sg71_26_cif.got.tgz:50890.got - 2010.06.28 04:59:45.
