data_PCOD8292928
_publ_section_title
;
Structure prediction by ZEFSAII (Michael W. Deem and Ramdas Pophale) SiO2 
 PCOD8292928
Probable space group: I B A M
;
_chemical_formula_sum "Si O2"
_cell_formula_units_Z 80
_cell_length_a 23.993250
_cell_length_b 12.522659
_cell_length_c 18.203293
_cell_angle_alpha 90.000000
_cell_angle_beta 90.000000
_cell_angle_gamma 90.000000
_cell_volume 5469.348455
_symmetry_space_group_name_H-M "I B A M"
_symmetry_group_IT_number 72
_symmetry_cell_setting 'orthorhombic'
loop_
_space_group_symop_operation_xyz
x,y,z
-x,-y,z
x,-y,1/2-z
-x,y,1/2-z
-x,-y,-z
x,y,-z
-x,y,1/2+z
x,-y,1/2+z
1/2+x,1/2+y,1/2+z
1/2-x,1/2-y,1/2+z
1/2+x,1/2-y,-z
1/2-x,1/2+y,-z
1/2-x,1/2-y,1/2-z
1/2+x,1/2+y,1/2-z
1/2-x,1/2+y,z
1/2+x,1/2-y,z
loop_
_atom_site_type_symbol
_atom_site_label
_atom_site_fract_x
_atom_site_fract_y
_atom_site_fract_z
Si Si1 0.439657 0.987725 0.132216
Si Si2 0.757765 0.406959 0.695072
Si Si3 0.324257 0.043745 0.917489
Si Si4 0.560380 0.175694 0.250284
Si Si5 0.327247 0.769446 0.304421
O O1 0.429750 0.870882 0.168416
O O2 0.500000 0.000000 0.091553
O O3 0.388516 0.005968 0.077127
O O4 0.439863 0.075045 0.196010
O O5 0.739533 0.500000 0.750000
O O6 0.786190 0.455269 0.622538
O O7 0.702005 0.341815 0.674698
O O8 0.800803 0.327338 0.733891
O O9 0.321588 0.156132 0.875613
O O10 0.301480 0.058759 0.000000
O O11 0.500000 0.234886 0.250000
O O12 0.609037 0.254615 0.279065
#
# Coordination Sequence:
#
# PCOD8292928 Si02
#       5
#    16  16  16  16  16
#     4   8  13  22  36  56  83 111 134 161 204 252
#     4   9  17  29  44  58  78 107 139 173 201 239
#     4  10  18  26  38  60  88 111 135 168 205 248
#     4   8  12  21  40  60  78 103 136 171 206 246
#     4   9  16  28  44  59  77 108 141 170 204 246
#
# _framework density 14.626970999999999
#
# number of rings (size 3 to 8) (size 9 to 14) (size 15 to 20)
#    0.000    3.200    2.000    1.200    0.000    1.200 
#    0.000    0.000    0.000    0.600    0.000    0.000 
#    0.000    0.000    0.000   18.800    0.000    0.000 
#
# Total GULP energy -495562.842092 kJ/mol
# GULP energy per Si atom -12389.071052 kJ/mol
# Density = 1.459368 g / cm^3
# Si number density = 14.626971 Si / 1000 Ang^3
#
#
#
# Elastic Constant Matrix: (Units=GPa)
#
#
# Indices 1 2 3 4 5 6 
#
# 1 122.4421 50.1782 34.0465 0.0000 0.0000 0.0000
# 2 50.1782 50.0355 19.8394 0.0000 0.0000 0.0000
# 3 34.0465 19.8394 72.5263 0.0000 0.0000 0.0000
# 4 0.0000 0.0000 0.0000 6.8173 0.0000 0.0000
# 5 0.0000 0.0000 0.0000 0.0000 12.3634 0.0000
# 6 0.0000 0.0000 0.0000 0.0000 0.0000 20.5812
#
#
#
# Elastic Compliance Matrix: (Units=1/GPa)
#
#
# Indices 1 2 3 4 5 6 
#
# 1 0.014488 -0.013272 -0.003171 0.000000 0.000000 0.000000
# 2 -0.013272 0.034575 -0.003228 0.000000 0.000000 0.000000
# 3 -0.003171 -0.003228 0.016159 0.000000 0.000000 0.000000
# 4 0.000000 0.000000 0.000000 0.146686 0.000000 0.000000
# 5 0.000000 0.000000 0.000000 0.000000 0.080884 0.000000
# 6 0.000000 0.000000 0.000000 0.000000 0.000000 0.048588
#
#
# Mechanical properties :
#
#
# Convention : Reuss Voigt Hill
#
# Bulk Modulus (GPa) = 38.63660 50.34800 44.49230
# Shear Modulus (GPa) = 12.84199 17.34837 15.09518
#
# Velocity S-wave (km/s) = 2.96626 3.44765 3.21598
# Velocity P-wave (km/s) = 6.18091 7.09538 6.65387
#
# Compressibility (1/GPa) = 0.02588220
#
# Stress axis : x y z
#
# Youngs Moduli (GPa) = 69.02400 28.92233 61.88347
#
# Poissons Ratio (x) = 0.38385 0.19621
# Poissons Ratio (y) = 0.91608 0.19974
# Poissons Ratio (z) = 0.21885 0.09335
#
# Static dielectric constant tensor:
#      x y z
#    x 3.255950 0.000000 0.000000 
#    y 0.000000 2.545240 0.000000 
#    z 0.000000 0.000000 2.560680 
# 
# 
# High freq. dielectric constant tensor:
#      x y z
#    x 1.569230 0.000000 0.000000 
#    y 0.000000 1.511550 0.000000 
#    z 0.000000 0.000000 1.536690 
# 
# From -- ./inp_files/30615.got.cif
#   From: 2010.03.12/outbox.cif.g09.slc.cpg/sg72_16_cif.got.tgz:30615.got - 2010.04.16 14:54:00.
