data_PCOD8292450
_publ_section_title
;
Structure prediction by ZEFSAII (Michael W. Deem and Ramdas Pophale) SiO2 
 PCOD8292450
Probable space group: I M M M
;
_chemical_formula_sum "Si O2"
_cell_formula_units_Z 104
_cell_length_a 28.951599
_cell_length_b 21.272212
_cell_length_c 8.858656
_cell_angle_alpha 90.000000
_cell_angle_beta 90.000000
_cell_angle_gamma 90.000000
_cell_volume 5455.732206
_symmetry_space_group_name_H-M "I M M M"
_symmetry_group_IT_number 71
_symmetry_cell_setting 'orthorhombic'
loop_
_space_group_symop_operation_xyz
x,y,z
-x,-y,z
x,-y,-z
-x,y,-z
-x,-y,-z
x,y,-z
-x,y,z
x,-y,z
1/2+x,1/2+y,1/2+z
1/2-x,1/2-y,1/2+z
1/2+x,1/2-y,1/2-z
1/2-x,1/2+y,1/2-z
1/2-x,1/2-y,1/2-z
1/2+x,1/2+y,1/2-z
1/2-x,1/2+y,1/2+z
1/2+x,1/2-y,1/2+z
loop_
_atom_site_type_symbol
_atom_site_label
_atom_site_fract_x
_atom_site_fract_y
_atom_site_fract_z
Si Si1 0.446475 0.500000 0.678685
Si Si2 0.896348 0.882344 0.675281
Si Si3 0.307671 0.690558 0.177139
Si Si4 0.550320 0.132708 0.679307
Si Si5 0.296843 0.819199 0.678375
Si Si6 0.553942 0.726404 0.668613
Si Si7 0.359274 0.069117 0.319908
O O1 0.500000 0.500000 0.739612
O O2 0.447883 0.500000 0.500000
O O3 0.417733 0.560520 0.731168
O O4 0.900008 0.900051 0.500000
O O5 0.843105 0.865792 0.721102
O O6 0.924789 0.819694 0.708412
O O7 0.320627 0.756325 0.256736
O O8 0.256201 0.671933 0.230061
O O9 0.309889 0.702903 0.000000
O O10 0.547197 0.130738 0.500000
O O11 0.500000 0.114031 0.746826
O O12 0.564219 0.203324 0.726531
O O13 0.589277 0.085378 0.740023
O O14 0.301337 0.815195 0.500000
O O15 0.323260 0.879998 0.743619
O O16 0.574803 0.715147 0.500000
O O17 0.500000 0.713327 0.661275
O O18 0.358843 0.070321 0.500000
O O19 0.345716 0.000000 0.259419
#
# Coordination Sequence:
#
# PCOD8292450 Si02
#       7
#     8  16  16  16  16  16  16
#     4  11  25  43  59  75 101 139 181 219 258 315
#     4  11  22  35  52  77 105 133 167 210 264 318
#     4   9  19  34  52  77 103 128 164 211 262 308
#     4   8  14  24  39  63  96 129 161 201 245 287
#     4   9  17  32  53  76 100 132 171 211 254 301
#     4   9  17  30  49  72  97 128 167 207 249 299
#     4   9  16  25  40  66  95 126 166 201 235 286
#
# _framework density 19.062518000000001
#
# number of rings (size 3 to 8) (size 9 to 14) (size 15 to 20)
#    0.000    2.692    0.000    3.000    0.000    5.538 
#    1.385    1.538    0.000    0.462    0.000    0.000 
#    0.000    0.000    0.000   13.231    0.000   10.769 
#
# Total GULP energy -644507.429965 kJ/mol
# GULP energy per Si atom -12394.373653 kJ/mol
# Density = 1.901913 g / cm^3
# Si number density = 19.062518 Si / 1000 Ang^3
#
#
#
# Elastic Constant Matrix: (Units=GPa)
#
#
# Indices 1 2 3 4 5 6 
#
# 1 108.8066 82.7264 24.1980 0.0000 0.0000 0.0000
# 2 82.7264 132.1707 22.2300 0.0000 0.0000 0.0000
# 3 24.1980 22.2300 26.7803 0.0000 0.0000 0.0000
# 4 0.0000 0.0000 0.0000 16.4191 0.0000 0.0000
# 5 0.0000 0.0000 0.0000 0.0000 19.5741 0.0000
# 6 0.0000 0.0000 0.0000 0.0000 0.0000 29.6358
#
#
#
# Elastic Compliance Matrix: (Units=1/GPa)
#
#
# Indices 1 2 3 4 5 6 
#
# 1 0.019070 -0.010505 -0.008512 0.000000 0.000000 0.000000
# 2 -0.010505 0.014580 -0.002611 0.000000 0.000000 0.000000
# 3 -0.008512 -0.002611 0.047199 0.000000 0.000000 0.000000
# 4 0.000000 0.000000 0.000000 0.060905 0.000000 0.000000
# 5 0.000000 0.000000 0.000000 0.000000 0.051088 0.000000
# 6 0.000000 0.000000 0.000000 0.000000 0.000000 0.033743
#
#
# Mechanical properties :
#
#
# Convention : Reuss Voigt Hill
#
# Bulk Modulus (GPa) = 26.59932 58.45183 42.52557
# Shear Modulus (GPa) = 17.70717 22.36601 20.03659
#
# Velocity S-wave (km/s) = 3.05109 3.42906 3.24558
# Velocity P-wave (km/s) = 5.13773 6.81232 6.03341
#
# Compressibility (1/GPa) = 0.03759495
#
# Stress axis : x y z
#
# Youngs Moduli (GPa) = 52.43757 68.58705 21.18678
#
# Poissons Ratio (x) = 0.72048 0.18034
# Poissons Ratio (y) = 0.55084 0.05532
# Poissons Ratio (z) = 0.44633 0.17908
#
# Static dielectric constant tensor:
#      x y z
#    x 3.898430 0.000000 0.000000 
#    y 0.000000 3.613530 0.000000 
#    z 0.000000 0.000000 3.165360 
# 
# 
# High freq. dielectric constant tensor:
#      x y z
#    x 1.753050 0.000000 0.000000 
#    y 0.000000 1.736570 0.000000 
#    z 0.000000 0.000000 1.698230 
# 
# From -- ./inp_files/16944.got.cif
#   From: 2010.06.25/outbox.cif.g09.slc.cpg/sg71_9_cif.got.tgz:16944.got - 2010.06.28 04:59:45.
