data_PCOD8292036
_publ_section_title
;
Structure prediction by ZEFSAII (Michael W. Deem and Ramdas Pophale) SiO2 
 PCOD8292036
Probable space group: I M M M
;
_chemical_formula_sum "Si O2"
_cell_formula_units_Z 104
_cell_length_a 22.053760
_cell_length_b 8.822066
_cell_length_c 26.956921
_cell_angle_alpha 90.000000
_cell_angle_beta 90.000000
_cell_angle_gamma 90.000000
_cell_volume 5244.731171
_symmetry_space_group_name_H-M "I M M M"
_symmetry_group_IT_number 71
_symmetry_cell_setting 'orthorhombic'
loop_
_space_group_symop_operation_xyz
x,y,z
-x,-y,z
x,-y,-z
-x,y,-z
-x,-y,-z
x,y,-z
-x,y,z
x,-y,z
1/2+x,1/2+y,1/2+z
1/2-x,1/2-y,1/2+z
1/2+x,1/2-y,1/2-z
1/2-x,1/2+y,1/2-z
1/2-x,1/2-y,1/2-z
1/2+x,1/2+y,1/2-z
1/2-x,1/2+y,1/2+z
1/2+x,1/2-y,1/2+z
loop_
_atom_site_type_symbol
_atom_site_label
_atom_site_fract_x
_atom_site_fract_y
_atom_site_fract_z
Si Si1 0.500000 0.680985 0.331364
Si Si2 0.500000 0.677909 0.782117
Si Si3 0.806802 0.665801 0.770714
Si Si4 0.291062 0.672715 0.556758
Si Si5 0.835569 0.180247 0.582068
Si Si6 0.431064 0.679128 0.000000
Si Si7 0.113291 0.330831 0.324317
Si Si8 0.376412 0.181333 0.634974
O O1 0.500000 0.500000 0.332838
O O2 0.500000 0.743021 0.274270
O O3 0.442227 0.743744 0.360908
O O4 0.500000 0.500000 0.778211
O O5 0.554838 0.730478 0.816030
O O6 0.784261 0.500000 0.786540
O O7 0.750000 0.750000 0.750000
O O8 0.856418 0.657230 0.728689
O O9 0.836046 0.743585 0.819022
O O10 0.311835 0.674426 0.500000
O O11 0.286145 0.500000 0.576631
O O12 0.226159 0.753059 0.560526
O O13 0.343064 0.764190 0.585519
O O14 0.893116 0.231539 0.548448
O O15 0.843561 0.246234 0.636910
O O16 0.829577 0.000000 0.583774
O O17 0.436416 0.500000 0.000000
O O18 0.500000 0.748302 0.000000
O O19 0.097302 0.500000 0.343552
O O20 0.383203 0.000000 0.635822
#
# Coordination Sequence:
#
# PCOD8292036 Si02
#       8
#     8   8  16  16  16   8  16  16
#     4  11  23  41  66  96 130 170 213 258 321 389
#     4  11  23  39  61  89 121 167 213 251 298 370
#     4  10  22  37  56  84 120 159 198 245 302 364
#     4  11  24  43  66  93 127 165 211 268 329 385
#     4  11  22  39  64  92 123 164 216 265 319 382
#     4   9  20  38  59  85 121 162 208 265 316 370
#     4  11  23  39  58  86 124 162 199 249 307 362
#     4  11  23  41  66  94 126 167 214 263 320 387
#
# _framework density 19.829423999999999
#
# number of rings (size 3 to 8) (size 9 to 14) (size 15 to 20)
#    0.000    1.308    2.308    3.231    1.077    6.462 
#    0.000    0.385    0.000    4.154    0.000    0.000 
#    0.000    0.000    0.000    0.000    0.000    0.000 
#
# Total GULP energy -644825.981526 kJ/mol
# GULP energy per Si atom -12400.499645 kJ/mol
# Density = 1.978429 g / cm^3
# Si number density = 19.829424 Si / 1000 Ang^3
#
#
#
# Elastic Constant Matrix: (Units=GPa)
#
#
# Indices 1 2 3 4 5 6 
#
# 1 132.5055 46.0916 39.2338 0.0000 0.0000 0.0000
# 2 46.0916 96.6449 34.5052 0.0000 0.0000 0.0000
# 3 39.2338 34.5052 97.4062 0.0000 0.0000 0.0000
# 4 0.0000 0.0000 0.0000 27.0936 0.0000 0.0000
# 5 0.0000 0.0000 0.0000 0.0000 34.1465 0.0000
# 6 0.0000 0.0000 0.0000 0.0000 0.0000 36.0404
#
#
#
# Elastic Compliance Matrix: (Units=1/GPa)
#
#
# Indices 1 2 3 4 5 6 
#
# 1 0.009576 -0.003652 -0.002564 0.000000 0.000000 0.000000
# 2 -0.003652 0.013238 -0.003219 0.000000 0.000000 0.000000
# 3 -0.002564 -0.003219 0.012439 0.000000 0.000000 0.000000
# 4 0.000000 0.000000 0.000000 0.036909 0.000000 0.000000
# 5 0.000000 0.000000 0.000000 0.000000 0.029286 0.000000
# 6 0.000000 0.000000 0.000000 0.000000 0.000000 0.027747
#
#
# Mechanical properties :
#
#
# Convention : Reuss Voigt Hill
#
# Bulk Modulus (GPa) = 61.03008 62.91310 61.97159
# Shear Modulus (GPa) = 32.56825 33.23782 32.90303
#
# Velocity S-wave (km/s) = 4.05708 4.09857 4.07787
# Velocity P-wave (km/s) = 7.26573 7.36164 7.31384
#
# Compressibility (1/GPa) = 0.01638536
#
# Stress axis : x y z
#
# Youngs Moduli (GPa) = 104.42604 75.54090 80.39249
#
# Poissons Ratio (x) = 0.27586 0.20609
# Poissons Ratio (y) = 0.38134 0.25874
# Poissons Ratio (z) = 0.26770 0.24313
#
# Static dielectric constant tensor:
#      x y z
#    x 3.550580 0.000000 0.000000 
#    y 0.000000 3.710260 0.000000 
#    z 0.000000 0.000000 3.492980 
# 
# 
# High freq. dielectric constant tensor:
#      x y z
#    x 1.777930 0.000000 0.000000 
#    y 0.000000 1.776790 0.000000 
#    z 0.000000 0.000000 1.775900 
# 
# From -- ./inp_files/66489.got.cif
#   From: 2010.06.25/outbox.cif.g09.slc.cpg/sg71_34_cif.got.tgz:66489.got - 2010.06.28 04:59:45.
