data_PCOD8292335
_publ_section_title
;
Structure prediction by ZEFSAII (Michael W. Deem and Ramdas Pophale) SiO2 
 PCOD8292335
Probable space group: I M M M
;
_chemical_formula_sum "Si O2"
_cell_formula_units_Z 72
_cell_length_a 8.956601
_cell_length_b 22.677669
_cell_length_c 23.186651
_cell_angle_alpha 90.000000
_cell_angle_beta 90.000000
_cell_angle_gamma 90.000000
_cell_volume 4709.552742
_symmetry_space_group_name_H-M "I M M M"
_symmetry_group_IT_number 71
_symmetry_cell_setting 'orthorhombic'
loop_
_space_group_symop_operation_xyz
x,y,z
-x,-y,z
x,-y,-z
-x,y,-z
-x,-y,-z
x,y,-z
-x,y,z
x,-y,z
1/2+x,1/2+y,1/2+z
1/2-x,1/2-y,1/2+z
1/2+x,1/2-y,1/2-z
1/2-x,1/2+y,1/2-z
1/2-x,1/2-y,1/2-z
1/2+x,1/2+y,1/2-z
1/2-x,1/2+y,1/2+z
1/2+x,1/2-y,1/2+z
loop_
_atom_site_type_symbol
_atom_site_label
_atom_site_fract_x
_atom_site_fract_y
_atom_site_fract_z
Si Si1 0.834919 0.708138 0.173147
Si Si2 0.825756 0.773939 0.934700
Si Si3 0.822943 0.384996 0.380397
Si Si4 0.825458 0.000000 0.932176
Si Si5 0.165949 0.162536 0.226466
O O1 0.780460 0.719225 0.107139
O O2 0.837413 0.771556 0.203059
O O3 0.728002 0.663555 0.207858
O O4 0.000000 0.680186 0.173891
O O5 0.728595 0.831108 0.920484
O O6 0.000000 0.790262 0.924568
O O7 0.794749 0.753909 0.000000
O O8 0.750691 0.443389 0.405050
O O9 0.770678 0.376929 0.314260
O O10 0.000000 0.389855 0.381998
O O11 0.000000 0.000000 0.917371
O O12 0.796801 0.000000 0.000000
O O13 0.000000 0.135268 0.227639
#
# Coordination Sequence:
#
# PCOD8292335 Si02
#       5
#    16  16  16   8  16
#     4   8  14  24  39  59  80 102 131 166 200 237
#     4   9  17  29  43  59  82 112 141 167 201 246
#     4  11  21  31  44  61  80 103 136 177 213 243
#     4  11  23  37  49  59  77 107 140 173 210 249
#     4   9  16  27  42  58  77 102 132 165 204 247
#
# _framework density 15.288076999999999
#
# number of rings (size 3 to 8) (size 9 to 14) (size 15 to 20)
#    0.000    2.556    0.000    5.000    0.000    9.333 
#    0.000    0.000    0.000    0.000    0.000    0.000 
#    0.000    0.000    0.000    1.000    0.000   20.667 
#
# Total GULP energy -446231.863903 kJ/mol
# GULP energy per Si atom -12395.329553 kJ/mol
# Density = 1.525328 g / cm^3
# Si number density = 15.288077 Si / 1000 Ang^3
#
#
#
# Elastic Constant Matrix: (Units=GPa)
#
#
# Indices 1 2 3 4 5 6 
#
# 1 106.4788 36.7910 63.4062 0.0000 0.0000 0.0000
# 2 36.7910 31.7691 42.5132 0.0000 0.0000 0.0000
# 3 63.4062 42.5132 140.1959 0.0000 0.0000 0.0000
# 4 0.0000 0.0000 0.0000 16.6161 0.0000 0.0000
# 5 0.0000 0.0000 0.0000 0.0000 24.5631 0.0000
# 6 0.0000 0.0000 0.0000 0.0000 0.0000 25.2340
#
#
#
# Elastic Compliance Matrix: (Units=1/GPa)
#
#
# Indices 1 2 3 4 5 6 
#
# 1 0.016271 -0.015138 -0.002768 0.000000 0.000000 0.000000
# 2 -0.015138 0.067058 -0.013488 0.000000 0.000000 0.000000
# 3 -0.002768 -0.013488 0.012475 0.000000 0.000000 0.000000
# 4 0.000000 0.000000 0.000000 0.060182 0.000000 0.000000
# 5 0.000000 0.000000 0.000000 0.000000 0.040711 0.000000
# 6 0.000000 0.000000 0.000000 0.000000 0.000000 0.039629
#
#
# Mechanical properties :
#
#
# Convention : Reuss Voigt Hill
#
# Bulk Modulus (GPa) = 30.28969 62.65163 46.47066
# Shear Modulus (GPa) = 16.12274 22.33155 19.22715
#
# Velocity S-wave (km/s) = 3.25098 3.82608 3.55019
# Velocity P-wave (km/s) = 5.82644 7.78384 6.87516
#
# Compressibility (1/GPa) = 0.03301454
#
# Stress axis : x y z
#
# Youngs Moduli (GPa) = 61.46082 14.91239 80.16017
#
# Poissons Ratio (x) = 0.22575 0.22189
# Poissons Ratio (y) = 0.93041 1.08123
# Poissons Ratio (z) = 0.17013 0.20114
#
# Static dielectric constant tensor:
#      x y z
#    x 3.125050 0.000000 0.000000 
#    y 0.000000 1.242410 0.000000 
#    z 0.000000 0.000000 3.293220 
# 
# 
# High freq. dielectric constant tensor:
#      x y z
#    x 1.597480 0.000000 0.000000 
#    y 0.000000 1.521920 0.000000 
#    z 0.000000 0.000000 1.591980 
# 
# From -- ./inp_files/10124.got.cif
#   From: 2010.06.25/outbox.cif.g09.slc.cpg/sg71_6_cif.got.tgz:10124.got - 2010.06.28 04:59:45.
