data_PCOD8292396
_publ_section_title
;
Structure prediction by ZEFSAII (Michael W. Deem and Ramdas Pophale) SiO2 
 PCOD8292396
Probable space group: I M M M
;
_chemical_formula_sum "Si O2"
_cell_formula_units_Z 56
_cell_length_a 14.294345
_cell_length_b 7.618027
_cell_length_c 25.973004
_cell_angle_alpha 90.000000
_cell_angle_beta 90.000000
_cell_angle_gamma 90.000000
_cell_volume 2828.322639
_symmetry_space_group_name_H-M "I M M M"
_symmetry_group_IT_number 71
_symmetry_cell_setting 'orthorhombic'
loop_
_space_group_symop_operation_xyz
x,y,z
-x,-y,z
x,-y,-z
-x,y,-z
-x,-y,-z
x,y,-z
-x,y,z
x,-y,z
1/2+x,1/2+y,1/2+z
1/2-x,1/2-y,1/2+z
1/2+x,1/2-y,1/2-z
1/2-x,1/2+y,1/2-z
1/2-x,1/2-y,1/2-z
1/2+x,1/2+y,1/2-z
1/2-x,1/2+y,1/2+z
1/2+x,1/2-y,1/2+z
loop_
_atom_site_type_symbol
_atom_site_label
_atom_site_fract_x
_atom_site_fract_y
_atom_site_fract_z
Si Si1 0.108335 0.000000 0.939352
Si Si2 0.897358 0.208280 0.668045
Si Si3 0.108544 0.201611 0.782567
Si Si4 0.211076 0.696847 0.119878
O O1 0.156353 0.825421 0.917833
O O2 0.000000 0.000000 0.922667
O O3 0.120377 0.000000 0.000000
O O4 0.871387 0.277213 0.725334
O O5 0.818468 0.265054 0.626869
O O6 0.000000 0.280695 0.651020
O O7 0.902298 0.000000 0.672360
O O8 0.165987 0.314477 0.823566
O O9 0.000000 0.221662 0.795716
O O10 0.139864 0.000000 0.788503
O O11 0.209205 0.500000 0.096279
#
# Coordination Sequence:
#
# PCOD8292396 Si02
#       4
#     8  16  16  16
#     4  11  26  46  63  81 109 143 184 242 300 341
#     4   8  16  31  52  82 120 158 189 221 266 327
#     4   9  16  29  50  78 118 159 188 220 269 329
#     4  11  21  35  60  85 110 148 192 233 279 336
#
# _framework density 19.799720000000001
#
# number of rings (size 3 to 8) (size 9 to 14) (size 15 to 20)
#    0.000    2.429    1.429    3.429    0.000    2.857 
#    2.571    2.143    0.000    1.714    0.000    4.000 
#    0.000    0.000    0.000    0.000    0.000    0.000 
#
# Total GULP energy -347069.143860 kJ/mol
# GULP energy per Si atom -12395.326566 kJ/mol
# Density = 1.975466 g / cm^3
# Si number density = 19.799720 Si / 1000 Ang^3
#
#
#
# Elastic Constant Matrix: (Units=GPa)
#
#
# Indices 1 2 3 4 5 6 
#
# 1 125.9332 46.1724 64.5966 0.0000 0.0000 0.0000
# 2 46.1724 76.6554 33.1659 0.0000 0.0000 0.0000
# 3 64.5966 33.1659 72.4416 0.0000 0.0000 0.0000
# 4 0.0000 0.0000 0.0000 8.5883 0.0000 0.0000
# 5 0.0000 0.0000 0.0000 0.0000 27.1853 0.0000
# 6 0.0000 0.0000 0.0000 0.0000 0.0000 19.3180
#
#
#
# Elastic Compliance Matrix: (Units=1/GPa)
#
#
# Indices 1 2 3 4 5 6 
#
# 1 0.015662 -0.004229 -0.012029 0.000000 0.000000 0.000000
# 2 -0.004229 0.017410 -0.004200 0.000000 0.000000 0.000000
# 3 -0.012029 -0.004200 0.026454 0.000000 0.000000 0.000000
# 4 0.000000 0.000000 0.000000 0.116437 0.000000 0.000000
# 5 0.000000 0.000000 0.000000 0.000000 0.036785 0.000000
# 6 0.000000 0.000000 0.000000 0.000000 0.000000 0.051765
#
#
# Mechanical properties :
#
#
# Convention : Reuss Voigt Hill
#
# Bulk Modulus (GPa) = 53.73783 62.54444 58.14113
# Shear Modulus (GPa) = 16.04460 19.75801 17.90131
#
# Velocity S-wave (km/s) = 2.84974 3.16237 3.01012
# Velocity P-wave (km/s) = 6.16666 6.70755 6.44278
#
# Compressibility (1/GPa) = 0.01860887
#
# Stress axis : x y z
#
# Youngs Moduli (GPa) = 63.85027 57.43929 37.80178
#
# Poissons Ratio (x) = 0.24290 0.45474
# Poissons Ratio (y) = 0.27001 0.15876
# Poissons Ratio (z) = 0.76809 0.24123
#
# Static dielectric constant tensor:
#      x y z
#    x 4.168100 0.000000 0.000000 
#    y 0.000000 3.342550 0.000000 
#    z 0.000000 0.000000 3.199700 
# 
# 
# High freq. dielectric constant tensor:
#      x y z
#    x 1.791190 0.000000 0.000000 
#    y 0.000000 1.760510 0.000000 
#    z 0.000000 0.000000 1.718590 
# 
# From -- ./inp_files/5325.got.cif
#   From: 2010.06.25/outbox.cif.g09.slc.cpg/sg71_3_cif.got.tgz:5325.got - 2010.06.28 04:59:45.
