data_PCOD8292382
_publ_section_title
;
Structure prediction by ZEFSAII (Michael W. Deem and Ramdas Pophale) SiO2 
 PCOD8292382
Probable space group: I M M M
;
_chemical_formula_sum "Si O2"
_cell_formula_units_Z 96
_cell_length_a 25.296488
_cell_length_b 8.779521
_cell_length_c 23.241801
_cell_angle_alpha 90.000000
_cell_angle_beta 90.000000
_cell_angle_gamma 90.000000
_cell_volume 5161.795933
_symmetry_space_group_name_H-M "I M M M"
_symmetry_group_IT_number 71
_symmetry_cell_setting 'orthorhombic'
loop_
_space_group_symop_operation_xyz
x,y,z
-x,-y,z
x,-y,-z
-x,y,-z
-x,-y,-z
x,y,-z
-x,y,z
x,-y,z
1/2+x,1/2+y,1/2+z
1/2-x,1/2-y,1/2+z
1/2+x,1/2-y,1/2-z
1/2-x,1/2+y,1/2-z
1/2-x,1/2-y,1/2-z
1/2+x,1/2+y,1/2-z
1/2-x,1/2+y,1/2+z
1/2+x,1/2-y,1/2+z
loop_
_atom_site_type_symbol
_atom_site_label
_atom_site_fract_x
_atom_site_fract_y
_atom_site_fract_z
Si Si1 0.843106 0.676668 0.620706
Si Si2 0.845603 0.819783 0.140351
Si Si3 0.254877 0.176591 0.566485
Si Si4 0.560271 0.324177 0.933500
Si Si5 0.807455 0.321924 0.252507
Si Si6 0.058655 0.819020 0.935617
O O1 0.832059 0.500000 0.608755
O O2 0.804918 0.775908 0.580370
O O3 0.903153 0.717805 0.605531
O O4 0.834318 0.717943 0.687152
O O5 0.793426 0.777198 0.105131
O O6 0.844875 0.746876 0.203319
O O7 0.897383 0.753950 0.107837
O O8 0.847638 0.000000 0.146727
O O9 0.266986 0.209657 0.500000
O O10 0.262925 0.000000 0.581552
O O11 0.500000 0.289437 0.916105
O O12 0.573957 0.500000 0.921926
O O13 0.569696 0.283955 0.000000
O O14 0.801305 0.500000 0.242401
O O15 0.750000 0.250000 0.250000
O O16 0.000000 0.765631 0.915900
O O17 0.061437 0.000000 0.936419
O O18 0.070427 0.757364 0.000000
#
# Coordination Sequence:
#
# PCOD8292382 Si02
#       6
#    16  16  16  16  16  16
#     4  11  23  37  56  82 110 143 187 234 281 331
#     4  11  21  34  56  84 111 143 185 232 280 331
#     4  11  23  36  53  79 112 147 181 224 280 339
#     4   9  19  37  60  85 114 148 184 224 276 337
#     4  11  23  39  57  78 108 149 190 230 279 333
#     4   8  15  30  53  81 112 144 179 223 274 326
#
# _framework density 18.598178999999998
#
# number of rings (size 3 to 8) (size 9 to 14) (size 15 to 20)
#    0.000    1.833    1.667    4.000    0.000    6.667 
#    0.000    1.667    0.000    5.000    0.000    5.833 
#    0.000    0.000    0.000    0.000    0.000    0.000 
#
# Total GULP energy -595352.467319 kJ/mol
# GULP energy per Si atom -12403.176402 kJ/mol
# Density = 1.855585 g / cm^3
# Si number density = 18.598179 Si / 1000 Ang^3
#
#
#
# Elastic Constant Matrix: (Units=GPa)
#
#
# Indices 1 2 3 4 5 6 
#
# 1 112.7244 25.9835 50.9770 0.0000 0.0000 0.0000
# 2 25.9835 61.7625 42.4261 0.0000 0.0000 0.0000
# 3 50.9770 42.4261 100.5200 0.0000 0.0000 0.0000
# 4 0.0000 0.0000 0.0000 31.7955 0.0000 0.0000
# 5 0.0000 0.0000 0.0000 0.0000 30.7445 0.0000
# 6 0.0000 0.0000 0.0000 0.0000 0.0000 23.8638
#
#
#
# Elastic Compliance Matrix: (Units=1/GPa)
#
#
# Indices 1 2 3 4 5 6 
#
# 1 0.011572 -0.001179 -0.005371 0.000000 0.000000 0.000000
# 2 -0.001179 0.022922 -0.009077 0.000000 0.000000 0.000000
# 3 -0.005371 -0.009077 0.016503 0.000000 0.000000 0.000000
# 4 0.000000 0.000000 0.000000 0.031451 0.000000 0.000000
# 5 0.000000 0.000000 0.000000 0.000000 0.032526 0.000000
# 6 0.000000 0.000000 0.000000 0.000000 0.000000 0.041905
#
#
# Mechanical properties :
#
#
# Convention : Reuss Voigt Hill
#
# Bulk Modulus (GPa) = 50.64880 57.08668 53.86774
# Shear Modulus (GPa) = 25.67884 27.65543 26.66714
#
# Velocity S-wave (km/s) = 3.71983 3.86034 3.79074
# Velocity P-wave (km/s) = 6.76327 7.11555 6.94165
#
# Compressibility (1/GPa) = 0.01974380
#
# Stress axis : x y z
#
# Youngs Moduli (GPa) = 86.41705 43.62609 60.59494
#
# Poissons Ratio (x) = 0.05143 0.32545
# Poissons Ratio (y) = 0.10188 0.55001
# Poissons Ratio (z) = 0.46414 0.39598
#
# Static dielectric constant tensor:
#      x y z
#    x 3.529490 0.000000 0.000000 
#    y 0.000000 3.289450 0.000000 
#    z 0.000000 0.000000 3.671270 
# 
# 
# High freq. dielectric constant tensor:
#      x y z
#    x 1.723440 0.000000 0.000000 
#    y 0.000000 1.713950 0.000000 
#    z 0.000000 0.000000 1.723360 
# 
# From -- ./inp_files/10874.got.cif
#   From: 2010.06.25/outbox.cif.g09.slc.cpg/sg71_6_cif.got.tgz:10874.got - 2010.06.28 04:59:45.
