data_PCOD8292693
_publ_section_title
;
Structure prediction by ZEFSAII (Michael W. Deem and Ramdas Pophale) SiO2 
 PCOD8292693
Probable space group: I M M M
;
_chemical_formula_sum "Si O2"
_cell_formula_units_Z 104
_cell_length_a 33.209239
_cell_length_b 9.554995
_cell_length_c 17.493672
_cell_angle_alpha 90.000000
_cell_angle_beta 90.000000
_cell_angle_gamma 90.000000
_cell_volume 5550.989007
_symmetry_space_group_name_H-M "I M M M"
_symmetry_group_IT_number 71
_symmetry_cell_setting 'orthorhombic'
loop_
_space_group_symop_operation_xyz
x,y,z
-x,-y,z
x,-y,-z
-x,y,-z
-x,-y,-z
x,y,-z
-x,y,z
x,-y,z
1/2+x,1/2+y,1/2+z
1/2-x,1/2-y,1/2+z
1/2+x,1/2-y,1/2-z
1/2-x,1/2+y,1/2-z
1/2-x,1/2-y,1/2-z
1/2+x,1/2+y,1/2-z
1/2-x,1/2+y,1/2+z
1/2+x,1/2-y,1/2+z
loop_
_atom_site_type_symbol
_atom_site_label
_atom_site_fract_x
_atom_site_fract_y
_atom_site_fract_z
Si Si1 0.775749 0.839868 0.343497
Si Si2 0.298766 0.662447 0.327949
Si Si3 0.073640 0.343394 0.591192
Si Si4 0.619908 0.663272 0.589082
Si Si5 0.500000 0.658372 0.909022
Si Si6 0.455372 0.841897 0.409260
Si Si7 0.143000 0.153376 0.587887
O O1 0.737851 0.745812 0.367098
O O2 0.796079 0.804114 0.261902
O O3 0.810372 0.805225 0.404586
O O4 0.761299 0.000000 0.346138
O O5 0.292584 0.500000 0.346699
O O6 0.341319 0.713925 0.362277
O O7 0.072904 0.353001 0.500000
O O8 0.069485 0.500000 0.625399
O O9 0.114638 0.273328 0.623461
O O10 0.038284 0.243730 0.621651
O O11 0.627926 0.697822 0.500000
O O12 0.611867 0.500000 0.601474
O O13 0.580395 0.742677 0.621626
O O14 0.500000 0.500000 0.876014
O O15 0.500000 0.652051 0.000000
O O16 0.455276 0.835675 0.500000
O O17 0.500000 0.793162 0.380179
O O18 0.446983 0.000000 0.381181
O O19 0.131336 0.139903 0.500000
O O20 0.135725 0.000000 0.627100
#
# Coordination Sequence:
#
# PCOD8292693 Si02
#       7
#    16  16  16  16   8  16  16
#     4   9  18  32  48  64  84 114 149 184 221 266
#     4   9  18  32  47  64  88 116 147 183 219 261
#     4   9  16  25  38  59  86 112 139 173 214 259
#     4   9  17  28  43  66  94 121 149 182 220 260
#     4   9  15  23  37  57  83 115 145 173 210 255
#     4   8  14  25  41  63  92 122 149 179 216 257
#     4   9  17  29  44  63  86 110 140 180 223 265
#
# _framework density 18.735399999999998
#
# number of rings (size 3 to 8) (size 9 to 14) (size 15 to 20)
#    0.000    3.154    0.000    1.154    0.000    4.923 
#    0.000    1.538    0.000    0.000    2.000    0.000 
#    0.000    0.000    0.000    0.000    0.000    0.000 
#
# Total GULP energy -644458.735001 kJ/mol
# GULP energy per Si atom -12393.437212 kJ/mol
# Density = 1.869276 g / cm^3
# Si number density = 18.735400 Si / 1000 Ang^3
#
#
#
# Elastic Constant Matrix: (Units=GPa)
#
#
# Indices 1 2 3 4 5 6 
#
# 1 177.4039 95.4560 22.4297 0.0000 0.0000 0.0000
# 2 95.4560 121.8640 14.5513 0.0000 0.0000 0.0000
# 3 22.4297 14.5513 14.0446 0.0000 0.0000 0.0000
# 4 0.0000 0.0000 0.0000 12.5344 0.0000 0.0000
# 5 0.0000 0.0000 0.0000 0.0000 12.8278 0.0000
# 6 0.0000 0.0000 0.0000 0.0000 0.0000 42.0988
#
#
#
# Elastic Compliance Matrix: (Units=1/GPa)
#
#
# Indices 1 2 3 4 5 6 
#
# 1 0.010782 -0.007292 -0.009665 0.000000 0.000000 0.000000
# 2 -0.007292 0.014296 -0.003166 0.000000 0.000000 0.000000
# 3 -0.009665 -0.003166 0.089918 0.000000 0.000000 0.000000
# 4 0.000000 0.000000 0.000000 0.079780 0.000000 0.000000
# 5 0.000000 0.000000 0.000000 0.000000 0.077956 0.000000
# 6 0.000000 0.000000 0.000000 0.000000 0.000000 0.023754
#
#
# Mechanical properties :
#
#
# Convention : Reuss Voigt Hill
#
# Bulk Modulus (GPa) = 13.37796 64.24293 38.81045
# Shear Modulus (GPa) = 13.82563 25.55057 19.68810
#
# Velocity S-wave (km/s) = 2.71945 3.69692 3.24520
# Velocity P-wave (km/s) = 4.12511 7.25169 5.89930
#
# Compressibility (1/GPa) = 0.07474980
#
# Stress axis : x y z
#
# Youngs Moduli (GPa) = 92.74476 69.95202 11.12129
#
# Poissons Ratio (x) = 0.51007 0.10749
# Poissons Ratio (y) = 0.67627 0.03521
# Poissons Ratio (z) = 0.89637 0.22148
#
# Static dielectric constant tensor:
#      x y z
#    x 3.689460 0.000000 0.000000 
#    y 0.000000 3.605320 0.000000 
#    z 0.000000 0.000000 2.923930 
# 
# 
# High freq. dielectric constant tensor:
#      x y z
#    x 1.738620 0.000000 0.000000 
#    y 0.000000 1.728740 0.000000 
#    z 0.000000 0.000000 1.667590 
# 
# From -- ./inp_files/62325.got.cif
#   From: 2010.06.25/outbox.cif.g09.slc.cpg/sg71_32_cif.got.tgz:62325.got - 2010.06.28 04:59:45.
