data_PCOD8292129
_publ_section_title
;
Structure prediction by ZEFSAII (Michael W. Deem and Ramdas Pophale) SiO2 
 PCOD8292129
Probable space group: I M M M
;
_chemical_formula_sum "Si O2"
_cell_formula_units_Z 64
_cell_length_a 8.972740
_cell_length_b 32.660274
_cell_length_c 10.693204
_cell_angle_alpha 90.000000
_cell_angle_beta 90.000000
_cell_angle_gamma 90.000000
_cell_volume 3133.666390
_symmetry_space_group_name_H-M "I M M M"
_symmetry_group_IT_number 71
_symmetry_cell_setting 'orthorhombic'
loop_
_space_group_symop_operation_xyz
x,y,z
-x,-y,z
x,-y,-z
-x,y,-z
-x,-y,-z
x,y,-z
-x,y,z
x,-y,z
1/2+x,1/2+y,1/2+z
1/2-x,1/2-y,1/2+z
1/2+x,1/2-y,1/2-z
1/2-x,1/2+y,1/2-z
1/2-x,1/2-y,1/2-z
1/2+x,1/2+y,1/2-z
1/2-x,1/2+y,1/2+z
1/2+x,1/2-y,1/2+z
loop_
_atom_site_type_symbol
_atom_site_label
_atom_site_fract_x
_atom_site_fract_y
_atom_site_fract_z
Si Si1 0.829115 0.072951 0.756694
Si Si2 0.161277 0.500000 0.858901
Si Si3 0.323401 0.806141 0.000000
Si Si4 0.824098 0.211785 0.500000
Si Si5 0.828100 0.165909 0.745483
Si Si6 0.674781 0.047455 0.000000
O O1 0.755786 0.040558 0.664263
O O2 0.813526 0.118663 0.703476
O O3 0.000000 0.060687 0.777718
O O4 0.742007 0.071346 0.885077
O O5 0.000000 0.500000 0.783884
O O6 0.116171 0.500000 0.000000
O O7 0.260281 0.826354 0.126195
O O8 0.500000 0.811842 0.000000
O O9 0.275978 0.758789 0.000000
O O10 0.760746 0.191540 0.628228
O O11 0.000000 0.205122 0.500000
O O12 0.000000 0.177628 0.770746
O O13 0.500000 0.052634 0.000000
O O14 0.724035 0.000000 0.000000
#
# Coordination Sequence:
#
# PCOD8292129 Si02
#       6
#    16   8   8   8  16   8
#     4  11  23  38  62  90 116 152 203 250 291 347
#     4  11  25  42  59  82 119 161 195 239 300 357
#     4  11  22  38  63  93 124 160 201 244 300 366
#     4   9  20  40  64  90 122 159 200 249 301 361
#     4  10  22  40  63  90 123 160 201 251 304 355
#     4  11  22  37  58  82 116 157 192 237 304 355
#
# _framework density 20.423361
#
# number of rings (size 3 to 8) (size 9 to 14) (size 15 to 20)
#    0.000    1.500    1.250    3.375    1.750    6.500 
#    0.000    1.875    0.000    0.000    0.000    0.000 
#    0.000    0.000    0.000    0.000    0.000    0.000 
#
# Total GULP energy -396765.514208 kJ/mol
# GULP energy per Si atom -12398.922319 kJ/mol
# Density = 2.037688 g / cm^3
# Si number density = 20.423361 Si / 1000 Ang^3
#
#
#
# Elastic Constant Matrix: (Units=GPa)
#
#
# Indices 1 2 3 4 5 6 
#
# 1 93.0028 48.2213 39.4657 -0.0002 0.0000 0.0000
# 2 48.2213 121.2201 39.3894 -0.0006 0.0005 0.0002
# 3 39.4657 39.3894 120.8387 -0.0011 0.0010 0.0006
# 4 -0.0002 -0.0006 -0.0011 22.5542 0.0007 0.0003
# 5 0.0000 0.0005 0.0010 0.0007 20.8158 0.0002
# 6 0.0000 0.0002 0.0006 0.0003 0.0002 26.6124
#
#
#
# Elastic Compliance Matrix: (Units=1/GPa)
#
#
# Indices 1 2 3 4 5 6 
#
# 1 0.014582 -0.004757 -0.003212 0.000000 0.000000 0.000000
# 2 -0.004757 0.010779 -0.001960 0.000000 0.000000 0.000000
# 3 -0.003212 -0.001960 0.009963 0.000000 0.000000 0.000000
# 4 0.000000 0.000000 0.000000 0.044338 -0.000002 -0.000001
# 5 0.000000 0.000000 0.000000 -0.000002 0.048040 0.000000
# 6 0.000000 0.000000 0.000000 -0.000001 0.000000 0.037577
#
#
# Mechanical properties :
#
#
# Convention : Reuss Voigt Hill
#
# Bulk Modulus (GPa) = 64.65593 65.46826 65.06209
# Shear Modulus (GPa) = 26.27557 27.86216 27.06887
#
# Velocity S-wave (km/s) = 3.59074 3.69756 3.64454
# Velocity P-wave (km/s) = 6.99412 7.09608 7.04529
#
# Compressibility (1/GPa) = 0.01546649
#
# Stress axis : x y z
#
# Youngs Moduli (GPa) = 68.57901 92.77629 100.36851
#
# Poissons Ratio (x) = 0.44133 0.32236
# Poissons Ratio (y) = 0.32623 0.19671
# Poissons Ratio (z) = 0.22026 0.18183
#
# Static dielectric constant tensor:
#      x y z
#    x 3.675660 0.000000 0.000000 
#    y 0.000000 3.925590 0.000000 
#    z 0.000000 0.000000 3.656920 
# 
# 
# High freq. dielectric constant tensor:
#      x y z
#    x 1.794590 0.000000 0.000000 
#    y 0.000000 1.810430 0.000000 
#    z 0.000000 0.000000 1.804310 
# 
# From -- ./inp_files/3827.got.cif
#   From: 2010.06.25/outbox.cif.g09.slc.cpg/sg71_2_cif.got.tgz:3827.got - 2010.06.28 04:59:45.
