data_PCOD8292112
_publ_section_title
;
Structure prediction by ZEFSAII (Michael W. Deem and Ramdas Pophale) SiO2 
 PCOD8292112
Probable space group: I M M M
;
_chemical_formula_sum "Si O2"
_cell_formula_units_Z 96
_cell_length_a 18.933727
_cell_length_b 8.781383
_cell_length_c 29.724416
_cell_angle_alpha 90.000000
_cell_angle_beta 90.000000
_cell_angle_gamma 90.000000
_cell_volume 4942.109469
_symmetry_space_group_name_H-M "I M M M"
_symmetry_group_IT_number 71
_symmetry_cell_setting 'orthorhombic'
loop_
_space_group_symop_operation_xyz
x,y,z
-x,-y,z
x,-y,-z
-x,y,-z
-x,-y,-z
x,y,-z
-x,y,z
x,-y,z
1/2+x,1/2+y,1/2+z
1/2-x,1/2-y,1/2+z
1/2+x,1/2-y,1/2-z
1/2-x,1/2+y,1/2-z
1/2-x,1/2-y,1/2-z
1/2+x,1/2+y,1/2-z
1/2-x,1/2+y,1/2+z
1/2+x,1/2-y,1/2+z
loop_
_atom_site_type_symbol
_atom_site_label
_atom_site_fract_x
_atom_site_fract_y
_atom_site_fract_z
Si Si1 0.082182 0.829990 0.949373
Si Si2 0.080938 0.173881 0.198095
Si Si3 0.920193 0.680903 0.449658
Si Si4 0.184784 0.825759 0.723936
Si Si5 0.830904 0.325184 0.121831
Si Si6 0.316579 0.179632 0.871763
O O1 0.120530 0.700735 0.921231
O O2 0.000000 0.794259 0.947146
O O3 0.097133 0.000000 0.930242
O O4 0.110307 0.819423 0.000000
O O5 0.113050 0.188126 0.247733
O O6 0.125922 0.281794 0.166103
O O7 0.000000 0.229396 0.199218
O O8 0.085943 0.000000 0.180705
O O9 0.897546 0.737611 0.500000
O O10 0.917139 0.500000 0.449057
O O11 0.868318 0.745820 0.410823
O O12 0.000000 0.736555 0.439265
O O13 0.250000 0.750000 0.750000
O O14 0.165929 0.749651 0.676633
O O15 0.206479 0.000000 0.715590
O O16 0.807950 0.500000 0.125165
O O17 0.762895 0.220592 0.115295
O O18 0.324897 0.000000 0.867920
#
# Coordination Sequence:
#
# PCOD8292112 Si02
#       6
#    16  16  16  16  16  16
#     4   9  19  37  59  80 106 145 190 234 283 341
#     4  10  22  40  61  83 110 149 194 237 287 351
#     4   8  16  34  60  89 119 151 193 246 298 348
#     4  11  22  38  60  84 115 154 194 239 293 351
#     4  12  24  36  54  82 116 152 190 238 290 340
#     4  11  22  36  59  88 118 154 195 239 292 352
#
# _framework density 19.424901999999999
#
# number of rings (size 3 to 8) (size 9 to 14) (size 15 to 20)
#    0.000    1.833    1.667    4.000    0.000    5.000 
#    0.000    2.500    0.000    3.000    0.000    4.667 
#    0.000    0.000    0.000    0.000    0.000    0.000 
#
# Total GULP energy -595168.699870 kJ/mol
# GULP energy per Si atom -12399.347914 kJ/mol
# Density = 1.938069 g / cm^3
# Si number density = 19.424902 Si / 1000 Ang^3
#
#
#
# Elastic Constant Matrix: (Units=GPa)
#
#
# Indices 1 2 3 4 5 6 
#
# 1 102.3860 32.0064 69.2830 0.0000 0.0000 0.0000
# 2 32.0064 71.1861 41.7054 0.0000 0.0000 0.0000
# 3 69.2830 41.7054 151.9107 0.0000 0.0000 0.0000
# 4 0.0000 0.0000 0.0000 31.3503 0.0000 0.0000
# 5 0.0000 0.0000 0.0000 0.0000 43.7921 0.0000
# 6 0.0000 0.0000 0.0000 0.0000 0.0000 12.1408
#
#
#
# Elastic Compliance Matrix: (Units=1/GPa)
#
#
# Indices 1 2 3 4 5 6 
#
# 1 0.014713 -0.003198 -0.005832 0.000000 0.000000 0.000000
# 2 -0.003198 0.017435 -0.003328 0.000000 0.000000 0.000000
# 3 -0.005832 -0.003328 0.010157 0.000000 0.000000 0.000000
# 4 0.000000 0.000000 0.000000 0.031898 0.000000 0.000000
# 5 0.000000 0.000000 0.000000 0.000000 0.022835 0.000000
# 6 0.000000 0.000000 0.000000 0.000000 0.000000 0.082367
#
#
# Mechanical properties :
#
#
# Convention : Reuss Voigt Hill
#
# Bulk Modulus (GPa) = 56.85739 67.94137 62.39938
# Shear Modulus (GPa) = 23.81119 29.62251 26.71685
#
# Velocity S-wave (km/s) = 3.50495 3.90933 3.71265
# Velocity P-wave (km/s) = 6.76117 7.44510 7.11136
#
# Compressibility (1/GPa) = 0.01758786
#
# Stress axis : x y z
#
# Youngs Moduli (GPa) = 67.96483 57.35427 98.45911
#
# Poissons Ratio (x) = 0.18344 0.57425
# Poissons Ratio (y) = 0.21738 0.32767
# Poissons Ratio (z) = 0.39640 0.19087
#
# Static dielectric constant tensor:
#      x y z
#    x 3.638620 0.000000 0.000000 
#    y 0.000000 3.346730 0.000000 
#    z 0.000000 0.000000 3.779190 
# 
# 
# High freq. dielectric constant tensor:
#      x y z
#    x 1.756620 0.000000 0.000000 
#    y 0.000000 1.737260 0.000000 
#    z 0.000000 0.000000 1.768970 
# 
# From -- ./inp_files/66331.got.cif
#   From: 2010.06.25/outbox.cif.g09.slc.cpg/sg71_34_cif.got.tgz:66331.got - 2010.06.28 04:59:45.
