data_PCOD8292976
_publ_section_title
;
Structure prediction by ZEFSAII (Michael W. Deem and Ramdas Pophale) SiO2 
 PCOD8292976
Probable space group: I B A M
;
_chemical_formula_sum "Si O2"
_cell_formula_units_Z 68
_cell_length_a 16.576744
_cell_length_b 21.998008
_cell_length_c 9.199998
_cell_angle_alpha 90.000000
_cell_angle_beta 90.000000
_cell_angle_gamma 90.000000
_cell_volume 3354.828464
_symmetry_space_group_name_H-M "I B A M"
_symmetry_group_IT_number 72
_symmetry_cell_setting 'orthorhombic'
loop_
_space_group_symop_operation_xyz
x,y,z
-x,-y,z
x,-y,1/2-z
-x,y,1/2-z
-x,-y,-z
x,y,-z
-x,y,1/2+z
x,-y,1/2+z
1/2+x,1/2+y,1/2+z
1/2-x,1/2-y,1/2+z
1/2+x,1/2-y,-z
1/2-x,1/2+y,-z
1/2-x,1/2-y,1/2-z
1/2+x,1/2+y,1/2-z
1/2-x,1/2+y,z
1/2+x,1/2-y,z
loop_
_atom_site_type_symbol
_atom_site_label
_atom_site_fract_x
_atom_site_fract_y
_atom_site_fract_z
Si Si1 0.142334 0.206784 0.336411
Si Si2 0.500000 0.500000 0.750000
Si Si3 0.197115 0.439557 0.328594
Si Si4 0.376789 0.594548 0.159681
Si Si5 0.168950 0.678677 0.665163
O O1 0.111071 0.216644 0.500000
O O2 0.097281 0.147971 0.270006
O O3 0.120828 0.266233 0.241902
O O4 0.237073 0.194237 0.333034
O O5 0.556141 0.457740 0.849102
O O6 0.164088 0.500000 0.250000
O O7 0.178588 0.442182 0.500000
O O8 0.292087 0.434932 0.293940
O O9 0.151513 0.382140 0.257255
O O10 0.367279 0.623909 0.000000
O O11 0.138083 0.670501 0.500000
#
# Coordination Sequence:
#
# PCOD8292976 Si02
#       5
#    16   4  16  16  16
#     4   9  17  29  45  63  82 107 142 185 229 275
#     4  12  22  36  48  66  86 124 166 206 238 270
#     4  10  18  29  43  63  89 118 150 186 229 276
#     4  10  21  33  46  61  83 115 155 198 236 273
#     4   9  16  27  44  64  85 109 140 179 226 276
#
# _framework density 20.269293000000001
#
# number of rings (size 3 to 8) (size 9 to 14) (size 15 to 20)
#    0.000    2.353    1.176    2.471    0.000    8.471 
#    0.000    0.000    0.000    0.000    0.000    0.000 
#    0.000    0.000    0.000    1.059    0.000   15.765 
#
# Total GULP energy -421554.505144 kJ/mol
# GULP energy per Si atom -12398.661916 kJ/mol
# Density = 2.022316 g / cm^3
# Si number density = 20.269293 Si / 1000 Ang^3
#
#
#
# Elastic Constant Matrix: (Units=GPa)
#
#
# Indices 1 2 3 4 5 6 
#
# 1 12.7092 14.2666 5.8458 0.0000 0.0000 0.0000
# 2 14.2666 175.4394 96.1440 0.0000 0.0000 0.0000
# 3 5.8458 96.1440 169.1719 0.0000 0.0000 0.0000
# 4 0.0000 0.0000 0.0000 45.4981 0.0000 0.0000
# 5 0.0000 0.0000 0.0000 0.0000 7.1468 0.0000
# 6 0.0000 0.0000 0.0000 0.0000 0.0000 21.3461
#
#
#
# Elastic Compliance Matrix: (Units=1/GPa)
#
#
# Indices 1 2 3 4 5 6 
#
# 1 0.086838 -0.007868 0.001471 0.000000 0.000000 0.000000
# 2 -0.007868 0.008991 -0.004838 0.000000 0.000000 0.000000
# 3 0.001471 -0.004838 0.008610 0.000000 0.000000 0.000000
# 4 0.000000 0.000000 0.000000 0.021979 0.000000 0.000000
# 5 0.000000 0.000000 0.000000 0.000000 0.139922 0.000000
# 6 0.000000 0.000000 0.000000 0.000000 0.000000 0.046847
#
#
# Mechanical properties :
#
#
# Convention : Reuss Voigt Hill
#
# Bulk Modulus (GPa) = 12.19966 65.53705 38.86835
# Shear Modulus (GPa) = 13.77485 30.86916 22.32200
#
# Velocity S-wave (km/s) = 2.60973 3.90674 3.32214
# Velocity P-wave (km/s) = 3.88751 7.26316 5.82521
#
# Compressibility (1/GPa) = 0.08196948
#
# Stress axis : x y z
#
# Youngs Moduli (GPa) = 11.51564 111.22204 116.14631
#
# Poissons Ratio (x) = 0.87504 -0.17080
# Poissons Ratio (y) = 0.09060 0.56191
# Poissons Ratio (z) = -0.01693 0.53808
#
# Static dielectric constant tensor:
#      x y z
#    x 2.916760 0.000000 0.000000 
#    y 0.000000 3.808290 0.000000 
#    z 0.000000 0.000000 3.745450 
# 
# 
# High freq. dielectric constant tensor:
#      x y z
#    x 1.711190 0.000000 0.000000 
#    y 0.000000 1.803330 0.000000 
#    z 0.000000 0.000000 1.804650 
# 
# From -- ./inp_files/4399.got.cif
#   From: 2010.03.12/outbox.cif.g09.slc.cpg/sg72_3_cif.got.tgz:4399.got - 2010.04.16 14:54:00.
