data_PCOD8292344
_publ_section_title
;
Structure prediction by ZEFSAII (Michael W. Deem and Ramdas Pophale) SiO2 
 PCOD8292344
Probable space group: I M M M
;
_chemical_formula_sum "Si O2"
_cell_formula_units_Z 88
_cell_length_a 31.020024
_cell_length_b 16.509822
_cell_length_c 10.316203
_cell_angle_alpha 90.000000
_cell_angle_beta 90.000000
_cell_angle_gamma 90.000000
_cell_volume 5283.289394
_symmetry_space_group_name_H-M "I M M M"
_symmetry_group_IT_number 71
_symmetry_cell_setting 'orthorhombic'
loop_
_space_group_symop_operation_xyz
x,y,z
-x,-y,z
x,-y,-z
-x,y,-z
-x,-y,-z
x,y,-z
-x,y,z
x,-y,z
1/2+x,1/2+y,1/2+z
1/2-x,1/2-y,1/2+z
1/2+x,1/2-y,1/2-z
1/2-x,1/2+y,1/2-z
1/2-x,1/2-y,1/2-z
1/2+x,1/2+y,1/2-z
1/2-x,1/2+y,1/2+z
1/2+x,1/2-y,1/2+z
loop_
_atom_site_type_symbol
_atom_site_label
_atom_site_fract_x
_atom_site_fract_y
_atom_site_fract_z
Si Si1 0.788947 0.312426 0.251134
Si Si2 0.364651 0.689166 0.753730
Si Si3 0.266244 0.095832 0.500000
Si Si4 0.049862 0.000000 0.638094
Si Si5 0.451884 0.324455 0.844279
Si Si6 0.160994 0.903596 0.000000
Si Si7 0.667300 0.404244 0.000000
Si Si8 0.761925 0.404894 0.500000
O O1 0.750000 0.250000 0.250000
O O2 0.834070 0.266389 0.253836
O O3 0.789379 0.368776 0.125672
O O4 0.785313 0.369282 0.375204
O O5 0.413403 0.725662 0.775405
O O6 0.360747 0.636710 0.624276
O O7 0.355020 0.629457 0.872320
O O8 0.216820 0.124421 0.500000
O O9 0.271029 0.000000 0.500000
O O10 0.059156 0.915556 0.710813
O O11 0.075500 0.000000 0.500000
O O12 0.000000 0.000000 0.603244
O O13 0.500000 0.296246 0.800005
O O14 0.449328 0.321280 0.000000
O O15 0.211567 0.882065 0.000000
O O16 0.153284 0.000000 0.000000
O O17 0.664633 0.500000 0.000000
O O18 0.768550 0.500000 0.500000
#
# Coordination Sequence:
#
# PCOD8292344 Si02
#       8
#    16  16   8   8  16   8   8   8
#     4  12  21  35  54  78 107 136 175 217 260 305
#     4  12  22  33  52  75 103 139 174 221 260 301
#     4  11  22  38  54  74 105 143 182 215 248 304
#     4   7  12  24  42  63  89 123 159 205 245 275
#     4   9  18  31  49  73  99 129 173 218 260 298
#     4  11  23  35  46  70 107 147 176 205 260 313
#     4  11  21  31  50  78 101 133 184 225 246 289
#     4  11  22  38  54  72 107 145 174 211 262 310
#
# _framework density 16.656289000000001
#
# number of rings (size 3 to 8) (size 9 to 14) (size 15 to 20)
#    0.000    1.364    4.545    3.818    2.545    2.909 
#    0.000    0.455    0.000    0.545    0.000    0.000 
#    0.000    4.364    0.000    0.000    0.000    0.000 
#
# Total GULP energy -545334.896076 kJ/mol
# GULP energy per Si atom -12393.974911 kJ/mol
# Density = 1.661838 g / cm^3
# Si number density = 16.656289 Si / 1000 Ang^3
#
#
#
# Elastic Constant Matrix: (Units=GPa)
#
#
# Indices 1 2 3 4 5 6 
#
# 1 144.9774 43.3830 47.6136 0.0000 0.0000 0.0000
# 2 43.3830 54.3980 38.1783 0.0000 0.0000 0.0000
# 3 47.6136 38.1783 130.9750 0.0000 0.0000 0.0000
# 4 0.0000 0.0000 0.0000 12.4838 0.0000 0.0000
# 5 0.0000 0.0000 0.0000 0.0000 12.5323 0.0000
# 6 0.0000 0.0000 0.0000 0.0000 0.0000 19.2030
#
#
#
# Elastic Compliance Matrix: (Units=1/GPa)
#
#
# Indices 1 2 3 4 5 6 
#
# 1 0.009298 -0.006340 -0.001532 0.000000 0.000000 0.000000
# 2 -0.006340 0.027434 -0.005692 0.000000 0.000000 0.000000
# 3 -0.001532 -0.005692 0.009851 0.000000 0.000000 0.000000
# 4 0.000000 0.000000 0.000000 0.080104 0.000000 0.000000
# 5 0.000000 0.000000 0.000000 0.000000 0.079794 0.000000
# 6 0.000000 0.000000 0.000000 0.000000 0.000000 0.052075
#
#
# Mechanical properties :
#
#
# Convention : Reuss Voigt Hill
#
# Bulk Modulus (GPa) = 51.40048 65.41113 58.40581
# Shear Modulus (GPa) = 17.11337 22.25553 19.68445
#
# Velocity S-wave (km/s) = 3.20885 3.65932 3.44147
# Velocity P-wave (km/s) = 6.68247 7.56377 7.13674
#
# Compressibility (1/GPa) = 0.01945507
#
# Stress axis : x y z
#
# Youngs Moduli (GPa) = 107.55055 36.45098 101.51059
#
# Poissons Ratio (x) = 0.23110 0.15552
# Poissons Ratio (y) = 0.68187 0.57781
# Poissons Ratio (z) = 0.16477 0.20748
#
# Static dielectric constant tensor:
#      x y z
#    x 3.367410 0.000000 0.000000 
#    y 0.000000 3.155030 0.000000 
#    z 0.000000 0.000000 3.503160 
# 
# 
# High freq. dielectric constant tensor:
#      x y z
#    x 1.640090 0.000000 0.000000 
#    y 0.000000 1.612590 0.000000 
#    z 0.000000 0.000000 1.639230 
# 
# From -- ./inp_files/16778.got.cif
#   From: 2010.06.25/outbox.cif.g09.slc.cpg/sg71_9_cif.got.tgz:16778.got - 2010.06.28 04:59:45.
