data_PCOD8292097
_publ_section_title
;
Structure prediction by ZEFSAII (Michael W. Deem and Ramdas Pophale) SiO2 
 PCOD8292097
Probable space group: I M M M
;
_chemical_formula_sum "Si O2"
_cell_formula_units_Z 88
_cell_length_a 22.213105
_cell_length_b 9.786848
_cell_length_c 21.258122
_cell_angle_alpha 90.000000
_cell_angle_beta 90.000000
_cell_angle_gamma 90.000000
_cell_volume 4621.436690
_symmetry_space_group_name_H-M "I M M M"
_symmetry_group_IT_number 71
_symmetry_cell_setting 'orthorhombic'
loop_
_space_group_symop_operation_xyz
x,y,z
-x,-y,z
x,-y,-z
-x,y,-z
-x,-y,-z
x,y,-z
-x,y,z
x,-y,z
1/2+x,1/2+y,1/2+z
1/2-x,1/2-y,1/2+z
1/2+x,1/2-y,1/2-z
1/2-x,1/2+y,1/2-z
1/2-x,1/2-y,1/2-z
1/2+x,1/2+y,1/2-z
1/2-x,1/2+y,1/2+z
1/2+x,1/2-y,1/2+z
loop_
_atom_site_type_symbol
_atom_site_label
_atom_site_fract_x
_atom_site_fract_y
_atom_site_fract_z
Si Si1 0.434318 0.500000 0.926876
Si Si2 0.882036 0.341777 0.132424
Si Si3 0.571368 0.000000 0.074878
Si Si4 0.748958 0.161060 0.686734
Si Si5 0.932486 0.339337 0.000000
Si Si6 0.871007 0.240736 0.637983
Si Si7 0.568782 0.344048 0.263464
O O1 0.500000 0.500000 0.893653
O O2 0.397690 0.370085 0.907659
O O3 0.443874 0.500000 0.000000
O O4 0.900429 0.500000 0.143287
O O5 0.812781 0.317899 0.149486
O O6 0.894440 0.294220 0.061046
O O7 0.923937 0.245141 0.174250
O O8 0.606432 0.121690 0.107415
O O9 0.500000 0.000000 0.091023
O O10 0.580715 0.000000 0.000000
O O11 0.750000 0.250000 0.750000
O O12 0.799088 0.222418 0.639585
O O13 0.760201 0.000000 0.702064
O O14 0.939807 0.500000 0.000000
O O15 0.000000 0.274129 0.000000
O O16 0.892370 0.226646 0.709524
O O17 0.500000 0.342604 0.242049
O O18 0.590878 0.500000 0.274408
#
# Coordination Sequence:
#
# PCOD8292097 Si02
#       7
#     8  16   8  16   8  16  16
#     4  11  22  40  65  92 124 165 210 257 319 389
#     4  10  22  39  62  92 120 163 209 255 317 376
#     4  11  26  46  65  92 130 169 214 269 327 385
#     4  11  23  40  62  91 129 166 208 260 317 382
#     4   9  18  38  63  89 123 159 202 257 313 371
#     4  12  23  41  62  92 126 165 213 261 320 384
#     4  11  22  36  58  91 125 155 204 263 316 376
#
# _framework density 19.041696999999999
#
# number of rings (size 3 to 8) (size 9 to 14) (size 15 to 20)
#    0.000    1.182    3.636    2.727    2.545    2.545 
#    3.273    0.455    0.000    1.636    0.000    0.000 
#    0.000    0.000    0.000    0.000    0.000    0.000 
#
# Total GULP energy -545545.792595 kJ/mol
# GULP energy per Si atom -12398.768014 kJ/mol
# Density = 1.899836 g / cm^3
# Si number density = 19.041697 Si / 1000 Ang^3
#
#
#
# Elastic Constant Matrix: (Units=GPa)
#
#
# Indices 1 2 3 4 5 6 
#
# 1 120.2683 45.6061 47.0441 0.0000 0.0000 0.0000
# 2 45.6061 128.8383 53.7925 0.0000 0.0000 0.0000
# 3 47.0441 53.7925 126.7276 0.0000 0.0000 0.0000
# 4 0.0000 0.0000 0.0000 32.2001 0.0000 0.0000
# 5 0.0000 0.0000 0.0000 0.0000 35.1710 0.0000
# 6 0.0000 0.0000 0.0000 0.0000 0.0000 30.2878
#
#
#
# Elastic Compliance Matrix: (Units=1/GPa)
#
#
# Indices 1 2 3 4 5 6 
#
# 1 0.010352 -0.002504 -0.002780 0.000000 0.000000 0.000000
# 2 -0.002504 0.010039 -0.003332 0.000000 0.000000 0.000000
# 3 -0.002780 -0.003332 0.010337 0.000000 0.000000 0.000000
# 4 0.000000 0.000000 0.000000 0.031056 0.000000 0.000000
# 5 0.000000 0.000000 0.000000 0.000000 0.028433 0.000000
# 6 0.000000 0.000000 0.000000 0.000000 0.000000 0.033017
#
#
# Mechanical properties :
#
#
# Convention : Reuss Voigt Hill
#
# Bulk Modulus (GPa) = 74.09147 74.30219 74.19683
# Shear Modulus (GPa) = 34.49163 34.82453 34.65808
#
# Velocity S-wave (km/s) = 4.26064 4.28115 4.27091
# Velocity P-wave (km/s) = 7.94976 7.97140 7.96059
#
# Compressibility (1/GPa) = 0.01349683
#
# Stress axis : x y z
#
# Youngs Moduli (GPa) = 96.60418 99.61146 96.73733
#
# Poissons Ratio (x) = 0.24938 0.26893
# Poissons Ratio (y) = 0.24185 0.32232
# Poissons Ratio (z) = 0.26856 0.33190
#
# Static dielectric constant tensor:
#      x y z
#    x 3.799630 0.000000 0.000000 
#    y 0.000000 3.454140 0.000000 
#    z 0.000000 0.000000 3.579860 
# 
# 
# High freq. dielectric constant tensor:
#      x y z
#    x 1.753730 0.000000 0.000000 
#    y 0.000000 1.739450 0.000000 
#    z 0.000000 0.000000 1.741730 
# 
# From -- ./inp_files/55619.got.cif
#   From: 2010.06.25/outbox.cif.g09.slc.cpg/sg71_28_cif.got.tgz:55619.got - 2010.06.28 04:59:45.
