data_PCOD8292132
_publ_section_title
;
Structure prediction by ZEFSAII (Michael W. Deem and Ramdas Pophale) SiO2 
 PCOD8292132
Probable space group: I M M M
;
_chemical_formula_sum "Si O2"
_cell_formula_units_Z 104
_cell_length_a 25.692104
_cell_length_b 8.895594
_cell_length_c 21.357547
_cell_angle_alpha 90.000000
_cell_angle_beta 90.000000
_cell_angle_gamma 90.000000
_cell_volume 4881.193175
_symmetry_space_group_name_H-M "I M M M"
_symmetry_group_IT_number 71
_symmetry_cell_setting 'orthorhombic'
loop_
_space_group_symop_operation_xyz
x,y,z
-x,-y,z
x,-y,-z
-x,y,-z
-x,-y,-z
x,y,-z
-x,y,z
x,-y,z
1/2+x,1/2+y,1/2+z
1/2-x,1/2-y,1/2+z
1/2+x,1/2-y,1/2-z
1/2-x,1/2+y,1/2-z
1/2-x,1/2-y,1/2-z
1/2+x,1/2+y,1/2-z
1/2-x,1/2+y,1/2+z
1/2+x,1/2-y,1/2+z
loop_
_atom_site_type_symbol
_atom_site_label
_atom_site_fract_x
_atom_site_fract_y
_atom_site_fract_z
Si Si1 0.941751 0.674113 0.108129
Si Si2 0.939370 0.177368 0.500000
Si Si3 0.894907 0.328018 0.760838
Si Si4 0.219442 0.831546 0.376808
Si Si5 0.388627 0.174366 0.877231
Si Si6 0.876808 0.175938 0.000000
Si Si7 0.791427 0.175783 0.795228
Si Si8 0.728101 0.161087 0.500000
O O1 0.933000 0.500000 0.093263
O O2 0.935271 0.704288 0.182837
O O3 0.901970 0.763264 0.064185
O O4 0.000000 0.724619 0.090369
O O5 0.914612 0.239608 0.564494
O O6 0.000000 0.221530 0.500000
O O7 0.930701 0.000000 0.500000
O O8 0.874542 0.500000 0.764890
O O9 0.918588 0.301877 0.690236
O O10 0.848761 0.212228 0.772891
O O11 0.169217 0.731873 0.361157
O O12 0.275063 0.754762 0.359489
O O13 0.226741 0.835100 0.449454
O O14 0.212696 0.000000 0.347267
O O15 0.387172 0.000000 0.895988
O O16 0.815272 0.210149 0.000000
O O17 0.884718 0.000000 0.000000
O O18 0.750000 0.250000 0.750000
O O19 0.783938 0.000000 0.800796
O O20 0.697814 0.000000 0.500000
#
# Coordination Sequence:
#
# PCOD8292132 Si02
#       8
#    16   8  16  16  16   8  16   8
#     4  10  22  42  67  91 120 163 209 253 308 375
#     4  11  26  47  68  90 121 163 210 261 320 383
#     4  10  22  40  63  95 129 161 206 260 314 372
#     4  11  22  38  61  90 126 166 207 251 303 370
#     4  11  23  40  66  96 127 162 205 259 315 375
#     4  12  25  40  61  91 125 161 206 263 314 361
#     4  12  23  36  57  86 122 165 207 246 298 361
#     4  10  23  40  59  85 120 164 206 247 298 362
#
# _framework density 21.306266000000001
#
# number of rings (size 3 to 8) (size 9 to 14) (size 15 to 20)
#    0.000    1.154    1.538    4.846    0.000    9.231 
#    0.000    1.538    0.000    0.000    0.000    0.000 
#    0.000    0.000    0.000    0.000    0.000    0.000 
#
# Total GULP energy -644226.802188 kJ/mol
# GULP energy per Si atom -12388.976965 kJ/mol
# Density = 2.125777 g / cm^3
# Si number density = 21.306266 Si / 1000 Ang^3
#
#
#
# Elastic Constant Matrix: (Units=GPa)
#
#
# Indices 1 2 3 4 5 6 
#
# 1 61.8178 26.4750 15.0459 0.0000 0.0000 0.0000
# 2 26.4750 122.0862 37.0108 0.0000 0.0000 0.0000
# 3 15.0459 37.0108 134.1927 0.0000 0.0000 0.0000
# 4 0.0000 0.0000 0.0000 25.2755 0.0000 0.0000
# 5 0.0000 0.0000 0.0000 0.0000 14.7843 0.0000
# 6 0.0000 0.0000 0.0000 0.0000 0.0000 24.7989
#
#
#
# Elastic Compliance Matrix: (Units=1/GPa)
#
#
# Indices 1 2 3 4 5 6 
#
# 1 0.017961 -0.003584 -0.001025 0.000000 0.000000 0.000000
# 2 -0.003584 0.009653 -0.002261 0.000000 0.000000 0.000000
# 3 -0.001025 -0.002261 0.008190 0.000000 0.000000 0.000000
# 4 0.000000 0.000000 0.000000 0.039564 0.000000 0.000000
# 5 0.000000 0.000000 0.000000 0.000000 0.067640 0.000000
# 6 0.000000 0.000000 0.000000 0.000000 0.000000 0.040324
#
#
# Mechanical properties :
#
#
# Convention : Reuss Voigt Hill
#
# Bulk Modulus (GPa) = 45.32081 52.79556 49.05819
# Shear Modulus (GPa) = 24.45850 28.94274 26.70062
#
# Velocity S-wave (km/s) = 3.39182 3.68967 3.54387
# Velocity P-wave (km/s) = 6.05446 6.55627 6.31036
#
# Compressibility (1/GPa) = 0.02206492
#
# Stress axis : x y z
#
# Youngs Moduli (GPa) = 55.67582 103.58960 122.09398
#
# Poissons Ratio (x) = 0.37128 0.12519
# Poissons Ratio (y) = 0.19955 0.27601
# Poissons Ratio (z) = 0.05709 0.23418
#
# Static dielectric constant tensor:
#      x y z
#    x 3.403700 0.000000 0.000000 
#    y 0.000000 3.982360 0.000000 
#    z 0.000000 0.000000 4.242920 
# 
# 
# High freq. dielectric constant tensor:
#      x y z
#    x 1.815660 0.000000 0.000000 
#    y 0.000000 1.836220 0.000000 
#    z 0.000000 0.000000 1.867840 
# 
# From -- ./inp_files/56330.got.cif
#   From: 2010.06.25/outbox.cif.g09.slc.cpg/sg71_29_cif.got.tgz:56330.got - 2010.06.28 04:59:45.
