data_PCOD8292308
_publ_section_title
;
Structure prediction by ZEFSAII (Michael W. Deem and Ramdas Pophale) SiO2 
 PCOD8292308
Probable space group: I M M M
;
_chemical_formula_sum "Si O2"
_cell_formula_units_Z 88
_cell_length_a 18.673468
_cell_length_b 17.523681
_cell_length_c 14.772139
_cell_angle_alpha 90.000000
_cell_angle_beta 90.000000
_cell_angle_gamma 90.000000
_cell_volume 4833.855970
_symmetry_space_group_name_H-M "I M M M"
_symmetry_group_IT_number 71
_symmetry_cell_setting 'orthorhombic'
loop_
_space_group_symop_operation_xyz
x,y,z
-x,-y,z
x,-y,-z
-x,y,-z
-x,-y,-z
x,y,-z
-x,y,z
x,-y,z
1/2+x,1/2+y,1/2+z
1/2-x,1/2-y,1/2+z
1/2+x,1/2-y,1/2-z
1/2-x,1/2+y,1/2-z
1/2-x,1/2-y,1/2-z
1/2+x,1/2+y,1/2-z
1/2-x,1/2+y,1/2+z
1/2+x,1/2-y,1/2+z
loop_
_atom_site_type_symbol
_atom_site_label
_atom_site_fract_x
_atom_site_fract_y
_atom_site_fract_z
Si Si1 0.080993 0.243303 0.101102
Si Si2 0.200342 0.587369 0.600768
Si Si3 0.636291 0.415892 0.359688
Si Si4 0.197325 0.317861 0.773421
Si Si5 0.680481 0.585952 0.157597
Si Si6 0.419056 0.591228 0.000000
O O1 0.086013 0.151194 0.104656
O O2 0.129242 0.286280 0.173964
O O3 0.000000 0.266687 0.122897
O O4 0.102430 0.269836 0.000000
O O5 0.171947 0.611185 0.500000
O O6 0.178440 0.500000 0.622224
O O7 0.285619 0.595473 0.598169
O O8 0.169614 0.640926 0.681004
O O9 0.606147 0.500000 0.386972
O O10 0.640036 0.409411 0.252139
O O11 0.250000 0.250000 0.750000
O O12 0.242231 0.373557 0.838879
O O13 0.698017 0.500000 0.128624
O O14 0.625120 0.622749 0.086235
O O15 0.423797 0.500000 0.000000
O O16 0.500000 0.624932 0.000000
#
# Coordination Sequence:
#
# PCOD8292308 Si02
#       6
#    16  16  16  16  16   8
#     4  11  24  38  52  76 114 155 189 226 276 326
#     4   9  17  32  58  88 111 134 172 225 280 331
#     4   9  17  32  53  77 107 142 181 222 265 325
#     4  11  20  34  55  83 107 144 186 230 272 327
#     4   9  18  33  52  78 105 140 185 225 273 329
#     4   9  18  32  50  76 109 141 174 219 277 335
#
# _framework density 18.204929
#
# number of rings (size 3 to 8) (size 9 to 14) (size 15 to 20)
#    0.000    2.273    3.636    2.182    1.273    2.182 
#    0.000    2.727    0.000    2.727    0.000    6.364 
#    0.000    0.000    0.000    0.000    0.000    0.182 
#
# Total GULP energy -545325.271585 kJ/mol
# GULP energy per Si atom -12393.756172 kJ/mol
# Density = 1.816349 g / cm^3
# Si number density = 18.204929 Si / 1000 Ang^3
#
#
#
# Elastic Constant Matrix: (Units=GPa)
#
#
# Indices 1 2 3 4 5 6 
#
# 1 81.9322 40.7344 62.3401 0.0000 0.0000 0.0000
# 2 40.7344 82.5607 56.6108 0.0000 0.0000 0.0000
# 3 62.3401 56.6108 136.0340 0.0000 0.0000 0.0000
# 4 0.0000 0.0000 0.0000 21.7280 0.0000 0.0000
# 5 0.0000 0.0000 0.0000 0.0000 24.6990 0.0000
# 6 0.0000 0.0000 0.0000 0.0000 0.0000 19.8263
#
#
#
# Elastic Compliance Matrix: (Units=1/GPa)
#
#
# Indices 1 2 3 4 5 6 
#
# 1 0.020139 -0.005049 -0.007128 0.000000 0.000000 0.000000
# 2 -0.005049 0.018214 -0.005266 0.000000 0.000000 0.000000
# 3 -0.007128 -0.005266 0.012809 0.000000 0.000000 0.000000
# 4 0.000000 0.000000 0.000000 0.046024 0.000000 0.000000
# 5 0.000000 0.000000 0.000000 0.000000 0.040487 0.000000
# 6 0.000000 0.000000 0.000000 0.000000 0.000000 0.050438
#
#
# Mechanical properties :
#
#
# Convention : Reuss Voigt Hill
#
# Bulk Modulus (GPa) = 61.43845 68.87751 65.15798
# Shear Modulus (GPa) = 21.88925 22.64008 22.26466
#
# Velocity S-wave (km/s) = 3.47130 3.53033 3.50094
# Velocity P-wave (km/s) = 7.06315 7.38474 7.22573
#
# Compressibility (1/GPa) = 0.01627645
#
# Stress axis : x y z
#
# Youngs Moduli (GPa) = 49.65553 54.90204 78.06897
#
# Poissons Ratio (x) = 0.27718 0.55647
# Poissons Ratio (y) = 0.25069 0.41113
# Poissons Ratio (z) = 0.35394 0.28913
#
# Static dielectric constant tensor:
#      x y z
#    x 3.136670 0.000000 0.000000 
#    y 0.000000 4.083220 0.000000 
#    z 0.000000 0.000000 3.706580 
# 
# 
# High freq. dielectric constant tensor:
#      x y z
#    x 1.661890 0.000000 0.000000 
#    y 0.000000 1.693200 0.000000 
#    z 0.000000 0.000000 1.721000 
# 
# From -- ./inp_files/36354.got.cif
#   From: 2010.06.25/outbox.cif.g09.slc.cpg/sg71_19_cif.got.tgz:36354.got - 2010.06.28 04:59:45.
