data_PCOD8292026
_publ_section_title
;
Structure prediction by ZEFSAII (Michael W. Deem and Ramdas Pophale) SiO2 
 PCOD8292026
Probable space group: I M M M
;
_chemical_formula_sum "Si O2"
_cell_formula_units_Z 96
_cell_length_a 30.257681
_cell_length_b 11.977950
_cell_length_c 13.628396
_cell_angle_alpha 90.000000
_cell_angle_beta 90.000000
_cell_angle_gamma 90.000000
_cell_volume 4939.271286
_symmetry_space_group_name_H-M "I M M M"
_symmetry_group_IT_number 71
_symmetry_cell_setting 'orthorhombic'
loop_
_space_group_symop_operation_xyz
x,y,z
-x,-y,z
x,-y,-z
-x,y,-z
-x,-y,-z
x,y,-z
-x,y,z
x,-y,z
1/2+x,1/2+y,1/2+z
1/2-x,1/2-y,1/2+z
1/2+x,1/2-y,1/2-z
1/2-x,1/2+y,1/2-z
1/2-x,1/2-y,1/2-z
1/2+x,1/2+y,1/2-z
1/2-x,1/2+y,1/2+z
1/2+x,1/2-y,1/2+z
loop_
_atom_site_type_symbol
_atom_site_label
_atom_site_fract_x
_atom_site_fract_y
_atom_site_fract_z
Si Si1 0.165687 0.000000 0.382913
Si Si2 0.699920 0.128372 0.884737
Si Si3 0.949048 0.877601 0.500000
Si Si4 0.289437 0.756258 0.615296
Si Si5 0.949313 0.500000 0.606031
Si Si6 0.765478 0.500000 0.883706
Si Si7 0.358753 0.712468 0.767498
Si Si8 0.050702 0.264496 0.690894
O O1 0.215823 0.000000 0.344262
O O2 0.142150 0.891844 0.340206
O O3 0.163119 0.000000 0.500000
O O4 0.743288 0.199087 0.855354
O O5 0.658336 0.179739 0.827848
O O6 0.706931 0.000000 0.852393
O O7 0.690779 0.137815 0.000000
O O8 0.937706 0.805218 0.594296
O O9 0.000000 0.904722 0.500000
O O10 0.924286 0.000000 0.500000
O O11 0.298063 0.745084 0.500000
O O12 0.329565 0.694010 0.670041
O O13 0.289414 0.886041 0.651503
O O14 0.923772 0.500000 0.500000
O O15 0.938928 0.607068 0.670705
O O16 0.000000 0.500000 0.577846
O O17 0.764132 0.500000 0.000000
O O18 0.410377 0.728856 0.733491
O O19 0.000000 0.244308 0.728463
#
# Coordination Sequence:
#
# PCOD8292026 Si02
#       8
#     8  16   8  16   8   8  16  16
#     4  11  24  38  55  86 119 146 186 223 271 339
#     4  10  22  37  55  84 120 148 177 226 281 335
#     4   9  18  33  51  71 103 146 179 217 269 321
#     4  10  22  40  59  82 112 147 190 235 280 329
#     4   9  16  31  52  72 101 144 182 213 266 336
#     4   9  18  37  59  79 113 150 178 226 280 328
#     4  12  25  35  59  83 110 151 191 229 278 329
#     4  10  22  36  51  76 109 144 184 228 275 326
#
# _framework density 19.436064999999999
#
# number of rings (size 3 to 8) (size 9 to 14) (size 15 to 20)
#    0.000    1.833    2.500    1.000    7.000    0.000 
#    0.000    0.000    0.000    0.500    0.000    0.000 
#    0.000    5.333    0.000    0.000    0.000    0.000 
#
# Total GULP energy -594918.924481 kJ/mol
# GULP energy per Si atom -12394.144260 kJ/mol
# Density = 1.939183 g / cm^3
# Si number density = 19.436065 Si / 1000 Ang^3
#
#
#
# Elastic Constant Matrix: (Units=GPa)
#
#
# Indices 1 2 3 4 5 6 
#
# 1 134.7449 24.8348 35.1681 0.0000 0.0000 0.0000
# 2 24.8348 123.6992 27.2692 0.0000 0.0000 0.0000
# 3 35.1681 27.2692 30.4050 0.0000 0.0000 0.0000
# 4 0.0000 0.0000 0.0000 21.8494 0.0000 0.0000
# 5 0.0000 0.0000 0.0000 0.0000 8.4196 0.0000
# 6 0.0000 0.0000 0.0000 0.0000 0.0000 1.8058
#
#
#
# Elastic Compliance Matrix: (Units=1/GPa)
#
#
# Indices 1 2 3 4 5 6 
#
# 1 0.010682 0.000722 -0.013003 0.000000 0.000000 0.000000
# 2 0.000722 0.010125 -0.009916 0.000000 0.000000 0.000000
# 3 -0.013003 -0.009916 0.056822 0.000000 0.000000 0.000000
# 4 0.000000 0.000000 0.000000 0.045768 0.000000 0.000000
# 5 0.000000 0.000000 0.000000 0.000000 0.118770 0.000000
# 6 0.000000 0.000000 0.000000 0.000000 0.000000 0.553774
#
#
# Mechanical properties :
#
#
# Convention : Reuss Voigt Hill
#
# Bulk Modulus (GPa) = 30.08805 51.48814 40.78810
# Shear Modulus (GPa) = 5.87259 19.85342 12.86300
#
# Velocity S-wave (km/s) = 1.74013 3.19952 2.57536
# Velocity P-wave (km/s) = 4.42171 6.34017 5.46577
#
# Compressibility (1/GPa) = 0.03323579
#
# Stress axis : x y z
#
# Youngs Moduli (GPa) = 93.61453 98.76427 17.59876
#
# Poissons Ratio (x) = -0.07129 0.22883
# Poissons Ratio (y) = -0.06757 0.17451
# Poissons Ratio (z) = 1.21726 0.97932
#
# Static dielectric constant tensor:
#      x y z
#    x 3.555310 0.000000 0.000000 
#    y 0.000000 3.646490 0.000000 
#    z 0.000000 0.000000 3.047010 
# 
# 
# High freq. dielectric constant tensor:
#      x y z
#    x 1.751140 0.000000 0.000000 
#    y 0.000000 1.774670 0.000000 
#    z 0.000000 0.000000 1.714680 
# 
# From -- ./inp_files/40936.got.cif
#   From: 2010.06.25/outbox.cif.g09.slc.cpg/sg71_21_cif.got.tgz:40936.got - 2010.06.28 04:59:45.
