data_PCOD8292786
_publ_section_title
;
Structure prediction by ZEFSAII (Michael W. Deem and Ramdas Pophale) SiO2 
 PCOD8292786
Probable space group: I M M M
;
_chemical_formula_sum "Si O2"
_cell_formula_units_Z 72
_cell_length_a 9.599337
_cell_length_b 17.462184
_cell_length_c 23.763745
_cell_angle_alpha 90.000000
_cell_angle_beta 90.000000
_cell_angle_gamma 90.000000
_cell_volume 3983.406999
_symmetry_space_group_name_H-M "I M M M"
_symmetry_group_IT_number 71
_symmetry_cell_setting 'orthorhombic'
loop_
_space_group_symop_operation_xyz
x,y,z
-x,-y,z
x,-y,-z
-x,y,-z
-x,-y,-z
x,y,-z
-x,y,z
x,-y,z
1/2+x,1/2+y,1/2+z
1/2-x,1/2-y,1/2+z
1/2+x,1/2-y,1/2-z
1/2-x,1/2+y,1/2-z
1/2-x,1/2-y,1/2-z
1/2+x,1/2+y,1/2-z
1/2-x,1/2+y,1/2+z
1/2+x,1/2-y,1/2+z
loop_
_atom_site_type_symbol
_atom_site_label
_atom_site_fract_x
_atom_site_fract_y
_atom_site_fract_z
Si Si1 0.654655 0.192692 0.129387
Si Si2 0.164142 0.000000 0.563753
Si Si3 0.836382 0.868490 0.649412
Si Si4 0.653918 0.416675 0.433842
Si Si5 0.339061 0.826720 0.253168
O O1 0.500000 0.188919 0.104586
O O2 0.698724 0.281575 0.132855
O O3 0.753251 0.153017 0.085404
O O4 0.661236 0.145772 0.188384
O O5 0.210405 0.924590 0.598736
O O6 0.229105 0.000000 0.500000
O O7 0.000000 0.000000 0.557429
O O8 0.740773 0.885860 0.704847
O O9 0.000000 0.879601 0.664404
O O10 0.644869 0.412624 0.500000
O O11 0.500000 0.406514 0.407871
O O12 0.714144 0.500000 0.415372
O O13 0.500000 0.813052 0.272848
O O14 0.250000 0.750000 0.250000
#
# Coordination Sequence:
#
# PCOD8292786 Si02
#       5
#    16   8  16  16  16
#     4   9  18  31  50  77 103 130 167 209 256 309
#     4   9  18  34  55  77 105 143 184 225 262 303
#     4   9  18  33  53  77 104 135 174 215 257 305
#     4   9  19  35  51  69  97 131 166 205 249 299
#     4   9  17  31  51  75 103 132 163 206 258 308
#
# _framework density 18.074978999999999
#
# number of rings (size 3 to 8) (size 9 to 14) (size 15 to 20)
#    0.000    3.000    0.000    2.667    0.000    6.222 
#    2.000    3.889    0.000    1.333    0.000    0.000 
#    0.000    0.000    0.000    0.000    0.000    0.000 
#
# Total GULP energy -445972.167869 kJ/mol
# GULP energy per Si atom -12388.115774 kJ/mol
# Density = 1.803384 g / cm^3
# Si number density = 18.074979 Si / 1000 Ang^3
#
#
#
# Elastic Constant Matrix: (Units=GPa)
#
#
# Indices 1 2 3 4 5 6 
#
# 1 73.8473 39.3105 34.6773 0.0000 0.0000 0.0000
# 2 39.3105 92.4314 54.0318 0.0000 0.0000 0.0000
# 3 34.6773 54.0318 80.8585 0.0000 0.0000 0.0000
# 4 0.0000 0.0000 0.0000 30.7272 0.0000 0.0000
# 5 0.0000 0.0000 0.0000 0.0000 33.0100 0.0000
# 6 0.0000 0.0000 0.0000 0.0000 0.0000 20.2320
#
#
#
# Elastic Compliance Matrix: (Units=1/GPa)
#
#
# Indices 1 2 3 4 5 6 
#
# 1 0.018399 -0.005272 -0.004368 0.000000 0.000000 0.000000
# 2 -0.005272 0.019264 -0.010612 0.000000 0.000000 0.000000
# 3 -0.004368 -0.010612 0.021332 0.000000 0.000000 0.000000
# 4 0.000000 0.000000 0.000000 0.032544 0.000000 0.000000
# 5 0.000000 0.000000 0.000000 0.000000 0.030294 0.000000
# 6 0.000000 0.000000 0.000000 0.000000 0.000000 0.049427
#
#
# Mechanical properties :
#
#
# Convention : Reuss Voigt Hill
#
# Bulk Modulus (GPa) = 54.07864 55.90848 54.99356
# Shear Modulus (GPa) = 22.94351 24.73502 23.83927
#
# Velocity S-wave (km/s) = 3.56666 3.70329 3.63562
# Velocity P-wave (km/s) = 6.85167 7.02029 6.93649
#
# Compressibility (1/GPa) = 0.01849159
#
# Stress axis : x y z
#
# Youngs Moduli (GPa) = 54.35164 51.90988 46.87840
#
# Poissons Ratio (x) = 0.27364 0.20476
# Poissons Ratio (y) = 0.28652 0.49748
# Poissons Ratio (z) = 0.23741 0.55087
#
# Static dielectric constant tensor:
#      x y z
#    x 3.453090 0.000000 0.000000 
#    y 0.000000 3.367210 0.000000 
#    z 0.000000 0.000000 3.596750 
# 
# 
# High freq. dielectric constant tensor:
#      x y z
#    x 1.692470 0.000000 0.000000 
#    y 0.000000 1.679830 0.000000 
#    z 0.000000 0.000000 1.695420 
# 
# From -- ./inp_files/6036.got.cif
#   From: 2010.06.25/outbox.cif.g09.slc.cpg/sg71_4_cif.got.tgz:6036.got - 2010.06.28 04:59:45.
