data_PCOD8292605
_publ_section_title
;
Structure prediction by ZEFSAII (Michael W. Deem and Ramdas Pophale) SiO2 
 PCOD8292605
Probable space group: I M M M
;
_chemical_formula_sum "Si O2"
_cell_formula_units_Z 88
_cell_length_a 9.244496
_cell_length_b 20.212078
_cell_length_c 32.864063
_cell_angle_alpha 90.000000
_cell_angle_beta 90.000000
_cell_angle_gamma 90.000000
_cell_volume 6140.665756
_symmetry_space_group_name_H-M "I M M M"
_symmetry_group_IT_number 71
_symmetry_cell_setting 'orthorhombic'
loop_
_space_group_symop_operation_xyz
x,y,z
-x,-y,z
x,-y,-z
-x,y,-z
-x,-y,-z
x,y,-z
-x,y,z
x,-y,z
1/2+x,1/2+y,1/2+z
1/2-x,1/2-y,1/2+z
1/2+x,1/2-y,1/2-z
1/2-x,1/2+y,1/2-z
1/2-x,1/2-y,1/2-z
1/2+x,1/2+y,1/2-z
1/2-x,1/2+y,1/2+z
1/2+x,1/2-y,1/2+z
loop_
_atom_site_type_symbol
_atom_site_label
_atom_site_fract_x
_atom_site_fract_y
_atom_site_fract_z
Si Si1 0.336761 0.275573 0.809894
Si Si2 0.172516 0.141494 0.044923
Si Si3 0.166253 0.925276 0.183885
Si Si4 0.831401 0.803540 0.127759
Si Si5 0.844147 0.000000 0.047582
Si Si6 0.836721 0.350875 0.252074
O O1 0.500000 0.298482 0.819259
O O2 0.259619 0.255223 0.851968
O O3 0.250294 0.336275 0.789503
O O4 0.334974 0.213813 0.779837
O O5 0.215443 0.193427 0.080120
O O6 0.239198 0.069024 0.057315
O O7 0.000000 0.132969 0.043941
O O8 0.227669 0.164888 0.000000
O O9 0.205141 0.874727 0.147724
O O10 0.261285 0.910647 0.223857
O O11 0.000000 0.916633 0.196954
O O12 0.198669 0.000000 0.168763
O O13 0.000000 0.786641 0.133095
O O14 0.000000 0.000000 0.070857
O O15 0.874659 0.000000 0.000000
O O16 0.000000 0.371364 0.240863
#
# Coordination Sequence:
#
# PCOD8292605 Si02
#       6
#    16  16  16  16   8  16
#     4   9  16  26  39  53  69  88 113 145 183 222
#     4   8  13  20  31  48  69  92 119 153 190 221
#     4   9  17  26  35  51  75  99 121 147 182 220
#     4   9  16  24  36  53  72  93 121 156 188 218
#     4   7  10  16  26  42  63  85 111 145 183 217
#     4   9  16  26  40  54  68  88 115 146 179 216
#
# _framework density 14.330693
#
# number of rings (size 3 to 8) (size 9 to 14) (size 15 to 20)
#    0.000    3.364    0.000    2.182    1.273    4.727 
#    0.000    0.000    0.000    0.545    0.000    0.000 
#    0.000    2.182    0.000    0.000    0.000    0.909 
#
# Total GULP energy -545131.698139 kJ/mol
# GULP energy per Si atom -12389.356776 kJ/mol
# Density = 1.429808 g / cm^3
# Si number density = 14.330693 Si / 1000 Ang^3
#
#
#
# Elastic Constant Matrix: (Units=GPa)
#
#
# Indices 1 2 3 4 5 6 
#
# 1 62.7550 13.3625 34.9247 0.0000 0.0000 0.0000
# 2 13.3625 15.5906 20.8113 0.0000 0.0000 0.0000
# 3 34.9247 20.8113 94.0489 0.0000 0.0000 0.0000
# 4 0.0000 0.0000 0.0000 21.1583 0.0000 0.0000
# 5 0.0000 0.0000 0.0000 0.0000 12.2736 0.0000
# 6 0.0000 0.0000 0.0000 0.0000 0.0000 13.3590
#
#
#
# Elastic Compliance Matrix: (Units=1/GPa)
#
#
# Indices 1 2 3 4 5 6 
#
# 1 0.021324 -0.010937 -0.005498 0.000000 0.000000 0.000000
# 2 -0.010937 0.096639 -0.017323 0.000000 0.000000 0.000000
# 3 -0.005498 -0.017323 0.016508 0.000000 0.000000 0.000000
# 4 0.000000 0.000000 0.000000 0.047263 0.000000 0.000000
# 5 0.000000 0.000000 0.000000 0.000000 0.081476 0.000000
# 6 0.000000 0.000000 0.000000 0.000000 0.000000 0.074856
#
#
# Mechanical properties :
#
#
# Convention : Reuss Voigt Hill
#
# Bulk Modulus (GPa) = 14.93563 34.51015 24.72289
# Shear Modulus (GPa) = 11.68499 16.24457 13.96478
#
# Velocity S-wave (km/s) = 2.85859 3.37048 3.12503
# Velocity P-wave (km/s) = 4.61954 6.26741 5.50547
#
# Compressibility (1/GPa) = 0.06695400
#
# Stress axis : x y z
#
# Youngs Moduli (GPa) = 46.89610 10.34782 60.57722
#
# Poissons Ratio (x) = 0.11317 0.33308
# Poissons Ratio (y) = 0.51289 1.04938
# Poissons Ratio (z) = 0.25785 0.17926
#
# Static dielectric constant tensor:
#      x y z
#    x 2.693900 0.000000 0.000000 
#    y 0.000000 2.512730 0.000000 
#    z 0.000000 0.000000 2.821770 
# 
# 
# High freq. dielectric constant tensor:
#      x y z
#    x 1.528450 0.000000 0.000000 
#    y 0.000000 1.495780 0.000000 
#    z 0.000000 0.000000 1.532760 
# 
# From -- ./inp_files/17174.got.cif
#   From: 2010.06.25/outbox.cif.g09.slc.cpg/sg71_9_cif.got.tgz:17174.got - 2010.06.28 04:59:45.
