data_PCOD8292981
_publ_section_title
;
Structure prediction by ZEFSAII (Michael W. Deem and Ramdas Pophale) SiO2 
 PCOD8292981
Probable space group: I B A M
;
_chemical_formula_sum "Si O2"
_cell_formula_units_Z 96
_cell_length_a 24.386973
_cell_length_b 8.343908
_cell_length_c 27.136939
_cell_angle_alpha 90.000000
_cell_angle_beta 90.000000
_cell_angle_gamma 90.000000
_cell_volume 5521.896508
_symmetry_space_group_name_H-M "I B A M"
_symmetry_group_IT_number 72
_symmetry_cell_setting 'orthorhombic'
loop_
_space_group_symop_operation_xyz
x,y,z
-x,-y,z
x,-y,1/2-z
-x,y,1/2-z
-x,-y,-z
x,y,-z
-x,y,1/2+z
x,-y,1/2+z
1/2+x,1/2+y,1/2+z
1/2-x,1/2-y,1/2+z
1/2+x,1/2-y,-z
1/2-x,1/2+y,-z
1/2-x,1/2-y,1/2-z
1/2+x,1/2+y,1/2-z
1/2-x,1/2+y,z
1/2+x,1/2-y,z
loop_
_atom_site_type_symbol
_atom_site_label
_atom_site_fract_x
_atom_site_fract_y
_atom_site_fract_z
Si Si1 0.317022 0.193381 0.940990
Si Si2 0.295123 0.159902 0.556926
Si Si3 0.561706 0.555132 0.302707
Si Si4 0.916437 0.878605 0.393955
Si Si5 0.591420 0.701113 0.556093
Si Si6 0.479028 0.825839 0.863171
O O1 0.262110 0.279138 0.920610
O O2 0.368445 0.267545 0.913247
O O3 0.313401 0.011273 0.921817
O O4 0.324980 0.207637 0.000000
O O5 0.283048 0.134103 0.500000
O O6 0.343016 0.289968 0.565673
O O7 0.500000 0.500000 0.306460
O O8 0.586420 0.500000 0.250000
O O9 0.600120 0.467342 0.342830
O O10 0.554708 0.744726 0.316988
O O11 0.970359 0.776723 0.383609
O O12 0.928741 0.020430 0.433035
O O13 0.577433 0.746625 0.500000
O O14 0.562044 0.833906 0.590306
O O15 0.500000 0.000000 0.846353
#
# Coordination Sequence:
#
# PCOD8292981 Si02
#       6
#    16  16  16  16  16  16
#     4  10  18  29  45  67  95 123 157 198 235 276
#     4   9  18  30  45  66  92 126 164 197 228 269
#     4   8  16  33  51  67  91 120 153 194 239 286
#     4  10  19  30  47  69  93 124 158 195 239 286
#     4  10  19  31  46  66  97 135 168 195 229 277
#     4  10  20  32  48  73 100 125 158 196 237 289
#
# _framework density 17.385331000000001
#
# number of rings (size 3 to 8) (size 9 to 14) (size 15 to 20)
#    0.000    2.500    0.000    4.000    0.000    5.000 
#    0.000    6.667    0.000    0.000    0.000   10.500 
#    0.000    0.000    0.000    0.333    0.000    0.000 
#
# Total GULP energy -594633.345721 kJ/mol
# GULP energy per Si atom -12388.194703 kJ/mol
# Density = 1.734576 g / cm^3
# Si number density = 17.385331 Si / 1000 Ang^3
#
#
#
# Elastic Constant Matrix: (Units=GPa)
#
#
# Indices 1 2 3 4 5 6 
#
# 1 56.0210 15.2466 26.2945 0.0000 0.0000 0.0000
# 2 15.2466 79.3920 27.3524 0.0000 0.0000 0.0000
# 3 26.2945 27.3524 89.7472 0.0000 0.0000 0.0000
# 4 0.0000 0.0000 0.0000 15.1007 0.0000 0.0000
# 5 0.0000 0.0000 0.0000 0.0000 6.3988 0.0000
# 6 0.0000 0.0000 0.0000 0.0000 0.0000 30.8622
#
#
#
# Elastic Compliance Matrix: (Units=1/GPa)
#
#
# Indices 1 2 3 4 5 6 
#
# 1 0.021017 -0.002139 -0.005506 0.000000 0.000000 0.000000
# 2 -0.002139 0.014291 -0.003729 0.000000 0.000000 0.000000
# 3 -0.005506 -0.003729 0.013892 0.000000 0.000000 0.000000
# 4 0.000000 0.000000 0.000000 0.066222 0.000000 0.000000
# 5 0.000000 0.000000 0.000000 0.000000 0.156278 0.000000
# 6 0.000000 0.000000 0.000000 0.000000 0.000000 0.032402
#
#
# Mechanical properties :
#
#
# Convention : Reuss Voigt Hill
#
# Bulk Modulus (GPa) = 37.80350 40.32747 39.06549
# Shear Modulus (GPa) = 14.89570 20.89012 17.89291
#
# Velocity S-wave (km/s) = 2.93028 3.47016 3.21159
# Velocity P-wave (km/s) = 5.76545 6.26918 6.02259
#
# Compressibility (1/GPa) = 0.02645258
#
# Stress axis : x y z
#
# Youngs Moduli (GPa) = 47.58090 69.97313 71.98449
#
# Poissons Ratio (x) = 0.14969 0.39632
# Poissons Ratio (y) = 0.10179 0.26841
# Poissons Ratio (z) = 0.26196 0.26091
#
# Static dielectric constant tensor:
#      x y z
#    x 3.179300 0.000000 0.000000 
#    y 0.000000 3.413280 0.000000 
#    z 0.000000 0.000000 3.406830 
# 
# 
# High freq. dielectric constant tensor:
#      x y z
#    x 1.660260 0.000000 0.000000 
#    y 0.000000 1.678820 0.000000 
#    z 0.000000 0.000000 1.635350 
# 
# From -- ./inp_files/47304.got.cif
#   From: 2010.03.12/outbox.cif.g09.slc.cpg/sg72_24_cif.got.tgz:47304.got - 2010.04.16 14:54:00.
