data_PCOD8292030
_publ_section_title
;
Structure prediction by ZEFSAII (Michael W. Deem and Ramdas Pophale) SiO2 
 PCOD8292030
Probable space group: I M M M
;
_chemical_formula_sum "Si O2"
_cell_formula_units_Z 112
_cell_length_a 13.952297
_cell_length_b 17.381991
_cell_length_c 24.751801
_cell_angle_alpha 90.000000
_cell_angle_beta 90.000000
_cell_angle_gamma 90.000000
_cell_volume 6002.774623
_symmetry_space_group_name_H-M "I M M M"
_symmetry_group_IT_number 71
_symmetry_cell_setting 'orthorhombic'
loop_
_space_group_symop_operation_xyz
x,y,z
-x,-y,z
x,-y,-z
-x,y,-z
-x,-y,-z
x,y,-z
-x,y,z
x,-y,z
1/2+x,1/2+y,1/2+z
1/2-x,1/2-y,1/2+z
1/2+x,1/2-y,1/2-z
1/2-x,1/2+y,1/2-z
1/2-x,1/2-y,1/2-z
1/2+x,1/2+y,1/2-z
1/2-x,1/2+y,1/2+z
1/2+x,1/2-y,1/2+z
loop_
_atom_site_type_symbol
_atom_site_label
_atom_site_fract_x
_atom_site_fract_y
_atom_site_fract_z
Si Si1 0.387189 0.914784 0.236421
Si Si2 0.194678 0.641897 0.368540
Si Si3 0.114396 0.500000 0.563452
Si Si4 0.893704 0.591467 0.145566
Si Si5 0.109347 0.090732 0.883117
Si Si6 0.610424 0.727451 0.938034
Si Si7 0.896475 0.090116 0.000000
Si Si8 0.761667 0.912473 0.561311
O O1 0.500000 0.922116 0.239786
O O2 0.359422 0.856953 0.188678
O O3 0.352983 0.883677 0.295254
O O4 0.343690 0.000000 0.224273
O O5 0.157492 0.574181 0.407428
O O6 0.307059 0.632616 0.349683
O O7 0.175383 0.721487 0.398684
O O8 0.144429 0.500000 0.500000
O O9 0.000000 0.500000 0.569704
O O10 0.900271 0.500000 0.143873
O O11 0.822184 0.621242 0.099324
O O12 0.000000 0.626286 0.134865
O O13 0.151521 0.112323 0.943305
O O14 0.000000 0.121300 0.872964
O O15 0.109670 0.000000 0.872407
O O16 0.500000 0.733677 0.920537
O O17 0.643702 0.639221 0.931482
O O18 0.623584 0.755178 0.000000
O O19 0.000000 0.130440 0.000000
O O20 0.913082 0.000000 0.000000
O O21 0.723181 0.907983 0.500000
O O22 0.789549 0.000000 0.576816
#
# Coordination Sequence:
#
# PCOD8292030 Si02
#       8
#    16  16   8  16  16  16   8  16
#     4   9  16  28  47  74 107 143 182 213 244 296
#     4  12  20  30  49  70 101 147 186 219 260 301
#     4  11  22  30  41  67  99 135 185 233 260 289
#     4   8  15  29  53  84 112 134 161 207 259 311
#     4   9  17  28  42  62  88 126 182 232 261 292
#     4  10  22  37  51  73 107 139 170 220 278 319
#     4   7  12  22  36  52  74 106 155 218 261 285
#     4   9  18  35  59  82 101 128 167 210 266 340
#
# _framework density 18.658038999999999
#
# number of rings (size 3 to 8) (size 9 to 14) (size 15 to 20)
#    0.000    2.571    1.429    3.429    2.000    1.714 
#    0.000    4.286    0.000    1.714    0.000    2.000 
#    0.000    0.000    0.000    0.000    0.000    0.000 
#
# Total GULP energy -693741.113581 kJ/mol
# GULP energy per Si atom -12388.234171 kJ/mol
# Density = 1.861557 g / cm^3
# Si number density = 18.658039 Si / 1000 Ang^3
#
#
#
# Elastic Constant Matrix: (Units=GPa)
#
#
# Indices 1 2 3 4 5 6 
#
# 1 97.1586 29.7937 36.6679 0.0000 0.0000 0.0000
# 2 29.7937 58.1910 28.7299 0.0000 0.0000 0.0000
# 3 36.6679 28.7299 89.6202 0.0000 0.0000 0.0000
# 4 0.0000 0.0000 0.0000 14.4473 0.0000 0.0000
# 5 0.0000 0.0000 0.0000 0.0000 20.6636 0.0000
# 6 0.0000 0.0000 0.0000 0.0000 0.0000 20.0999
#
#
#
# Elastic Compliance Matrix: (Units=1/GPa)
#
#
# Indices 1 2 3 4 5 6 
#
# 1 0.013243 -0.004877 -0.003855 0.000000 0.000000 0.000000
# 2 -0.004877 0.022212 -0.005125 0.000000 0.000000 0.000000
# 3 -0.003855 -0.005125 0.014378 0.000000 0.000000 0.000000
# 4 0.000000 0.000000 0.000000 0.069217 0.000000 0.000000
# 5 0.000000 0.000000 0.000000 0.000000 0.048394 0.000000
# 6 0.000000 0.000000 0.000000 0.000000 0.000000 0.049752
#
#
# Mechanical properties :
#
#
# Convention : Reuss Voigt Hill
#
# Bulk Modulus (GPa) = 45.20954 48.37255 46.79105
# Shear Modulus (GPa) = 19.81893 21.02736 20.42315
#
# Velocity S-wave (km/s) = 3.26271 3.36070 3.31207
# Velocity P-wave (km/s) = 6.20297 6.40634 6.30548
#
# Compressibility (1/GPa) = 0.02211922
#
# Stress axis : x y z
#
# Youngs Moduli (GPa) = 75.51251 45.02011 69.54882
#
# Poissons Ratio (x) = 0.21957 0.26810
# Poissons Ratio (y) = 0.36829 0.35645
# Poissons Ratio (z) = 0.29109 0.23074
#
# Static dielectric constant tensor:
#      x y z
#    x 3.543550 0.000000 0.000000 
#    y 0.000000 3.043780 0.000000 
#    z 0.000000 0.000000 3.592390 
# 
# 
# High freq. dielectric constant tensor:
#      x y z
#    x 1.722140 0.000000 0.000000 
#    y 0.000000 1.681000 0.000000 
#    z 0.000000 0.000000 1.716000 
# 
# From -- ./inp_files/65564.got.cif
#   From: 2010.06.25/outbox.cif.g09.slc.cpg/sg71_33_cif.got.tgz:65564.got - 2010.06.28 04:59:45.
