data_PCOD8292751
_publ_section_title
;
Structure prediction by ZEFSAII (Michael W. Deem and Ramdas Pophale) SiO2 
 PCOD8292751
Probable space group: I M M M
;
_chemical_formula_sum "Si O2"
_cell_formula_units_Z 88
_cell_length_a 24.990214
_cell_length_b 15.401341
_cell_length_c 14.519913
_cell_angle_alpha 90.000000
_cell_angle_beta 90.000000
_cell_angle_gamma 90.000000
_cell_volume 5588.464880
_symmetry_space_group_name_H-M "I M M M"
_symmetry_group_IT_number 71
_symmetry_cell_setting 'orthorhombic'
loop_
_space_group_symop_operation_xyz
x,y,z
-x,-y,z
x,-y,-z
-x,y,-z
-x,-y,-z
x,y,-z
-x,y,z
x,-y,z
1/2+x,1/2+y,1/2+z
1/2-x,1/2-y,1/2+z
1/2+x,1/2-y,1/2-z
1/2-x,1/2+y,1/2-z
1/2-x,1/2-y,1/2-z
1/2+x,1/2+y,1/2-z
1/2-x,1/2+y,1/2+z
1/2+x,1/2-y,1/2+z
loop_
_atom_site_type_symbol
_atom_site_label
_atom_site_fract_x
_atom_site_fract_y
_atom_site_fract_z
Si Si1 0.440878 0.000000 0.390867
Si Si2 0.939627 0.150563 0.895084
Si Si3 0.117165 0.327749 0.105153
Si Si4 0.765123 0.599037 0.605566
Si Si5 0.689395 0.230226 0.233681
Si Si6 0.842557 0.904698 0.219279
O O1 0.409588 0.084728 0.357297
O O2 0.500000 0.000000 0.346548
O O3 0.445781 0.000000 0.500000
O O4 0.927083 0.252703 0.888191
O O5 0.898625 0.094788 0.834570
O O6 0.000000 0.135131 0.858830
O O7 0.934419 0.118528 0.000000
O O8 0.166749 0.308562 0.171442
O O9 0.138275 0.337396 0.000000
O O10 0.760462 0.627099 0.500000
O O11 0.784466 0.500000 0.616635
O O12 0.811469 0.659286 0.651833
O O13 0.706071 0.610959 0.648228
O O14 0.750000 0.250000 0.250000
O O15 0.659450 0.322566 0.209468
O O16 0.836844 0.000000 0.267508
#
# Coordination Sequence:
#
# PCOD8292751 Si02
#       6
#     8  16  16  16  16  16
#     4   9  16  26  42  64  91 125 155 177 213 270
#     4   9  16  25  38  58  86 118 150 180 207 243
#     4   9  17  28  42  62  91 123 151 181 217 262
#     4   9  17  29  46  65  85 111 145 184 223 262
#     4   9  18  29  43  63  83 117 150 188 222 260
#     4   9  17  29  42  59  85 117 148 176 214 259
#
# _framework density 15.746722
#
# number of rings (size 3 to 8) (size 9 to 14) (size 15 to 20)
#    0.000    3.000    0.000    1.091    1.273    8.000 
#    0.000    0.909    0.000    0.545    0.000    0.000 
#    0.000   18.909    0.000    6.545    0.000    4.364 
#
# Total GULP energy -545159.958861 kJ/mol
# GULP energy per Si atom -12389.999065 kJ/mol
# Density = 1.571088 g / cm^3
# Si number density = 15.746722 Si / 1000 Ang^3
#
#
#
# Elastic Constant Matrix: (Units=GPa)
#
#
# Indices 1 2 3 4 5 6 
#
# 1 84.3668 36.8389 28.2911 0.0000 0.0000 0.0000
# 2 36.8389 113.1360 29.9693 0.0000 0.0000 0.0000
# 3 28.2911 29.9693 42.8733 0.0000 0.0000 0.0000
# 4 0.0000 0.0000 0.0000 18.9972 0.0000 0.0000
# 5 0.0000 0.0000 0.0000 0.0000 23.2280 0.0000
# 6 0.0000 0.0000 0.0000 0.0000 0.0000 18.7915
#
#
#
# Elastic Compliance Matrix: (Units=1/GPa)
#
#
# Indices 1 2 3 4 5 6 
#
# 1 0.015990 -0.002960 -0.008482 0.000000 0.000000 0.000000
# 2 -0.002960 0.011395 -0.006013 0.000000 0.000000 0.000000
# 3 -0.008482 -0.006013 0.033125 0.000000 0.000000 0.000000
# 4 0.000000 0.000000 0.000000 0.052639 0.000000 0.000000
# 5 0.000000 0.000000 0.000000 0.000000 0.043051 0.000000
# 6 0.000000 0.000000 0.000000 0.000000 0.000000 0.053215
#
#
# Mechanical properties :
#
#
# Convention : Reuss Voigt Hill
#
# Bulk Modulus (GPa) = 39.06151 47.84163 43.45157
# Shear Modulus (GPa) = 19.77386 21.88847 20.83117
#
# Velocity S-wave (km/s) = 3.54749 3.73236 3.64110
# Velocity P-wave (km/s) = 6.45287 7.00157 6.73281
#
# Compressibility (1/GPa) = 0.02560065
#
# Stress axis : x y z
#
# Youngs Moduli (GPa) = 62.54008 87.75530 30.18878
#
# Poissons Ratio (x) = 0.25972 0.25608
# Poissons Ratio (y) = 0.18509 0.18151
# Poissons Ratio (z) = 0.53049 0.52764
#
# Static dielectric constant tensor:
#      x y z
#    x 2.891300 0.000000 0.000000 
#    y 0.000000 3.603580 0.000000 
#    z 0.000000 0.000000 2.847210 
# 
# 
# High freq. dielectric constant tensor:
#      x y z
#    x 1.592010 0.000000 0.000000 
#    y 0.000000 1.630060 0.000000 
#    z 0.000000 0.000000 1.546830 
# 
# From -- ./inp_files/34679.got.cif
#   From: 2010.06.25/outbox.cif.g09.slc.cpg/sg71_18_cif.got.tgz:34679.got - 2010.06.28 04:59:45.
