data_PCOD8292943
_publ_section_title
;
Structure prediction by ZEFSAII (Michael W. Deem and Ramdas Pophale) SiO2 
 PCOD8292943
Probable space group: I B A M
;
_chemical_formula_sum "Si O2"
_cell_formula_units_Z 96
_cell_length_a 29.017206
_cell_length_b 24.269997
_cell_length_c 9.083584
_cell_angle_alpha 90.000000
_cell_angle_beta 90.000000
_cell_angle_gamma 90.000000
_cell_volume 6397.091346
_symmetry_space_group_name_H-M "I B A M"
_symmetry_group_IT_number 72
_symmetry_cell_setting 'orthorhombic'
loop_
_space_group_symop_operation_xyz
x,y,z
-x,-y,z
x,-y,1/2-z
-x,y,1/2-z
-x,-y,-z
x,y,-z
-x,y,1/2+z
x,-y,1/2+z
1/2+x,1/2+y,1/2+z
1/2-x,1/2-y,1/2+z
1/2+x,1/2-y,-z
1/2-x,1/2+y,-z
1/2-x,1/2-y,1/2-z
1/2+x,1/2+y,1/2-z
1/2-x,1/2+y,z
1/2+x,1/2-y,z
loop_
_atom_site_type_symbol
_atom_site_label
_atom_site_fract_x
_atom_site_fract_y
_atom_site_fract_z
Si Si1 0.952181 0.943204 0.825008
Si Si2 0.720546 0.173771 0.826120
Si Si3 0.130003 0.138314 0.172363
Si Si4 0.214194 0.550826 0.339600
Si Si5 0.319045 0.725381 0.672351
Si Si6 0.178806 0.049975 0.337957
O O1 0.917533 0.892886 0.790244
O O2 0.000000 0.925626 0.750000
O O3 0.934657 0.000000 0.750000
O O4 0.957952 0.952107 0.000000
O O5 0.709022 0.111793 0.768630
O O6 0.686160 0.213719 0.739072
O O7 0.773359 0.189747 0.791721
O O8 0.711748 0.178503 0.000000
O O9 0.135875 0.197790 0.250351
O O10 0.172012 0.104089 0.241587
O O11 0.137390 0.145279 0.000000
O O12 0.191267 0.500000 0.250000
O O13 0.190542 0.550559 0.500000
O O14 0.267819 0.538061 0.358645
O O15 0.328519 0.729758 0.500000
O O16 0.155713 0.055781 0.500000
O O17 0.154657 0.000000 0.250000
#
# Coordination Sequence:
#
# PCOD8292943 Si02
#       6
#    16  16  16  16  16  16
#     4  10  21  35  50  66  84 109 140 175 222 270
#     4   9  17  31  43  57  82 109 138 174 213 253
#     4  11  21  31  44  63  82 105 136 172 214 260
#     4   9  17  28  40  56  78 103 134 170 207 246
#     4  10  19  30  44  61  80 107 140 174 212 255
#     4  10  18  28  39  56  78 102 132 168 210 251
#
# _framework density 15.006819999999999
#
# number of rings (size 3 to 8) (size 9 to 14) (size 15 to 20)
#    0.000    2.167    1.667    3.000    0.000    6.000 
#    0.000    0.000    0.000    0.000    0.000    0.000 
#    0.000    0.000    0.000    0.000    0.000    0.833 
#
# Total GULP energy -594793.318041 kJ/mol
# GULP energy per Si atom -12391.527459 kJ/mol
# Density = 1.497266 g / cm^3
# Si number density = 15.006820 Si / 1000 Ang^3
#
#
#
# Elastic Constant Matrix: (Units=GPa)
#
#
# Indices 1 2 3 4 5 6 
#
# 1 38.0954 31.3038 30.9518 0.0000 0.0000 0.0000
# 2 31.3038 132.4320 59.7765 0.0000 0.0000 0.0000
# 3 30.9518 59.7765 88.8439 0.0000 0.0000 0.0000
# 4 0.0000 0.0000 0.0000 28.5446 0.0000 0.0000
# 5 0.0000 0.0000 0.0000 0.0000 13.6674 0.0000
# 6 0.0000 0.0000 0.0000 0.0000 0.0000 19.1667
#
#
#
# Elastic Compliance Matrix: (Units=1/GPa)
#
#
# Indices 1 2 3 4 5 6 
#
# 1 0.038283 -0.004350 -0.010410 0.000000 0.000000 0.000000
# 2 -0.004350 0.011339 -0.006113 0.000000 0.000000 0.000000
# 3 -0.010410 -0.006113 0.018996 0.000000 0.000000 0.000000
# 4 0.000000 0.000000 0.000000 0.035033 0.000000 0.000000
# 5 0.000000 0.000000 0.000000 0.000000 0.073167 0.000000
# 6 0.000000 0.000000 0.000000 0.000000 0.000000 0.052174
#
#
# Mechanical properties :
#
#
# Convention : Reuss Voigt Hill
#
# Bulk Modulus (GPa) = 37.21698 55.93728 46.57713
# Shear Modulus (GPa) = 17.87665 21.43171 19.65418
#
# Velocity S-wave (km/s) = 3.45517 3.78316 3.62288
# Velocity P-wave (km/s) = 6.38526 7.51256 6.97173
#
# Compressibility (1/GPa) = 0.02686945
#
# Stress axis : x y z
#
# Youngs Moduli (GPa) = 26.12157 88.19258 52.64344
#
# Poissons Ratio (x) = 0.38366 0.54802
# Poissons Ratio (y) = 0.11364 0.32184
# Poissons Ratio (z) = 0.27193 0.53916
#
# Static dielectric constant tensor:
#      x y z
#    x 2.458840 0.000000 0.000000 
#    y 0.000000 3.144170 0.000000 
#    z 0.000000 0.000000 3.245830 
# 
# 
# High freq. dielectric constant tensor:
#      x y z
#    x 1.506160 0.000000 0.000000 
#    y 0.000000 1.573020 0.000000 
#    z 0.000000 0.000000 1.591470 
# 
# From -- ./inp_files/7108.got.cif
#   From: 2010.03.12/outbox.cif.g09.slc.cpg/sg72_4_cif.got.tgz:7108.got - 2010.04.16 14:54:00.
