data_PCOD8292001
_publ_section_title
;
Structure prediction by ZEFSAII (Michael W. Deem and Ramdas Pophale) SiO2 
 PCOD8292001
Probable space group: I M M M
;
_chemical_formula_sum "Si O2"
_cell_formula_units_Z 104
_cell_length_a 21.488622
_cell_length_b 26.642180
_cell_length_c 8.916306
_cell_angle_alpha 90.000000
_cell_angle_beta 90.000000
_cell_angle_gamma 90.000000
_cell_volume 5104.618490
_symmetry_space_group_name_H-M "I M M M"
_symmetry_group_IT_number 71
_symmetry_cell_setting 'orthorhombic'
loop_
_space_group_symop_operation_xyz
x,y,z
-x,-y,z
x,-y,-z
-x,y,-z
-x,-y,-z
x,y,-z
-x,y,z
x,-y,z
1/2+x,1/2+y,1/2+z
1/2-x,1/2-y,1/2+z
1/2+x,1/2-y,1/2-z
1/2-x,1/2+y,1/2-z
1/2-x,1/2-y,1/2-z
1/2+x,1/2+y,1/2-z
1/2-x,1/2+y,1/2+z
1/2+x,1/2-y,1/2+z
loop_
_atom_site_type_symbol
_atom_site_label
_atom_site_fract_x
_atom_site_fract_y
_atom_site_fract_z
Si Si1 0.394522 0.386349 0.677210
Si Si2 0.191853 0.278025 0.324004
Si Si3 0.571682 0.942508 0.670789
Si Si4 0.712927 0.557368 0.824340
Si Si5 0.429162 0.282773 0.825156
Si Si6 0.000000 0.941848 0.664989
Si Si7 0.177787 0.607564 0.324646
O O1 0.395304 0.386788 0.500000
O O2 0.326585 0.401275 0.734607
O O3 0.416859 0.332636 0.732034
O O4 0.439585 0.428441 0.741354
O O5 0.200242 0.271759 0.500000
O O6 0.250000 0.250000 0.250000
O O7 0.123939 0.256749 0.274663
O O8 0.193770 0.335856 0.275174
O O9 0.594049 0.934069 0.500000
O O10 0.500000 0.928404 0.686604
O O11 0.606836 0.905084 0.783697
O O12 0.583309 0.000000 0.718402
O O13 0.694992 0.500000 0.783621
O O14 0.782969 0.567930 0.772941
O O15 0.704590 0.566725 0.000000
O O16 0.500000 0.263335 0.790723
O O17 0.422476 0.295421 0.000000
O O18 0.000000 0.915285 0.500000
O O19 0.000000 0.000000 0.637702
O O20 0.189881 0.599671 0.500000
#
# Coordination Sequence:
#
# PCOD8292001 Si02
#       7
#    16  16  16  16  16   8  16
#     4  12  24  38  59  89 122 152 193 250 305 348
#     4  10  23  41  61  88 118 155 201 250 306 363
#     4   9  19  37  60  86 119 160 203 241 284 352
#     4  11  24  41  61  85 117 161 208 246 290 360
#     4  10  21  40  65  87 115 160 209 249 296 365
#     4  11  23  39  59  83 115 157 201 237 280 349
#     4  11  23  38  59  90 124 152 191 251 310 359
#
# _framework density 20.373707
#
# number of rings (size 3 to 8) (size 9 to 14) (size 15 to 20)
#    0.000    1.462    0.769    4.846    0.000   11.077 
#    0.000    2.308    0.000    0.000    0.000    0.000 
#    0.000    0.000    0.000    0.000    0.000    0.000 
#
# Total GULP energy -644865.386488 kJ/mol
# GULP energy per Si atom -12401.257432 kJ/mol
# Density = 2.032734 g / cm^3
# Si number density = 20.373707 Si / 1000 Ang^3
#
#
#
# Elastic Constant Matrix: (Units=GPa)
#
#
# Indices 1 2 3 4 5 6 
#
# 1 122.3648 44.0683 44.5244 0.0000 0.0000 0.0000
# 2 44.0683 79.9374 43.9780 0.0000 0.0000 0.0000
# 3 44.5244 43.9780 89.7978 0.0000 0.0000 0.0000
# 4 0.0000 0.0000 0.0000 23.8581 0.0000 0.0000
# 5 0.0000 0.0000 0.0000 0.0000 40.8562 0.0000
# 6 0.0000 0.0000 0.0000 0.0000 0.0000 42.7581
#
#
#
# Elastic Compliance Matrix: (Units=1/GPa)
#
#
# Indices 1 2 3 4 5 6 
#
# 1 0.010893 -0.004153 -0.003367 0.000000 0.000000 0.000000
# 2 -0.004153 0.018707 -0.007102 0.000000 0.000000 0.000000
# 3 -0.003367 -0.007102 0.016284 0.000000 0.000000 0.000000
# 4 0.000000 0.000000 0.000000 0.041915 0.000000 0.000000
# 5 0.000000 0.000000 0.000000 0.000000 0.024476 0.000000
# 6 0.000000 0.000000 0.000000 0.000000 0.000000 0.023387
#
#
# Mechanical properties :
#
#
# Convention : Reuss Voigt Hill
#
# Bulk Modulus (GPa) = 60.10017 61.91572 61.00794
# Shear Modulus (GPa) = 29.33361 32.12975 30.73168
#
# Velocity S-wave (km/s) = 3.79856 3.97548 3.88802
# Velocity P-wave (km/s) = 6.98582 7.17834 7.08273
#
# Compressibility (1/GPa) = 0.01663889
#
# Stress axis : x y z
#
# Youngs Moduli (GPa) = 91.80145 53.45731 61.40929
#
# Poissons Ratio (x) = 0.22199 0.20679
# Poissons Ratio (y) = 0.38121 0.43616
# Poissons Ratio (z) = 0.30913 0.37968
#
# Static dielectric constant tensor:
#      x y z
#    x 4.503080 0.000000 0.000000 
#    y 0.000000 3.686900 0.000000 
#    z 0.000000 0.000000 3.648810 
# 
# 
# High freq. dielectric constant tensor:
#      x y z
#    x 1.813330 0.000000 0.000000 
#    y 0.000000 1.792320 0.000000 
#    z 0.000000 0.000000 1.794200 
# 
# From -- ./inp_files/11069.got.cif
#   From: 2010.06.25/outbox.cif.g09.slc.cpg/sg71_6_cif.got.tgz:11069.got - 2010.06.28 04:59:45.
