data_PCOD8292715
_publ_section_title
;
Structure prediction by ZEFSAII (Michael W. Deem and Ramdas Pophale) SiO2 
 PCOD8292715
Probable space group: I M M M
;
_chemical_formula_sum "Si O2"
_cell_formula_units_Z 112
_cell_length_a 18.053375
_cell_length_b 24.040923
_cell_length_c 18.817247
_cell_angle_alpha 90.000000
_cell_angle_beta 90.000000
_cell_angle_gamma 90.000000
_cell_volume 8167.057747
_symmetry_space_group_name_H-M "I M M M"
_symmetry_group_IT_number 71
_symmetry_cell_setting 'orthorhombic'
loop_
_space_group_symop_operation_xyz
x,y,z
-x,-y,z
x,-y,-z
-x,y,-z
-x,-y,-z
x,y,-z
-x,y,z
x,-y,z
1/2+x,1/2+y,1/2+z
1/2-x,1/2-y,1/2+z
1/2+x,1/2-y,1/2-z
1/2-x,1/2+y,1/2-z
1/2-x,1/2-y,1/2-z
1/2+x,1/2+y,1/2-z
1/2-x,1/2+y,1/2+z
1/2+x,1/2-y,1/2+z
loop_
_atom_site_type_symbol
_atom_site_label
_atom_site_fract_x
_atom_site_fract_y
_atom_site_fract_z
Si Si1 0.663962 0.153180 0.172027
Si Si2 0.084341 0.235513 0.166897
Si Si3 0.587744 0.936756 0.749999
Si Si4 0.084341 0.764486 0.333102
Si Si5 0.336038 0.846820 0.672025
Si Si6 0.711670 0.309728 0.419527
Si Si7 0.788331 0.809728 0.580473
O O1 0.619244 0.094764 0.179518
O O2 0.607068 0.201244 0.147642
O O3 0.696448 0.169992 0.250001
O O4 0.732068 0.146556 0.117360
O O5 0.094101 0.223007 0.249999
O O6 0.107068 0.298755 0.147641
O O7 0.134252 0.192057 0.122609
O O8 0.000000 0.226897 0.142644
O O9 0.500000 0.933246 0.749999
O O10 0.619244 0.905236 0.679516
O O11 0.615944 0.000000 0.749999
O O12 0.134252 0.807943 0.377390
O O13 0.000000 0.773103 0.357354
O O14 0.267932 0.853444 0.617358
O O15 0.696946 0.328927 0.500000
O O16 0.750000 0.250000 0.415551
O O17 0.803056 0.828926 0.500000
#
# Coordination Sequence:
#
# PCOD8292715 Si02
#       7
#    16  16  16  16  16  16  16
#     4   8  15  25  40  56  76 105 135 164 195 231
#     4   9  15  23  37  56  81 109 135 161 189 228
#     4   9  16  26  43  64  79  95 130 177 208 226
#     4   9  15  23  37  56  81 109 135 161 189 228
#     4   8  15  25  40  56  76 105 135 164 195 231
#     4   9  16  25  36  54  80 108 136 160 188 230
#     4   9  16  25  36  54  80 108 136 160 188 230
#
# _framework density 13.713628999999999
#
# number of rings (size 3 to 8) (size 9 to 14) (size 15 to 20)
#    0.857    2.429    0.000    1.714    0.000    4.000 
#    0.000    0.000    0.000    3.429    0.000    2.000 
#    0.000    2.286    0.000    2.571    0.000    0.000 
#
# Total GULP energy -693854.708967 kJ/mol
# GULP energy per Si atom -12390.262660 kJ/mol
# Density = 1.368242 g / cm^3
# Si number density = 13.713629 Si / 1000 Ang^3
#
#
#
# Elastic Constant Matrix: (Units=GPa)
#
#
# Indices 1 2 3 4 5 6 
#
# 1 114.7447 36.1463 56.1502 0.0000 0.0000 0.0000
# 2 36.1463 53.3688 21.8032 -0.0002 0.0000 0.0000
# 3 56.1502 21.8032 68.6810 -0.0005 -0.0001 0.0000
# 4 0.0000 -0.0002 -0.0005 7.9831 0.0000 0.0000
# 5 0.0000 0.0000 -0.0001 0.0000 12.4360 0.0000
# 6 0.0000 0.0000 0.0000 0.0000 0.0000 17.1449
#
#
#
# Elastic Compliance Matrix: (Units=1/GPa)
#
#
# Indices 1 2 3 4 5 6 
#
# 1 0.016231 -0.006402 -0.011237 -0.000001 0.000000 0.000000
# 2 -0.006402 0.024055 -0.002402 0.000000 0.000000 0.000000
# 3 -0.011237 -0.002402 0.024509 0.000001 0.000000 0.000000
# 4 -0.000001 0.000000 0.000001 0.125264 0.000000 0.000000
# 5 0.000000 0.000000 0.000000 0.000000 0.080411 0.000000
# 6 0.000000 0.000000 0.000000 0.000000 0.000000 0.058326
#
#
# Mechanical properties :
#
#
# Convention : Reuss Voigt Hill
#
# Bulk Modulus (GPa) = 40.46568 51.66600 46.06584
# Shear Modulus (GPa) = 13.25847 15.69246 14.47546
#
# Velocity S-wave (km/s) = 3.11273 3.38641 3.25245
# Velocity P-wave (km/s) = 6.51847 7.28335 6.91150
#
# Compressibility (1/GPa) = 0.02471230
#
# Stress axis : x y z
#
# Youngs Moduli (GPa) = 61.61231 41.57113 40.80063
#
# Poissons Ratio (x) = 0.26614 0.45847
# Poissons Ratio (y) = 0.39445 0.09802
# Poissons Ratio (z) = 0.69233 0.09987
#
# Static dielectric constant tensor:
#      x y z
#    x 2.733170 0.000000 0.000000 
#    y 0.000000 2.335650 0.000000 
#    z 0.000000 0.000000 2.660210 
# 
# 
# High freq. dielectric constant tensor:
#      x y z
#    x 1.526950 0.000000 0.000000 
#    y 0.000000 1.465790 0.000000 
#    z 0.000000 0.000000 1.510800 
# 
# From -- ./inp_files/46594.got.cif
#   From: 2010.06.25/outbox.cif.g09.slc.cpg/sg71_24_cif.got.tgz:46594.got - 2010.06.28 04:59:45.
