data_PCOD8292995
_publ_section_title
;
Structure prediction by ZEFSAII (Michael W. Deem and Ramdas Pophale) SiO2 
 PCOD8292995
Probable space group: I B A M
;
_chemical_formula_sum "Si O2"
_cell_formula_units_Z 84
_cell_length_a 18.806192
_cell_length_b 12.545599
_cell_length_c 20.694854
_cell_angle_alpha 90.000000
_cell_angle_beta 90.000000
_cell_angle_gamma 90.000000
_cell_volume 4882.639210
_symmetry_space_group_name_H-M "I B A M"
_symmetry_group_IT_number 72
_symmetry_cell_setting 'orthorhombic'
loop_
_space_group_symop_operation_xyz
x,y,z
-x,-y,z
x,-y,1/2-z
-x,y,1/2-z
-x,-y,-z
x,y,-z
-x,y,1/2+z
x,-y,1/2+z
1/2+x,1/2+y,1/2+z
1/2-x,1/2-y,1/2+z
1/2+x,1/2-y,-z
1/2-x,1/2+y,-z
1/2-x,1/2-y,1/2-z
1/2+x,1/2+y,1/2-z
1/2-x,1/2+y,z
1/2+x,1/2-y,z
loop_
_atom_site_type_symbol
_atom_site_label
_atom_site_fract_x
_atom_site_fract_y
_atom_site_fract_z
Si Si1 0.932550 0.939442 0.873412
Si Si2 0.160007 0.540218 0.576742
Si Si3 0.317700 0.595610 0.423395
Si Si4 0.389233 0.813408 0.423283
Si Si5 0.500000 0.500000 0.750000
Si Si6 0.451596 0.211021 0.423469
O O1 0.919883 0.824151 0.903101
O O2 0.949140 0.928476 0.796381
O O3 0.862024 0.006789 0.885770
O O4 0.000000 0.000000 0.907190
O O5 0.155922 0.538982 0.500000
O O6 0.236600 0.582262 0.599132
O O7 0.146471 0.421257 0.604060
O O8 0.099475 0.618887 0.604690
O O9 0.327424 0.579448 0.500000
O O10 0.343118 0.712344 0.400618
O O11 0.392137 0.817545 0.500000
O O12 0.469120 0.803797 0.395218
O O13 0.453015 0.204579 0.500000
#
# Coordination Sequence:
#
# PCOD8292995 Si02
#       6
#    16  16  16  16   4  16
#     4  10  19  33  51  72  92 126 164 210 250 288
#     4   9  19  29  42  70 109 140 157 186 240 303
#     4  10  19  29  46  75 105 131 159 198 247 295
#     4   9  16  28  42  63 101 138 163 188 227 290
#     4   8  20  36  50  72  90 124 170 214 260 286
#     4  10  18  29  49  75 100 128 165 199 243 299
#
# _framework density 17.203810000000001
#
# number of rings (size 3 to 8) (size 9 to 14) (size 15 to 20)
#    0.571    1.905    1.905    1.143    2.667    3.048 
#    0.000    0.000    0.000    1.143    0.000    5.333 
#    0.000    0.000    0.000    0.000    0.000    0.000 
#
# Total GULP energy -520621.823360 kJ/mol
# GULP energy per Si atom -12395.757699 kJ/mol
# Density = 1.716465 g / cm^3
# Si number density = 17.203810 Si / 1000 Ang^3
#
#
#
# Elastic Constant Matrix: (Units=GPa)
#
#
# Indices 1 2 3 4 5 6 
#
# 1 148.6713 89.4057 19.0241 0.0000 0.0000 0.0000
# 2 89.4057 166.2972 10.5995 0.0000 0.0000 0.0000
# 3 19.0241 10.5995 18.7012 0.0000 0.0000 0.0000
# 4 0.0000 0.0000 0.0000 3.7033 0.0000 0.0000
# 5 0.0000 0.0000 0.0000 0.0000 12.4652 0.0000
# 6 0.0000 0.0000 0.0000 0.0000 0.0000 33.3243
#
#
#
# Elastic Compliance Matrix: (Units=1/GPa)
#
#
# Indices 1 2 3 4 5 6 
#
# 1 0.011019 -0.005405 -0.008146 0.000000 0.000000 0.000000
# 2 -0.005405 0.008890 0.000460 0.000000 0.000000 0.000000
# 3 -0.008146 0.000460 0.061498 0.000000 0.000000 0.000000
# 4 0.000000 0.000000 0.000000 0.270033 0.000000 0.000000
# 5 0.000000 0.000000 0.000000 0.000000 0.080223 0.000000
# 6 0.000000 0.000000 0.000000 0.000000 0.000000 0.030008
#
#
# Mechanical properties :
#
#
# Convention : Reuss Voigt Hill
#
# Bulk Modulus (GPa) = 18.10770 63.52537 40.81653
# Shear Modulus (GPa) = 9.87631 24.20791 17.04211
#
# Velocity S-wave (km/s) = 2.39859 3.75524 3.15080
# Velocity P-wave (km/s) = 4.26840 7.47046 6.08387
#
# Compressibility (1/GPa) = 0.05522513
#
# Stress axis : x y z
#
# Youngs Moduli (GPa) = 90.75350 112.48822 16.26056
#
# Poissons Ratio (x) = 0.60798 0.13245
# Poissons Ratio (y) = 0.49051 -0.00747
# Poissons Ratio (z) = 0.73926 -0.05169
#
# Static dielectric constant tensor:
#      x y z
#    x 3.372730 0.000000 0.000000 
#    y 0.000000 3.359280 0.000000 
#    z 0.000000 0.000000 2.571520 
# 
# 
# High freq. dielectric constant tensor:
#      x y z
#    x 1.673790 0.000000 0.000000 
#    y 0.000000 1.676090 0.000000 
#    z 0.000000 0.000000 1.587080 
# 
# From -- ./inp_files/38832.got.cif
#   From: 2010.03.12/outbox.cif.g09.slc.cpg/sg72_20_cif.got.tgz:38832.got - 2010.04.16 14:54:00.
