data_PCOD8292014
_publ_section_title
;
Structure prediction by ZEFSAII (Michael W. Deem and Ramdas Pophale) SiO2 
 PCOD8292014
Probable space group: I M M M
;
_chemical_formula_sum "Si O2"
_cell_formula_units_Z 104
_cell_length_a 21.955060
_cell_length_b 27.052978
_cell_length_c 8.775756
_cell_angle_alpha 90.000000
_cell_angle_beta 90.000000
_cell_angle_gamma 90.000000
_cell_volume 5212.358128
_symmetry_space_group_name_H-M "I M M M"
_symmetry_group_IT_number 71
_symmetry_cell_setting 'orthorhombic'
loop_
_space_group_symop_operation_xyz
x,y,z
-x,-y,z
x,-y,-z
-x,y,-z
-x,-y,-z
x,y,-z
-x,y,z
x,-y,z
1/2+x,1/2+y,1/2+z
1/2-x,1/2-y,1/2+z
1/2+x,1/2-y,1/2-z
1/2-x,1/2+y,1/2-z
1/2-x,1/2-y,1/2-z
1/2+x,1/2+y,1/2-z
1/2-x,1/2+y,1/2+z
1/2+x,1/2-y,1/2+z
loop_
_atom_site_type_symbol
_atom_site_label
_atom_site_fract_x
_atom_site_fract_y
_atom_site_fract_z
Si Si1 0.428811 0.500000 0.319399
Si Si2 0.000000 0.792569 0.181411
Si Si3 0.500000 0.816335 0.179076
Si Si4 0.310857 0.231073 0.678067
Si Si5 0.298571 0.943600 0.674147
Si Si6 0.628850 0.860093 0.178529
Si Si7 0.837476 0.923595 0.677087
Si Si8 0.618520 0.316235 0.176828
O O1 0.500000 0.500000 0.262011
O O2 0.428223 0.500000 0.500000
O O3 0.392176 0.451654 0.262554
O O4 0.000000 0.735135 0.230802
O O5 0.947504 0.825463 0.256406
O O6 0.000000 0.795668 0.000000
O O7 0.558940 0.848889 0.225783
O O8 0.500000 0.803895 0.000000
O O9 0.302587 0.227033 0.500000
O O10 0.250000 0.250000 0.750000
O O11 0.325633 0.177303 0.740156
O O12 0.362095 0.269721 0.722348
O O13 0.299434 0.924757 0.500000
O O14 0.349279 0.914147 0.769946
O O15 0.229437 0.938493 0.738877
O O16 0.319201 0.000000 0.686894
O O17 0.636960 0.854515 0.000000
O O18 0.843798 0.937647 0.500000
O O19 0.841628 0.864897 0.703880
O O20 0.618048 0.300734 0.000000
#
# Coordination Sequence:
#
# PCOD8292014 Si02
#       8
#     8   8   8  16  16  16  16  16
#     4  11  25  41  59  89 125 160 203 264 321 369
#     4  12  24  38  60  88 124 170 210 253 309 377
#     4  10  22  42  65  89 127 172 214 260 318 387
#     4  12  24  39  60  90 125 162 205 251 309 376
#     4  10  21  41  67  94 125 162 210 269 326 382
#     4  11  23  40  65  94 126 167 212 263 324 388
#     4  10  22  42  66  89 118 165 213 255 312 379
#     4  11  23  39  61  90 123 160 204 254 304 364
#
# _framework density 19.952582
#
# number of rings (size 3 to 8) (size 9 to 14) (size 15 to 20)
#    0.000    1.154    2.308    4.154    1.077    4.615 
#    0.000    0.385    0.000    2.308    0.000    0.000 
#    0.000    0.000    0.000    0.000    0.000    0.000 
#
# Total GULP energy -644815.601810 kJ/mol
# GULP energy per Si atom -12400.300035 kJ/mol
# Density = 1.990717 g / cm^3
# Si number density = 19.952582 Si / 1000 Ang^3
#
#
#
# Elastic Constant Matrix: (Units=GPa)
#
#
# Indices 1 2 3 4 5 6 
#
# 1 103.9310 30.3738 45.9958 0.0000 0.0000 0.0000
# 2 30.3738 91.4023 41.9032 0.0000 0.0000 0.0000
# 3 45.9958 41.9032 95.6275 0.0000 0.0000 0.0000
# 4 0.0000 0.0000 0.0000 34.6160 0.0000 0.0000
# 5 0.0000 0.0000 0.0000 0.0000 33.8510 0.0000
# 6 0.0000 0.0000 0.0000 0.0000 0.0000 39.2863
#
#
#
# Elastic Compliance Matrix: (Units=1/GPa)
#
#
# Indices 1 2 3 4 5 6 
#
# 1 0.012441 -0.001741 -0.005221 0.000000 0.000000 0.000000
# 2 -0.001741 0.013935 -0.005269 0.000000 0.000000 0.000000
# 3 -0.005221 -0.005269 0.015277 0.000000 0.000000 0.000000
# 4 0.000000 0.000000 0.000000 0.028888 0.000000 0.000000
# 5 0.000000 0.000000 0.000000 0.000000 0.029541 0.000000
# 6 0.000000 0.000000 0.000000 0.000000 0.000000 0.025454
#
#
# Mechanical properties :
#
#
# Convention : Reuss Voigt Hill
#
# Bulk Modulus (GPa) = 58.16782 58.61181 58.38981
# Shear Modulus (GPa) = 32.10705 33.06320 32.58513
#
# Velocity S-wave (km/s) = 4.01580 4.07515 4.04558
# Velocity P-wave (km/s) = 7.12169 7.18205 7.15193
#
# Compressibility (1/GPa) = 0.01719164
#
# Stress axis : x y z
#
# Youngs Moduli (GPa) = 80.37786 71.76418 65.45611
#
# Poissons Ratio (x) = 0.12491 0.34177
# Poissons Ratio (y) = 0.13991 0.34487
# Poissons Ratio (z) = 0.41968 0.37811
#
# Static dielectric constant tensor:
#      x y z
#    x 3.675740 0.000000 0.000000 
#    y 0.000000 3.412190 0.000000 
#    z 0.000000 0.000000 3.455760 
# 
# 
# High freq. dielectric constant tensor:
#      x y z
#    x 1.788570 0.000000 0.000000 
#    y 0.000000 1.779970 0.000000 
#    z 0.000000 0.000000 1.777610 
# 
# From -- ./inp_files/11232.got.cif
#   From: 2010.06.25/outbox.cif.g09.slc.cpg/sg71_6_cif.got.tgz:11232.got - 2010.06.28 04:59:45.
