data_PCOD8292972
_publ_section_title
;
Structure prediction by ZEFSAII (Michael W. Deem and Ramdas Pophale) SiO2 
 PCOD8292972
Probable space group: I B A M
;
_chemical_formula_sum "Si O2"
_cell_formula_units_Z 80
_cell_length_a 12.317822
_cell_length_b 23.026866
_cell_length_c 14.687852
_cell_angle_alpha 90.000000
_cell_angle_beta 90.000000
_cell_angle_gamma 90.000000
_cell_volume 4166.074629
_symmetry_space_group_name_H-M "I B A M"
_symmetry_group_IT_number 72
_symmetry_cell_setting 'orthorhombic'
loop_
_space_group_symop_operation_xyz
x,y,z
-x,-y,z
x,-y,1/2-z
-x,y,1/2-z
-x,-y,-z
x,y,-z
-x,y,1/2+z
x,-y,1/2+z
1/2+x,1/2+y,1/2+z
1/2-x,1/2-y,1/2+z
1/2+x,1/2-y,-z
1/2-x,1/2+y,-z
1/2-x,1/2-y,1/2-z
1/2+x,1/2+y,1/2-z
1/2-x,1/2+y,z
1/2+x,1/2-y,z
loop_
_atom_site_type_symbol
_atom_site_label
_atom_site_fract_x
_atom_site_fract_y
_atom_site_fract_z
Si Si1 0.778888 0.265933 0.892844
Si Si2 0.078334 0.453270 0.098857
Si Si3 0.572425 0.866308 0.837286
Si Si4 0.245720 0.065175 0.261064
Si Si5 0.626956 0.319989 0.252527
O O1 0.879592 0.309410 0.883422
O O2 0.674940 0.293354 0.841208
O O3 0.813489 0.207018 0.841158
O O4 0.752922 0.254526 0.000000
O O5 0.191857 0.438370 0.143903
O O6 0.000000 0.500000 0.151530
O O7 0.008326 0.394504 0.090086
O O8 0.106775 0.478402 0.000000
O O9 0.500000 0.848585 0.750000
O O10 0.667018 0.913160 0.813816
O O11 0.146923 0.110817 0.261100
O O12 0.198673 0.000000 0.250000
O O13 0.500000 0.307270 0.250000
#
# Coordination Sequence:
#
# PCOD8292972 Si02
#       5
#    16  16  16  16  16
#     4  10  21  39  62  85 112 149 193 241 292 346
#     4  10  18  28  49  83 116 145 184 232 287 344
#     4   9  17  30  54  83 117 149 184 231 290 344
#     4  10  19  34  53  77 111 152 189 230 282 337
#     4  10  23  41  59  85 116 150 195 243 288 348
#
# _framework density 19.202728
#
# number of rings (size 3 to 8) (size 9 to 14) (size 15 to 20)
#    0.000    2.200    2.000    1.200    0.000    3.600 
#    0.000    0.000    0.000    0.000    0.000    5.600 
#    0.000    0.000    0.000    0.000    0.000    0.000 
#
# Total GULP energy -495562.616147 kJ/mol
# GULP energy per Si atom -12389.065404 kJ/mol
# Density = 1.915902 g / cm^3
# Si number density = 19.202728 Si / 1000 Ang^3
#
#
#
# Elastic Constant Matrix: (Units=GPa)
#
#
# Indices 1 2 3 4 5 6 
#
# 1 91.9907 33.0885 30.5191 0.0000 0.0000 0.0000
# 2 33.0885 112.0622 31.3469 0.0002 0.0000 0.0000
# 3 30.5191 31.3469 114.3818 0.0003 0.0000 -0.0001
# 4 0.0000 0.0002 0.0003 18.7438 0.0000 0.0000
# 5 0.0000 0.0000 0.0000 0.0000 0.6981 0.0000
# 6 0.0000 0.0000 -0.0001 0.0000 0.0000 19.2884
#
#
#
# Elastic Compliance Matrix: (Units=1/GPa)
#
#
# Indices 1 2 3 4 5 6 
#
# 1 0.012830 -0.003066 -0.002583 0.000000 0.000000 0.000000
# 2 -0.003066 0.010397 -0.002031 0.000000 0.000000 0.000000
# 3 -0.002583 -0.002031 0.009989 0.000000 0.000000 0.000000
# 4 0.000000 0.000000 0.000000 0.053351 0.000002 0.000000
# 5 0.000000 0.000000 0.000000 0.000002 1.432428 0.000000
# 6 0.000000 0.000000 0.000000 0.000000 0.000000 0.051845
#
#
# Mechanical properties :
#
#
# Convention : Reuss Voigt Hill
#
# Bulk Modulus (GPa) = 56.00557 56.48263 56.24410
# Shear Modulus (GPa) = 3.14040 22.64476 12.89258
#
# Velocity S-wave (km/s) = 1.28021 3.43774 2.59394
# Velocity P-wave (km/s) = 5.60482 6.72571 6.19068
#
# Compressibility (1/GPa) = 0.01785537
#
# Stress axis : x y z
#
# Youngs Moduli (GPa) = 77.93969 96.18080 100.11425
#
# Poissons Ratio (x) = 0.29488 0.25861
# Poissons Ratio (y) = 0.23895 0.20337
# Poissons Ratio (z) = 0.20133 0.19538
#
# Static dielectric constant tensor:
#      x y z
#    x 3.263680 0.000000 0.000000 
#    y 0.000000 3.779650 0.000000 
#    z 0.000000 0.000000 3.340180 
# 
# 
# High freq. dielectric constant tensor:
#      x y z
#    x 1.721850 0.000000 0.000000 
#    y 0.000000 1.755470 0.000000 
#    z 0.000000 0.000000 1.731710 
# 
# From -- ./inp_files/20198.got.cif
#   From: 2010.03.12/outbox.cif.g09.slc.cpg/sg72_11_cif.got.tgz:20198.got - 2010.04.16 14:54:00.
