data_PCOD8292791
_publ_section_title
;
Structure prediction by ZEFSAII (Michael W. Deem and Ramdas Pophale) SiO2 
 PCOD8292791
Probable space group: I M M M
;
_chemical_formula_sum "Si O2"
_cell_formula_units_Z 40
_cell_length_a 18.000000
_cell_length_b 27.000000
_cell_length_c 9.000000
_cell_angle_alpha 90.000000
_cell_angle_beta 90.000000
_cell_angle_gamma 90.000000
_cell_volume 4374.000000
_symmetry_space_group_name_H-M "I M M M"
_symmetry_group_IT_number 71
_symmetry_cell_setting 'orthorhombic'
loop_
_space_group_symop_operation_xyz
x,y,z
-x,-y,z
x,-y,-z
-x,y,-z
-x,-y,-z
x,y,-z
-x,y,z
x,-y,z
1/2+x,1/2+y,1/2+z
1/2-x,1/2-y,1/2+z
1/2+x,1/2-y,1/2-z
1/2-x,1/2+y,1/2-z
1/2-x,1/2-y,1/2-z
1/2+x,1/2+y,1/2-z
1/2-x,1/2+y,1/2+z
1/2+x,1/2-y,1/2+z
loop_
_atom_site_type_symbol
_atom_site_label
_atom_site_fract_x
_atom_site_fract_y
_atom_site_fract_z
Si Si1 0.330309 0.400211 0.826571
Si Si2 0.416807 0.696358 0.176805
Si Si3 0.156861 0.400043 0.826883
Si Si4 0.911717 0.306233 0.668003
Si Si5 0.832089 0.000000 0.169591
Si Si6 0.344391 0.000000 0.830165
O O1 0.367634 0.349674 0.763016
O O2 0.243645 0.394694 0.793792
O O3 0.362562 0.449684 0.747021
O O4 0.347403 0.406646 0.000000
O O5 0.500000 0.688532 0.238798
O O6 0.386344 0.751107 0.226015
O O7 0.417467 0.695988 0.000000
O O8 0.119013 0.349802 0.770801
O O9 0.124952 0.449716 0.747302
O O10 0.139759 0.405997 0.000000
O O11 0.882860 0.314995 0.500000
O O12 0.000000 0.307792 0.671732
O O13 0.743812 0.000000 0.183166
O O14 0.859214 0.000000 0.000000
O O15 0.371717 0.000000 0.000000
#
# Coordination Sequence:
#
# PCOD8292791 Si02
#       6
#    16  16  16  16   8   8
#     4   9  17  30  49  72  96 123 157 196 235 275
#     4   8  15  30  51  71  92 123 163 200 230 267
#     4  10  19  30  47  73 101 124 150 191 240 284
#     4   9  18  33  51  69  92 125 162 196 230 273
#     4   9  17  29  46  69  96 126 157 190 234 283
#     4   9  17  31  50  69  92 125 161 193 228 275
#
# _framework density 9.1449470000000002
#
# number of rings (size 3 to 8) (size 9 to 14) (size 15 to 20)
#    0.000    3.000    0.000    2.400    0.000    4.400 
#    0.000    2.000    0.000    7.800    0.000    0.000 
#    0.000    0.000    0.000    0.000    0.000    0.000 
#
# Total GULP energy -495756.094683 kJ/mol
# GULP energy per Si atom -12393.902367 kJ/mol
# Density = 0.912413 g / cm^3
# Si number density = 9.144947 Si / 1000 Ang^3
#
#
#
# Elastic Constant Matrix: (Units=GPa)
#
#
# Indices 1 2 3 4 5 6 
#
# 1 27.8092 41.7681 22.4735 0.0000 0.0000 0.0000
# 2 41.7681 224.9496 66.7018 0.0000 0.0000 0.0000
# 3 22.4735 66.7018 77.1514 0.0000 0.0000 0.0000
# 4 0.0000 0.0000 0.0000 32.7158 0.0000 0.0000
# 5 0.0000 0.0000 0.0000 0.0000 15.2605 0.0000
# 6 0.0000 0.0000 0.0000 0.0000 0.0000 27.8281
#
#
#
# Elastic Compliance Matrix: (Units=1/GPa)
#
#
# Indices 1 2 3 4 5 6 
#
# 1 0.054705 -0.007305 -0.009619 0.000000 0.000000 0.000000
# 2 -0.007305 0.006953 -0.003884 0.000000 0.000000 0.000000
# 3 -0.009619 -0.003884 0.019121 0.000000 0.000000 0.000000
# 4 0.000000 0.000000 0.000000 0.030566 0.000000 0.000000
# 5 0.000000 0.000000 0.000000 0.000000 0.065529 0.000000
# 6 0.000000 0.000000 0.000000 0.000000 0.000000 0.035935
#
#
# Mechanical properties :
#
#
# Convention : Reuss Voigt Hill
#
# Bulk Modulus (GPa) = 25.53412 65.75522 45.64467
# Shear Modulus (GPa) = 18.69296 28.42534 23.55915
#
# Velocity S-wave (km/s) = 3.20040 3.94655 3.59290
# Velocity P-wave (km/s) = 5.25812 7.53636 6.49787
#
# Compressibility (1/GPa) = 0.03916328
#
# Stress axis : x y z
#
# Youngs Moduli (GPa) = 18.27986 143.81358 52.29794
#
# Poissons Ratio (x) = 1.05059 0.50307
# Poissons Ratio (y) = 0.13354 0.20311
# Poissons Ratio (z) = 0.17584 0.55853
#
# Static dielectric constant tensor:
#      x y z
#    x 3.087110 0.000000 0.000000 
#    y 0.000000 3.983890 0.000000 
#    z 0.000000 0.000000 3.215820 
# 
# 
# High freq. dielectric constant tensor:
#      x y z
#    x 1.671620 0.000000 0.000000 
#    y 0.000000 1.748100 0.000000 
#    z 0.000000 0.000000 1.690930 
# 
# From -- ./inp_files/8432.got.cif
#   From: 2010.06.25/outbox.ucp.g09.slc.cvg/sg71_5_cif.got.tgz:8432.got - 2010.06.28 16:23:14.
