data_PCOD8292505
_publ_section_title
;
Structure prediction by ZEFSAII (Michael W. Deem and Ramdas Pophale) SiO2 
 PCOD8292505
Probable space group: I M M M
;
_chemical_formula_sum "Si O2"
_cell_formula_units_Z 84
_cell_length_a 15.907560
_cell_length_b 11.438078
_cell_length_c 22.077315
_cell_angle_alpha 90.000000
_cell_angle_beta 90.000000
_cell_angle_gamma 90.000000
_cell_volume 4017.009678
_symmetry_space_group_name_H-M "I M M M"
_symmetry_group_IT_number 71
_symmetry_cell_setting 'orthorhombic'
loop_
_space_group_symop_operation_xyz
x,y,z
-x,-y,z
x,-y,-z
-x,y,-z
-x,-y,-z
x,y,-z
-x,y,z
x,-y,z
1/2+x,1/2+y,1/2+z
1/2-x,1/2-y,1/2+z
1/2+x,1/2-y,1/2-z
1/2-x,1/2+y,1/2-z
1/2-x,1/2-y,1/2-z
1/2+x,1/2+y,1/2-z
1/2-x,1/2+y,1/2+z
1/2+x,1/2-y,1/2+z
loop_
_atom_site_type_symbol
_atom_site_label
_atom_site_fract_x
_atom_site_fract_y
_atom_site_fract_z
Si Si1 0.500000 0.168785 0.500000
Si Si2 0.596060 0.500000 0.717975
Si Si3 0.354550 0.756248 0.702251
Si Si4 0.596710 0.500000 0.138777
Si Si5 0.287787 0.290013 0.114881
Si Si6 0.807362 0.370469 0.000000
Si Si7 0.097391 0.633975 0.326487
Si Si8 0.000000 0.638242 0.872918
O O1 0.592265 0.106842 0.500000
O O2 0.500000 0.224737 0.432819
O O3 0.500000 0.500000 0.697152
O O4 0.637940 0.383043 0.690457
O O5 0.604371 0.500000 0.789521
O O6 0.264337 0.798187 0.678066
O O7 0.370683 0.784063 0.772139
O O8 0.419525 0.834887 0.665900
O O9 0.500000 0.500000 0.117809
O O10 0.642838 0.610422 0.110570
O O11 0.223989 0.296546 0.058352
O O12 0.343433 0.170033 0.116496
O O13 0.766221 0.500000 0.000000
O O14 0.111393 0.500000 0.309200
O O15 0.000000 0.660387 0.341028
O O16 0.000000 0.500000 0.892349
#
# Coordination Sequence:
#
# PCOD8292505 Si02
#       8
#     4   8  16   8  16   8  16   8
#     4  12  25  44  70  91 142 181 214 266 331 380
#     4  11  22  40  61  94 140 181 217 259 337 406
#     4  12  24  38  66 101 136 176 220 273 329 401
#     4  11  24  43  66  93 134 176 213 269 348 407
#     4  12  26  41  66  96 135 168 225 276 329 398
#     4  12  25  44  67 102 127 172 223 276 324 389
#     4  11  24  43  67  98 134 172 215 272 341 398
#     4  12  23  39  65 100 137 178 220 271 328 392
#
# _framework density 20.911078
#
# number of rings (size 3 to 8) (size 9 to 14) (size 15 to 20)
#    0.000    0.381    6.667    2.571    4.000    0.000 
#    0.000    2.857    0.000    3.429    0.000    0.000 
#    0.000    0.000    0.000    0.000    0.000    0.000 
#
# Total GULP energy -520326.621820 kJ/mol
# GULP energy per Si atom -12388.729091 kJ/mol
# Density = 2.086348 g / cm^3
# Si number density = 20.911078 Si / 1000 Ang^3
#
#
#
# Elastic Constant Matrix: (Units=GPa)
#
#
# Indices 1 2 3 4 5 6 
#
# 1 153.3065 54.3540 41.7733 0.0000 0.0000 0.0000
# 2 54.3540 107.6545 27.4758 0.0000 0.0000 0.0000
# 3 41.7733 27.4758 64.7315 0.0000 0.0000 0.0000
# 4 0.0000 0.0000 0.0000 20.0247 0.0000 0.0000
# 5 0.0000 0.0000 0.0000 0.0000 28.8996 0.0000
# 6 0.0000 0.0000 0.0000 0.0000 0.0000 40.6033
#
#
#
# Elastic Compliance Matrix: (Units=1/GPa)
#
#
# Indices 1 2 3 4 5 6 
#
# 1 0.008899 -0.003395 -0.004302 0.000000 0.000000 0.000000
# 2 -0.003395 0.011713 -0.002781 0.000000 0.000000 0.000000
# 3 -0.004302 -0.002781 0.019405 0.000000 0.000000 0.000000
# 4 0.000000 0.000000 0.000000 0.049938 0.000000 0.000000
# 5 0.000000 0.000000 0.000000 0.000000 0.034603 0.000000
# 6 0.000000 0.000000 0.000000 0.000000 0.000000 0.024629
#
#
# Mechanical properties :
#
#
# Convention : Reuss Voigt Hill
#
# Bulk Modulus (GPa) = 52.46149 63.65541 58.05845
# Shear Modulus (GPa) = 28.32961 31.37815 29.85388
#
# Velocity S-wave (km/s) = 3.68471 3.87790 3.78254
# Velocity P-wave (km/s) = 6.57610 7.11041 6.84847
#
# Compressibility (1/GPa) = 0.01906160
#
# Stress axis : x y z
#
# Youngs Moduli (GPa) = 112.37643 85.37674 51.53412
#
# Poissons Ratio (x) = 0.28986 0.22168
# Poissons Ratio (y) = 0.38152 0.14330
# Poissons Ratio (z) = 0.48339 0.23740
#
# Static dielectric constant tensor:
#      x y z
#    x 4.373780 0.000000 0.000000 
#    y 0.000000 3.820290 0.000000 
#    z 0.000000 0.000000 3.674810 
# 
# 
# High freq. dielectric constant tensor:
#      x y z
#    x 1.849610 0.000000 0.000000 
#    y 0.000000 1.803240 0.000000 
#    z 0.000000 0.000000 1.793170 
# 
# From -- ./inp_files/59723.got.cif
#   From: 2010.06.25/outbox.cif.g09.slc.cpg/sg71_30_cif.got.tgz:59723.got - 2010.06.28 04:59:45.
