data_PCOD8292763
_publ_section_title
;
Structure prediction by ZEFSAII (Michael W. Deem and Ramdas Pophale) SiO2 
 PCOD8292763
Probable space group: I M M M
;
_chemical_formula_sum "Si O2"
_cell_formula_units_Z 104
_cell_length_a 28.909831
_cell_length_b 13.656870
_cell_length_c 15.009087
_cell_angle_alpha 90.000000
_cell_angle_beta 90.000000
_cell_angle_gamma 90.000000
_cell_volume 5925.854765
_symmetry_space_group_name_H-M "I M M M"
_symmetry_group_IT_number 71
_symmetry_cell_setting 'orthorhombic'
loop_
_space_group_symop_operation_xyz
x,y,z
-x,-y,z
x,-y,-z
-x,y,-z
-x,-y,-z
x,y,-z
-x,y,z
x,-y,z
1/2+x,1/2+y,1/2+z
1/2-x,1/2-y,1/2+z
1/2+x,1/2-y,1/2-z
1/2-x,1/2+y,1/2-z
1/2-x,1/2-y,1/2-z
1/2+x,1/2+y,1/2-z
1/2-x,1/2+y,1/2+z
1/2+x,1/2-y,1/2+z
loop_
_atom_site_type_symbol
_atom_site_label
_atom_site_fract_x
_atom_site_fract_y
_atom_site_fract_z
Si Si1 0.555196 0.889765 0.500000
Si Si2 0.126414 0.193749 0.401283
Si Si3 0.947560 0.109958 0.270616
Si Si4 0.553085 0.196414 0.678271
Si Si5 0.718552 0.111105 0.758949
Si Si6 0.731248 0.719830 0.892672
Si Si7 0.617531 0.108603 0.182268
O O1 0.500000 0.887234 0.500000
O O2 0.575779 0.832774 0.415332
O O3 0.574037 0.000000 0.500000
O O4 0.116136 0.158389 0.500000
O O5 0.091544 0.129246 0.343623
O O6 0.179986 0.175472 0.376600
O O7 0.117560 0.310646 0.395511
O O8 0.939285 0.187192 0.191263
O O9 0.000000 0.123699 0.309511
O O10 0.941426 0.000000 0.233196
O O11 0.500000 0.167003 0.678953
O O12 0.574372 0.130688 0.755369
O O13 0.736886 0.174653 0.843625
O O14 0.734816 0.147422 0.661102
O O15 0.663162 0.116936 0.757035
O O16 0.735857 0.000000 0.774072
O O17 0.742162 0.727240 0.000000
O O18 0.612930 0.000000 0.140014
#
# Coordination Sequence:
#
# PCOD8292763 Si02
#       7
#     8  16  16  16  16  16  16
#     4   9  16  26  43  67  91 115 148 188 225 265
#     4   9  18  31  48  70  92 119 156 193 231 275
#     4   9  18  32  48  66  91 123 156 191 232 273
#     4   9  17  30  47  67  92 122 156 191 226 270
#     4   9  18  32  49  71  98 126 157 194 238 285
#     4   9  18  33  51  71  96 125 158 197 238 282
#     4   9  17  30  47  68  95 124 152 185 231 282
#
# _framework density 17.550211000000001
#
# number of rings (size 3 to 8) (size 9 to 14) (size 15 to 20)
#    0.000    3.000    0.000    0.462    0.000    3.077 
#    1.385    5.769    0.000    2.308    0.000    4.308 
#    0.000    0.000    0.000    0.000    0.000    0.000 
#
# Total GULP energy -644303.627590 kJ/mol
# GULP energy per Si atom -12390.454377 kJ/mol
# Density = 1.751027 g / cm^3
# Si number density = 17.550211 Si / 1000 Ang^3
#
#
#
# Elastic Constant Matrix: (Units=GPa)
#
#
# Indices 1 2 3 4 5 6 
#
# 1 44.8876 29.2947 26.3977 0.0000 0.0000 0.0000
# 2 29.2947 111.5902 31.9096 0.0000 0.0000 0.0000
# 3 26.3977 31.9096 90.2106 0.0000 0.0000 0.0000
# 4 0.0000 0.0000 0.0000 15.1043 0.0000 0.0000
# 5 0.0000 0.0000 0.0000 0.0000 18.4569 0.0000
# 6 0.0000 0.0000 0.0000 0.0000 0.0000 22.1352
#
#
#
# Elastic Compliance Matrix: (Units=1/GPa)
#
#
# Indices 1 2 3 4 5 6 
#
# 1 0.030128 -0.005994 -0.006696 0.000000 0.000000 0.000000
# 2 -0.005994 0.011163 -0.002194 0.000000 0.000000 0.000000
# 3 -0.006696 -0.002194 0.013821 0.000000 0.000000 0.000000
# 4 0.000000 0.000000 0.000000 0.066206 0.000000 0.000000
# 5 0.000000 0.000000 0.000000 0.000000 0.054180 0.000000
# 6 0.000000 0.000000 0.000000 0.000000 0.000000 0.045177
#
#
# Mechanical properties :
#
#
# Convention : Reuss Voigt Hill
#
# Bulk Modulus (GPa) = 39.46035 46.87695 43.16865
# Shear Modulus (GPa) = 19.31318 21.74503 20.52910
#
# Velocity S-wave (km/s) = 3.32091 3.52379 3.42385
# Velocity P-wave (km/s) = 6.10226 6.58212 6.34673
#
# Compressibility (1/GPa) = 0.02534190
#
# Stress axis : x y z
#
# Youngs Moduli (GPa) = 33.19211 89.58563 72.35542
#
# Poissons Ratio (x) = 0.53702 0.48447
# Poissons Ratio (y) = 0.19897 0.15877
# Poissons Ratio (z) = 0.22224 0.19658
#
# Static dielectric constant tensor:
#      x y z
#    x 3.230300 0.000000 0.000000 
#    y 0.000000 3.380590 0.000000 
#    z 0.000000 0.000000 3.233870 
# 
# 
# High freq. dielectric constant tensor:
#      x y z
#    x 1.669810 0.000000 0.000000 
#    y 0.000000 1.684250 0.000000 
#    z 0.000000 0.000000 1.659300 
# 
# From -- ./inp_files/41101.got.cif
#   From: 2010.06.25/outbox.cif.g09.slc.cpg/sg71_21_cif.got.tgz:41101.got - 2010.06.28 04:59:45.
