data_PCOD8292273
_publ_section_title
;
Structure prediction by ZEFSAII (Michael W. Deem and Ramdas Pophale) SiO2 
 PCOD8292273
Probable space group: I M M M
;
_chemical_formula_sum "Si O2"
_cell_formula_units_Z 72
_cell_length_a 9.011975
_cell_length_b 14.426949
_cell_length_c 33.815336
_cell_angle_alpha 90.000000
_cell_angle_beta 90.000000
_cell_angle_gamma 90.000000
_cell_volume 4396.511180
_symmetry_space_group_name_H-M "I M M M"
_symmetry_group_IT_number 71
_symmetry_cell_setting 'orthorhombic'
loop_
_space_group_symop_operation_xyz
x,y,z
-x,-y,z
x,-y,-z
-x,y,-z
-x,-y,-z
x,y,-z
-x,y,z
x,-y,z
1/2+x,1/2+y,1/2+z
1/2-x,1/2-y,1/2+z
1/2+x,1/2-y,1/2-z
1/2-x,1/2+y,1/2-z
1/2-x,1/2-y,1/2-z
1/2+x,1/2+y,1/2-z
1/2-x,1/2+y,1/2+z
1/2+x,1/2-y,1/2+z
loop_
_atom_site_type_symbol
_atom_site_label
_atom_site_fract_x
_atom_site_fract_y
_atom_site_fract_z
Si Si1 0.673572 0.106466 0.685024
Si Si2 0.172496 0.107241 0.000000
Si Si3 0.823787 0.602377 0.273655
Si Si4 0.675966 0.776422 0.845852
Si Si5 0.675348 0.391263 0.414324
O O1 0.500000 0.126932 0.680795
O O2 0.730141 0.129011 0.729594
O O3 0.762284 0.171729 0.654615
O O4 0.708587 0.000000 0.674245
O O5 0.232760 0.145311 0.042180
O O6 0.000000 0.126133 0.000000
O O7 0.207702 0.000000 0.000000
O O8 0.763496 0.500000 0.284634
O O9 0.762706 0.673753 0.306122
O O10 0.000000 0.600402 0.273846
O O11 0.500000 0.774986 0.847653
O O12 0.735103 0.831006 0.883379
O O13 0.500000 0.374771 0.409342
O O14 0.712112 0.500000 0.408579
#
# Coordination Sequence:
#
# PCOD8292273 Si02
#       5
#    16   8  16  16  16
#     4   9  18  33  49  61  79 115 161 200 228 257
#     4   7  12  26  47  67  88 117 150 181 211 246
#     4   8  15  28  44  62  87 119 151 183 221 263
#     4  11  20  28  43  68  96 121 145 181 228 273
#     4   9  17  30  48  69  93 121 152 182 212 254
#
# _framework density 16.376622000000001
#
# number of rings (size 3 to 8) (size 9 to 14) (size 15 to 20)
#    0.000    3.000    0.000    4.667    0.000    1.778 
#    0.000    1.667    0.000    4.667    0.000    0.778 
#    0.000    6.222    0.000    0.000    0.000    0.000 
#
# Total GULP energy -446044.620366 kJ/mol
# GULP energy per Si atom -12390.128344 kJ/mol
# Density = 1.633935 g / cm^3
# Si number density = 16.376622 Si / 1000 Ang^3
#
#
#
# Elastic Constant Matrix: (Units=GPa)
#
#
# Indices 1 2 3 4 5 6 
#
# 1 47.6680 42.6386 42.6382 0.0000 0.0000 0.0000
# 2 42.6386 96.7251 68.3385 0.0000 0.0000 0.0000
# 3 42.6382 68.3385 109.0394 0.0000 0.0000 0.0000
# 4 0.0000 0.0000 0.0000 19.8796 0.0000 0.0000
# 5 0.0000 0.0000 0.0000 0.0000 21.5999 0.0000
# 6 0.0000 0.0000 0.0000 0.0000 0.0000 19.7970
#
#
#
# Elastic Compliance Matrix: (Units=1/GPa)
#
#
# Indices 1 2 3 4 5 6 
#
# 1 0.038030 -0.011231 -0.007832 0.000000 0.000000 0.000000
# 2 -0.011231 0.021871 -0.009316 0.000000 0.000000 0.000000
# 3 -0.007832 -0.009316 0.018072 0.000000 0.000000 0.000000
# 4 0.000000 0.000000 0.000000 0.050303 0.000000 0.000000
# 5 0.000000 0.000000 0.000000 0.000000 0.046296 0.000000
# 6 0.000000 0.000000 0.000000 0.000000 0.000000 0.050513
#
#
# Mechanical properties :
#
#
# Convention : Reuss Voigt Hill
#
# Bulk Modulus (GPa) = 47.13494 62.29589 54.71542
# Shear Modulus (GPa) = 17.30612 18.90979 18.10795
#
# Velocity S-wave (km/s) = 3.25431 3.40175 3.32884
# Velocity P-wave (km/s) = 6.55477 7.31787 6.94681
#
# Compressibility (1/GPa) = 0.02121568
#
# Stress axis : x y z
#
# Youngs Moduli (GPa) = 26.29492 45.72242 55.33363
#
# Poissons Ratio (x) = 0.51350 0.43340
# Poissons Ratio (y) = 0.29531 0.51547
# Poissons Ratio (z) = 0.20595 0.42594
#
# Static dielectric constant tensor:
#      x y z
#    x 2.744030 0.000000 0.000000 
#    y 0.000000 3.003730 0.000000 
#    z 0.000000 0.000000 3.318350 
# 
# 
# High freq. dielectric constant tensor:
#      x y z
#    x 1.603740 0.000000 0.000000 
#    y 0.000000 1.614170 0.000000 
#    z 0.000000 0.000000 1.624050 
# 
# From -- ./inp_files/6479.got.cif
#   From: 2010.06.25/outbox.cif.g09.slc.cpg/sg71_4_cif.got.tgz:6479.got - 2010.06.28 04:59:45.
