data_PCOD8292847
_publ_section_title
;
Structure prediction by ZEFSAII (Michael W. Deem and Ramdas Pophale) SiO2 
 PCOD8292847
Probable space group: I B A M
;
_chemical_formula_sum "Si O2"
_cell_formula_units_Z 96
_cell_length_a 19.890507
_cell_length_b 30.578456
_cell_length_c 8.922101
_cell_angle_alpha 90.000000
_cell_angle_beta 90.000000
_cell_angle_gamma 90.000000
_cell_volume 5426.609131
_symmetry_space_group_name_H-M "I B A M"
_symmetry_group_IT_number 72
_symmetry_cell_setting 'orthorhombic'
loop_
_space_group_symop_operation_xyz
x,y,z
-x,-y,z
x,-y,1/2-z
-x,y,1/2-z
-x,-y,-z
x,y,-z
-x,y,1/2+z
x,-y,1/2+z
1/2+x,1/2+y,1/2+z
1/2-x,1/2-y,1/2+z
1/2+x,1/2-y,-z
1/2-x,1/2+y,-z
1/2-x,1/2-y,1/2-z
1/2+x,1/2+y,1/2-z
1/2-x,1/2+y,z
1/2+x,1/2-y,z
loop_
_atom_site_type_symbol
_atom_site_label
_atom_site_fract_x
_atom_site_fract_y
_atom_site_fract_z
Si Si1 0.931550 0.301083 0.324241
Si Si2 0.828640 0.637276 0.328819
Si Si3 0.679074 0.040650 0.325884
Si Si4 0.068203 0.202015 0.824086
Si Si5 0.173657 0.869754 0.675877
Si Si6 0.676289 0.542936 0.822415
O O1 0.941204 0.304067 0.500000
O O2 0.869364 0.330883 0.277854
O O3 0.916464 0.251524 0.271143
O O4 0.000000 0.318640 0.250000
O O5 0.837266 0.652743 0.500000
O O6 0.857339 0.587597 0.309821
O O7 0.750784 0.639743 0.280116
O O8 0.694722 0.030947 0.500000
O O9 0.747093 0.043354 0.231564
O O10 0.637294 0.000000 0.250000
O O11 0.130310 0.171991 0.773234
O O12 0.000000 0.184330 0.750000
O O13 0.057672 0.199860 0.000000
O O14 0.168208 0.879494 0.500000
O O15 0.143738 0.911995 0.762254
O O16 0.640304 0.500000 0.750000
O O17 0.670341 0.540688 0.000000
#
# Coordination Sequence:
#
# PCOD8292847 Si02
#       6
#    16  16  16  16  16  16
#     4  10  20  34  52  72  95 127 165 201 240 290
#     4   9  18  31  48  72 101 130 159 197 243 285
#     4   9  16  27  44  67  97 130 161 195 238 285
#     4   9  19  35  53  72  96 128 164 200 241 290
#     4   9  18  33  50  71 101 131 159 198 246 288
#     4  10  17  26  43  68  97 128 162 197 236 283
#
# _framework density 17.690605999999999
#
# number of rings (size 3 to 8) (size 9 to 14) (size 15 to 20)
#    0.000    2.667    0.000    4.500    0.000    5.333 
#    0.000    0.000    0.000    1.000    0.000    7.000 
#    0.000    0.000    0.000    0.000    0.000    0.000 
#
# Total GULP energy -594938.842048 kJ/mol
# GULP energy per Si atom -12394.559209 kJ/mol
# Density = 1.765034 g / cm^3
# Si number density = 17.690606 Si / 1000 Ang^3
#
#
#
# Elastic Constant Matrix: (Units=GPa)
#
#
# Indices 1 2 3 4 5 6 
#
# 1 68.9868 60.0121 33.6414 0.0000 0.0000 0.0000
# 2 60.0121 127.3933 53.9962 0.0000 0.0000 0.0000
# 3 33.6414 53.9962 84.3632 -0.0001 0.0000 0.0001
# 4 0.0000 0.0000 -0.0001 32.2582 0.0000 0.0000
# 5 0.0000 0.0000 0.0000 0.0000 22.7210 0.0000
# 6 0.0000 0.0000 0.0001 0.0000 0.0000 3.3620
#
#
#
# Elastic Compliance Matrix: (Units=1/GPa)
#
#
# Indices 1 2 3 4 5 6 
#
# 1 0.025239 -0.010462 -0.003369 0.000000 0.000000 0.000000
# 2 -0.010462 0.015108 -0.005498 0.000000 0.000000 0.000000
# 3 -0.003369 -0.005498 0.016716 0.000000 0.000000 0.000000
# 4 0.000000 0.000000 0.000000 0.031000 0.000000 0.000000
# 5 0.000000 0.000000 0.000000 0.000000 0.044012 0.000000
# 6 0.000000 0.000000 0.000000 0.000000 0.000000 0.297438
#
#
# Mechanical properties :
#
#
# Convention : Reuss Voigt Hill
#
# Bulk Modulus (GPa) = 54.32939 64.00476 59.16708
# Shear Modulus (GPa) = 10.54172 20.54115 15.54144
#
# Velocity S-wave (km/s) = 2.44374 3.41124 2.96719
# Velocity P-wave (km/s) = 6.22415 7.19542 6.72733
#
# Compressibility (1/GPa) = 0.01840624
#
# Stress axis : x y z
#
# Youngs Moduli (GPa) = 39.62134 66.18809 59.82316
#
# Poissons Ratio (x) = 0.69244 0.20152
# Poissons Ratio (y) = 0.41451 0.32892
# Poissons Ratio (z) = 0.13347 0.36392
#
# Static dielectric constant tensor:
#      x y z
#    x 2.910160 0.000000 0.000000 
#    y 0.000000 4.030040 0.000000 
#    z 0.000000 0.000000 3.293760 
# 
# 
# High freq. dielectric constant tensor:
#      x y z
#    x 1.632130 0.000000 0.000000 
#    y 0.000000 1.702840 0.000000 
#    z 0.000000 0.000000 1.689470 
# 
# From -- ./inp_files/6039.got.cif
#   From: 2010.03.12/outbox.cif.g09.slc.cpg/sg72_4_cif.got.tgz:6039.got - 2010.04.16 14:54:00.
