data_PCOD8292727
_publ_section_title
;
Structure prediction by ZEFSAII (Michael W. Deem and Ramdas Pophale) SiO2 
 PCOD8292727
Probable space group: I M M M
;
_chemical_formula_sum "Si O2"
_cell_formula_units_Z 72
_cell_length_a 17.762118
_cell_length_b 14.713272
_cell_length_c 19.155980
_cell_angle_alpha 90.000000
_cell_angle_beta 90.000000
_cell_angle_gamma 90.000000
_cell_volume 5006.202233
_symmetry_space_group_name_H-M "I M M M"
_symmetry_group_IT_number 71
_symmetry_cell_setting 'orthorhombic'
loop_
_space_group_symop_operation_xyz
x,y,z
-x,-y,z
x,-y,-z
-x,y,-z
-x,-y,-z
x,y,-z
-x,y,z
x,-y,z
1/2+x,1/2+y,1/2+z
1/2-x,1/2-y,1/2+z
1/2+x,1/2-y,1/2-z
1/2-x,1/2+y,1/2-z
1/2-x,1/2-y,1/2-z
1/2+x,1/2+y,1/2-z
1/2-x,1/2+y,1/2+z
1/2+x,1/2-y,1/2+z
loop_
_atom_site_type_symbol
_atom_site_label
_atom_site_fract_x
_atom_site_fract_y
_atom_site_fract_z
Si Si1 0.000000 0.891401 0.421203
Si Si2 0.586132 0.751348 0.420184
Si Si3 0.289652 0.104467 0.580765
Si Si4 0.912267 0.896507 0.191880
Si Si5 0.356490 0.392404 0.160106
O O1 0.073805 0.851153 0.383284
O O2 0.000000 0.855446 0.500000
O O3 0.000000 0.000000 0.418302
O O4 0.598266 0.720886 0.500000
O O5 0.500000 0.779654 0.406132
O O6 0.636053 0.838520 0.401175
O O7 0.610294 0.666028 0.373155
O O8 0.266041 0.114676 0.500000
O O9 0.221700 0.143665 0.627944
O O10 0.307875 0.000000 0.598906
O O11 0.863909 0.864429 0.258838
O O12 0.000000 0.887919 0.211628
O O13 0.892784 0.000000 0.171218
O O14 0.359205 0.500000 0.152219
#
# Coordination Sequence:
#
# PCOD8292727 Si02
#       5
#     8  16  16  16  16
#     4   9  14  20  34  56  81 107 130 151 181 229
#     4   9  18  30  42  57  76 102 138 171 199 231
#     4   9  17  28  41  58  81 106 132 163 194 228
#     4   9  16  27  42  59  81 105 129 161 197 234
#     4   9  15  24  38  58  81 105 130 154 189 236
#
# _framework density 14.382159
#
# number of rings (size 3 to 8) (size 9 to 14) (size 15 to 20)
#    0.000    3.000    1.111    0.667    0.000    4.444 
#    0.000    4.444    0.000    0.000    0.000    0.000 
#    0.000    0.000    0.000    0.000    0.000   11.778 
#
# Total GULP energy -446316.760601 kJ/mol
# GULP energy per Si atom -12397.687794 kJ/mol
# Density = 1.434942 g / cm^3
# Si number density = 14.382159 Si / 1000 Ang^3
#
#
#
# Elastic Constant Matrix: (Units=GPa)
#
#
# Indices 1 2 3 4 5 6 
#
# 1 91.0194 44.1351 62.5411 0.0000 0.0000 0.0000
# 2 44.1351 57.4892 48.3092 0.0000 0.0000 0.0000
# 3 62.5411 48.3092 95.2297 0.0000 0.0000 0.0000
# 4 0.0000 0.0000 0.0000 15.5005 0.0000 0.0000
# 5 0.0000 0.0000 0.0000 0.0000 21.9774 0.0000
# 6 0.0000 0.0000 0.0000 0.0000 0.0000 13.5379
#
#
#
# Elastic Compliance Matrix: (Units=1/GPa)
#
#
# Indices 1 2 3 4 5 6 
#
# 1 0.022086 -0.008309 -0.010290 0.000000 0.000000 0.000000
# 2 -0.008309 0.033445 -0.011510 0.000000 0.000000 0.000000
# 3 -0.010290 -0.011510 0.023097 0.000000 0.000000 0.000000
# 4 0.000000 0.000000 0.000000 0.064514 0.000000 0.000000
# 5 0.000000 0.000000 0.000000 0.000000 0.045501 0.000000
# 6 0.000000 0.000000 0.000000 0.000000 0.000000 0.073867
#
#
# Mechanical properties :
#
#
# Convention : Reuss Voigt Hill
#
# Bulk Modulus (GPa) = 54.31269 61.52322 57.91796
# Shear Modulus (GPa) = 15.20384 16.12001 15.66192
#
# Velocity S-wave (km/s) = 3.25488 3.35152 3.30355
# Velocity P-wave (km/s) = 7.20913 7.60574 7.41009
#
# Compressibility (1/GPa) = 0.01841190
#
# Stress axis : x y z
#
# Youngs Moduli (GPa) = 45.27786 29.89963 43.29529
#
# Poissons Ratio (x) = 0.24844 0.44549
# Poissons Ratio (y) = 0.37622 0.49831
# Poissons Ratio (z) = 0.46589 0.34413
#
# Static dielectric constant tensor:
#      x y z
#    x 2.872380 0.000000 0.000000 
#    y 0.000000 2.495690 0.000000 
#    z 0.000000 0.000000 2.888080 
# 
# 
# High freq. dielectric constant tensor:
#      x y z
#    x 1.546600 0.000000 0.000000 
#    y 0.000000 1.504540 0.000000 
#    z 0.000000 0.000000 1.555400 
# 
# From -- ./inp_files/23700.got.cif
#   From: 2010.06.25/outbox.cif.g09.slc.cpg/sg71_12_cif.got.tgz:23700.got - 2010.06.28 04:59:45.
