data_PCOD8292636
_publ_section_title
;
Structure prediction by ZEFSAII (Michael W. Deem and Ramdas Pophale) SiO2 
 PCOD8292636
Probable space group: I M M M
;
_chemical_formula_sum "Si O2"
_cell_formula_units_Z 104
_cell_length_a 19.608048
_cell_length_b 9.981942
_cell_length_c 33.021131
_cell_angle_alpha 90.000000
_cell_angle_beta 90.000000
_cell_angle_gamma 90.000000
_cell_volume 6463.107024
_symmetry_space_group_name_H-M "I M M M"
_symmetry_group_IT_number 71
_symmetry_cell_setting 'orthorhombic'
loop_
_space_group_symop_operation_xyz
x,y,z
-x,-y,z
x,-y,-z
-x,y,-z
-x,-y,-z
x,y,-z
-x,y,z
x,-y,z
1/2+x,1/2+y,1/2+z
1/2-x,1/2-y,1/2+z
1/2+x,1/2-y,1/2-z
1/2-x,1/2+y,1/2-z
1/2-x,1/2-y,1/2-z
1/2+x,1/2+y,1/2-z
1/2-x,1/2+y,1/2+z
1/2+x,1/2-y,1/2+z
loop_
_atom_site_type_symbol
_atom_site_label
_atom_site_fract_x
_atom_site_fract_y
_atom_site_fract_z
Si Si1 0.919063 0.648967 0.692456
Si Si2 0.805172 0.340175 0.454099
Si Si3 0.575717 0.159503 0.102480
Si Si4 0.339190 0.659588 0.576138
Si Si5 0.081161 0.149354 0.759116
Si Si6 0.423660 0.340300 0.500000
Si Si7 0.923750 0.159410 0.151255
O O1 0.888479 0.500000 0.699692
O O2 0.900344 0.702601 0.647557
O O3 0.887614 0.749995 0.725692
O O4 0.000000 0.641864 0.696545
O O5 0.806181 0.284757 0.500000
O O6 0.805982 0.500000 0.454821
O O7 0.871074 0.283277 0.430364
O O8 0.737822 0.288418 0.430670
O O9 0.500000 0.216420 0.092609
O O10 0.573309 0.000000 0.101015
O O11 0.340156 0.500000 0.576426
O O12 0.385438 0.714384 0.539597
O O13 0.370343 0.716178 0.618168
O O14 0.101557 0.202275 0.803929
O O15 0.000000 0.144284 0.756055
O O16 0.110609 0.000000 0.751369
O O17 0.423940 0.500000 0.500000
O O18 0.500000 0.282855 0.500000
O O19 0.000000 0.215786 0.142338
O O20 0.927017 0.000000 0.149232
#
# Coordination Sequence:
#
# PCOD8292636 Si02
#       7
#    16  16  16  16  16   8  16
#     4   8  13  22  36  53  73  97 125 156 189 226
#     4   9  15  22  31  44  65  91 118 149 184 222
#     4   8  14  23  34  48  65  88 119 151 184 224
#     4   9  14  20  28  41  63  91 121 150 179 215
#     4   8  13  21  34  53  75  98 125 156 188 222
#     4   9  14  18  26  40  59  87 122 154 179 208
#     4   8  13  20  30  45  66  93 123 150 176 212
#
# _framework density 16.091332000000001
#
# number of rings (size 3 to 8) (size 9 to 14) (size 15 to 20)
#    0.000    3.615    0.769    2.308    0.000    2.154 
#    0.000    1.538    0.000    0.923    0.000    0.000 
#    0.000    0.615    0.000    7.000    0.000   21.846 
#
# Total GULP energy -644308.744735 kJ/mol
# GULP energy per Si atom -12390.552783 kJ/mol
# Density = 1.605471 g / cm^3
# Si number density = 16.091332 Si / 1000 Ang^3
#
#
#
# Elastic Constant Matrix: (Units=GPa)
#
#
# Indices 1 2 3 4 5 6 
#
# 1 93.7415 13.8081 71.2329 0.0000 0.0000 0.0000
# 2 13.8081 21.2011 28.2833 0.0000 0.0000 0.0000
# 3 71.2329 28.2833 148.6690 0.0000 0.0000 0.0000
# 4 0.0000 0.0000 0.0000 14.4774 0.0000 0.0000
# 5 0.0000 0.0000 0.0000 0.0000 13.9360 0.0000
# 6 0.0000 0.0000 0.0000 0.0000 0.0000 3.4270
#
#
#
# Elastic Compliance Matrix: (Units=1/GPa)
#
#
# Indices 1 2 3 4 5 6 
#
# 1 0.016777 -0.000272 -0.007987 0.000000 0.000000 0.000000
# 2 -0.000272 0.063214 -0.011896 0.000000 0.000000 0.000000
# 3 -0.007987 -0.011896 0.012816 0.000000 0.000000 0.000000
# 4 0.000000 0.000000 0.000000 0.069073 0.000000 0.000000
# 5 0.000000 0.000000 0.000000 0.000000 0.071757 0.000000
# 6 0.000000 0.000000 0.000000 0.000000 0.000000 0.291802
#
#
# Mechanical properties :
#
#
# Convention : Reuss Voigt Hill
#
# Bulk Modulus (GPa) = 19.04835 54.47336 36.76085
# Shear Modulus (GPa) = 8.57271 16.38723 12.47997
#
# Velocity S-wave (km/s) = 2.31065 3.19468 2.78793
# Velocity P-wave (km/s) = 4.35685 6.89450 5.76699
#
# Compressibility (1/GPa) = 0.05249799
#
# Stress axis : x y z
#
# Youngs Moduli (GPa) = 59.60703 15.81932 78.02705
#
# Poissons Ratio (x) = 0.00430 0.62316
# Poissons Ratio (y) = 0.01622 0.92818
# Poissons Ratio (z) = 0.47605 0.18818
#
# Static dielectric constant tensor:
#      x y z
#    x 3.024040 0.000000 0.000000 
#    y 0.000000 2.531540 0.000000 
#    z 0.000000 0.000000 3.433130 
# 
# 
# High freq. dielectric constant tensor:
#      x y z
#    x 1.593080 0.000000 0.000000 
#    y 0.000000 1.533110 0.000000 
#    z 0.000000 0.000000 1.634810 
# 
# From -- ./inp_files/56787.got.cif
#   From: 2010.06.25/outbox.cif.g09.slc.cpg/sg71_29_cif.got.tgz:56787.got - 2010.06.28 04:59:45.
