data_PCOD8292354
_publ_section_title
;
Structure prediction by ZEFSAII (Michael W. Deem and Ramdas Pophale) SiO2 
 PCOD8292354
Probable space group: I M M M
;
_chemical_formula_sum "Si O2"
_cell_formula_units_Z 80
_cell_length_a 31.462917
_cell_length_b 14.965916
_cell_length_c 9.063470
_cell_angle_alpha 90.000000
_cell_angle_beta 90.000000
_cell_angle_gamma 90.000000
_cell_volume 4267.728562
_symmetry_space_group_name_H-M "I M M M"
_symmetry_group_IT_number 71
_symmetry_cell_setting 'orthorhombic'
loop_
_space_group_symop_operation_xyz
x,y,z
-x,-y,z
x,-y,-z
-x,y,-z
-x,-y,-z
x,y,-z
-x,y,z
x,-y,z
1/2+x,1/2+y,1/2+z
1/2-x,1/2-y,1/2+z
1/2+x,1/2-y,1/2-z
1/2-x,1/2+y,1/2-z
1/2-x,1/2-y,1/2-z
1/2+x,1/2+y,1/2-z
1/2-x,1/2+y,1/2+z
1/2+x,1/2-y,1/2+z
loop_
_atom_site_type_symbol
_atom_site_label
_atom_site_fract_x
_atom_site_fract_y
_atom_site_fract_z
Si Si1 0.801735 0.331388 0.337644
Si Si2 0.114817 0.275980 0.825267
Si Si3 0.133070 0.901861 0.672951
Si Si4 0.225777 0.868890 0.661240
Si Si5 0.450373 0.102350 0.831268
O O1 0.813625 0.369188 0.500000
O O2 0.843932 0.325384 0.239526
O O3 0.779397 0.236641 0.354031
O O4 0.766302 0.395121 0.262056
O O5 0.108911 0.175031 0.763421
O O6 0.073846 0.332619 0.780014
O O7 0.118893 0.271395 0.000000
O O8 0.131959 0.875382 0.500000
O O9 0.182037 0.908260 0.727374
O O10 0.112062 0.000000 0.699687
O O11 0.234304 0.910505 0.500000
O O12 0.500000 0.118011 0.805315
O O13 0.438243 0.000000 0.795793
O O14 0.438136 0.125274 0.000000
#
# Coordination Sequence:
#
# PCOD8292354 Si02
#       5
#    16  16  16  16  16
#     4   9  16  27  44  65  93 132 174 213 254 301
#     4  11  21  32  51  79 110 141 171 210 260 310
#     4   9  18  33  52  73 101 141 186 226 261 302
#     4   8  14  25  42  65  92 125 169 220 267 301
#     4   9  19  38  63  86 106 130 162 202 251 311
#
# _framework density 18.745335000000001
#
# number of rings (size 3 to 8) (size 9 to 14) (size 15 to 20)
#    0.000    2.800    0.000    4.200    0.000    6.000 
#    0.000    2.000    0.000    4.200    0.000    4.200 
#    0.000    0.000    0.000    0.000    0.000    0.000 
#
# Total GULP energy -495730.696389 kJ/mol
# GULP energy per Si atom -12393.267410 kJ/mol
# Density = 1.870267 g / cm^3
# Si number density = 18.745335 Si / 1000 Ang^3
#
#
#
# Elastic Constant Matrix: (Units=GPa)
#
#
# Indices 1 2 3 4 5 6 
#
# 1 68.9655 42.6129 49.8314 0.0000 0.0000 0.0000
# 2 42.6129 84.4932 48.5341 0.0000 0.0000 0.0000
# 3 49.8314 48.5341 129.9974 0.0000 0.0000 0.0000
# 4 0.0000 0.0000 0.0000 14.1092 0.0000 0.0000
# 5 0.0000 0.0000 0.0000 0.0000 31.1229 0.0000
# 6 0.0000 0.0000 0.0000 0.0000 0.0000 10.5264
#
#
#
# Elastic Compliance Matrix: (Units=1/GPa)
#
#
# Indices 1 2 3 4 5 6 
#
# 1 0.024284 -0.008784 -0.006029 0.000000 0.000000 0.000000
# 2 -0.008784 0.018244 -0.003444 0.000000 0.000000 0.000000
# 3 -0.006029 -0.003444 0.011289 0.000000 0.000000 0.000000
# 4 0.000000 0.000000 0.000000 0.070876 0.000000 0.000000
# 5 0.000000 0.000000 0.000000 0.000000 0.032131 0.000000
# 6 0.000000 0.000000 0.000000 0.000000 0.000000 0.094999
#
#
# Mechanical properties :
#
#
# Convention : Reuss Voigt Hill
#
# Bulk Modulus (GPa) = 57.79505 62.82365 60.30935
# Shear Modulus (GPa) = 17.00075 20.65021 18.82548
#
# Velocity S-wave (km/s) = 3.01480 3.32266 3.17247
# Velocity P-wave (km/s) = 6.55876 6.95034 6.75738
#
# Compressibility (1/GPa) = 0.01730252
#
# Stress axis : x y z
#
# Youngs Moduli (GPa) = 41.17948 54.81348 88.57834
#
# Poissons Ratio (x) = 0.48148 0.53406
# Poissons Ratio (y) = 0.36172 0.30507
# Poissons Ratio (z) = 0.24828 0.18878
#
# Static dielectric constant tensor:
#      x y z
#    x 3.188290 0.000000 0.000000 
#    y 0.000000 3.364510 0.000000 
#    z 0.000000 0.000000 3.623940 
# 
# 
# High freq. dielectric constant tensor:
#      x y z
#    x 1.699880 0.000000 0.000000 
#    y 0.000000 1.714980 0.000000 
#    z 0.000000 0.000000 1.723970 
# 
# From -- ./inp_files/16526.got.cif
#   From: 2010.06.25/outbox.cif.g09.slc.cpg/sg71_9_cif.got.tgz:16526.got - 2010.06.28 04:59:45.
