data_PCOD8292315
_publ_section_title
;
Structure prediction by ZEFSAII (Michael W. Deem and Ramdas Pophale) SiO2 
 PCOD8292315
Probable space group: I M M M
;
_chemical_formula_sum "Si O2"
_cell_formula_units_Z 72
_cell_length_a 22.192555
_cell_length_b 16.555064
_cell_length_c 10.702719
_cell_angle_alpha 90.000000
_cell_angle_beta 90.000000
_cell_angle_gamma 90.000000
_cell_volume 3932.170060
_symmetry_space_group_name_H-M "I M M M"
_symmetry_group_IT_number 71
_symmetry_cell_setting 'orthorhombic'
loop_
_space_group_symop_operation_xyz
x,y,z
-x,-y,z
x,-y,-z
-x,y,-z
-x,-y,-z
x,y,-z
-x,y,z
x,-y,z
1/2+x,1/2+y,1/2+z
1/2-x,1/2-y,1/2+z
1/2+x,1/2-y,1/2-z
1/2-x,1/2+y,1/2-z
1/2-x,1/2-y,1/2-z
1/2+x,1/2+y,1/2-z
1/2-x,1/2+y,1/2+z
1/2+x,1/2-y,1/2+z
loop_
_atom_site_type_symbol
_atom_site_label
_atom_site_fract_x
_atom_site_fract_y
_atom_site_fract_z
Si Si1 0.133108 0.156874 0.141955
Si Si2 0.235880 0.686899 0.641729
Si Si3 0.069289 0.405106 0.000000
Si Si4 0.000000 0.410432 0.357139
Si Si5 0.432229 0.500000 0.351275
Si Si6 0.385698 0.830727 0.746007
O O1 0.203984 0.132279 0.140668
O O2 0.117045 0.234073 0.227319
O O3 0.099009 0.080582 0.201525
O O4 0.111283 0.175393 0.000000
O O5 0.227372 0.723278 0.500000
O O6 0.250000 0.750000 0.750000
O O7 0.175044 0.639773 0.682101
O O8 0.108634 0.375322 0.884813
O O9 0.066335 0.500000 0.000000
O O10 0.000000 0.370648 0.000000
O O11 0.942473 0.356286 0.327388
O O12 0.000000 0.500000 0.288020
O O13 0.000000 0.430669 0.500000
O O14 0.500000 0.500000 0.302685
O O15 0.427190 0.500000 0.500000
#
# Coordination Sequence:
#
# PCOD8292315 Si02
#       6
#    16  16   8   8   8  16
#     4   9  18  34  53  82 111 146 184 229 281 341
#     4   9  19  35  58  83 115 150 192 238 288 348
#     4  11  22  36  54  83 117 151 193 242 295 356
#     4  11  24  39  53  80 115 145 188 241 292 352
#     4   9  18  30  50  80 118 141 176 233 282 323
#     4  11  20  35  59  81 110 153 192 231 289 352
#
# _framework density 18.310499
#
# number of rings (size 3 to 8) (size 9 to 14) (size 15 to 20)
#    0.000    2.111    2.222    1.333    3.111    0.000 
#    4.000    0.000    0.000    0.000    0.000   14.778 
#    0.000    0.000    0.000    0.000    0.000    0.000 
#
# Total GULP energy -446007.292014 kJ/mol
# GULP energy per Si atom -12389.091445 kJ/mol
# Density = 1.826882 g / cm^3
# Si number density = 18.310499 Si / 1000 Ang^3
#
#
#
# Elastic Constant Matrix: (Units=GPa)
#
#
# Indices 1 2 3 4 5 6 
#
# 1 166.5314 67.4463 46.5021 0.0000 0.0000 0.0000
# 2 67.4463 103.7273 23.3636 0.0000 0.0000 0.0000
# 3 46.5021 23.3636 97.8108 0.0000 0.0000 0.0000
# 4 0.0000 0.0000 0.0000 11.1034 0.0000 0.0000
# 5 0.0000 0.0000 0.0000 0.0000 39.0909 0.0000
# 6 0.0000 0.0000 0.0000 0.0000 0.0000 24.8114
#
#
#
# Elastic Compliance Matrix: (Units=1/GPa)
#
#
# Indices 1 2 3 4 5 6 
#
# 1 0.008922 -0.005121 -0.003018 0.000000 0.000000 0.000000
# 2 -0.005121 0.013129 -0.000701 0.000000 0.000000 0.000000
# 3 -0.003018 -0.000701 0.011826 0.000000 0.000000 0.000000
# 4 0.000000 0.000000 0.000000 0.090063 0.000000 0.000000
# 5 0.000000 0.000000 0.000000 0.000000 0.025581 0.000000
# 6 0.000000 0.000000 0.000000 0.000000 0.000000 0.040304
#
#
# Mechanical properties :
#
#
# Convention : Reuss Voigt Hill
#
# Bulk Modulus (GPa) = 61.74726 71.41037 66.57882
# Shear Modulus (GPa) = 23.48460 30.38498 26.93479
#
# Velocity S-wave (km/s) = 3.58519 4.07803 3.83953
# Velocity P-wave (km/s) = 7.13678 7.82676 7.48972
#
# Compressibility (1/GPa) = 0.01619505
#
# Stress axis : x y z
#
# Youngs Moduli (GPa) = 112.08317 76.16923 84.55702
#
# Poissons Ratio (x) = 0.39009 0.25523
# Poissons Ratio (y) = 0.57402 0.05928
# Poissons Ratio (z) = 0.33831 0.05340
#
# Static dielectric constant tensor:
#      x y z
#    x 3.985710 0.000000 0.000000 
#    y 0.000000 3.216910 0.000000 
#    z 0.000000 0.000000 3.400740 
# 
# 
# High freq. dielectric constant tensor:
#      x y z
#    x 1.728100 0.000000 0.000000 
#    y 0.000000 1.685030 0.000000 
#    z 0.000000 0.000000 1.698400 
# 
# From -- ./inp_files/25523.got.cif
#   From: 2010.06.25/outbox.cif.g09.slc.cpg/sg71_13_cif.got.tgz:25523.got - 2010.06.28 04:59:45.
