data_PCOD8292666
_publ_section_title
;
Structure prediction by ZEFSAII (Michael W. Deem and Ramdas Pophale) SiO2 
 PCOD8292666
Probable space group: I M M M
;
_chemical_formula_sum "Si O2"
_cell_formula_units_Z 80
_cell_length_a 16.507063
_cell_length_b 9.571103
_cell_length_c 28.960267
_cell_angle_alpha 90.000000
_cell_angle_beta 90.000000
_cell_angle_gamma 90.000000
_cell_volume 4575.455757
_symmetry_space_group_name_H-M "I M M M"
_symmetry_group_IT_number 71
_symmetry_cell_setting 'orthorhombic'
loop_
_space_group_symop_operation_xyz
x,y,z
-x,-y,z
x,-y,-z
-x,y,-z
-x,-y,-z
x,y,-z
-x,y,z
x,-y,z
1/2+x,1/2+y,1/2+z
1/2-x,1/2-y,1/2+z
1/2+x,1/2-y,1/2-z
1/2-x,1/2+y,1/2-z
1/2-x,1/2-y,1/2-z
1/2+x,1/2+y,1/2-z
1/2-x,1/2+y,1/2+z
1/2+x,1/2-y,1/2+z
loop_
_atom_site_type_symbol
_atom_site_label
_atom_site_fract_x
_atom_site_fract_y
_atom_site_fract_z
Si Si1 0.680315 0.833084 0.500000
Si Si2 0.351567 0.338372 0.225289
Si Si3 0.863440 0.165594 0.500000
Si Si4 0.176455 0.337851 0.187877
Si Si5 0.092571 0.334230 0.906952
Si Si6 0.500000 0.334041 0.167456
Si Si7 0.500000 0.333294 0.932946
O O1 0.772336 0.771969 0.500000
O O2 0.634400 0.777249 0.453988
O O3 0.681024 0.000000 0.500000
O O4 0.360472 0.500000 0.238779
O O5 0.271923 0.312232 0.194572
O O6 0.363962 0.252578 0.272113
O O7 0.421459 0.279887 0.193166
O O8 0.916321 0.217810 0.456399
O O9 0.854726 0.000000 0.500000
O O10 0.153654 0.500000 0.194740
O O11 0.144827 0.285252 0.137789
O O12 0.091640 0.500000 0.908785
O O13 0.000000 0.277568 0.903567
O O14 0.500000 0.500000 0.163441
O O15 0.500000 0.265846 0.117230
O O16 0.500000 0.500000 0.933844
#
# Coordination Sequence:
#
# PCOD8292666 Si02
#       7
#     8  16   8  16  16   8   8
#     4   9  16  24  38  57  82 111 140 176 217 263
#     4   9  18  31  45  65  90 118 151 183 217 259
#     4   8  14  22  34  54  79 110 144 175 210 256
#     4   9  18  31  47  65  88 118 150 184 220 260
#     4   9  17  27  40  59  83 112 145 179 218 262
#     4   9  17  26  42  61  87 119 147 180 218 263
#     4   8  14  23  34  53  81 112 145 175 207 255
#
# _framework density 17.484596
#
# number of rings (size 3 to 8) (size 9 to 14) (size 15 to 20)
#    0.000    3.200    0.000    0.900    4.200    1.200 
#    0.000    0.000    0.000    0.000    0.000    0.700 
#    0.000    1.600    0.000    7.200    0.000    8.000 
#
# Total GULP energy -495610.453646 kJ/mol
# GULP energy per Si atom -12390.261341 kJ/mol
# Density = 1.744480 g / cm^3
# Si number density = 17.484596 Si / 1000 Ang^3
#
#
#
# Elastic Constant Matrix: (Units=GPa)
#
#
# Indices 1 2 3 4 5 6 
#
# 1 131.8578 18.0693 99.6542 0.0000 0.0000 0.0000
# 2 18.0693 16.0339 30.3988 0.0000 0.0000 0.0000
# 3 99.6542 30.3988 196.9812 0.0000 0.0000 0.0000
# 4 0.0000 0.0000 0.0000 17.3406 0.0000 0.0000
# 5 0.0000 0.0000 0.0000 0.0000 27.8602 0.0000
# 6 0.0000 0.0000 0.0000 0.0000 0.0000 9.5009
#
#
#
# Elastic Compliance Matrix: (Units=1/GPa)
#
#
# Indices 1 2 3 4 5 6 
#
# 1 0.012376 -0.002935 -0.005808 0.000000 0.000000 0.000000
# 2 -0.002935 0.088859 -0.012228 0.000000 0.000000 0.000000
# 3 -0.005808 -0.012228 0.009902 0.000000 0.000000 0.000000
# 4 0.000000 0.000000 0.000000 0.057668 0.000000 0.000000
# 5 0.000000 0.000000 0.000000 0.000000 0.035893 0.000000
# 6 0.000000 0.000000 0.000000 0.000000 0.000000 0.105253
#
#
# Mechanical properties :
#
#
# Convention : Reuss Voigt Hill
#
# Bulk Modulus (GPa) = 14.45211 71.23526 42.84368
# Shear Modulus (GPa) = 13.33483 24.05707 18.69595
#
# Velocity S-wave (km/s) = 2.76463 3.71334 3.27353
# Velocity P-wave (km/s) = 4.29819 7.69515 6.23257
#
# Compressibility (1/GPa) = 0.06919406
#
# Stress axis : x y z
#
# Youngs Moduli (GPa) = 80.80386 11.25379 100.99007
#
# Poissons Ratio (x) = 0.03303 0.58654
# Poissons Ratio (y) = 0.23719 1.23490
# Poissons Ratio (z) = 0.46930 0.13761
#
# Static dielectric constant tensor:
#      x y z
#    x 3.490480 0.000000 0.000000 
#    y 0.000000 2.609350 0.000000 
#    z 0.000000 0.000000 3.557400 
# 
# 
# High freq. dielectric constant tensor:
#      x y z
#    x 1.690550 0.000000 0.000000 
#    y 0.000000 1.596950 0.000000 
#    z 0.000000 0.000000 1.688170 
# 
# From -- ./inp_files/65935.got.cif
#   From: 2010.06.25/outbox.cif.g09.slc.cpg/sg71_33_cif.got.tgz:65935.got - 2010.06.28 04:59:45.
