data_PCOD8292061
_publ_section_title
;
Structure prediction by ZEFSAII (Michael W. Deem and Ramdas Pophale) SiO2 
 PCOD8292061
Probable space group: I M M M
;
_chemical_formula_sum "Si O2"
_cell_formula_units_Z 88
_cell_length_a 7.878106
_cell_length_b 17.507386
_cell_length_c 32.217828
_cell_angle_alpha 90.000000
_cell_angle_beta 90.000000
_cell_angle_gamma 90.000000
_cell_volume 4443.645302
_symmetry_space_group_name_H-M "I M M M"
_symmetry_group_IT_number 71
_symmetry_cell_setting 'orthorhombic'
loop_
_space_group_symop_operation_xyz
x,y,z
-x,-y,z
x,-y,-z
-x,y,-z
-x,-y,-z
x,y,-z
-x,y,z
x,-y,z
1/2+x,1/2+y,1/2+z
1/2-x,1/2-y,1/2+z
1/2+x,1/2-y,1/2-z
1/2-x,1/2+y,1/2-z
1/2-x,1/2-y,1/2-z
1/2+x,1/2+y,1/2-z
1/2-x,1/2+y,1/2+z
1/2+x,1/2-y,1/2+z
loop_
_atom_site_type_symbol
_atom_site_label
_atom_site_fract_x
_atom_site_fract_y
_atom_site_fract_z
Si Si1 0.808372 0.637339 0.403184
Si Si2 0.307189 0.088048 0.606352
Si Si3 0.804232 0.278544 0.953242
Si Si4 0.500000 0.590264 0.836224
Si Si5 0.805196 0.589972 0.313999
Si Si6 0.000000 0.090526 0.756088
Si Si7 0.810787 0.000000 0.955982
O O1 0.791795 0.721135 0.422610
O O2 0.748100 0.635765 0.355345
O O3 0.710954 0.576431 0.430197
O O4 0.000000 0.609416 0.403572
O O5 0.500000 0.099575 0.623522
O O6 0.279643 0.136101 0.564335
O O7 0.171729 0.117038 0.640481
O O8 0.274209 0.000000 0.594608
O O9 0.000000 0.254708 0.953853
O O10 0.729066 0.275430 0.000000
O O11 0.500000 0.500000 0.832694
O O12 0.500000 0.626573 0.790143
O O13 0.786435 0.500000 0.323004
O O14 0.673101 0.617494 0.278799
O O15 0.000000 0.609206 0.300607
O O16 0.000000 0.000000 0.753364
O O17 0.000000 0.000000 0.970578
O O18 0.705075 0.000000 0.000000
#
# Coordination Sequence:
#
# PCOD8292061 Si02
#       7
#    16  16  16   8  16   8   8
#     4  11  22  35  53  78 110 151 194 238 285 335
#     4   9  19  37  61  86 114 150 185 230 288 347
#     4  10  22  38  56  83 113 147 192 235 282 342
#     4   9  18  34  57  90 117 139 184 228 283 352
#     4   9  18  32  50  78 109 143 192 233 276 328
#     4   9  18  30  54  85 112 145 178 234 288 334
#     4  11  23  35  51  75 107 151 197 243 285 331
#
# _framework density 19.803560999999998
#
# number of rings (size 3 to 8) (size 9 to 14) (size 15 to 20)
#    0.000    2.273    0.909    1.364    3.818    4.364 
#    0.000    5.455    0.000    2.727    0.000    0.000 
#    0.000    0.000    0.000    0.000    0.000    0.000 
#
# Total GULP energy -545400.821428 kJ/mol
# GULP energy per Si atom -12395.473214 kJ/mol
# Density = 1.975849 g / cm^3
# Si number density = 19.803561 Si / 1000 Ang^3
#
#
#
# Elastic Constant Matrix: (Units=GPa)
#
#
# Indices 1 2 3 4 5 6 
#
# 1 95.6638 19.9052 57.4965 0.0000 0.0000 0.0000
# 2 19.9052 67.6506 37.8225 0.0000 0.0000 0.0000
# 3 57.4965 37.8225 138.1090 0.0000 0.0000 0.0000
# 4 0.0000 0.0000 0.0000 20.1415 0.0000 0.0000
# 5 0.0000 0.0000 0.0000 0.0000 42.4324 0.0000
# 6 0.0000 0.0000 0.0000 0.0000 0.0000 -38.0821
#
#
#
# Elastic Compliance Matrix: (Units=1/GPa)
#
#
# Indices 1 2 3 4 5 6 
#
# 1 0.014001 -0.001016 -0.005550 0.000000 0.000000 0.000000
# 2 -0.001016 0.017528 -0.004377 0.000000 0.000000 0.000000
# 3 -0.005550 -0.004377 0.010750 0.000000 0.000000 0.000000
# 4 0.000000 0.000000 0.000000 0.049649 0.000000 0.000000
# 5 0.000000 0.000000 0.000000 0.000000 0.023567 0.000000
# 6 0.000000 0.000000 0.000000 0.000000 0.000000 -0.026259
#
#
# Mechanical properties :
#
#
# Convention : Reuss Voigt Hill
#
# Bulk Modulus (GPa) = 49.04084 59.09687 54.06886
# Shear Modulus (GPa) = 42.40164 17.31163 29.85664
#
# Velocity S-wave (km/s) = 4.63224 2.95984 3.88705
# Velocity P-wave (km/s) = 7.30941 6.44881 6.89256
#
# Compressibility (1/GPa) = 0.02039117
#
# Stress axis : x y z
#
# Youngs Moduli (GPa) = 71.42539 57.05131 93.02301
#
# Poissons Ratio (x) = 0.05799 0.51630
# Poissons Ratio (y) = 0.07260 0.40717
# Poissons Ratio (z) = 0.39643 0.24972
#
# Static dielectric constant tensor:
#      x y z
#    x 3.767640 0.000000 0.000000 
#    y 0.000000 3.310690 0.000000 
#    z 0.000000 0.000000 3.768270 
# 
# 
# High freq. dielectric constant tensor:
#      x y z
#    x 1.779350 0.000000 0.000000 
#    y 0.000000 1.743700 0.000000 
#    z 0.000000 0.000000 1.770030 
# 
# From -- ./inp_files/68092.got.cif
#   From: 2010.06.25/outbox.cif.g09.slc.cpg/sg71_35_cif.got.tgz:68092.got - 2010.06.28 04:59:45.
