data_PCOD8292426
_publ_section_title
;
Structure prediction by ZEFSAII (Michael W. Deem and Ramdas Pophale) SiO2 
 PCOD8292426
Probable space group: I M M M
;
_chemical_formula_sum "Si O2"
_cell_formula_units_Z 88
_cell_length_a 9.106128
_cell_length_b 30.074064
_cell_length_c 17.060653
_cell_angle_alpha 90.000000
_cell_angle_beta 90.000000
_cell_angle_gamma 90.000000
_cell_volume 4672.201023
_symmetry_space_group_name_H-M "I M M M"
_symmetry_group_IT_number 71
_symmetry_cell_setting 'orthorhombic'
loop_
_space_group_symop_operation_xyz
x,y,z
-x,-y,z
x,-y,-z
-x,y,-z
-x,-y,-z
x,y,-z
-x,y,z
x,-y,z
1/2+x,1/2+y,1/2+z
1/2-x,1/2-y,1/2+z
1/2+x,1/2-y,1/2-z
1/2-x,1/2+y,1/2-z
1/2-x,1/2-y,1/2-z
1/2+x,1/2+y,1/2-z
1/2-x,1/2+y,1/2+z
1/2+x,1/2-y,1/2+z
loop_
_atom_site_type_symbol
_atom_site_label
_atom_site_fract_x
_atom_site_fract_y
_atom_site_fract_z
Si Si1 0.824496 0.306309 0.589278
Si Si2 0.829335 0.881517 0.186225
Si Si3 0.325011 0.449094 0.000000
Si Si4 0.663489 0.948263 0.911366
Si Si5 0.173669 0.883965 0.364235
Si Si6 0.660731 0.709604 0.908115
O O1 0.775376 0.318417 0.500000
O O2 0.759681 0.339884 0.652650
O O3 0.763459 0.256954 0.613171
O O4 0.000000 0.307136 0.593984
O O5 0.789810 0.925146 0.137887
O O6 0.785247 0.894261 0.274835
O O7 0.000000 0.870468 0.178500
O O8 0.266299 0.422518 0.077326
O O9 0.263249 0.500000 0.000000
O O10 0.500000 0.451105 0.000000
O O11 0.500000 0.937051 0.879009
O O12 0.694859 0.000000 0.907246
O O13 0.673826 0.930892 0.000000
O O14 0.246197 0.835234 0.381834
O O15 0.000000 0.880921 0.378536
O O16 0.500000 0.708931 0.867636
O O17 0.640682 0.708075 0.000000
#
# Coordination Sequence:
#
# PCOD8292426 Si02
#       6
#    16  16   8  16  16  16
#     4   9  18  32  51  73  96 132 180 218 244 284
#     4  11  22  31  45  76 113 137 155 197 260 313
#     4   9  16  28  48  70  95 131 169 207 256 309
#     4   9  19  37  58  74  91 126 175 214 240 282
#     4   9  17  29  45  69 101 133 166 206 252 304
#     4   8  13  26  49  69  89 127 178 219 246 283
#
# _framework density 18.834804999999999
#
# number of rings (size 3 to 8) (size 9 to 14) (size 15 to 20)
#    0.000    2.818    0.909    2.727    0.000    4.727 
#    0.000    2.727    0.000    1.091    0.000    2.545 
#    0.000    4.364    0.000    0.000    0.000    0.000 
#
# Total GULP energy -545123.079941 kJ/mol
# GULP energy per Si atom -12389.160908 kJ/mol
# Density = 1.879194 g / cm^3
# Si number density = 18.834805 Si / 1000 Ang^3
#
#
#
# Elastic Constant Matrix: (Units=GPa)
#
#
# Indices 1 2 3 4 5 6 
#
# 1 25.3583 24.7071 25.9632 0.0000 0.0000 0.0000
# 2 24.7071 128.0858 78.8159 0.0000 0.0000 0.0000
# 3 25.9632 78.8159 108.5699 0.0002 0.0001 0.0000
# 4 0.0000 0.0000 0.0002 8.0850 0.0000 0.0000
# 5 0.0000 0.0000 0.0001 0.0000 15.6450 0.0000
# 6 0.0000 0.0000 0.0000 0.0000 0.0000 9.3488
#
#
#
# Elastic Compliance Matrix: (Units=1/GPa)
#
#
# Indices 1 2 3 4 5 6 
#
# 1 0.053576 -0.004429 -0.009597 0.000000 0.000000 0.000000
# 2 -0.004429 0.014477 -0.009450 0.000000 0.000000 0.000000
# 3 -0.009597 -0.009450 0.018366 -0.000001 0.000000 0.000000
# 4 0.000000 0.000000 -0.000001 0.123686 0.000000 0.000000
# 5 0.000000 0.000000 0.000000 0.000000 0.063918 0.000000
# 6 0.000000 0.000000 0.000000 0.000000 0.000000 0.106966
#
#
# Mechanical properties :
#
#
# Convention : Reuss Voigt Hill
#
# Bulk Modulus (GPa) = 25.33797 57.88738 41.61268
# Shear Modulus (GPa) = 11.33541 15.45094 13.39317
#
# Velocity S-wave (km/s) = 2.45589 2.86726 2.66951
# Velocity P-wave (km/s) = 4.63938 6.46240 5.62523
#
# Compressibility (1/GPa) = 0.03946645
#
# Stress axis : x y z
#
# Youngs Moduli (GPa) = 18.66503 69.07695 54.44919
#
# Poissons Ratio (x) = 0.30597 0.52253
# Poissons Ratio (y) = 0.08268 0.51454
# Poissons Ratio (z) = 0.17912 0.65278
#
# Static dielectric constant tensor:
#      x y z
#    x 2.979950 0.000000 0.000000 
#    y 0.000000 3.831120 0.000000 
#    z 0.000000 0.000000 3.426850 
# 
# 
# High freq. dielectric constant tensor:
#      x y z
#    x 1.669750 0.000000 0.000000 
#    y 0.000000 1.752150 0.000000 
#    z 0.000000 0.000000 1.724980 
# 
# From -- ./inp_files/42491.got.cif
#   From: 2010.06.25/outbox.cif.g09.slc.cpg/sg71_22_cif.got.tgz:42491.got - 2010.06.28 04:59:45.
