data_PCOD8292358
_publ_section_title
;
Structure prediction by ZEFSAII (Michael W. Deem and Ramdas Pophale) SiO2 
 PCOD8292358
Probable space group: I M M M
;
_chemical_formula_sum "Si O2"
_cell_formula_units_Z 104
_cell_length_a 23.195603
_cell_length_b 8.681938
_cell_length_c 28.123600
_cell_angle_alpha 90.000000
_cell_angle_beta 90.000000
_cell_angle_gamma 90.000000
_cell_volume 5663.608952
_symmetry_space_group_name_H-M "I M M M"
_symmetry_group_IT_number 71
_symmetry_cell_setting 'orthorhombic'
loop_
_space_group_symop_operation_xyz
x,y,z
-x,-y,z
x,-y,-z
-x,y,-z
-x,-y,-z
x,y,-z
-x,y,z
x,-y,z
1/2+x,1/2+y,1/2+z
1/2-x,1/2-y,1/2+z
1/2+x,1/2-y,1/2-z
1/2-x,1/2+y,1/2-z
1/2-x,1/2-y,1/2-z
1/2+x,1/2+y,1/2-z
1/2-x,1/2+y,1/2+z
1/2+x,1/2-y,1/2+z
loop_
_atom_site_type_symbol
_atom_site_label
_atom_site_fract_x
_atom_site_fract_y
_atom_site_fract_z
Si Si1 0.936735 0.817852 0.733603
Si Si2 0.245556 0.818876 0.697221
Si Si3 0.937539 0.681269 0.000000
Si Si4 0.361287 0.678782 0.680432
Si Si5 0.431333 0.825251 0.601647
Si Si6 0.565348 0.683317 0.053273
Si Si7 0.632618 0.318263 0.143756
O O1 0.890805 0.754700 0.771689
O O2 0.917117 0.772299 0.680924
O O3 0.000000 0.745430 0.742773
O O4 0.939975 0.000000 0.739714
O O5 0.250000 0.750000 0.750000
O O6 0.303817 0.775461 0.669659
O O7 0.193056 0.751710 0.664661
O O8 0.237372 0.000000 0.702991
O O9 0.905590 0.723016 0.049486
O O10 0.948004 0.500000 0.000000
O O11 0.000000 0.763544 0.000000
O O12 0.345485 0.500000 0.685517
O O13 0.405642 0.702970 0.637846
O O14 0.500000 0.810902 0.601336
O O15 0.413087 0.000000 0.615023
O O16 0.500000 0.741599 0.064141
O O17 0.565332 0.500000 0.055897
O O18 0.611291 0.748967 0.092459
O O19 0.583932 0.737302 0.000000
O O20 0.639303 0.500000 0.139090
#
# Coordination Sequence:
#
# PCOD8292358 Si02
#       7
#    16  16   8  16  16  16  16
#     4   9  16  26  42  66  95 124 155 193 239 293
#     4  11  21  35  52  70  94 130 174 214 253 298
#     4   7  12  26  49  73  97 127 161 195 240 303
#     4  11  21  33  48  71 100 134 173 208 247 297
#     4   9  17  31  52  77 103 131 163 204 256 307
#     4   8  13  22  40  69 102 129 152 189 246 304
#     4   9  16  27  44  66  93 127 165 198 239 297
#
# _framework density 18.362849000000001
#
# number of rings (size 3 to 8) (size 9 to 14) (size 15 to 20)
#    0.000    2.692    1.538    3.231    0.000    2.769 
#    0.000    0.385    1.692    1.385    0.000    0.000 
#    0.000    0.000    0.000    6.769    0.000    6.154 
#
# Total GULP energy -644226.484729 kJ/mol
# GULP energy per Si atom -12388.970860 kJ/mol
# Density = 1.832105 g / cm^3
# Si number density = 18.362849 Si / 1000 Ang^3
#
#
#
# Elastic Constant Matrix: (Units=GPa)
#
#
# Indices 1 2 3 4 5 6 
#
# 1 116.2530 15.0835 60.7713 0.0000 0.0000 0.0000
# 2 15.0835 21.7763 13.5980 0.0000 0.0000 0.0000
# 3 60.7713 13.5980 149.5087 0.0000 0.0000 0.0000
# 4 0.0000 0.0000 0.0000 18.9631 0.0000 0.0000
# 5 0.0000 0.0000 0.0000 0.0000 21.9255 0.0000
# 6 0.0000 0.0000 0.0000 0.0000 0.0000 19.0815
#
#
#
# Elastic Compliance Matrix: (Units=1/GPa)
#
#
# Indices 1 2 3 4 5 6 
#
# 1 0.011480 -0.005341 -0.004181 0.000000 0.000000 0.000000
# 2 -0.005341 0.051172 -0.002483 0.000000 0.000000 0.000000
# 3 -0.004181 -0.002483 0.008614 0.000000 0.000000 0.000000
# 4 0.000000 0.000000 0.000000 0.052734 0.000000 0.000000
# 5 0.000000 0.000000 0.000000 0.000000 0.045609 0.000000
# 6 0.000000 0.000000 0.000000 0.000000 0.000000 0.052407
#
#
# Mechanical properties :
#
#
# Convention : Reuss Voigt Hill
#
# Bulk Modulus (GPa) = 21.16146 51.82708 36.49427
# Shear Modulus (GPa) = 19.10017 25.19969 22.14993
#
# Velocity S-wave (km/s) = 3.22864 3.70850 3.47686
# Velocity P-wave (km/s) = 5.04459 6.82806 6.00293
#
# Compressibility (1/GPa) = 0.04725572
#
# Stress axis : x y z
#
# Youngs Moduli (GPa) = 87.10484 19.54204 116.09356
#
# Poissons Ratio (x) = 0.10438 0.48535
# Poissons Ratio (y) = 0.46526 0.28826
# Poissons Ratio (z) = 0.36416 0.04852
#
# Static dielectric constant tensor:
#      x y z
#    x 3.522410 0.000000 0.000000 
#    y 0.000000 2.871330 0.000000 
#    z 0.000000 0.000000 3.772250 
# 
# 
# High freq. dielectric constant tensor:
#      x y z
#    x 1.701150 0.000000 0.000000 
#    y 0.000000 1.655800 0.000000 
#    z 0.000000 0.000000 1.720850 
# 
# From -- ./inp_files/13350.got.cif
#   From: 2010.06.25/outbox.cif.g09.slc.cpg/sg71_7_cif.got.tgz:13350.got - 2010.06.28 04:59:45.
