data_PCOD8292276
_publ_section_title
;
Structure prediction by ZEFSAII (Michael W. Deem and Ramdas Pophale) SiO2 
 PCOD8292276
Probable space group: I M M M
;
_chemical_formula_sum "Si O2"
_cell_formula_units_Z 80
_cell_length_a 10.487346
_cell_length_b 22.715016
_cell_length_c 22.513572
_cell_angle_alpha 90.000000
_cell_angle_beta 90.000000
_cell_angle_gamma 90.000000
_cell_volume 5363.188349
_symmetry_space_group_name_H-M "I M M M"
_symmetry_group_IT_number 71
_symmetry_cell_setting 'orthorhombic'
loop_
_space_group_symop_operation_xyz
x,y,z
-x,-y,z
x,-y,-z
-x,y,-z
-x,-y,-z
x,y,-z
-x,y,z
x,-y,z
1/2+x,1/2+y,1/2+z
1/2-x,1/2-y,1/2+z
1/2+x,1/2-y,1/2-z
1/2-x,1/2+y,1/2-z
1/2-x,1/2-y,1/2-z
1/2+x,1/2+y,1/2-z
1/2-x,1/2+y,1/2+z
1/2+x,1/2-y,1/2+z
loop_
_atom_site_type_symbol
_atom_site_label
_atom_site_fract_x
_atom_site_fract_y
_atom_site_fract_z
Si Si1 0.852647 0.231831 0.933858
Si Si2 0.145353 0.832059 0.236570
Si Si3 0.358240 0.500000 0.563055
Si Si4 0.143371 0.295878 0.180835
Si Si5 0.742474 0.385439 0.617796
Si Si6 0.000000 0.429848 0.430688
O O1 0.815135 0.283046 0.887363
O O2 0.779719 0.171121 0.923350
O O3 0.000000 0.216080 0.924656
O O4 0.822478 0.255240 0.000000
O O5 0.137851 0.765219 0.215718
O O6 0.245272 0.837151 0.291700
O O7 0.206237 0.872523 0.185682
O O8 0.000000 0.852660 0.253330
O O9 0.500000 0.500000 0.541494
O O10 0.276333 0.500000 0.500000
O O11 0.339595 0.558582 0.600151
O O12 0.000000 0.324557 0.184043
O O13 0.886965 0.402906 0.607599
O O14 0.000000 0.500000 0.425825
O O15 0.000000 0.410098 0.500000
#
# Coordination Sequence:
#
# PCOD8292276 Si02
#       6
#    16  16   8  16  16   8
#     4   9  16  28  45  64  84 108 140 178 214 250
#     4   9  17  29  44  61  80 103 139 177 212 251
#     4  11  20  29  43  59  77 104 140 181 218 248
#     4   8  15  27  43  61  83 106 133 170 213 255
#     4  11  20  30  43  57  80 110 145 181 215 251
#     4  11  22  34  42  54  82 116 145 179 221 258
#
# _framework density 14.916499999999999
#
# number of rings (size 3 to 8) (size 9 to 14) (size 15 to 20)
#    0.000    2.400    1.000    4.800    1.400    1.600 
#    5.400    0.000    0.000    0.000    0.000    0.000 
#    0.000    0.000    0.000    0.900    0.000   15.200 
#
# Total GULP energy -495561.737328 kJ/mol
# GULP energy per Si atom -12389.043433 kJ/mol
# Density = 1.488255 g / cm^3
# Si number density = 14.916500 Si / 1000 Ang^3
#
#
#
# Elastic Constant Matrix: (Units=GPa)
#
#
# Indices 1 2 3 4 5 6 
#
# 1 114.2335 32.9413 59.2142 0.0000 0.0000 0.0000
# 2 32.9413 38.3727 40.8779 0.0000 0.0000 0.0000
# 3 59.2142 40.8779 112.5376 0.0000 0.0000 0.0000
# 4 0.0000 0.0000 0.0000 17.6537 0.0000 0.0000
# 5 0.0000 0.0000 0.0000 0.0000 21.3853 0.0000
# 6 0.0000 0.0000 0.0000 0.0000 0.0000 21.7263
#
#
#
# Elastic Compliance Matrix: (Units=1/GPa)
#
#
# Indices 1 2 3 4 5 6 
#
# 1 0.012900 -0.006269 -0.004510 0.000000 0.000000 0.000000
# 2 -0.006269 0.045556 -0.013249 0.000000 0.000000 0.000000
# 3 -0.004510 -0.013249 0.016072 0.000000 0.000000 0.000000
# 4 0.000000 0.000000 0.000000 0.056646 0.000000 0.000000
# 5 0.000000 0.000000 0.000000 0.000000 0.046761 0.000000
# 6 0.000000 0.000000 0.000000 0.000000 0.000000 0.046027
#
#
# Mechanical properties :
#
#
# Convention : Reuss Voigt Hill
#
# Bulk Modulus (GPa) = 37.77789 59.02341 48.40065
# Shear Modulus (GPa) = 17.80363 20.96042 19.38203
#
# Velocity S-wave (km/s) = 3.45853 3.75264 3.60859
# Velocity P-wave (km/s) = 6.42883 7.64405 7.06263
#
# Compressibility (1/GPa) = 0.02647051
#
# Stress axis : x y z
#
# Youngs Moduli (GPa) = 77.52063 21.95102 62.22131
#
# Poissons Ratio (x) = 0.13761 0.28064
# Poissons Ratio (y) = 0.48599 0.82437
# Poissons Ratio (z) = 0.34964 0.29083
#
# Static dielectric constant tensor:
#      x y z
#    x 3.171040 0.000000 0.000000 
#    y 0.000000 2.524200 0.000000 
#    z 0.000000 0.000000 3.068170 
# 
# 
# High freq. dielectric constant tensor:
#      x y z
#    x 1.584830 0.000000 0.000000 
#    y 0.000000 1.517620 0.000000 
#    z 0.000000 0.000000 1.564180 
# 
# From -- ./inp_files/58824.got.cif
#   From: 2010.06.25/outbox.cif.g09.slc.cpg/sg71_30_cif.got.tgz:58824.got - 2010.06.28 04:59:45.
