data_PCOD8292643
_publ_section_title
;
Structure prediction by ZEFSAII (Michael W. Deem and Ramdas Pophale) SiO2 
 PCOD8292643
Probable space group: I M M M
;
_chemical_formula_sum "Si O2"
_cell_formula_units_Z 72
_cell_length_a 13.308316
_cell_length_b 32.048453
_cell_length_c 9.827136
_cell_angle_alpha 90.000000
_cell_angle_beta 90.000000
_cell_angle_gamma 90.000000
_cell_volume 4191.381011
_symmetry_space_group_name_H-M "I M M M"
_symmetry_group_IT_number 71
_symmetry_cell_setting 'orthorhombic'
loop_
_space_group_symop_operation_xyz
x,y,z
-x,-y,z
x,-y,-z
-x,y,-z
-x,-y,-z
x,y,-z
-x,y,z
x,-y,z
1/2+x,1/2+y,1/2+z
1/2-x,1/2-y,1/2+z
1/2+x,1/2-y,1/2-z
1/2-x,1/2+y,1/2-z
1/2-x,1/2-y,1/2-z
1/2+x,1/2+y,1/2-z
1/2-x,1/2+y,1/2+z
1/2+x,1/2-y,1/2+z
loop_
_atom_site_type_symbol
_atom_site_label
_atom_site_fract_x
_atom_site_fract_y
_atom_site_fract_z
Si Si1 0.500000 0.952435 0.162351
Si Si2 0.384094 0.729881 0.155442
Si Si3 0.695857 0.905237 0.160865
Si Si4 0.732448 0.187789 0.842903
Si Si5 0.610895 0.547211 0.661763
O O1 0.599207 0.929415 0.220998
O O2 0.500000 0.000000 0.214318
O O3 0.500000 0.950673 0.000000
O O4 0.500000 0.726521 0.189214
O O5 0.351406 0.777364 0.185882
O O6 0.329808 0.697046 0.252676
O O7 0.359424 0.718072 0.000000
O O8 0.686827 0.856681 0.200714
O O9 0.799996 0.923905 0.222023
O O10 0.696614 0.911246 0.000000
O O11 0.766540 0.187254 0.000000
O O12 0.612591 0.548906 0.500000
O O13 0.500000 0.562309 0.712864
O O14 0.630394 0.500000 0.711293
#
# Coordination Sequence:
#
# PCOD8292643 Si02
#       5
#     8  16  16  16  16
#     4   9  16  24  36  58  91 127 155 181 221 275
#     4   9  18  32  48  63  87 122 153 186 232 282
#     4   9  16  24  37  58  84 114 148 185 220 261
#     4   9  18  30  45  68  91 115 151 192 229 269
#     4   8  13  21  32  47  73 109 140 167 209 262
#
# _framework density 17.178108000000002
#
# number of rings (size 3 to 8) (size 9 to 14) (size 15 to 20)
#    0.000    3.222    0.000    1.333    1.556    4.000 
#    0.000    2.222    0.000    0.000    0.000    0.000 
#    0.000    4.444    0.000   12.222    0.000    9.333 
#
# Total GULP energy -446227.174345 kJ/mol
# GULP energy per Si atom -12395.199287 kJ/mol
# Density = 1.713901 g / cm^3
# Si number density = 17.178108 Si / 1000 Ang^3
#
#
#
# Elastic Constant Matrix: (Units=GPa)
#
#
# Indices 1 2 3 4 5 6 
#
# 1 137.3362 71.3928 28.4439 0.0001 0.0004 0.0001
# 2 71.3928 121.6092 26.7978 0.0002 0.0003 0.0000
# 3 28.4439 26.7978 27.0507 0.0004 0.0032 0.0002
# 4 0.0001 0.0002 0.0004 12.0566 0.0002 0.0001
# 5 0.0004 0.0003 0.0032 0.0002 14.7903 0.0001
# 6 0.0001 0.0000 0.0002 0.0001 0.0001 24.2874
#
#
#
# Elastic Compliance Matrix: (Units=1/GPa)
#
#
# Indices 1 2 3 4 5 6 
#
# 1 0.011392 -0.005179 -0.006848 0.000000 0.000001 0.000000
# 2 -0.005179 0.012874 -0.007308 0.000000 0.000001 0.000000
# 3 -0.006848 -0.007308 0.051408 -0.000001 -0.000011 0.000000
# 4 0.000000 0.000000 -0.000001 0.082942 -0.000001 0.000000
# 5 0.000001 0.000001 -0.000011 -0.000001 0.067612 0.000000
# 6 0.000000 0.000000 0.000000 0.000000 0.000000 0.041174
#
#
# Mechanical properties :
#
#
# Convention : Reuss Voigt Hill
#
# Bulk Modulus (GPa) = 27.02410 59.91833 43.47122
# Shear Modulus (GPa) = 15.70321 20.85095 18.27708
#
# Velocity S-wave (km/s) = 3.02676 3.48776 3.26540
# Velocity P-wave (km/s) = 5.28969 7.15371 6.29112
#
# Compressibility (1/GPa) = 0.03700401
#
# Stress axis : x y z
#
# Youngs Moduli (GPa) = 87.78207 77.67782 19.45211
#
# Poissons Ratio (x) = 0.40227 0.13321
# Poissons Ratio (y) = 0.45460 0.14215
# Poissons Ratio (z) = 0.60116 0.56766
#
# Static dielectric constant tensor:
#      x y z
#    x 3.492270 0.000000 0.000000 
#    y 0.000000 3.294530 0.000000 
#    z 0.000000 0.000000 2.633080 
# 
# 
# High freq. dielectric constant tensor:
#      x y z
#    x 1.675020 0.000000 0.000000 
#    y 0.000000 1.668080 0.000000 
#    z 0.000000 0.000000 1.589530 
# 
# From -- ./inp_files/6468.got.cif
#   From: 2010.06.25/outbox.cif.g09.slc.cpg/sg71_4_cif.got.tgz:6468.got - 2010.06.28 04:59:45.
