data_PCOD8292498
_publ_section_title
;
Structure prediction by ZEFSAII (Michael W. Deem and Ramdas Pophale) SiO2 
 PCOD8292498
Probable space group: I M M M
;
_chemical_formula_sum "Si O2"
_cell_formula_units_Z 64
_cell_length_a 10.684819
_cell_length_b 32.943806
_cell_length_c 8.559899
_cell_angle_alpha 90.000000
_cell_angle_beta 90.000000
_cell_angle_gamma 90.000000
_cell_volume 3013.072501
_symmetry_space_group_name_H-M "I M M M"
_symmetry_group_IT_number 71
_symmetry_cell_setting 'orthorhombic'
loop_
_space_group_symop_operation_xyz
x,y,z
-x,-y,z
x,-y,-z
-x,y,-z
-x,-y,-z
x,y,-z
-x,y,z
x,-y,z
1/2+x,1/2+y,1/2+z
1/2-x,1/2-y,1/2+z
1/2+x,1/2-y,1/2-z
1/2-x,1/2+y,1/2-z
1/2-x,1/2-y,1/2-z
1/2+x,1/2+y,1/2-z
1/2-x,1/2+y,1/2+z
1/2+x,1/2-y,1/2+z
loop_
_atom_site_type_symbol
_atom_site_label
_atom_site_fract_x
_atom_site_fract_y
_atom_site_fract_z
Si Si1 0.252632 0.421927 0.817331
Si Si2 0.760043 0.836698 0.183637
Si Si3 0.500000 0.712794 0.314352
Si Si4 0.500000 0.048058 0.181570
Si Si5 0.500000 0.195207 0.315281
Si Si6 0.141269 0.000000 0.830597
O O1 0.300277 0.382374 0.726040
O O2 0.112870 0.431350 0.769172
O O3 0.334633 0.460363 0.770670
O O4 0.263782 0.413686 0.000000
O O5 0.872534 0.808290 0.248774
O O6 0.625957 0.826693 0.258733
O O7 0.745893 0.831634 0.000000
O O8 0.500000 0.710368 0.500000
O O9 0.500000 0.758751 0.251841
O O10 0.500000 0.000000 0.208319
O O11 0.500000 0.059725 0.000000
O O12 0.500000 0.194125 0.500000
O O13 0.000000 0.000000 0.878673
O O14 0.216650 0.000000 0.000000
#
# Coordination Sequence:
#
# PCOD8292498 Si02
#       6
#    16  16   8   8   8   8
#     4  12  25  41  63  94 129 164 207 264 318 367
#     4  11  23  42  66  95 129 172 217 262 317 387
#     4   9  22  42  68  96 127 167 214 264 321 384
#     4  11  22  39  64  89 117 160 211 255 308 375
#     4  11  22  42  67  98 132 165 209 267 326 383
#     4  11  25  44  65  88 121 169 215 257 308 375
#
# _framework density 21.240776
#
# number of rings (size 3 to 8) (size 9 to 14) (size 15 to 20)
#    0.000    1.000    1.250    5.625    1.750    1.500 
#    0.000    5.625    0.000    0.000    0.000    0.000 
#    0.000    0.000    0.000    0.000    0.000    0.000 
#
# Total GULP energy -396835.533148 kJ/mol
# GULP energy per Si atom -12401.110411 kJ/mol
# Density = 2.119243 g / cm^3
# Si number density = 21.240776 Si / 1000 Ang^3
#
#
#
# Elastic Constant Matrix: (Units=GPa)
#
#
# Indices 1 2 3 4 5 6 
#
# 1 115.2892 39.0904 26.7453 0.0006 -0.0069 0.0027
# 2 39.0904 145.3710 18.7336 -0.0096 0.0010 -0.0043
# 3 26.7453 18.7336 80.2025 -0.0141 -0.0033 0.0172
# 4 0.0006 -0.0096 -0.0141 29.0089 -0.0007 -0.0023
# 5 -0.0069 0.0010 -0.0033 -0.0007 16.0361 -0.0020
# 6 0.0027 -0.0043 0.0172 -0.0023 -0.0020 65.7799
#
#
#
# Elastic Compliance Matrix: (Units=1/GPa)
#
#
# Indices 1 2 3 4 5 6 
#
# 1 0.010130 -0.002360 -0.002827 -0.000002 0.000004 0.000000
# 2 -0.002360 0.007642 -0.000998 0.000002 -0.000002 0.000001
# 3 -0.002827 -0.000998 0.013644 0.000006 0.000002 -0.000004
# 4 -0.000002 0.000002 0.000006 0.034472 0.000001 0.000001
# 5 0.000004 -0.000002 0.000002 0.000001 0.062359 0.000002
# 6 0.000000 0.000001 -0.000004 0.000001 0.000002 0.015202
#
#
# Mechanical properties :
#
#
# Convention : Reuss Voigt Hill
#
# Bulk Modulus (GPa) = 52.50211 56.66681 54.58446
# Shear Modulus (GPa) = 30.83230 39.25121 35.04175
#
# Velocity S-wave (km/s) = 3.81407 4.30341 4.06611
# Velocity P-wave (km/s) = 6.64586 7.17138 6.91361
#
# Compressibility (1/GPa) = 0.01904685
#
# Stress axis : x y z
#
# Youngs Moduli (GPa) = 98.71996 130.85441 73.29096
#
# Poissons Ratio (x) = 0.30876 0.20718
# Poissons Ratio (y) = 0.23294 0.07316
# Poissons Ratio (z) = 0.27906 0.13062
#
# Static dielectric constant tensor:
#      x y z
#    x 3.967180 0.000010 -0.000020 
#    y 0.000010 4.362080 -0.000010 
#    z -0.000020 -0.000010 3.759290 
# 
# 
# High freq. dielectric constant tensor:
#      x y z
#    x 1.843490 0.000000 0.000000 
#    y 0.000000 1.848740 0.000000 
#    z 0.000000 0.000000 1.832480 
# 
# From -- ./inp_files/3852.got.cif
#   From: 2010.06.25/outbox.cif.g09.slc.cpg/sg71_2_cif.got.tgz:3852.got - 2010.06.28 04:59:45.
