data_PCOD8292019
_publ_section_title
;
Structure prediction by ZEFSAII (Michael W. Deem and Ramdas Pophale) SiO2 
 PCOD8292019
Probable space group: I M M M
;
_chemical_formula_sum "Si O2"
_cell_formula_units_Z 44
_cell_length_a 17.769711
_cell_length_b 11.706243
_cell_length_c 10.288658
_cell_angle_alpha 90.000000
_cell_angle_beta 90.000000
_cell_angle_gamma 90.000000
_cell_volume 2140.211193
_symmetry_space_group_name_H-M "I M M M"
_symmetry_group_IT_number 71
_symmetry_cell_setting 'orthorhombic'
loop_
_space_group_symop_operation_xyz
x,y,z
-x,-y,z
x,-y,-z
-x,y,-z
-x,-y,-z
x,y,-z
-x,y,z
x,-y,z
1/2+x,1/2+y,1/2+z
1/2-x,1/2-y,1/2+z
1/2+x,1/2-y,1/2-z
1/2-x,1/2+y,1/2-z
1/2-x,1/2-y,1/2-z
1/2+x,1/2+y,1/2-z
1/2-x,1/2+y,1/2+z
1/2+x,1/2-y,1/2+z
loop_
_atom_site_type_symbol
_atom_site_label
_atom_site_fract_x
_atom_site_fract_y
_atom_site_fract_z
Si Si1 0.084244 0.753531 0.264584
Si Si2 0.395166 0.500000 0.857125
Si Si3 0.827815 0.265116 0.000000
Si Si4 0.826747 0.363076 0.500000
Si Si5 0.747116 0.500000 0.000000
O O1 0.133988 0.689964 0.373007
O O2 0.000000 0.700622 0.266320
O O3 0.077066 0.888373 0.284769
O O4 0.120671 0.742666 0.125035
O O5 0.431980 0.500000 0.000000
O O6 0.304112 0.500000 0.869556
O O7 0.761171 0.171289 0.000000
O O8 0.797234 0.390852 0.000000
O O9 0.834127 0.500000 0.500000
#
# Coordination Sequence:
#
# PCOD8292019 Si02
#       5
#    16   8   8   8   4
#     4  12  26  45  69 101 137 175 221 276 334 394
#     4  10  21  43  72  98 129 171 228 280 323 383
#     4  12  27  45  69 100 137 175 221 276 334 397
#     4  12  27  44  73  96 135 178 227 272 325 399
#     4  10  22  44  72  96 126 178 228 270 328 388
#
# _framework density 20.558719
#
# number of rings (size 3 to 8) (size 9 to 14) (size 15 to 20)
#    0.545    0.000    5.455    2.727    5.091    2.182 
#    0.000    2.727    0.000    0.000    0.000    0.000 
#    0.000    0.000    0.000    0.000    0.000    0.000 
#
# Total GULP energy -272724.456787 kJ/mol
# GULP energy per Si atom -12396.566218 kJ/mol
# Density = 2.051193 g / cm^3
# Si number density = 20.558719 Si / 1000 Ang^3
#
#
#
# Elastic Constant Matrix: (Units=GPa)
#
#
# Indices 1 2 3 4 5 6 
#
# 1 118.5832 26.0070 58.6215 0.0000 0.0000 0.0000
# 2 26.0070 135.6478 33.9455 0.0000 0.0000 0.0000
# 3 58.6215 33.9455 164.3304 0.0000 0.0000 0.0000
# 4 0.0000 0.0000 0.0000 7.5044 0.0000 0.0000
# 5 0.0000 0.0000 0.0000 0.0000 46.2516 0.0000
# 6 0.0000 0.0000 0.0000 0.0000 0.0000 113.6021
#
#
#
# Elastic Compliance Matrix: (Units=1/GPa)
#
#
# Indices 1 2 3 4 5 6 
#
# 1 0.010398 -0.001123 -0.003477 0.000000 0.000000 0.000000
# 2 -0.001123 0.007895 -0.001230 0.000000 0.000000 0.000000
# 3 -0.003477 -0.001230 0.007580 0.000000 0.000000 0.000000
# 4 0.000000 0.000000 0.000000 0.133255 0.000000 0.000000
# 5 0.000000 0.000000 0.000000 0.000000 0.021621 0.000000
# 6 0.000000 0.000000 0.000000 0.000000 0.000000 0.008803
#
#
# Mechanical properties :
#
#
# Convention : Reuss Voigt Hill
#
# Bulk Modulus (GPa) = 70.36480 72.85658 71.61069
# Shear Modulus (GPa) = 24.27762 53.47078 38.87420
#
# Velocity S-wave (km/s) = 3.44014 5.10542 4.35315
# Velocity P-wave (km/s) = 7.07672 8.38266 7.75722
#
# Compressibility (1/GPa) = 0.01421165
#
# Stress axis : x y z
#
# Youngs Moduli (GPa) = 96.16974 126.65820 131.92836
#
# Poissons Ratio (x) = 0.14229 0.45876
# Poissons Ratio (y) = 0.10804 0.16229
# Poissons Ratio (z) = 0.33441 0.15581
#
# Static dielectric constant tensor:
#      x y z
#    x 4.088480 0.000000 0.000000 
#    y 0.000000 3.798590 0.000000 
#    z 0.000000 0.000000 3.826770 
# 
# 
# High freq. dielectric constant tensor:
#      x y z
#    x 1.823160 0.000000 0.000000 
#    y 0.000000 1.809360 0.000000 
#    z 0.000000 0.000000 1.805740 
# 
# From -- ./inp_files/22904.got.cif
#   From: 2010.06.25/outbox.cif.g09.slc.cpg/sg71_12_cif.got.tgz:22904.got - 2010.06.28 04:59:45.
