data_PCOD8292130
_publ_section_title
;
Structure prediction by ZEFSAII (Michael W. Deem and Ramdas Pophale) SiO2 
 PCOD8292130
Probable space group: I M M M
;
_chemical_formula_sum "Si O2"
_cell_formula_units_Z 88
_cell_length_a 28.651663
_cell_length_b 8.016809
_cell_length_c 18.774317
_cell_angle_alpha 90.000000
_cell_angle_beta 90.000000
_cell_angle_gamma 90.000000
_cell_volume 4312.365050
_symmetry_space_group_name_H-M "I M M M"
_symmetry_group_IT_number 71
_symmetry_cell_setting 'orthorhombic'
loop_
_space_group_symop_operation_xyz
x,y,z
-x,-y,z
x,-y,-z
-x,y,-z
-x,-y,-z
x,y,-z
-x,y,z
x,-y,z
1/2+x,1/2+y,1/2+z
1/2-x,1/2-y,1/2+z
1/2+x,1/2-y,1/2-z
1/2-x,1/2+y,1/2-z
1/2-x,1/2-y,1/2-z
1/2+x,1/2+y,1/2-z
1/2-x,1/2+y,1/2+z
1/2+x,1/2-y,1/2+z
loop_
_atom_site_type_symbol
_atom_site_label
_atom_site_fract_x
_atom_site_fract_y
_atom_site_fract_z
Si Si1 0.620306 0.814027 0.700220
Si Si2 0.295231 0.694075 0.919078
Si Si3 0.553329 0.694620 0.580769
Si Si4 0.779373 0.810770 0.183318
Si Si5 0.106729 0.809804 0.649648
Si Si6 0.444943 0.000000 0.918199
O O1 0.586892 0.793439 0.632929
O O2 0.673245 0.791465 0.674344
O O3 0.605846 0.692014 0.764513
O O4 0.614637 0.000000 0.730195
O O5 0.283612 0.500000 0.913308
O O6 0.251545 0.793900 0.887541
O O7 0.341496 0.738836 0.875365
O O8 0.302839 0.751525 0.000000
O O9 0.563132 0.753340 0.500000
O O10 0.500000 0.734141 0.601558
O O11 0.563799 0.500000 0.588218
O O12 0.750000 0.750000 0.250000
O O13 0.794080 0.000000 0.195748
O O14 0.072108 0.672061 0.617774
O O15 0.093458 0.000000 0.625096
O O16 0.500000 0.000000 0.910889
O O17 0.428484 0.000000 0.000000
#
# Coordination Sequence:
#
# PCOD8292130 Si02
#       6
#    16  16  16  16  16   8
#     4  12  24  40  64  94 130 173 218 268 323 384
#     4  10  22  40  63  92 124 163 213 264 320 387
#     4   9  20  41  67  94 126 166 213 266 326 390
#     4  12  24  39  60  89 125 165 208 258 321 381
#     4  11  23  43  68  96 131 173 218 271 330 389
#     4  11  26  46  68  98 133 169 219 277 331 397
#
# _framework density 20.406435999999999
#
# number of rings (size 3 to 8) (size 9 to 14) (size 15 to 20)
#    0.000    1.182    2.727    4.364    1.273    4.000 
#    0.000    1.818    0.000    0.000    0.000    0.000 
#    0.000    0.000    0.000    0.000    0.000    0.000 
#
# Total GULP energy -545762.089409 kJ/mol
# GULP energy per Si atom -12403.683850 kJ/mol
# Density = 2.035999 g / cm^3
# Si number density = 20.406436 Si / 1000 Ang^3
#
#
#
# Elastic Constant Matrix: (Units=GPa)
#
#
# Indices 1 2 3 4 5 6 
#
# 1 107.2813 40.6689 52.9146 0.0000 0.0000 0.0000
# 2 40.6689 100.4691 31.5582 0.0000 0.0000 0.0000
# 3 52.9146 31.5582 117.2485 0.0000 0.0000 0.0000
# 4 0.0000 0.0000 0.0000 30.4413 0.0000 0.0000
# 5 0.0000 0.0000 0.0000 0.0000 40.7861 0.0000
# 6 0.0000 0.0000 0.0000 0.0000 0.0000 32.5122
#
#
#
# Elastic Compliance Matrix: (Units=1/GPa)
#
#
# Indices 1 2 3 4 5 6 
#
# 1 0.013191 -0.003790 -0.004933 0.000000 0.000000 0.000000
# 2 -0.003790 0.011962 -0.001509 0.000000 0.000000 0.000000
# 3 -0.004933 -0.001509 0.011161 0.000000 0.000000 0.000000
# 4 0.000000 0.000000 0.000000 0.032850 0.000000 0.000000
# 5 0.000000 0.000000 0.000000 0.000000 0.024518 0.000000
# 6 0.000000 0.000000 0.000000 0.000000 0.000000 0.030758
#
#
# Mechanical properties :
#
#
# Convention : Reuss Voigt Hill
#
# Bulk Modulus (GPa) = 63.09307 63.92026 63.50667
# Shear Modulus (GPa) = 33.29164 34.07174 33.68169
#
# Velocity S-wave (km/s) = 4.04348 4.09058 4.06709
# Velocity P-wave (km/s) = 7.26532 7.32816 7.29681
#
# Compressibility (1/GPa) = 0.01584960
#
# Stress axis : x y z
#
# Youngs Moduli (GPa) = 75.80779 83.60145 89.59466
#
# Poissons Ratio (x) = 0.31686 0.44198
# Poissons Ratio (y) = 0.28732 0.13520
# Poissons Ratio (z) = 0.37397 0.12616
#
# Static dielectric constant tensor:
#      x y z
#    x 3.709380 0.000000 0.000000 
#    y 0.000000 3.800890 0.000000 
#    z 0.000000 0.000000 3.822430 
# 
# 
# High freq. dielectric constant tensor:
#      x y z
#    x 1.794040 0.000000 0.000000 
#    y 0.000000 1.804210 0.000000 
#    z 0.000000 0.000000 1.803430 
# 
# From -- ./inp_files/49239.got.cif
#   From: 2010.06.25/outbox.cif.g09.slc.cpg/sg71_25_cif.got.tgz:49239.got - 2010.06.28 04:59:45.
