data_PCOD8292325
_publ_section_title
;
Structure prediction by ZEFSAII (Michael W. Deem and Ramdas Pophale) SiO2 
 PCOD8292325
Probable space group: I M M M
;
_chemical_formula_sum "Si O2"
_cell_formula_units_Z 48
_cell_length_a 9.843361
_cell_length_b 10.234965
_cell_length_c 24.446423
_cell_angle_alpha 90.000000
_cell_angle_beta 90.000000
_cell_angle_gamma 90.000000
_cell_volume 2462.890462
_symmetry_space_group_name_H-M "I M M M"
_symmetry_group_IT_number 71
_symmetry_cell_setting 'orthorhombic'
loop_
_space_group_symop_operation_xyz
x,y,z
-x,-y,z
x,-y,-z
-x,y,-z
-x,-y,-z
x,y,-z
-x,y,z
x,-y,z
1/2+x,1/2+y,1/2+z
1/2-x,1/2-y,1/2+z
1/2+x,1/2-y,1/2-z
1/2-x,1/2+y,1/2-z
1/2-x,1/2-y,1/2-z
1/2+x,1/2+y,1/2-z
1/2-x,1/2+y,1/2+z
1/2+x,1/2-y,1/2+z
loop_
_atom_site_type_symbol
_atom_site_label
_atom_site_fract_x
_atom_site_fract_y
_atom_site_fract_z
Si Si1 0.265164 0.736561 0.373144
Si Si2 0.335151 0.000000 0.686440
Si Si3 0.500000 0.357006 0.562710
Si Si4 0.160567 0.000000 0.795418
Si Si5 0.000000 0.344153 0.564194
O O1 0.279427 0.876655 0.346234
O O2 0.370000 0.727009 0.422628
O O3 0.300980 0.629461 0.328039
O O4 0.122815 0.716369 0.402176
O O5 0.260766 0.000000 0.744135
O O6 0.500000 0.000000 0.692976
O O7 0.500000 0.500000 0.593368
O O8 0.500000 0.387292 0.500000
O O9 0.000000 0.000000 0.779054
O O10 0.000000 0.500000 0.568478
O O11 0.000000 0.302288 0.500000
#
# Coordination Sequence:
#
# PCOD8292325 Si02
#       5
#    16   8   8   8   8
#     4  12  23  44  66 100 135 170 220 275 327 395
#     4  12  28  44  67  96 138 178 221 270 337 398
#     4  11  20  39  70  96 123 168 221 277 324 382
#     4  12  24  44  69  98 128 178 231 276 327 386
#     4  11  24  43  72 104 131 172 223 273 330 390
#
# _framework density 19.489296
#
# number of rings (size 3 to 8) (size 9 to 14) (size 15 to 20)
#    0.000    0.333    6.667    2.000    4.667    2.667 
#    0.000    5.000    0.000    0.000    0.000    0.000 
#    0.000    0.000    0.000    0.000    0.000    0.000 
#
# Total GULP energy -297516.998942 kJ/mol
# GULP energy per Si atom -12396.541623 kJ/mol
# Density = 1.944494 g / cm^3
# Si number density = 19.489296 Si / 1000 Ang^3
#
#
#
# Elastic Constant Matrix: (Units=GPa)
#
#
# Indices 1 2 3 4 5 6 
#
# 1 202.2019 56.2059 81.1399 0.0000 0.0000 0.0000
# 2 56.2059 154.8355 68.2580 0.0000 0.0000 0.0000
# 3 81.1399 68.2580 116.9016 0.0000 0.0000 0.0000
# 4 0.0000 0.0000 0.0000 3.6805 0.0000 0.0000
# 5 0.0000 0.0000 0.0000 0.0000 62.0527 0.0000
# 6 0.0000 0.0000 0.0000 0.0000 0.0000 34.9365
#
#
#
# Elastic Compliance Matrix: (Units=1/GPa)
#
#
# Indices 1 2 3 4 5 6 
#
# 1 0.006887 -0.000529 -0.004471 0.000000 0.000000 0.000000
# 2 -0.000529 0.008738 -0.004735 0.000000 0.000000 0.000000
# 3 -0.004471 -0.004735 0.014422 0.000000 0.000000 0.000000
# 4 0.000000 0.000000 0.000000 0.271699 0.000000 0.000000
# 5 0.000000 0.000000 0.000000 0.000000 0.016115 0.000000
# 6 0.000000 0.000000 0.000000 0.000000 0.000000 0.028623
#
#
# Mechanical properties :
#
#
# Convention : Reuss Voigt Hill
#
# Bulk Modulus (GPa) = 94.54511 98.34961 96.44736
# Shear Modulus (GPa) = 13.53251 38.02297 25.77774
#
# Velocity S-wave (km/s) = 2.63792 4.42177 3.64079
# Velocity P-wave (km/s) = 7.60886 8.75456 8.20174
#
# Compressibility (1/GPa) = 0.01057696
#
# Stress axis : x y z
#
# Youngs Moduli (GPa) = 145.20577 114.44591 69.33708
#
# Poissons Ratio (x) = 0.06052 0.31002
# Poissons Ratio (y) = 0.07679 0.32830
# Poissons Ratio (z) = 0.64925 0.54189
#
# Static dielectric constant tensor:
#      x y z
#    x 3.441130 0.000000 0.000000 
#    y 0.000000 3.750380 0.000000 
#    z 0.000000 0.000000 3.704660 
# 
# 
# High freq. dielectric constant tensor:
#      x y z
#    x 1.780070 0.000000 0.000000 
#    y 0.000000 1.759540 0.000000 
#    z 0.000000 0.000000 1.772390 
# 
# From -- ./inp_files/2260.got.cif
#   From: 2010.06.25/outbox.cif.g09.slc.cpg/sg71_2_cif.got.tgz:2260.got - 2010.06.28 04:59:45.
