data_PCOD8292119
_publ_section_title
;
Structure prediction by ZEFSAII (Michael W. Deem and Ramdas Pophale) SiO2 
 PCOD8292119
Probable space group: I M M M
;
_chemical_formula_sum "Si O2"
_cell_formula_units_Z 88
_cell_length_a 11.279378
_cell_length_b 19.703018
_cell_length_c 20.471339
_cell_angle_alpha 90.000000
_cell_angle_beta 90.000000
_cell_angle_gamma 90.000000
_cell_volume 4549.505092
_symmetry_space_group_name_H-M "I M M M"
_symmetry_group_IT_number 71
_symmetry_cell_setting 'orthorhombic'
loop_
_space_group_symop_operation_xyz
x,y,z
-x,-y,z
x,-y,-z
-x,y,-z
-x,-y,-z
x,y,-z
-x,y,z
x,-y,z
1/2+x,1/2+y,1/2+z
1/2-x,1/2-y,1/2+z
1/2+x,1/2-y,1/2-z
1/2-x,1/2+y,1/2-z
1/2-x,1/2-y,1/2-z
1/2+x,1/2+y,1/2-z
1/2-x,1/2+y,1/2+z
1/2+x,1/2-y,1/2+z
loop_
_atom_site_type_symbol
_atom_site_label
_atom_site_fract_x
_atom_site_fract_y
_atom_site_fract_z
Si Si1 0.781014 0.884045 0.425993
Si Si2 0.000000 0.924430 0.652171
Si Si3 0.500000 0.579342 0.694553
Si Si4 0.761589 0.883062 0.133736
Si Si5 0.360562 0.000000 0.212788
Si Si6 0.369272 0.577414 0.500000
Si Si7 0.138702 0.739356 0.426257
Si Si8 0.860920 0.500000 0.139246
O O1 0.809712 0.908000 0.500000
O O2 0.886360 0.889750 0.375979
O O3 0.767426 0.802494 0.424743
O O4 0.674980 0.930854 0.398709
O O5 0.000000 0.919891 0.728860
O O6 0.000000 0.000000 0.625628
O O7 0.500000 0.500000 0.668969
O O8 0.612929 0.621828 0.670444
O O9 0.689322 0.812755 0.127793
O O10 0.679835 0.934031 0.173974
O O11 0.787503 0.906811 0.061130
O O12 0.306911 0.000000 0.286887
O O13 0.500000 0.000000 0.217088
O O14 0.401489 0.500000 0.500000
O O15 0.500000 0.615029 0.500000
O O16 0.143045 0.709209 0.500000
O O17 0.000000 0.757845 0.409911
O O18 0.000000 0.500000 0.142574
#
# Coordination Sequence:
#
# PCOD8292119 Si02
#       8
#    16   8   8  16   8   8  16   8
#     4  11  22  40  68  95 122 154 196 255 314 369
#     4  11  21  36  66  98 121 149 202 255 304 366
#     4  11  22  38  60  90 128 163 204 253 302 360
#     4  12  21  38  61  87 122 167 209 251 305 362
#     4  11  24  41  62  87 123 168 209 257 302 359
#     4  11  20  34  56  92 124 153 206 265 304 356
#     4  10  22  40  61  90 127 160 197 256 313 360
#     4  11  25  45  64  91 130 160 199 251 310 371
#
# _framework density 19.342763000000001
#
# number of rings (size 3 to 8) (size 9 to 14) (size 15 to 20)
#    0.000    1.000    5.455    2.182    0.000    1.091 
#    1.636    4.091    0.000    0.000    0.000    0.000 
#    0.000    0.000    0.000    0.000    0.000    0.000 
#
# Total GULP energy -545122.087404 kJ/mol
# GULP energy per Si atom -12389.138350 kJ/mol
# Density = 1.929874 g / cm^3
# Si number density = 19.342763 Si / 1000 Ang^3
#
#
#
# Elastic Constant Matrix: (Units=GPa)
#
#
# Indices 1 2 3 4 5 6 
#
# 1 86.5367 41.5240 33.4001 0.0000 0.0000 0.0000
# 2 41.5240 111.4432 47.3208 0.0000 0.0000 0.0000
# 3 33.4001 47.3208 95.6656 0.0000 0.0000 0.0000
# 4 0.0000 0.0000 0.0000 -2.2807 0.0000 0.0000
# 5 0.0000 0.0000 0.0000 0.0000 31.9337 0.0000
# 6 0.0000 0.0000 0.0000 0.0000 0.0000 30.8987
#
#
#
# Elastic Compliance Matrix: (Units=1/GPa)
#
#
# Indices 1 2 3 4 5 6 
#
# 1 0.014755 -0.004190 -0.003079 0.000000 0.000000 0.000000
# 2 -0.004190 0.012549 -0.004744 0.000000 0.000000 0.000000
# 3 -0.003079 -0.004744 0.013875 0.000000 0.000000 0.000000
# 4 0.000000 0.000000 0.000000 -0.438468 0.000000 0.000000
# 5 0.000000 0.000000 0.000000 0.000000 0.031315 0.000000
# 6 0.000000 0.000000 0.000000 0.000000 0.000000 0.032364
#
#
# Mechanical properties :
#
#
# Convention : Reuss Voigt Hill
#
# Bulk Modulus (GPa) = 58.30299 59.79282 59.04790
# Shear Modulus (GPa) = -16.45459 23.53704 3.54122
#
# Velocity S-wave (km/s) = -2.91981 3.49211 1.35453
# Velocity P-wave (km/s) = 4.34055 6.87307 5.74802
#
# Compressibility (1/GPa) = 0.01715178
#
# Stress axis : x y z
#
# Youngs Moduli (GPa) = 67.77473 79.68706 72.07357
#
# Poissons Ratio (x) = 0.33392 0.22189
# Poissons Ratio (y) = 0.28401 0.34194
# Poissons Ratio (z) = 0.20865 0.37806
#
# Static dielectric constant tensor:
#      x y z
#    x 3.587240 0.000000 0.000000 
#    y 0.000000 3.682090 0.000000 
#    z 0.000000 0.000000 3.723520 
# 
# 
# High freq. dielectric constant tensor:
#      x y z
#    x 1.750400 0.000000 0.000000 
#    y 0.000000 1.741130 0.000000 
#    z 0.000000 0.000000 1.766150 
# 
# From -- ./inp_files/51856.got.cif
#   From: 2010.06.25/outbox.cif.g09.slc.cpg/sg71_26_cif.got.tgz:51856.got - 2010.06.28 04:59:45.
