data_PCOD8292645
_publ_section_title
;
Structure prediction by ZEFSAII (Michael W. Deem and Ramdas Pophale) SiO2 
 PCOD8292645
Probable space group: I M M M
;
_chemical_formula_sum "Si O2"
_cell_formula_units_Z 80
_cell_length_a 14.461947
_cell_length_b 34.259607
_cell_length_c 9.774924
_cell_angle_alpha 90.000000
_cell_angle_beta 90.000000
_cell_angle_gamma 90.000000
_cell_volume 4843.089912
_symmetry_space_group_name_H-M "I M M M"
_symmetry_group_IT_number 71
_symmetry_cell_setting 'orthorhombic'
loop_
_space_group_symop_operation_xyz
x,y,z
-x,-y,z
x,-y,-z
-x,y,-z
-x,-y,-z
x,y,-z
-x,y,z
x,-y,z
1/2+x,1/2+y,1/2+z
1/2-x,1/2-y,1/2+z
1/2+x,1/2-y,1/2-z
1/2-x,1/2+y,1/2-z
1/2-x,1/2-y,1/2-z
1/2+x,1/2+y,1/2-z
1/2-x,1/2+y,1/2+z
1/2+x,1/2-y,1/2+z
loop_
_atom_site_type_symbol
_atom_site_label
_atom_site_fract_x
_atom_site_fract_y
_atom_site_fract_z
Si Si1 0.609181 0.191751 0.656568
Si Si2 0.604109 0.956786 0.662837
Si Si3 0.215632 0.615800 0.162742
Si Si4 0.390233 0.260218 0.847868
Si Si5 0.101747 0.153087 0.662665
O O1 0.638066 0.199384 0.500000
O O2 0.500000 0.187450 0.672449
O O3 0.653586 0.151930 0.713196
O O4 0.649698 0.227917 0.743826
O O5 0.605544 0.955292 0.500000
O O6 0.500000 0.947747 0.714045
O O7 0.674282 0.924435 0.724424
O O8 0.634911 0.000000 0.712934
O O9 0.321598 0.621919 0.213997
O O10 0.212465 0.613863 0.000000
O O11 0.500000 0.257016 0.853561
O O12 0.364514 0.303552 0.793509
O O13 0.349419 0.252928 0.000000
O O14 0.094672 0.152748 0.500000
O O15 0.000000 0.142814 0.724357
#
# Coordination Sequence:
#
# PCOD8292645 Si02
#       5
#    16  16  16  16  16
#     4   9  16  24  35  54  78  99 121 154 193 226
#     4   8  13  21  33  49  70  95 118 140 175 227
#     4   9  15  22  34  51  70  92 118 150 187 223
#     4   8  14  25  38  50  69 100 133 159 183 216
#     4   8  14  24  36  48  63  89 126 159 182 211
#
# _framework density 16.518378999999999
#
# number of rings (size 3 to 8) (size 9 to 14) (size 15 to 20)
#    0.000    3.600    0.000    2.400    0.000    3.200 
#    0.000    0.000    0.000    0.600    0.000    4.200 
#    0.000    0.800    0.000    7.400    0.000    8.000 
#
# Total GULP energy -495602.896374 kJ/mol
# GULP energy per Si atom -12390.072409 kJ/mol
# Density = 1.648078 g / cm^3
# Si number density = 16.518379 Si / 1000 Ang^3
#
#
#
# Elastic Constant Matrix: (Units=GPa)
#
#
# Indices 1 2 3 4 5 6 
#
# 1 84.0702 80.8804 15.4792 -0.0005 0.0015 -0.0001
# 2 80.8804 147.8189 21.9170 -0.0027 0.0002 0.0005
# 3 15.4792 21.9170 20.1315 -0.0090 0.0079 0.0022
# 4 -0.0005 -0.0027 -0.0090 12.9074 0.0009 0.0011
# 5 0.0015 0.0002 0.0079 0.0009 5.7779 -0.0003
# 6 -0.0001 0.0005 0.0022 0.0011 -0.0003 29.0348
#
#
#
# Elastic Compliance Matrix: (Units=1/GPa)
#
#
# Indices 1 2 3 4 5 6 
#
# 1 0.025578 -0.013212 -0.005283 -0.000005 0.000001 0.000001
# 2 -0.013212 0.014892 -0.006054 -0.000002 0.000011 0.000000
# 3 -0.005283 -0.006054 0.060327 0.000041 -0.000081 -0.000004
# 4 -0.000005 -0.000002 0.000041 0.077475 -0.000012 -0.000003
# 5 0.000001 0.000011 -0.000081 -0.000012 0.173075 0.000002
# 6 0.000001 0.000000 -0.000004 -0.000003 0.000002 0.034441
#
#
# Mechanical properties :
#
#
# Convention : Reuss Voigt Hill
#
# Bulk Modulus (GPa) = 19.34303 54.28599 36.81451
# Shear Modulus (GPa) = 11.05904 18.46027 14.75965
#
# Velocity S-wave (km/s) = 2.59027 3.34662 2.99244
# Velocity P-wave (km/s) = 4.54769 6.91871 5.85448
#
# Compressibility (1/GPa) = 0.05169822
#
# Stress axis : x y z
#
# Youngs Moduli (GPa) = 39.09550 67.15144 16.57645
#
# Poissons Ratio (x) = 0.88721 0.08758
# Poissons Ratio (y) = 0.51653 0.10035
# Poissons Ratio (z) = 0.20656 0.40651
#
# Static dielectric constant tensor:
#      x y z
#    x 3.290500 0.000000 0.000000 
#    y 0.000000 3.389510 0.000000 
#    z 0.000000 0.000000 2.666410 
# 
# 
# High freq. dielectric constant tensor:
#      x y z
#    x 1.637960 0.000000 0.000000 
#    y 0.000000 1.627280 0.000000 
#    z 0.000000 0.000000 1.562360 
# 
# From -- ./inp_files/22151.got.cif
#   From: 2010.06.25/outbox.cif.g09.slc.cpg/sg71_12_cif.got.tgz:22151.got - 2010.06.28 04:59:45.
