data_PCOD8292143
_publ_section_title
;
Structure prediction by ZEFSAII (Michael W. Deem and Ramdas Pophale) SiO2 
 PCOD8292143
Probable space group: I M M M
;
_chemical_formula_sum "Si O2"
_cell_formula_units_Z 88
_cell_length_a 8.867210
_cell_length_b 27.575534
_cell_length_c 17.558176
_cell_angle_alpha 90.000000
_cell_angle_beta 90.000000
_cell_angle_gamma 90.000000
_cell_volume 4293.290972
_symmetry_space_group_name_H-M "I M M M"
_symmetry_group_IT_number 71
_symmetry_cell_setting 'orthorhombic'
loop_
_space_group_symop_operation_xyz
x,y,z
-x,-y,z
x,-y,-z
-x,y,-z
-x,-y,-z
x,y,-z
-x,y,z
x,-y,z
1/2+x,1/2+y,1/2+z
1/2-x,1/2-y,1/2+z
1/2+x,1/2-y,1/2-z
1/2-x,1/2+y,1/2-z
1/2-x,1/2-y,1/2-z
1/2+x,1/2+y,1/2-z
1/2-x,1/2+y,1/2+z
1/2+x,1/2-y,1/2+z
loop_
_atom_site_type_symbol
_atom_site_label
_atom_site_fract_x
_atom_site_fract_y
_atom_site_fract_z
Si Si1 0.824848 0.359933 0.413714
Si Si2 0.678888 0.763298 0.169280
Si Si3 0.176185 0.677728 0.912538
Si Si4 0.177998 0.054512 0.167642
Si Si5 0.832390 0.500000 0.911152
Si Si6 0.821416 0.088102 0.665850
O O1 0.786940 0.344021 0.500000
O O2 0.773174 0.317494 0.355910
O O3 0.739853 0.409999 0.396877
O O4 0.000000 0.370338 0.403425
O O5 0.500000 0.757786 0.174113
O O6 0.750000 0.750000 0.250000
O O7 0.742436 0.728316 0.104018
O O8 0.245175 0.638481 0.855763
O O9 0.000000 0.682841 0.894948
O O10 0.205545 0.662913 0.000000
O O11 0.229661 0.074539 0.249338
O O12 0.000000 0.053313 0.162050
O O13 0.242293 0.000000 0.156083
O O14 0.738153 0.547066 0.889879
O O15 0.000000 0.500000 0.873240
O O16 0.853863 0.500000 0.000000
O O17 0.000000 0.092665 0.657502
#
# Coordination Sequence:
#
# PCOD8292143 Si02
#       6
#    16  16  16  16   8  16
#     4  10  23  42  63  90 123 158 200 249 302 364
#     4  11  23  41  65  92 124 162 204 252 307 369
#     4  11  24  40  59  88 126 163 204 255 307 364
#     4  10  22  41  62  88 121 156 200 252 306 363
#     4  11  23  37  55  83 120 159 202 255 311 364
#     4  11  22  39  61  86 119 161 208 254 304 367
#
# _framework density 20.497095999999999
#
# number of rings (size 3 to 8) (size 9 to 14) (size 15 to 20)
#    0.000    1.364    0.909    4.091    0.000   12.000 
#    0.000    1.818    0.000    0.000    0.000    0.000 
#    0.000    0.000    0.000    0.000    0.000    0.000 
#
# Total GULP energy -545795.092552 kJ/mol
# GULP energy per Si atom -12404.433922 kJ/mol
# Density = 2.045044 g / cm^3
# Si number density = 20.497096 Si / 1000 Ang^3
#
#
#
# Elastic Constant Matrix: (Units=GPa)
#
#
# Indices 1 2 3 4 5 6 
#
# 1 74.5563 47.4511 37.8147 0.0000 0.0000 0.0000
# 2 47.4511 149.9722 48.4461 0.0000 0.0000 0.0000
# 3 37.8147 48.4461 92.4443 -0.0003 0.0000 -0.0001
# 4 0.0000 0.0000 -0.0003 42.6565 0.0000 0.0000
# 5 0.0000 0.0000 0.0000 0.0000 34.5709 0.0000
# 6 0.0000 0.0000 -0.0001 0.0000 0.0000 39.6735
#
#
#
# Elastic Compliance Matrix: (Units=1/GPa)
#
#
# Indices 1 2 3 4 5 6 
#
# 1 0.018883 -0.004188 -0.005529 0.000000 0.000000 0.000000
# 2 -0.004188 0.008956 -0.002980 0.000000 0.000000 0.000000
# 3 -0.005529 -0.002980 0.014641 0.000000 0.000000 0.000000
# 4 0.000000 0.000000 0.000000 0.023443 0.000000 0.000000
# 5 0.000000 0.000000 0.000000 0.000000 0.028926 0.000000
# 6 0.000000 0.000000 0.000000 0.000000 0.000000 0.025206
#
#
# Mechanical properties :
#
#
# Convention : Reuss Voigt Hill
#
# Bulk Modulus (GPa) = 58.53381 64.93295 61.73338
# Shear Modulus (GPa) = 33.08105 35.59757 34.33931
#
# Velocity S-wave (km/s) = 4.02174 4.17191 4.09751
# Velocity P-wave (km/s) = 7.08414 7.41312 7.25049
#
# Compressibility (1/GPa) = 0.01708414
#
# Stress axis : x y z
#
# Youngs Moduli (GPa) = 52.95845 111.65988 68.30252
#
# Poissons Ratio (x) = 0.46768 0.37765
# Poissons Ratio (y) = 0.22181 0.20355
# Poissons Ratio (z) = 0.29281 0.33275
#
# Static dielectric constant tensor:
#      x y z
#    x 3.725710 0.000000 0.000000 
#    y 0.000000 3.974400 0.000000 
#    z 0.000000 0.000000 3.744720 
# 
# 
# High freq. dielectric constant tensor:
#      x y z
#    x 1.804840 0.000000 0.000000 
#    y 0.000000 1.815310 0.000000 
#    z 0.000000 0.000000 1.805850 
# 
# From -- ./inp_files/42464.got.cif
#   From: 2010.06.25/outbox.cif.g09.slc.cpg/sg71_22_cif.got.tgz:42464.got - 2010.06.28 04:59:45.
