data_PCOD8292474
_publ_section_title
;
Structure prediction by ZEFSAII (Michael W. Deem and Ramdas Pophale) SiO2 
 PCOD8292474
Probable space group: I M M M
;
_chemical_formula_sum "Si O2"
_cell_formula_units_Z 72
_cell_length_a 16.750536
_cell_length_b 24.655254
_cell_length_c 8.448944
_cell_angle_alpha 90.000000
_cell_angle_beta 90.000000
_cell_angle_gamma 90.000000
_cell_volume 3489.318566
_symmetry_space_group_name_H-M "I M M M"
_symmetry_group_IT_number 71
_symmetry_cell_setting 'orthorhombic'
loop_
_space_group_symop_operation_xyz
x,y,z
-x,-y,z
x,-y,-z
-x,y,-z
-x,-y,-z
x,y,-z
-x,y,z
x,-y,z
1/2+x,1/2+y,1/2+z
1/2-x,1/2-y,1/2+z
1/2+x,1/2-y,1/2-z
1/2-x,1/2+y,1/2-z
1/2-x,1/2-y,1/2-z
1/2+x,1/2+y,1/2-z
1/2-x,1/2+y,1/2+z
1/2+x,1/2-y,1/2+z
loop_
_atom_site_type_symbol
_atom_site_label
_atom_site_fract_x
_atom_site_fract_y
_atom_site_fract_z
Si Si1 0.910974 0.559481 0.311727
Si Si2 0.087751 0.252237 0.181494
Si Si3 0.000000 0.936473 0.186866
Si Si4 0.305001 0.155730 0.814457
Si Si5 0.631209 0.357923 0.183994
O O1 0.909556 0.560711 0.500000
O O2 0.883537 0.500000 0.251919
O O3 0.851690 0.604255 0.241907
O O4 0.000000 0.572026 0.250050
O O5 0.160085 0.290685 0.233022
O O6 0.084947 0.197972 0.286066
O O7 0.000000 0.279998 0.203056
O O8 0.102490 0.235704 0.000000
O O9 0.079352 0.908901 0.257436
O O10 0.000000 0.000000 0.232796
O O11 0.000000 0.928084 0.000000
O O12 0.212994 0.146149 0.780331
O O13 0.319355 0.162040 0.000000
O O14 0.649447 0.365482 0.000000
#
# Coordination Sequence:
#
# PCOD8292474 Si02
#       5
#    16  16   8  16  16
#     4   8  15  30  53  82 116 154 197 246 298 355
#     4  11  23  40  63  89 124 164 207 257 316 380
#     4  11  25  47  73  97 123 161 210 261 318 381
#     4  11  22  36  59  91 126 162 208 258 313 376
#     4  12  25  42  64  90 124 161 204 257 314 374
#
# _framework density 20.634401
#
# number of rings (size 3 to 8) (size 9 to 14) (size 15 to 20)
#    0.000    1.444    1.111    5.667    0.000    4.000 
#    0.000    2.222    0.000    2.000    0.000    7.778 
#    0.000    0.000    0.000    0.000    0.000    0.000 
#
# Total GULP energy -446413.280161 kJ/mol
# GULP energy per Si atom -12400.368893 kJ/mol
# Density = 2.058744 g / cm^3
# Si number density = 20.634401 Si / 1000 Ang^3
#
#
#
# Elastic Constant Matrix: (Units=GPa)
#
#
# Indices 1 2 3 4 5 6 
#
# 1 119.1322 52.2480 8.5572 0.0000 0.0000 0.0000
# 2 52.2480 130.0463 21.9474 0.0000 0.0000 0.0000
# 3 8.5572 21.9474 57.9025 0.0000 0.0000 0.0000
# 4 0.0000 0.0000 0.0000 25.6263 0.0000 0.0000
# 5 0.0000 0.0000 0.0000 0.0000 13.2979 0.0000
# 6 0.0000 0.0000 0.0000 0.0000 0.0000 24.4933
#
#
#
# Elastic Compliance Matrix: (Units=1/GPa)
#
#
# Indices 1 2 3 4 5 6 
#
# 1 0.010190 -0.004102 0.000049 0.000000 0.000000 0.000000
# 2 -0.004102 0.009866 -0.003134 0.000000 0.000000 0.000000
# 3 0.000049 -0.003134 0.018451 0.000000 0.000000 0.000000
# 4 0.000000 0.000000 0.000000 0.039022 0.000000 0.000000
# 5 0.000000 0.000000 0.000000 0.000000 0.075200 0.000000
# 6 0.000000 0.000000 0.000000 0.000000 0.000000 0.040828
#
#
# Mechanical properties :
#
#
# Convention : Reuss Voigt Hill
#
# Bulk Modulus (GPa) = 41.43596 52.50958 46.97277
# Shear Modulus (GPa) = 23.15088 27.63872 25.39480
#
# Velocity S-wave (km/s) = 3.35319 3.66382 3.51194
# Velocity P-wave (km/s) = 5.92592 6.58794 6.26568
#
# Compressibility (1/GPa) = 0.02413363
#
# Stress axis : x y z
#
# Youngs Moduli (GPa) = 98.13959 101.35333 54.19786
#
# Poissons Ratio (x) = 0.41576 -0.00265
# Poissons Ratio (y) = 0.40258 0.16983
# Poissons Ratio (z) = -0.00481 0.31760
#
# Static dielectric constant tensor:
#      x y z
#    x 3.827880 0.000000 0.000000 
#    y 0.000000 3.966610 0.000000 
#    z 0.000000 0.000000 3.528000 
# 
# 
# High freq. dielectric constant tensor:
#      x y z
#    x 1.818010 0.000000 0.000000 
#    y 0.000000 1.810690 0.000000 
#    z 0.000000 0.000000 1.793870 
# 
# From -- ./inp_files/7960.got.cif
#   From: 2010.06.25/outbox.cif.g09.slc.cpg/sg71_4_cif.got.tgz:7960.got - 2010.06.28 04:59:45.
