data_PCOD8292043
_publ_section_title
;
Structure prediction by ZEFSAII (Michael W. Deem and Ramdas Pophale) SiO2 
 PCOD8292043
Probable space group: I M M M
;
_chemical_formula_sum "Si O2"
_cell_formula_units_Z 88
_cell_length_a 13.915990
_cell_length_b 27.175292
_cell_length_c 11.826981
_cell_angle_alpha 90.000000
_cell_angle_beta 90.000000
_cell_angle_gamma 90.000000
_cell_volume 4472.622317
_symmetry_space_group_name_H-M "I M M M"
_symmetry_group_IT_number 71
_symmetry_cell_setting 'orthorhombic'
loop_
_space_group_symop_operation_xyz
x,y,z
-x,-y,z
x,-y,-z
-x,y,-z
-x,-y,-z
x,y,-z
-x,y,z
x,-y,z
1/2+x,1/2+y,1/2+z
1/2-x,1/2-y,1/2+z
1/2+x,1/2-y,1/2-z
1/2-x,1/2+y,1/2-z
1/2-x,1/2-y,1/2-z
1/2+x,1/2+y,1/2-z
1/2-x,1/2+y,1/2+z
1/2+x,1/2-y,1/2+z
loop_
_atom_site_type_symbol
_atom_site_label
_atom_site_fract_x
_atom_site_fract_y
_atom_site_fract_z
Si Si1 0.000000 0.279371 0.135130
Si Si2 0.000000 0.834782 0.867503
Si Si3 0.386004 0.384240 0.000000
Si Si4 0.329283 0.213295 0.792840
Si Si5 0.106194 0.224242 0.500000
Si Si6 0.297795 0.623563 0.367577
Si Si7 0.734380 0.557808 0.171606
Si Si8 0.894488 0.557617 0.000000
O O1 0.903924 0.301616 0.192836
O O2 0.000000 0.221955 0.166279
O O3 0.000000 0.289498 0.000000
O O4 0.097174 0.859857 0.821044
O O5 0.000000 0.840042 0.000000
O O6 0.350613 0.412798 0.110838
O O7 0.500000 0.385404 0.000000
O O8 0.338330 0.328592 0.000000
O O9 0.250000 0.250000 0.750000
O O10 0.381159 0.241791 0.892274
O O11 0.280679 0.164814 0.842020
O O12 0.000000 0.203855 0.500000
O O13 0.300098 0.611541 0.500000
O O14 0.265071 0.574270 0.302385
O O15 0.714467 0.500000 0.162310
O O16 0.835329 0.572480 0.112287
O O17 0.910670 0.500000 0.000000
O O18 0.000000 0.583793 0.000000
#
# Coordination Sequence:
#
# PCOD8292043 Si02
#       8
#     8   8   8  16   8  16  16   8
#     4  11  24  41  61  90 125 163 210 265 319 375
#     4   9  20  38  58  85 118 160 205 243 300 372
#     4  10  22  37  61  94 130 164 208 253 319 382
#     4  12  23  38  62  87 126 164 208 258 311 377
#     4  11  23  40  61  92 126 173 210 250 318 393
#     4  11  23  41  63  88 123 167 210 258 314 372
#     4  10  22  40  62  92 123 161 213 263 316 374
#     4   8  16  38  67  88 113 148 196 259 323 376
#
# _framework density 19.675257999999999
#
# number of rings (size 3 to 8) (size 9 to 14) (size 15 to 20)
#    0.000    1.545    3.636    1.909    2.545    1.091 
#    4.909    0.000    0.000    1.636    0.000    2.545 
#    0.000    0.000    0.000    0.000    0.000    0.000 
#
# Total GULP energy -545412.298443 kJ/mol
# GULP energy per Si atom -12395.734056 kJ/mol
# Density = 1.963048 g / cm^3
# Si number density = 19.675258 Si / 1000 Ang^3
#
#
#
# Elastic Constant Matrix: (Units=GPa)
#
#
# Indices 1 2 3 4 5 6 
#
# 1 135.1545 33.0081 53.5000 0.0000 -0.0001 0.0000
# 2 33.0081 88.3172 45.2557 0.0006 -0.0007 0.0000
# 3 53.5000 45.2557 128.9070 0.0013 -0.0038 0.0009
# 4 0.0000 0.0006 0.0013 -23.2485 -0.0014 -0.0001
# 5 -0.0001 -0.0007 -0.0038 -0.0014 21.0593 0.0000
# 6 0.0000 0.0000 0.0009 -0.0001 0.0000 19.8141
#
#
#
# Elastic Compliance Matrix: (Units=1/GPa)
#
#
# Indices 1 2 3 4 5 6 
#
# 1 0.009078 -0.001783 -0.003142 0.000000 -0.000001 0.000000
# 2 -0.001783 0.014157 -0.004230 0.000000 0.000000 0.000000
# 3 -0.003142 -0.004230 0.010546 0.000000 0.000002 0.000000
# 4 0.000000 0.000000 0.000000 -0.043014 -0.000003 0.000000
# 5 -0.000001 0.000000 0.000002 -0.000003 0.047485 0.000000
# 6 0.000000 0.000000 0.000000 0.000000 0.000000 0.050469
#
#
# Mechanical properties :
#
#
# Convention : Reuss Voigt Hill
#
# Bulk Modulus (GPa) = 64.63369 68.43403 66.53386
# Shear Modulus (GPa) = 44.56786 18.23264 31.40025
#
# Velocity S-wave (km/s) = 4.76455 3.04744 3.99924
# Velocity P-wave (km/s) = 7.94918 6.87312 7.43065
#
# Compressibility (1/GPa) = 0.01547181
#
# Stress axis : x y z
#
# Youngs Moduli (GPa) = 110.15645 70.63750 94.81849
#
# Poissons Ratio (x) = 0.12595 0.29789
# Poissons Ratio (y) = 0.19641 0.40109
# Poissons Ratio (z) = 0.34607 0.29880
#
# Static dielectric constant tensor:
#      x y z
#    x 3.841380 0.000000 0.000010 
#    y 0.000000 3.500320 0.000000 
#    z 0.000010 0.000000 3.670840 
# 
# 
# High freq. dielectric constant tensor:
#      x y z
#    x 1.772430 0.000000 0.000000 
#    y 0.000000 1.751910 0.000000 
#    z 0.000000 0.000000 1.772790 
# 
# From -- ./inp_files/22397.got.cif
#   From: 2010.06.25/outbox.cif.g09.slc.cpg/sg71_12_cif.got.tgz:22397.got - 2010.06.28 04:59:45.
