data_PCOD8292226
_publ_section_title
;
Structure prediction by ZEFSAII (Michael W. Deem and Ramdas Pophale) SiO2 
 PCOD8292226
Probable space group: I M M M
;
_chemical_formula_sum "Si O2"
_cell_formula_units_Z 72
_cell_length_a 15.481731
_cell_length_b 27.828860
_cell_length_c 7.789889
_cell_angle_alpha 90.000000
_cell_angle_beta 90.000000
_cell_angle_gamma 90.000000
_cell_volume 3356.187399
_symmetry_space_group_name_H-M "I M M M"
_symmetry_group_IT_number 71
_symmetry_cell_setting 'orthorhombic'
loop_
_space_group_symop_operation_xyz
x,y,z
-x,-y,z
x,-y,-z
-x,y,-z
-x,-y,-z
x,y,-z
-x,y,z
x,-y,z
1/2+x,1/2+y,1/2+z
1/2-x,1/2-y,1/2+z
1/2+x,1/2-y,1/2-z
1/2-x,1/2+y,1/2-z
1/2-x,1/2-y,1/2-z
1/2+x,1/2+y,1/2-z
1/2-x,1/2+y,1/2+z
1/2+x,1/2-y,1/2+z
loop_
_atom_site_type_symbol
_atom_site_label
_atom_site_fract_x
_atom_site_fract_y
_atom_site_fract_z
Si Si1 0.846275 0.125601 0.699553
Si Si2 0.500000 0.206352 0.691045
Si Si3 0.835892 0.351942 0.690963
Si Si4 0.398636 0.052688 0.695938
Si Si5 0.897266 0.056794 0.000000
Si Si6 0.500000 0.688914 0.806892
O O1 0.860648 0.109620 0.500000
O O2 0.754504 0.153194 0.710694
O O3 0.914071 0.165120 0.771933
O O4 0.854539 0.079887 0.827444
O O5 0.500000 0.226334 0.500000
O O6 0.414301 0.174983 0.716571
O O7 0.500000 0.253571 0.806171
O O8 0.827159 0.331074 0.500000
O O9 0.856048 0.408672 0.679799
O O10 0.375346 0.066219 0.500000
O O11 0.500000 0.052780 0.723322
O O12 0.361590 0.000000 0.741569
O O13 0.000000 0.065880 0.000000
O O14 0.876706 0.000000 0.000000
O O15 0.500000 0.671644 0.000000
#
# Coordination Sequence:
#
# PCOD8292226 Si02
#       6
#    16   8  16  16   8   8
#     4  11  24  45  72  99 137 184 226 281 345 410
#     4  12  26  42  67  97 133 177 223 285 349 410
#     4  12  24  40  63  94 135 176 227 284 336 401
#     4   9  18  34  57  83 117 164 213 261 320 393
#     4  11  24  44  74 109 143 183 235 284 340 413
#     4  10  24  46  72  98 127 167 225 283 352 417
#
# _framework density 21.452912000000001
#
# number of rings (size 3 to 8) (size 9 to 14) (size 15 to 20)
#    0.000    1.222    3.333    3.667    1.556    2.667 
#    0.000    2.222    0.000    0.000    0.000    0.000 
#    0.000    0.000    0.000    0.000    0.000    0.000 
#
# Total GULP energy -446223.540341 kJ/mol
# GULP energy per Si atom -12395.098343 kJ/mol
# Density = 2.140408 g / cm^3
# Si number density = 21.452912 Si / 1000 Ang^3
#
#
#
# Elastic Constant Matrix: (Units=GPa)
#
#
# Indices 1 2 3 4 5 6 
#
# 1 127.0660 71.4381 31.3208 0.0007 -0.0044 -0.0008
# 2 71.4381 115.0382 18.2861 0.0110 -0.0065 -0.0032
# 3 31.3208 18.2861 104.2710 0.0804 -0.0401 -0.0095
# 4 0.0007 0.0110 0.0804 30.6361 -0.0155 -0.0052
# 5 -0.0044 -0.0065 -0.0401 -0.0155 22.0684 0.0019
# 6 -0.0008 -0.0032 -0.0095 -0.0052 0.0019 8.8005
#
#
#
# Elastic Compliance Matrix: (Units=1/GPa)
#
#
# Indices 1 2 3 4 5 6 
#
# 1 0.012695 -0.007486 -0.002500 0.000009 -0.000004 -0.000004
# 2 -0.007486 0.013356 -0.000094 -0.000004 0.000002 0.000004
# 3 -0.002500 -0.000094 0.010358 -0.000027 0.000018 0.000011
# 4 0.000009 -0.000004 -0.000027 0.032641 0.000023 0.000019
# 5 -0.000004 0.000002 0.000018 0.000023 0.045314 -0.000010
# 6 -0.000004 0.000004 0.000011 0.000019 -0.000010 0.113630
#
#
# Mechanical properties :
#
#
# Convention : Reuss Voigt Hill
#
# Bulk Modulus (GPa) = 61.54235 65.38503 63.46369
# Shear Modulus (GPa) = 19.71829 27.32300 23.52065
#
# Velocity S-wave (km/s) = 3.03503 3.57266 3.31476
# Velocity P-wave (km/s) = 6.40557 6.89660 6.65561
#
# Compressibility (1/GPa) = 0.01624897
#
# Stress axis : x y z
#
# Youngs Moduli (GPa) = 78.77085 74.87000 96.54426
#
# Poissons Ratio (x) = 0.56048 0.24141
# Poissons Ratio (y) = 0.58969 0.00904
# Poissons Ratio (z) = 0.19697 0.00701
#
# Static dielectric constant tensor:
#      x y z
#    x 4.051690 0.000000 -0.000010 
#    y 0.000000 3.644210 -0.000090 
#    z -0.000010 -0.000090 3.809880 
# 
# 
# High freq. dielectric constant tensor:
#      x y z
#    x 1.849500 0.000000 0.000000 
#    y 0.000000 1.829650 -0.000010 
#    z 0.000000 -0.000010 1.842930 
# 
# From -- ./inp_files/6212.got.cif
#   From: 2010.06.25/outbox.cif.g09.slc.cpg/sg71_4_cif.got.tgz:6212.got - 2010.06.28 04:59:45.
