data_PCOD8292656
_publ_section_title
;
Structure prediction by ZEFSAII (Michael W. Deem and Ramdas Pophale) SiO2 
 PCOD8292656
Probable space group: I M M M
;
_chemical_formula_sum "Si O2"
_cell_formula_units_Z 88
_cell_length_a 9.717727
_cell_length_b 19.320977
_cell_length_c 27.933529
_cell_angle_alpha 90.000000
_cell_angle_beta 90.000000
_cell_angle_gamma 90.000000
_cell_volume 5244.687108
_symmetry_space_group_name_H-M "I M M M"
_symmetry_group_IT_number 71
_symmetry_cell_setting 'orthorhombic'
loop_
_space_group_symop_operation_xyz
x,y,z
-x,-y,z
x,-y,-z
-x,y,-z
-x,-y,-z
x,y,-z
-x,y,z
x,-y,z
1/2+x,1/2+y,1/2+z
1/2-x,1/2-y,1/2+z
1/2+x,1/2-y,1/2-z
1/2-x,1/2+y,1/2-z
1/2-x,1/2-y,1/2-z
1/2+x,1/2+y,1/2-z
1/2-x,1/2+y,1/2+z
1/2+x,1/2-y,1/2+z
loop_
_atom_site_type_symbol
_atom_site_label
_atom_site_fract_x
_atom_site_fract_y
_atom_site_fract_z
Si Si1 0.336048 0.836977 0.409877
Si Si2 0.846964 0.417778 0.284472
Si Si3 0.839832 0.920031 0.129244
Si Si4 0.663959 0.077356 0.500000
Si Si5 0.336878 0.308722 0.446295
Si Si6 0.663809 0.922403 0.320877
O O1 0.500000 0.837791 0.408804
O O2 0.280351 0.883828 0.453180
O O3 0.281320 0.758964 0.418170
O O4 0.277323 0.868900 0.360357
O O5 0.853371 0.500000 0.284858
O O6 0.742533 0.391041 0.324920
O O7 0.792746 0.394804 0.231877
O O8 0.000000 0.387863 0.294653
O O9 0.792126 0.876944 0.082821
O O10 0.000000 0.908711 0.140462
O O11 0.806062 0.000000 0.118465
O O12 0.500000 0.076712 0.500000
O O13 0.723581 0.000000 0.500000
O O14 0.274277 0.312516 0.500000
O O15 0.500000 0.304068 0.450276
O O16 0.500000 0.925915 0.323383
O O17 0.722073 0.000000 0.330579
#
# Coordination Sequence:
#
# PCOD8292656 Si02
#       6
#    16  16  16   8  16  16
#     4   9  14  21  32  50  77 107 136 165 199 241
#     4   8  14  26  43  61  82 108 135 165 204 245
#     4   9  17  28  43  62  81 104 138 176 207 239
#     4   9  14  18  28  48  75 107 138 165 195 235
#     4   9  16  26  38  53  77 107 135 166 209 251
#     4   8  13  21  35  55  78 106 138 166 194 237
#
# _framework density 16.778884999999999
#
# number of rings (size 3 to 8) (size 9 to 14) (size 15 to 20)
#    0.000    3.364    0.909    1.636    0.000    2.545 
#    0.000    2.727    0.000    0.545    0.000    2.545 
#    0.000    0.000    0.000    0.182    0.000   18.000 
#
# Total GULP energy -545267.655284 kJ/mol
# GULP energy per Si atom -12392.446711 kJ/mol
# Density = 1.674070 g / cm^3
# Si number density = 16.778885 Si / 1000 Ang^3
#
#
#
# Elastic Constant Matrix: (Units=GPa)
#
#
# Indices 1 2 3 4 5 6 
#
# 1 19.2378 18.6507 30.6241 0.0000 0.0000 0.0000
# 2 18.6507 98.0714 77.1695 0.0000 0.0000 0.0000
# 3 30.6241 77.1695 166.7573 0.0000 0.0000 0.0000
# 4 0.0000 0.0000 0.0000 20.7043 0.0000 0.0000
# 5 0.0000 0.0000 0.0000 0.0000 16.4955 0.0000
# 6 0.0000 0.0000 0.0000 0.0000 0.0000 5.9142
#
#
#
# Elastic Compliance Matrix: (Units=1/GPa)
#
#
# Indices 1 2 3 4 5 6 
#
# 1 0.075232 -0.005403 -0.011316 0.000000 0.000000 0.000000
# 2 -0.005403 0.016424 -0.006608 0.000000 0.000000 0.000000
# 3 -0.011316 -0.006608 0.011133 0.000000 0.000000 0.000000
# 4 0.000000 0.000000 0.000000 0.048299 0.000000 0.000000
# 5 0.000000 0.000000 0.000000 0.000000 0.060623 0.000000
# 6 0.000000 0.000000 0.000000 0.000000 0.000000 0.169084
#
#
# Mechanical properties :
#
#
# Convention : Reuss Voigt Hill
#
# Bulk Modulus (GPa) = 17.81422 59.66168 38.73795
# Shear Modulus (GPa) = 11.20672 19.13095 15.16883
#
# Velocity S-wave (km/s) = 2.58719 3.38032 3.00999
# Velocity P-wave (km/s) = 4.42322 7.13233 5.93443
#
# Compressibility (1/GPa) = 0.05613494
#
# Stress axis : x y z
#
# Youngs Moduli (GPa) = 13.29217 60.88648 89.82462
#
# Poissons Ratio (x) = 0.32899 1.01641
# Poissons Ratio (y) = 0.07182 0.59358
# Poissons Ratio (z) = 0.15041 0.40235
#
# Static dielectric constant tensor:
#      x y z
#    x 2.590120 0.000000 0.000000 
#    y 0.000000 3.150900 0.000000 
#    z 0.000000 0.000000 3.567790 
# 
# 
# High freq. dielectric constant tensor:
#      x y z
#    x 1.567370 0.000000 0.000000 
#    y 0.000000 1.634580 0.000000 
#    z 0.000000 0.000000 1.661830 
# 
# From -- ./inp_files/22521.got.cif
#   From: 2010.06.25/outbox.cif.g09.slc.cpg/sg71_12_cif.got.tgz:22521.got - 2010.06.28 04:59:45.
