data_PCOD8292867
_publ_section_title
;
Structure prediction by ZEFSAII (Michael W. Deem and Ramdas Pophale) SiO2 
 PCOD8292867
Probable space group: I B A M
;
_chemical_formula_sum "Si O2"
_cell_formula_units_Z 80
_cell_length_a 17.680805
_cell_length_b 28.430783
_cell_length_c 8.656770
_cell_angle_alpha 90.000000
_cell_angle_beta 90.000000
_cell_angle_gamma 90.000000
_cell_volume 4351.577614
_symmetry_space_group_name_H-M "I B A M"
_symmetry_group_IT_number 72
_symmetry_cell_setting 'orthorhombic'
loop_
_space_group_symop_operation_xyz
x,y,z
-x,-y,z
x,-y,1/2-z
-x,y,1/2-z
-x,-y,-z
x,y,-z
-x,y,1/2+z
x,-y,1/2+z
1/2+x,1/2+y,1/2+z
1/2-x,1/2-y,1/2+z
1/2+x,1/2-y,-z
1/2-x,1/2+y,-z
1/2-x,1/2-y,1/2-z
1/2+x,1/2+y,1/2-z
1/2-x,1/2+y,z
1/2+x,1/2-y,z
loop_
_atom_site_type_symbol
_atom_site_label
_atom_site_fract_x
_atom_site_fract_y
_atom_site_fract_z
Si Si1 0.769826 0.448715 0.182593
Si Si2 0.288167 0.639462 0.317628
Si Si3 0.574994 0.947780 0.683768
Si Si4 0.807990 0.713441 0.318446
Si Si5 0.918656 0.790320 0.680096
O O1 0.750701 0.500000 0.250000
O O2 0.705700 0.411556 0.235260
O O3 0.847349 0.426231 0.251679
O O4 0.775334 0.453035 0.000000
O O5 0.288518 0.632663 0.500000
O O6 0.208482 0.664133 0.266729
O O7 0.358728 0.670858 0.257630
O O8 0.500000 0.921102 0.750000
O O9 0.574406 0.947330 0.500000
O O10 0.573240 0.000000 0.750000
O O11 0.795263 0.706845 0.500000
O O12 0.750000 0.750000 0.250000
O O13 0.890408 0.736737 0.283757
O O14 0.925399 0.797949 0.500000
O O15 0.000000 0.799613 0.750000
#
# Coordination Sequence:
#
# PCOD8292867 Si02
#       5
#    16  16  16  16  16
#     4  11  21  34  52  75 102 138 180 223 266 313
#     4  10  20  35  53  77 105 137 175 218 261 310
#     4  10  17  28  45  66  92 123 160 205 251 299
#     4   9  17  31  50  75 102 132 166 205 251 306
#     4   9  19  33  53  79 108 136 169 209 256 312
#
# _framework density 18.384136999999999
#
# number of rings (size 3 to 8) (size 9 to 14) (size 15 to 20)
#    0.000    2.200    0.000    7.800    0.000    4.800 
#    0.000    1.000    0.000    3.000    0.000    4.200 
#    0.000    0.000    0.000    0.000    0.000    0.000 
#
# Total GULP energy -495596.655487 kJ/mol
# GULP energy per Si atom -12389.916387 kJ/mol
# Density = 1.834229 g / cm^3
# Si number density = 18.384137 Si / 1000 Ang^3
#
#
#
# Elastic Constant Matrix: (Units=GPa)
#
#
# Indices 1 2 3 4 5 6 
#
# 1 92.3215 46.2396 35.1528 0.0001 0.0000 -0.0001
# 2 46.2396 103.5609 36.9400 0.0001 0.0001 0.0000
# 3 35.1528 36.9400 118.1673 0.0012 0.0000 0.0000
# 4 0.0001 0.0001 0.0012 29.9981 0.0000 -0.0001
# 5 0.0000 0.0001 0.0000 0.0000 30.3658 0.0000
# 6 -0.0001 0.0000 0.0000 -0.0001 0.0000 17.9861
#
#
#
# Elastic Compliance Matrix: (Units=1/GPa)
#
#
# Indices 1 2 3 4 5 6 
#
# 1 0.014629 -0.005604 -0.002600 0.000000 0.000000 0.000000
# 2 -0.005604 0.013015 -0.002401 0.000000 0.000000 0.000000
# 3 -0.002600 -0.002401 0.009987 0.000000 0.000000 0.000000
# 4 0.000000 0.000000 0.000000 0.033335 0.000000 0.000000
# 5 0.000000 0.000000 0.000000 0.000000 0.032932 0.000000
# 6 0.000000 0.000000 0.000000 0.000000 0.000000 0.055599
#
#
# Mechanical properties :
#
#
# Convention : Reuss Voigt Hill
#
# Bulk Modulus (GPa) = 60.90408 61.19052 61.04730
# Shear Modulus (GPa) = 26.85571 28.71781 27.78676
#
# Velocity S-wave (km/s) = 3.82620 3.95663 3.89196
# Velocity P-wave (km/s) = 7.26087 7.36409 7.31266
#
# Compressibility (1/GPa) = 0.01641926
#
# Stress axis : x y z
#
# Youngs Moduli (GPa) = 68.35949 76.83435 100.13332
#
# Poissons Ratio (x) = 0.43060 0.26033
# Poissons Ratio (y) = 0.38310 0.24046
# Poissons Ratio (z) = 0.17772 0.18451
#
# Static dielectric constant tensor:
#      x y z
#    x 4.412680 -0.000010 -0.000010 
#    y -0.000010 3.481870 0.000000 
#    z -0.000010 0.000000 3.476550 
# 
# 
# High freq. dielectric constant tensor:
#      x y z
#    x 1.689470 0.000000 0.000000 
#    y 0.000000 1.698270 0.000000 
#    z 0.000000 0.000000 1.726420 
# 
# From -- ./inp_files/4999.got.cif
#   From: 2010.03.12/outbox.cif.g09.slc.cpg/sg72_3_cif.got.tgz:4999.got - 2010.04.16 14:54:00.
