data_PCOD8292552
_publ_section_title
;
Structure prediction by ZEFSAII (Michael W. Deem and Ramdas Pophale) SiO2 
 PCOD8292552
Probable space group: I M M M
;
_chemical_formula_sum "Si O2"
_cell_formula_units_Z 56
_cell_length_a 11.124018
_cell_length_b 8.680371
_cell_length_c 27.727998
_cell_angle_alpha 90.000000
_cell_angle_beta 90.000000
_cell_angle_gamma 90.000000
_cell_volume 2677.432214
_symmetry_space_group_name_H-M "I M M M"
_symmetry_group_IT_number 71
_symmetry_cell_setting 'orthorhombic'
loop_
_space_group_symop_operation_xyz
x,y,z
-x,-y,z
x,-y,-z
-x,y,-z
-x,-y,-z
x,y,-z
-x,y,z
x,-y,z
1/2+x,1/2+y,1/2+z
1/2-x,1/2-y,1/2+z
1/2+x,1/2-y,1/2-z
1/2-x,1/2+y,1/2-z
1/2-x,1/2-y,1/2-z
1/2+x,1/2+y,1/2-z
1/2-x,1/2+y,1/2+z
1/2+x,1/2-y,1/2+z
loop_
_atom_site_type_symbol
_atom_site_label
_atom_site_fract_x
_atom_site_fract_y
_atom_site_fract_z
Si Si1 0.359270 0.671473 0.553206
Si Si2 0.500000 0.826425 0.943280
Si Si3 0.693459 0.678478 0.880778
Si Si4 0.362932 0.818795 0.220744
O O1 0.319605 0.733770 0.500000
O O2 0.500000 0.658052 0.555017
O O3 0.302859 0.500000 0.560581
O O4 0.324868 0.782504 0.598138
O O5 0.613985 0.731071 0.925674
O O6 0.500000 0.000000 0.922301
O O7 0.500000 0.829018 0.000000
O O8 0.679726 0.500000 0.867752
O O9 0.656393 0.775728 0.834524
O O10 0.500000 0.764022 0.236421
O O11 0.250000 0.750000 0.250000
O O12 0.355687 0.000000 0.227571
#
# Coordination Sequence:
#
# PCOD8292552 Si02
#       4
#    16   8  16  16
#     4   9  19  37  60  86 121 168 217 262 314 380
#     4  11  23  39  61  89 125 169 213 257 312 379
#     4  12  24  38  61  92 127 164 207 260 321 385
#     4  11  25  46  72  98 129 170 218 274 338 402
#
# _framework density 20.915562999999999
#
# number of rings (size 3 to 8) (size 9 to 14) (size 15 to 20)
#    0.000    1.286    1.429    5.571    0.000    8.571 
#    0.000    1.429    0.000    0.000    0.000    0.000 
#    0.000    0.000    0.000    0.000    0.000    0.000 
#
# Total GULP energy -346951.209395 kJ/mol
# GULP energy per Si atom -12391.114621 kJ/mol
# Density = 2.086796 g / cm^3
# Si number density = 20.915563 Si / 1000 Ang^3
#
#
#
# Elastic Constant Matrix: (Units=GPa)
#
#
# Indices 1 2 3 4 5 6 
#
# 1 120.3507 41.5020 60.7566 0.0000 0.0000 0.0000
# 2 41.5020 73.8050 30.9768 0.0000 0.0000 0.0000
# 3 60.7566 30.9768 89.6384 0.0000 0.0000 0.0000
# 4 0.0000 0.0000 0.0000 34.0562 0.0000 0.0000
# 5 0.0000 0.0000 0.0000 0.0000 20.7678 0.0000
# 6 0.0000 0.0000 0.0000 0.0000 0.0000 26.7391
#
#
#
# Elastic Compliance Matrix: (Units=1/GPa)
#
#
# Indices 1 2 3 4 5 6 
#
# 1 0.013792 -0.004482 -0.007799 0.000000 0.000000 0.000000
# 2 -0.004482 0.017304 -0.002942 0.000000 0.000000 0.000000
# 3 -0.007799 -0.002942 0.017459 0.000000 0.000000 0.000000
# 4 0.000000 0.000000 0.000000 0.029363 0.000000 0.000000
# 5 0.000000 0.000000 0.000000 0.000000 0.048151 0.000000
# 6 0.000000 0.000000 0.000000 0.000000 0.000000 0.037398
#
#
# Mechanical properties :
#
#
# Convention : Reuss Voigt Hill
#
# Bulk Modulus (GPa) = 55.22247 61.14055 58.18151
# Shear Modulus (GPa) = 25.00610 26.34986 25.67798
#
# Velocity S-wave (km/s) = 3.46146 3.55325 3.50765
# Velocity P-wave (km/s) = 6.51425 6.79188 6.65451
#
# Compressibility (1/GPa) = 0.01810857
#
# Stress axis : x y z
#
# Youngs Moduli (GPa) = 72.50617 57.78882 57.27732
#
# Poissons Ratio (x) = 0.25901 0.44672
# Poissons Ratio (y) = 0.32498 0.16851
# Poissons Ratio (z) = 0.56549 0.17002
#
# Static dielectric constant tensor:
#      x y z
#    x 4.366590 0.000000 0.000000 
#    y 0.000000 3.843450 0.000000 
#    z 0.000000 0.000000 3.722360 
# 
# 
# High freq. dielectric constant tensor:
#      x y z
#    x 1.836670 0.000000 0.000000 
#    y 0.000000 1.812670 0.000000 
#    z 0.000000 0.000000 1.815040 
# 
# From -- ./inp_files/3295.got.cif
#   From: 2010.06.25/outbox.cif.g09.slc.cpg/sg71_2_cif.got.tgz:3295.got - 2010.06.28 04:59:45.
