data_PCOD8292819
_publ_section_title
;
Structure prediction by ZEFSAII (Michael W. Deem and Ramdas Pophale) SiO2 
 PCOD8292819
Probable space group: I B A M
;
_chemical_formula_sum "Si O2"
_cell_formula_units_Z 112
_cell_length_a 13.022310
_cell_length_b 21.151678
_cell_length_c 26.353200
_cell_angle_alpha 90.000000
_cell_angle_beta 90.000000
_cell_angle_gamma 90.000000
_cell_volume 7258.823124
_symmetry_space_group_name_H-M "I B A M"
_symmetry_group_IT_number 72
_symmetry_cell_setting 'orthorhombic'
loop_
_space_group_symop_operation_xyz
x,y,z
-x,-y,z
x,-y,1/2-z
-x,y,1/2-z
-x,-y,-z
x,y,-z
-x,y,1/2+z
x,-y,1/2+z
1/2+x,1/2+y,1/2+z
1/2-x,1/2-y,1/2+z
1/2+x,1/2-y,-z
1/2-x,1/2+y,-z
1/2-x,1/2-y,1/2-z
1/2+x,1/2+y,1/2-z
1/2-x,1/2+y,z
1/2+x,1/2-y,z
loop_
_atom_site_type_symbol
_atom_site_label
_atom_site_fract_x
_atom_site_fract_y
_atom_site_fract_z
Si Si1 0.718545 0.219896 0.057492
Si Si2 0.196104 0.653645 0.184936
Si Si3 0.519939 0.927920 0.152324
Si Si4 0.976198 0.356256 0.442701
Si Si5 0.618778 0.710530 0.356854
Si Si6 0.094407 0.675265 0.283709
Si Si7 0.590716 0.745686 0.114907
O O1 0.645545 0.158596 0.059331
O O2 0.668015 0.278574 0.087658
O O3 0.827721 0.203640 0.083817
O O4 0.736166 0.242626 0.000000
O O5 0.138110 0.590899 0.164859
O O6 0.317398 0.653286 0.169593
O O7 0.187697 0.657239 0.246002
O O8 0.142889 0.716102 0.160842
O O9 0.498772 0.916500 0.092670
O O10 0.442724 0.886362 0.185982
O O11 0.500000 0.000000 0.166408
O O12 0.010904 0.372180 0.500000
O O13 0.037734 0.295340 0.423055
O O14 0.634803 0.773791 0.323523
O O15 0.496629 0.697992 0.362652
O O16 0.000000 0.701858 0.250000
#
# Coordination Sequence:
#
# PCOD8292819 Si02
#       7
#    16  16  16  16  16  16  16
#     4   9  16  25  41  62  88 120 149 178 225 278
#     4   9  18  27  44  63  89 119 148 179 225 269
#     4  10  19  31  44  65  94 121 155 186 221 269
#     4   9  16  28  42  61  89 118 152 188 224 267
#     4  10  16  28  43  64  92 117 148 189 220 274
#     4  10  16  29  42  63  89 122 149 181 229 268
#     4   9  15  26  40  65  91 115 142 182 226 276
#
# _framework density 15.429498000000001
#
# number of rings (size 3 to 8) (size 9 to 14) (size 15 to 20)
#    0.000    2.571    5.714    0.857    0.000    3.429 
#    0.000    0.000    0.000    0.000    0.000    1.000 
#    0.000    2.286    0.000    0.000    0.000    0.000 
#
# Total GULP energy -693932.626137 kJ/mol
# GULP energy per Si atom -12391.654038 kJ/mol
# Density = 1.539438 g / cm^3
# Si number density = 15.429498 Si / 1000 Ang^3
#
#
#
# Elastic Constant Matrix: (Units=GPa)
#
#
# Indices 1 2 3 4 5 6 
#
# 1 66.5674 14.9603 15.0065 0.0000 0.0000 0.0000
# 2 14.9603 50.3556 14.9872 0.0000 0.0000 0.0000
# 3 15.0065 14.9872 92.5088 0.0000 0.0000 0.0000
# 4 0.0000 0.0000 0.0000 9.1375 0.0000 0.0000
# 5 0.0000 0.0000 0.0000 0.0000 24.0560 0.0000
# 6 0.0000 0.0000 0.0000 0.0000 0.0000 14.2229
#
#
#
# Elastic Compliance Matrix: (Units=1/GPa)
#
#
# Indices 1 2 3 4 5 6 
#
# 1 0.016432 -0.004296 -0.001970 0.000000 0.000000 0.000000
# 2 -0.004296 0.021988 -0.002865 0.000000 0.000000 0.000000
# 3 -0.001970 -0.002865 0.011593 0.000000 0.000000 0.000000
# 4 0.000000 0.000000 0.000000 0.109439 0.000000 0.000000
# 5 0.000000 0.000000 0.000000 0.000000 0.041570 0.000000
# 6 0.000000 0.000000 0.000000 0.000000 0.000000 0.070309
#
#
# Mechanical properties :
#
#
# Convention : Reuss Voigt Hill
#
# Bulk Modulus (GPa) = 31.49413 33.25997 32.37705
# Shear Modulus (GPa) = 16.65689 20.44847 18.55268
#
# Velocity S-wave (km/s) = 3.28921 3.64439 3.47135
# Velocity P-wave (km/s) = 5.90603 6.26991 6.09068
#
# Compressibility (1/GPa) = 0.03175195
#
# Stress axis : x y z
#
# Youngs Moduli (GPa) = 60.85780 45.47980 86.25524
#
# Poissons Ratio (x) = 0.19536 0.16989
# Poissons Ratio (y) = 0.26142 0.24715
# Poissons Ratio (z) = 0.11986 0.13032
#
# Static dielectric constant tensor:
#      x y z
#    x 3.211160 0.000000 0.000000 
#    y 0.000000 2.405400 0.000000 
#    z 0.000000 0.000000 3.268720 
# 
# 
# High freq. dielectric constant tensor:
#      x y z
#    x 1.589940 0.000000 0.000000 
#    y 0.000000 1.515670 0.000000 
#    z 0.000000 0.000000 1.615690 
# 
# From -- ./inp_files/48327.got.cif
#   From: 2010.03.12/outbox.cif.g09.slc.cpg/sg72_25_cif.got.tgz:48327.got - 2010.04.16 14:54:00.
