data_PCOD8292706
_publ_section_title
;
Structure prediction by ZEFSAII (Michael W. Deem and Ramdas Pophale) SiO2 
 PCOD8292706
Probable space group: I M M M
;
_chemical_formula_sum "Si O2"
_cell_formula_units_Z 80
_cell_length_a 32.609174
_cell_length_b 9.186399
_cell_length_c 15.128049
_cell_angle_alpha 90.000000
_cell_angle_beta 90.000000
_cell_angle_gamma 90.000000
_cell_volume 4531.771723
_symmetry_space_group_name_H-M "I M M M"
_symmetry_group_IT_number 71
_symmetry_cell_setting 'orthorhombic'
loop_
_space_group_symop_operation_xyz
x,y,z
-x,-y,z
x,-y,-z
-x,y,-z
-x,-y,-z
x,y,-z
-x,y,z
x,-y,z
1/2+x,1/2+y,1/2+z
1/2-x,1/2-y,1/2+z
1/2+x,1/2-y,1/2-z
1/2-x,1/2+y,1/2-z
1/2-x,1/2-y,1/2-z
1/2+x,1/2+y,1/2-z
1/2-x,1/2+y,1/2+z
1/2+x,1/2-y,1/2+z
loop_
_atom_site_type_symbol
_atom_site_label
_atom_site_fract_x
_atom_site_fract_y
_atom_site_fract_z
Si Si1 0.454544 0.327151 0.400967
Si Si2 0.646398 0.666345 0.095384
Si Si3 0.880200 0.172012 0.784442
Si Si4 0.274532 0.838244 0.132154
Si Si5 0.800187 0.662650 0.832820
O O1 0.442699 0.274111 0.500000
O O2 0.500000 0.268532 0.375887
O O3 0.454973 0.500000 0.398954
O O4 0.421882 0.268418 0.329328
O O5 0.660094 0.500000 0.110210
O O6 0.618436 0.713123 0.179424
O O7 0.687176 0.760463 0.087277
O O8 0.623036 0.683968 0.000000
O O9 0.842791 0.250580 0.833255
O O10 0.875022 0.000000 0.798686
O O11 0.233056 0.749717 0.108528
O O12 0.281540 0.847909 0.235947
O O13 0.270199 0.000000 0.092275
O O14 0.807148 0.500000 0.871191
#
# Coordination Sequence:
#
# PCOD8292706 Si02
#       5
#    16  16  16  16  16
#     4   8  14  26  46  71  93 110 134 173 218 262
#     4   9  17  28  41  59  86 119 152 184 218 256
#     4   9  16  27  45  66  87 114 147 181 218 261
#     4   9  16  26  41  60  82 112 152 191 221 251
#     4   9  16  26  41  61  86 115 146 182 223 261
#
# _framework density 17.653137999999998
#
# number of rings (size 3 to 8) (size 9 to 14) (size 15 to 20)
#    0.000    3.200    0.000    1.800    0.000    5.200 
#    0.000    1.000    0.000    5.400    0.000    5.600 
#    0.000    0.000    0.000   10.000    0.000   10.400 
#
# Total GULP energy -495598.190374 kJ/mol
# GULP energy per Si atom -12389.954759 kJ/mol
# Density = 1.761296 g / cm^3
# Si number density = 17.653138 Si / 1000 Ang^3
#
#
#
# Elastic Constant Matrix: (Units=GPa)
#
#
# Indices 1 2 3 4 5 6 
#
# 1 130.0181 38.0690 69.2035 0.0000 0.0000 0.0000
# 2 38.0690 65.4829 24.5961 0.0000 0.0000 0.0000
# 3 69.2035 24.5961 97.3033 0.0000 0.0000 0.0000
# 4 0.0000 0.0000 0.0000 5.2134 0.0000 0.0000
# 5 0.0000 0.0000 0.0000 0.0000 17.3818 0.0000
# 6 0.0000 0.0000 0.0000 0.0000 0.0000 16.0145
#
#
#
# Elastic Compliance Matrix: (Units=1/GPa)
#
#
# Indices 1 2 3 4 5 6 
#
# 1 0.013577 -0.004714 -0.008464 0.000000 0.000000 0.000000
# 2 -0.004714 0.018510 -0.001326 0.000000 0.000000 0.000000
# 3 -0.008464 -0.001326 0.016632 0.000000 0.000000 0.000000
# 4 0.000000 0.000000 0.000000 0.191813 0.000000 0.000000
# 5 0.000000 0.000000 0.000000 0.000000 0.057532 0.000000
# 6 0.000000 0.000000 0.000000 0.000000 0.000000 0.062443
#
#
# Mechanical properties :
#
#
# Convention : Reuss Voigt Hill
#
# Bulk Modulus (GPa) = 50.73603 61.83794 56.28699
# Shear Modulus (GPa) = 12.62353 18.45098 15.53726
#
# Velocity S-wave (km/s) = 2.67701 3.23646 2.96994
# Velocity P-wave (km/s) = 6.19339 7.00512 6.61172
#
# Compressibility (1/GPa) = 0.01970986
#
# Stress axis : x y z
#
# Youngs Moduli (GPa) = 73.65604 54.02585 60.12342
#
# Poissons Ratio (x) = 0.25465 0.50891
# Poissons Ratio (y) = 0.34718 0.07975
# Poissons Ratio (z) = 0.62345 0.07166
#
# Static dielectric constant tensor:
#      x y z
#    x 3.264860 0.000000 0.000000 
#    y 0.000000 3.265980 0.000000 
#    z 0.000000 0.000000 3.284090 
# 
# 
# High freq. dielectric constant tensor:
#      x y z
#    x 1.652190 0.000000 0.000000 
#    y 0.000000 1.667200 0.000000 
#    z 0.000000 0.000000 1.674700 
# 
# From -- ./inp_files/8591.got.cif
#   From: 2010.06.25/outbox.cif.g09.slc.cpg/sg71_5_cif.got.tgz:8591.got - 2010.06.28 04:59:45.
