data_PCOD8292759
_publ_section_title
;
Structure prediction by ZEFSAII (Michael W. Deem and Ramdas Pophale) SiO2 
 PCOD8292759
Probable space group: I M M M
;
_chemical_formula_sum "Si O2"
_cell_formula_units_Z 104
_cell_length_a 19.992731
_cell_length_b 9.745381
_cell_length_c 32.305246
_cell_angle_alpha 90.000000
_cell_angle_beta 90.000000
_cell_angle_gamma 90.000000
_cell_volume 6294.250134
_symmetry_space_group_name_H-M "I M M M"
_symmetry_group_IT_number 71
_symmetry_cell_setting 'orthorhombic'
loop_
_space_group_symop_operation_xyz
x,y,z
-x,-y,z
x,-y,-z
-x,y,-z
-x,-y,-z
x,y,-z
-x,y,z
x,-y,z
1/2+x,1/2+y,1/2+z
1/2-x,1/2-y,1/2+z
1/2+x,1/2-y,1/2-z
1/2-x,1/2+y,1/2-z
1/2-x,1/2-y,1/2-z
1/2+x,1/2+y,1/2-z
1/2-x,1/2+y,1/2+z
1/2+x,1/2-y,1/2+z
loop_
_atom_site_type_symbol
_atom_site_label
_atom_site_fract_x
_atom_site_fract_y
_atom_site_fract_z
Si Si1 0.423637 0.158057 0.236224
Si Si2 0.631504 0.657629 0.913028
Si Si3 0.423816 0.657551 0.314559
Si Si4 0.270607 0.841343 0.547474
Si Si5 0.689671 0.658127 0.623142
Si Si6 0.669382 0.843312 0.840268
Si Si7 0.000000 0.163432 0.455246
O O1 0.500000 0.190036 0.220196
O O2 0.405799 0.249733 0.275517
O O3 0.364882 0.192330 0.203524
O O4 0.419145 0.000000 0.249696
O O5 0.624787 0.500000 0.900025
O O6 0.691788 0.679024 0.945156
O O7 0.635190 0.742680 0.871752
O O8 0.565693 0.718359 0.933437
O O9 0.500000 0.680800 0.328814
O O10 0.410519 0.500000 0.301844
O O11 0.377656 0.700178 0.353101
O O12 0.287134 0.796848 0.500000
O O13 0.308600 0.748669 0.581320
O O14 0.291087 0.000000 0.554393
O O15 0.688871 0.500000 0.608843
O O16 0.750671 0.683559 0.655766
O O17 0.653013 0.000000 0.851961
O O18 0.000000 0.230508 0.500000
O O19 0.000000 0.000000 0.457547
#
# Coordination Sequence:
#
# PCOD8292759 Si02
#       7
#    16  16  16  16  16  16   8
#     4   9  18  31  46  65  91 125 159 186 220 269
#     4   9  17  28  43  64  88 118 155 193 229 266
#     4   9  18  33  51  70  92 118 148 186 231 275
#     4   9  17  30  48  69  93 120 151 187 226 269
#     4   9  18  32  49  70  94 119 150 187 229 274
#     4   9  18  31  45  64  92 123 153 188 228 267
#     4   9  16  26  41  61  85 115 153 195 235 269
#
# _framework density 16.523015999999998
#
# number of rings (size 3 to 8) (size 9 to 14) (size 15 to 20)
#    0.000    3.000    0.000    0.462    1.077    4.000 
#    0.000    0.000    0.000    2.308    0.000    3.231 
#    0.000    0.000    0.000    0.000    0.000    0.000 
#
# Total GULP energy -644442.678439 kJ/mol
# GULP energy per Si atom -12393.128432 kJ/mol
# Density = 1.648541 g / cm^3
# Si number density = 16.523016 Si / 1000 Ang^3
#
#
#
# Elastic Constant Matrix: (Units=GPa)
#
#
# Indices 1 2 3 4 5 6 
#
# 1 93.7581 46.9221 77.0922 0.0000 0.0000 0.0000
# 2 46.9221 64.9969 70.2622 0.0000 0.0000 0.0000
# 3 77.0922 70.2622 134.6176 0.0000 0.0000 0.0000
# 4 0.0000 0.0000 0.0000 18.8930 0.0000 0.0000
# 5 0.0000 0.0000 0.0000 0.0000 22.3028 0.0000
# 6 0.0000 0.0000 0.0000 0.0000 0.0000 20.1178
#
#
#
# Elastic Compliance Matrix: (Units=1/GPa)
#
#
# Indices 1 2 3 4 5 6 
#
# 1 0.020820 -0.004914 -0.009358 0.000000 0.000000 0.000000
# 2 -0.004914 0.036465 -0.016219 0.000000 0.000000 0.000000
# 3 -0.009358 -0.016219 0.021253 0.000000 0.000000 0.000000
# 4 0.000000 0.000000 0.000000 0.052930 0.000000 0.000000
# 5 0.000000 0.000000 0.000000 0.000000 0.044838 0.000000
# 6 0.000000 0.000000 0.000000 0.000000 0.000000 0.049707
#
#
# Mechanical properties :
#
#
# Convention : Reuss Voigt Hill
#
# Bulk Modulus (GPa) = 56.95902 75.76952 66.36427
# Shear Modulus (GPa) = 17.07390 18.86913 17.97151
#
# Velocity S-wave (km/s) = 3.21805 3.38300 3.30156
# Velocity P-wave (km/s) = 6.95379 7.82407 7.40173
#
# Compressibility (1/GPa) = 0.01755648
#
# Stress axis : x y z
#
# Youngs Moduli (GPa) = 48.03168 27.42361 47.05254
#
# Poissons Ratio (x) = 0.13475 0.44033
# Poissons Ratio (y) = 0.23600 0.76313
# Poissons Ratio (z) = 0.44950 0.44477
#
# Static dielectric constant tensor:
#      x y z
#    x 3.078520 0.000000 0.000000 
#    y 0.000000 3.094060 0.000000 
#    z 0.000000 0.000000 3.017610 
# 
# 
# High freq. dielectric constant tensor:
#      x y z
#    x 1.631230 0.000000 0.000000 
#    y 0.000000 1.631910 0.000000 
#    z 0.000000 0.000000 1.625350 
# 
# From -- ./inp_files/51176.got.cif
#   From: 2010.06.25/outbox.cif.g09.slc.cpg/sg71_26_cif.got.tgz:51176.got - 2010.06.28 04:59:45.
