data_PCOD8292719
_publ_section_title
;
Structure prediction by ZEFSAII (Michael W. Deem and Ramdas Pophale) SiO2 
 PCOD8292719
Probable space group: I M M M
;
_chemical_formula_sum "Si O2"
_cell_formula_units_Z 56
_cell_length_a 7.655320
_cell_length_b 9.931502
_cell_length_c 39.665496
_cell_angle_alpha 90.000000
_cell_angle_beta 90.000000
_cell_angle_gamma 90.000000
_cell_volume 3015.721089
_symmetry_space_group_name_H-M "I M M M"
_symmetry_group_IT_number 71
_symmetry_cell_setting 'orthorhombic'
loop_
_space_group_symop_operation_xyz
x,y,z
-x,-y,z
x,-y,-z
-x,y,-z
-x,-y,-z
x,y,-z
-x,y,z
x,-y,z
1/2+x,1/2+y,1/2+z
1/2-x,1/2-y,1/2+z
1/2+x,1/2-y,1/2-z
1/2-x,1/2+y,1/2-z
1/2-x,1/2-y,1/2-z
1/2+x,1/2+y,1/2-z
1/2-x,1/2+y,1/2+z
1/2+x,1/2-y,1/2+z
loop_
_atom_site_type_symbol
_atom_site_label
_atom_site_fract_x
_atom_site_fract_y
_atom_site_fract_z
Si Si1 0.500000 0.341284 0.962714
Si Si2 0.795451 0.852682 0.778942
Si Si3 0.706887 0.348790 0.353058
Si Si4 0.297386 0.842897 0.412200
O O1 0.500000 0.500000 0.966365
O O2 0.677047 0.297143 0.943492
O O3 0.500000 0.274681 0.000000
O O4 0.750000 0.750000 0.750000
O O5 0.721832 0.808055 0.815718
O O6 0.000000 0.864383 0.782447
O O7 0.718404 0.000000 0.769517
O O8 0.500000 0.345317 0.353158
O O9 0.771979 0.500000 0.362199
O O10 0.774241 0.240960 0.380200
O O11 0.500000 0.811126 0.420955
O O12 0.272064 0.000000 0.403626
#
# Coordination Sequence:
#
# PCOD8292719 Si02
#       4
#     8  16  16  16
#     4   9  18  32  49  73 105 131 155 199 249 289
#     4   9  18  32  48  68  95 127 163 202 247 297
#     4   8  15  30  50  68  91 125 161 198 241 288
#     4   9  17  30  50  74  96 124 164 201 239 290
#
# _framework density 18.569358000000001
#
# number of rings (size 3 to 8) (size 9 to 14) (size 15 to 20)
#    0.000    3.286    0.000    1.714    0.000    2.286 
#    2.571    6.429    0.000    1.714    0.000    4.000 
#    0.000    0.000    0.000    0.000    0.000    0.000 
#
# Total GULP energy -346915.003707 kJ/mol
# GULP energy per Si atom -12389.821561 kJ/mol
# Density = 1.852709 g / cm^3
# Si number density = 18.569358 Si / 1000 Ang^3
#
#
#
# Elastic Constant Matrix: (Units=GPa)
#
#
# Indices 1 2 3 4 5 6 
#
# 1 59.3426 26.9051 50.1870 0.0000 0.0000 0.0000
# 2 26.9051 87.0242 90.6445 0.0000 0.0000 0.0000
# 3 50.1870 90.6445 191.7870 0.0000 0.0000 0.0000
# 4 0.0000 0.0000 0.0000 27.1045 0.0000 0.0000
# 5 0.0000 0.0000 0.0000 0.0000 24.7595 0.0000
# 6 0.0000 0.0000 0.0000 0.0000 0.0000 13.6877
#
#
#
# Elastic Compliance Matrix: (Units=1/GPa)
#
#
# Indices 1 2 3 4 5 6 
#
# 1 0.021749 -0.001568 -0.004950 0.000000 0.000000 0.000000
# 2 -0.001568 0.022746 -0.010340 0.000000 0.000000 0.000000
# 3 -0.004950 -0.010340 0.011397 0.000000 0.000000 0.000000
# 4 0.000000 0.000000 0.000000 0.036894 0.000000 0.000000
# 5 0.000000 0.000000 0.000000 0.000000 0.040389 0.000000
# 6 0.000000 0.000000 0.000000 0.000000 0.000000 0.073058
#
#
# Mechanical properties :
#
#
# Convention : Reuss Voigt Hill
#
# Bulk Modulus (GPa) = 45.09625 74.84744 59.97184
# Shear Modulus (GPa) = 20.21502 24.47149 22.34325
#
# Velocity S-wave (km/s) = 3.30301 3.63415 3.47253
# Velocity P-wave (km/s) = 6.23574 7.61603 6.96018
#
# Compressibility (1/GPa) = 0.02217479
#
# Stress axis : x y z
#
# Youngs Moduli (GPa) = 45.98005 43.96324 87.74520
#
# Poissons Ratio (x) = 0.06893 0.43435
# Poissons Ratio (y) = 0.07209 0.90731
# Poissons Ratio (z) = 0.22761 0.45459
#
# Static dielectric constant tensor:
#      x y z
#    x 3.086450 0.000000 0.000000 
#    y 0.000000 3.375660 0.000000 
#    z 0.000000 0.000000 44.818000 
# 
# 
# High freq. dielectric constant tensor:
#      x y z
#    x 1.710090 0.000000 0.000000 
#    y 0.000000 1.700660 0.000000 
#    z 0.000000 0.000000 1.718940 
# 
# From -- ./inp_files/18402.got.cif
#   From: 2010.06.25/outbox.cif.g09.slc.cpg/sg71_10_cif.got.tgz:18402.got - 2010.06.28 04:59:45.
