data_PCOD8292641
_publ_section_title
;
Structure prediction by ZEFSAII (Michael W. Deem and Ramdas Pophale) SiO2 
 PCOD8292641
Probable space group: I M M M
;
_chemical_formula_sum "Si O2"
_cell_formula_units_Z 112
_cell_length_a 23.059069
_cell_length_b 19.331708
_cell_length_c 22.225751
_cell_angle_alpha 90.000000
_cell_angle_beta 90.000000
_cell_angle_gamma 90.000000
_cell_volume 9907.599442
_symmetry_space_group_name_H-M "I M M M"
_symmetry_group_IT_number 71
_symmetry_cell_setting 'orthorhombic'
loop_
_space_group_symop_operation_xyz
x,y,z
-x,-y,z
x,-y,-z
-x,y,-z
-x,-y,-z
x,y,-z
-x,y,z
x,-y,z
1/2+x,1/2+y,1/2+z
1/2-x,1/2-y,1/2+z
1/2+x,1/2-y,1/2-z
1/2-x,1/2+y,1/2-z
1/2-x,1/2-y,1/2-z
1/2+x,1/2+y,1/2-z
1/2-x,1/2+y,1/2+z
1/2+x,1/2-y,1/2+z
loop_
_atom_site_type_symbol
_atom_site_label
_atom_site_fract_x
_atom_site_fract_y
_atom_site_fract_z
Si Si1 0.431434 0.841099 0.114465
Si Si2 0.000000 0.417436 0.067891
Si Si3 0.068059 0.580077 0.731344
Si Si4 0.153642 0.076765 0.571478
Si Si5 0.218199 0.582227 0.932814
Si Si6 0.930693 0.578047 0.500000
Si Si7 0.933233 0.193169 0.429426
Si Si8 0.109881 0.582179 0.859587
O O1 0.500000 0.849543 0.112576
O O2 0.408143 0.872643 0.176948
O O3 0.414086 0.760868 0.107833
O O4 0.405102 0.884247 0.058890
O O5 0.943226 0.387961 0.101268
O O6 0.000000 0.500000 0.069037
O O7 0.000000 0.389303 0.000000
O O8 0.080219 0.500000 0.715585
O O9 0.103131 0.604778 0.790265
O O10 0.000000 0.591146 0.743686
O O11 0.151293 0.072474 0.500000
O O12 0.217720 0.103310 0.590752
O O13 0.105398 0.129976 0.595384
O O14 0.140866 0.000000 0.598039
O O15 0.214666 0.500000 0.935952
O O16 0.169991 0.611872 0.886849
O O17 0.206651 0.612012 0.000000
O O18 0.907785 0.500000 0.500000
O O19 0.000000 0.581034 0.500000
O O20 0.923030 0.207853 0.500000
O O21 0.000000 0.173992 0.417341
O O22 0.108613 0.500000 0.863562
#
# Coordination Sequence:
#
# PCOD8292641 Si02
#       8
#    16   8  16  16  16   8  16  16
#     4   9  15  22  31  43  60  81 103 128 158 188
#     4   9  14  18  26  42  62  81 101 127 160 186
#     4   9  15  22  30  42  61  84 108 132 155 180
#     4   8  14  23  34  48  63  78  98 124 156 193
#     4   8  13  21  32  45  60  79 103 128 151 178
#     4   9  14  20  30  44  59  77 103 131 158 187
#     4   9  15  23  34  47  63  79  97 126 161 195
#     4   9  14  20  29  42  61  82 104 129 156 181
#
# _framework density 11.304454
#
# number of rings (size 3 to 8) (size 9 to 14) (size 15 to 20)
#    0.000    3.286    1.429    1.714    0.000    3.714 
#    0.000    1.429    0.000    0.857    0.000    0.000 
#    0.000    0.000    0.000    0.000    0.000    0.000 
#
# Total GULP energy -694011.030264 kJ/mol
# GULP energy per Si atom -12393.054112 kJ/mol
# Density = 1.127872 g / cm^3
# Si number density = 11.304454 Si / 1000 Ang^3
#
#
#
# Elastic Constant Matrix: (Units=GPa)
#
#
# Indices 1 2 3 4 5 6 
#
# 1 62.2645 35.2694 35.5565 0.0000 0.0000 0.0000
# 2 35.2694 50.7996 34.4182 0.0000 0.0000 0.0000
# 3 35.5565 34.4182 74.2992 0.0000 0.0000 0.0000
# 4 0.0000 0.0000 0.0000 6.6215 0.0000 0.0000
# 5 0.0000 0.0000 0.0000 0.0000 7.6737 0.0000
# 6 0.0000 0.0000 0.0000 0.0000 0.0000 5.0757
#
#
#
# Elastic Compliance Matrix: (Units=1/GPa)
#
#
# Indices 1 2 3 4 5 6 
#
# 1 0.028482 -0.015361 -0.006514 0.000000 0.000000 0.000000
# 2 -0.015361 0.036974 -0.009777 0.000000 0.000000 0.000000
# 3 -0.006514 -0.009777 0.021106 0.000000 0.000000 0.000000
# 4 0.000000 0.000000 0.000000 0.151022 0.000000 0.000000
# 5 0.000000 0.000000 0.000000 0.000000 0.130315 0.000000
# 6 0.000000 0.000000 0.000000 0.000000 0.000000 0.197018
#
#
# Mechanical properties :
#
#
# Convention : Reuss Voigt Hill
#
# Bulk Modulus (GPa) = 42.99708 44.20573 43.60140
# Shear Modulus (GPa) = 7.86197 9.34879 8.60538
#
# Velocity S-wave (km/s) = 2.64005 2.87888 2.76205
# Velocity P-wave (km/s) = 6.88558 7.08803 6.98754
#
# Compressibility (1/GPa) = 0.02325739
#
# Stress axis : x y z
#
# Youngs Moduli (GPa) = 35.11038 27.04610 47.38066
#
# Poissons Ratio (x) = 0.41544 0.30866
# Poissons Ratio (y) = 0.53932 0.46323
# Poissons Ratio (z) = 0.22873 0.26442
#
# Static dielectric constant tensor:
#      x y z
#    x 2.392150 0.000000 0.000000 
#    y 0.000000 2.233330 0.000000 
#    z 0.000000 0.000000 2.416900 
# 
# 
# High freq. dielectric constant tensor:
#      x y z
#    x 1.405540 0.000000 0.000000 
#    y 0.000000 1.391430 0.000000 
#    z 0.000000 0.000000 1.414040 
# 
# From -- ./inp_files/55311.got.cif
#   From: 2010.06.25/outbox.cif.g09.slc.cpg/sg71_28_cif.got.tgz:55311.got - 2010.06.28 04:59:45.
