data_PCOD8292337
_publ_section_title
;
Structure prediction by ZEFSAII (Michael W. Deem and Ramdas Pophale) SiO2 
 PCOD8292337
Probable space group: I M M M
;
_chemical_formula_sum "Si O2"
_cell_formula_units_Z 104
_cell_length_a 26.803562
_cell_length_b 23.742177
_cell_length_c 9.103315
_cell_angle_alpha 90.000000
_cell_angle_beta 90.000000
_cell_angle_gamma 90.000000
_cell_volume 5793.121293
_symmetry_space_group_name_H-M "I M M M"
_symmetry_group_IT_number 71
_symmetry_cell_setting 'orthorhombic'
loop_
_space_group_symop_operation_xyz
x,y,z
-x,-y,z
x,-y,-z
-x,y,-z
-x,-y,-z
x,y,-z
-x,y,z
x,-y,z
1/2+x,1/2+y,1/2+z
1/2-x,1/2-y,1/2+z
1/2+x,1/2-y,1/2-z
1/2-x,1/2+y,1/2-z
1/2-x,1/2-y,1/2-z
1/2+x,1/2+y,1/2-z
1/2-x,1/2+y,1/2+z
1/2+x,1/2-y,1/2+z
loop_
_atom_site_type_symbol
_atom_site_label
_atom_site_fract_x
_atom_site_fract_y
_atom_site_fract_z
Si Si1 0.500000 0.938719 0.326626
Si Si2 0.214076 0.137795 0.327989
Si Si3 0.181782 0.357655 0.673806
Si Si4 0.855737 0.761176 0.673479
Si Si5 0.444024 0.336477 0.824479
Si Si6 0.877247 0.062577 0.673907
Si Si7 0.607070 0.932874 0.666657
O O1 0.500000 0.947688 0.500000
O O2 0.447782 0.908116 0.284685
O O3 0.500000 0.000000 0.250021
O O4 0.226892 0.136364 0.500000
O O5 0.263842 0.131028 0.236216
O O6 0.188468 0.196495 0.282358
O O7 0.177097 0.086860 0.284232
O O8 0.185573 0.355098 0.500000
O O9 0.157671 0.300003 0.738962
O O10 0.147351 0.409197 0.721528
O O11 0.859659 0.757529 0.500000
O O12 0.908968 0.785032 0.732912
O O13 0.500000 0.329328 0.761101
O O14 0.420682 0.395685 0.767397
O O15 0.444618 0.336724 0.000000
O O16 0.881481 0.059450 0.500000
O O17 0.883758 0.000000 0.742655
O O18 0.620040 0.914373 0.500000
O O19 0.606551 0.000000 0.678339
#
# Coordination Sequence:
#
# PCOD8292337 Si02
#       7
#     8  16  16  16  16  16  16
#     4   7  12  28  53  71  83 109 149 185 214 259
#     4   9  17  31  49  64  88 129 168 197 231 277
#     4  11  21  31  45  70  99 122 154 200 243 281
#     4   8  16  30  44  62  90 125 163 197 231 278
#     4   8  13  23  40  61  90 127 156 181 225 284
#     4   8  14  24  40  65  92 117 152 196 234 270
#     4   9  18  34  54  72  91 119 154 189 230 283
#
# _framework density 17.952324999999998
#
# number of rings (size 3 to 8) (size 9 to 14) (size 15 to 20)
#    0.000    3.308    0.000    3.692    0.000    1.231 
#    1.385    4.231    0.000    1.385    0.000    0.000 
#    0.000    6.000    0.000    5.538    0.000    6.154 
#
# Total GULP energy -644291.428975 kJ/mol
# GULP energy per Si atom -12390.219788 kJ/mol
# Density = 1.791146 g / cm^3
# Si number density = 17.952325 Si / 1000 Ang^3
#
#
#
# Elastic Constant Matrix: (Units=GPa)
#
#
# Indices 1 2 3 4 5 6 
#
# 1 161.2115 38.9511 31.7595 0.0000 0.0000 0.0000
# 2 38.9511 50.1602 10.8312 0.0000 0.0000 0.0000
# 3 31.7595 10.8312 28.8189 0.0000 0.0000 0.0000
# 4 0.0000 0.0000 0.0000 13.4476 0.0000 0.0000
# 5 0.0000 0.0000 0.0000 0.0000 6.6881 0.0000
# 6 0.0000 0.0000 0.0000 0.0000 0.0000 16.8181
#
#
#
# Elastic Compliance Matrix: (Units=1/GPa)
#
#
# Indices 1 2 3 4 5 6 
#
# 1 0.009060 -0.005310 -0.007988 0.000000 0.000000 0.000000
# 2 -0.005310 0.024810 -0.003472 0.000000 0.000000 0.000000
# 3 -0.007988 -0.003472 0.044808 0.000000 0.000000 0.000000
# 4 0.000000 0.000000 0.000000 0.074363 0.000000 0.000000
# 5 0.000000 0.000000 0.000000 0.000000 0.149518 0.000000
# 6 0.000000 0.000000 0.000000 0.000000 0.000000 0.059460
#
#
# Mechanical properties :
#
#
# Convention : Reuss Voigt Hill
#
# Bulk Modulus (GPa) = 22.15552 44.80824 33.48188
# Shear Modulus (GPa) = 12.17715 17.96737 15.07226
#
# Velocity S-wave (km/s) = 2.60725 3.16703 2.90068
# Velocity P-wave (km/s) = 4.62945 6.19574 5.46896
#
# Compressibility (1/GPa) = 0.04513547
#
# Stress axis : x y z
#
# Youngs Moduli (GPa) = 110.37711 40.30713 22.31744
#
# Poissons Ratio (x) = 0.21404 0.17828
# Poissons Ratio (y) = 0.58614 0.07749
# Poissons Ratio (z) = 0.88174 0.13995
#
# Static dielectric constant tensor:
#      x y z
#    x 3.600610 0.000000 0.000000 
#    y 0.000000 3.635440 0.000000 
#    z 0.000000 0.000000 2.745730 
# 
# 
# High freq. dielectric constant tensor:
#      x y z
#    x 1.709000 0.000000 0.000000 
#    y 0.000000 1.688220 0.000000 
#    z 0.000000 0.000000 1.634260 
# 
# From -- ./inp_files/15565.got.cif
#   From: 2010.06.25/outbox.cif.g09.slc.cpg/sg71_8_cif.got.tgz:15565.got - 2010.06.28 04:59:45.
