data_PCOD8292970
_publ_section_title
;
Structure prediction by ZEFSAII (Michael W. Deem and Ramdas Pophale) SiO2 
 PCOD8292970
Probable space group: I B A M
;
_chemical_formula_sum "Si O2"
_cell_formula_units_Z 116
_cell_length_a 34.465504
_cell_length_b 24.294276
_cell_length_c 9.202728
_cell_angle_alpha 90.000000
_cell_angle_beta 90.000000
_cell_angle_gamma 90.000000
_cell_volume 7705.577287
_symmetry_space_group_name_H-M "I B A M"
_symmetry_group_IT_number 72
_symmetry_cell_setting 'orthorhombic'
loop_
_space_group_symop_operation_xyz
x,y,z
-x,-y,z
x,-y,1/2-z
-x,y,1/2-z
-x,-y,-z
x,y,-z
-x,y,1/2+z
x,-y,1/2+z
1/2+x,1/2+y,1/2+z
1/2-x,1/2-y,1/2+z
1/2+x,1/2-y,-z
1/2-x,1/2+y,-z
1/2-x,1/2-y,1/2-z
1/2+x,1/2+y,1/2-z
1/2-x,1/2+y,z
1/2+x,1/2-y,z
loop_
_atom_site_type_symbol
_atom_site_label
_atom_site_fract_x
_atom_site_fract_y
_atom_site_fract_z
Si Si1 0.631261 0.595366 0.168025
Si Si2 0.615778 0.722287 0.829149
Si Si3 0.961266 0.793874 0.827087
Si Si4 0.742853 0.329901 0.666140
Si Si5 0.000000 0.000000 0.250000
Si Si6 0.286067 0.554084 0.330967
Si Si7 0.811319 0.748204 0.168157
Si Si8 0.440533 0.584484 0.159071
O O1 0.629172 0.660026 0.202181
O O2 0.671364 0.570899 0.228967
O O3 0.594862 0.564614 0.240563
O O4 0.627720 0.583138 0.000000
O O5 0.575807 0.736114 0.745417
O O6 0.649386 0.760366 0.760214
O O7 0.610804 0.734390 0.000000
O O8 0.958804 0.858347 0.785592
O O9 0.000000 0.770377 0.750000
O O10 0.962713 0.783013 0.000000
O O11 0.728242 0.320027 0.500000
O O12 0.742921 0.395019 0.700855
O O13 0.786396 0.307597 0.687147
O O14 0.713343 0.299549 0.772956
O O15 0.973502 0.961708 0.149562
O O16 0.270507 0.500000 0.250000
O O17 0.287799 0.540274 0.500000
O O18 0.821390 0.759436 0.000000
O O19 0.422979 0.594074 0.000000
#
# Coordination Sequence:
#
# PCOD8292970 Si02
#       8
#    16  16  16  16   4  16  16  16
#     4   9  19  34  48  59  79 106 134 170 219 267
#     4  10  18  31  49  66  87 113 138 175 225 270
#     4  10  19  33  47  63  82 106 138 172 213 264
#     4   9  18  33  47  63  91 119 142 176 225 268
#     4  12  22  36  44  58  70  96 132 178 230 272
#     4  10  20  34  47  63  86 116 146 177 215 263
#     4  10  18  28  48  72  89 110 143 182 221 268
#     4  10  22  34  45  57  72  95 129 173 217 264
#
# _framework density 15.054031999999999
#
# number of rings (size 3 to 8) (size 9 to 14) (size 15 to 20)
#    0.000    2.207    2.069    1.448    0.966    3.862 
#    0.000    0.000    0.000    0.000    0.000    0.000 
#    0.000    0.000    0.000    0.000    0.000    0.690 
#
# Total GULP energy -719132.155154 kJ/mol
# GULP energy per Si atom -12398.830261 kJ/mol
# Density = 1.501977 g / cm^3
# Si number density = 15.054032 Si / 1000 Ang^3
#
#
#
# Elastic Constant Matrix: (Units=GPa)
#
#
# Indices 1 2 3 4 5 6 
#
# 1 101.3890 39.2596 50.2845 0.0000 0.0000 0.0000
# 2 39.2596 56.7225 28.2685 0.0000 0.0000 0.0000
# 3 50.2845 28.2685 78.0832 0.0000 0.0000 0.0000
# 4 0.0000 0.0000 0.0000 16.0910 0.0000 0.0000
# 5 0.0000 0.0000 0.0000 0.0000 26.1499 0.0000
# 6 0.0000 0.0000 0.0000 0.0000 0.0000 21.8899
#
#
#
# Elastic Compliance Matrix: (Units=1/GPa)
#
#
# Indices 1 2 3 4 5 6 
#
# 1 0.016815 -0.007616 -0.008072 0.000000 0.000000 0.000000
# 2 -0.007616 0.024960 -0.004132 0.000000 0.000000 0.000000
# 3 -0.008072 -0.004132 0.019501 0.000000 0.000000 0.000000
# 4 0.000000 0.000000 0.000000 0.062147 0.000000 0.000000
# 5 0.000000 0.000000 0.000000 0.000000 0.038241 0.000000
# 6 0.000000 0.000000 0.000000 0.000000 0.000000 0.045683
#
#
# Mechanical properties :
#
#
# Convention : Reuss Voigt Hill
#
# Bulk Modulus (GPa) = 46.21610 52.42440 49.32025
# Shear Modulus (GPa) = 19.66976 20.71829 20.19403
#
# Velocity S-wave (km/s) = 3.61863 3.71383 3.66654
# Velocity P-wave (km/s) = 6.94450 7.29998 7.12446
#
# Compressibility (1/GPa) = 0.02163748
#
# Stress axis : x y z
#
# Youngs Moduli (GPa) = 59.47049 40.06417 51.28025
#
# Poissons Ratio (x) = 0.30512 0.41391
# Poissons Ratio (y) = 0.45291 0.21188
# Poissons Ratio (z) = 0.48002 0.16554
#
# Static dielectric constant tensor:
#      x y z
#    x 2.966610 0.000000 0.000000 
#    y 0.000000 2.594820 0.000000 
#    z 0.000000 0.000000 2.923450 
# 
# 
# High freq. dielectric constant tensor:
#      x y z
#    x 1.570420 0.000000 0.000000 
#    y 0.000000 1.521930 0.000000 
#    z 0.000000 0.000000 1.587870 
# 
# From -- ./inp_files/9472.got.cif
#   From: 2010.03.12/outbox.cif.g09.slc.cpg/sg72_5_cif.got.tgz:9472.got - 2010.04.16 14:54:00.
