data_PCOD8292390
_publ_section_title
;
Structure prediction by ZEFSAII (Michael W. Deem and Ramdas Pophale) SiO2 
 PCOD8292390
Probable space group: I M M M
;
_chemical_formula_sum "Si O2"
_cell_formula_units_Z 72
_cell_length_a 21.538494
_cell_length_b 9.026079
_cell_length_c 19.207071
_cell_angle_alpha 90.000000
_cell_angle_beta 90.000000
_cell_angle_gamma 90.000000
_cell_volume 3734.011109
_symmetry_space_group_name_H-M "I M M M"
_symmetry_group_IT_number 71
_symmetry_cell_setting 'orthorhombic'
loop_
_space_group_symop_operation_xyz
x,y,z
-x,-y,z
x,-y,-z
-x,y,-z
-x,-y,-z
x,y,-z
-x,y,z
x,-y,z
1/2+x,1/2+y,1/2+z
1/2-x,1/2-y,1/2+z
1/2+x,1/2-y,1/2-z
1/2-x,1/2+y,1/2-z
1/2-x,1/2-y,1/2-z
1/2+x,1/2+y,1/2-z
1/2-x,1/2+y,1/2+z
1/2+x,1/2-y,1/2+z
loop_
_atom_site_type_symbol
_atom_site_label
_atom_site_fract_x
_atom_site_fract_y
_atom_site_fract_z
Si Si1 0.721060 0.670657 0.420143
Si Si2 0.928527 0.173624 0.702171
Si Si3 0.500000 0.176129 0.578050
Si Si4 0.635412 0.170293 0.920029
Si Si5 0.117807 0.324707 0.164524
O O1 0.706063 0.710936 0.500000
O O2 0.704332 0.500000 0.405462
O O3 0.792722 0.701644 0.403642
O O4 0.681884 0.775840 0.370171
O O5 0.907328 0.224051 0.625951
O O6 0.886622 0.256126 0.758970
O O7 0.000000 0.218187 0.713141
O O8 0.918178 0.000000 0.709729
O O9 0.500000 0.241875 0.500000
O O10 0.439151 0.234960 0.617664
O O11 0.500000 0.000000 0.575697
O O12 0.619370 0.000000 0.903609
O O13 0.620586 0.207241 0.000000
O O14 0.116665 0.500000 0.171575
#
# Coordination Sequence:
#
# PCOD8292390 Si02
#       5
#    16  16   8  16  16
#     4   9  19  37  59  85 118 151 186 233 285 338
#     4  11  24  40  58  82 116 152 189 237 289 341
#     4   9  18  32  51  79 112 145 186 233 275 320
#     4   9  20  40  64  87 112 146 189 235 284 342
#     4  11  21  35  57  83 115 154 193 235 281 332
#
# _framework density 19.282214
#
# number of rings (size 3 to 8) (size 9 to 14) (size 15 to 20)
#    0.000    2.111    1.111    3.333    0.000    5.333 
#    0.000    4.444    0.000    2.667    0.000    0.000 
#    0.000    0.000    0.000    0.000    0.000    0.000 
#
# Total GULP energy -446565.387840 kJ/mol
# GULP energy per Si atom -12404.594107 kJ/mol
# Density = 1.923833 g / cm^3
# Si number density = 19.282214 Si / 1000 Ang^3
#
#
#
# Elastic Constant Matrix: (Units=GPa)
#
#
# Indices 1 2 3 4 5 6 
#
# 1 53.9605 45.2571 41.2619 0.0000 0.0000 0.0000
# 2 45.2571 80.3826 50.9869 0.0000 0.0000 0.0000
# 3 41.2619 50.9869 113.3534 0.0000 0.0000 0.0000
# 4 0.0000 0.0000 0.0000 34.8979 0.0000 0.0000
# 5 0.0000 0.0000 0.0000 0.0000 37.3264 0.0000
# 6 0.0000 0.0000 0.0000 0.0000 0.0000 32.8585
#
#
#
# Elastic Compliance Matrix: (Units=1/GPa)
#
#
# Indices 1 2 3 4 5 6 
#
# 1 0.037688 -0.017514 -0.005841 0.000000 0.000000 0.000000
# 2 -0.017514 0.025546 -0.005115 0.000000 0.000000 0.000000
# 3 -0.005841 -0.005115 0.013249 0.000000 0.000000 0.000000
# 4 0.000000 0.000000 0.000000 0.028655 0.000000 0.000000
# 5 0.000000 0.000000 0.000000 0.000000 0.026791 0.000000
# 6 0.000000 0.000000 0.000000 0.000000 0.000000 0.030434
#
#
# Mechanical properties :
#
#
# Convention : Reuss Voigt Hill
#
# Bulk Modulus (GPa) = 51.17164 58.07868 54.62516
# Shear Modulus (GPa) = 22.14189 28.36258 25.25224
#
# Velocity S-wave (km/s) = 3.39234 3.83942 3.62278
# Velocity P-wave (km/s) = 6.47610 7.05978 6.77423
#
# Compressibility (1/GPa) = 0.01954207
#
# Stress axis : x y z
#
# Youngs Moduli (GPa) = 26.53399 39.14507 75.47734
#
# Poissons Ratio (x) = 0.68559 0.44085
# Poissons Ratio (y) = 0.46472 0.38610
# Poissons Ratio (z) = 0.15498 0.20024
#
# Static dielectric constant tensor:
#      x y z
#    x 3.471280 0.000000 0.000000 
#    y 0.000000 3.307990 0.000000 
#    z 0.000000 0.000000 3.532410 
# 
# 
# High freq. dielectric constant tensor:
#      x y z
#    x 1.750460 0.000000 0.000000 
#    y 0.000000 1.739600 0.000000 
#    z 0.000000 0.000000 1.758590 
# 
# From -- ./inp_files/7959.got.cif
#   From: 2010.06.25/outbox.cif.g09.slc.cpg/sg71_4_cif.got.tgz:7959.got - 2010.06.28 04:59:45.
