data_PCOD8292536
_publ_section_title
;
Structure prediction by ZEFSAII (Michael W. Deem and Ramdas Pophale) SiO2 
 PCOD8292536
Probable space group: I M M M
;
_chemical_formula_sum "Si O2"
_cell_formula_units_Z 64
_cell_length_a 8.796609
_cell_length_b 13.049374
_cell_length_c 28.620236
_cell_angle_alpha 90.000000
_cell_angle_beta 90.000000
_cell_angle_gamma 90.000000
_cell_volume 3285.323781
_symmetry_space_group_name_H-M "I M M M"
_symmetry_group_IT_number 71
_symmetry_cell_setting 'orthorhombic'
loop_
_space_group_symop_operation_xyz
x,y,z
-x,-y,z
x,-y,-z
-x,y,-z
-x,-y,-z
x,y,-z
-x,y,z
x,-y,z
1/2+x,1/2+y,1/2+z
1/2-x,1/2-y,1/2+z
1/2+x,1/2-y,1/2-z
1/2-x,1/2+y,1/2-z
1/2-x,1/2-y,1/2-z
1/2+x,1/2+y,1/2-z
1/2-x,1/2+y,1/2+z
1/2+x,1/2-y,1/2+z
loop_
_atom_site_type_symbol
_atom_site_label
_atom_site_fract_x
_atom_site_fract_y
_atom_site_fract_z
Si Si1 0.823975 0.500000 0.750728
Si Si2 0.319454 0.500000 0.145620
Si Si3 0.172815 0.183300 0.788047
Si Si4 0.175110 0.615030 0.555000
Si Si5 0.827028 0.707271 0.886035
O O1 0.739415 0.500000 0.800802
O O2 0.779812 0.413612 0.714112
O O3 0.000000 0.500000 0.763911
O O4 0.500000 0.500000 0.146930
O O5 0.264864 0.600417 0.116833
O O6 0.250000 0.250000 0.750000
O O7 0.182356 0.239345 0.836563
O O8 0.000000 0.155638 0.774742
O O9 0.196473 0.625701 0.500000
O O10 0.232748 0.500000 0.570385
O O11 0.264949 0.709731 0.577379
O O12 0.000000 0.626107 0.569414
O O13 0.000000 0.680649 0.899621
#
# Coordination Sequence:
#
# PCOD8292536 Si02
#       5
#     8   8  16  16  16
#     4  12  24  38  56  81 118 159 204 254 300 353
#     4  12  24  40  63  85 118 163 207 249 302 361
#     4  11  23  38  57  83 119 160 203 248 298 354
#     4   9  20  41  67  94 124 157 196 244 300 361
#     4  11  24  40  61  90 124 158 202 252 302 358
#
# _framework density 19.480577
#
# number of rings (size 3 to 8) (size 9 to 14) (size 15 to 20)
#    0.000    1.250    2.500    4.500    1.750    4.000 
#    0.000    1.875    0.000    3.750    0.000    0.000 
#    0.000    0.000    0.000    0.000    0.000    0.000 
#
# Total GULP energy -396446.537067 kJ/mol
# GULP energy per Si atom -12388.954283 kJ/mol
# Density = 1.943624 g / cm^3
# Si number density = 19.480577 Si / 1000 Ang^3
#
#
#
# Elastic Constant Matrix: (Units=GPa)
#
#
# Indices 1 2 3 4 5 6 
#
# 1 150.8817 77.9708 44.7781 0.0000 0.0000 0.0000
# 2 77.9708 162.0702 32.8090 0.0000 0.0000 0.0000
# 3 44.7781 32.8090 47.4082 0.0000 0.0000 0.0000
# 4 0.0000 0.0000 0.0000 33.4672 0.0000 0.0000
# 5 0.0000 0.0000 0.0000 0.0000 30.8794 0.0000
# 6 0.0000 0.0000 0.0000 0.0000 0.0000 39.4469
#
#
#
# Elastic Compliance Matrix: (Units=1/GPa)
#
#
# Indices 1 2 3 4 5 6 
#
# 1 0.010782 -0.003635 -0.007668 0.000000 0.000000 0.000000
# 2 -0.003635 0.008401 -0.002381 0.000000 0.000000 0.000000
# 3 -0.007668 -0.002381 0.029984 0.000000 0.000000 0.000000
# 4 0.000000 0.000000 0.000000 0.029880 0.000000 0.000000
# 5 0.000000 0.000000 0.000000 0.000000 0.032384 0.000000
# 6 0.000000 0.000000 0.000000 0.000000 0.000000 0.025351
#
#
# Mechanical properties :
#
#
# Convention : Reuss Voigt Hill
#
# Bulk Modulus (GPa) = 45.87359 74.60844 60.24101
# Shear Modulus (GPa) = 29.16908 34.41217 31.79063
#
# Velocity S-wave (km/s) = 3.87375 4.20752 4.04408
# Velocity P-wave (km/s) = 6.60359 7.87314 7.26614
#
# Compressibility (1/GPa) = 0.02179904
#
# Stress axis : x y z
#
# Youngs Moduli (GPa) = 92.74939 119.03727 33.35137
#
# Poissons Ratio (x) = 0.43266 0.25575
# Poissons Ratio (y) = 0.33711 0.07940
# Poissons Ratio (z) = 0.71122 0.28339
#
# Static dielectric constant tensor:
#      x y z
#    x 3.860490 0.000000 0.000000 
#    y 0.000000 2.726570 0.000000 
#    z 0.000000 0.000000 3.290060 
# 
# 
# High freq. dielectric constant tensor:
#      x y z
#    x 1.768430 0.000000 0.000000 
#    y 0.000000 1.783130 0.000000 
#    z 0.000000 0.000000 1.741570 
# 
# From -- ./inp_files/16179.got.cif
#   From: 2010.06.25/outbox.cif.g09.slc.cpg/sg71_9_cif.got.tgz:16179.got - 2010.06.28 04:59:45.
