data_PCOD8292576
_publ_section_title
;
Structure prediction by ZEFSAII (Michael W. Deem and Ramdas Pophale) SiO2 
 PCOD8292576
Probable space group: I M M M
;
_chemical_formula_sum "Si O2"
_cell_formula_units_Z 104
_cell_length_a 9.132531
_cell_length_b 27.827590
_cell_length_c 19.875094
_cell_angle_alpha 90.000000
_cell_angle_beta 90.000000
_cell_angle_gamma 90.000000
_cell_volume 5050.983414
_symmetry_space_group_name_H-M "I M M M"
_symmetry_group_IT_number 71
_symmetry_cell_setting 'orthorhombic'
loop_
_space_group_symop_operation_xyz
x,y,z
-x,-y,z
x,-y,-z
-x,y,-z
-x,-y,-z
x,y,-z
-x,y,z
x,-y,z
1/2+x,1/2+y,1/2+z
1/2-x,1/2-y,1/2+z
1/2+x,1/2-y,1/2-z
1/2-x,1/2+y,1/2-z
1/2-x,1/2-y,1/2-z
1/2+x,1/2+y,1/2-z
1/2-x,1/2+y,1/2+z
1/2+x,1/2-y,1/2+z
loop_
_atom_site_type_symbol
_atom_site_label
_atom_site_fract_x
_atom_site_fract_y
_atom_site_fract_z
Si Si1 0.663257 0.116394 0.798838
Si Si2 0.326774 0.443526 0.812516
Si Si3 0.674749 0.396914 0.575289
Si Si4 0.169836 0.379860 0.078236
Si Si5 0.663614 0.222800 0.805560
Si Si6 0.328512 0.769580 0.577267
Si Si7 0.343698 0.500000 0.578228
O O1 0.500000 0.094621 0.807269
O O2 0.758660 0.080209 0.754342
O O3 0.738857 0.132558 0.869621
O O4 0.655890 0.170091 0.771071
O O5 0.500000 0.436287 0.809985
O O6 0.285356 0.500000 0.814877
O O7 0.264806 0.416935 0.878221
O O8 0.719469 0.381222 0.500000
O O9 0.500000 0.394309 0.583503
O O10 0.738500 0.450507 0.594186
O O11 0.215731 0.324866 0.093679
O O12 0.000000 0.387532 0.097074
O O13 0.197026 0.391759 0.000000
O O14 0.500000 0.243035 0.814393
O O15 0.750000 0.250000 0.750000
O O16 0.742982 0.231116 0.877277
O O17 0.290049 0.757724 0.500000
O O18 0.500000 0.762258 0.589964
O O19 0.500000 0.500000 0.617266
O O20 0.380983 0.500000 0.500000
#
# Coordination Sequence:
#
# PCOD8292576 Si02
#       7
#    16  16  16  16  16  16   8
#     4  11  25  41  57  82 117 154 192 241 297 348
#     4  11  25  42  60  85 117 154 199 249 295 344
#     4   9  18  34  57  83 111 146 188 233 280 331
#     4   9  19  38  64  93 124 156 190 232 286 349
#     4  11  24  40  59  84 115 152 194 240 290 346
#     4   9  19  37  62  92 124 156 192 236 286 345
#     4   7  12  26  49  75 101 131 170 217 264 309
#
# _framework density 20.590050000000002
#
# number of rings (size 3 to 8) (size 9 to 14) (size 15 to 20)
#    0.000    2.231    0.000    4.154    1.077    9.846 
#    0.000    6.154    0.000    1.385    0.000    0.000 
#    0.000    0.000    0.000    0.000    0.000    0.000 
#
# Total GULP energy -644195.047628 kJ/mol
# GULP energy per Si atom -12388.366301 kJ/mol
# Density = 2.054319 g / cm^3
# Si number density = 20.590050 Si / 1000 Ang^3
#
#
#
# Elastic Constant Matrix: (Units=GPa)
#
#
# Indices 1 2 3 4 5 6 
#
# 1 101.8116 42.7217 51.8360 0.0001 0.0000 0.0000
# 2 42.7217 85.7203 30.2884 0.0001 0.0000 0.0000
# 3 51.8360 30.2884 104.5755 0.0004 -0.0001 0.0000
# 4 0.0001 0.0001 0.0004 33.5356 0.0000 0.0000
# 5 0.0000 0.0000 -0.0001 0.0000 35.7692 0.0000
# 6 0.0000 0.0000 0.0000 0.0000 0.0000 29.3435
#
#
#
# Elastic Compliance Matrix: (Units=1/GPa)
#
#
# Indices 1 2 3 4 5 6 
#
# 1 0.015119 -0.005444 -0.005918 0.000000 0.000000 0.000000
# 2 -0.005444 0.014956 -0.001633 0.000000 0.000000 0.000000
# 3 -0.005918 -0.001633 0.012969 0.000000 0.000000 0.000000
# 4 0.000000 0.000000 0.000000 0.029819 0.000000 0.000000
# 5 0.000000 0.000000 0.000000 0.000000 0.027957 0.000000
# 6 0.000000 0.000000 0.000000 0.000000 0.000000 0.034079
#
#
# Mechanical properties :
#
#
# Convention : Reuss Voigt Hill
#
# Bulk Modulus (GPa) = 58.63630 60.19995 59.41813
# Shear Modulus (GPa) = 30.01658 30.88040 30.44849
#
# Velocity S-wave (km/s) = 3.82228 3.87689 3.84968
# Velocity P-wave (km/s) = 6.92962 7.02433 6.97714
#
# Compressibility (1/GPa) = 0.01705428
#
# Stress axis : x y z
#
# Youngs Moduli (GPa) = 66.13992 66.86141 77.10875
#
# Poissons Ratio (x) = 0.36402 0.45629
# Poissons Ratio (y) = 0.36009 0.12593
# Poissons Ratio (z) = 0.39139 0.10919
#
# Static dielectric constant tensor:
#      x y z
#    x 3.677640 0.000000 0.000000 
#    y 0.000000 4.577300 0.000000 
#    z 0.000000 0.000000 3.035270 
# 
# 
# High freq. dielectric constant tensor:
#      x y z
#    x 1.793000 0.000000 0.000000 
#    y 0.000000 1.809420 0.000000 
#    z 0.000000 0.000000 1.811600 
# 
# From -- ./inp_files/50933.got.cif
#   From: 2010.06.25/outbox.cif.g09.slc.cpg/sg71_26_cif.got.tgz:50933.got - 2010.06.28 04:59:45.
