data_PCOD8292660
_publ_section_title
;
Structure prediction by ZEFSAII (Michael W. Deem and Ramdas Pophale) SiO2 
 PCOD8292660
Probable space group: I M M M
;
_chemical_formula_sum "Si O2"
_cell_formula_units_Z 72
_cell_length_a 14.283892
_cell_length_b 28.863574
_cell_length_c 9.623071
_cell_angle_alpha 90.000000
_cell_angle_beta 90.000000
_cell_angle_gamma 90.000000
_cell_volume 3967.439876
_symmetry_space_group_name_H-M "I M M M"
_symmetry_group_IT_number 71
_symmetry_cell_setting 'orthorhombic'
loop_
_space_group_symop_operation_xyz
x,y,z
-x,-y,z
x,-y,-z
-x,y,-z
-x,-y,-z
x,y,-z
-x,y,z
x,-y,z
1/2+x,1/2+y,1/2+z
1/2-x,1/2-y,1/2+z
1/2+x,1/2-y,1/2-z
1/2-x,1/2+y,1/2-z
1/2-x,1/2-y,1/2-z
1/2+x,1/2+y,1/2-z
1/2-x,1/2+y,1/2+z
1/2+x,1/2-y,1/2+z
loop_
_atom_site_type_symbol
_atom_site_label
_atom_site_fract_x
_atom_site_fract_y
_atom_site_fract_z
Si Si1 0.210806 0.909767 0.162985
Si Si2 0.394858 0.134679 0.838359
Si Si3 0.395654 0.321059 0.334356
Si Si4 0.392485 0.500000 0.666033
Si Si5 0.111389 0.720397 0.154750
O O1 0.322944 0.907631 0.193333
O O2 0.165965 0.863046 0.226871
O O3 0.162386 0.955336 0.227877
O O4 0.190988 0.910967 0.000000
O O5 0.500000 0.119836 0.792351
O O6 0.357567 0.179969 0.758705
O O7 0.392199 0.147732 0.000000
O O8 0.397773 0.322242 0.500000
O O9 0.500000 0.327887 0.274588
O O10 0.353164 0.270813 0.289471
O O11 0.500000 0.500000 0.718268
O O12 0.389651 0.500000 0.500000
O O13 0.000000 0.723557 0.148000
O O14 0.150577 0.709619 0.000000
#
# Coordination Sequence:
#
# PCOD8292660 Si02
#       5
#    16  16  16   8  16
#     4   9  16  25  38  57  81 109 139 170 208 251
#     4   9  17  28  40  57  86 119 142 163 198 243
#     4   8  13  22  37  57  80 105 135 173 213 247
#     4   9  16  26  41  61  84 107 133 171 216 254
#     4   8  14  25  41  60  82 110 143 174 202 236
#
# _framework density 18.147722000000002
#
# number of rings (size 3 to 8) (size 9 to 14) (size 15 to 20)
#    0.000    3.444    0.000    2.000    0.000    3.556 
#    0.000    0.556    0.000    3.333    0.000    0.778 
#    0.000    7.111    0.000    0.000    0.000    0.667 
#
# Total GULP energy -445997.238170 kJ/mol
# GULP energy per Si atom -12388.812171 kJ/mol
# Density = 1.810642 g / cm^3
# Si number density = 18.147722 Si / 1000 Ang^3
#
#
#
# Elastic Constant Matrix: (Units=GPa)
#
#
# Indices 1 2 3 4 5 6 
#
# 1 106.4609 78.4140 14.1785 0.0006 0.0000 0.0000
# 2 78.4140 135.5520 21.5126 -0.0009 0.0001 0.0000
# 3 14.1785 21.5126 19.9187 -0.0016 0.0003 0.0001
# 4 0.0006 -0.0009 -0.0016 13.6208 0.0005 0.0002
# 5 0.0000 0.0001 0.0003 0.0005 7.5462 -0.0001
# 6 0.0000 0.0000 0.0001 0.0002 -0.0001 32.0741
#
#
#
# Elastic Compliance Matrix: (Units=1/GPa)
#
#
# Indices 1 2 3 4 5 6 
#
# 1 0.016416 -0.009222 -0.001725 -0.000001 0.000000 0.000000
# 2 -0.009222 0.014084 -0.008647 0.000000 0.000000 0.000000
# 3 -0.001725 -0.008647 0.060770 0.000007 -0.000002 0.000000
# 4 -0.000001 0.000000 0.000007 0.073417 -0.000005 0.000000
# 5 0.000000 0.000000 -0.000002 -0.000005 0.132517 0.000001
# 6 0.000000 0.000000 0.000000 0.000000 0.000001 0.031178
#
#
# Mechanical properties :
#
#
# Convention : Reuss Voigt Hill
#
# Bulk Modulus (GPa) = 19.20020 54.46020 36.83020
# Shear Modulus (GPa) = 12.98935 20.50331 16.74633
#
# Velocity S-wave (km/s) = 2.67827 3.36490 3.04102
# Velocity P-wave (km/s) = 4.49077 6.72096 5.71569
#
# Compressibility (1/GPa) = 0.05208279
#
# Stress axis : x y z
#
# Youngs Moduli (GPa) = 60.91792 71.00018 16.45541
#
# Poissons Ratio (x) = 0.65479 0.02838
# Poissons Ratio (y) = 0.56181 0.14229
# Poissons Ratio (z) = 0.10505 0.61393
#
# Static dielectric constant tensor:
#      x y z
#    x 3.453430 0.000000 0.000000 
#    y 0.000000 3.606840 0.000000 
#    z 0.000000 0.000000 2.828020 
# 
# 
# High freq. dielectric constant tensor:
#      x y z
#    x 1.707750 0.000000 0.000000 
#    y 0.000000 1.694840 0.000000 
#    z 0.000000 0.000000 1.629260 
# 
# From -- ./inp_files/6412.got.cif
#   From: 2010.06.25/outbox.cif.g09.slc.cpg/sg71_4_cif.got.tgz:6412.got - 2010.06.28 04:59:45.
