data_PCOD8292669
_publ_section_title
;
Structure prediction by ZEFSAII (Michael W. Deem and Ramdas Pophale) SiO2 
 PCOD8292669
Probable space group: I M M M
;
_chemical_formula_sum "Si O2"
_cell_formula_units_Z 88
_cell_length_a 17.998266
_cell_length_b 19.924872
_cell_length_c 19.274318
_cell_angle_alpha 90.000000
_cell_angle_beta 90.000000
_cell_angle_gamma 90.000000
_cell_volume 6912.023820
_symmetry_space_group_name_H-M "I M M M"
_symmetry_group_IT_number 71
_symmetry_cell_setting 'orthorhombic'
loop_
_space_group_symop_operation_xyz
x,y,z
-x,-y,z
x,-y,-z
-x,y,-z
-x,-y,-z
x,y,-z
-x,y,z
x,-y,z
1/2+x,1/2+y,1/2+z
1/2-x,1/2-y,1/2+z
1/2+x,1/2-y,1/2-z
1/2-x,1/2+y,1/2-z
1/2-x,1/2-y,1/2-z
1/2+x,1/2+y,1/2-z
1/2-x,1/2+y,1/2+z
1/2+x,1/2-y,1/2+z
loop_
_atom_site_type_symbol
_atom_site_label
_atom_site_fract_x
_atom_site_fract_y
_atom_site_fract_z
Si Si1 0.500000 0.580223 0.078223
Si Si2 0.412921 0.577333 0.306226
Si Si3 0.582105 0.826263 0.582240
Si Si4 0.288041 0.078127 0.581177
Si Si5 0.641824 0.420764 0.842038
Si Si6 0.588044 0.677401 0.576835
O O1 0.500000 0.500000 0.081756
O O2 0.572769 0.610162 0.115642
O O3 0.500000 0.606529 0.000000
O O4 0.500000 0.589826 0.291015
O O5 0.399016 0.500000 0.325763
O O6 0.365923 0.598786 0.238620
O O7 0.381894 0.622019 0.369475
O O8 0.576229 0.828786 0.500000
O O9 0.500000 0.841626 0.613683
O O10 0.640188 0.881652 0.608815
O O11 0.609807 0.751784 0.603896
O O12 0.272104 0.091351 0.500000
O O13 0.218535 0.106023 0.625404
O O14 0.303263 0.000000 0.595197
O O15 0.639210 0.500000 0.851243
O O16 0.621888 0.663469 0.500000
O O17 0.500000 0.672384 0.571786
#
# Coordination Sequence:
#
# PCOD8292669 Si02
#       6
#     8  16  16  16  16  16
#     4   9  14  20  32  46  63  91 121 143 163 194
#     4   9  15  23  35  50  69  92 115 140 170 200
#     4   8  14  25  38  50  66  88 113 141 174 207
#     4   9  16  24  35  51  69  89 115 146 172 196
#     4   9  15  23  32  47  70  92 114 140 171 199
#     4   8  14  24  37  51  66  87 114 141 171 206
#
# _framework density 12.731437
#
# number of rings (size 3 to 8) (size 9 to 14) (size 15 to 20)
#    0.000    3.364    0.909    1.636    0.000    2.909 
#    0.000    4.545    0.000    0.000    0.000    0.000 
#    0.000    0.000    0.000    0.000    0.000    0.000 
#
# Total GULP energy -545302.544154 kJ/mol
# GULP energy per Si atom -12393.239640 kJ/mol
# Density = 1.270246 g / cm^3
# Si number density = 12.731437 Si / 1000 Ang^3
#
#
#
# Elastic Constant Matrix: (Units=GPa)
#
#
# Indices 1 2 3 4 5 6 
#
# 1 75.5126 40.0360 42.1045 0.0000 0.0000 0.0000
# 2 40.0360 57.1774 39.8777 0.0000 0.0000 0.0000
# 3 42.1045 39.8777 68.7050 0.0000 0.0000 0.0000
# 4 0.0000 0.0000 0.0000 9.3386 0.0000 0.0000
# 5 0.0000 0.0000 0.0000 0.0000 11.2726 0.0000
# 6 0.0000 0.0000 0.0000 0.0000 0.0000 8.4136
#
#
#
# Elastic Compliance Matrix: (Units=1/GPa)
#
#
# Indices 1 2 3 4 5 6 
#
# 1 0.023496 -0.010769 -0.008148 0.000000 0.000000 0.000000
# 2 -0.010769 0.034320 -0.013321 0.000000 0.000000 0.000000
# 3 -0.008148 -0.013321 0.027280 0.000000 0.000000 0.000000
# 4 0.000000 0.000000 0.000000 0.107083 0.000000 0.000000
# 5 0.000000 0.000000 0.000000 0.000000 0.088711 0.000000
# 6 0.000000 0.000000 0.000000 0.000000 0.000000 0.118856
#
#
# Mechanical properties :
#
#
# Convention : Reuss Voigt Hill
#
# Bulk Modulus (GPa) = 48.49606 49.49237 48.99422
# Shear Modulus (GPa) = 10.61359 11.09674 10.85517
#
# Velocity S-wave (km/s) = 2.89044 2.95549 2.92315
# Velocity P-wave (km/s) = 7.02238 7.11373 7.06820
#
# Compressibility (1/GPa) = 0.02062023
#
# Stress axis : x y z
#
# Youngs Moduli (GPa) = 42.56083 29.13739 36.65677
#
# Poissons Ratio (x) = 0.31378 0.29870
# Poissons Ratio (y) = 0.45833 0.48829
# Poissons Ratio (z) = 0.34680 0.38813
#
# Static dielectric constant tensor:
#      x y z
#    x 2.651920 0.000000 0.000000 
#    y 0.000000 2.499250 0.000000 
#    z 0.000000 0.000000 2.619670 
# 
# 
# High freq. dielectric constant tensor:
#      x y z
#    x 1.462530 0.000000 0.000000 
#    y 0.000000 1.456470 0.000000 
#    z 0.000000 0.000000 1.469150 
# 
# From -- ./inp_files/36562.got.cif
#   From: 2010.06.25/outbox.cif.g09.slc.cpg/sg71_19_cif.got.tgz:36562.got - 2010.06.28 04:59:45.
