data_PCOD8292945
_publ_section_title
;
Structure prediction by ZEFSAII (Michael W. Deem and Ramdas Pophale) SiO2 
 PCOD8292945
Probable space group: I B A M
;
_chemical_formula_sum "Si O2"
_cell_formula_units_Z 120
_cell_length_a 17.712104
_cell_length_b 20.441694
_cell_length_c 21.044518
_cell_angle_alpha 90.000000
_cell_angle_beta 90.000000
_cell_angle_gamma 90.000000
_cell_volume 7619.492039
_symmetry_space_group_name_H-M "I B A M"
_symmetry_group_IT_number 72
_symmetry_cell_setting 'orthorhombic'
loop_
_space_group_symop_operation_xyz
x,y,z
-x,-y,z
x,-y,1/2-z
-x,y,1/2-z
-x,-y,-z
x,y,-z
-x,y,1/2+z
x,-y,1/2+z
1/2+x,1/2+y,1/2+z
1/2-x,1/2-y,1/2+z
1/2+x,1/2-y,-z
1/2-x,1/2+y,-z
1/2-x,1/2-y,1/2-z
1/2+x,1/2+y,1/2-z
1/2-x,1/2+y,z
1/2+x,1/2-y,z
loop_
_atom_site_type_symbol
_atom_site_label
_atom_site_fract_x
_atom_site_fract_y
_atom_site_fract_z
Si Si1 0.954966 0.738922 0.927954
Si Si2 0.249741 0.283386 0.318524
Si Si3 0.697624 0.809636 0.570678
Si Si4 0.094188 0.754439 0.149587
Si Si5 0.500000 0.324768 0.750000
Si Si6 0.087482 0.989674 0.425949
Si Si7 0.341838 0.622824 0.427509
Si Si8 0.611582 0.639262 0.352025
O O1 0.893072 0.679745 0.923358
O O2 0.917682 0.804391 0.899176
O O3 0.029921 0.717112 0.890686
O O4 0.977785 0.754048 0.000000
O O5 0.250000 0.250000 0.250000
O O6 0.279224 0.236654 0.372905
O O7 0.161847 0.297189 0.336389
O O8 0.305842 0.345651 0.320729
O O9 0.712966 0.778328 0.500000
O O10 0.749736 0.874492 0.576453
O O11 0.059879 0.777332 0.216148
O O12 0.121655 0.818546 0.111974
O O13 0.452004 0.369984 0.702284
O O14 0.102957 0.978076 0.500000
O O15 0.120757 0.928074 0.389010
O O16 0.131565 0.053420 0.400033
O O17 0.000000 0.000000 0.411445
O O18 0.370552 0.629754 0.500000
#
# Coordination Sequence:
#
# PCOD8292945 Si02
#       8
#    16  16  16  16   8  16  16  16
#     4   9  16  27  44  68  92 114 149 200 242 280
#     4  10  18  31  47  64  96 127 153 193 244 290
#     4   8  16  29  46  65  86 118 159 196 236 284
#     4  10  18  28  45  66  89 122 153 189 235 287
#     4  10  18  28  41  60  88 122 155 182 228 274
#     4  10  19  31  47  67  93 126 161 196 233 277
#     4   9  17  30  46  63  87 121 157 190 231 283
#     4  10  19  30  45  65  91 127 159 192 229 282
#
# _framework density 15.749081
#
# number of rings (size 3 to 8) (size 9 to 14) (size 15 to 20)
#    0.000    2.533    1.333    2.400    0.000    2.133 
#    0.000    3.000    0.000    0.000    0.000    0.933 
#    0.000    4.267    0.000    0.000    0.000    0.000 
#
# Total GULP energy -743285.858289 kJ/mol
# GULP energy per Si atom -12388.097638 kJ/mol
# Density = 1.571324 g / cm^3
# Si number density = 15.749081 Si / 1000 Ang^3
#
#
#
# Elastic Constant Matrix: (Units=GPa)
#
#
# Indices 1 2 3 4 5 6 
#
# 1 128.4319 45.2317 39.2345 0.0000 0.0000 0.0000
# 2 45.2317 54.6189 19.0065 0.0000 0.0000 0.0000
# 3 39.2345 19.0065 77.5604 0.0000 0.0000 0.0000
# 4 0.0000 0.0000 0.0000 16.9892 0.0000 0.0000
# 5 0.0000 0.0000 0.0000 0.0000 23.8295 0.0000
# 6 0.0000 0.0000 0.0000 0.0000 0.0000 21.4648
#
#
#
# Elastic Compliance Matrix: (Units=1/GPa)
#
#
# Indices 1 2 3 4 5 6 
#
# 1 0.012020 -0.008569 -0.003981 0.000000 0.000000 0.000000
# 2 -0.008569 0.026124 -0.002067 0.000000 0.000000 0.000000
# 3 -0.003981 -0.002067 0.015413 0.000000 0.000000 0.000000
# 4 0.000000 0.000000 0.000000 0.058861 0.000000 0.000000
# 5 0.000000 0.000000 0.000000 0.000000 0.041965 0.000000
# 6 0.000000 0.000000 0.000000 0.000000 0.000000 0.046588
#
#
# Mechanical properties :
#
#
# Convention : Reuss Voigt Hill
#
# Bulk Modulus (GPa) = 41.11132 51.95073 46.53102
# Shear Modulus (GPa) = 20.98080 22.93261 21.95670
#
# Velocity S-wave (km/s) = 3.65388 3.82006 3.73789
# Velocity P-wave (km/s) = 6.63036 7.24674 6.94539
#
# Compressibility (1/GPa) = 0.02432420
#
# Stress axis : x y z
#
# Youngs Moduli (GPa) = 83.19368 38.27844 64.87885
#
# Poissons Ratio (x) = 0.32801 0.25826
# Poissons Ratio (y) = 0.71289 0.13411
# Poissons Ratio (z) = 0.33116 0.07913
#
# Static dielectric constant tensor:
#      x y z
#    x 3.650860 0.000000 0.000000 
#    y 0.000000 2.640570 0.000000 
#    z 0.000000 0.000000 3.188270 
# 
# 
# High freq. dielectric constant tensor:
#      x y z
#    x 1.619960 0.000000 0.000000 
#    y 0.000000 1.537660 0.000000 
#    z 0.000000 0.000000 1.623520 
# 
# From -- ./inp_files/31961.got.cif
#   From: 2010.03.12/outbox.cif.g09.slc.cpg/sg72_16_cif.got.tgz:31961.got - 2010.04.16 14:54:00.
