data_PCOD8292938
_publ_section_title
;
Structure prediction by ZEFSAII (Michael W. Deem and Ramdas Pophale) SiO2 
 PCOD8292938
Probable space group: I B A M
;
_chemical_formula_sum "Si O2"
_cell_formula_units_Z 80
_cell_length_a 23.856287
_cell_length_b 24.375745
_cell_length_c 8.956090
_cell_angle_alpha 90.000000
_cell_angle_beta 90.000000
_cell_angle_gamma 90.000000
_cell_volume 5208.098604
_symmetry_space_group_name_H-M "I B A M"
_symmetry_group_IT_number 72
_symmetry_cell_setting 'orthorhombic'
loop_
_space_group_symop_operation_xyz
x,y,z
-x,-y,z
x,-y,1/2-z
-x,y,1/2-z
-x,-y,-z
x,y,-z
-x,y,1/2+z
x,-y,1/2+z
1/2+x,1/2+y,1/2+z
1/2-x,1/2-y,1/2+z
1/2+x,1/2-y,-z
1/2-x,1/2+y,-z
1/2-x,1/2-y,1/2-z
1/2+x,1/2+y,1/2-z
1/2-x,1/2+y,z
1/2+x,1/2-y,z
loop_
_atom_site_type_symbol
_atom_site_label
_atom_site_fract_x
_atom_site_fract_y
_atom_site_fract_z
Si Si1 0.266059 0.671040 0.827845
Si Si2 0.335080 0.229063 0.675077
Si Si3 0.262762 0.946529 0.325483
Si Si4 0.882811 0.445140 0.677077
Si Si5 0.441691 0.833145 0.175264
O O1 0.320521 0.707548 0.782122
O O2 0.212149 0.688917 0.736346
O O3 0.277299 0.606413 0.798981
O O4 0.251576 0.681882 0.000000
O O5 0.335309 0.219260 0.500000
O O6 0.395805 0.210816 0.736672
O O7 0.272382 0.957698 0.500000
O O8 0.322090 0.934961 0.248180
O O9 0.234066 0.000000 0.250000
O O10 0.909576 0.500000 0.750000
O O11 0.876547 0.452111 0.500000
O O12 0.922609 0.394445 0.719132
O O13 0.500000 0.818187 0.250000
O O14 0.449638 0.827627 0.000000
#
# Coordination Sequence:
#
# PCOD8292938 Si02
#       5
#    16  16  16  16  16
#     4   9  17  28  46  67  86 110 141 175 211 258
#     4   9  17  31  46  63  86 111 141 176 217 257
#     4  10  18  27  42  65  89 115 142 173 211 253
#     4  10  19  31  44  60  81 112 148 184 219 250
#     4  10  21  33  46  61  83 113 146 183 220 255
#
# _framework density 15.360692999999999
#
# number of rings (size 3 to 8) (size 9 to 14) (size 15 to 20)
#    0.000    2.400    2.000    2.400    0.000    3.600 
#    0.000    2.000    0.000    0.000    0.000    0.000 
#    0.000    0.800    0.000   10.000    0.000    0.000 
#
# Total GULP energy -495728.076409 kJ/mol
# GULP energy per Si atom -12393.201910 kJ/mol
# Density = 1.532573 g / cm^3
# Si number density = 15.360693 Si / 1000 Ang^3
#
#
#
# Elastic Constant Matrix: (Units=GPa)
#
#
# Indices 1 2 3 4 5 6 
#
# 1 88.2937 70.9329 29.0135 0.0000 0.0000 0.0000
# 2 70.9329 128.2679 38.1914 0.0000 0.0000 0.0000
# 3 29.0135 38.1914 49.2292 0.0000 0.0000 0.0000
# 4 0.0000 0.0000 0.0000 20.1617 0.0000 0.0000
# 5 0.0000 0.0000 0.0000 0.0000 17.8799 0.0000
# 6 0.0000 0.0000 0.0000 0.0000 0.0000 23.6484
#
#
#
# Elastic Compliance Matrix: (Units=1/GPa)
#
#
# Indices 1 2 3 4 5 6 
#
# 1 0.021087 -0.010352 -0.004397 0.000000 0.000000 0.000000
# 2 -0.010352 0.015220 -0.005706 0.000000 0.000000 0.000000
# 3 -0.004397 -0.005706 0.027331 0.000000 0.000000 0.000000
# 4 0.000000 0.000000 0.000000 0.049599 0.000000 0.000000
# 5 0.000000 0.000000 0.000000 0.000000 0.055929 0.000000
# 6 0.000000 0.000000 0.000000 0.000000 0.000000 0.042286
#
#
# Mechanical properties :
#
#
# Convention : Reuss Voigt Hill
#
# Bulk Modulus (GPa) = 43.99872 60.22959 52.11416
# Shear Modulus (GPa) = 19.23522 20.84820 20.04171
#
# Velocity S-wave (km/s) = 3.54253 3.68808 3.61604
# Velocity P-wave (km/s) = 6.74082 7.57834 7.17181
#
# Compressibility (1/GPa) = 0.02272793
#
# Stress axis : x y z
#
# Youngs Moduli (GPa) = 47.42158 65.70233 36.58796
#
# Poissons Ratio (x) = 0.68017 0.16087
# Poissons Ratio (y) = 0.49092 0.20879
# Poissons Ratio (z) = 0.20850 0.37492
#
# Static dielectric constant tensor:
#      x y z
#    x 2.771320 0.000000 0.000000 
#    y 0.000000 3.360600 0.000000 
#    z 0.000000 0.000000 2.950540 
# 
# 
# High freq. dielectric constant tensor:
#      x y z
#    x 1.541900 0.000000 0.000000 
#    y 0.000000 1.595830 0.000000 
#    z 0.000000 0.000000 1.597190 
# 
# From -- ./inp_files/6238.got.cif
#   From: 2010.03.12/outbox.cif.g09.slc.cpg/sg72_4_cif.got.tgz:6238.got - 2010.04.16 14:54:00.
