data_PCOD8292490
_publ_section_title
;
Structure prediction by ZEFSAII (Michael W. Deem and Ramdas Pophale) SiO2 
 PCOD8292490
Probable space group: I M M M
;
_chemical_formula_sum "Si O2"
_cell_formula_units_Z 88
_cell_length_a 8.782302
_cell_length_b 18.998837
_cell_length_c 27.013137
_cell_angle_alpha 90.000000
_cell_angle_beta 90.000000
_cell_angle_gamma 90.000000
_cell_volume 4507.237108
_symmetry_space_group_name_H-M "I M M M"
_symmetry_group_IT_number 71
_symmetry_cell_setting 'orthorhombic'
loop_
_space_group_symop_operation_xyz
x,y,z
-x,-y,z
x,-y,-z
-x,y,-z
-x,-y,-z
x,y,-z
-x,y,z
x,-y,z
1/2+x,1/2+y,1/2+z
1/2-x,1/2-y,1/2+z
1/2+x,1/2-y,1/2-z
1/2-x,1/2+y,1/2-z
1/2-x,1/2-y,1/2-z
1/2+x,1/2+y,1/2-z
1/2-x,1/2+y,1/2+z
1/2+x,1/2-y,1/2+z
loop_
_atom_site_type_symbol
_atom_site_label
_atom_site_fract_x
_atom_site_fract_y
_atom_site_fract_z
Si Si1 0.678141 0.820611 0.270158
Si Si2 0.171784 0.920432 0.558188
Si Si3 0.180809 0.579726 0.500000
Si Si4 0.179677 0.343336 0.400885
Si Si5 0.679399 0.580941 0.306890
Si Si6 0.824612 0.302498 0.116792
O O1 0.500000 0.819223 0.259387
O O2 0.750000 0.750000 0.250000
O O3 0.749621 0.887859 0.243093
O O4 0.717249 0.825379 0.327797
O O5 0.188220 0.912044 0.500000
O O6 0.293594 0.869815 0.583177
O O7 0.000000 0.900758 0.574682
O O8 0.209688 0.000000 0.574387
O O9 0.245231 0.500000 0.500000
O O10 0.240026 0.620024 0.548840
O O11 0.000000 0.578826 0.500000
O O12 0.260267 0.378789 0.354564
O O13 0.220925 0.261327 0.402314
O O14 0.000000 0.352618 0.395205
O O15 0.500000 0.590981 0.304376
O O16 0.728229 0.500000 0.310694
O O17 0.000000 0.279656 0.112541
#
# Coordination Sequence:
#
# PCOD8292490 Si02
#       6
#    16  16   8  16  16  16
#     4  11  23  40  62  86 118 158 200 247 299 354
#     4   9  20  40  64  89 119 157 202 248 295 354
#     4   9  20  38  59  87 120 153 198 251 297 350
#     4  11  22  38  63  90 119 160 204 249 299 355
#     4  11  24  41  62  90 124 159 199 248 300 357
#     4  11  24  39  59  90 125 157 196 250 304 360
#
# _framework density 19.524155
#
# number of rings (size 3 to 8) (size 9 to 14) (size 15 to 20)
#    0.000    1.545    1.818    3.273    1.273    5.818 
#    0.000    5.909    0.000    3.273    0.000    0.000 
#    0.000    0.000    0.000    0.000    0.000    0.000 
#
# Total GULP energy -545806.047772 kJ/mol
# GULP energy per Si atom -12404.682904 kJ/mol
# Density = 1.947972 g / cm^3
# Si number density = 19.524155 Si / 1000 Ang^3
#
#
#
# Elastic Constant Matrix: (Units=GPa)
#
#
# Indices 1 2 3 4 5 6 
#
# 1 50.9909 32.3047 24.5454 0.0000 0.0000 0.0000
# 2 32.3047 127.6082 56.1134 0.0000 0.0000 0.0000
# 3 24.5454 56.1134 92.9787 0.0000 0.0000 0.0000
# 4 0.0000 0.0000 0.0000 38.0208 0.0000 0.0000
# 5 0.0000 0.0000 0.0000 0.0000 30.2210 0.0000
# 6 0.0000 0.0000 0.0000 0.0000 0.0000 31.0628
#
#
#
# Elastic Compliance Matrix: (Units=1/GPa)
#
#
# Indices 1 2 3 4 5 6 
#
# 1 0.024244 -0.004524 -0.003670 0.000000 0.000000 0.000000
# 2 -0.004524 0.011511 -0.005753 0.000000 0.000000 0.000000
# 3 -0.003670 -0.005753 0.015196 0.000000 0.000000 0.000000
# 4 0.000000 0.000000 0.000000 0.026301 0.000000 0.000000
# 5 0.000000 0.000000 0.000000 0.000000 0.033090 0.000000
# 6 0.000000 0.000000 0.000000 0.000000 0.000000 0.032193
#
#
# Mechanical properties :
#
#
# Convention : Reuss Voigt Hill
#
# Bulk Modulus (GPa) = 43.36920 55.27829 49.32375
# Shear Modulus (GPa) = 28.07179 30.43521 29.25350
#
# Velocity S-wave (km/s) = 3.79594 3.95251 3.87502
# Velocity P-wave (km/s) = 6.44000 7.01456 6.73341
#
# Compressibility (1/GPa) = 0.02305784
#
# Stress axis : x y z
#
# Youngs Moduli (GPa) = 41.24751 86.86988 65.80657
#
# Poissons Ratio (x) = 0.39297 0.24152
# Poissons Ratio (y) = 0.18659 0.37859
# Poissons Ratio (z) = 0.15138 0.49977
#
# Static dielectric constant tensor:
#      x y z
#    x 3.341660 0.000000 0.000000 
#    y 0.000000 3.689240 0.000000 
#    z 0.000000 0.000000 3.554330 
# 
# 
# High freq. dielectric constant tensor:
#      x y z
#    x 1.759780 0.000000 0.000000 
#    y 0.000000 1.771530 0.000000 
#    z 0.000000 0.000000 1.769730 
# 
# From -- ./inp_files/68026.got.cif
#   From: 2010.06.25/outbox.cif.g09.slc.cpg/sg71_35_cif.got.tgz:68026.got - 2010.06.28 04:59:45.
