data_PCOD8292568
_publ_section_title
;
Structure prediction by ZEFSAII (Michael W. Deem and Ramdas Pophale) SiO2 
 PCOD8292568
Probable space group: I M M M
;
_chemical_formula_sum "Si O2"
_cell_formula_units_Z 80
_cell_length_a 14.639633
_cell_length_b 13.708538
_cell_length_c 21.854520
_cell_angle_alpha 90.000000
_cell_angle_beta 90.000000
_cell_angle_gamma 90.000000
_cell_volume 4385.939151
_symmetry_space_group_name_H-M "I M M M"
_symmetry_group_IT_number 71
_symmetry_cell_setting 'orthorhombic'
loop_
_space_group_symop_operation_xyz
x,y,z
-x,-y,z
x,-y,-z
-x,y,-z
-x,-y,-z
x,y,-z
-x,y,z
x,-y,z
1/2+x,1/2+y,1/2+z
1/2-x,1/2-y,1/2+z
1/2+x,1/2-y,1/2-z
1/2-x,1/2+y,1/2-z
1/2-x,1/2-y,1/2-z
1/2+x,1/2+y,1/2-z
1/2-x,1/2+y,1/2+z
1/2+x,1/2-y,1/2+z
loop_
_atom_site_type_symbol
_atom_site_label
_atom_site_fract_x
_atom_site_fract_y
_atom_site_fract_z
Si Si1 0.107829 0.607150 0.705787
Si Si2 0.392082 0.393140 0.266842
Si Si3 0.236109 0.613504 0.070500
Si Si4 0.106822 0.797755 0.359951
Si Si5 0.108620 0.701908 0.169720
O O1 0.146616 0.500000 0.688613
O O2 0.133988 0.684954 0.653410
O O3 0.144669 0.638806 0.772497
O O4 0.000000 0.605594 0.711673
O O5 0.500000 0.398277 0.268373
O O6 0.349423 0.500000 0.281380
O O7 0.363443 0.360193 0.199092
O O8 0.360394 0.314154 0.317349
O O9 0.240857 0.500000 0.087104
O O10 0.334221 0.662958 0.083600
O O11 0.156185 0.664814 0.108659
O O12 0.211993 0.630122 0.000000
O O13 0.000000 0.809263 0.375912
O O14 0.000000 0.693131 0.161169
#
# Coordination Sequence:
#
# PCOD8292568 Si02
#       5
#    16  16  16  16  16
#     4   8  14  27  51  81 105 125 154 193 242 299
#     4   8  14  27  51  81 105 125 154 193 242 299
#     4  11  24  37  49  69  95 127 171 210 236 277
#     4   9  18  33  52  74 102 131 157 195 245 290
#     4   9  18  33  52  74 102 131 157 195 245 290
#
# _framework density 18.240106999999998
#
# number of rings (size 3 to 8) (size 9 to 14) (size 15 to 20)
#    0.000    3.000    0.000    3.600    0.000    6.400 
#    0.000    5.000    0.000    2.400    0.000    5.600 
#    0.000    0.000    0.000    0.000    0.000    0.000 
#
# Total GULP energy -495748.073996 kJ/mol
# GULP energy per Si atom -12393.701850 kJ/mol
# Density = 1.819859 g / cm^3
# Si number density = 18.240107 Si / 1000 Ang^3
#
#
#
# Elastic Constant Matrix: (Units=GPa)
#
#
# Indices 1 2 3 4 5 6 
#
# 1 28.5374 8.7669 -1.9574 0.0000 0.0000 0.0000
# 2 8.7669 161.3258 37.7722 0.0000 0.0000 0.0000
# 3 -1.9574 37.7722 49.3198 0.0000 0.0000 0.0000
# 4 0.0000 0.0000 0.0000 25.2091 0.0000 0.0000
# 5 0.0000 0.0000 0.0000 0.0000 23.7357 0.0000
# 6 0.0000 0.0000 0.0000 0.0000 0.0000 17.1150
#
#
#
# Elastic Compliance Matrix: (Units=1/GPa)
#
#
# Indices 1 2 3 4 5 6 
#
# 1 0.036148 -0.002803 0.003581 0.000000 0.000000 0.000000
# 2 -0.002803 0.007770 -0.006062 0.000000 0.000000 0.000000
# 3 0.003581 -0.006062 0.025061 0.000000 0.000000 0.000000
# 4 0.000000 0.000000 0.000000 0.039668 0.000000 0.000000
# 5 0.000000 0.000000 0.000000 0.000000 0.042131 0.000000
# 6 0.000000 0.000000 0.000000 0.000000 0.000000 0.058428
#
#
# Mechanical properties :
#
#
# Convention : Reuss Voigt Hill
#
# Bulk Modulus (GPa) = 17.11982 36.48294 26.80138
# Shear Modulus (GPa) = 20.89905 26.18536 23.54221
#
# Velocity S-wave (km/s) = 3.38860 3.79303 3.59651
# Velocity P-wave (km/s) = 4.97155 6.26320 5.65438
#
# Compressibility (1/GPa) = 0.05841184
#
# Stress axis : x y z
#
# Youngs Moduli (GPa) = 27.66372 128.69428 39.90288
#
# Poissons Ratio (x) = 0.36072 -0.14290
# Poissons Ratio (y) = 0.07754 0.24190
# Poissons Ratio (z) = -0.09907 0.78018
#
# Static dielectric constant tensor:
#      x y z
#    x 3.163810 0.000000 0.000000 
#    y 0.000000 13.062190 0.000000 
#    z 0.000000 0.000000 2.962810 
# 
# 
# High freq. dielectric constant tensor:
#      x y z
#    x 1.705220 0.000000 0.000000 
#    y 0.000000 1.722740 0.000000 
#    z 0.000000 0.000000 1.658440 
# 
# From -- ./inp_files/34252.got.cif
#   From: 2010.06.25/outbox.cif.g09.slc.cpg/sg71_18_cif.got.tgz:34252.got - 2010.06.28 04:59:45.
