data_PCOD8292239
_publ_section_title
;
Structure prediction by ZEFSAII (Michael W. Deem and Ramdas Pophale) SiO2 
 PCOD8292239
Probable space group: I M M M
;
_chemical_formula_sum "Si O2"
_cell_formula_units_Z 96
_cell_length_a 14.471976
_cell_length_b 11.560812
_cell_length_c 32.463865
_cell_angle_alpha 90.000000
_cell_angle_beta 90.000000
_cell_angle_gamma 90.000000
_cell_volume 5431.457632
_symmetry_space_group_name_H-M "I M M M"
_symmetry_group_IT_number 71
_symmetry_cell_setting 'orthorhombic'
loop_
_space_group_symop_operation_xyz
x,y,z
-x,-y,z
x,-y,-z
-x,y,-z
-x,-y,-z
x,y,-z
-x,y,z
x,-y,z
1/2+x,1/2+y,1/2+z
1/2-x,1/2-y,1/2+z
1/2+x,1/2-y,1/2-z
1/2-x,1/2+y,1/2-z
1/2-x,1/2-y,1/2-z
1/2+x,1/2+y,1/2-z
1/2-x,1/2+y,1/2+z
1/2+x,1/2-y,1/2+z
loop_
_atom_site_type_symbol
_atom_site_label
_atom_site_fract_x
_atom_site_fract_y
_atom_site_fract_z
Si Si1 0.854615 0.249427 0.261804
Si Si2 0.707560 0.285149 0.621631
Si Si3 0.395733 0.500000 0.247950
Si Si4 0.604470 0.864168 0.846392
Si Si5 0.106485 0.865214 0.952601
Si Si6 0.110166 0.000000 0.162105
Si Si7 0.101815 0.369511 0.180033
O O1 0.750000 0.250000 0.250000
O O2 0.880540 0.334427 0.298600
O O3 0.906781 0.288963 0.220566
O O4 0.875714 0.117927 0.276867
O O5 0.818609 0.300366 0.625484
O O6 0.676049 0.283705 0.573815
O O7 0.648759 0.387291 0.640968
O O8 0.677515 0.170627 0.646517
O O9 0.500000 0.500000 0.261385
O O10 0.344940 0.500000 0.292147
O O11 0.500000 0.827754 0.859776
O O12 0.618363 0.000000 0.851978
O O13 0.000000 0.835199 0.942466
O O14 0.125208 0.000000 0.942680
O O15 0.128417 0.838524 0.000000
O O16 0.000000 0.000000 0.158520
O O17 0.129361 0.500000 0.193285
O O18 0.000000 0.366787 0.159504
#
# Coordination Sequence:
#
# PCOD8292239 Si02
#       7
#    16  16   8  16  16   8  16
#     4  12  23  34  52  70 100 134 178 220 265 303
#     4  12  20  34  55  76 103 137 174 211 258 308
#     4  11  22  34  48  70  97 128 171 218 263 303
#     4  11  23  38  53  72 102 141 184 222 259 307
#     4   9  17  29  50  83 115 135 156 198 260 324
#     4  11  18  28  50  79 102 126 165 212 257 304
#     4  11  23  36  51  73 102 137 175 215 262 313
#
# _framework density 17.674813
#
# number of rings (size 3 to 8) (size 9 to 14) (size 15 to 20)
#    0.000    1.000    5.000    4.000    2.333    1.333 
#    0.000    0.000    0.000    1.000    0.000    4.667 
#    0.000    0.000    0.000    1.500    0.000    0.333 
#
# Total GULP energy -594953.508817 kJ/mol
# GULP energy per Si atom -12394.864767 kJ/mol
# Density = 1.763458 g / cm^3
# Si number density = 17.674813 Si / 1000 Ang^3
#
#
#
# Elastic Constant Matrix: (Units=GPa)
#
#
# Indices 1 2 3 4 5 6 
#
# 1 128.9760 30.9308 39.0272 0.0000 0.0000 0.0000
# 2 30.9308 75.2724 11.3945 0.0000 0.0000 0.0000
# 3 39.0272 11.3945 83.1443 0.0000 0.0000 0.0000
# 4 0.0000 0.0000 0.0000 16.8042 0.0000 0.0000
# 5 0.0000 0.0000 0.0000 0.0000 25.3987 0.0000
# 6 0.0000 0.0000 0.0000 0.0000 0.0000 22.9807
#
#
#
# Elastic Compliance Matrix: (Units=1/GPa)
#
#
# Indices 1 2 3 4 5 6 
#
# 1 0.009825 -0.003410 -0.004145 0.000000 0.000000 0.000000
# 2 -0.003410 0.014750 -0.000421 0.000000 0.000000 0.000000
# 3 -0.004145 -0.000421 0.014030 0.000000 0.000000 0.000000
# 4 0.000000 0.000000 0.000000 0.059509 0.000000 0.000000
# 5 0.000000 0.000000 0.000000 0.000000 0.039372 0.000000
# 6 0.000000 0.000000 0.000000 0.000000 0.000000 0.043515
#
#
# Mechanical properties :
#
#
# Convention : Reuss Voigt Hill
#
# Bulk Modulus (GPa) = 44.14051 50.01088 47.07569
# Shear Modulus (GPa) = 24.44942 26.77273 25.61108
#
# Velocity S-wave (km/s) = 3.72330 3.89619 3.81072
# Velocity P-wave (km/s) = 6.59635 6.97114 6.78633
#
# Compressibility (1/GPa) = 0.02265493
#
# Stress axis : x y z
#
# Youngs Moduli (GPa) = 101.77826 67.79657 71.27395
#
# Poissons Ratio (x) = 0.23119 0.29540
# Poissons Ratio (y) = 0.34706 0.02999
# Poissons Ratio (z) = 0.42183 0.02853
#
# Static dielectric constant tensor:
#      x y z
#    x 3.448170 0.000000 0.000000 
#    y 0.000000 3.199690 0.000000 
#    z 0.000000 0.000000 3.487760 
# 
# 
# High freq. dielectric constant tensor:
#      x y z
#    x 1.688850 0.000000 0.000000 
#    y 0.000000 1.671040 0.000000 
#    z 0.000000 0.000000 1.644280 
# 
# From -- ./inp_files/69902.got.cif
#   From: 2010.06.25/outbox.cif.g09.slc.cpg/sg71_35_cif.got.tgz:69902.got - 2010.06.28 04:59:45.
