data_PCOD8292921
_publ_section_title
;
Structure prediction by ZEFSAII (Michael W. Deem and Ramdas Pophale) SiO2 
 PCOD8292921
Probable space group: I B A M
;
_chemical_formula_sum "Si O2"
_cell_formula_units_Z 96
_cell_length_a 21.111762
_cell_length_b 13.122763
_cell_length_c 19.094332
_cell_angle_alpha 90.000000
_cell_angle_beta 90.000000
_cell_angle_gamma 90.000000
_cell_volume 5289.982511
_symmetry_space_group_name_H-M "I B A M"
_symmetry_group_IT_number 72
_symmetry_cell_setting 'orthorhombic'
loop_
_space_group_symop_operation_xyz
x,y,z
-x,-y,z
x,-y,1/2-z
-x,y,1/2-z
-x,-y,-z
x,y,-z
-x,y,1/2+z
x,-y,1/2+z
1/2+x,1/2+y,1/2+z
1/2-x,1/2-y,1/2+z
1/2+x,1/2-y,-z
1/2-x,1/2+y,-z
1/2-x,1/2-y,1/2-z
1/2+x,1/2+y,1/2-z
1/2-x,1/2+y,z
1/2+x,1/2-y,z
loop_
_atom_site_type_symbol
_atom_site_label
_atom_site_fract_x
_atom_site_fract_y
_atom_site_fract_z
Si Si1 0.653311 0.134750 0.578676
Si Si2 0.083503 0.390146 0.784341
Si Si3 0.682525 0.368445 0.421218
Si Si4 0.287822 0.964246 0.174377
Si Si5 0.033096 0.692202 0.149299
Si Si6 0.039422 0.901798 0.918844
O O1 0.665009 0.095308 0.500000
O O2 0.679862 0.247803 0.589279
O O3 0.577766 0.136958 0.592310
O O4 0.688738 0.062516 0.632520
O O5 0.071919 0.500000 0.750000
O O6 0.154015 0.384238 0.816336
O O7 0.071409 0.306387 0.723526
O O8 0.032448 0.370686 0.845601
O O9 0.705296 0.394575 0.500000
O O10 0.731266 0.411057 0.365472
O O11 0.614295 0.420068 0.407492
O O12 0.262857 0.000000 0.250000
O O13 0.016184 0.807117 0.127526
O O14 0.025447 0.876946 0.000000
O O15 0.000000 0.000000 0.893811
#
# Coordination Sequence:
#
# PCOD8292921 Si02
#       6
#    16  16  16  16  16  16
#     4  10  20  36  58  81 109 151 195 232 283 343
#     4  10  20  34  56  80 118 152 177 226 295 339
#     4   9  20  39  59  81 117 153 186 238 291 335
#     4  11  21  37  56  85 115 151 190 228 285 352
#     4  10  17  34  57  82 109 151 183 230 290 338
#     4   9  19  39  62  81 108 149 195 240 288 335
#
# _framework density 18.147508999999999
#
# number of rings (size 3 to 8) (size 9 to 14) (size 15 to 20)
#    0.000    2.167    3.333    3.000    0.000    0.667 
#    3.000    9.167    0.000    0.000    0.000    0.000 
#    0.000    0.000    0.000    0.000    0.000    0.000 
#
# Total GULP energy -595074.027466 kJ/mol
# GULP energy per Si atom -12397.375572 kJ/mol
# Density = 1.810620 g / cm^3
# Si number density = 18.147509 Si / 1000 Ang^3
#
#
#
# Elastic Constant Matrix: (Units=GPa)
#
#
# Indices 1 2 3 4 5 6 
#
# 1 110.1248 47.4235 56.7943 0.0000 0.0000 0.0000
# 2 47.4235 83.1005 56.1260 0.0000 0.0000 0.0000
# 3 56.7943 56.1260 110.9571 0.0000 0.0000 0.0000
# 4 0.0000 0.0000 0.0000 37.9082 0.0000 0.0000
# 5 0.0000 0.0000 0.0000 0.0000 32.9568 0.0000
# 6 0.0000 0.0000 0.0000 0.0000 0.0000 30.7912
#
#
#
# Elastic Compliance Matrix: (Units=1/GPa)
#
#
# Indices 1 2 3 4 5 6 
#
# 1 0.013393 -0.004577 -0.004540 0.000000 0.000000 0.000000
# 2 -0.004577 0.019842 -0.007694 0.000000 0.000000 0.000000
# 3 -0.004540 -0.007694 0.015229 0.000000 0.000000 0.000000
# 4 0.000000 0.000000 0.000000 0.026380 0.000000 0.000000
# 5 0.000000 0.000000 0.000000 0.000000 0.030343 0.000000
# 6 0.000000 0.000000 0.000000 0.000000 0.000000 0.032477
#
#
# Mechanical properties :
#
#
# Convention : Reuss Voigt Hill
#
# Bulk Modulus (GPa) = 67.37961 69.43002 68.40481
# Shear Modulus (GPa) = 28.37169 29.92048 29.14609
#
# Velocity S-wave (km/s) = 3.95827 4.06487 4.01192
# Velocity P-wave (km/s) = 7.62233 7.76998 7.69651
#
# Compressibility (1/GPa) = 0.01484129
#
# Stress axis : x y z
#
# Youngs Moduli (GPa) = 74.66586 50.39806 65.66616
#
# Poissons Ratio (x) = 0.23065 0.29815
# Poissons Ratio (y) = 0.34171 0.50525
# Poissons Ratio (z) = 0.33901 0.38778
#
# Static dielectric constant tensor:
#      x y z
#    x 3.418080 0.000000 0.000000 
#    y 0.000000 3.245140 0.000000 
#    z 0.000000 0.000000 3.514540 
# 
# 
# High freq. dielectric constant tensor:
#      x y z
#    x 1.699170 0.000000 0.000000 
#    y 0.000000 1.687160 0.000000 
#    z 0.000000 0.000000 1.706730 
# 
# From -- ./inp_files/33247.got.cif
#   From: 2010.03.12/outbox.cif.g09.slc.cpg/sg72_17_cif.got.tgz:33247.got - 2010.04.16 14:54:00.
