data_PCOD8292433
_publ_section_title
;
Structure prediction by ZEFSAII (Michael W. Deem and Ramdas Pophale) SiO2 
 PCOD8292433
Probable space group: I M M M
;
_chemical_formula_sum "Si O2"
_cell_formula_units_Z 88
_cell_length_a 30.227317
_cell_length_b 9.094334
_cell_length_c 18.244297
_cell_angle_alpha 90.000000
_cell_angle_beta 90.000000
_cell_angle_gamma 90.000000
_cell_volume 5015.308291
_symmetry_space_group_name_H-M "I M M M"
_symmetry_group_IT_number 71
_symmetry_cell_setting 'orthorhombic'
loop_
_space_group_symop_operation_xyz
x,y,z
-x,-y,z
x,-y,-z
-x,y,-z
-x,-y,-z
x,y,-z
-x,y,z
x,-y,z
1/2+x,1/2+y,1/2+z
1/2-x,1/2-y,1/2+z
1/2+x,1/2-y,1/2-z
1/2-x,1/2+y,1/2-z
1/2-x,1/2-y,1/2-z
1/2+x,1/2+y,1/2-z
1/2-x,1/2+y,1/2+z
1/2+x,1/2-y,1/2+z
loop_
_atom_site_type_symbol
_atom_site_label
_atom_site_fract_x
_atom_site_fract_y
_atom_site_fract_z
Si Si1 0.794132 0.167392 0.268880
Si Si2 0.500000 0.337551 0.084962
Si Si3 0.888454 0.174760 0.212715
Si Si4 0.662951 0.666570 0.918571
Si Si5 0.417097 0.826105 0.144248
Si Si6 0.950362 0.825626 0.918034
O O1 0.750000 0.250000 0.250000
O O2 0.836723 0.222593 0.221137
O O3 0.800472 0.190908 0.356040
O O4 0.785760 0.000000 0.248674
O O5 0.500000 0.500000 0.123508
O O6 0.541175 0.239241 0.104851
O O7 0.500000 0.366408 0.000000
O O8 0.915501 0.255328 0.275653
O O9 0.911393 0.228458 0.136835
O O10 0.892533 0.000000 0.223583
O O11 0.643885 0.500000 0.911248
O O12 0.624461 0.783270 0.905824
O O13 0.683360 0.691261 0.000000
O O14 0.420345 0.000000 0.151175
O O15 0.000000 0.771457 0.894467
O O16 0.950517 0.000000 0.918667
O O17 0.939500 0.766522 0.000000
#
# Coordination Sequence:
#
# PCOD8292433 Si02
#       6
#    16   8  16  16  16  16
#     4   9  18  32  50  73 100 130 167 209 254 303
#     4  11  23  37  51  67  94 135 174 203 239 290
#     4   9  18  33  52  74 100 135 174 208 249 308
#     4   9  18  35  56  74  95 128 170 210 252 308
#     4  11  22  33  48  74 104 131 164 209 253 294
#     4   8  14  26  48  78 104 127 164 213 256 297
#
# _framework density 17.546278000000001
#
# number of rings (size 3 to 8) (size 9 to 14) (size 15 to 20)
#    0.000    2.636    0.000    4.091    1.273    6.182 
#    0.000    0.909    0.000    1.636    0.000    1.273 
#    0.000    0.000    0.000    0.000    0.000    0.000 
#
# Total GULP energy -545228.260602 kJ/mol
# GULP energy per Si atom -12391.551377 kJ/mol
# Density = 1.750634 g / cm^3
# Si number density = 17.546278 Si / 1000 Ang^3
#
#
#
# Elastic Constant Matrix: (Units=GPa)
#
#
# Indices 1 2 3 4 5 6 
#
# 1 107.7945 34.3478 71.4612 0.0000 0.0000 0.0000
# 2 34.3478 61.2654 29.3291 0.0000 0.0000 0.0000
# 3 71.4612 29.3291 133.8125 0.0000 0.0000 0.0000
# 4 0.0000 0.0000 0.0000 9.5535 0.0000 0.0000
# 5 0.0000 0.0000 0.0000 0.0000 30.5641 0.0000
# 6 0.0000 0.0000 0.0000 0.0000 0.0000 32.9307
#
#
#
# Elastic Compliance Matrix: (Units=1/GPa)
#
#
# Indices 1 2 3 4 5 6 
#
# 1 0.015807 -0.005386 -0.007261 0.000000 0.000000 0.000000
# 2 -0.005386 0.020071 -0.001523 0.000000 0.000000 0.000000
# 3 -0.007261 -0.001523 0.011685 0.000000 0.000000 0.000000
# 4 0.000000 0.000000 0.000000 0.104673 0.000000 0.000000
# 5 0.000000 0.000000 0.000000 0.000000 0.032718 0.000000
# 6 0.000000 0.000000 0.000000 0.000000 0.000000 0.030367
#
#
# Mechanical properties :
#
#
# Convention : Reuss Voigt Hill
#
# Bulk Modulus (GPa) = 52.02144 63.68318 57.85231
# Shear Modulus (GPa) = 19.99461 25.79196 22.89328
#
# Velocity S-wave (km/s) = 3.37936 3.83814 3.61603
# Velocity P-wave (km/s) = 6.70368 7.48431 7.10472
#
# Compressibility (1/GPa) = 0.01922284
#
# Stress axis : x y z
#
# Youngs Moduli (GPa) = 63.26473 49.82306 85.58328
#
# Poissons Ratio (x) = 0.26834 0.62141
# Poissons Ratio (y) = 0.34074 0.13033
# Poissons Ratio (z) = 0.45936 0.07588
#
# Static dielectric constant tensor:
#      x y z
#    x 3.023040 0.000000 0.000000 
#    y 0.000000 3.081040 0.000000 
#    z 0.000000 0.000000 3.595040 
# 
# 
# High freq. dielectric constant tensor:
#      x y z
#    x 1.666190 0.000000 0.000000 
#    y 0.000000 1.657660 0.000000 
#    z 0.000000 0.000000 1.681780 
# 
# From -- ./inp_files/49199.got.cif
#   From: 2010.06.25/outbox.cif.g09.slc.cpg/sg71_25_cif.got.tgz:49199.got - 2010.06.28 04:59:45.
