data_PCOD8292042
_publ_section_title
;
Structure prediction by ZEFSAII (Michael W. Deem and Ramdas Pophale) SiO2 
 PCOD8292042
Probable space group: I M M M
;
_chemical_formula_sum "Si O2"
_cell_formula_units_Z 40
_cell_length_a 12.817821
_cell_length_b 22.266874
_cell_length_c 7.794524
_cell_angle_alpha 90.000000
_cell_angle_beta 90.000000
_cell_angle_gamma 90.000000
_cell_volume 2224.656960
_symmetry_space_group_name_H-M "I M M M"
_symmetry_group_IT_number 71
_symmetry_cell_setting 'orthorhombic'
loop_
_space_group_symop_operation_xyz
x,y,z
-x,-y,z
x,-y,-z
-x,y,-z
-x,-y,-z
x,y,-z
-x,y,z
x,-y,z
1/2+x,1/2+y,1/2+z
1/2-x,1/2-y,1/2+z
1/2+x,1/2-y,1/2-z
1/2-x,1/2+y,1/2-z
1/2-x,1/2-y,1/2-z
1/2+x,1/2+y,1/2-z
1/2-x,1/2+y,1/2+z
1/2+x,1/2-y,1/2+z
loop_
_atom_site_type_symbol
_atom_site_label
_atom_site_fract_x
_atom_site_fract_y
_atom_site_fract_z
Si Si1 0.122752 0.655560 0.000000
Si Si2 0.377106 0.705800 0.500000
Si Si3 0.118533 0.000000 0.702618
Si Si4 0.754123 0.885181 0.186818
O O1 0.155130 0.724880 0.000000
O O2 0.167379 0.623728 0.168941
O O3 0.000000 0.645848 0.000000
O O4 0.500000 0.697886 0.500000
O O5 0.329291 0.673646 0.329754
O O6 0.174192 0.941390 0.772587
O O7 0.123318 0.000000 0.500000
O O8 0.000000 0.000000 0.769773
O O9 0.699241 0.895619 0.000000
#
# Coordination Sequence:
#
# PCOD8292042 Si02
#       4
#     8   8   8  16
#     4  11  22  41  59  83 121 161 202 241 280 338
#     4   9  20  37  62  89 120 153 189 243 301 352
#     4  11  21  37  63  91 121 152 189 242 308 359
#     4  10  22  37  61  86 121 149 195 238 298 348
#
# _framework density 17.9803
#
# number of rings (size 3 to 8) (size 9 to 14) (size 15 to 20)
#    1.200    0.600    2.000    3.000    0.000    1.600 
#    0.000    2.000    0.000    2.400    0.000    0.000 
#    0.000    0.000    0.000    0.000    0.000    0.000 
#
# Total GULP energy -247867.015939 kJ/mol
# GULP energy per Si atom -12393.350797 kJ/mol
# Density = 1.793938 g / cm^3
# Si number density = 17.980300 Si / 1000 Ang^3
#
#
#
# Elastic Constant Matrix: (Units=GPa)
#
#
# Indices 1 2 3 4 5 6 
#
# 1 104.5723 67.9975 69.0717 -0.0014 -0.0001 -0.0002
# 2 67.9975 123.7448 58.9970 -0.0116 0.0003 -0.0001
# 3 69.0717 58.9970 144.1711 -0.0298 0.0033 -0.0004
# 4 -0.0014 -0.0116 -0.0298 76.2314 0.0049 -0.0008
# 5 -0.0001 0.0003 0.0033 0.0049 -1.3056 0.0009
# 6 -0.0002 -0.0001 -0.0004 -0.0008 0.0009 33.7358
#
#
#
# Elastic Compliance Matrix: (Units=1/GPa)
#
#
# Indices 1 2 3 4 5 6 
#
# 1 0.017976 -0.007171 -0.005678 -0.000003 -0.000017 0.000000
# 2 -0.007171 0.012900 -0.001844 0.000001 -0.000001 0.000000
# 3 -0.005678 -0.001844 0.010411 0.000004 0.000026 0.000000
# 4 -0.000003 0.000001 0.000004 0.013118 0.000050 0.000000
# 5 -0.000017 -0.000001 0.000026 0.000050 -0.765904 0.000020
# 6 0.000000 0.000000 0.000000 0.000000 0.000020 0.029642
#
#
# Mechanical properties :
#
#
# Convention : Reuss Voigt Hill
#
# Bulk Modulus (GPa) = 84.01323 84.95785 84.48554
# Shear Modulus (GPa) = -7.71003 33.49377 12.89187
#
# Velocity S-wave (km/s) = -2.07301 4.32070 2.68059
# Velocity P-wave (km/s) = 6.41068 8.49967 7.52799
#
# Compressibility (1/GPa) = 0.01190289
#
# Stress axis : x y z
#
# Youngs Moduli (GPa) = 55.63073 77.51718 96.05413
#
# Poissons Ratio (x) = 0.55585 0.54537
# Poissons Ratio (y) = 0.39891 0.17708
# Poissons Ratio (z) = 0.31586 0.14291
#
# Static dielectric constant tensor:
#      x y z
#    x 3.102080 0.000000 0.000000 
#    y 0.000000 3.356330 0.000000 
#    z 0.000000 0.000000 3.423570 
# 
# 
# High freq. dielectric constant tensor:
#      x y z
#    x 1.681180 0.000000 0.000000 
#    y 0.000000 1.707930 0.000000 
#    z 0.000000 0.000000 1.700900 
# 
# From -- ./inp_files/2865.got.cif
#   From: 2010.06.25/outbox.cif.g09.slc.cpg/sg71_2_cif.got.tgz:2865.got - 2010.06.28 04:59:45.
