data_PCOD8292558
_publ_section_title
;
Structure prediction by ZEFSAII (Michael W. Deem and Ramdas Pophale) SiO2 
 PCOD8292558
Probable space group: I M M M
;
_chemical_formula_sum "Si O2"
_cell_formula_units_Z 72
_cell_length_a 32.537849
_cell_length_b 13.722998
_cell_length_c 7.691540
_cell_angle_alpha 90.000000
_cell_angle_beta 90.000000
_cell_angle_gamma 90.000000
_cell_volume 3434.402111
_symmetry_space_group_name_H-M "I M M M"
_symmetry_group_IT_number 71
_symmetry_cell_setting 'orthorhombic'
loop_
_space_group_symop_operation_xyz
x,y,z
-x,-y,z
x,-y,-z
-x,y,-z
-x,-y,-z
x,y,-z
-x,y,z
x,-y,z
1/2+x,1/2+y,1/2+z
1/2-x,1/2-y,1/2+z
1/2+x,1/2-y,1/2-z
1/2-x,1/2+y,1/2-z
1/2-x,1/2-y,1/2-z
1/2+x,1/2+y,1/2-z
1/2-x,1/2+y,1/2+z
1/2+x,1/2-y,1/2+z
loop_
_atom_site_type_symbol
_atom_site_label
_atom_site_fract_x
_atom_site_fract_y
_atom_site_fract_z
Si Si1 0.287247 0.615516 0.191417
Si Si2 0.879852 0.891019 0.705688
Si Si3 0.084785 0.300767 0.802014
Si Si4 0.638697 0.885133 0.000000
Si Si5 0.231869 0.616354 0.500000
Si Si6 0.000000 0.390507 0.205516
O O1 0.283188 0.500000 0.175578
O O2 0.333389 0.639554 0.255742
O O3 0.254492 0.657889 0.328392
O O4 0.278517 0.661917 0.000000
O O5 0.885221 0.884879 0.500000
O O6 0.911429 0.816565 0.796644
O O7 0.889891 0.000000 0.772735
O O8 0.118687 0.346402 0.676429
O O9 0.040222 0.332804 0.730119
O O10 0.091479 0.338040 0.000000
O O11 0.685273 0.846507 0.000000
O O12 0.635851 0.000000 0.000000
O O13 0.234154 0.500000 0.500000
O O14 0.000000 0.500000 0.284054
O O15 0.000000 0.395505 0.000000
#
# Coordination Sequence:
#
# PCOD8292558 Si02
#       6
#    16  16  16   8   8   8
#     4   8  15  29  52  79 109 154 203 240 282 346
#     4   9  18  36  62  90 124 162 201 245 296 357
#     4  11  23  40  64  91 123 153 201 254 304 364
#     4  11  24  41  59  86 122 158 202 260 314 357
#     4   9  18  32  53  81 114 153 201 249 296 351
#     4   9  20  41  66  91 117 156 204 249 299 361
#
# _framework density 20.964348000000001
#
# number of rings (size 3 to 8) (size 9 to 14) (size 15 to 20)
#    0.000    2.556    1.111    2.000    1.556    3.111 
#    0.000    5.000    0.000    3.333    0.000    0.000 
#    0.000    0.000    0.000    0.000    0.000    0.000 
#
# Total GULP energy -446349.947538 kJ/mol
# GULP energy per Si atom -12398.609654 kJ/mol
# Density = 2.091663 g / cm^3
# Si number density = 20.964348 Si / 1000 Ang^3
#
#
#
# Elastic Constant Matrix: (Units=GPa)
#
#
# Indices 1 2 3 4 5 6 
#
# 1 157.7356 75.4900 59.0643 0.0000 0.0000 0.0000
# 2 75.4900 95.5884 38.4257 0.0000 0.0000 0.0000
# 3 59.0643 38.4257 98.7629 0.0000 0.0000 0.0000
# 4 0.0000 0.0000 0.0000 26.8722 0.0000 0.0000
# 5 0.0000 0.0000 0.0000 0.0000 21.9947 0.0000
# 6 0.0000 0.0000 0.0000 0.0000 0.0000 19.9981
#
#
#
# Elastic Compliance Matrix: (Units=1/GPa)
#
#
# Indices 1 2 3 4 5 6 
#
# 1 0.011335 -0.007381 -0.003907 0.000000 0.000000 0.000000
# 2 -0.007381 0.017208 -0.002281 0.000000 0.000000 0.000000
# 3 -0.003907 -0.002281 0.013349 0.000000 0.000000 0.000000
# 4 0.000000 0.000000 0.000000 0.037213 0.000000 0.000000
# 5 0.000000 0.000000 0.000000 0.000000 0.045465 0.000000
# 6 0.000000 0.000000 0.000000 0.000000 0.000000 0.050005
#
#
# Mechanical properties :
#
#
# Convention : Reuss Voigt Hill
#
# Bulk Modulus (GPa) = 67.77835 77.56076 72.66956
# Shear Modulus (GPa) = 24.19763 25.71348 24.95556
#
# Velocity S-wave (km/s) = 3.40108 3.50599 3.45393
# Velocity P-wave (km/s) = 6.91546 7.31205 7.11652
#
# Compressibility (1/GPa) = 0.01475397
#
# Stress axis : x y z
#
# Youngs Moduli (GPa) = 88.21948 58.11370 74.91066
#
# Poissons Ratio (x) = 0.42896 0.29269
# Poissons Ratio (y) = 0.65118 0.17084
# Poissons Ratio (z) = 0.34469 0.13254
#
# Static dielectric constant tensor:
#      x y z
#    x 3.839170 0.000000 0.000000 
#    y 0.000000 3.952410 0.000000 
#    z 0.000000 0.000000 3.896200 
# 
# 
# High freq. dielectric constant tensor:
#      x y z
#    x 1.803550 0.000000 0.000000 
#    y 0.000000 1.825270 0.000000 
#    z 0.000000 0.000000 1.820420 
# 
# From -- ./inp_files/16429.got.cif
#   From: 2010.06.25/outbox.cif.g09.slc.cpg/sg71_9_cif.got.tgz:16429.got - 2010.06.28 04:59:45.
