data_PCOD8292161
_publ_section_title
;
Structure prediction by ZEFSAII (Michael W. Deem and Ramdas Pophale) SiO2 
 PCOD8292161
Probable space group: I M M M
;
_chemical_formula_sum "Si O2"
_cell_formula_units_Z 88
_cell_length_a 24.151518
_cell_length_b 20.204266
_cell_length_c 9.293059
_cell_angle_alpha 90.000000
_cell_angle_beta 90.000000
_cell_angle_gamma 90.000000
_cell_volume 4534.675398
_symmetry_space_group_name_H-M "I M M M"
_symmetry_group_IT_number 71
_symmetry_cell_setting 'orthorhombic'
loop_
_space_group_symop_operation_xyz
x,y,z
-x,-y,z
x,-y,-z
-x,y,-z
-x,-y,-z
x,y,-z
-x,y,z
x,-y,z
1/2+x,1/2+y,1/2+z
1/2-x,1/2-y,1/2+z
1/2+x,1/2-y,1/2-z
1/2-x,1/2+y,1/2-z
1/2-x,1/2-y,1/2-z
1/2+x,1/2+y,1/2-z
1/2-x,1/2+y,1/2+z
1/2+x,1/2-y,1/2+z
loop_
_atom_site_type_symbol
_atom_site_label
_atom_site_fract_x
_atom_site_fract_y
_atom_site_fract_z
Si Si1 0.282645 0.923614 0.837168
Si Si2 0.000000 0.644870 0.842001
Si Si3 0.276735 0.687427 0.169517
Si Si4 0.410870 0.925213 0.836810
Si Si5 0.600715 0.357808 0.168736
Si Si6 0.437094 0.500000 0.830635
Si Si7 0.000000 0.799743 0.839925
O O1 0.251854 0.879818 0.720275
O O2 0.346975 0.906914 0.823346
O O3 0.270844 0.000000 0.800917
O O4 0.262824 0.907308 0.000000
O O5 0.055469 0.623944 0.761920
O O6 0.000000 0.722259 0.854163
O O7 0.000000 0.612428 0.000000
O O8 0.250000 0.750000 0.250000
O O9 0.341318 0.677411 0.206816
O O10 0.267414 0.696923 0.000000
O O11 0.421933 0.000000 0.785739
O O12 0.431032 0.916374 0.000000
O O13 0.597681 0.435101 0.217743
O O14 0.554373 0.319470 0.254733
O O15 0.588100 0.351860 0.000000
O O16 0.500000 0.500000 0.764605
O O17 0.443493 0.500000 0.000000
O O18 0.000000 0.831711 0.000000
#
# Coordination Sequence:
#
# PCOD8292161 Si02
#       7
#    16   8  16  16  16   8   8
#     4   9  20  40  63  88 121 158 199 248 300 356
#     4  11  24  36  52  83 118 152 191 244 301 346
#     4  11  25  41  63  91 124 164 209 257 304 364
#     4   9  19  37  60  84 111 149 196 241 288 351
#     4  10  22  41  65  90 117 158 204 243 295 365
#     4   9  16  34  66  94 118 148 192 253 298 347
#     4  11  25  41  57  85 125 158 191 244 301 355
#
# _framework density 19.406020000000002
#
# number of rings (size 3 to 8) (size 9 to 14) (size 15 to 20)
#    0.000    2.091    0.909    2.455    3.818    5.455 
#    0.000    2.727    0.000    0.000    0.000    0.000 
#    0.000    0.000    0.000    0.000    0.000    0.000 
#
# Total GULP energy -545542.416601 kJ/mol
# GULP energy per Si atom -12398.691286 kJ/mol
# Density = 1.936185 g / cm^3
# Si number density = 19.406020 Si / 1000 Ang^3
#
#
#
# Elastic Constant Matrix: (Units=GPa)
#
#
# Indices 1 2 3 4 5 6 
#
# 1 124.8643 67.1816 70.5633 0.0000 0.0000 0.0000
# 2 67.1816 97.7691 55.3227 0.0000 0.0000 0.0000
# 3 70.5633 55.3227 93.1144 0.0000 0.0000 0.0000
# 4 0.0000 0.0000 0.0000 35.2991 0.0000 0.0000
# 5 0.0000 0.0000 0.0000 0.0000 -78.6943 0.0000
# 6 0.0000 0.0000 0.0000 0.0000 0.0000 35.4446
#
#
#
# Elastic Compliance Matrix: (Units=1/GPa)
#
#
# Indices 1 2 3 4 5 6 
#
# 1 0.016244 -0.006322 -0.008554 0.000000 0.000000 0.000000
# 2 -0.006322 0.017869 -0.005826 0.000000 0.000000 0.000000
# 3 -0.008554 -0.005826 0.020683 0.000000 0.000000 0.000000
# 4 0.000000 0.000000 0.000000 0.028329 0.000000 0.000000
# 5 0.000000 0.000000 0.000000 0.000000 -0.012707 0.000000
# 6 0.000000 0.000000 0.000000 0.000000 0.000000 0.028213
#
#
# Mechanical properties :
#
#
# Convention : Reuss Voigt Hill
#
# Bulk Modulus (GPa) = 74.66654 77.98700 76.32677
# Shear Modulus (GPa) = 34.60258 6.58855 20.59556
#
# Velocity S-wave (km/s) = 4.22724 1.84458 3.26129
# Velocity P-wave (km/s) = 7.89845 6.69409 7.32108
#
# Compressibility (1/GPa) = 0.01339288
#
# Stress axis : x y z
#
# Youngs Moduli (GPa) = 61.56095 55.96401 48.34875
#
# Poissons Ratio (x) = 0.35379 0.41357
# Poissons Ratio (y) = 0.38917 0.28167
# Poissons Ratio (z) = 0.52659 0.32603
#
# Static dielectric constant tensor:
#      x y z
#    x 3.588520 0.000000 0.000000 
#    y 0.000000 3.621730 0.000000 
#    z 0.000000 0.000000 3.559060 
# 
# 
# High freq. dielectric constant tensor:
#      x y z
#    x 1.761150 0.000000 0.000000 
#    y 0.000000 1.763100 0.000000 
#    z 0.000000 0.000000 1.747890 
# 
# From -- ./inp_files/12615.got.cif
#   From: 2010.06.25/outbox.cif.g09.slc.cpg/sg71_7_cif.got.tgz:12615.got - 2010.06.28 04:59:45.
