data_PCOD8292612
_publ_section_title
;
Structure prediction by ZEFSAII (Michael W. Deem and Ramdas Pophale) SiO2 
 PCOD8292612
Probable space group: I M M M
;
_chemical_formula_sum "Si O2"
_cell_formula_units_Z 80
_cell_length_a 9.307466
_cell_length_b 22.217496
_cell_length_c 22.594998
_cell_angle_alpha 90.000000
_cell_angle_beta 90.000000
_cell_angle_gamma 90.000000
_cell_volume 4672.387746
_symmetry_space_group_name_H-M "I M M M"
_symmetry_group_IT_number 71
_symmetry_cell_setting 'orthorhombic'
loop_
_space_group_symop_operation_xyz
x,y,z
-x,-y,z
x,-y,-z
-x,y,-z
-x,-y,-z
x,y,-z
-x,y,z
x,-y,z
1/2+x,1/2+y,1/2+z
1/2-x,1/2-y,1/2+z
1/2+x,1/2-y,1/2-z
1/2-x,1/2+y,1/2-z
1/2-x,1/2-y,1/2-z
1/2+x,1/2+y,1/2-z
1/2-x,1/2+y,1/2+z
1/2+x,1/2-y,1/2+z
loop_
_atom_site_type_symbol
_atom_site_label
_atom_site_fract_x
_atom_site_fract_y
_atom_site_fract_z
Si Si1 0.832851 0.883102 0.567620
Si Si2 0.166240 0.799804 0.325876
Si Si3 0.331462 0.831344 0.786776
Si Si4 0.162100 0.500000 0.070179
Si Si5 0.672137 0.932775 0.873543
Si Si6 0.343919 0.071050 0.000000
O O1 0.790265 0.866350 0.500000
O O2 0.796063 0.825936 0.609198
O O3 0.000000 0.900320 0.571310
O O4 0.744130 0.940253 0.591996
O O5 0.255938 0.835074 0.276530
O O6 0.206571 0.729328 0.323040
O O7 0.000000 0.809709 0.310923
O O8 0.500000 0.837114 0.775712
O O9 0.269940 0.886896 0.824609
O O10 0.000000 0.500000 0.095763
O O11 0.161152 0.500000 0.000000
O O12 0.500000 0.930994 0.877640
O O13 0.724508 0.000000 0.856730
O O14 0.735891 0.912268 0.938196
O O15 0.500000 0.103160 0.000000
O O16 0.367375 0.000000 0.000000
#
# Coordination Sequence:
#
# PCOD8292612 Si02
#       6
#    16  16  16   8  16   8
#     4   9  17  31  49  67  91 122 154 190 233 278
#     4   9  18  32  47  64  89 122 156 187 224 272
#     4   9  17  30  47  66  90 122 155 187 225 266
#     4   9  17  29  47  71  95 117 145 184 231 280
#     4   8  13  23  40  64  93 118 143 179 222 265
#     4   7  10  18  34  58  89 119 137 162 215 266
#
# _framework density 17.121866000000001
#
# number of rings (size 3 to 8) (size 9 to 14) (size 15 to 20)
#    0.000    3.400    0.000    1.500    0.000    2.000 
#    3.600    0.000    0.000    0.000    0.000    0.700 
#    0.000    2.400    0.000    0.000    0.000    0.000 
#
# Total GULP energy -495656.055326 kJ/mol
# GULP energy per Si atom -12391.401383 kJ/mol
# Density = 1.708290 g / cm^3
# Si number density = 17.121866 Si / 1000 Ang^3
#
#
#
# Elastic Constant Matrix: (Units=GPa)
#
#
# Indices 1 2 3 4 5 6 
#
# 1 34.7323 28.4165 31.3821 0.0000 0.0000 0.0000
# 2 28.4165 98.6276 75.2890 0.0000 0.0000 0.0000
# 3 31.3821 75.2890 123.1453 0.0000 0.0000 0.0000
# 4 0.0000 0.0000 0.0000 31.5539 0.0000 0.0000
# 5 0.0000 0.0000 0.0000 0.0000 19.0898 0.0000
# 6 0.0000 0.0000 0.0000 0.0000 0.0000 16.0949
#
#
#
# Elastic Compliance Matrix: (Units=1/GPa)
#
#
# Indices 1 2 3 4 5 6 
#
# 1 0.039816 -0.006987 -0.005875 0.000000 0.000000 0.000000
# 2 -0.006987 0.020239 -0.010593 0.000000 0.000000 0.000000
# 3 -0.005875 -0.010593 0.016094 0.000000 0.000000 0.000000
# 4 0.000000 0.000000 0.000000 0.031692 0.000000 0.000000
# 5 0.000000 0.000000 0.000000 0.000000 0.052384 0.000000
# 6 0.000000 0.000000 0.000000 0.000000 0.000000 0.062132
#
#
# Mechanical properties :
#
#
# Convention : Reuss Voigt Hill
#
# Bulk Modulus (GPa) = 34.20093 58.52006 46.36050
# Shear Modulus (GPa) = 17.92032 21.44221 19.68126
#
# Velocity S-wave (km/s) = 3.23868 3.54266 3.39408
# Velocity P-wave (km/s) = 5.83128 7.14050 6.51884
#
# Compressibility (1/GPa) = 0.02923897
#
# Stress axis : x y z
#
# Youngs Moduli (GPa) = 25.11527 49.41054 62.13505
#
# Poissons Ratio (x) = 0.34524 0.36504
# Poissons Ratio (y) = 0.17549 0.65819
# Poissons Ratio (z) = 0.14755 0.52340
#
# Static dielectric constant tensor:
#      x y z
#    x 2.912560 0.000000 0.000000 
#    y 0.000000 3.232560 0.000000 
#    z 0.000000 0.000000 3.374730 
# 
# 
# High freq. dielectric constant tensor:
#      x y z
#    x 1.621860 0.000000 0.000000 
#    y 0.000000 1.651040 0.000000 
#    z 0.000000 0.000000 1.659630 
# 
# From -- ./inp_files/12782.got.cif
#   From: 2010.06.25/outbox.cif.g09.slc.cpg/sg71_7_cif.got.tgz:12782.got - 2010.06.28 04:59:45.
