data_PCOD8292135
_publ_section_title
;
Structure prediction by ZEFSAII (Michael W. Deem and Ramdas Pophale) SiO2 
 PCOD8292135
Probable space group: I M M M
;
_chemical_formula_sum "Si O2"
_cell_formula_units_Z 72
_cell_length_a 18.599778
_cell_length_b 7.986790
_cell_length_c 23.415863
_cell_angle_alpha 90.000000
_cell_angle_beta 90.000000
_cell_angle_gamma 90.000000
_cell_volume 3478.485478
_symmetry_space_group_name_H-M "I M M M"
_symmetry_group_IT_number 71
_symmetry_cell_setting 'orthorhombic'
loop_
_space_group_symop_operation_xyz
x,y,z
-x,-y,z
x,-y,-z
-x,y,-z
-x,-y,-z
x,y,-z
-x,y,z
x,-y,z
1/2+x,1/2+y,1/2+z
1/2-x,1/2-y,1/2+z
1/2+x,1/2-y,1/2-z
1/2-x,1/2+y,1/2-z
1/2-x,1/2-y,1/2-z
1/2+x,1/2+y,1/2-z
1/2-x,1/2+y,1/2+z
1/2+x,1/2-y,1/2+z
loop_
_atom_site_type_symbol
_atom_site_label
_atom_site_fract_x
_atom_site_fract_y
_atom_site_fract_z
Si Si1 0.584104 0.500000 0.062180
Si Si2 0.918099 0.307310 0.157911
Si Si3 0.311449 0.303964 0.434773
Si Si4 0.170844 0.191554 0.263255
Si Si5 0.657352 0.189195 0.116461
O O1 0.500000 0.500000 0.058063
O O2 0.604456 0.326635 0.091718
O O3 0.620386 0.500000 0.000000
O O4 0.916044 0.500000 0.175417
O O5 0.877227 0.283084 0.097955
O O6 0.880458 0.205106 0.208560
O O7 0.000000 0.243829 0.150780
O O8 0.307902 0.236966 0.500000
O O9 0.325701 0.500000 0.434077
O O10 0.238089 0.260190 0.401637
O O11 0.250000 0.250000 0.250000
O O12 0.145336 0.306756 0.315536
O O13 0.171541 0.000000 0.283814
O O14 0.639333 0.000000 0.094787
#
# Coordination Sequence:
#
# PCOD8292135 Si02
#       5
#     8  16  16  16  16
#     4  11  26  46  68 100 135 173 222 272 335 404
#     4  11  25  42  61  92 131 171 216 268 331 392
#     4  10  22  40  64  94 126 168 221 268 321 389
#     4  12  23  40  66  96 129 167 217 270 329 396
#     4  11  23  43  69  99 133 173 222 276 331 393
#
# _framework density 20.698663
#
# number of rings (size 3 to 8) (size 9 to 14) (size 15 to 20)
#    0.000    1.000    3.333    3.333    1.556    5.333 
#    0.000    3.333    0.000    0.000    0.000    0.000 
#    0.000    0.000    0.000    0.000    0.000    0.000 
#
# Total GULP energy -446453.792879 kJ/mol
# GULP energy per Si atom -12401.494247 kJ/mol
# Density = 2.065155 g / cm^3
# Si number density = 20.698663 Si / 1000 Ang^3
#
#
#
# Elastic Constant Matrix: (Units=GPa)
#
#
# Indices 1 2 3 4 5 6 
#
# 1 98.2402 34.3598 40.2846 0.0000 0.0000 0.0000
# 2 34.3598 102.1316 26.4500 0.0000 0.0000 0.0000
# 3 40.2846 26.4500 140.7538 0.0000 0.0000 0.0000
# 4 0.0000 0.0000 0.0000 30.0710 0.0000 0.0000
# 5 0.0000 0.0000 0.0000 0.0000 30.5315 0.0000
# 6 0.0000 0.0000 0.0000 0.0000 0.0000 31.8711
#
#
#
# Elastic Compliance Matrix: (Units=1/GPa)
#
#
# Indices 1 2 3 4 5 6 
#
# 1 0.012607 -0.003476 -0.002955 0.000000 0.000000 0.000000
# 2 -0.003476 0.011251 -0.001119 0.000000 0.000000 0.000000
# 3 -0.002955 -0.001119 0.008161 0.000000 0.000000 0.000000
# 4 0.000000 0.000000 0.000000 0.033255 0.000000 0.000000
# 5 0.000000 0.000000 0.000000 0.000000 0.032753 0.000000
# 6 0.000000 0.000000 0.000000 0.000000 0.000000 0.031376
#
#
# Mechanical properties :
#
#
# Convention : Reuss Voigt Hill
#
# Bulk Modulus (GPa) = 59.11052 60.36827 59.73939
# Shear Modulus (GPa) = 33.30196 34.49679 33.89937
#
# Velocity S-wave (km/s) = 4.01545 4.08685 4.05131
# Velocity P-wave (km/s) = 7.07942 7.17624 7.12799
#
# Compressibility (1/GPa) = 0.01691746
#
# Stress axis : x y z
#
# Youngs Moduli (GPa) = 79.32397 88.88441 122.53918
#
# Poissons Ratio (x) = 0.30895 0.36209
# Poissons Ratio (y) = 0.27572 0.13716
# Poissons Ratio (z) = 0.23439 0.09949
#
# Static dielectric constant tensor:
#      x y z
#    x 3.667250 0.000000 0.000000 
#    y 0.000000 4.017540 0.000000 
#    z 0.000000 0.000000 4.893380 
# 
# 
# High freq. dielectric constant tensor:
#      x y z
#    x 1.799680 0.000000 0.000000 
#    y 0.000000 1.819790 0.000000 
#    z 0.000000 0.000000 1.821030 
# 
# From -- ./inp_files/42075.got.cif
#   From: 2010.06.25/outbox.cif.g09.slc.cpg/sg71_22_cif.got.tgz:42075.got - 2010.06.28 04:59:45.
