data_PCOD8292440
_publ_section_title
;
Structure prediction by ZEFSAII (Michael W. Deem and Ramdas Pophale) SiO2 
 PCOD8292440
Probable space group: I M M M
;
_chemical_formula_sum "Si O2"
_cell_formula_units_Z 80
_cell_length_a 8.758489
_cell_length_b 25.769403
_cell_length_c 18.420009
_cell_angle_alpha 90.000000
_cell_angle_beta 90.000000
_cell_angle_gamma 90.000000
_cell_volume 4157.415054
_symmetry_space_group_name_H-M "I M M M"
_symmetry_group_IT_number 71
_symmetry_cell_setting 'orthorhombic'
loop_
_space_group_symop_operation_xyz
x,y,z
-x,-y,z
x,-y,-z
-x,y,-z
-x,-y,-z
x,y,-z
-x,y,z
x,-y,z
1/2+x,1/2+y,1/2+z
1/2-x,1/2-y,1/2+z
1/2+x,1/2-y,1/2-z
1/2-x,1/2+y,1/2-z
1/2-x,1/2-y,1/2-z
1/2+x,1/2+y,1/2-z
1/2-x,1/2+y,1/2+z
1/2+x,1/2-y,1/2+z
loop_
_atom_site_type_symbol
_atom_site_label
_atom_site_fract_x
_atom_site_fract_y
_atom_site_fract_z
Si Si1 0.318155 0.900937 0.170461
Si Si2 0.180350 0.000000 0.582080
Si Si3 0.676125 0.688637 0.085146
Si Si4 0.179208 0.404333 0.834883
Si Si5 0.318007 0.000000 0.082223
Si Si6 0.181301 0.304814 0.419486
O O1 0.500000 0.900151 0.169087
O O2 0.258879 0.905526 0.252560
O O3 0.252612 0.847683 0.135796
O O4 0.255689 0.949346 0.123911
O O5 0.237311 0.051211 0.621186
O O6 0.243221 0.000000 0.500000
O O7 0.000000 0.000000 0.582824
O O8 0.500000 0.678680 0.106036
O O9 0.784427 0.651121 0.130479
O O10 0.727732 0.747049 0.105985
O O11 0.700235 0.678631 0.000000
O O12 0.000000 0.414856 0.837603
O O13 0.500000 0.000000 0.081760
O O14 0.254897 0.000000 0.000000
O O15 0.247145 0.316049 0.500000
O O16 0.000000 0.308114 0.423217
#
# Coordination Sequence:
#
# PCOD8292440 Si02
#       6
#    16   8  16  16   8  16
#     4   9  17  28  43  70 106 135 162 202 251 300
#     4  11  24  41  59  75  94 127 172 214 246 289
#     4   9  18  33  52  73  98 132 176 218 248 284
#     4  11  22  34  51  77 108 135 158 198 258 311
#     4   9  15  24  42  66  94 129 164 200 246 297
#     4   8  14  27  48  71  98 136 177 212 246 287
#
# _framework density 19.242726000000001
#
# number of rings (size 3 to 8) (size 9 to 14) (size 15 to 20)
#    0.000    2.600    0.000    3.900    0.000    8.400 
#    0.000    0.000    0.000    1.200    0.000    0.000 
#    0.000   29.600    0.000    0.000    0.000    0.000 
#
# Total GULP energy -495963.428067 kJ/mol
# GULP energy per Si atom -12399.085702 kJ/mol
# Density = 1.919893 g / cm^3
# Si number density = 19.242726 Si / 1000 Ang^3
#
#
#
# Elastic Constant Matrix: (Units=GPa)
#
#
# Indices 1 2 3 4 5 6 
#
# 1 23.8253 18.0279 24.1673 0.0004 0.0000 0.0000
# 2 18.0279 166.9574 96.9281 0.0009 0.0000 0.0000
# 3 24.1673 96.9281 157.1021 0.0149 0.0000 0.0002
# 4 0.0004 0.0009 0.0149 -494.8538 -0.0005 0.0019
# 5 0.0000 0.0000 0.0000 -0.0005 13.7722 0.0000
# 6 0.0000 0.0000 0.0002 0.0019 0.0000 -7.0391
#
#
#
# Elastic Compliance Matrix: (Units=1/GPa)
#
#
# Indices 1 2 3 4 5 6 
#
# 1 0.049958 -0.001453 -0.006788 0.000000 0.000000 0.000000
# 2 -0.001453 0.009375 -0.005560 0.000000 0.000000 0.000000
# 3 -0.006788 -0.005560 0.010840 0.000000 0.000000 0.000000
# 4 0.000000 0.000000 0.000000 -0.002021 0.000000 -0.000001
# 5 0.000000 0.000000 0.000000 0.000000 0.072610 0.000000
# 6 0.000000 0.000000 0.000000 -0.000001 0.000000 -0.142063
#
#
# Mechanical properties :
#
#
# Convention : Reuss Voigt Hill
#
# Bulk Modulus (GPa) = 23.49165 69.57015 46.53090
# Shear Modulus (GPa) = 123.48169 -83.70670 19.88749
#
# Velocity S-wave (km/s) = 8.01934 -6.60264 3.21831
# Velocity P-wave (km/s) = 9.89854 4.67910 6.16794
#
# Compressibility (1/GPa) = 0.04256832
#
# Stress axis : x y z
#
# Youngs Moduli (GPa) = 20.01692 106.67196 92.24993
#
# Poissons Ratio (x) = 0.15503 0.62623
# Poissons Ratio (y) = 0.02909 0.51294
# Poissons Ratio (z) = 0.13588 0.59313
#
# Static dielectric constant tensor:
#      x y z
#    x 2.958300 0.000000 0.000000 
#    y 0.000000 3.838010 0.000000 
#    z 0.000000 0.000000 3.759200 
# 
# 
# High freq. dielectric constant tensor:
#      x y z
#    x 1.692750 0.000000 0.000000 
#    y 0.000000 1.767950 0.000000 
#    z 0.000000 0.000000 1.756090 
# 
# From -- ./inp_files/42282.got.cif
#   From: 2010.06.25/outbox.cif.g09.slc.cpg/sg71_22_cif.got.tgz:42282.got - 2010.06.28 04:59:45.
