data_PCOD8292799
_publ_section_title
;
Structure prediction by ZEFSAII (Michael W. Deem and Ramdas Pophale) SiO2 
 PCOD8292799
Probable space group: I M M M
;
_chemical_formula_sum "Si O2"
_cell_formula_units_Z 36
_cell_length_a 27.000000
_cell_length_b 15.000000
_cell_length_c 9.000000
_cell_angle_alpha 90.000000
_cell_angle_beta 90.000000
_cell_angle_gamma 90.000000
_cell_volume 3645.000000
_symmetry_space_group_name_H-M "I M M M"
_symmetry_group_IT_number 71
_symmetry_cell_setting 'orthorhombic'
loop_
_space_group_symop_operation_xyz
x,y,z
-x,-y,z
x,-y,-z
-x,y,-z
-x,-y,-z
x,y,-z
-x,y,z
x,-y,z
1/2+x,1/2+y,1/2+z
1/2-x,1/2-y,1/2+z
1/2+x,1/2-y,1/2-z
1/2-x,1/2+y,1/2-z
1/2-x,1/2-y,1/2-z
1/2+x,1/2+y,1/2-z
1/2-x,1/2+y,1/2+z
1/2+x,1/2-y,1/2+z
loop_
_atom_site_type_symbol
_atom_site_label
_atom_site_fract_x
_atom_site_fract_y
_atom_site_fract_z
Si Si1 0.906425 0.710545 0.326440
Si Si2 0.678462 0.897822 0.324617
Si Si3 0.000000 0.398954 0.323610
Si Si4 0.223897 0.105006 0.835754
Si Si5 0.624424 0.599778 0.828039
O O1 0.897888 0.691686 0.500000
O O2 0.861018 0.671049 0.236813
O O3 0.913862 0.818090 0.299504
O O4 0.953456 0.656931 0.264966
O O5 0.679937 0.892592 0.500000
O O6 0.730525 0.861143 0.262922
O O7 0.667380 0.000000 0.272825
O O8 0.000000 0.500000 0.258378
O O9 0.000000 0.403131 0.500000
O O10 0.172765 0.131062 0.759110
O O11 0.227353 0.000000 0.848944
O O12 0.226011 0.148561 0.000000
O O13 0.604994 0.500000 0.777467
O O14 0.638581 0.594261 0.000000
#
# Coordination Sequence:
#
# PCOD8292799 Si02
#       5
#    16  16   8  16  16
#     4  10  20  34  54  77 100 133 175 213 255 308
#     4  10  20  33  50  75 107 139 171 212 260 306
#     4   9  18  34  56  80 104 129 163 211 260 305
#     4   9  17  30  50  75 103 138 177 212 249 299
#     4   9  18  33  51  73 104 138 171 211 256 299
#
# _framework density 9.8765429999999999
#
# number of rings (size 3 to 8) (size 9 to 14) (size 15 to 20)
#    0.000    2.556    0.000    2.000    0.000    6.667 
#    0.000    1.111    0.000    5.333    0.000    0.000 
#    0.000    5.333    0.000    0.000    0.000    0.000 
#
# Total GULP energy -446125.334944 kJ/mol
# GULP energy per Si atom -12392.370415 kJ/mol
# Density = 0.985406 g / cm^3
# Si number density = 9.876543 Si / 1000 Ang^3
#
#
#
# Elastic Constant Matrix: (Units=GPa)
#
#
# Indices 1 2 3 4 5 6 
#
# 1 82.4024 65.3547 21.6103 0.0000 0.0000 0.0000
# 2 65.3547 149.9950 33.8911 0.0000 0.0000 0.0000
# 3 21.6103 33.8911 50.9711 0.0000 0.0000 0.0000
# 4 0.0000 0.0000 0.0000 20.5139 0.0000 0.0000
# 5 0.0000 0.0000 0.0000 0.0000 11.4385 0.0000
# 6 0.0000 0.0000 0.0000 0.0000 0.0000 31.9211
#
#
#
# Elastic Compliance Matrix: (Units=1/GPa)
#
#
# Indices 1 2 3 4 5 6 
#
# 1 0.018923 -0.007570 -0.002990 0.000000 0.000000 0.000000
# 2 -0.007570 0.010873 -0.004021 0.000000 0.000000 0.000000
# 3 -0.002990 -0.004021 0.023560 0.000000 0.000000 0.000000
# 4 0.000000 0.000000 0.000000 0.048748 0.000000 0.000000
# 5 0.000000 0.000000 0.000000 0.000000 0.087424 0.000000
# 6 0.000000 0.000000 0.000000 0.000000 0.000000 0.031327
#
#
# Mechanical properties :
#
#
# Convention : Reuss Voigt Hill
#
# Bulk Modulus (GPa) = 41.32809 58.34231 49.83520
# Shear Modulus (GPa) = 19.37376 23.60884 21.49130
#
# Velocity S-wave (km/s) = 3.13516 3.46091 3.30206
# Velocity P-wave (km/s) = 5.83725 6.75059 6.31046
#
# Compressibility (1/GPa) = 0.02419662
#
# Stress axis : x y z
#
# Youngs Moduli (GPa) = 52.84524 91.96691 42.44499
#
# Poissons Ratio (x) = 0.69615 0.12690
# Poissons Ratio (y) = 0.40001 0.17065
# Poissons Ratio (z) = 0.15800 0.36976
#
# Static dielectric constant tensor:
#      x y z
#    x 3.496890 0.000000 0.000000 
#    y 0.000000 3.964240 0.000000 
#    z 0.000000 0.000000 3.560870 
# 
# 
# High freq. dielectric constant tensor:
#      x y z
#    x 1.737680 0.000000 0.000000 
#    y 0.000000 1.788260 0.000000 
#    z 0.000000 0.000000 1.754420 
# 
# From -- ./inp_files/6004.got.cif
#   From: 2010.06.25/outbox.ucp.g09.slc.cvg/sg71_4_cif.got.tgz:6004.got - 2010.06.28 16:23:14.
