data_PCOD8292355
_publ_section_title
;
Structure prediction by ZEFSAII (Michael W. Deem and Ramdas Pophale) SiO2 
 PCOD8292355
Probable space group: I M M M
;
_chemical_formula_sum "Si O2"
_cell_formula_units_Z 88
_cell_length_a 18.147044
_cell_length_b 30.453365
_cell_length_c 8.833598
_cell_angle_alpha 90.000000
_cell_angle_beta 90.000000
_cell_angle_gamma 90.000000
_cell_volume 4881.786831
_symmetry_space_group_name_H-M "I M M M"
_symmetry_group_IT_number 71
_symmetry_cell_setting 'orthorhombic'
loop_
_space_group_symop_operation_xyz
x,y,z
-x,-y,z
x,-y,-z
-x,y,-z
-x,-y,-z
x,y,-z
-x,y,z
x,-y,z
1/2+x,1/2+y,1/2+z
1/2-x,1/2-y,1/2+z
1/2+x,1/2-y,1/2-z
1/2-x,1/2+y,1/2-z
1/2-x,1/2-y,1/2-z
1/2+x,1/2+y,1/2-z
1/2-x,1/2+y,1/2+z
1/2+x,1/2-y,1/2+z
loop_
_atom_site_type_symbol
_atom_site_label
_atom_site_fract_x
_atom_site_fract_y
_atom_site_fract_z
Si Si1 0.582958 0.352772 0.678270
Si Si2 0.084894 0.751872 0.170495
Si Si3 0.000000 0.447897 0.834322
Si Si4 0.340954 0.950802 0.319142
Si Si5 0.708913 0.209187 0.822829
Si Si6 0.772516 0.122165 0.320627
O O1 0.590288 0.359814 0.500000
O O2 0.500000 0.365632 0.731051
O O3 0.599289 0.302133 0.720500
O O4 0.643141 0.382908 0.763009
O O5 0.123304 0.717796 0.284846
O O6 0.000000 0.740272 0.177227
O O7 0.115168 0.745235 0.000000
O O8 0.078165 0.434909 0.753567
O O9 0.000000 0.500000 0.851915
O O10 0.000000 0.425642 0.000000
O O11 0.346424 0.950439 0.500000
O O12 0.275527 0.919200 0.262708
O O13 0.322596 0.000000 0.261359
O O14 0.750000 0.250000 0.750000
O O15 0.735393 0.164756 0.748362
O O16 0.723596 0.206601 0.000000
O O17 0.772776 0.125478 0.500000
#
# Coordination Sequence:
#
# PCOD8292355 Si02
#       6
#    16  16   8  16  16  16
#     4   9  18  33  53  74  98 132 173 216 259 305
#     4   9  18  34  54  73  96 131 174 217 258 299
#     4   7  10  22  46  72  99 133 169 203 241 287
#     4   8  15  29  50  76 105 134 169 213 254 299
#     4  12  23  35  51  72 104 140 175 212 254 302
#     4  11  21  32  51  80 107 134 171 212 263 311
#
# _framework density 18.026185999999999
#
# number of rings (size 3 to 8) (size 9 to 14) (size 15 to 20)
#    0.000    2.455    1.818    4.364    0.000    0.727 
#    1.636    1.818    0.000    2.727    0.000    3.818 
#    0.000    8.727    0.000    0.000    0.000    0.000 
#
# Total GULP energy -545237.637705 kJ/mol
# GULP energy per Si atom -12391.764493 kJ/mol
# Density = 1.798516 g / cm^3
# Si number density = 18.026186 Si / 1000 Ang^3
#
#
#
# Elastic Constant Matrix: (Units=GPa)
#
#
# Indices 1 2 3 4 5 6 
#
# 1 159.6865 72.4262 44.7014 -0.0009 0.0008 0.0001
# 2 72.4262 91.2807 29.6695 -0.0037 -0.0007 -0.0004
# 3 44.7014 29.6695 49.5182 -0.0168 0.0005 0.0047
# 4 -0.0009 -0.0037 -0.0168 15.2707 0.0002 -0.0005
# 5 0.0008 -0.0007 0.0005 0.0002 28.6974 -0.0012
# 6 0.0001 -0.0004 0.0047 -0.0005 -0.0012 31.7660
#
#
#
# Elastic Compliance Matrix: (Units=1/GPa)
#
#
# Indices 1 2 3 4 5 6 
#
# 1 0.010990 -0.006824 -0.005832 -0.000007 0.000000 0.000001
# 2 -0.006824 0.017842 -0.004530 -0.000001 0.000001 0.000001
# 3 -0.005832 -0.004530 0.028174 0.000030 0.000000 -0.000004
# 4 -0.000007 -0.000001 0.000030 0.065485 -0.000001 0.000001
# 5 0.000000 0.000001 0.000000 -0.000001 0.034846 0.000001
# 6 0.000001 0.000001 -0.000004 0.000001 0.000001 0.031480
#
#
# Mechanical properties :
#
#
# Convention : Reuss Voigt Hill
#
# Bulk Modulus (GPa) = 44.18300 66.00884 55.09592
# Shear Modulus (GPa) = 21.66991 25.39272 23.53132
#
# Velocity S-wave (km/s) = 3.47094 3.75728 3.61695
# Velocity P-wave (km/s) = 6.37393 7.45122 6.93353
#
# Compressibility (1/GPa) = 0.02263314
#
# Stress axis : x y z
#
# Youngs Moduli (GPa) = 90.99117 56.04633 35.49423
#
# Poissons Ratio (x) = 0.38248 0.20701
# Poissons Ratio (y) = 0.62096 0.16079
# Poissons Ratio (z) = 0.53067 0.25389
#
# Static dielectric constant tensor:
#      x y z
#    x 3.879610 -0.000030 0.000030 
#    y -0.000030 3.289620 0.000010 
#    z 0.000030 0.000010 3.256620 
# 
# 
# High freq. dielectric constant tensor:
#      x y z
#    x 1.721810 0.000000 0.000000 
#    y 0.000000 1.660540 0.000000 
#    z 0.000000 0.000000 1.668170 
# 
# From -- ./inp_files/8729.got.cif
#   From: 2010.06.25/outbox.cif.g09.slc.cpg/sg71_5_cif.got.tgz:8729.got - 2010.06.28 04:59:45.
