data_PCOD8292857
_publ_section_title
;
Structure prediction by ZEFSAII (Michael W. Deem and Ramdas Pophale) SiO2 
 PCOD8292857
Probable space group: I B A M
;
_chemical_formula_sum "Si O2"
_cell_formula_units_Z 96
_cell_length_a 16.219723
_cell_length_b 18.292586
_cell_length_c 19.129477
_cell_angle_alpha 90.000000
_cell_angle_beta 90.000000
_cell_angle_gamma 90.000000
_cell_volume 5675.728793
_symmetry_space_group_name_H-M "I B A M"
_symmetry_group_IT_number 72
_symmetry_cell_setting 'orthorhombic'
loop_
_space_group_symop_operation_xyz
x,y,z
-x,-y,z
x,-y,1/2-z
-x,y,1/2-z
-x,-y,-z
x,y,-z
-x,y,1/2+z
x,-y,1/2+z
1/2+x,1/2+y,1/2+z
1/2-x,1/2-y,1/2+z
1/2+x,1/2-y,-z
1/2-x,1/2+y,-z
1/2-x,1/2-y,1/2-z
1/2+x,1/2+y,1/2-z
1/2-x,1/2+y,z
1/2+x,1/2-y,z
loop_
_atom_site_type_symbol
_atom_site_label
_atom_site_fract_x
_atom_site_fract_y
_atom_site_fract_z
Si Si1 0.733622 0.613238 0.580554
Si Si2 0.909336 0.863326 0.817750
Si Si3 0.788569 0.152490 0.801603
Si Si4 0.500000 0.235596 0.250000
Si Si5 0.839482 0.316845 0.808070
Si Si6 0.673856 0.454150 0.422852
Si Si7 0.000000 0.000000 0.630974
O O1 0.738297 0.639371 0.500000
O O2 0.651173 0.647159 0.615886
O O3 0.815910 0.637943 0.622279
O O4 0.728881 0.526167 0.586399
O O5 0.857892 0.881563 0.748450
O O6 0.956015 0.786472 0.808077
O O7 0.973158 0.930020 0.823543
O O8 0.806884 0.235475 0.821755
O O9 0.701909 0.147973 0.760975
O O10 0.788123 0.105067 0.871143
O O11 0.562935 0.183997 0.292821
O O12 0.684707 0.421277 0.500000
O O13 0.577325 0.473506 0.414784
#
# Coordination Sequence:
#
# PCOD8292857 Si02
#       7
#    16  16  16   8  16  16   8
#     4   9  19  34  49  69 100 133 160 189 232 289
#     4   9  18  29  46  70  99 129 155 187 230 286
#     4   9  18  32  48  69  95 125 161 193 231 285
#     4  10  18  31  48  71  96 120 160 212 248 270
#     4   9  18  32  51  71  93 123 161 203 239 277
#     4  10  20  31  46  70 100 130 157 190 233 285
#     4  10  17  27  44  72 103 127 152 182 227 289
#
# _framework density 16.914128000000002
#
# number of rings (size 3 to 8) (size 9 to 14) (size 15 to 20)
#    0.000    2.667    0.000    3.250    0.000   11.000 
#    0.000    0.833    0.000    3.000    0.000    2.333 
#    0.000    0.000    0.000    0.000    0.000    0.000 
#
# Total GULP energy -595017.496893 kJ/mol
# GULP energy per Si atom -12396.197852 kJ/mol
# Density = 1.687563 g / cm^3
# Si number density = 16.914128 Si / 1000 Ang^3
#
#
#
# Elastic Constant Matrix: (Units=GPa)
#
#
# Indices 1 2 3 4 5 6 
#
# 1 101.8100 43.0268 57.2831 0.0000 0.0000 0.0000
# 2 43.0268 64.3397 60.7661 0.0000 0.0000 0.0000
# 3 57.2831 60.7661 142.7485 0.0000 0.0000 0.0000
# 4 0.0000 0.0000 0.0000 11.5356 0.0000 0.0000
# 5 0.0000 0.0000 0.0000 0.0000 17.9532 0.0000
# 6 0.0000 0.0000 0.0000 0.0000 0.0000 32.0855
#
#
#
# Elastic Compliance Matrix: (Units=1/GPa)
#
#
# Indices 1 2 3 4 5 6 
#
# 1 0.014329 -0.006943 -0.002794 0.000000 0.000000 0.000000
# 2 -0.006943 0.029357 -0.009711 0.000000 0.000000 0.000000
# 3 -0.002794 -0.009711 0.012260 0.000000 0.000000 0.000000
# 4 0.000000 0.000000 0.000000 0.086688 0.000000 0.000000
# 5 0.000000 0.000000 0.000000 0.000000 0.055700 0.000000
# 6 0.000000 0.000000 0.000000 0.000000 0.000000 0.031167
#
#
# Mechanical properties :
#
#
# Convention : Reuss Voigt Hill
#
# Bulk Modulus (GPa) = 58.65174 70.11671 64.38423
# Shear Modulus (GPa) = 18.24277 22.16965 20.20621
#
# Velocity S-wave (km/s) = 3.28769 3.62431 3.46010
# Velocity P-wave (km/s) = 7.01166 7.68497 7.35602
#
# Compressibility (1/GPa) = 0.01704979
#
# Stress axis : x y z
#
# Youngs Moduli (GPa) = 69.78979 34.06340 81.56357
#
# Poissons Ratio (x) = 0.23651 0.22792
# Poissons Ratio (y) = 0.48456 0.79204
# Poissons Ratio (z) = 0.19502 0.33078
#
# Static dielectric constant tensor:
#      x y z
#    x 3.181330 0.000000 0.000000 
#    y 0.000000 3.059070 0.000000 
#    z 0.000000 0.000000 3.178830 
# 
# 
# High freq. dielectric constant tensor:
#      x y z
#    x 1.638790 0.000000 0.000000 
#    y 0.000000 1.636300 0.000000 
#    z 0.000000 0.000000 1.648970 
# 
# From -- ./inp_files/31660.got.cif
#   From: 2010.03.12/outbox.cif.g09.slc.cpg/sg72_16_cif.got.tgz:31660.got - 2010.04.16 14:54:00.
