data_PCOD8292876
_publ_section_title
;
Structure prediction by ZEFSAII (Michael W. Deem and Ramdas Pophale) SiO2 
 PCOD8292876
Probable space group: I B A M
;
_chemical_formula_sum "Si O2"
_cell_formula_units_Z 96
_cell_length_a 21.460825
_cell_length_b 13.570310
_cell_length_c 17.211209
_cell_angle_alpha 90.000000
_cell_angle_beta 90.000000
_cell_angle_gamma 90.000000
_cell_volume 5012.421225
_symmetry_space_group_name_H-M "I B A M"
_symmetry_group_IT_number 72
_symmetry_cell_setting 'orthorhombic'
loop_
_space_group_symop_operation_xyz
x,y,z
-x,-y,z
x,-y,1/2-z
-x,y,1/2-z
-x,-y,-z
x,y,-z
-x,y,1/2+z
x,-y,1/2+z
1/2+x,1/2+y,1/2+z
1/2-x,1/2-y,1/2+z
1/2+x,1/2-y,-z
1/2-x,1/2+y,-z
1/2-x,1/2-y,1/2-z
1/2+x,1/2+y,1/2-z
1/2-x,1/2+y,z
1/2+x,1/2-y,z
loop_
_atom_site_type_symbol
_atom_site_label
_atom_site_fract_x
_atom_site_fract_y
_atom_site_fract_z
Si Si1 0.655074 0.197456 0.218286
Si Si2 0.455504 0.243949 0.180243
Si Si3 0.934693 0.714557 0.909012
Si Si4 0.631448 0.384225 0.411825
Si Si5 0.714938 0.610415 0.772871
Si Si6 0.446166 0.436136 0.412432
O O1 0.602574 0.182437 0.284972
O O2 0.624900 0.168710 0.134905
O O3 0.680686 0.310232 0.217468
O O4 0.710818 0.121616 0.234238
O O5 0.500000 0.283875 0.250000
O O6 0.498660 0.174277 0.123727
O O7 0.428640 0.331572 0.126638
O O8 0.934967 0.828259 0.877672
O O9 0.926681 0.696170 0.000000
O O10 0.642196 0.345666 0.500000
O O11 0.693667 0.366358 0.361465
O O12 0.617678 0.501234 0.411389
O O13 0.694835 0.500000 0.750000
O O14 0.500000 0.500000 0.369044
O O15 0.469642 0.415859 0.500000
#
# Coordination Sequence:
#
# PCOD8292876 Si02
#       6
#    16  16  16  16  16  16
#     4   9  20  34  49  74 100 128 173 209 236 302
#     4   9  17  29  45  68 100 132 158 196 248 301
#     4  10  17  28  48  72 102 132 159 201 256 299
#     4  10  18  29  47  72 100 129 165 204 243 295
#     4  10  20  36  53  68  96 137 173 206 249 291
#     4   9  15  23  38  67 103 129 151 185 238 305
#
# _framework density 19.152422000000001
#
# number of rings (size 3 to 8) (size 9 to 14) (size 15 to 20)
#    0.000    2.500    1.667    1.500    0.000    0.667 
#    0.000    2.500    0.000    9.500    0.000    1.167 
#    0.000    0.000    0.000    0.000    0.000    0.000 
#
# Total GULP energy -594633.061889 kJ/mol
# GULP energy per Si atom -12388.188789 kJ/mol
# Density = 1.910883 g / cm^3
# Si number density = 19.152422 Si / 1000 Ang^3
#
#
#
# Elastic Constant Matrix: (Units=GPa)
#
#
# Indices 1 2 3 4 5 6 
#
# 1 112.6105 2.5485 49.2515 0.0000 0.0000 0.0000
# 2 2.5485 18.3689 4.1189 0.0000 0.0000 0.0000
# 3 49.2515 4.1189 122.6626 0.0000 0.0000 0.0000
# 4 0.0000 0.0000 0.0000 11.1087 0.0000 0.0000
# 5 0.0000 0.0000 0.0000 0.0000 24.6733 0.0000
# 6 0.0000 0.0000 0.0000 0.0000 0.0000 18.1661
#
#
#
# Elastic Compliance Matrix: (Units=1/GPa)
#
#
# Indices 1 2 3 4 5 6 
#
# 1 0.010777 -0.000529 -0.004309 0.000000 0.000000 0.000000
# 2 -0.000529 0.054879 -0.001630 0.000000 0.000000 0.000000
# 3 -0.004309 -0.001630 0.009938 0.000000 0.000000 0.000000
# 4 0.000000 0.000000 0.000000 0.090020 0.000000 0.000000
# 5 0.000000 0.000000 0.000000 0.000000 0.040530 0.000000
# 6 0.000000 0.000000 0.000000 0.000000 0.000000 0.055048
#
#
# Mechanical properties :
#
#
# Convention : Reuss Voigt Hill
#
# Bulk Modulus (GPa) = 15.96024 40.60889 28.28456
# Shear Modulus (GPa) = 16.94840 23.97113 20.45977
#
# Velocity S-wave (km/s) = 2.97799 3.54163 3.27197
# Velocity P-wave (km/s) = 4.49176 6.16224 5.39209
#
# Compressibility (1/GPa) = 0.06265571
#
# Stress axis : x y z
#
# Youngs Moduli (GPa) = 92.79112 18.22199 100.62891
#
# Poissons Ratio (x) = 0.00964 0.43365
# Poissons Ratio (y) = 0.04908 0.16407
# Poissons Ratio (z) = 0.39987 0.02971
#
# Static dielectric constant tensor:
#      x y z
#    x 3.568150 0.000000 0.000000 
#    y 0.000000 2.954870 0.000000 
#    z 0.000000 0.000000 3.479810 
# 
# 
# High freq. dielectric constant tensor:
#      x y z
#    x 1.749810 0.000000 0.000000 
#    y 0.000000 1.682830 0.000000 
#    z 0.000000 0.000000 1.743610 
# 
# From -- ./inp_files/39713.got.cif
#   From: 2010.03.12/outbox.cif.g09.slc.cpg/sg72_20_cif.got.tgz:39713.got - 2010.04.16 14:54:00.
