data_PCOD8292055
_publ_section_title
;
Structure prediction by ZEFSAII (Michael W. Deem and Ramdas Pophale) SiO2 
 PCOD8292055
Probable space group: I M M M
;
_chemical_formula_sum "Si O2"
_cell_formula_units_Z 80
_cell_length_a 8.938930
_cell_length_b 25.207971
_cell_length_c 18.243670
_cell_angle_alpha 90.000000
_cell_angle_beta 90.000000
_cell_angle_gamma 90.000000
_cell_volume 4110.887906
_symmetry_space_group_name_H-M "I M M M"
_symmetry_group_IT_number 71
_symmetry_cell_setting 'orthorhombic'
loop_
_space_group_symop_operation_xyz
x,y,z
-x,-y,z
x,-y,-z
-x,y,-z
-x,-y,-z
x,y,-z
-x,y,z
x,-y,z
1/2+x,1/2+y,1/2+z
1/2-x,1/2-y,1/2+z
1/2+x,1/2-y,1/2-z
1/2-x,1/2+y,1/2-z
1/2-x,1/2-y,1/2-z
1/2+x,1/2+y,1/2-z
1/2-x,1/2+y,1/2+z
1/2+x,1/2-y,1/2+z
loop_
_atom_site_type_symbol
_atom_site_label
_atom_site_fract_x
_atom_site_fract_y
_atom_site_fract_z
Si Si1 0.322784 0.248388 0.328924
Si Si2 0.322986 0.649780 0.417629
Si Si3 0.172334 0.155274 0.585382
Si Si4 0.326929 0.938939 0.657253
Si Si5 0.672863 0.939104 0.174403
O O1 0.500000 0.248970 0.320411
O O2 0.250000 0.250000 0.250000
O O3 0.262877 0.298886 0.374406
O O4 0.275409 0.195340 0.370105
O O5 0.257665 0.651442 0.500000
O O6 0.500000 0.650331 0.419429
O O7 0.271863 0.596364 0.378462
O O8 0.197829 0.165325 0.500000
O O9 0.222251 0.095792 0.605078
O O10 0.000000 0.163258 0.607536
O O11 0.500000 0.927203 0.639990
O O12 0.291016 0.924956 0.741551
O O13 0.289173 0.000000 0.641031
O O14 0.500000 0.928173 0.157528
O O15 0.713578 0.000000 0.158319
#
# Coordination Sequence:
#
# PCOD8292055 Si02
#       5
#    16  16  16  16  16
#     4  11  23  40  62  85 111 145 187 234 284 339
#     4  10  22  38  55  79 111 145 181 222 271 327
#     4  11  24  39  56  83 118 152 188 232 282 336
#     4   9  19  37  60  84 111 147 191 235 281 337
#     4   9  19  36  57  82 111 143 182 227 273 323
#
# _framework density 19.460516999999999
#
# number of rings (size 3 to 8) (size 9 to 14) (size 15 to 20)
#    0.000    2.000    0.000    4.200    0.000   10.000 
#    0.000    6.000    0.000    0.000    0.000    0.000 
#    0.000    0.000    0.000    0.000    0.000    0.000 
#
# Total GULP energy -496174.077266 kJ/mol
# GULP energy per Si atom -12404.351932 kJ/mol
# Density = 1.941622 g / cm^3
# Si number density = 19.460517 Si / 1000 Ang^3
#
#
#
# Elastic Constant Matrix: (Units=GPa)
#
#
# Indices 1 2 3 4 5 6 
#
# 1 50.9517 31.6851 41.0642 0.0000 0.0000 0.0000
# 2 31.6851 100.8118 47.9884 0.0000 0.0000 0.0000
# 3 41.0642 47.9884 99.5155 -0.0003 0.0000 0.0000
# 4 0.0000 0.0000 -0.0003 26.3811 0.0000 0.0000
# 5 0.0000 0.0000 0.0000 0.0000 34.5190 0.0000
# 6 0.0000 0.0000 0.0000 0.0000 0.0000 36.0487
#
#
#
# Elastic Compliance Matrix: (Units=1/GPa)
#
#
# Indices 1 2 3 4 5 6 
#
# 1 0.031067 -0.004753 -0.010527 0.000000 0.000000 0.000000
# 2 -0.004753 0.013602 -0.004598 0.000000 0.000000 0.000000
# 3 -0.010527 -0.004598 0.016610 0.000000 0.000000 0.000000
# 4 0.000000 0.000000 0.000000 0.037906 0.000000 0.000000
# 5 0.000000 0.000000 0.000000 0.000000 0.028970 0.000000
# 6 0.000000 0.000000 0.000000 0.000000 0.000000 0.027740
#
#
# Mechanical properties :
#
#
# Convention : Reuss Voigt Hill
#
# Bulk Modulus (GPa) = 46.46398 54.75047 50.60722
# Shear Modulus (GPa) = 24.65181 28.09251 26.37216
#
# Velocity S-wave (km/s) = 3.56302 3.80355 3.68525
# Velocity P-wave (km/s) = 6.39176 6.89090 6.64602
#
# Compressibility (1/GPa) = 0.02152205
#
# Stress axis : x y z
#
# Youngs Moduli (GPa) = 32.18886 73.51848 60.20505
#
# Poissons Ratio (x) = 0.34943 0.63380
# Poissons Ratio (y) = 0.15299 0.27682
# Poissons Ratio (z) = 0.33886 0.33803
#
# Static dielectric constant tensor:
#      x y z
#    x 3.427400 0.000000 0.000000 
#    y 0.000000 3.617390 0.000000 
#    z 0.000000 0.000000 3.671780 
# 
# 
# High freq. dielectric constant tensor:
#      x y z
#    x 1.752360 0.000000 0.000000 
#    y 0.000000 1.770630 0.000000 
#    z 0.000000 0.000000 1.764400 
# 
# From -- ./inp_files/8304.got.cif
#   From: 2010.06.25/outbox.cif.g09.slc.cpg/sg71_5_cif.got.tgz:8304.got - 2010.06.28 04:59:45.
