data_PCOD8292690
_publ_section_title
;
Structure prediction by ZEFSAII (Michael W. Deem and Ramdas Pophale) SiO2 
 PCOD8292690
Probable space group: I M M M
;
_chemical_formula_sum "Si O2"
_cell_formula_units_Z 88
_cell_length_a 14.411793
_cell_length_b 12.944709
_cell_length_c 28.860982
_cell_angle_alpha 90.000000
_cell_angle_beta 90.000000
_cell_angle_gamma 90.000000
_cell_volume 5384.202823
_symmetry_space_group_name_H-M "I M M M"
_symmetry_group_IT_number 71
_symmetry_cell_setting 'orthorhombic'
loop_
_space_group_symop_operation_xyz
x,y,z
-x,-y,z
x,-y,-z
-x,y,-z
-x,-y,-z
x,y,-z
-x,y,z
x,-y,z
1/2+x,1/2+y,1/2+z
1/2-x,1/2-y,1/2+z
1/2+x,1/2-y,1/2-z
1/2-x,1/2+y,1/2-z
1/2-x,1/2-y,1/2-z
1/2+x,1/2+y,1/2-z
1/2-x,1/2+y,1/2+z
1/2+x,1/2-y,1/2+z
loop_
_atom_site_type_symbol
_atom_site_label
_atom_site_fract_x
_atom_site_fract_y
_atom_site_fract_z
Si Si1 0.610539 0.500000 0.553540
Si Si2 0.735081 0.881034 0.385555
Si Si3 0.393506 0.305332 0.387729
Si Si4 0.601413 0.377382 0.948610
Si Si5 0.233725 0.386956 0.220418
Si Si6 0.391574 0.697362 0.279750
O O1 0.500000 0.500000 0.555704
O O2 0.645298 0.500000 0.500000
O O3 0.648139 0.398087 0.580643
O O4 0.651297 0.805511 0.399245
O O5 0.822924 0.836353 0.413043
O O6 0.763884 0.870248 0.332393
O O7 0.708931 0.000000 0.398413
O O8 0.500000 0.290236 0.400245
O O9 0.380222 0.332398 0.333587
O O10 0.500000 0.334491 0.934287
O O11 0.599418 0.500000 0.947686
O O12 0.627272 0.338193 0.000000
O O13 0.190754 0.500000 0.227930
O O14 0.327708 0.380407 0.250642
O O15 0.150095 0.309860 0.232987
O O16 0.500000 0.692006 0.264981
#
# Coordination Sequence:
#
# PCOD8292690 Si02
#       6
#     8  16  16  16  16  16
#     4   9  18  32  48  66  89 117 155 201 235 263
#     4   9  17  29  45  68  96 121 147 184 232 283
#     4   9  18  31  47  67  90 120 155 190 231 278
#     4   8  14  25  41  61  86 116 147 177 212 260
#     4   9  18  30  44  66  94 121 151 191 236 278
#     4   9  18  31  46  66  91 121 158 193 231 281
#
# _framework density 16.344110000000001
#
# number of rings (size 3 to 8) (size 9 to 14) (size 15 to 20)
#    0.000    3.182    0.000    0.545    1.273    2.545 
#    0.000    5.455    0.000    0.000    0.000    5.727 
#    0.000    2.182    0.000    0.000    0.000    0.000 
#
# Total GULP energy -545234.908553 kJ/mol
# GULP energy per Si atom -12391.702467 kJ/mol
# Density = 1.630691 g / cm^3
# Si number density = 16.344110 Si / 1000 Ang^3
#
#
#
# Elastic Constant Matrix: (Units=GPa)
#
#
# Indices 1 2 3 4 5 6 
#
# 1 70.4538 30.5957 36.6614 0.0000 0.0000 0.0000
# 2 30.5957 83.7118 39.7567 0.0000 0.0000 0.0000
# 3 36.6614 39.7567 62.2564 0.0000 0.0000 0.0000
# 4 0.0000 0.0000 0.0000 20.6285 0.0000 0.0000
# 5 0.0000 0.0000 0.0000 0.0000 26.3426 0.0000
# 6 0.0000 0.0000 0.0000 0.0000 0.0000 14.7830
#
#
#
# Elastic Compliance Matrix: (Units=1/GPa)
#
#
# Indices 1 2 3 4 5 6 
#
# 1 0.020842 -0.002567 -0.010634 0.000000 0.000000 0.000000
# 2 -0.002567 0.017462 -0.009639 0.000000 0.000000 0.000000
# 3 -0.010634 -0.009639 0.028480 0.000000 0.000000 0.000000
# 4 0.000000 0.000000 0.000000 0.048477 0.000000 0.000000
# 5 0.000000 0.000000 0.000000 0.000000 0.037961 0.000000
# 6 0.000000 0.000000 0.000000 0.000000 0.000000 0.067645
#
#
# Mechanical properties :
#
#
# Convention : Reuss Voigt Hill
#
# Bulk Modulus (GPa) = 47.38605 47.82772 47.60689
# Shear Modulus (GPa) = 18.27599 19.64473 18.96036
#
# Velocity S-wave (km/s) = 3.34758 3.47067 3.40968
# Velocity P-wave (km/s) = 6.63305 6.73700 6.68523
#
# Compressibility (1/GPa) = 0.02110326
#
# Stress axis : x y z
#
# Youngs Moduli (GPa) = 47.97992 57.26721 35.11187
#
# Poissons Ratio (x) = 0.14702 0.37338
# Poissons Ratio (y) = 0.12317 0.33846
# Poissons Ratio (z) = 0.51022 0.55202
#
# Static dielectric constant tensor:
#      x y z
#    x 3.138290 0.000000 0.000000 
#    y 0.000000 3.065830 0.000000 
#    z 0.000000 0.000000 3.194940 
# 
# 
# High freq. dielectric constant tensor:
#      x y z
#    x 1.612570 0.000000 0.000000 
#    y 0.000000 1.614200 0.000000 
#    z 0.000000 0.000000 1.628550 
# 
# From -- ./inp_files/22505.got.cif
#   From: 2010.06.25/outbox.cif.g09.slc.cpg/sg71_12_cif.got.tgz:22505.got - 2010.06.28 04:59:45.
