data_PCOD8292997
_publ_section_title
;
Structure prediction by ZEFSAII (Michael W. Deem and Ramdas Pophale) SiO2 
 PCOD8292997
Probable space group: I B A M
;
_chemical_formula_sum "Si O2"
_cell_formula_units_Z 84
_cell_length_a 15.368159
_cell_length_b 15.409730
_cell_length_c 21.406097
_cell_angle_alpha 90.000000
_cell_angle_beta 90.000000
_cell_angle_gamma 90.000000
_cell_volume 5069.374355
_symmetry_space_group_name_H-M "I B A M"
_symmetry_group_IT_number 72
_symmetry_cell_setting 'orthorhombic'
loop_
_space_group_symop_operation_xyz
x,y,z
-x,-y,z
x,-y,1/2-z
-x,y,1/2-z
-x,-y,-z
x,y,-z
-x,y,1/2+z
x,-y,1/2+z
1/2+x,1/2+y,1/2+z
1/2-x,1/2-y,1/2+z
1/2+x,1/2-y,-z
1/2-x,1/2+y,-z
1/2-x,1/2-y,1/2-z
1/2+x,1/2+y,1/2-z
1/2-x,1/2+y,z
1/2+x,1/2-y,z
loop_
_atom_site_type_symbol
_atom_site_label
_atom_site_fract_x
_atom_site_fract_y
_atom_site_fract_z
Si Si1 0.673326 0.718466 0.425809
Si Si2 0.318525 0.649721 0.426645
Si Si3 0.246543 0.965185 0.573840
Si Si4 0.519578 0.757382 0.926084
Si Si5 0.928286 0.436800 0.130067
Si Si6 0.500000 0.000000 0.750000
O O1 0.671680 0.722620 0.500000
O O2 0.743241 0.787309 0.397821
O O3 0.696530 0.621111 0.404070
O O4 0.576956 0.739457 0.399780
O O5 0.307277 0.658138 0.500000
O O6 0.308598 0.549801 0.406051
O O7 0.415602 0.678994 0.407160
O O8 0.265497 0.962869 0.500000
O O9 0.335715 0.973718 0.610822
O O10 0.560318 0.840498 0.893921
O O11 0.518595 0.772310 0.000000
O O12 0.939070 0.439756 0.205679
O O13 0.000000 0.500000 0.098366
#
# Coordination Sequence:
#
# PCOD8292997 Si02
#       6
#    16  16  16  16  16   4
#     4   9  17  28  42  72 109 132 165 196 232 290
#     4   9  17  28  42  72 109 132 165 196 232 290
#     4  10  18  29  50  74 102 136 159 197 243 290
#     4  10  18  29  50  74 102 136 159 197 243 290
#     4  10  19  34  51  68  96 125 161 210 246 289
#     4   8  24  36  46  72  92 124 160 222 252 280
#
# _framework density 16.570093
#
# number of rings (size 3 to 8) (size 9 to 14) (size 15 to 20)
#    0.571    1.905    1.905    1.714    0.000    3.810 
#    0.000    3.810    0.000    4.571    0.000    0.000 
#    0.000    3.048    0.000    0.000    0.000    0.000 
#
# Total GULP energy -520538.602069 kJ/mol
# GULP energy per Si atom -12393.776240 kJ/mol
# Density = 1.653238 g / cm^3
# Si number density = 16.570093 Si / 1000 Ang^3
#
#
#
# Elastic Constant Matrix: (Units=GPa)
#
#
# Indices 1 2 3 4 5 6 
#
# 1 73.9588 7.1173 5.5362 0.0000 0.0000 0.0000
# 2 7.1173 83.2896 3.1918 0.0000 0.0000 0.0000
# 3 5.5362 3.1918 31.3030 0.0000 0.0000 0.0000
# 4 0.0000 0.0000 0.0000 3.8284 0.0000 0.0000
# 5 0.0000 0.0000 0.0000 0.0000 5.9909 0.0000
# 6 0.0000 0.0000 0.0000 0.0000 0.0000 35.0423
#
#
#
# Elastic Compliance Matrix: (Units=1/GPa)
#
#
# Indices 1 2 3 4 5 6 
#
# 1 0.013800 -0.001090 -0.002330 0.000000 0.000000 0.000000
# 2 -0.001090 0.012139 -0.001045 0.000000 0.000000 0.000000
# 3 -0.002330 -0.001045 0.032464 0.000000 0.000000 0.000000
# 4 0.000000 0.000000 0.000000 0.261208 0.000000 0.000000
# 5 0.000000 0.000000 0.000000 0.000000 0.166919 0.000000
# 6 0.000000 0.000000 0.000000 0.000000 0.000000 0.028537
#
#
# Mechanical properties :
#
#
# Convention : Reuss Voigt Hill
#
# Bulk Modulus (GPa) = 20.21221 24.47132 22.34177
# Shear Modulus (GPa) = 9.25088 20.48606 14.86847
#
# Velocity S-wave (km/s) = 2.36538 3.51996 2.99876
# Velocity P-wave (km/s) = 4.43672 5.59648 5.05000
#
# Compressibility (1/GPa) = 0.04947505
#
# Stress axis : x y z
#
# Youngs Moduli (GPa) = 72.46210 82.37576 30.80296
#
# Poissons Ratio (x) = 0.08979 0.07176
# Poissons Ratio (y) = 0.07898 0.03219
# Poissons Ratio (z) = 0.16881 0.08608
#
# Static dielectric constant tensor:
#      x y z
#    x 3.379650 0.000000 0.000000 
#    y 0.000000 3.286870 0.000000 
#    z 0.000000 0.000000 2.558770 
# 
# 
# High freq. dielectric constant tensor:
#      x y z
#    x 1.649000 0.000000 0.000000 
#    y 0.000000 1.649320 0.000000 
#    z 0.000000 0.000000 1.565890 
# 
# From -- ./inp_files/48645.got.cif
#   From: 2010.03.12/outbox.cif.g09.slc.cpg/sg72_25_cif.got.tgz:48645.got - 2010.04.16 14:54:00.
