data_PCOD8292082
_publ_section_title
;
Structure prediction by ZEFSAII (Michael W. Deem and Ramdas Pophale) SiO2 
 PCOD8292082
Probable space group: I M M M
;
_chemical_formula_sum "Si O2"
_cell_formula_units_Z 72
_cell_length_a 30.549894
_cell_length_b 8.737806
_cell_length_c 14.359443
_cell_angle_alpha 90.000000
_cell_angle_beta 90.000000
_cell_angle_gamma 90.000000
_cell_volume 3833.096031
_symmetry_space_group_name_H-M "I M M M"
_symmetry_group_IT_number 71
_symmetry_cell_setting 'orthorhombic'
loop_
_space_group_symop_operation_xyz
x,y,z
-x,-y,z
x,-y,-z
-x,y,-z
-x,-y,-z
x,y,-z
-x,y,z
x,-y,z
1/2+x,1/2+y,1/2+z
1/2-x,1/2-y,1/2+z
1/2+x,1/2-y,1/2-z
1/2-x,1/2+y,1/2-z
1/2-x,1/2-y,1/2-z
1/2+x,1/2+y,1/2-z
1/2-x,1/2+y,1/2+z
1/2+x,1/2-y,1/2+z
loop_
_atom_site_type_symbol
_atom_site_label
_atom_site_fract_x
_atom_site_fract_y
_atom_site_fract_z
Si Si1 0.631609 0.680830 0.310711
Si Si2 0.336166 0.179485 0.500000
Si Si3 0.448348 0.333775 0.000000
Si Si4 0.791273 0.678128 0.300445
Si Si5 0.048668 0.817415 0.699636
Si Si6 0.743024 0.174225 0.000000
O O1 0.636024 0.500000 0.319913
O O2 0.640145 0.753904 0.410137
O O3 0.665400 0.737983 0.233376
O O4 0.583195 0.733109 0.278107
O O5 0.284880 0.216722 0.500000
O O6 0.342060 0.000000 0.500000
O O7 0.436459 0.248499 0.902202
O O8 0.425001 0.500000 0.000000
O O9 0.500000 0.357370 0.000000
O O10 0.793909 0.500000 0.274552
O O11 0.750000 0.750000 0.250000
O O12 0.787097 0.705756 0.410706
O O13 0.000000 0.758176 0.727789
O O14 0.047899 0.000000 0.689645
O O15 0.760737 0.000000 0.000000
#
# Coordination Sequence:
#
# PCOD8292082 Si02
#       6
#    16   8   8  16  16   8
#     4  11  22  36  57  84 115 146 184 236 288 340
#     4  12  24  38  58  78 104 147 194 234 279 345
#     4   7  10  21  44  74 108 141 173 213 263 317
#     4  11  22  37  57  82 112 147 186 230 277 330
#     4   8  15  29  51  80 113 149 186 226 274 329
#     4  10  22  39  59  80 111 148 187 232 279 328
#
# _framework density 18.783771000000002
#
# number of rings (size 3 to 8) (size 9 to 14) (size 15 to 20)
#    0.000    2.111    2.222    3.667    0.000    1.778 
#    0.000    1.667    0.000    6.000    0.000    0.000 
#    0.000   13.333    0.000    0.000    0.000    0.000 
#
# Total GULP energy -446204.230041 kJ/mol
# GULP energy per Si atom -12394.561946 kJ/mol
# Density = 1.874102 g / cm^3
# Si number density = 18.783771 Si / 1000 Ang^3
#
#
#
# Elastic Constant Matrix: (Units=GPa)
#
#
# Indices 1 2 3 4 5 6 
#
# 1 130.9197 44.2872 78.7763 0.0000 0.0000 0.0000
# 2 44.2872 85.6552 53.4283 0.0000 0.0000 0.0000
# 3 78.7763 53.4283 164.4345 0.0000 0.0000 0.0000
# 4 0.0000 0.0000 0.0000 18.8659 0.0000 0.0000
# 5 0.0000 0.0000 0.0000 0.0000 -11.2325 0.0000
# 6 0.0000 0.0000 0.0000 0.0000 0.0000 17.0394
#
#
#
# Elastic Compliance Matrix: (Units=1/GPa)
#
#
# Indices 1 2 3 4 5 6 
#
# 1 0.011355 -0.003108 -0.004430 0.000000 0.000000 0.000000
# 2 -0.003108 0.015493 -0.003545 0.000000 0.000000 0.000000
# 3 -0.004430 -0.003545 0.009356 0.000000 0.000000 0.000000
# 4 0.000000 0.000000 0.000000 0.053006 0.000000 0.000000
# 5 0.000000 0.000000 0.000000 0.000000 -0.089027 0.000000
# 6 0.000000 0.000000 0.000000 0.000000 0.000000 0.058688
#
#
# Mechanical properties :
#
#
# Convention : Reuss Voigt Hill
#
# Bulk Modulus (GPa) = 71.23687 81.55478 76.39582
# Shear Modulus (GPa) = 58.33247 18.56905 38.45076
#
# Velocity S-wave (km/s) = 5.57872 3.14756 4.52931
# Velocity P-wave (km/s) = 8.91646 7.53137 8.25302
#
# Compressibility (1/GPa) = 0.01403768
#
# Stress axis : x y z
#
# Youngs Moduli (GPa) = 88.06465 64.54592 106.88599
#
# Poissons Ratio (x) = 0.20059 0.47353
# Poissons Ratio (y) = 0.27368 0.37892
# Poissons Ratio (z) = 0.39015 0.22882
#
# Static dielectric constant tensor:
#      x y z
#    x 3.415070 0.000000 0.000000 
#    y 0.000000 3.274420 0.000000 
#    z 0.000000 0.000000 3.838810 
# 
# 
# High freq. dielectric constant tensor:
#      x y z
#    x 1.718370 0.000000 0.000000 
#    y 0.000000 1.703300 0.000000 
#    z 0.000000 0.000000 1.744800 
# 
# From -- ./inp_files/6216.got.cif
#   From: 2010.06.25/outbox.cif.g09.slc.cpg/sg71_4_cif.got.tgz:6216.got - 2010.06.28 04:59:45.
