data_PCOD8292346
_publ_section_title
;
Structure prediction by ZEFSAII (Michael W. Deem and Ramdas Pophale) SiO2 
 PCOD8292346
Probable space group: I M M M
;
_chemical_formula_sum "Si O2"
_cell_formula_units_Z 88
_cell_length_a 18.027158
_cell_length_b 8.798909
_cell_length_c 29.405297
_cell_angle_alpha 90.000000
_cell_angle_beta 90.000000
_cell_angle_gamma 90.000000
_cell_volume 4664.248296
_symmetry_space_group_name_H-M "I M M M"
_symmetry_group_IT_number 71
_symmetry_cell_setting 'orthorhombic'
loop_
_space_group_symop_operation_xyz
x,y,z
-x,-y,z
x,-y,-z
-x,y,-z
-x,-y,-z
x,y,-z
-x,y,z
x,-y,z
1/2+x,1/2+y,1/2+z
1/2-x,1/2-y,1/2+z
1/2+x,1/2-y,1/2-z
1/2-x,1/2+y,1/2-z
1/2-x,1/2-y,1/2-z
1/2+x,1/2+y,1/2-z
1/2-x,1/2+y,1/2+z
1/2+x,1/2-y,1/2+z
loop_
_atom_site_type_symbol
_atom_site_label
_atom_site_fract_x
_atom_site_fract_y
_atom_site_fract_z
Si Si1 0.211734 0.819126 0.051151
Si Si2 0.087681 0.165655 0.213594
Si Si3 0.914901 0.180944 0.311593
Si Si4 0.500000 0.327803 0.053743
Si Si5 0.416855 0.682176 0.384256
Si Si6 0.639554 0.180012 0.899897
O O1 0.139688 0.756061 0.077828
O O2 0.285071 0.761526 0.076760
O O3 0.210149 0.000000 0.049844
O O4 0.210424 0.752998 0.000000
O O5 0.109651 0.246506 0.261508
O O6 0.107881 0.248918 0.165757
O O7 0.000000 0.143476 0.214693
O O8 0.126023 0.000000 0.213278
O O9 0.861869 0.258084 0.348510
O O10 0.000000 0.225700 0.322885
O O11 0.905714 0.000000 0.312469
O O12 0.500000 0.500000 0.072712
O O13 0.427590 0.243344 0.070866
O O14 0.500000 0.324625 0.000000
O O15 0.500000 0.737301 0.397028
O O16 0.415229 0.500000 0.381339
O O17 0.634952 0.000000 0.899158
#
# Coordination Sequence:
#
# PCOD8292346 Si02
#       6
#    16  16  16   8  16  16
#     4   9  18  30  42  61  94 132 163 198 248 296
#     4   7  11  21  40  66  91 118 154 196 241 282
#     4   9  16  28  47  69  95 126 164 206 240 278
#     4  11  23  37  53  71  91 121 169 219 250 281
#     4   8  13  24  44  68  93 123 163 202 237 287
#     4  11  21  32  47  69 100 134 165 198 245 300
#
# _framework density 18.86692
#
# number of rings (size 3 to 8) (size 9 to 14) (size 15 to 20)
#    0.000    3.000    0.909    3.545    0.000    1.818 
#    0.000    2.727    0.000    0.000    0.000    1.273 
#    0.000    4.364    0.000    8.909    0.000    9.455 
#
# Total GULP energy -545109.907706 kJ/mol
# GULP energy per Si atom -12388.861539 kJ/mol
# Density = 1.882398 g / cm^3
# Si number density = 18.866920 Si / 1000 Ang^3
#
#
#
# Elastic Constant Matrix: (Units=GPa)
#
#
# Indices 1 2 3 4 5 6 
#
# 1 122.4747 19.6809 93.2356 0.0000 0.0000 0.0000
# 2 19.6809 27.0489 24.6273 0.0000 0.0000 0.0000
# 3 93.2356 24.6273 195.1099 0.0000 0.0000 0.0000
# 4 0.0000 0.0000 0.0000 14.7486 0.0000 0.0000
# 5 0.0000 0.0000 0.0000 0.0000 46.2262 0.0000
# 6 0.0000 0.0000 0.0000 0.0000 0.0000 4.4752
#
#
#
# Elastic Compliance Matrix: (Units=1/GPa)
#
#
# Indices 1 2 3 4 5 6 
#
# 1 0.013279 -0.004389 -0.005792 0.000000 0.000000 0.000000
# 2 -0.004389 0.043221 -0.003358 0.000000 0.000000 0.000000
# 3 -0.005792 -0.003358 0.008317 0.000000 0.000000 0.000000
# 4 0.000000 0.000000 0.000000 0.067803 0.000000 0.000000
# 5 0.000000 0.000000 0.000000 0.000000 0.021633 0.000000
# 6 0.000000 0.000000 0.000000 0.000000 0.000000 0.223454
#
#
# Mechanical properties :
#
#
# Convention : Reuss Voigt Hill
#
# Bulk Modulus (GPa) = 26.49738 68.85790 47.67764
# Shear Modulus (GPa) = 11.97993 26.89596 19.43795
#
# Velocity S-wave (km/s) = 2.52259 3.77976 3.21326
# Velocity P-wave (km/s) = 4.74968 7.45819 6.25236
#
# Compressibility (1/GPa) = 0.03773958
#
# Stress axis : x y z
#
# Youngs Moduli (GPa) = 75.30580 23.13689 120.23856
#
# Poissons Ratio (x) = 0.10155 0.69638
# Poissons Ratio (y) = 0.33051 0.40378
# Poissons Ratio (z) = 0.43614 0.07770
#
# Static dielectric constant tensor:
#      x y z
#    x 3.313040 0.000000 0.000000 
#    y 0.000000 2.896200 0.000000 
#    z 0.000000 0.000000 4.076840 
# 
# 
# High freq. dielectric constant tensor:
#      x y z
#    x 1.708540 0.000000 0.000000 
#    y 0.000000 1.669200 0.000000 
#    z 0.000000 0.000000 1.761630 
# 
# From -- ./inp_files/42462.got.cif
#   From: 2010.06.25/outbox.cif.g09.slc.cpg/sg71_22_cif.got.tgz:42462.got - 2010.06.28 04:59:45.
