data_PCOD8292401
_publ_section_title
;
Structure prediction by ZEFSAII (Michael W. Deem and Ramdas Pophale) SiO2 
 PCOD8292401
Probable space group: I M M M
;
_chemical_formula_sum "Si O2"
_cell_formula_units_Z 96
_cell_length_a 8.803841
_cell_length_b 25.003535
_cell_length_c 23.510371
_cell_angle_alpha 90.000000
_cell_angle_beta 90.000000
_cell_angle_gamma 90.000000
_cell_volume 5175.270883
_symmetry_space_group_name_H-M "I M M M"
_symmetry_group_IT_number 71
_symmetry_cell_setting 'orthorhombic'
loop_
_space_group_symop_operation_xyz
x,y,z
-x,-y,z
x,-y,-z
-x,y,-z
-x,-y,-z
x,y,-z
-x,y,z
x,-y,z
1/2+x,1/2+y,1/2+z
1/2-x,1/2-y,1/2+z
1/2+x,1/2-y,1/2-z
1/2-x,1/2+y,1/2-z
1/2-x,1/2-y,1/2-z
1/2+x,1/2+y,1/2-z
1/2-x,1/2+y,1/2+z
1/2+x,1/2-y,1/2+z
loop_
_atom_site_type_symbol
_atom_site_label
_atom_site_fract_x
_atom_site_fract_y
_atom_site_fract_z
Si Si1 0.321321 0.349416 0.615692
Si Si2 0.824609 0.561596 0.820199
Si Si3 0.324455 0.938097 0.189768
Si Si4 0.320881 0.698133 0.000000
Si Si5 0.819723 0.681003 0.500000
Si Si6 0.321077 0.751509 0.688575
Si Si7 0.678342 0.655138 0.880515
O O1 0.500000 0.346610 0.605672
O O2 0.281047 0.403373 0.648981
O O3 0.239091 0.350203 0.555109
O O4 0.261952 0.298522 0.651552
O O5 0.792263 0.500000 0.833721
O O6 0.781711 0.574656 0.755019
O O7 0.718665 0.594889 0.862842
O O8 0.000000 0.575681 0.831203
O O9 0.500000 0.924005 0.178662
O O10 0.292916 0.000000 0.176179
O O11 0.253586 0.758324 0.000000
O O12 0.265562 0.665597 0.944848
O O13 0.500000 0.703064 0.000000
O O14 0.000000 0.680418 0.500000
O O15 0.500000 0.749776 0.694898
O O16 0.250000 0.750000 0.750000
O O17 0.270967 0.806248 0.660209
O O18 0.500000 0.665820 0.873719
#
# Coordination Sequence:
#
# PCOD8292401 Si02
#       7
#    16  16  16   8   8  16  16
#     4  11  23  37  55  84 116 144 182 233 282 328
#     4   9  19  37  59  84 115 150 188 231 281 335
#     4   9  19  37  60  83 110 148 189 226 272 335
#     4   9  20  37  56  79 108 148 192 230 276 331
#     4  11  21  39  62  79 106 153 194 227 273 336
#     4  11  23  36  53  81 115 147 181 226 281 337
#     4  11  21  36  57  82 111 145 190 235 279 333
#
# _framework density 18.549752999999999
#
# number of rings (size 3 to 8) (size 9 to 14) (size 15 to 20)
#    0.000    1.833    1.667    3.750    0.000    6.000 
#    0.000    4.167    0.000    5.000    0.000    0.000 
#    0.000    0.000    0.000    0.000    0.000    0.000 
#
# Total GULP energy -595393.447183 kJ/mol
# GULP energy per Si atom -12404.030150 kJ/mol
# Density = 1.850753 g / cm^3
# Si number density = 18.549753 Si / 1000 Ang^3
#
#
#
# Elastic Constant Matrix: (Units=GPa)
#
#
# Indices 1 2 3 4 5 6 
#
# 1 53.3706 24.0262 34.6730 0.0000 0.0000 0.0000
# 2 24.0262 90.3158 49.4754 0.0000 0.0000 0.0000
# 3 34.6730 49.4754 128.5444 0.0000 0.0000 0.0000
# 4 0.0000 0.0000 0.0000 24.7315 0.0000 0.0000
# 5 0.0000 0.0000 0.0000 0.0000 31.0526 0.0000
# 6 0.0000 0.0000 0.0000 0.0000 0.0000 34.3157
#
#
#
# Elastic Compliance Matrix: (Units=1/GPa)
#
#
# Indices 1 2 3 4 5 6 
#
# 1 0.023575 -0.003533 -0.004999 0.000000 0.000000 0.000000
# 2 -0.003533 0.014560 -0.004651 0.000000 0.000000 0.000000
# 3 -0.004999 -0.004651 0.010918 0.000000 0.000000 0.000000
# 4 0.000000 0.000000 0.000000 0.040434 0.000000 0.000000
# 5 0.000000 0.000000 0.000000 0.000000 0.032203 0.000000
# 6 0.000000 0.000000 0.000000 0.000000 0.000000 0.029141
#
#
# Mechanical properties :
#
#
# Convention : Reuss Voigt Hill
#
# Bulk Modulus (GPa) = 44.07865 54.28665 49.18265
# Shear Modulus (GPa) = 27.06201 28.95703 28.00952
#
# Velocity S-wave (km/s) = 3.82368 3.95529 3.89005
# Velocity P-wave (km/s) = 6.58088 7.08436 6.83726
#
# Compressibility (1/GPa) = 0.02268672
#
# Stress axis : x y z
#
# Youngs Moduli (GPa) = 42.41742 68.68157 91.59167
#
# Poissons Ratio (x) = 0.24265 0.45789
# Poissons Ratio (y) = 0.14986 0.42599
# Poissons Ratio (z) = 0.21206 0.31944
#
# Static dielectric constant tensor:
#      x y z
#    x 3.300890 0.000000 0.000000 
#    y 0.000000 3.382460 0.000000 
#    z 0.000000 0.000000 3.451840 
# 
# 
# High freq. dielectric constant tensor:
#      x y z
#    x 1.716310 0.000000 0.000000 
#    y 0.000000 1.720210 0.000000 
#    z 0.000000 0.000000 1.723120 
# 
# From -- ./inp_files/57791.got.cif
#   From: 2010.06.25/outbox.cif.g09.slc.cpg/sg71_29_cif.got.tgz:57791.got - 2010.06.28 04:59:45.
