data_PCOD8292523
_publ_section_title
;
Structure prediction by ZEFSAII (Michael W. Deem and Ramdas Pophale) SiO2 
 PCOD8292523
Probable space group: I M M M
;
_chemical_formula_sum "Si O2"
_cell_formula_units_Z 80
_cell_length_a 23.848067
_cell_length_b 7.639170
_cell_length_c 24.418791
_cell_angle_alpha 90.000000
_cell_angle_beta 90.000000
_cell_angle_gamma 90.000000
_cell_volume 4448.601621
_symmetry_space_group_name_H-M "I M M M"
_symmetry_group_IT_number 71
_symmetry_cell_setting 'orthorhombic'
loop_
_space_group_symop_operation_xyz
x,y,z
-x,-y,z
x,-y,-z
-x,y,-z
-x,-y,-z
x,y,-z
-x,y,z
x,-y,z
1/2+x,1/2+y,1/2+z
1/2-x,1/2-y,1/2+z
1/2+x,1/2-y,1/2-z
1/2-x,1/2+y,1/2-z
1/2-x,1/2-y,1/2-z
1/2+x,1/2+y,1/2-z
1/2-x,1/2+y,1/2+z
1/2+x,1/2-y,1/2+z
loop_
_atom_site_type_symbol
_atom_site_label
_atom_site_fract_x
_atom_site_fract_y
_atom_site_fract_z
Si Si1 0.254294 0.000000 0.564546
Si Si2 0.434309 0.794705 0.872584
Si Si3 0.661861 0.296895 0.435929
Si Si4 0.561549 0.696815 0.636349
Si Si5 0.933823 0.307867 0.747458
Si Si6 0.871330 0.000000 0.564991
O O1 0.286124 0.177265 0.583280
O O2 0.191860 0.000000 0.589163
O O3 0.250041 0.000000 0.500000
O O4 0.500000 0.758945 0.880664
O O5 0.413515 0.734759 0.811503
O O6 0.401433 0.677063 0.915737
O O7 0.420843 0.000000 0.882148
O O8 0.649309 0.274855 0.500000
O O9 0.674820 0.500000 0.420986
O O10 0.607689 0.219681 0.403719
O O11 0.500000 0.791369 0.631713
O O12 0.553930 0.500000 0.616669
O O13 0.583310 0.694989 0.699521
O O14 0.908138 0.500000 0.757145
O O15 0.000000 0.320442 0.742254
O O16 0.872058 0.000000 0.500000
#
# Coordination Sequence:
#
# PCOD8292523 Si02
#       6
#     8  16  16  16  16   8
#     4   9  20  37  53  71  95 130 181 220 247 294
#     4   9  19  35  54  79 109 137 162 195 247 309
#     4   9  18  33  51  71  99 137 173 211 260 302
#     4   9  17  27  45  77 105 130 168 210 254 304
#     4   8  15  28  46  71 101 133 167 197 236 295
#     4  11  23  36  55  81 102 129 170 213 253 295
#
# _framework density 17.983179
#
# number of rings (size 3 to 8) (size 9 to 14) (size 15 to 20)
#    0.000    3.000    0.000    1.500    2.800    2.400 
#    0.000    5.000    0.000    3.000    0.000    0.000 
#    0.000    0.000    0.000    0.000    0.000    0.000 
#
# Total GULP energy -495543.794724 kJ/mol
# GULP energy per Si atom -12388.594868 kJ/mol
# Density = 1.794225 g / cm^3
# Si number density = 17.983179 Si / 1000 Ang^3
#
#
#
# Elastic Constant Matrix: (Units=GPa)
#
#
# Indices 1 2 3 4 5 6 
#
# 1 109.7296 54.3174 55.0207 0.0000 0.0000 0.0000
# 2 54.3174 82.4651 35.9150 0.0000 0.0000 0.0000
# 3 55.0207 35.9150 84.9597 0.0000 0.0000 0.0000
# 4 0.0000 0.0000 0.0000 24.3611 0.0000 0.0000
# 5 0.0000 0.0000 0.0000 0.0000 4.7465 0.0000
# 6 0.0000 0.0000 0.0000 0.0000 0.0000 19.9547
#
#
#
# Elastic Compliance Matrix: (Units=1/GPa)
#
#
# Indices 1 2 3 4 5 6 
#
# 1 0.016733 -0.007724 -0.007571 0.000000 0.000000 0.000000
# 2 -0.007724 0.018428 -0.002788 0.000000 0.000000 0.000000
# 3 -0.007571 -0.002788 0.017852 0.000000 0.000000 0.000000
# 4 0.000000 0.000000 0.000000 0.041049 0.000000 0.000000
# 5 0.000000 0.000000 0.000000 0.000000 0.210681 0.000000
# 6 0.000000 0.000000 0.000000 0.000000 0.000000 0.050113
#
#
# Mechanical properties :
#
#
# Convention : Reuss Voigt Hill
#
# Bulk Modulus (GPa) = 59.35901 63.07341 61.21621
# Shear Modulus (GPa) = 12.60588 18.60589 15.60589
#
# Velocity S-wave (km/s) = 2.65048 3.22005 2.94905
# Velocity P-wave (km/s) = 6.51509 6.99819 6.76096
#
# Compressibility (1/GPa) = 0.01684664
#
# Stress axis : x y z
#
# Youngs Moduli (GPa) = 59.76073 54.26442 56.01582
#
# Poissons Ratio (x) = 0.41916 0.42412
# Poissons Ratio (y) = 0.46161 0.15616
# Poissons Ratio (z) = 0.45247 0.15128
#
# Static dielectric constant tensor:
#      x y z
#    x 3.315950 0.000000 0.000000 
#    y 0.000000 3.309960 0.000000 
#    z 0.000000 0.000000 3.377650 
# 
# 
# High freq. dielectric constant tensor:
#      x y z
#    x 1.660010 0.000000 0.000000 
#    y 0.000000 1.697410 0.000000 
#    z 0.000000 0.000000 1.690490 
# 
# From -- ./inp_files/12403.got.cif
#   From: 2010.06.25/outbox.cif.g09.slc.cpg/sg71_7_cif.got.tgz:12403.got - 2010.06.28 04:59:45.
