data_PCOD8292511
_publ_section_title
;
Structure prediction by ZEFSAII (Michael W. Deem and Ramdas Pophale) SiO2 
 PCOD8292511
Probable space group: I M M M
;
_chemical_formula_sum "Si O2"
_cell_formula_units_Z 64
_cell_length_a 15.338198
_cell_length_b 7.918393
_cell_length_c 25.076880
_cell_angle_alpha 90.000000
_cell_angle_beta 90.000000
_cell_angle_gamma 90.000000
_cell_volume 3045.684366
_symmetry_space_group_name_H-M "I M M M"
_symmetry_group_IT_number 71
_symmetry_cell_setting 'orthorhombic'
loop_
_space_group_symop_operation_xyz
x,y,z
-x,-y,z
x,-y,-z
-x,y,-z
-x,-y,-z
x,y,-z
-x,y,z
x,-y,z
1/2+x,1/2+y,1/2+z
1/2-x,1/2-y,1/2+z
1/2+x,1/2-y,1/2-z
1/2-x,1/2+y,1/2-z
1/2-x,1/2-y,1/2-z
1/2+x,1/2+y,1/2-z
1/2-x,1/2+y,1/2+z
1/2+x,1/2-y,1/2+z
loop_
_atom_site_type_symbol
_atom_site_label
_atom_site_fract_x
_atom_site_fract_y
_atom_site_fract_z
Si Si1 0.151437 0.811374 0.625949
Si Si2 0.000000 0.699289 0.823688
Si Si3 0.403506 0.000000 0.062339
Si Si4 0.098443 0.200933 0.000000
Si Si5 0.832827 0.195600 0.113183
Si Si6 0.000000 0.698778 0.700814
O O1 0.141770 0.673407 0.579458
O O2 0.253790 0.799114 0.641072
O O3 0.088283 0.773079 0.675387
O O4 0.130188 0.000000 0.604970
O O5 0.916336 0.781842 0.850227
O O6 0.000000 0.751545 0.762091
O O7 0.000000 0.500000 0.832279
O O8 0.500000 0.000000 0.087652
O O9 0.405509 0.000000 0.000000
O O10 0.148109 0.264556 0.946811
O O11 0.000000 0.274449 0.000000
O O12 0.093722 0.000000 0.000000
O O13 0.806555 0.000000 0.110826
O O14 0.000000 0.500000 0.693063
#
# Coordination Sequence:
#
# PCOD8292511 Si02
#       6
#    16   8   8   8  16   8
#     4  12  24  42  69  98 133 173 225 271 326 394
#     4  11  25  42  64  95 130 170 225 278 331 395
#     4  11  24  44  68  97 137 177 219 270 332 392
#     4   9  18  36  64  91 124 174 213 253 323 389
#     4  11  22  40  65  95 134 174 218 271 329 397
#     4  11  23  47  70  88 128 176 216 280 342 387
#
# _framework density 21.013338999999998
#
# number of rings (size 3 to 8) (size 9 to 14) (size 15 to 20)
#    0.000    1.000    5.000    1.500    1.750    3.500 
#    0.000    3.750    0.000    0.000    0.000    0.000 
#    0.000    0.000    0.000    0.000    0.000    0.000 
#
# Total GULP energy -396800.382404 kJ/mol
# GULP energy per Si atom -12400.011950 kJ/mol
# Density = 2.096551 g / cm^3
# Si number density = 21.013339 Si / 1000 Ang^3
#
#
#
# Elastic Constant Matrix: (Units=GPa)
#
#
# Indices 1 2 3 4 5 6 
#
# 1 166.6026 35.5369 68.7616 0.0000 0.0000 0.0000
# 2 35.5369 129.1580 38.9008 0.0000 0.0000 0.0000
# 3 68.7616 38.9008 134.8113 0.0000 0.0000 0.0000
# 4 0.0000 0.0000 0.0000 18.9363 0.0000 0.0000
# 5 0.0000 0.0000 0.0000 0.0000 -55.0751 0.0000
# 6 0.0000 0.0000 0.0000 0.0000 0.0000 18.7017
#
#
#
# Elastic Compliance Matrix: (Units=1/GPa)
#
#
# Indices 1 2 3 4 5 6 
#
# 1 0.007726 -0.001028 -0.003644 0.000000 0.000000 0.000000
# 2 -0.001028 0.008616 -0.001962 0.000000 0.000000 0.000000
# 3 -0.003644 -0.001962 0.009842 0.000000 0.000000 0.000000
# 4 0.000000 0.000000 0.000000 0.052809 0.000000 0.000000
# 5 0.000000 0.000000 0.000000 0.000000 -0.018157 0.000000
# 6 0.000000 0.000000 0.000000 0.000000 0.000000 0.053471
#
#
# Mechanical properties :
#
#
# Convention : Reuss Voigt Hill
#
# Bulk Modulus (GPa) = 77.41989 79.66340 78.54165
# Shear Modulus (GPa) = 37.91328 15.67075 26.79201
#
# Velocity S-wave (km/s) = 4.25225 2.73381 3.57459
# Velocity P-wave (km/s) = 7.81230 6.92518 7.38208
#
# Compressibility (1/GPa) = 0.01291658
#
# Stress axis : x y z
#
# Youngs Moduli (GPa) = 129.44130 116.06002 101.60099
#
# Poissons Ratio (x) = 0.11933 0.37021
# Poissons Ratio (y) = 0.13309 0.19933
# Poissons Ratio (z) = 0.47166 0.22769
#
# Static dielectric constant tensor:
#      x y z
#    x 4.267390 0.000000 0.000000 
#    y 0.000000 3.848810 0.000000 
#    z 0.000000 0.000000 3.737490 
# 
# 
# High freq. dielectric constant tensor:
#      x y z
#    x 1.843920 0.000000 0.000000 
#    y 0.000000 1.823150 0.000000 
#    z 0.000000 0.000000 1.809330 
# 
# From -- ./inp_files/59510.got.cif
#   From: 2010.06.25/outbox.cif.g09.slc.cpg/sg71_30_cif.got.tgz:59510.got - 2010.06.28 04:59:45.
