data_PCOD8292883
_publ_section_title
;
Structure prediction by ZEFSAII (Michael W. Deem and Ramdas Pophale) SiO2 
 PCOD8292883
Probable space group: I B A M
;
_chemical_formula_sum "Si O2"
_cell_formula_units_Z 84
_cell_length_a 12.212584
_cell_length_b 23.671699
_cell_length_c 18.468298
_cell_angle_alpha 90.000000
_cell_angle_beta 90.000000
_cell_angle_gamma 90.000000
_cell_volume 5339.048517
_symmetry_space_group_name_H-M "I B A M"
_symmetry_group_IT_number 72
_symmetry_cell_setting 'orthorhombic'
loop_
_space_group_symop_operation_xyz
x,y,z
-x,-y,z
x,-y,1/2-z
-x,y,1/2-z
-x,-y,-z
x,y,-z
-x,y,1/2+z
x,-y,1/2+z
1/2+x,1/2+y,1/2+z
1/2-x,1/2-y,1/2+z
1/2+x,1/2-y,-z
1/2-x,1/2+y,-z
1/2-x,1/2-y,1/2-z
1/2+x,1/2+y,1/2-z
1/2-x,1/2+y,z
1/2+x,1/2-y,z
loop_
_atom_site_type_symbol
_atom_site_label
_atom_site_fract_x
_atom_site_fract_y
_atom_site_fract_z
Si Si1 0.500000 0.500000 0.750000
Si Si2 0.528028 0.798923 0.584116
Si Si3 0.409207 0.670710 0.084044
Si Si4 0.805885 0.698438 0.659676
Si Si5 0.725789 0.821098 0.323609
Si Si6 0.564573 0.391924 0.682031
O O1 0.571552 0.459517 0.697020
O O2 0.532146 0.813561 0.500000
O O3 0.540813 0.732359 0.599253
O O4 0.413443 0.819932 0.616328
O O5 0.625330 0.833733 0.622619
O O6 0.295925 0.663425 0.127513
O O7 0.495251 0.623424 0.110493
O O8 0.385536 0.660897 0.000000
O O9 0.787551 0.765078 0.649461
O O10 0.823224 0.684845 0.743607
O O11 0.811335 0.872050 0.326533
O O12 0.500000 0.362248 0.750000
#
# Coordination Sequence:
#
# PCOD8292883 Si02
#       6
#     4  16  16  16  16  16
#     4   8  20  32  58  68  90 120 166 216 264 288
#     4  10  20  29  41  70 105 137 163 188 229 290
#     4  10  19  29  46  69  99 134 161 191 240 290
#     4  10  17  29  44  68  98 135 164 194 219 293
#     4  10  19  27  49  66  96 129 169 195 238 287
#     4  10  18  35  50  71  93 124 159 211 251 287
#
# _framework density 15.733141
#
# number of rings (size 3 to 8) (size 9 to 14) (size 15 to 20)
#    0.571    1.524    3.810    1.143    0.000    1.524 
#    0.000    0.476    0.000    0.000    0.000   10.667 
#    0.000    7.619    0.000    0.000    0.000    0.000 
#
# Total GULP energy -520733.896942 kJ/mol
# GULP energy per Si atom -12398.426118 kJ/mol
# Density = 1.569733 g / cm^3
# Si number density = 15.733141 Si / 1000 Ang^3
#
#
#
# Elastic Constant Matrix: (Units=GPa)
#
#
# Indices 1 2 3 4 5 6 
#
# 1 119.0022 30.6841 47.5020 0.0000 0.0000 0.0000
# 2 30.6841 60.3151 12.9523 0.0000 0.0000 0.0000
# 3 47.5020 12.9523 79.2368 0.0001 0.0000 0.0000
# 4 0.0000 0.0000 0.0001 17.8960 0.0000 0.0000
# 5 0.0000 0.0000 0.0000 0.0000 29.7326 0.0000
# 6 0.0000 0.0000 0.0000 0.0000 0.0000 15.0067
#
#
#
# Elastic Compliance Matrix: (Units=1/GPa)
#
#
# Indices 1 2 3 4 5 6 
#
# 1 0.012270 -0.004832 -0.006566 0.000000 0.000000 0.000000
# 2 -0.004832 0.019086 -0.000223 0.000000 0.000000 0.000000
# 3 -0.006566 -0.000223 0.016593 0.000000 0.000000 0.000000
# 4 0.000000 0.000000 0.000000 0.055878 0.000000 0.000000
# 5 0.000000 0.000000 0.000000 0.000000 0.033633 0.000000
# 6 0.000000 0.000000 0.000000 0.000000 0.000000 0.066637
#
#
# Mechanical properties :
#
#
# Convention : Reuss Voigt Hill
#
# Bulk Modulus (GPa) = 40.47478 48.98121 44.72800
# Shear Modulus (GPa) = 21.22466 23.68811 22.45639
#
# Velocity S-wave (km/s) = 3.67691 3.88444 3.78210
# Velocity P-wave (km/s) = 6.61876 7.16370 6.89661
#
# Compressibility (1/GPa) = 0.02470674
#
# Stress axis : x y z
#
# Youngs Moduli (GPa) = 81.49906 52.39517 60.26605
#
# Poissons Ratio (x) = 0.25318 0.39570
# Poissons Ratio (y) = 0.39382 0.01344
# Poissons Ratio (z) = 0.53512 0.01168
#
# Static dielectric constant tensor:
#      x y z
#    x 2.966210 0.000000 0.000000 
#    y 0.000000 2.504970 0.000000 
#    z 0.000000 0.000000 3.039140 
# 
# 
# High freq. dielectric constant tensor:
#      x y z
#    x 1.609900 0.000000 0.000000 
#    y 0.000000 1.539830 0.000000 
#    z 0.000000 0.000000 1.614550 
# 
# From -- ./inp_files/37207.got.cif
#   From: 2010.03.12/outbox.cif.g09.slc.cpg/sg72_19_cif.got.tgz:37207.got - 2010.04.16 14:54:00.
