data_PCOD8292291
_publ_section_title
;
Structure prediction by ZEFSAII (Michael W. Deem and Ramdas Pophale) SiO2 
 PCOD8292291
Probable space group: I M M M
;
_chemical_formula_sum "Si O2"
_cell_formula_units_Z 88
_cell_length_a 22.514023
_cell_length_b 9.312744
_cell_length_c 24.156818
_cell_angle_alpha 90.000000
_cell_angle_beta 90.000000
_cell_angle_gamma 90.000000
_cell_volume 5064.895594
_symmetry_space_group_name_H-M "I M M M"
_symmetry_group_IT_number 71
_symmetry_cell_setting 'orthorhombic'
loop_
_space_group_symop_operation_xyz
x,y,z
-x,-y,z
x,-y,-z
-x,y,-z
-x,-y,-z
x,y,-z
-x,y,z
x,-y,z
1/2+x,1/2+y,1/2+z
1/2-x,1/2-y,1/2+z
1/2+x,1/2-y,1/2-z
1/2-x,1/2+y,1/2-z
1/2-x,1/2-y,1/2-z
1/2+x,1/2+y,1/2-z
1/2-x,1/2+y,1/2+z
1/2+x,1/2-y,1/2+z
loop_
_atom_site_type_symbol
_atom_site_label
_atom_site_fract_x
_atom_site_fract_y
_atom_site_fract_z
Si Si1 0.114352 0.829398 0.629398
Si Si2 0.568928 0.165722 0.229625
Si Si3 0.151849 0.833927 0.937269
Si Si4 0.932963 0.331931 0.144388
Si Si5 0.000000 0.170446 0.562036
Si Si6 0.788852 0.335338 0.563963
O O1 0.108994 0.766248 0.690990
O O2 0.058448 0.774100 0.593447
O O3 0.174060 0.771988 0.601792
O O4 0.117302 0.000000 0.632923
O O5 0.500000 0.199903 0.219058
O O6 0.585827 0.202558 0.292695
O O7 0.582604 0.000000 0.216292
O O8 0.111439 0.744971 0.896446
O O9 0.220272 0.806154 0.922374
O O10 0.136010 0.000000 0.930341
O O11 0.139031 0.784144 0.000000
O O12 0.929354 0.500000 0.133208
O O13 0.000000 0.277272 0.133557
O O14 0.000000 0.234582 0.500000
O O15 0.000000 0.000000 0.560054
O O16 0.802292 0.301316 0.500000
O O17 0.805521 0.500000 0.577369
#
# Coordination Sequence:
#
# PCOD8292291 Si02
#       6
#    16  16  16  16   8  16
#     4  11  20  31  50  76 104 135 173 215 261 306
#     4   9  18  34  53  72 101 139 174 210 255 305
#     4   9  19  36  56  78 105 136 169 209 256 305
#     4   9  19  35  55  80 107 135 168 209 256 305
#     4   9  18  30  43  67 105 135 158 205 262 301
#     4   9  19  36  54  72 100 138 176 212 254 306
#
# _framework density 17.374493999999999
#
# number of rings (size 3 to 8) (size 9 to 14) (size 15 to 20)
#    0.000    2.636    0.909    3.273    0.000    3.636 
#    0.000    6.364    0.000    2.182    0.000    0.000 
#    0.000    0.000    0.000    0.000    0.000    0.000 
#
# Total GULP energy -545628.149313 kJ/mol
# GULP energy per Si atom -12400.639757 kJ/mol
# Density = 1.733495 g / cm^3
# Si number density = 17.374494 Si / 1000 Ang^3
#
#
#
# Elastic Constant Matrix: (Units=GPa)
#
#
# Indices 1 2 3 4 5 6 
#
# 1 89.8736 53.1922 72.5345 0.0000 0.0000 0.0000
# 2 53.1922 74.0967 64.6121 0.0000 0.0000 0.0000
# 3 72.5345 64.6121 123.4461 0.0000 0.0000 0.0000
# 4 0.0000 0.0000 0.0000 34.9088 0.0000 0.0000
# 5 0.0000 0.0000 0.0000 0.0000 29.5008 0.0000
# 6 0.0000 0.0000 0.0000 0.0000 0.0000 33.4757
#
#
#
# Elastic Compliance Matrix: (Units=1/GPa)
#
#
# Indices 1 2 3 4 5 6 
#
# 1 0.024098 -0.009110 -0.009391 0.000000 0.000000 0.000000
# 2 -0.009110 0.028271 -0.009444 0.000000 0.000000 0.000000
# 3 -0.009391 -0.009444 0.018562 0.000000 0.000000 0.000000
# 4 0.000000 0.000000 0.000000 0.028646 0.000000 0.000000
# 5 0.000000 0.000000 0.000000 0.000000 0.033897 0.000000
# 6 0.000000 0.000000 0.000000 0.000000 0.000000 0.029872
#
#
# Mechanical properties :
#
#
# Convention : Reuss Voigt Hill
#
# Bulk Modulus (GPa) = 66.49025 74.23268 70.36146
# Shear Modulus (GPa) = 22.29631 26.04889 24.17260
#
# Velocity S-wave (km/s) = 3.58617 3.87623 3.73402
# Velocity P-wave (km/s) = 7.44980 7.92789 7.69256
#
# Compressibility (1/GPa) = 0.01503980
#
# Stress axis : x y z
#
# Youngs Moduli (GPa) = 41.49691 35.37146 53.87360
#
# Poissons Ratio (x) = 0.32225 0.50594
# Poissons Ratio (y) = 0.37805 0.50880
# Poissons Ratio (z) = 0.38971 0.33406
#
# Static dielectric constant tensor:
#      x y z
#    x 3.146260 0.000000 0.000000 
#    y 0.000000 3.051920 0.000000 
#    z 0.000000 0.000000 3.262000 
# 
# 
# High freq. dielectric constant tensor:
#      x y z
#    x 1.663490 0.000000 0.000000 
#    y 0.000000 1.662930 0.000000 
#    z 0.000000 0.000000 1.675510 
# 
# From -- ./inp_files/10485.got.cif
#   From: 2010.06.25/outbox.cif.g09.slc.cpg/sg71_6_cif.got.tgz:10485.got - 2010.06.28 04:59:45.
