data_PCOD8292282
_publ_section_title
;
Structure prediction by ZEFSAII (Michael W. Deem and Ramdas Pophale) SiO2 
 PCOD8292282
Probable space group: I M M M
;
_chemical_formula_sum "Si O2"
_cell_formula_units_Z 104
_cell_length_a 29.792840
_cell_length_b 9.260479
_cell_length_c 22.522517
_cell_angle_alpha 90.000000
_cell_angle_beta 90.000000
_cell_angle_gamma 90.000000
_cell_volume 6213.871656
_symmetry_space_group_name_H-M "I M M M"
_symmetry_group_IT_number 71
_symmetry_cell_setting 'orthorhombic'
loop_
_space_group_symop_operation_xyz
x,y,z
-x,-y,z
x,-y,-z
-x,y,-z
-x,-y,-z
x,y,-z
-x,y,z
x,-y,z
1/2+x,1/2+y,1/2+z
1/2-x,1/2-y,1/2+z
1/2+x,1/2-y,1/2-z
1/2-x,1/2+y,1/2-z
1/2-x,1/2-y,1/2-z
1/2+x,1/2+y,1/2-z
1/2-x,1/2+y,1/2+z
1/2+x,1/2-y,1/2+z
loop_
_atom_site_type_symbol
_atom_site_label
_atom_site_fract_x
_atom_site_fract_y
_atom_site_fract_z
Si Si1 0.372799 0.829787 0.431909
Si Si2 0.812246 0.330081 0.431511
Si Si3 0.447791 0.833739 0.212986
Si Si4 0.787379 0.159524 0.070508
Si Si5 0.449794 0.328655 0.000000
Si Si6 0.549412 0.170881 0.652047
Si Si7 0.604861 0.671732 0.885843
O O1 0.381102 0.783622 0.500000
O O2 0.326102 0.766486 0.406712
O O3 0.413756 0.765167 0.393227
O O4 0.369357 0.000000 0.425098
O O5 0.818834 0.284160 0.500000
O O6 0.821153 0.500000 0.423796
O O7 0.762096 0.289669 0.408792
O O8 0.845707 0.238907 0.390632
O O9 0.500000 0.809971 0.198325
O O10 0.437510 0.789267 0.280751
O O11 0.418261 0.727732 0.173573
O O12 0.434360 0.000000 0.201193
O O13 0.797764 0.000000 0.095735
O O14 0.786545 0.154273 0.000000
O O15 0.424247 0.272807 0.058277
O O16 0.451724 0.500000 0.000000
O O17 0.500000 0.263452 0.000000
O O18 0.500000 0.234454 0.636366
O O19 0.547298 0.000000 0.645353
O O20 0.608473 0.500000 0.883629
#
# Coordination Sequence:
#
# PCOD8292282 Si02
#       7
#    16  16  16  16   8  16  16
#     4   9  16  26  45  75 102 122 149 187 229 272
#     4   9  17  30  47  66  91 122 157 192 227 276
#     4   9  18  33  50  65  85 121 165 197 223 266
#     4   8  15  28  45  65  92 127 156 182 224 275
#     4   9  18  30  41  59  91 123 143 171 230 291
#     4   8  15  29  48  69  95 126 157 189 226 269
#     4  11  20  30  46  68  94 121 150 192 242 283
#
# _framework density 16.736747000000001
#
# number of rings (size 3 to 8) (size 9 to 14) (size 15 to 20)
#    0.000    3.000    0.769    2.769    0.000    1.846 
#    0.000    3.846    0.000    4.154    0.000    2.154 
#    0.000    0.000    0.000    0.000    0.000    0.000 
#
# Total GULP energy -644611.819202 kJ/mol
# GULP energy per Si atom -12396.381138 kJ/mol
# Density = 1.669865 g / cm^3
# Si number density = 16.736747 Si / 1000 Ang^3
#
#
#
# Elastic Constant Matrix: (Units=GPa)
#
#
# Indices 1 2 3 4 5 6 
#
# 1 150.1360 50.2544 68.9852 0.0000 0.0000 0.0000
# 2 50.2544 46.4349 33.3199 0.0000 0.0000 0.0000
# 3 68.9852 33.3199 74.5247 0.0000 0.0000 0.0000
# 4 0.0000 0.0000 0.0000 15.5601 0.0000 0.0000
# 5 0.0000 0.0000 0.0000 0.0000 18.0376 0.0000
# 6 0.0000 0.0000 0.0000 0.0000 0.0000 24.3603
#
#
#
# Elastic Compliance Matrix: (Units=1/GPa)
#
#
# Indices 1 2 3 4 5 6 
#
# 1 0.013453 -0.008280 -0.008751 0.000000 0.000000 0.000000
# 2 -0.008280 0.036805 -0.008790 0.000000 0.000000 0.000000
# 3 -0.008751 -0.008790 0.025449 0.000000 0.000000 0.000000
# 4 0.000000 0.000000 0.000000 0.064267 0.000000 0.000000
# 5 0.000000 0.000000 0.000000 0.000000 0.055440 0.000000
# 6 0.000000 0.000000 0.000000 0.000000 0.000000 0.041050
#
#
# Mechanical properties :
#
#
# Convention : Reuss Voigt Hill
#
# Bulk Modulus (GPa) = 41.55707 64.02384 52.79046
# Shear Modulus (GPa) = 16.88453 19.49403 18.18928
#
# Velocity S-wave (km/s) = 3.17965 3.41654 3.30022
# Velocity P-wave (km/s) = 6.19387 7.34167 6.79206
#
# Compressibility (1/GPa) = 0.02406329
#
# Stress axis : x y z
#
# Youngs Moduli (GPa) = 74.33107 27.17045 39.29401
#
# Poissons Ratio (x) = 0.22498 0.34387
# Poissons Ratio (y) = 0.61549 0.34541
# Poissons Ratio (z) = 0.65048 0.23884
#
# Static dielectric constant tensor:
#      x y z
#    x 3.475300 0.000000 0.000000 
#    y 0.000000 2.918220 0.000000 
#    z 0.000000 0.000000 2.970420 
# 
# 
# High freq. dielectric constant tensor:
#      x y z
#    x 1.655300 0.000000 0.000000 
#    y 0.000000 1.621860 0.000000 
#    z 0.000000 0.000000 1.615900 
# 
# From -- ./inp_files/56684.got.cif
#   From: 2010.06.25/outbox.cif.g09.slc.cpg/sg71_29_cif.got.tgz:56684.got - 2010.06.28 04:59:45.
