data_PCOD8292895
_publ_section_title
;
Structure prediction by ZEFSAII (Michael W. Deem and Ramdas Pophale) SiO2 
 PCOD8292895
Probable space group: I B A M
;
_chemical_formula_sum "Si O2"
_cell_formula_units_Z 84
_cell_length_a 16.036999
_cell_length_b 23.629280
_cell_length_c 13.980942
_cell_angle_alpha 90.000000
_cell_angle_beta 90.000000
_cell_angle_gamma 90.000000
_cell_volume 5297.976465
_symmetry_space_group_name_H-M "I B A M"
_symmetry_group_IT_number 72
_symmetry_cell_setting 'orthorhombic'
loop_
_space_group_symop_operation_xyz
x,y,z
-x,-y,z
x,-y,1/2-z
-x,y,1/2-z
-x,-y,-z
x,y,-z
-x,y,1/2+z
x,-y,1/2+z
1/2+x,1/2+y,1/2+z
1/2-x,1/2-y,1/2+z
1/2+x,1/2-y,-z
1/2-x,1/2+y,-z
1/2-x,1/2-y,1/2-z
1/2+x,1/2+y,1/2-z
1/2-x,1/2+y,z
1/2+x,1/2-y,z
loop_
_atom_site_type_symbol
_atom_site_label
_atom_site_fract_x
_atom_site_fract_y
_atom_site_fract_z
Si Si1 0.639435 0.202373 0.733067
Si Si2 0.559528 0.333366 0.103162
Si Si3 0.000000 0.000000 0.250000
Si Si4 0.412390 0.417288 0.108119
Si Si5 0.816301 0.168819 0.230774
Si Si6 0.989087 0.288860 0.390556
O O1 0.719538 0.161602 0.738480
O O2 0.667448 0.265829 0.703793
O O3 0.596164 0.195131 0.836595
O O4 0.572059 0.182324 0.653595
O O5 0.499134 0.385588 0.100774
O O6 0.629933 0.348027 0.178077
O O7 0.502836 0.278638 0.126833
O O8 0.603183 0.324046 0.000000
O O9 0.066324 0.033010 0.317475
O O10 0.339480 0.374995 0.146068
O O11 0.387501 0.438305 0.000000
O O12 0.981009 0.307637 0.500000
#
# Coordination Sequence:
#
# PCOD8292895 Si02
#       6
#    16  16   4  16  16  16
#     4   9  18  26  44  66  89 126 161 193 237 287
#     4   9  16  28  45  61  86 126 159 190 237 280
#     4  12  22  36  52  70  92 126 178 212 240 284
#     4  11  21  33  50  68  91 127 164 201 243 284
#     4  10  17  30  43  65  94 119 161 205 236 279
#     4   9  16  28  42  61  91 123 158 190 227 285
#
# _framework density 15.85511
#
# number of rings (size 3 to 8) (size 9 to 14) (size 15 to 20)
#    0.000    2.286    3.810    0.286    0.000    1.524 
#    0.000    3.810    0.000    0.000    0.000    0.000 
#    0.000    3.048    0.000    8.571    0.000    0.000 
#
# Total GULP energy -520355.689675 kJ/mol
# GULP energy per Si atom -12389.421183 kJ/mol
# Density = 1.581902 g / cm^3
# Si number density = 15.855110 Si / 1000 Ang^3
#
#
#
# Elastic Constant Matrix: (Units=GPa)
#
#
# Indices 1 2 3 4 5 6 
#
# 1 87.0024 21.3768 40.0684 0.0000 0.0000 0.0000
# 2 21.3768 36.0042 26.9596 0.0000 0.0000 0.0000
# 3 40.0684 26.9596 120.6047 0.0000 0.0000 0.0000
# 4 0.0000 0.0000 0.0000 16.2649 0.0000 0.0000
# 5 0.0000 0.0000 0.0000 0.0000 11.9020 0.0000
# 6 0.0000 0.0000 0.0000 0.0000 0.0000 14.8950
#
#
#
# Elastic Compliance Matrix: (Units=1/GPa)
#
#
# Indices 1 2 3 4 5 6 
#
# 1 0.014589 -0.006044 -0.003496 0.000000 0.000000 0.000000
# 2 -0.006044 0.035862 -0.006008 0.000000 0.000000 0.000000
# 3 -0.003496 -0.006008 0.010796 0.000000 0.000000 0.000000
# 4 0.000000 0.000000 0.000000 0.061482 0.000000 0.000000
# 5 0.000000 0.000000 0.000000 0.000000 0.084020 0.000000
# 6 0.000000 0.000000 0.000000 0.000000 0.000000 0.067137
#
#
# Mechanical properties :
#
#
# Convention : Reuss Voigt Hill
#
# Bulk Modulus (GPa) = 33.16719 46.71343 39.94031
# Shear Modulus (GPa) = 15.87134 18.95946 17.41540
#
# Velocity S-wave (km/s) = 3.16733 3.46178 3.31782
# Velocity P-wave (km/s) = 5.86006 6.74575 6.31845
#
# Compressibility (1/GPa) = 0.03015028
#
# Stress axis : x y z
#
# Youngs Moduli (GPa) = 68.54474 27.88442 92.62646
#
# Poissons Ratio (x) = 0.16854 0.32380
# Poissons Ratio (y) = 0.41431 0.55654
# Poissons Ratio (z) = 0.23962 0.16754
#
# Static dielectric constant tensor:
#      x y z
#    x 2.950550 0.000000 0.000000 
#    y 0.000000 2.631740 0.000000 
#    z 0.000000 0.000000 3.454940 
# 
# 
# High freq. dielectric constant tensor:
#      x y z
#    x 1.596560 0.000000 0.000000 
#    y 0.000000 1.549770 0.000000 
#    z 0.000000 0.000000 1.626140 
# 
# From -- ./inp_files/22002.got.cif
#   From: 2010.03.12/outbox.cif.g09.slc.cpg/sg72_12_cif.got.tgz:22002.got - 2010.04.16 14:54:00.
