data_PCOD8292330
_publ_section_title
;
Structure prediction by ZEFSAII (Michael W. Deem and Ramdas Pophale) SiO2 
 PCOD8292330
Probable space group: I M M M
;
_chemical_formula_sum "Si O2"
_cell_formula_units_Z 88
_cell_length_a 8.854373
_cell_length_b 19.680442
_cell_length_c 30.463914
_cell_angle_alpha 90.000000
_cell_angle_beta 90.000000
_cell_angle_gamma 90.000000
_cell_volume 5308.579942
_symmetry_space_group_name_H-M "I M M M"
_symmetry_group_IT_number 71
_symmetry_cell_setting 'orthorhombic'
loop_
_space_group_symop_operation_xyz
x,y,z
-x,-y,z
x,-y,-z
-x,y,-z
-x,-y,-z
x,y,-z
-x,y,z
x,-y,z
1/2+x,1/2+y,1/2+z
1/2-x,1/2-y,1/2+z
1/2+x,1/2-y,1/2-z
1/2-x,1/2+y,1/2-z
1/2-x,1/2-y,1/2-z
1/2+x,1/2+y,1/2-z
1/2-x,1/2+y,1/2+z
1/2+x,1/2-y,1/2+z
loop_
_atom_site_type_symbol
_atom_site_label
_atom_site_fract_x
_atom_site_fract_y
_atom_site_fract_z
Si Si1 0.170418 0.924908 0.726627
Si Si2 0.325311 0.796518 0.136427
Si Si3 0.835393 0.500000 0.551960
Si Si4 0.330265 0.575636 0.330641
Si Si5 0.320309 0.854051 0.048399
Si Si6 0.676506 0.211056 0.290877
O O1 0.177735 0.923762 0.778574
O O2 0.280528 0.868040 0.707012
O O3 0.000000 0.909227 0.710850
O O4 0.220333 0.000000 0.709766
O O5 0.500000 0.778476 0.143941
O O6 0.295650 0.872954 0.152545
O O7 0.280097 0.796277 0.084493
O O8 0.224707 0.743243 0.162801
O O9 0.856114 0.500000 0.500000
O O10 0.750705 0.428182 0.563504
O O11 0.000000 0.500000 0.574901
O O12 0.500000 0.597035 0.345244
O O13 0.291912 0.500000 0.348591
O O14 0.500000 0.863699 0.046398
O O15 0.259513 0.832119 0.000000
O O16 0.500000 0.219417 0.284961
O O17 0.750000 0.250000 0.250000
#
# Coordination Sequence:
#
# PCOD8292330 Si02
#       6
#    16  16   8  16  16  16
#     4   9  18  34  54  72  94 125 158 196 241 283
#     4  11  21  30  47  72  94 123 163 204 245 285
#     4   7  10  20  38  58  85 119 151 193 245 279
#     4   9  18  31  45  63  92 128 161 198 243 285
#     4   8  15  27  42  63  92 122 155 199 245 285
#     4  12  23  35  50  69  98 130 163 199 237 283
#
# _framework density 16.576937000000001
#
# number of rings (size 3 to 8) (size 9 to 14) (size 15 to 20)
#    0.000    2.455    1.818    4.364    1.273    0.727 
#    0.000    1.818    0.000    2.182    0.000    1.273 
#    0.000    0.727    0.000    8.364    0.000    2.364 
#
# Total GULP energy -545166.754983 kJ/mol
# GULP energy per Si atom -12390.153522 kJ/mol
# Density = 1.653921 g / cm^3
# Si number density = 16.576937 Si / 1000 Ang^3
#
#
#
# Elastic Constant Matrix: (Units=GPa)
#
#
# Indices 1 2 3 4 5 6 
#
# 1 72.4535 37.3430 28.3703 0.0000 0.0000 0.0000
# 2 37.3430 91.3345 42.0998 0.0000 0.0000 0.0000
# 3 28.3703 42.0998 73.1084 0.0000 0.0000 0.0000
# 4 0.0000 0.0000 0.0000 26.4890 0.0000 0.0000
# 5 0.0000 0.0000 0.0000 0.0000 9.4967 0.0000
# 6 0.0000 0.0000 0.0000 0.0000 0.0000 26.1370
#
#
#
# Elastic Compliance Matrix: (Units=1/GPa)
#
#
# Indices 1 2 3 4 5 6 
#
# 1 0.018226 -0.005706 -0.003787 0.000000 0.000000 0.000000
# 2 -0.005706 0.016692 -0.007398 0.000000 0.000000 0.000000
# 3 -0.003787 -0.007398 0.019408 0.000000 0.000000 0.000000
# 4 0.000000 0.000000 0.000000 0.037752 0.000000 0.000000
# 5 0.000000 0.000000 0.000000 0.000000 0.105300 0.000000
# 6 0.000000 0.000000 0.000000 0.000000 0.000000 0.038260
#
#
# Mechanical properties :
#
#
# Convention : Reuss Voigt Hill
#
# Bulk Modulus (GPa) = 48.67601 50.28029 49.47815
# Shear Modulus (GPa) = 18.09849 21.03008 19.56429
#
# Velocity S-wave (km/s) = 3.30781 3.56565 3.43915
# Velocity P-wave (km/s) = 6.63447 6.88107 6.75890
#
# Compressibility (1/GPa) = 0.02054400
#
# Stress axis : x y z
#
# Youngs Moduli (GPa) = 54.86738 59.90987 51.52596
#
# Poissons Ratio (x) = 0.34187 0.19511
# Poissons Ratio (y) = 0.31309 0.38117
# Poissons Ratio (z) = 0.20776 0.44319
#
# Static dielectric constant tensor:
#      x y z
#    x 2.960380 0.000000 0.000000 
#    y 0.000000 3.303930 0.000000 
#    z 0.000000 0.000000 3.171260 
# 
# 
# High freq. dielectric constant tensor:
#      x y z
#    x 1.619440 0.000000 0.000000 
#    y 0.000000 1.617730 0.000000 
#    z 0.000000 0.000000 1.618880 
# 
# From -- ./inp_files/68014.got.cif
#   From: 2010.06.25/outbox.cif.g09.slc.cpg/sg71_35_cif.got.tgz:68014.got - 2010.06.28 04:59:45.
