data_PCOD8292283
_publ_section_title
;
Structure prediction by ZEFSAII (Michael W. Deem and Ramdas Pophale) SiO2 
 PCOD8292283
Probable space group: I M M M
;
_chemical_formula_sum "Si O2"
_cell_formula_units_Z 104
_cell_length_a 23.901921
_cell_length_b 9.192346
_cell_length_c 28.637409
_cell_angle_alpha 90.000000
_cell_angle_beta 90.000000
_cell_angle_gamma 90.000000
_cell_volume 6292.060526
_symmetry_space_group_name_H-M "I M M M"
_symmetry_group_IT_number 71
_symmetry_cell_setting 'orthorhombic'
loop_
_space_group_symop_operation_xyz
x,y,z
-x,-y,z
x,-y,-z
-x,y,-z
-x,-y,-z
x,y,-z
-x,y,z
x,-y,z
1/2+x,1/2+y,1/2+z
1/2-x,1/2-y,1/2+z
1/2+x,1/2-y,1/2-z
1/2-x,1/2+y,1/2-z
1/2-x,1/2-y,1/2-z
1/2+x,1/2+y,1/2-z
1/2-x,1/2+y,1/2+z
1/2+x,1/2-y,1/2+z
loop_
_atom_site_type_symbol
_atom_site_label
_atom_site_fract_x
_atom_site_fract_y
_atom_site_fract_z
Si Si1 0.357979 0.668115 0.946337
Si Si2 0.937394 0.827267 0.000000
Si Si3 0.433837 0.829557 0.672943
Si Si4 0.269643 0.168575 0.553765
Si Si5 0.871345 0.827225 0.090701
Si Si6 0.935753 0.672901 0.374609
Si Si7 0.935363 0.669679 0.274140
O O1 0.372332 0.500000 0.938645
O O2 0.294154 0.699937 0.931709
O O3 0.398884 0.763029 0.915495
O O4 0.367465 0.712042 0.000000
O O5 0.905916 0.770382 0.045937
O O6 0.000000 0.762425 0.000000
O O7 0.939154 0.000000 0.000000
O O8 0.500000 0.802653 0.667245
O O9 0.400499 0.733552 0.636476
O O10 0.412384 0.771721 0.724284
O O11 0.420332 0.000000 0.665848
O O12 0.279114 0.213137 0.500000
O O13 0.308516 0.266301 0.586843
O O14 0.284446 0.000000 0.561188
O O15 0.869371 0.000000 0.093550
O O16 0.932136 0.500000 0.376676
O O17 0.911349 0.729235 0.323796
O O18 0.000000 0.723009 0.381442
O O19 0.925119 0.500000 0.272592
O O20 0.000000 0.706682 0.275836
#
# Coordination Sequence:
#
# PCOD8292283 Si02
#       7
#    16   8  16  16  16  16  16
#     4   9  19  34  50  70  97 129 159 191 234 279
#     4   9  18  30  41  59  93 129 150 175 230 291
#     4   9  17  30  48  69  93 124 161 196 232 279
#     4   9  18  34  52  66  86 120 164 204 234 274
#     4  11  20  30  46  68  95 125 156 195 242 287
#     4   9  17  30  50  76 102 127 155 189 231 277
#     4   7  12  26  47  68  92 123 157 191 229 275
#
# _framework density 16.528766999999998
#
# number of rings (size 3 to 8) (size 9 to 14) (size 15 to 20)
#    0.000    3.000    0.769    3.692    0.000    2.462 
#    0.000    3.846    0.000    5.538    0.000    0.000 
#    0.000    0.000    0.000    0.000    0.000    0.000 
#
# Total GULP energy -644261.864171 kJ/mol
# GULP energy per Si atom -12389.651234 kJ/mol
# Density = 1.649115 g / cm^3
# Si number density = 16.528767 Si / 1000 Ang^3
#
#
#
# Elastic Constant Matrix: (Units=GPa)
#
#
# Indices 1 2 3 4 5 6 
#
# 1 79.8820 37.2061 58.9645 0.0000 0.0000 0.0000
# 2 37.2061 48.6907 41.9811 0.0000 0.0000 0.0000
# 3 58.9645 41.9811 125.0479 0.0000 0.0000 0.0000
# 4 0.0000 0.0000 0.0000 21.2303 0.0000 0.0000
# 5 0.0000 0.0000 0.0000 0.0000 7.2694 0.0000
# 6 0.0000 0.0000 0.0000 0.0000 0.0000 26.0528
#
#
#
# Elastic Compliance Matrix: (Units=1/GPa)
#
#
# Indices 1 2 3 4 5 6 
#
# 1 0.023086 -0.011618 -0.006986 0.000000 0.000000 0.000000
# 2 -0.011618 0.034751 -0.006188 0.000000 0.000000 0.000000
# 3 -0.006986 -0.006188 0.013368 0.000000 0.000000 0.000000
# 4 0.000000 0.000000 0.000000 0.047102 0.000000 0.000000
# 5 0.000000 0.000000 0.000000 0.000000 0.137563 0.000000
# 6 0.000000 0.000000 0.000000 0.000000 0.000000 0.038384
#
#
# Mechanical properties :
#
#
# Convention : Reuss Voigt Hill
#
# Bulk Modulus (GPa) = 46.24939 58.88046 52.56492
# Shear Modulus (GPa) = 14.24319 18.60843 16.42581
#
# Velocity S-wave (km/s) = 2.93869 3.35897 3.15583
# Velocity P-wave (km/s) = 6.28939 7.12347 6.71939
#
# Compressibility (1/GPa) = 0.02162191
#
# Stress axis : x y z
#
# Youngs Moduli (GPa) = 43.31648 28.77624 74.80315
#
# Poissons Ratio (x) = 0.33432 0.52254
# Poissons Ratio (y) = 0.50324 0.46291
# Poissons Ratio (z) = 0.30259 0.17808
#
# Static dielectric constant tensor:
#      x y z
#    x 2.947490 0.000000 0.000000 
#    y 0.000000 2.827830 0.000000 
#    z 0.000000 0.000000 3.415070 
# 
# 
# High freq. dielectric constant tensor:
#      x y z
#    x 1.614890 0.000000 0.000000 
#    y 0.000000 1.614140 0.000000 
#    z 0.000000 0.000000 1.645940 
# 
# From -- ./inp_files/66785.got.cif
#   From: 2010.06.25/outbox.cif.g09.slc.cpg/sg71_34_cif.got.tgz:66785.got - 2010.06.28 04:59:45.
