data_PCOD8292880
_publ_section_title
;
Structure prediction by ZEFSAII (Michael W. Deem and Ramdas Pophale) SiO2 
 PCOD8292880
Probable space group: I B A M
;
_chemical_formula_sum "Si O2"
_cell_formula_units_Z 80
_cell_length_a 17.756350
_cell_length_b 17.615300
_cell_length_c 14.165860
_cell_angle_alpha 90.000000
_cell_angle_beta 90.000000
_cell_angle_gamma 90.000000
_cell_volume 4430.846310
_symmetry_space_group_name_H-M "I B A M"
_symmetry_group_IT_number 72
_symmetry_cell_setting 'orthorhombic'
loop_
_space_group_symop_operation_xyz
x,y,z
-x,-y,z
x,-y,1/2-z
-x,y,1/2-z
-x,-y,-z
x,y,-z
-x,y,1/2+z
x,-y,1/2+z
1/2+x,1/2+y,1/2+z
1/2-x,1/2-y,1/2+z
1/2+x,1/2-y,-z
1/2-x,1/2+y,-z
1/2-x,1/2-y,1/2-z
1/2+x,1/2+y,1/2-z
1/2-x,1/2+y,z
1/2+x,1/2-y,z
loop_
_atom_site_type_symbol
_atom_site_label
_atom_site_fract_x
_atom_site_fract_y
_atom_site_fract_z
Si Si1 0.288540 0.015904 0.647707
Si Si2 0.614182 0.252010 0.500000
Si Si3 0.225672 0.613912 0.000000
Si Si4 0.752749 0.135842 0.000000
Si Si5 0.958431 0.567480 0.849265
Si Si6 0.986081 0.734811 0.861047
Si Si7 0.637200 0.273585 0.000000
O O1 0.246512 0.082983 0.592654
O O2 0.372539 0.045397 0.663036
O O3 0.251431 0.000000 0.750000
O O4 0.284013 0.936921 0.592571
O O5 0.658631 0.173609 0.500000
O O6 0.668583 0.322883 0.500000
O O7 0.564173 0.259862 0.406712
O O8 0.306656 0.654979 0.000000
O O9 0.683437 0.194633 0.000000
O O10 0.000000 0.500000 0.908505
O O11 0.000000 0.573862 0.750000
O O12 0.968018 0.649176 0.896408
O O13 0.000000 0.746934 0.750000
O O14 0.915170 0.780843 0.905470
#
# Coordination Sequence:
#
# PCOD8292880 Si02
#       7
#    16   8   8   8  16  16   8
#     4  11  21  37  56  82 116 156 188 232 278 342
#     4  10  22  37  55  84 117 151 194 239 277 348
#     4  10  24  35  55  84 117 157 198 223 291 338
#     4  10  22  38  54  81 120 155 190 230 293 330
#     4  10  17  28  53  83 116 140 179 218 271 346
#     4  10  21  35  58  84 113 152 192 232 290 332
#     4  10  20  40  54  81 120 153 190 244 273 344
#
# _framework density 18.055242
#
# number of rings (size 3 to 8) (size 9 to 14) (size 15 to 20)
#    0.000    1.800    4.000    1.200    2.800    1.600 
#    0.000    7.000    0.000    9.600    0.000   11.200 
#    0.000    0.000    0.000    0.000    0.000    0.000 
#
# Total GULP energy -495673.553700 kJ/mol
# GULP energy per Si atom -12391.838842 kJ/mol
# Density = 1.801415 g / cm^3
# Si number density = 18.055242 Si / 1000 Ang^3
#
#
#
# Elastic Constant Matrix: (Units=GPa)
#
#
# Indices 1 2 3 4 5 6 
#
# 1 126.3279 60.1500 59.8502 0.0000 0.0000 0.0000
# 2 60.1500 91.5834 51.0200 0.0000 0.0000 0.0000
# 3 59.8502 51.0200 152.3967 0.0000 0.0000 0.0000
# 4 0.0000 0.0000 0.0000 21.8637 0.0000 0.0000
# 5 0.0000 0.0000 0.0000 0.0000 18.1018 0.0000
# 6 0.0000 0.0000 0.0000 0.0000 0.0000 28.7607
#
#
#
# Elastic Compliance Matrix: (Units=1/GPa)
#
#
# Indices 1 2 3 4 5 6 
#
# 1 0.012311 -0.006629 -0.002616 0.000000 0.000000 0.000000
# 2 -0.006629 0.016991 -0.003085 0.000000 0.000000 0.000000
# 3 -0.002616 -0.003085 0.008622 0.000000 0.000000 0.000000
# 4 0.000000 0.000000 0.000000 0.045738 0.000000 0.000000
# 5 0.000000 0.000000 0.000000 0.000000 0.055243 0.000000
# 6 0.000000 0.000000 0.000000 0.000000 0.000000 0.034770
#
#
# Mechanical properties :
#
#
# Convention : Reuss Voigt Hill
#
# Bulk Modulus (GPa) = 75.38418 79.14980 77.26699
# Shear Modulus (GPa) = 24.66017 27.03111 25.84564
#
# Velocity S-wave (km/s) = 3.69971 3.87348 3.78759
# Velocity P-wave (km/s) = 7.75197 7.99612 7.87499
#
# Compressibility (1/GPa) = 0.01326538
#
# Stress axis : x y z
#
# Youngs Moduli (GPa) = 81.22584 58.85398 115.98229
#
# Poissons Ratio (x) = 0.39012 0.30339
# Poissons Ratio (y) = 0.53841 0.35783
# Poissons Ratio (z) = 0.21248 0.18157
#
# Static dielectric constant tensor:
#      x y z
#    x 3.262880 0.000000 0.000000 
#    y 0.000000 3.928480 0.000000 
#    z 0.000000 0.000000 3.154950 
# 
# 
# High freq. dielectric constant tensor:
#      x y z
#    x 1.692080 0.000000 0.000000 
#    y 0.000000 1.691120 0.000000 
#    z 0.000000 0.000000 1.704330 
# 
# From -- ./inp_files/23162.got.cif
#   From: 2010.03.12/outbox.cif.g09.slc.cpg/sg72_12_cif.got.tgz:23162.got - 2010.04.16 14:54:00.
