data_PCOD8292366
_publ_section_title
;
Structure prediction by ZEFSAII (Michael W. Deem and Ramdas Pophale) SiO2 
 PCOD8292366
Probable space group: I M M M
;
_chemical_formula_sum "Si O2"
_cell_formula_units_Z 88
_cell_length_a 13.149654
_cell_length_b 20.213175
_cell_length_c 18.281671
_cell_angle_alpha 90.000000
_cell_angle_beta 90.000000
_cell_angle_gamma 90.000000
_cell_volume 4859.199732
_symmetry_space_group_name_H-M "I M M M"
_symmetry_group_IT_number 71
_symmetry_cell_setting 'orthorhombic'
loop_
_space_group_symop_operation_xyz
x,y,z
-x,-y,z
x,-y,-z
-x,y,-z
-x,-y,-z
x,y,-z
-x,y,z
x,-y,z
1/2+x,1/2+y,1/2+z
1/2-x,1/2-y,1/2+z
1/2+x,1/2-y,1/2-z
1/2-x,1/2+y,1/2-z
1/2-x,1/2-y,1/2-z
1/2+x,1/2+y,1/2-z
1/2-x,1/2+y,1/2+z
1/2+x,1/2-y,1/2+z
loop_
_atom_site_type_symbol
_atom_site_label
_atom_site_fract_x
_atom_site_fract_y
_atom_site_fract_z
Si Si1 0.802502 0.424121 0.327377
Si Si2 0.187696 0.742006 0.083514
Si Si3 0.111434 0.310338 0.414775
Si Si4 0.385273 0.387329 0.417023
Si Si5 0.880666 0.620875 0.177369
Si Si6 0.120249 0.500000 0.919787
O O1 0.839965 0.500000 0.321756
O O2 0.874740 0.383115 0.381259
O O3 0.687295 0.422333 0.357855
O O4 0.811754 0.388052 0.249098
O O5 0.303187 0.757826 0.110297
O O6 0.121894 0.808282 0.088880
O O7 0.139279 0.690925 0.139798
O O8 0.185259 0.714418 0.000000
O O9 0.124129 0.321923 0.500000
O O10 0.000000 0.282350 0.393751
O O11 0.355718 0.409033 0.500000
O O12 0.500000 0.409311 0.399010
O O13 0.842726 0.565041 0.121715
O O14 0.000000 0.613941 0.197342
O O15 0.000000 0.500000 0.926443
O O16 0.170627 0.500000 0.000000
#
# Coordination Sequence:
#
# PCOD8292366 Si02
#       6
#    16  16  16  16  16   8
#     4  11  22  35  50  73 109 144 176 212 259 313
#     4   9  18  34  56  80 104 134 175 222 270 319
#     4   9  19  35  54  77 104 135 174 217 260 313
#     4   9  19  36  57  81 107 136 175 222 265 308
#     4  11  21  33  51  77 108 141 174 214 267 317
#     4   9  18  32  50  74 102 135 176 214 252 305
#
# _framework density 18.109978000000002
#
# number of rings (size 3 to 8) (size 9 to 14) (size 15 to 20)
#    0.000    2.273    0.909    3.273    0.000    7.636 
#    0.000    4.545    0.000    0.000    0.000    0.000 
#    0.000    4.364    0.000    0.000    0.000    0.000 
#
# Total GULP energy -545460.697462 kJ/mol
# GULP energy per Si atom -12396.834033 kJ/mol
# Density = 1.806876 g / cm^3
# Si number density = 18.109978 Si / 1000 Ang^3
#
#
#
# Elastic Constant Matrix: (Units=GPa)
#
#
# Indices 1 2 3 4 5 6 
#
# 1 87.3556 7.4077 44.7006 0.0000 0.0000 0.0000
# 2 7.4077 68.5422 29.8456 0.0000 0.0000 0.0000
# 3 44.7006 29.8456 84.0381 -0.0001 0.0000 0.0000
# 4 0.0000 0.0000 -0.0001 34.8494 0.0000 0.0000
# 5 0.0000 0.0000 0.0000 0.0000 26.9859 0.0000
# 6 0.0000 0.0000 0.0000 0.0000 0.0000 15.0392
#
#
#
# Elastic Compliance Matrix: (Units=1/GPa)
#
#
# Indices 1 2 3 4 5 6 
#
# 1 0.016041 0.002344 -0.009365 0.000000 0.000000 0.000000
# 2 0.002344 0.017601 -0.007498 0.000000 0.000000 0.000000
# 3 -0.009365 -0.007498 0.019543 0.000000 0.000000 0.000000
# 4 0.000000 0.000000 0.000000 0.028695 0.000000 0.000000
# 5 0.000000 0.000000 0.000000 0.000000 0.037056 0.000000
# 6 0.000000 0.000000 0.000000 0.000000 0.000000 0.066493
#
#
# Mechanical properties :
#
#
# Convention : Reuss Voigt Hill
#
# Bulk Modulus (GPa) = 41.41068 44.87150 43.14109
# Shear Modulus (GPa) = 22.47036 25.90702 24.18869
#
# Velocity S-wave (km/s) = 3.52628 3.78635 3.65863
# Velocity P-wave (km/s) = 6.28454 6.62920 6.45917
#
# Compressibility (1/GPa) = 0.02414836
#
# Stress axis : x y z
#
# Youngs Moduli (GPa) = 62.34153 56.81500 51.16845
#
# Poissons Ratio (x) = -0.13318 0.47918
# Poissons Ratio (y) = -0.14614 0.38365
# Poissons Ratio (z) = 0.58381 0.42598
#
# Static dielectric constant tensor:
#      x y z
#    x 3.529660 0.000000 0.000000 
#    y 0.000000 3.180140 0.000000 
#    z 0.000000 0.000000 3.415640 
# 
# 
# High freq. dielectric constant tensor:
#      x y z
#    x 1.690330 0.000000 0.000000 
#    y 0.000000 1.691230 0.000000 
#    z 0.000000 0.000000 1.702210 
# 
# From -- ./inp_files/44724.got.cif
#   From: 2010.06.25/outbox.cif.g09.slc.cpg/sg71_23_cif.got.tgz:44724.got - 2010.06.28 04:59:45.
