data_PCOD8292424
_publ_section_title
;
Structure prediction by ZEFSAII (Michael W. Deem and Ramdas Pophale) SiO2 
 PCOD8292424
Probable space group: I M M M
;
_chemical_formula_sum "Si O2"
_cell_formula_units_Z 64
_cell_length_a 23.780350
_cell_length_b 16.530638
_cell_length_c 7.722372
_cell_angle_alpha 90.000000
_cell_angle_beta 90.000000
_cell_angle_gamma 90.000000
_cell_volume 3035.698082
_symmetry_space_group_name_H-M "I M M M"
_symmetry_group_IT_number 71
_symmetry_cell_setting 'orthorhombic'
loop_
_space_group_symop_operation_xyz
x,y,z
-x,-y,z
x,-y,-z
-x,y,-z
-x,-y,-z
x,y,-z
-x,y,z
x,-y,z
1/2+x,1/2+y,1/2+z
1/2-x,1/2-y,1/2+z
1/2+x,1/2-y,1/2-z
1/2-x,1/2+y,1/2-z
1/2-x,1/2-y,1/2-z
1/2+x,1/2+y,1/2-z
1/2-x,1/2+y,1/2+z
1/2+x,1/2-y,1/2+z
loop_
_atom_site_type_symbol
_atom_site_label
_atom_site_fract_x
_atom_site_fract_y
_atom_site_fract_z
Si Si1 0.259286 0.589649 0.704477
Si Si2 0.140321 0.351403 0.300014
Si Si3 0.066168 0.909311 0.500000
Si Si4 0.564861 0.000000 0.704135
Si Si5 0.371522 0.324633 0.303620
O O1 0.253272 0.585161 0.500000
O O2 0.272195 0.500000 0.778607
O O3 0.199888 0.620121 0.780737
O O4 0.308942 0.650312 0.760116
O O5 0.146806 0.327885 0.500000
O O6 0.093813 0.420490 0.280736
O O7 0.121192 0.271789 0.197955
O O8 0.084294 0.864529 0.325073
O O9 0.000000 0.910557 0.500000
O O10 0.090938 0.000000 0.500000
O O11 0.500000 0.000000 0.762500
O O12 0.571313 0.000000 0.500000
O O13 0.382618 0.355659 0.500000
#
# Coordination Sequence:
#
# PCOD8292424 Si02
#       5
#    16  16   8   8  16
#     4   9  18  35  62  95 132 170 212 270 332 394
#     4  11  21  40  65  94 133 174 222 275 327 388
#     4  11  26  48  70  97 131 167 221 278 328 397
#     4  11  25  43  61  89 131 179 231 277 323 390
#     4  11  23  42  68  98 135 172 218 272 334 392
#
# _framework density 21.082464999999999
#
# number of rings (size 3 to 8) (size 9 to 14) (size 15 to 20)
#    0.000    1.500    2.500    2.625    0.000    4.000 
#    4.500    1.250    0.000    0.000    0.000    0.000 
#    0.000    0.000    0.000    0.000    0.000    0.000 
#
# Total GULP energy -396900.178647 kJ/mol
# GULP energy per Si atom -12403.130583 kJ/mol
# Density = 2.103448 g / cm^3
# Si number density = 21.082465 Si / 1000 Ang^3
#
#
#
# Elastic Constant Matrix: (Units=GPa)
#
#
# Indices 1 2 3 4 5 6 
#
# 1 110.5251 51.6569 28.0668 0.0000 0.0000 0.0000
# 2 51.6569 162.2888 25.9125 0.0000 0.0000 0.0000
# 3 28.0668 25.9125 85.6212 0.0000 0.0000 0.0000
# 4 0.0000 0.0000 0.0000 11.8250 0.0000 0.0000
# 5 0.0000 0.0000 0.0000 0.0000 22.0456 0.0000
# 6 0.0000 0.0000 0.0000 0.0000 0.0000 8.9365
#
#
#
# Elastic Compliance Matrix: (Units=1/GPa)
#
#
# Indices 1 2 3 4 5 6 
#
# 1 0.011203 -0.003131 -0.002725 0.000000 0.000000 0.000000
# 2 -0.003131 0.007350 -0.001198 0.000000 0.000000 0.000000
# 3 -0.002725 -0.001198 0.012935 0.000000 0.000000 0.000000
# 4 0.000000 0.000000 0.000000 0.084566 0.000000 0.000000
# 5 0.000000 0.000000 0.000000 0.000000 0.045361 0.000000
# 6 0.000000 0.000000 0.000000 0.000000 0.000000 0.111901
#
#
# Mechanical properties :
#
#
# Convention : Reuss Voigt Hill
#
# Bulk Modulus (GPa) = 57.53617 63.30083 60.41850
# Shear Modulus (GPa) = 17.05226 25.41468 21.23347
#
# Velocity S-wave (km/s) = 2.84709 3.47578 3.17703
# Velocity P-wave (km/s) = 6.17723 6.79696 6.49449
#
# Compressibility (1/GPa) = 0.01738037
#
# Stress axis : x y z
#
# Youngs Moduli (GPa) = 89.26220 136.05995 77.30892
#
# Poissons Ratio (x) = 0.42598 0.21065
# Poissons Ratio (y) = 0.27947 0.09262
# Poissons Ratio (z) = 0.24322 0.16300
#
# Static dielectric constant tensor:
#      x y z
#    x 3.783270 0.000000 0.000000 
#    y 0.000000 3.934050 0.000000 
#    z 0.000000 0.000000 3.662300 
# 
# 
# High freq. dielectric constant tensor:
#      x y z
#    x 1.818890 0.000000 0.000000 
#    y 0.000000 1.837620 0.000000 
#    z 0.000000 0.000000 1.820620 
# 
# From -- ./inp_files/12007.got.cif
#   From: 2010.06.25/outbox.cif.g09.slc.cpg/sg71_7_cif.got.tgz:12007.got - 2010.06.28 04:59:45.
