data_PCOD8292213
_publ_section_title
;
Structure prediction by ZEFSAII (Michael W. Deem and Ramdas Pophale) SiO2 
 PCOD8292213
Probable space group: I M M M
;
_chemical_formula_sum "Si O2"
_cell_formula_units_Z 90
_cell_length_a 17.460565
_cell_length_b 11.807759
_cell_length_c 21.508930
_cell_angle_alpha 90.000000
_cell_angle_beta 90.000000
_cell_angle_gamma 90.000000
_cell_volume 4434.499185
_symmetry_space_group_name_H-M "I M M M"
_symmetry_group_IT_number 71
_symmetry_cell_setting 'orthorhombic'
loop_
_space_group_symop_operation_xyz
x,y,z
-x,-y,z
x,-y,-z
-x,y,-z
-x,-y,-z
x,y,-z
-x,y,z
x,-y,z
1/2+x,1/2+y,1/2+z
1/2-x,1/2-y,1/2+z
1/2+x,1/2-y,1/2-z
1/2-x,1/2+y,1/2-z
1/2-x,1/2-y,1/2-z
1/2+x,1/2+y,1/2-z
1/2-x,1/2+y,1/2+z
1/2+x,1/2-y,1/2+z
loop_
_atom_site_type_symbol
_atom_site_label
_atom_site_fract_x
_atom_site_fract_y
_atom_site_fract_z
Si Si1 0.500000 0.000000 0.000000
Si Si2 0.409542 0.500000 0.929825
Si Si3 0.913914 0.867421 0.930603
Si Si4 0.346797 0.123664 0.000000
Si Si5 0.837609 0.227086 0.380935
Si Si6 0.911459 0.368571 0.273776
Si Si7 0.166746 0.303741 0.147485
Si Si8 0.087891 0.500000 0.926369
O O1 0.438252 0.897153 0.000000
O O2 0.500000 0.500000 0.929105
O O3 0.381270 0.611941 0.895668
O O4 0.377380 0.500000 0.000000
O O5 0.859692 0.818403 0.877030
O O6 0.000000 0.818645 0.923000
O O7 0.914873 0.000000 0.920528
O O8 0.883787 0.836708 0.000000
O O9 0.321362 0.195711 0.940584
O O10 0.303920 0.000000 0.000000
O O11 0.889921 0.298811 0.334510
O O12 0.757972 0.191328 0.349698
O O13 0.894851 0.500000 0.287824
O O14 0.861499 0.326464 0.216560
O O15 0.000000 0.348811 0.257812
O O16 0.131665 0.391486 0.098822
O O17 0.000000 0.500000 0.902746
O O18 0.092239 0.500000 0.000000
#
# Coordination Sequence:
#
# PCOD8292213 Si02
#       8
#     2   8  16   8  16  16  16   8
#     4   8  24  40  72 102 136 168 226 300 304 400
#     4  11  25  43  69  96 135 180 217 264 329 415
#     4   9  19  36  59  88 124 172 219 258 313 388
#     4  10  24  41  72 104 135 167 223 281 336 384
#     4  12  26  43  66 102 139 174 217 276 349 406
#     4  11  25  46  72  93 125 178 235 285 333 398
#     4  12  24  41  64  97 136 171 217 276 342 395
#     4  11  23  39  68 102 135 179 231 275 323 393
#
# _framework density 20.295415999999999
#
# number of rings (size 3 to 8) (size 9 to 14) (size 15 to 20)
#    0.267    0.889    1.778    4.800    4.978    3.556 
#    1.600    0.000    0.000    0.000    0.000    0.000 
#    0.000    0.000    0.000    0.000    0.000    0.000 
#
# Total GULP energy -557643.769844 kJ/mol
# GULP energy per Si atom -12392.083774 kJ/mol
# Density = 2.024922 g / cm^3
# Si number density = 20.295416 Si / 1000 Ang^3
#
#
#
# Elastic Constant Matrix: (Units=GPa)
#
#
# Indices 1 2 3 4 5 6 
#
# 1 91.4705 35.0126 39.0388 0.0000 0.0000 0.0000
# 2 35.0126 117.2787 62.6184 0.0000 0.0000 0.0000
# 3 39.0388 62.6184 121.6539 0.0000 0.0000 0.0000
# 4 0.0000 0.0000 0.0000 21.5064 0.0000 0.0000
# 5 0.0000 0.0000 0.0000 0.0000 26.7771 0.0000
# 6 0.0000 0.0000 0.0000 0.0000 0.0000 8.7653
#
#
#
# Elastic Compliance Matrix: (Units=1/GPa)
#
#
# Indices 1 2 3 4 5 6 
#
# 1 0.013102 -0.002298 -0.003021 0.000000 0.000000 0.000000
# 2 -0.002298 0.012161 -0.005522 0.000000 0.000000 0.000000
# 3 -0.003021 -0.005522 0.012032 0.000000 0.000000 0.000000
# 4 0.000000 0.000000 0.000000 0.046498 0.000000 0.000000
# 5 0.000000 0.000000 0.000000 0.000000 0.037345 0.000000
# 6 0.000000 0.000000 0.000000 0.000000 0.000000 0.114086
#
#
# Mechanical properties :
#
#
# Convention : Reuss Voigt Hill
#
# Bulk Modulus (GPa) = 64.05590 67.08252 65.56921
# Shear Modulus (GPa) = 19.07581 24.32530 21.70055
#
# Velocity S-wave (km/s) = 3.06912 3.46578 3.27346
# Velocity P-wave (km/s) = 6.64752 7.01001 6.83117
#
# Compressibility (1/GPa) = 0.01561136
#
# Stress axis : x y z
#
# Youngs Moduli (GPa) = 76.32608 82.22814 83.11136
#
# Poissons Ratio (x) = 0.18898 0.25111
# Poissons Ratio (y) = 0.17541 0.45896
# Poissons Ratio (z) = 0.23061 0.45408
#
# Static dielectric constant tensor:
#      x y z
#    x 3.759080 0.000000 0.000000 
#    y 0.000000 3.132540 0.000000 
#    z 0.000000 0.000000 3.713760 
# 
# 
# High freq. dielectric constant tensor:
#      x y z
#    x 1.801820 0.000000 0.000000 
#    y 0.000000 1.808900 0.000000 
#    z 0.000000 0.000000 1.786820 
# 
# From -- ./inp_files/53992.got.cif
#   From: 2010.06.25/outbox.cif.g09.slc.cpg/sg71_27_cif.got.tgz:53992.got - 2010.06.28 04:59:45.
