data_PCOD8292731
_publ_section_title
;
Structure prediction by ZEFSAII (Michael W. Deem and Ramdas Pophale) SiO2 
 PCOD8292731
Probable space group: I M M M
;
_chemical_formula_sum "Si O2"
_cell_formula_units_Z 104
_cell_length_a 28.103924
_cell_length_b 24.221389
_cell_length_c 9.350894
_cell_angle_alpha 90.000000
_cell_angle_beta 90.000000
_cell_angle_gamma 90.000000
_cell_volume 6365.303867
_symmetry_space_group_name_H-M "I M M M"
_symmetry_group_IT_number 71
_symmetry_cell_setting 'orthorhombic'
loop_
_space_group_symop_operation_xyz
x,y,z
-x,-y,z
x,-y,-z
-x,y,-z
-x,-y,-z
x,y,-z
-x,y,z
x,-y,z
1/2+x,1/2+y,1/2+z
1/2-x,1/2-y,1/2+z
1/2+x,1/2-y,1/2-z
1/2-x,1/2+y,1/2-z
1/2-x,1/2-y,1/2-z
1/2+x,1/2+y,1/2-z
1/2-x,1/2+y,1/2+z
1/2+x,1/2-y,1/2+z
loop_
_atom_site_type_symbol
_atom_site_label
_atom_site_fract_x
_atom_site_fract_y
_atom_site_fract_z
Si Si1 0.444750 0.242673 0.334396
Si Si2 0.367337 0.563539 0.833849
Si Si3 0.276250 0.565571 0.338529
Si Si4 0.090970 0.373717 0.830432
Si Si5 0.553958 0.349821 0.833310
Si Si6 0.000000 0.437781 0.170896
Si Si7 0.684470 0.064391 0.667076
O O1 0.436216 0.255523 0.500000
O O2 0.500000 0.229234 0.304435
O O3 0.413620 0.190181 0.283398
O O4 0.427091 0.295632 0.246992
O O5 0.378559 0.500000 0.797002
O O6 0.323240 0.586915 0.742459
O O7 0.413903 0.598043 0.790800
O O8 0.354194 0.570534 0.000000
O O9 0.275722 0.588939 0.500000
O O10 0.276531 0.500000 0.337891
O O11 0.229843 0.586471 0.254406
O O12 0.046735 0.407913 0.766514
O O13 0.140015 0.400127 0.774730
O O14 0.088977 0.378404 0.000000
O O15 0.500000 0.363892 0.786517
O O16 0.557079 0.336922 0.000000
O O17 0.000000 0.500000 0.227753
O O18 0.000000 0.435614 0.000000
O O19 0.694277 0.074608 0.500000
O O20 0.673952 0.000000 0.696283
#
# Coordination Sequence:
#
# PCOD8292731 Si02
#       7
#    16  16  16  16  16   8  16
#     4   9  16  28  45  63  87 121 158 189 218 257
#     4   9  17  30  49  71  93 117 143 174 217 265
#     4   9  17  29  45  65  90 119 149 181 218 265
#     4   9  15  24  39  62  90 119 152 190 227 264
#     4   9  18  31  47  69  95 119 145 178 214 259
#     4   9  14  20  34  60  93 121 146 185 234 272
#     4   9  16  26  42  65  91 118 150 188 229 269
#
# _framework density 16.338576
#
# number of rings (size 3 to 8) (size 9 to 14) (size 15 to 20)
#    0.000    3.000    0.769    0.923    0.000    4.615 
#    0.000    2.308    0.000    0.923    0.000    4.308 
#    0.000    3.692    0.000    0.000    0.000    0.000 
#
# Total GULP energy -644715.406007 kJ/mol
# GULP energy per Si atom -12398.373192 kJ/mol
# Density = 1.630139 g / cm^3
# Si number density = 16.338576 Si / 1000 Ang^3
#
#
#
# Elastic Constant Matrix: (Units=GPa)
#
#
# Indices 1 2 3 4 5 6 
#
# 1 131.8580 71.5264 49.8023 0.0000 0.0000 0.0000
# 2 71.5264 96.9255 38.1820 0.0000 0.0000 0.0000
# 3 49.8023 38.1820 51.5515 0.0000 0.0000 0.0000
# 4 0.0000 0.0000 0.0000 18.1830 0.0000 0.0000
# 5 0.0000 0.0000 0.0000 0.0000 15.1576 0.0000
# 6 0.0000 0.0000 0.0000 0.0000 0.0000 15.1004
#
#
#
# Elastic Compliance Matrix: (Units=1/GPa)
#
#
# Indices 1 2 3 4 5 6 
#
# 1 0.015091 -0.007615 -0.008939 0.000000 0.000000 0.000000
# 2 -0.007615 0.018410 -0.006279 0.000000 0.000000 0.000000
# 3 -0.008939 -0.006279 0.032684 0.000000 0.000000 0.000000
# 4 0.000000 0.000000 0.000000 0.054996 0.000000 0.000000
# 5 0.000000 0.000000 0.000000 0.000000 0.065974 0.000000
# 6 0.000000 0.000000 0.000000 0.000000 0.000000 0.066224
#
#
# Mechanical properties :
#
#
# Convention : Reuss Voigt Hill
#
# Bulk Modulus (GPa) = 48.73369 66.59514 57.66442
# Shear Modulus (GPa) = 16.34608 17.74314 17.04461
#
# Velocity S-wave (km/s) = 3.16643 3.29898 3.23338
# Velocity P-wave (km/s) = 6.57727 7.44036 7.02209
#
# Compressibility (1/GPa) = 0.02051969
#
# Stress axis : x y z
#
# Youngs Moduli (GPa) = 66.26546 54.31748 30.59610
#
# Poissons Ratio (x) = 0.41363 0.27349
# Poissons Ratio (y) = 0.50462 0.19211
# Poissons Ratio (z) = 0.59232 0.34106
#
# Static dielectric constant tensor:
#      x y z
#    x 3.189540 0.000000 0.000000 
#    y 0.000000 2.988600 0.000000 
#    z 0.000000 0.000000 2.912550 
# 
# 
# High freq. dielectric constant tensor:
#      x y z
#    x 1.627610 0.000000 0.000000 
#    y 0.000000 1.609110 0.000000 
#    z 0.000000 0.000000 1.603540 
# 
# From -- ./inp_files/15516.got.cif
#   From: 2010.06.25/outbox.cif.g09.slc.cpg/sg71_8_cif.got.tgz:15516.got - 2010.06.28 04:59:45.
