data_PCOD8292675
_publ_section_title
;
Structure prediction by ZEFSAII (Michael W. Deem and Ramdas Pophale) SiO2 
 PCOD8292675
Probable space group: I M M M
;
_chemical_formula_sum "Si O2"
_cell_formula_units_Z 72
_cell_length_a 13.579823
_cell_length_b 21.714905
_cell_length_c 17.645442
_cell_angle_alpha 90.000000
_cell_angle_beta 90.000000
_cell_angle_gamma 90.000000
_cell_volume 5203.368512
_symmetry_space_group_name_H-M "I M M M"
_symmetry_group_IT_number 71
_symmetry_cell_setting 'orthorhombic'
loop_
_space_group_symop_operation_xyz
x,y,z
-x,-y,z
x,-y,-z
-x,y,-z
-x,-y,-z
x,y,-z
-x,y,z
x,-y,z
1/2+x,1/2+y,1/2+z
1/2-x,1/2-y,1/2+z
1/2+x,1/2-y,1/2-z
1/2-x,1/2+y,1/2-z
1/2-x,1/2-y,1/2-z
1/2+x,1/2+y,1/2-z
1/2-x,1/2+y,1/2+z
1/2+x,1/2-y,1/2+z
loop_
_atom_site_type_symbol
_atom_site_label
_atom_site_fract_x
_atom_site_fract_y
_atom_site_fract_z
Si Si1 0.267780 0.613004 0.416149
Si Si2 0.881825 0.207881 0.000000
Si Si3 0.882975 0.348843 0.000000
Si Si4 0.617051 0.931745 0.635053
Si Si5 0.607940 0.500000 0.590219
Si Si6 0.114066 0.428044 0.694579
O O1 0.229240 0.593210 0.500000
O O2 0.333349 0.675579 0.425126
O O3 0.337002 0.560583 0.380461
O O4 0.174299 0.617971 0.360580
O O5 0.848361 0.278470 0.000000
O O6 0.000000 0.199042 0.000000
O O7 0.840437 0.382668 0.074812
O O8 0.000000 0.352345 0.000000
O O9 0.500000 0.932820 0.632212
O O10 0.650204 0.914002 0.719909
O O11 0.656415 0.000000 0.613942
O O12 0.500000 0.500000 0.627030
O O13 0.599832 0.500000 0.500000
O O14 0.131628 0.500000 0.674340
O O15 0.000000 0.411200 0.684598
#
# Coordination Sequence:
#
# PCOD8292675 Si02
#       6
#    16   8   8  16   8  16
#     4   9  17  25  37  54  78 108 138 162 192 223
#     4   9  18  28  39  54  78 107 137 169 194 225
#     4   9  15  26  42  59  75 101 133 161 199 243
#     4   8  14  24  41  61  81 100 123 157 200 245
#     4   9  14  22  37  53  71 100 136 167 195 222
#     4   9  16  26  38  58  84 107 128 160 198 232
#
# _framework density 13.83719
#
# number of rings (size 3 to 8) (size 9 to 14) (size 15 to 20)
#    0.667    2.556    1.111    2.333    0.000    1.778 
#    0.000    2.222    0.000    0.000    0.000    0.000 
#    0.000    0.000    0.000    1.889    0.000    1.889 
#
# Total GULP energy -445979.152409 kJ/mol
# GULP energy per Si atom -12388.309789 kJ/mol
# Density = 1.380570 g / cm^3
# Si number density = 13.837190 Si / 1000 Ang^3
#
#
#
# Elastic Constant Matrix: (Units=GPa)
#
#
# Indices 1 2 3 4 5 6 
#
# 1 52.2608 34.3034 37.8633 0.0000 0.0000 0.0000
# 2 34.3034 98.7266 47.4255 0.0000 0.0000 0.0000
# 3 37.8633 47.4255 78.9694 0.0000 0.0000 0.0000
# 4 0.0000 0.0000 0.0000 11.1153 0.0000 0.0000
# 5 0.0000 0.0000 0.0000 0.0000 6.4725 0.0000
# 6 0.0000 0.0000 0.0000 0.0000 0.0000 9.8340
#
#
#
# Elastic Compliance Matrix: (Units=1/GPa)
#
#
# Indices 1 2 3 4 5 6 
#
# 1 0.031053 -0.005112 -0.011819 0.000000 0.000000 0.000000
# 2 -0.005112 0.015078 -0.006604 0.000000 0.000000 0.000000
# 3 -0.011819 -0.006604 0.022296 0.000000 0.000000 0.000000
# 4 0.000000 0.000000 0.000000 0.089966 0.000000 0.000000
# 5 0.000000 0.000000 0.000000 0.000000 0.154499 0.000000
# 6 0.000000 0.000000 0.000000 0.000000 0.000000 0.101688
#
#
# Mechanical properties :
#
#
# Convention : Reuss Voigt Hill
#
# Bulk Modulus (GPa) = 46.82327 52.12681 49.47504
# Shear Modulus (GPa) = 10.66628 12.84203 11.75415
#
# Velocity S-wave (km/s) = 2.77941 3.04975 2.91771
# Velocity P-wave (km/s) = 6.64924 7.08199 6.86902
#
# Compressibility (1/GPa) = 0.02135690
#
# Stress axis : x y z
#
# Youngs Moduli (GPa) = 32.20278 66.32383 44.85154
#
# Poissons Ratio (x) = 0.33907 0.53009
# Poissons Ratio (y) = 0.16463 0.29619
# Poissons Ratio (z) = 0.38060 0.43798
#
# Static dielectric constant tensor:
#      x y z
#    x 2.467650 0.000000 0.000000 
#    y 0.000000 2.686310 0.000000 
#    z 0.000000 0.000000 2.681050 
# 
# 
# High freq. dielectric constant tensor:
#      x y z
#    x 1.492570 0.000000 0.000000 
#    y 0.000000 1.511780 0.000000 
#    z 0.000000 0.000000 1.511460 
# 
# From -- ./inp_files/43453.got.cif
#   From: 2010.06.25/outbox.cif.g09.slc.cpg/sg71_22_cif.got.tgz:43453.got - 2010.06.28 04:59:45.
