data_PCOD8292080
_publ_section_title
;
Structure prediction by ZEFSAII (Michael W. Deem and Ramdas Pophale) SiO2 
 PCOD8292080
Probable space group: I M M M
;
_chemical_formula_sum "Si O2"
_cell_formula_units_Z 104
_cell_length_a 26.866178
_cell_length_b 21.190603
_cell_length_c 8.850448
_cell_angle_alpha 90.000000
_cell_angle_beta 90.000000
_cell_angle_gamma 90.000000
_cell_volume 5038.653083
_symmetry_space_group_name_H-M "I M M M"
_symmetry_group_IT_number 71
_symmetry_cell_setting 'orthorhombic'
loop_
_space_group_symop_operation_xyz
x,y,z
-x,-y,z
x,-y,-z
-x,y,-z
-x,-y,-z
x,y,-z
-x,y,z
x,-y,z
1/2+x,1/2+y,1/2+z
1/2-x,1/2-y,1/2+z
1/2+x,1/2-y,1/2-z
1/2-x,1/2+y,1/2-z
1/2-x,1/2-y,1/2-z
1/2+x,1/2+y,1/2-z
1/2-x,1/2+y,1/2+z
1/2+x,1/2-y,1/2+z
loop_
_atom_site_type_symbol
_atom_site_label
_atom_site_fract_x
_atom_site_fract_y
_atom_site_fract_z
Si Si1 0.445417 0.500000 0.822971
Si Si2 0.779807 0.691238 0.179055
Si Si3 0.381291 0.171541 0.170734
Si Si4 0.227516 0.073328 0.822332
Si Si5 0.943269 0.790389 0.328334
Si Si6 0.055859 0.426452 0.171261
Si Si7 0.884465 0.892906 0.175051
O O1 0.500000 0.500000 0.749359
O O2 0.417928 0.438122 0.772475
O O3 0.449240 0.500000 0.000000
O O4 0.750000 0.750000 0.250000
O O5 0.837237 0.698224 0.224794
O O6 0.763185 0.621692 0.235262
O O7 0.773587 0.695305 0.000000
O O8 0.428864 0.217324 0.178854
O O9 0.401758 0.104661 0.226359
O O10 0.360977 0.164879 0.000000
O O11 0.172371 0.096123 0.779573
O O12 0.235624 0.000000 0.771418
O O13 0.237349 0.079659 0.000000
O O14 0.938211 0.815958 0.500000
O O15 0.903501 0.823735 0.218449
O O16 0.000000 0.799114 0.270842
O O17 0.066701 0.500000 0.178062
O O18 0.000000 0.411961 0.230838
O O19 0.061083 0.401573 0.000000
O O20 0.892362 0.907259 0.000000
#
# Coordination Sequence:
#
# PCOD8292080 Si02
#       7
#     8  16  16  16  16  16  16
#     4  11  23  37  55  81 117 159 199 241 290 345
#     4  12  26  44  66  93 124 161 207 261 319 381
#     4  11  23  40  63  90 120 159 205 255 309 368
#     4  10  22  43  67  92 124 162 206 259 315 370
#     4  10  22  39  58  85 122 161 201 246 298 358
#     4   9  19  37  61  90 126 166 205 248 302 366
#     4  11  22  38  60  88 118 154 200 248 298 350
#
# _framework density 20.640436000000001
#
# number of rings (size 3 to 8) (size 9 to 14) (size 15 to 20)
#    0.000    1.462    0.769    4.846    0.000    9.846 
#    0.000    0.769    0.000    0.000    0.000    0.000 
#    0.000    0.000    0.000    0.000    0.000    0.000 
#
# Total GULP energy -644837.377000 kJ/mol
# GULP energy per Si atom -12400.718788 kJ/mol
# Density = 2.059346 g / cm^3
# Si number density = 20.640436 Si / 1000 Ang^3
#
#
#
# Elastic Constant Matrix: (Units=GPa)
#
#
# Indices 1 2 3 4 5 6 
#
# 1 91.7915 41.5732 35.3919 0.0000 0.0000 0.0000
# 2 41.5732 102.9685 39.0783 0.0000 0.0000 0.0000
# 3 35.3919 39.0783 83.2952 0.0000 0.0000 0.0000
# 4 0.0000 0.0000 0.0000 35.4808 0.0000 0.0000
# 5 0.0000 0.0000 0.0000 0.0000 32.0681 0.0000
# 6 0.0000 0.0000 0.0000 0.0000 0.0000 68.3322
#
#
#
# Elastic Compliance Matrix: (Units=1/GPa)
#
#
# Indices 1 2 3 4 5 6 
#
# 1 0.014412 -0.004252 -0.004129 0.000000 0.000000 0.000000
# 2 -0.004252 0.013070 -0.004325 0.000000 0.000000 0.000000
# 3 -0.004129 -0.004325 0.015789 0.000000 0.000000 0.000000
# 4 0.000000 0.000000 0.000000 0.028184 0.000000 0.000000
# 5 0.000000 0.000000 0.000000 0.000000 0.031184 0.000000
# 6 0.000000 0.000000 0.000000 0.000000 0.000000 0.014634
#
#
# Mechanical properties :
#
#
# Convention : Reuss Voigt Hill
#
# Bulk Modulus (GPa) = 55.99386 56.68245 56.33816
# Shear Modulus (GPa) = 33.63886 37.97701 35.80793
#
# Velocity S-wave (km/s) = 4.04140 4.29410 4.16966
# Velocity P-wave (km/s) = 6.99745 7.21853 7.10885
#
# Compressibility (1/GPa) = 0.01785910
#
# Stress axis : x y z
#
# Youngs Moduli (GPa) = 69.38718 76.51206 63.33525
#
# Poissons Ratio (x) = 0.32531 0.26150
# Poissons Ratio (y) = 0.29502 0.27394
# Poissons Ratio (z) = 0.28649 0.33093
#
# Static dielectric constant tensor:
#      x y z
#    x 3.841470 0.000000 0.000000 
#    y 0.000000 3.821900 0.000000 
#    z 0.000000 0.000000 3.724770 
# 
# 
# High freq. dielectric constant tensor:
#      x y z
#    x 1.813260 0.000000 0.000000 
#    y 0.000000 1.816690 0.000000 
#    z 0.000000 0.000000 1.803500 
# 
# From -- ./inp_files/14969.got.cif
#   From: 2010.06.25/outbox.cif.g09.slc.cpg/sg71_8_cif.got.tgz:14969.got - 2010.06.28 04:59:45.
