data_PCOD8292016
_publ_section_title
;
Structure prediction by ZEFSAII (Michael W. Deem and Ramdas Pophale) SiO2 
 PCOD8292016
Probable space group: I M M M
;
_chemical_formula_sum "Si O2"
_cell_formula_units_Z 44
_cell_length_a 11.332000
_cell_length_b 17.377795
_cell_length_c 10.422575
_cell_angle_alpha 90.000000
_cell_angle_beta 90.000000
_cell_angle_gamma 90.000000
_cell_volume 2052.467384
_symmetry_space_group_name_H-M "I M M M"
_symmetry_group_IT_number 71
_symmetry_cell_setting 'orthorhombic'
loop_
_space_group_symop_operation_xyz
x,y,z
-x,-y,z
x,-y,-z
-x,y,-z
-x,-y,-z
x,y,-z
-x,y,z
x,-y,z
1/2+x,1/2+y,1/2+z
1/2-x,1/2-y,1/2+z
1/2+x,1/2-y,1/2-z
1/2-x,1/2+y,1/2-z
1/2-x,1/2-y,1/2-z
1/2+x,1/2+y,1/2-z
1/2-x,1/2+y,1/2+z
1/2+x,1/2-y,1/2+z
loop_
_atom_site_type_symbol
_atom_site_label
_atom_site_fract_x
_atom_site_fract_y
_atom_site_fract_z
Si Si1 0.284557 0.815889 0.000000
Si Si2 0.500000 0.707157 0.000000
Si Si3 0.500000 0.417707 0.793846
Si Si4 0.238879 0.587437 0.745000
Si Si5 0.641237 0.829854 0.500000
O O1 0.382787 0.753030 0.000000
O O2 0.310832 0.867552 0.876286
O O3 0.165448 0.762968 0.000000
O O4 0.500000 0.656022 0.877370
O O5 0.500000 0.500000 0.869670
O O6 0.620888 0.413806 0.714001
O O7 0.189715 0.500000 0.750709
O O8 0.200783 0.630414 0.875583
O O9 0.500000 0.842609 0.500000
#
# Coordination Sequence:
#
# PCOD8292016 Si02
#       5
#     8   4   8  16   8
#     4  12  27  42  69 101 136 172 216 280 334 390
#     4  12  23  40  69  94 134 172 228 266 335 384
#     4  10  21  41  72  96 127 174 224 277 322 385
#     4  11  25  46  68  98 134 176 223 270 329 394
#     4  12  27  44  71  96 133 177 222 271 328 393
#
# _framework density 21.437612999999999
#
# number of rings (size 3 to 8) (size 9 to 14) (size 15 to 20)
#    0.000    0.727    3.636    2.455    5.091    4.364 
#    0.000    3.636    0.000    0.000    0.000    0.000 
#    0.000    0.000    0.000    0.000    0.000    0.000 
#
# Total GULP energy -272549.603498 kJ/mol
# GULP energy per Si atom -12388.618341 kJ/mol
# Density = 2.138882 g / cm^3
# Si number density = 21.437613 Si / 1000 Ang^3
#
#
#
# Elastic Constant Matrix: (Units=GPa)
#
#
# Indices 1 2 3 4 5 6 
#
# 1 90.4142 10.1228 8.7105 0.0000 0.0000 0.0000
# 2 10.1228 146.0195 71.3553 0.0001 0.0000 0.0000
# 3 8.7105 71.3553 153.2653 0.0003 0.0000 0.0000
# 4 0.0000 0.0001 0.0003 67.2430 0.0000 0.0000
# 5 0.0000 0.0000 0.0000 0.0000 22.5949 0.0000
# 6 0.0000 0.0000 0.0000 0.0000 0.0000 46.6683
#
#
#
# Elastic Compliance Matrix: (Units=1/GPa)
#
#
# Indices 1 2 3 4 5 6 
#
# 1 0.011162 -0.000600 -0.000355 0.000000 0.000000 0.000000
# 2 -0.000600 0.008898 -0.004108 0.000000 0.000000 0.000000
# 3 -0.000355 -0.004108 0.008457 0.000000 0.000000 0.000000
# 4 0.000000 0.000000 0.000000 0.014871 0.000000 0.000000
# 5 0.000000 0.000000 0.000000 0.000000 0.044258 0.000000
# 6 0.000000 0.000000 0.000000 0.000000 0.000000 0.021428
#
#
# Mechanical properties :
#
#
# Convention : Reuss Voigt Hill
#
# Bulk Modulus (GPa) = 54.37832 63.34178 58.86005
# Shear Modulus (GPa) = 39.89446 47.26861 43.58154
#
# Velocity S-wave (km/s) = 4.31856 4.70077 4.51371
# Velocity P-wave (km/s) = 7.09137 7.68597 7.39465
#
# Compressibility (1/GPa) = 0.01838968
#
# Stress axis : x y z
#
# Youngs Moduli (GPa) = 89.59275 112.38948 118.23829
#
# Poissons Ratio (x) = 0.06748 0.04195
# Poissons Ratio (y) = 0.05379 0.48576
# Poissons Ratio (z) = 0.03179 0.46173
#
# Static dielectric constant tensor:
#      x y z
#    x 4.189020 0.000000 0.000000 
#    y 0.000000 4.313900 0.000000 
#    z 0.000000 0.000000 3.678990 
# 
# 
# High freq. dielectric constant tensor:
#      x y z
#    x 1.845650 0.000000 0.000000 
#    y 0.000000 1.871700 0.000000 
#    z 0.000000 0.000000 1.827100 
# 
# From -- ./inp_files/19105.got.cif
#   From: 2010.06.25/outbox.cif.g09.slc.cpg/sg71_10_cif.got.tgz:19105.got - 2010.06.28 04:59:45.
