data_PCOD8292391
_publ_section_title
;
Structure prediction by ZEFSAII (Michael W. Deem and Ramdas Pophale) SiO2 
 PCOD8292391
Probable space group: I M M M
;
_chemical_formula_sum "Si O2"
_cell_formula_units_Z 72
_cell_length_a 22.801213
_cell_length_b 19.108166
_cell_length_c 8.632023
_cell_angle_alpha 90.000000
_cell_angle_beta 90.000000
_cell_angle_gamma 90.000000
_cell_volume 3760.880602
_symmetry_space_group_name_H-M "I M M M"
_symmetry_group_IT_number 71
_symmetry_cell_setting 'orthorhombic'
loop_
_space_group_symop_operation_xyz
x,y,z
-x,-y,z
x,-y,-z
-x,y,-z
-x,-y,-z
x,y,-z
-x,y,z
x,-y,z
1/2+x,1/2+y,1/2+z
1/2-x,1/2-y,1/2+z
1/2+x,1/2-y,1/2-z
1/2-x,1/2+y,1/2-z
1/2-x,1/2-y,1/2-z
1/2+x,1/2+y,1/2-z
1/2-x,1/2+y,1/2+z
1/2+x,1/2-y,1/2+z
loop_
_atom_site_type_symbol
_atom_site_label
_atom_site_fract_x
_atom_site_fract_y
_atom_site_fract_z
Si Si1 0.000000 0.582286 0.820226
Si Si2 0.396588 0.170162 0.183810
Si Si3 0.833522 0.921773 0.684178
Si Si4 0.065195 0.822547 0.684380
Si Si5 0.270936 0.176631 0.683321
O O1 0.058035 0.612515 0.741430
O O2 0.000000 0.500000 0.792535
O O3 0.000000 0.602135 0.000000
O O4 0.416270 0.246218 0.245524
O O5 0.333179 0.152385 0.251703
O O6 0.393712 0.168543 0.000000
O O7 0.837016 0.924238 0.500000
O O8 0.890019 0.880341 0.750543
O O9 0.774785 0.882554 0.737485
O O10 0.833527 0.000000 0.753848
O O11 0.066674 0.821894 0.500000
O O12 0.000000 0.840505 0.745142
O O13 0.273469 0.183176 0.500000
O O14 0.250000 0.250000 0.750000
#
# Coordination Sequence:
#
# PCOD8292391 Si02
#       5
#     8  16  16  16  16
#     4  11  25  43  61  87 122 157 196 242 296 360
#     4  11  21  37  61  88 116 149 196 248 297 350
#     4   9  18  32  51  79 115 150 186 236 293 342
#     4   9  16  29  52  82 111 141 182 234 285 342
#     4  11  21  35  57  85 117 156 202 247 295 353
#
# _framework density 19.144451
#
# number of rings (size 3 to 8) (size 9 to 14) (size 15 to 20)
#    0.000    1.889    3.333    1.667    0.000    2.222 
#    0.000    4.444    0.000    2.000    0.000    0.000 
#    0.000    2.667    0.000    0.000    0.000    0.000 
#
# Total GULP energy -446445.093118 kJ/mol
# GULP energy per Si atom -12401.252587 kJ/mol
# Density = 1.910088 g / cm^3
# Si number density = 19.144451 Si / 1000 Ang^3
#
#
#
# Elastic Constant Matrix: (Units=GPa)
#
#
# Indices 1 2 3 4 5 6 
#
# 1 208.0802 87.5409 37.8675 0.0000 0.0000 0.0000
# 2 87.5409 146.8653 33.0868 0.0000 0.0000 0.0000
# 3 37.8675 33.0868 51.5582 0.0000 0.0000 0.0000
# 4 0.0000 0.0000 0.0000 22.2731 0.0000 0.0000
# 5 0.0000 0.0000 0.0000 0.0000 28.6056 0.0000
# 6 0.0000 0.0000 0.0000 0.0000 0.0000 49.3988
#
#
#
# Elastic Compliance Matrix: (Units=1/GPa)
#
#
# Indices 1 2 3 4 5 6 
#
# 1 0.006737 -0.003391 -0.002772 0.000000 0.000000 0.000000
# 2 -0.003391 0.009667 -0.003713 0.000000 0.000000 0.000000
# 3 -0.002772 -0.003713 0.023814 0.000000 0.000000 0.000000
# 4 0.000000 0.000000 0.000000 0.044897 0.000000 0.000000
# 5 0.000000 0.000000 0.000000 0.000000 0.034958 0.000000
# 6 0.000000 0.000000 0.000000 0.000000 0.000000 0.020243
#
#
# Mechanical properties :
#
#
# Convention : Reuss Voigt Hill
#
# Bulk Modulus (GPa) = 48.86128 80.38824 64.62476
# Shear Modulus (GPa) = 29.95984 36.58941 33.27463
#
# Velocity S-wave (km/s) = 3.96022 4.37650 4.17355
# Velocity P-wave (km/s) = 6.81828 8.22313 7.55344
#
# Compressibility (1/GPa) = 0.02046610
#
# Stress axis : x y z
#
# Youngs Moduli (GPa) = 148.43473 103.44700 41.99217
#
# Poissons Ratio (x) = 0.35081 0.11639
# Poissons Ratio (y) = 0.50337 0.15591
# Poissons Ratio (z) = 0.41143 0.38408
#
# Static dielectric constant tensor:
#      x y z
#    x 3.853540 0.000000 0.000000 
#    y 0.000000 3.644390 0.000000 
#    z 0.000000 0.000000 3.195790 
# 
# 
# High freq. dielectric constant tensor:
#      x y z
#    x 1.765630 0.000000 0.000000 
#    y 0.000000 1.745470 0.000000 
#    z 0.000000 0.000000 1.710240 
# 
# From -- ./inp_files/7917.got.cif
#   From: 2010.06.25/outbox.cif.g09.slc.cpg/sg71_4_cif.got.tgz:7917.got - 2010.06.28 04:59:45.
