data_PCOD8292811
_publ_section_title
;
Structure prediction by ZEFSAII (Michael W. Deem and Ramdas Pophale) SiO2 
 PCOD8292811
Probable space group: I B A M
;
_chemical_formula_sum "Si O2"
_cell_formula_units_Z 112
_cell_length_a 18.320893
_cell_length_b 14.048757
_cell_length_c 24.234492
_cell_angle_alpha 90.000000
_cell_angle_beta 90.000000
_cell_angle_gamma 90.000000
_cell_volume 6237.613476
_symmetry_space_group_name_H-M "I B A M"
_symmetry_group_IT_number 72
_symmetry_cell_setting 'orthorhombic'
loop_
_space_group_symop_operation_xyz
x,y,z
-x,-y,z
x,-y,1/2-z
-x,y,1/2-z
-x,-y,-z
x,y,-z
-x,y,1/2+z
x,-y,1/2+z
1/2+x,1/2+y,1/2+z
1/2-x,1/2-y,1/2+z
1/2+x,1/2-y,-z
1/2-x,1/2+y,-z
1/2-x,1/2-y,1/2-z
1/2+x,1/2+y,1/2-z
1/2-x,1/2+y,z
1/2+x,1/2-y,z
loop_
_atom_site_type_symbol
_atom_site_label
_atom_site_fract_x
_atom_site_fract_y
_atom_site_fract_z
Si Si1 0.695114 0.776976 0.797150
Si Si2 0.159922 0.744586 0.435596
Si Si3 0.040220 0.634384 0.385509
Si Si4 0.749960 0.113753 0.141689
Si Si5 0.113002 0.400265 0.778114
Si Si6 0.403305 0.059056 0.063969
Si Si7 0.252045 0.591729 0.890177
O O1 0.750000 0.750000 0.750000
O O2 0.684803 0.680130 0.833194
O O3 0.621378 0.819140 0.769583
O O4 0.733865 0.859098 0.832445
O O5 0.155208 0.725475 0.500000
O O6 0.079964 0.729061 0.408274
O O7 0.217218 0.670161 0.410214
O O8 0.185174 0.852103 0.422955
O O9 0.046570 0.628294 0.318849
O O10 0.083574 0.545574 0.412230
O O11 0.955581 0.633199 0.403124
O O12 0.687382 0.092125 0.186745
O O13 0.783053 0.014022 0.121235
O O14 0.094201 0.500000 0.750000
O O15 0.320312 0.089473 0.072266
O O16 0.424231 0.061876 0.000000
#
# Coordination Sequence:
#
# PCOD8292811 Si02
#       7
#    16  16  16  16  16  16  16
#     4   9  18  29  47  68 101 140 167 213 267 307
#     4  10  19  31  48  72 103 136 175 224 270 315
#     4  10  20  32  48  73 104 140 176 215 263 335
#     4   9  18  29  46  70 102 131 172 215 256 323
#     4  10  15  29  47  66  98 136 173 210 255 309
#     4  11  20  33  51  71 105 145 174 211 273 329
#     4  11  19  32  49  77 102 135 182 218 259 325
#
# _framework density 17.955584999999999
#
# number of rings (size 3 to 8) (size 9 to 14) (size 15 to 20)
#    0.000    2.000    4.286    3.000    0.000    0.571 
#    0.000    5.000    0.000    0.000    0.000    4.000 
#    0.000   14.857    0.000    0.000    0.000    0.000 
#
# Total GULP energy -694140.576559 kJ/mol
# GULP energy per Si atom -12395.367439 kJ/mol
# Density = 1.791472 g / cm^3
# Si number density = 17.955585 Si / 1000 Ang^3
#
#
#
# Elastic Constant Matrix: (Units=GPa)
#
#
# Indices 1 2 3 4 5 6 
#
# 1 54.2844 33.9966 15.0892 0.0000 0.0000 0.0000
# 2 33.9966 116.2364 34.2952 0.0000 0.0000 0.0000
# 3 15.0892 34.2952 103.3297 0.0000 0.0000 0.0000
# 4 0.0000 0.0000 0.0000 25.7566 0.0000 0.0000
# 5 0.0000 0.0000 0.0000 0.0000 22.7371 0.0000
# 6 0.0000 0.0000 0.0000 0.0000 0.0000 21.8588
#
#
#
# Elastic Compliance Matrix: (Units=1/GPa)
#
#
# Indices 1 2 3 4 5 6 
#
# 1 0.022693 -0.006274 -0.001232 0.000000 0.000000 0.000000
# 2 -0.006274 0.011272 -0.002825 0.000000 0.000000 0.000000
# 3 -0.001232 -0.002825 0.010795 0.000000 0.000000 0.000000
# 4 0.000000 0.000000 0.000000 0.038825 0.000000 0.000000
# 5 0.000000 0.000000 0.000000 0.000000 0.043981 0.000000
# 6 0.000000 0.000000 0.000000 0.000000 0.000000 0.045748
#
#
# Mechanical properties :
#
#
# Convention : Reuss Voigt Hill
#
# Bulk Modulus (GPa) = 41.49518 48.95693 45.22606
# Shear Modulus (GPa) = 24.75159 26.76848 25.76004
#
# Velocity S-wave (km/s) = 3.71683 3.86530 3.79179
# Velocity P-wave (km/s) = 6.44824 6.87353 6.66428
#
# Compressibility (1/GPa) = 0.02409918
#
# Stress axis : x y z
#
# Youngs Moduli (GPa) = 44.06666 88.71867 92.63392
#
# Poissons Ratio (x) = 0.55660 0.11408
# Poissons Ratio (y) = 0.27647 0.26168
# Poissons Ratio (z) = 0.05427 0.25062
#
# Static dielectric constant tensor:
#      x y z
#    x 3.142460 0.000000 0.000000 
#    y 0.000000 3.485290 0.000000 
#    z 0.000000 0.000000 2.564300 
# 
# 
# High freq. dielectric constant tensor:
#      x y z
#    x 1.648600 0.000000 0.000000 
#    y 0.000000 1.680520 0.000000 
#    z 0.000000 0.000000 1.717010 
# 
# From -- ./inp_files/45393.got.cif
#   From: 2010.03.12/outbox.cif.g09.slc.cpg/sg72_23_cif.got.tgz:45393.got - 2010.04.16 14:54:00.
