data_PCOD8292233
_publ_section_title
;
Structure prediction by ZEFSAII (Michael W. Deem and Ramdas Pophale) SiO2 
 PCOD8292233
Probable space group: I M M M
;
_chemical_formula_sum "Si O2"
_cell_formula_units_Z 80
_cell_length_a 26.297739
_cell_length_b 13.782881
_cell_length_c 14.171655
_cell_angle_alpha 90.000000
_cell_angle_beta 90.000000
_cell_angle_gamma 90.000000
_cell_volume 5136.638333
_symmetry_space_group_name_H-M "I M M M"
_symmetry_group_IT_number 71
_symmetry_cell_setting 'orthorhombic'
loop_
_space_group_symop_operation_xyz
x,y,z
-x,-y,z
x,-y,-z
-x,y,-z
-x,-y,-z
x,y,-z
-x,y,z
x,-y,z
1/2+x,1/2+y,1/2+z
1/2-x,1/2-y,1/2+z
1/2+x,1/2-y,1/2-z
1/2-x,1/2+y,1/2-z
1/2-x,1/2-y,1/2-z
1/2+x,1/2+y,1/2-z
1/2-x,1/2+y,1/2+z
1/2+x,1/2-y,1/2+z
loop_
_atom_site_type_symbol
_atom_site_label
_atom_site_fract_x
_atom_site_fract_y
_atom_site_fract_z
Si Si1 0.058834 0.888551 0.608844
Si Si2 0.197621 0.785038 0.107002
Si Si3 0.233990 0.107251 0.607418
Si Si4 0.198501 0.388201 0.390025
Si Si5 0.646366 0.285495 0.792872
O O1 0.072254 0.867601 0.500000
O O2 0.090057 0.815457 0.675488
O O3 0.000000 0.867176 0.628473
O O4 0.071876 0.000000 0.633484
O O5 0.218317 0.676713 0.123578
O O6 0.243072 0.859837 0.132013
O O7 0.150531 0.794759 0.178958
O O8 0.178065 0.801226 0.000000
O O9 0.215465 0.112500 0.500000
O O10 0.185620 0.136650 0.667413
O O11 0.251930 0.000000 0.636731
O O12 0.187375 0.368656 0.500000
O O13 0.189766 0.500000 0.362659
O O14 0.159836 0.322531 0.329537
#
# Coordination Sequence:
#
# PCOD8292233 Si02
#       5
#    16  16  16  16  16
#     4   9  18  32  49  69  89 104 125 168 223 267
#     4   9  19  30  38  57  88 119 149 177 204 237
#     4   9  16  26  42  65  90 111 136 175 216 251
#     4   9  17  28  41  61  91 120 143 169 204 250
#     4  11  18  26  45  64  82 113 149 176 204 251
#
# _framework density 15.574388000000001
#
# number of rings (size 3 to 8) (size 9 to 14) (size 15 to 20)
#    0.000    2.600    0.000    6.600    0.000    5.600 
#    0.000    0.000    0.000    1.200    0.000    4.200 
#    0.000    0.000    0.000    6.800    0.000    0.200 
#
# Total GULP energy -495892.164893 kJ/mol
# GULP energy per Si atom -12397.304122 kJ/mol
# Density = 1.553894 g / cm^3
# Si number density = 15.574388 Si / 1000 Ang^3
#
#
#
# Elastic Constant Matrix: (Units=GPa)
#
#
# Indices 1 2 3 4 5 6 
#
# 1 66.2033 38.1427 52.1512 0.0000 0.0000 0.0000
# 2 38.1427 101.2312 39.7535 0.0000 0.0000 0.0000
# 3 52.1512 39.7535 83.6828 0.0000 0.0000 0.0000
# 4 0.0000 0.0000 0.0000 9.5617 0.0000 0.0000
# 5 0.0000 0.0000 0.0000 0.0000 23.6504 0.0000
# 6 0.0000 0.0000 0.0000 0.0000 0.0000 13.6006
#
#
#
# Elastic Compliance Matrix: (Units=1/GPa)
#
#
# Indices 1 2 3 4 5 6 
#
# 1 0.031713 -0.005148 -0.017318 0.000000 0.000000 0.000000
# 2 -0.005148 0.012980 -0.002957 0.000000 0.000000 0.000000
# 3 -0.017318 -0.002957 0.024147 0.000000 0.000000 0.000000
# 4 0.000000 0.000000 0.000000 0.104584 0.000000 0.000000
# 5 0.000000 0.000000 0.000000 0.000000 0.042283 0.000000
# 6 0.000000 0.000000 0.000000 0.000000 0.000000 0.073526
#
#
# Mechanical properties :
#
#
# Convention : Reuss Voigt Hill
#
# Bulk Modulus (GPa) = 55.57843 56.80134 56.18988
# Shear Modulus (GPa) = 14.44755 17.43385 15.94070
#
# Velocity S-wave (km/s) = 3.04904 3.34936 3.20272
# Velocity P-wave (km/s) = 6.93965 7.17689 7.05927
#
# Compressibility (1/GPa) = 0.01799259
#
# Stress axis : x y z
#
# Youngs Moduli (GPa) = 31.53236 77.04369 41.41222
#
# Poissons Ratio (x) = 0.39666 0.71718
# Poissons Ratio (y) = 0.16234 0.12247
# Poissons Ratio (z) = 0.54608 0.22785
#
# Static dielectric constant tensor:
#      x y z
#    x 2.591660 0.000000 0.000000 
#    y 0.000000 3.179540 0.000000 
#    z 0.000000 0.000000 3.096090 
# 
# 
# High freq. dielectric constant tensor:
#      x y z
#    x 1.542540 0.000000 0.000000 
#    y 0.000000 1.602710 0.000000 
#    z 0.000000 0.000000 1.600920 
# 
# From -- ./inp_files/28495.got.cif
#   From: 2010.06.25/outbox.cif.g09.slc.cpg/sg71_15_cif.got.tgz:28495.got - 2010.06.28 04:59:45.
