data_PCOD8292983
_publ_section_title
;
Structure prediction by ZEFSAII (Michael W. Deem and Ramdas Pophale) SiO2 
 PCOD8292983
Probable space group: I B A M
;
_chemical_formula_sum "Si O2"
_cell_formula_units_Z 96
_cell_length_a 28.727346
_cell_length_b 25.846289
_cell_length_c 8.666512
_cell_angle_alpha 90.000000
_cell_angle_beta 90.000000
_cell_angle_gamma 90.000000
_cell_volume 6434.844314
_symmetry_space_group_name_H-M "I B A M"
_symmetry_group_IT_number 72
_symmetry_cell_setting 'orthorhombic'
loop_
_space_group_symop_operation_xyz
x,y,z
-x,-y,z
x,-y,1/2-z
-x,y,1/2-z
-x,-y,-z
x,y,-z
-x,y,1/2+z
x,-y,1/2+z
1/2+x,1/2+y,1/2+z
1/2-x,1/2-y,1/2+z
1/2+x,1/2-y,-z
1/2-x,1/2+y,-z
1/2-x,1/2-y,1/2-z
1/2+x,1/2+y,1/2-z
1/2-x,1/2+y,z
1/2+x,1/2-y,z
loop_
_atom_site_type_symbol
_atom_site_label
_atom_site_fract_x
_atom_site_fract_y
_atom_site_fract_z
Si Si1 0.138307 0.749983 0.679244
Si Si2 0.361879 0.946820 0.680824
Si Si3 0.278879 0.703990 0.678710
Si Si4 0.951352 0.398406 0.682916
Si Si5 0.308294 0.143904 0.323444
Si Si6 0.951686 0.285827 0.817837
O O1 0.127973 0.756691 0.500000
O O2 0.171004 0.797716 0.736241
O O3 0.163821 0.696055 0.717782
O O4 0.089730 0.752949 0.771254
O O5 0.370215 0.951681 0.500000
O O6 0.410825 0.936470 0.764244
O O7 0.324572 0.901817 0.712475
O O8 0.341592 0.000000 0.750000
O O9 0.287409 0.715365 0.500000
O O10 0.250000 0.750000 0.750000
O O11 0.247404 0.652397 0.701247
O O12 0.954176 0.396194 0.500000
O O13 0.940225 0.341464 0.745581
O O14 0.000000 0.419375 0.750000
O O15 0.319010 0.128376 0.500000
O O16 0.000000 0.263864 0.750000
O O17 0.955897 0.291328 0.000000
#
# Coordination Sequence:
#
# PCOD8292983 Si02
#       6
#    16  16  16  16  16  16
#     4  10  18  29  46  66  89 112 139 174 211 252
#     4  12  24  36  50  65  82 108 141 178 223 267
#     4   9  17  28  44  65  88 110 136 168 209 254
#     4  11  21  35  50  64  82 104 138 178 222 266
#     4   9  18  32  47  63  86 110 136 174 214 256
#     4  11  20  30  45  64  86 114 145 176 216 258
#
# _framework density 14.918775999999999
#
# number of rings (size 3 to 8) (size 9 to 14) (size 15 to 20)
#    0.000    1.667    1.667    7.500    0.000    3.667 
#    0.000    1.667    0.000    0.000    0.000    0.000 
#    0.000    0.000    0.000    0.000    0.000    0.833 
#
# Total GULP energy -595151.031356 kJ/mol
# GULP energy per Si atom -12398.979820 kJ/mol
# Density = 1.488482 g / cm^3
# Si number density = 14.918776 Si / 1000 Ang^3
#
#
#
# Elastic Constant Matrix: (Units=GPa)
#
#
# Indices 1 2 3 4 5 6 
#
# 1 90.6397 34.1124 44.1793 0.0000 0.0000 0.0000
# 2 34.1124 34.0362 25.6063 0.0000 0.0000 0.0000
# 3 44.1793 25.6063 125.0362 0.0000 0.0000 0.0000
# 4 0.0000 0.0000 0.0000 18.2838 0.0000 0.0000
# 5 0.0000 0.0000 0.0000 0.0000 28.7559 0.0000
# 6 0.0000 0.0000 0.0000 0.0000 0.0000 6.5162
#
#
#
# Elastic Compliance Matrix: (Units=1/GPa)
#
#
# Indices 1 2 3 4 5 6 
#
# 1 0.018794 -0.016361 -0.003290 0.000000 0.000000 0.000000
# 2 -0.016361 0.048974 -0.004249 0.000000 0.000000 0.000000
# 3 -0.003290 -0.004249 0.010030 0.000000 0.000000 0.000000
# 4 0.000000 0.000000 0.000000 0.054693 0.000000 0.000000
# 5 0.000000 0.000000 0.000000 0.000000 0.034775 0.000000
# 6 0.000000 0.000000 0.000000 0.000000 0.000000 0.153465
#
#
# Mechanical properties :
#
#
# Convention : Reuss Voigt Hill
#
# Bulk Modulus (GPa) = 33.33389 50.83425 42.08407
# Shear Modulus (GPa) = 13.20900 20.43211 16.82056
#
# Velocity S-wave (km/s) = 2.97879 3.70477 3.36143
# Velocity P-wave (km/s) = 5.85004 7.24213 6.58298
#
# Compressibility (1/GPa) = 0.02999950
#
# Stress axis : x y z
#
# Youngs Moduli (GPa) = 53.20965 20.41894 99.69882
#
# Poissons Ratio (x) = 0.33407 0.32800
# Poissons Ratio (y) = 0.87054 0.42359
# Poissons Ratio (z) = 0.17505 0.08675
#
# Static dielectric constant tensor:
#      x y z
#    x 3.232730 0.000000 0.000000 
#    y 0.000000 2.615660 0.000000 
#    z 0.000000 0.000000 3.079980 
# 
# 
# High freq. dielectric constant tensor:
#      x y z
#    x 1.572120 0.000000 0.000000 
#    y 0.000000 1.508240 0.000000 
#    z 0.000000 0.000000 1.593620 
# 
# From -- ./inp_files/7115.got.cif
#   From: 2010.03.12/outbox.cif.g09.slc.cpg/sg72_4_cif.got.tgz:7115.got - 2010.04.16 14:54:00.
