data_PCOD8292411
_publ_section_title
;
Structure prediction by ZEFSAII (Michael W. Deem and Ramdas Pophale) SiO2 
 PCOD8292411
Probable space group: I M M M
;
_chemical_formula_sum "Si O2"
_cell_formula_units_Z 72
_cell_length_a 27.399371
_cell_length_b 14.646634
_cell_length_c 10.213211
_cell_angle_alpha 90.000000
_cell_angle_beta 90.000000
_cell_angle_gamma 90.000000
_cell_volume 4098.648988
_symmetry_space_group_name_H-M "I M M M"
_symmetry_group_IT_number 71
_symmetry_cell_setting 'orthorhombic'
loop_
_space_group_symop_operation_xyz
x,y,z
-x,-y,z
x,-y,-z
-x,y,-z
-x,-y,-z
x,y,-z
-x,y,z
x,-y,z
1/2+x,1/2+y,1/2+z
1/2-x,1/2-y,1/2+z
1/2+x,1/2-y,1/2-z
1/2-x,1/2+y,1/2-z
1/2-x,1/2-y,1/2-z
1/2+x,1/2+y,1/2-z
1/2-x,1/2+y,1/2+z
1/2+x,1/2-y,1/2+z
loop_
_atom_site_type_symbol
_atom_site_label
_atom_site_fract_x
_atom_site_fract_y
_atom_site_fract_z
Si Si1 0.557435 0.395856 0.000000
Si Si2 0.632507 0.852916 0.655347
Si Si3 0.709011 0.000000 0.345508
Si Si4 0.819257 0.000000 0.657377
Si Si5 0.886916 0.839721 0.254680
Si Si6 0.945511 0.500000 0.154610
Si Si7 0.445733 0.606955 0.500000
O O1 0.575301 0.341781 0.873673
O O2 0.578504 0.500000 0.000000
O O3 0.500000 0.398894 0.000000
O O4 0.632433 0.832598 0.500000
O O5 0.635343 0.760693 0.739078
O O6 0.583983 0.909201 0.696592
O O7 0.680134 0.909636 0.699791
O O8 0.709836 0.000000 0.500000
O O9 0.763735 0.000000 0.290426
O O10 0.843371 0.910042 0.718425
O O11 0.822606 0.000000 0.500000
O O12 0.916612 0.862745 0.125998
O O13 0.000000 0.500000 0.217602
O O14 0.949643 0.500000 0.000000
O O15 0.451451 0.500000 0.500000
O O16 0.500000 0.651598 0.500000
#
# Coordination Sequence:
#
# PCOD8292411 Si02
#       7
#     8  16   8   8  16   8   8
#     4  11  22  38  54  74 110 156 192 215 256 325
#     4   9  18  33  54  82 112 139 177 227 282 324
#     4   8  18  37  58  79 107 146 181 229 278 327
#     4  11  21  37  57  77 107 148 195 221 266 335
#     4  12  20  35  56  81 112 141 185 231 267 324
#     4   8  15  29  49  74 107 142 177 217 262 323
#     4  11  22  34  50  78 114 150 176 219 282 323
#
# _framework density 17.566763000000002
#
# number of rings (size 3 to 8) (size 9 to 14) (size 15 to 20)
#    0.000    1.889    4.444    2.000    0.000    4.444 
#    0.000    0.000    0.000    4.000    0.000    3.889 
#    0.000    0.000    0.000    0.000    0.000    0.000 
#
# Total GULP energy -446331.462659 kJ/mol
# GULP energy per Si atom -12398.096185 kJ/mol
# Density = 1.752678 g / cm^3
# Si number density = 17.566763 Si / 1000 Ang^3
#
#
#
# Elastic Constant Matrix: (Units=GPa)
#
#
# Indices 1 2 3 4 5 6 
#
# 1 156.2087 70.8555 45.5489 0.0000 0.0000 0.0000
# 2 70.8555 153.0344 44.6815 0.0000 0.0000 0.0000
# 3 45.5489 44.6815 95.1802 0.0000 0.0000 0.0000
# 4 0.0000 0.0000 0.0000 7.2836 0.0000 0.0000
# 5 0.0000 0.0000 0.0000 0.0000 20.9895 0.0000
# 6 0.0000 0.0000 0.0000 0.0000 0.0000 23.9122
#
#
#
# Elastic Compliance Matrix: (Units=1/GPa)
#
#
# Indices 1 2 3 4 5 6 
#
# 1 0.008630 -0.003233 -0.002612 0.000000 0.000000 0.000000
# 2 -0.003233 0.008784 -0.002576 0.000000 0.000000 0.000000
# 3 -0.002612 -0.002576 0.012966 0.000000 0.000000 0.000000
# 4 0.000000 0.000000 0.000000 0.137294 0.000000 0.000000
# 5 0.000000 0.000000 0.000000 0.000000 0.047643 0.000000
# 6 0.000000 0.000000 0.000000 0.000000 0.000000 0.041820
#
#
# Mechanical properties :
#
#
# Convention : Reuss Voigt Hill
#
# Bulk Modulus (GPa) = 73.87414 80.73278 77.30346
# Shear Modulus (GPa) = 17.95394 26.65957 22.30675
#
# Velocity S-wave (km/s) = 3.20040 3.89988 3.56733
# Velocity P-wave (km/s) = 7.47004 8.14471 7.81466
#
# Compressibility (1/GPa) = 0.01353654
#
# Stress axis : x y z
#
# Youngs Moduli (GPa) = 115.87710 113.84947 77.12585
#
# Poissons Ratio (x) = 0.36807 0.20146
# Poissons Ratio (y) = 0.37463 0.19869
# Poissons Ratio (z) = 0.30269 0.29330
#
# Static dielectric constant tensor:
#      x y z
#    x 3.761260 0.000000 0.000000 
#    y 0.000000 3.391830 0.000000 
#    z 0.000000 0.000000 3.001190 
# 
# 
# High freq. dielectric constant tensor:
#      x y z
#    x 1.689130 0.000000 0.000000 
#    y 0.000000 1.680800 0.000000 
#    z 0.000000 0.000000 1.650580 
# 
# From -- ./inp_files/16459.got.cif
#   From: 2010.06.25/outbox.cif.g09.slc.cpg/sg71_9_cif.got.tgz:16459.got - 2010.06.28 04:59:45.
