data_PCOD8292736
_publ_section_title
;
Structure prediction by ZEFSAII (Michael W. Deem and Ramdas Pophale) SiO2 
 PCOD8292736
Probable space group: I M M M
;
_chemical_formula_sum "Si O2"
_cell_formula_units_Z 104
_cell_length_a 28.499701
_cell_length_b 9.141917
_cell_length_c 31.938109
_cell_angle_alpha 90.000000
_cell_angle_beta 90.000000
_cell_angle_gamma 90.000000
_cell_volume 8321.215635
_symmetry_space_group_name_H-M "I M M M"
_symmetry_group_IT_number 71
_symmetry_cell_setting 'orthorhombic'
loop_
_space_group_symop_operation_xyz
x,y,z
-x,-y,z
x,-y,-z
-x,y,-z
-x,-y,-z
x,y,-z
-x,y,z
x,-y,z
1/2+x,1/2+y,1/2+z
1/2-x,1/2-y,1/2+z
1/2+x,1/2-y,1/2-z
1/2-x,1/2+y,1/2-z
1/2-x,1/2-y,1/2-z
1/2+x,1/2+y,1/2-z
1/2-x,1/2+y,1/2+z
1/2+x,1/2-y,1/2+z
loop_
_atom_site_type_symbol
_atom_site_label
_atom_site_fract_x
_atom_site_fract_y
_atom_site_fract_z
Si Si1 0.364320 0.665280 0.666843
Si Si2 0.820988 0.334499 0.761926
Si Si3 0.500000 0.826097 0.453065
Si Si4 0.592666 0.171167 0.406258
Si Si5 0.266132 0.665000 0.619286
Si Si6 0.811677 0.670137 0.047968
Si Si7 0.222689 0.165425 0.309659
O O1 0.380623 0.500000 0.676128
O O2 0.360281 0.752353 0.710500
O O3 0.402511 0.743833 0.637529
O O4 0.314603 0.666969 0.644076
O O5 0.837672 0.500000 0.753365
O O6 0.815803 0.250693 0.717898
O O7 0.771972 0.334570 0.786015
O O8 0.500000 0.760678 0.500000
O O9 0.454013 0.770375 0.428845
O O10 0.500000 0.000000 0.455549
O O11 0.635797 0.206252 0.437003
O O12 0.589854 0.000000 0.395897
O O13 0.248063 0.500000 0.612804
O O14 0.273296 0.740051 0.574251
O O15 0.227453 0.754153 0.645670
O O16 0.800684 0.500000 0.054280
O O17 0.807196 0.718562 0.000000
O O18 0.205311 0.000000 0.317104
#
# Coordination Sequence:
#
# PCOD8292736 Si02
#       7
#    16  16   8  16  16  16  16
#     4   9  16  25  35  47  63  81  99 119 146 181
#     4   9  15  22  33  48  64  81 100 119 139 168
#     4   9  16  26  41  57  67  77  99 131 165 203
#     4   9  16  26  39  52  64  78  98 126 160 198
#     4   9  16  24  33  45  61  80 101 124 149 178
#     4   9  16  25  36  48  61  78 101 129 161 196
#     4   9  15  22  32  46  64  83 100 118 141 170
#
# _framework density 12.498174000000001
#
# number of rings (size 3 to 8) (size 9 to 14) (size 15 to 20)
#    0.000    3.000    0.000    2.308    0.000    9.538 
#    0.000    0.385    0.000    1.846    0.000    0.000 
#    0.000    0.000    0.000    0.000    0.000    0.000 
#
# Total GULP energy -644705.394177 kJ/mol
# GULP energy per Si atom -12398.180657 kJ/mol
# Density = 1.246973 g / cm^3
# Si number density = 12.498174 Si / 1000 Ang^3
#
#
#
# Elastic Constant Matrix: (Units=GPa)
#
#
# Indices 1 2 3 4 5 6 
#
# 1 27.6793 26.4577 42.1854 0.0000 0.0000 0.0000
# 2 26.4577 96.0388 58.8023 0.0000 0.0000 0.0000
# 3 42.1854 58.8023 100.4919 0.0000 0.0000 0.0000
# 4 0.0000 0.0000 0.0000 21.9455 0.0000 0.0000
# 5 0.0000 0.0000 0.0000 0.0000 20.9002 0.0000
# 6 0.0000 0.0000 0.0000 0.0000 0.0000 9.1600
#
#
#
# Elastic Compliance Matrix: (Units=1/GPa)
#
#
# Indices 1 2 3 4 5 6 
#
# 1 0.100814 -0.002900 -0.040623 0.000000 0.000000 0.000000
# 2 -0.002900 0.016309 -0.008326 0.000000 0.000000 0.000000
# 3 -0.040623 -0.008326 0.031876 0.000000 0.000000 0.000000
# 4 0.000000 0.000000 0.000000 0.045567 0.000000 0.000000
# 5 0.000000 0.000000 0.000000 0.000000 0.047846 0.000000
# 6 0.000000 0.000000 0.000000 0.000000 0.000000 0.109170
#
#
# Mechanical properties :
#
#
# Convention : Reuss Voigt Hill
#
# Bulk Modulus (GPa) = 22.07502 53.23340 37.65421
# Shear Modulus (GPa) = 10.62967 16.85212 13.74090
#
# Velocity S-wave (km/s) = 2.91949 3.67600 3.31937
# Velocity P-wave (km/s) = 5.39125 7.79119 6.69956
#
# Compressibility (1/GPa) = 0.04530006
#
# Stress axis : x y z
#
# Youngs Moduli (GPa) = 9.91928 61.31563 31.37161
#
# Poissons Ratio (x) = 0.17784 1.27442
# Poissons Ratio (y) = 0.02877 0.26119
# Poissons Ratio (z) = 0.40295 0.51049
#
# Static dielectric constant tensor:
#      x y z
#    x 2.139380 0.000000 0.000000 
#    y 0.000000 2.671220 0.000000 
#    z 0.000000 0.000000 2.588350 
# 
# 
# High freq. dielectric constant tensor:
#      x y z
#    x 1.404590 0.000000 0.000000 
#    y 0.000000 1.485230 0.000000 
#    z 0.000000 0.000000 1.467570 
# 
# From -- ./inp_files/15755.got.cif
#   From: 2010.06.25/outbox.cif.g09.slc.cpg/sg71_8_cif.got.tgz:15755.got - 2010.06.28 04:59:45.
