data_PCOD8292429
_publ_section_title
;
Structure prediction by ZEFSAII (Michael W. Deem and Ramdas Pophale) SiO2 
 PCOD8292429
Probable space group: I M M M
;
_chemical_formula_sum "Si O2"
_cell_formula_units_Z 72
_cell_length_a 13.789203
_cell_length_b 19.465623
_cell_length_c 16.377425
_cell_angle_alpha 90.000000
_cell_angle_beta 90.000000
_cell_angle_gamma 90.000000
_cell_volume 4395.953526
_symmetry_space_group_name_H-M "I M M M"
_symmetry_group_IT_number 71
_symmetry_cell_setting 'orthorhombic'
loop_
_space_group_symop_operation_xyz
x,y,z
-x,-y,z
x,-y,-z
-x,y,-z
-x,-y,-z
x,y,-z
-x,y,z
x,-y,z
1/2+x,1/2+y,1/2+z
1/2-x,1/2-y,1/2+z
1/2+x,1/2-y,1/2-z
1/2-x,1/2+y,1/2-z
1/2-x,1/2-y,1/2-z
1/2+x,1/2+y,1/2-z
1/2-x,1/2+y,1/2+z
1/2+x,1/2-y,1/2+z
loop_
_atom_site_type_symbol
_atom_site_label
_atom_site_fract_x
_atom_site_fract_y
_atom_site_fract_z
Si Si1 0.294871 0.225256 0.906927
Si Si2 0.296104 0.370432 0.180187
Si Si3 0.388624 0.500000 0.903419
Si Si4 0.606337 0.692844 0.672648
Si Si5 0.393216 0.161885 0.760014
O O1 0.303479 0.303172 0.876019
O O2 0.183782 0.198382 0.900416
O O3 0.361928 0.174156 0.853931
O O4 0.329689 0.221234 0.000000
O O5 0.332472 0.433769 0.128141
O O6 0.362184 0.363765 0.260858
O O7 0.185184 0.383671 0.210605
O O8 0.500000 0.500000 0.873229
O O9 0.383698 0.500000 0.000000
O O10 0.500000 0.674064 0.637269
O O11 0.603959 0.764518 0.718702
O O12 0.500000 0.126861 0.757161
#
# Coordination Sequence:
#
# PCOD8292429 Si02
#       5
#    16  16   8  16  16
#     4   9  16  25  41  67  94 116 139 177 227 266
#     4   9  17  30  44  60  90 124 151 178 208 252
#     4  11  22  32  45  67  92 119 149 177 207 247
#     4   8  14  26  43  61  83 114 150 183 218 262
#     4   8  15  28  45  62  81 112 151 186 221 260
#
# _framework density 16.378699000000001
#
# number of rings (size 3 to 8) (size 9 to 14) (size 15 to 20)
#    0.000    3.222    0.000    4.000    0.000    1.778 
#    0.000    0.556    0.000    2.667    0.000   12.444 
#    0.000   28.444    0.000    0.000    0.000    0.000 
#
# Total GULP energy -446088.762915 kJ/mol
# GULP energy per Si atom -12391.354525 kJ/mol
# Density = 1.634142 g / cm^3
# Si number density = 16.378699 Si / 1000 Ang^3
#
#
#
# Elastic Constant Matrix: (Units=GPa)
#
#
# Indices 1 2 3 4 5 6 
#
# 1 136.8641 32.7150 28.9880 0.0000 0.0000 0.0000
# 2 32.7150 45.7376 20.4414 0.0001 0.0000 0.0000
# 3 28.9880 20.4414 78.7423 0.0001 0.0000 0.0000
# 4 0.0000 0.0001 0.0001 20.7374 0.0000 0.0000
# 5 0.0000 0.0000 0.0000 0.0000 16.6955 0.0000
# 6 0.0000 0.0000 0.0000 0.0000 0.0000 12.4446
#
#
#
# Elastic Compliance Matrix: (Units=1/GPa)
#
#
# Indices 1 2 3 4 5 6 
#
# 1 0.009050 -0.005638 -0.001868 0.000000 0.000000 0.000000
# 2 -0.005638 0.028246 -0.005257 0.000000 0.000000 0.000000
# 3 -0.001868 -0.005257 0.014752 0.000000 0.000000 0.000000
# 4 0.000000 0.000000 0.000000 0.048222 0.000000 0.000000
# 5 0.000000 0.000000 0.000000 0.000000 0.059896 0.000000
# 6 0.000000 0.000000 0.000000 0.000000 0.000000 0.080356
#
#
# Mechanical properties :
#
#
# Convention : Reuss Voigt Hill
#
# Bulk Modulus (GPa) = 37.70496 47.29253 42.49875
# Shear Modulus (GPa) = 18.18912 21.92214 20.05563
#
# Velocity S-wave (km/s) = 3.33608 3.66246 3.50307
# Velocity P-wave (km/s) = 6.15711 6.84265 6.50891
#
# Compressibility (1/GPa) = 0.02652171
#
# Stress axis : x y z
#
# Youngs Moduli (GPa) = 110.49862 35.40284 67.78733
#
# Poissons Ratio (x) = 0.19961 0.12662
# Poissons Ratio (y) = 0.62303 0.35636
# Poissons Ratio (z) = 0.20640 0.18611
#
# Static dielectric constant tensor:
#      x y z
#    x 3.790050 0.000000 0.000000 
#    y 0.000000 2.620390 0.000000 
#    z 0.000000 0.000000 2.906950 
# 
# 
# High freq. dielectric constant tensor:
#      x y z
#    x 1.646780 0.000000 0.000000 
#    y 0.000000 1.577330 0.000000 
#    z 0.000000 0.000000 1.617670 
# 
# From -- ./inp_files/34057.got.cif
#   From: 2010.06.25/outbox.cif.g09.slc.cpg/sg71_18_cif.got.tgz:34057.got - 2010.06.28 04:59:45.
