data_PCOD8292404
_publ_section_title
;
Structure prediction by ZEFSAII (Michael W. Deem and Ramdas Pophale) SiO2 
 PCOD8292404
Probable space group: I M M M
;
_chemical_formula_sum "Si O2"
_cell_formula_units_Z 72
_cell_length_a 17.964119
_cell_length_b 26.000875
_cell_length_c 7.706479
_cell_angle_alpha 90.000000
_cell_angle_beta 90.000000
_cell_angle_gamma 90.000000
_cell_volume 3599.563887
_symmetry_space_group_name_H-M "I M M M"
_symmetry_group_IT_number 71
_symmetry_cell_setting 'orthorhombic'
loop_
_space_group_symop_operation_xyz
x,y,z
-x,-y,z
x,-y,-z
-x,y,-z
-x,-y,-z
x,y,-z
-x,y,z
x,-y,z
1/2+x,1/2+y,1/2+z
1/2-x,1/2-y,1/2+z
1/2+x,1/2-y,1/2-z
1/2-x,1/2+y,1/2-z
1/2-x,1/2-y,1/2-z
1/2+x,1/2+y,1/2-z
1/2-x,1/2+y,1/2+z
1/2+x,1/2-y,1/2+z
loop_
_atom_site_type_symbol
_atom_site_label
_atom_site_fract_x
_atom_site_fract_y
_atom_site_fract_z
Si Si1 0.411703 0.388915 0.500000
Si Si2 0.087029 0.698640 0.699966
Si Si3 0.674665 0.902506 0.803397
Si Si4 0.087884 0.226382 0.000000
Si Si5 0.587575 0.000000 0.301109
Si Si6 0.673005 0.440832 0.193264
O O1 0.500000 0.389546 0.500000
O O2 0.378634 0.330971 0.500000
O O3 0.385142 0.417242 0.672962
O O4 0.103235 0.713931 0.500000
O O5 0.132068 0.648391 0.759328
O O6 0.114366 0.744627 0.824987
O O7 0.000000 0.686744 0.727563
O O8 0.748419 0.911217 0.691229
O O9 0.618071 0.949600 0.791623
O O10 0.701832 0.896382 0.000000
O O11 0.000000 0.222488 0.000000
O O12 0.500000 0.000000 0.280730
O O13 0.613720 0.000000 0.500000
O O14 0.688052 0.500000 0.244250
O O15 0.638767 0.436185 0.000000
#
# Coordination Sequence:
#
# PCOD8292404 Si02
#       6
#     8  16  16   8   8  16
#     4  11  25  46  71  96 117 150 205 261 320 389
#     4   9  19  35  58  88 124 167 212 253 295 345
#     4  11  21  36  59  85 124 172 212 253 299 358
#     4   9  20  39  64  90 120 159 204 260 316 357
#     4  11  23  33  49  87 129 170 221 261 293 349
#     4  11  24  42  65  93 127 165 198 245 320 384
#
# _framework density 20.002424000000001
#
# number of rings (size 3 to 8) (size 9 to 14) (size 15 to 20)
#    0.000    1.667    2.222    2.000    3.111    4.000 
#    0.000    4.444    0.000    0.000    0.000    0.000 
#    0.000    0.000    0.000    0.000    0.000    0.000 
#
# Total GULP energy -446492.948345 kJ/mol
# GULP energy per Si atom -12402.581898 kJ/mol
# Density = 1.995690 g / cm^3
# Si number density = 20.002424 Si / 1000 Ang^3
#
#
#
# Elastic Constant Matrix: (Units=GPa)
#
#
# Indices 1 2 3 4 5 6 
#
# 1 72.5804 42.8205 40.8054 0.0000 0.0000 0.0000
# 2 42.8205 123.9280 74.5724 0.0000 0.0000 0.0000
# 3 40.8054 74.5724 123.2657 0.0000 0.0000 0.0000
# 4 0.0000 0.0000 0.0000 27.9482 0.0000 0.0000
# 5 0.0000 0.0000 0.0000 0.0000 17.5991 0.0000
# 6 0.0000 0.0000 0.0000 0.0000 0.0000 8.2675
#
#
#
# Elastic Compliance Matrix: (Units=1/GPa)
#
#
# Indices 1 2 3 4 5 6 
#
# 1 0.018215 -0.004191 -0.003494 0.000000 0.000000 0.000000
# 2 -0.004191 0.013652 -0.006872 0.000000 0.000000 0.000000
# 3 -0.003494 -0.006872 0.013427 0.000000 0.000000 0.000000
# 4 0.000000 0.000000 0.000000 0.035780 0.000000 0.000000
# 5 0.000000 0.000000 0.000000 0.000000 0.056821 0.000000
# 6 0.000000 0.000000 0.000000 0.000000 0.000000 0.120956
#
#
# Mechanical properties :
#
#
# Convention : Reuss Voigt Hill
#
# Bulk Modulus (GPa) = 61.80720 70.68564 66.24642
# Shear Modulus (GPa) = 17.04392 21.53467 19.28930
#
# Velocity S-wave (km/s) = 2.92223 3.28472 3.10876
# Velocity P-wave (km/s) = 6.50791 7.05699 6.78800
#
# Compressibility (1/GPa) = 0.01617934
#
# Stress axis : x y z
#
# Youngs Moduli (GPa) = 54.89978 73.24676 74.47871
#
# Poissons Ratio (x) = 0.30698 0.26025
# Poissons Ratio (y) = 0.23009 0.51182
# Poissons Ratio (z) = 0.19184 0.50335
#
# Static dielectric constant tensor:
#      x y z
#    x 3.359440 0.000000 0.000000 
#    y 0.000000 3.788190 0.000000 
#    z 0.000000 0.000000 3.761550 
# 
# 
# High freq. dielectric constant tensor:
#      x y z
#    x 1.763500 0.000000 0.000000 
#    y 0.000000 1.780190 0.000000 
#    z 0.000000 0.000000 1.793720 
# 
# From -- ./inp_files/8027.got.cif
#   From: 2010.06.25/outbox.cif.g09.slc.cpg/sg71_5_cif.got.tgz:8027.got - 2010.06.28 04:59:45.
