data_PCOD8292717
_publ_section_title
;
Structure prediction by ZEFSAII (Michael W. Deem and Ramdas Pophale) SiO2 
 PCOD8292717
Probable space group: I M M M
;
_chemical_formula_sum "Si O2"
_cell_formula_units_Z 96
_cell_length_a 25.223981
_cell_length_b 25.367478
_cell_length_c 9.184476
_cell_angle_alpha 90.000000
_cell_angle_beta 90.000000
_cell_angle_gamma 90.000000
_cell_volume 5876.859481
_symmetry_space_group_name_H-M "I M M M"
_symmetry_group_IT_number 71
_symmetry_cell_setting 'orthorhombic'
loop_
_space_group_symop_operation_xyz
x,y,z
-x,-y,z
x,-y,-z
-x,y,-z
-x,-y,-z
x,y,-z
-x,y,z
x,-y,z
1/2+x,1/2+y,1/2+z
1/2-x,1/2-y,1/2+z
1/2+x,1/2-y,1/2-z
1/2-x,1/2+y,1/2-z
1/2-x,1/2-y,1/2-z
1/2+x,1/2+y,1/2-z
1/2-x,1/2+y,1/2+z
1/2+x,1/2-y,1/2+z
loop_
_atom_site_type_symbol
_atom_site_label
_atom_site_fract_x
_atom_site_fract_y
_atom_site_fract_z
Si Si1 0.439408 0.102173 0.669157
Si Si2 0.437096 0.500000 0.163901
Si Si3 0.561333 0.396260 0.328540
Si Si4 0.755070 0.304893 0.330566
Si Si5 0.355342 0.810925 0.671363
Si Si6 0.638390 0.307609 0.331861
Si Si7 0.063048 0.500000 0.335803
O O1 0.434777 0.088159 0.500000
O O2 0.500000 0.114286 0.713372
O O3 0.405903 0.153699 0.710133
O O4 0.415843 0.052332 0.756040
O O5 0.500000 0.500000 0.162513
O O6 0.417144 0.551699 0.248404
O O7 0.414196 0.500000 0.000000
O O8 0.570450 0.404520 0.500000
O O9 0.500000 0.384922 0.292988
O O10 0.595219 0.347313 0.263548
O O11 0.768003 0.296687 0.500000
O O12 0.750000 0.250000 0.250000
O O13 0.803718 0.335663 0.253349
O O14 0.697489 0.332488 0.310296
O O15 0.342961 0.810212 0.500000
O O16 0.366336 0.751763 0.732884
O O17 0.624260 0.302029 0.500000
O O18 0.084573 0.500000 0.500000
O O19 0.000000 0.500000 0.328833
#
# Coordination Sequence:
#
# PCOD8292717 Si02
#       7
#    16   8  16  16  16  16   8
#     4   9  17  29  46  67  91 119 148 179 219 267
#     4   9  17  29  43  60  85 114 143 176 212 251
#     4   9  16  27  45  66  86 111 143 176 211 254
#     4   9  16  28  45  63  86 117 152 185 217 256
#     4   9  17  29  45  67  93 118 146 180 219 264
#     4   8  15  27  43  65  90 113 140 176 214 253
#     4   9  17  29  45  64  87 116 151 188 220 255
#
# _framework density 16.335255
#
# number of rings (size 3 to 8) (size 9 to 14) (size 15 to 20)
#    0.000    3.167    0.000    2.000    0.000    3.333 
#    0.000    7.500    0.000    1.000    0.000    5.833 
#    0.000    0.000    0.000    0.000    0.000    0.000 
#
# Total GULP energy -594839.673177 kJ/mol
# GULP energy per Si atom -12392.493191 kJ/mol
# Density = 1.629808 g / cm^3
# Si number density = 16.335255 Si / 1000 Ang^3
#
#
#
# Elastic Constant Matrix: (Units=GPa)
#
#
# Indices 1 2 3 4 5 6 
#
# 1 92.2222 63.7307 40.4421 0.0000 0.0000 0.0000
# 2 63.7307 112.0521 41.1110 0.0000 0.0000 0.0000
# 3 40.4421 41.1110 61.8468 0.0000 0.0000 0.0000
# 4 0.0000 0.0000 0.0000 16.0164 0.0000 0.0000
# 5 0.0000 0.0000 0.0000 0.0000 21.9723 0.0000
# 6 0.0000 0.0000 0.0000 0.0000 0.0000 6.3629
#
#
#
# Elastic Compliance Matrix: (Units=1/GPa)
#
#
# Indices 1 2 3 4 5 6 
#
# 1 0.020100 -0.008742 -0.007333 0.000000 0.000000 0.000000
# 2 -0.008742 0.015605 -0.004657 0.000000 0.000000 0.000000
# 3 -0.007333 -0.004657 0.024059 0.000000 0.000000 0.000000
# 4 0.000000 0.000000 0.000000 0.062436 0.000000 0.000000
# 5 0.000000 0.000000 0.000000 0.000000 0.045512 0.000000
# 6 0.000000 0.000000 0.000000 0.000000 0.000000 0.157162
#
#
# Mechanical properties :
#
#
# Convention : Reuss Voigt Hill
#
# Bulk Modulus (GPa) = 54.63891 61.85431 58.24661
# Shear Modulus (GPa) = 13.42511 16.92613 15.17562
#
# Velocity S-wave (km/s) = 2.86990 3.22245 3.05127
# Velocity P-wave (km/s) = 6.67105 7.19676 6.93888
#
# Compressibility (1/GPa) = 0.01830197
#
# Stress axis : x y z
#
# Youngs Moduli (GPa) = 49.75112 64.08261 41.56408
#
# Poissons Ratio (x) = 0.56020 0.30478
# Poissons Ratio (y) = 0.43491 0.19355
# Poissons Ratio (z) = 0.36481 0.29841
#
# Static dielectric constant tensor:
#      x y z
#    x 3.526970 0.000000 0.000000 
#    y 0.000000 3.166020 0.000000 
#    z 0.000000 0.000000 3.111460 
# 
# 
# High freq. dielectric constant tensor:
#      x y z
#    x 1.615000 0.000000 0.000000 
#    y 0.000000 1.610510 0.000000 
#    z 0.000000 0.000000 1.617480 
# 
# From -- ./inp_files/13168.got.cif
#   From: 2010.06.25/outbox.cif.g09.slc.cpg/sg71_7_cif.got.tgz:13168.got - 2010.06.28 04:59:45.
