data_PCOD8292526
_publ_section_title
;
Structure prediction by ZEFSAII (Michael W. Deem and Ramdas Pophale) SiO2 
 PCOD8292526
Probable space group: I M M M
;
_chemical_formula_sum "Si O2"
_cell_formula_units_Z 88
_cell_length_a 28.115791
_cell_length_b 17.402277
_cell_length_c 9.522674
_cell_angle_alpha 90.000000
_cell_angle_beta 90.000000
_cell_angle_gamma 90.000000
_cell_volume 4659.242346
_symmetry_space_group_name_H-M "I M M M"
_symmetry_group_IT_number 71
_symmetry_cell_setting 'orthorhombic'
loop_
_space_group_symop_operation_xyz
x,y,z
-x,-y,z
x,-y,-z
-x,y,-z
-x,-y,-z
x,y,-z
-x,y,z
x,-y,z
1/2+x,1/2+y,1/2+z
1/2-x,1/2-y,1/2+z
1/2+x,1/2-y,1/2-z
1/2-x,1/2+y,1/2-z
1/2-x,1/2-y,1/2-z
1/2+x,1/2+y,1/2-z
1/2-x,1/2+y,1/2+z
1/2+x,1/2-y,1/2+z
loop_
_atom_site_type_symbol
_atom_site_label
_atom_site_fract_x
_atom_site_fract_y
_atom_site_fract_z
Si Si1 0.415458 0.091190 0.343166
Si Si2 0.052491 0.091236 0.658429
Si Si3 0.359045 0.588413 0.336601
Si Si4 0.737840 0.673468 0.334232
Si Si5 0.500000 0.091989 0.842970
Si Si6 0.810450 0.409704 0.844915
O O1 0.430481 0.116127 0.500000
O O2 0.453331 0.125660 0.233884
O O3 0.362845 0.123626 0.308339
O O4 0.415556 0.000000 0.331287
O O5 0.062535 0.119217 0.500000
O O6 0.094742 0.122408 0.757219
O O7 0.000000 0.120938 0.707389
O O8 0.052490 0.000000 0.665424
O O9 0.370637 0.592505 0.500000
O O10 0.347661 0.500000 0.292456
O O11 0.314668 0.642699 0.297851
O O12 0.744399 0.685843 0.500000
O O13 0.750000 0.750000 0.250000
O O14 0.774837 0.610548 0.279553
O O15 0.500000 0.000000 0.840458
O O16 0.500000 0.124418 0.000000
O O17 0.814019 0.500000 0.854762
O O18 0.794656 0.377960 0.000000
#
# Coordination Sequence:
#
# PCOD8292526 Si02
#       6
#    16  16  16  16   8  16
#     4   8  14  25  41  62  90 123 155 189 234 288
#     4   8  14  25  43  71 105 135 163 198 242 294
#     4   9  18  32  50  74 103 134 169 209 253 302
#     4  11  23  37  52  72 100 135 174 215 259 305
#     4   9  15  21  33  59  93 123 153 191 234 281
#     4   9  18  33  53  76 100 128 165 207 252 304
#
# _framework density 18.88719
#
# number of rings (size 3 to 8) (size 9 to 14) (size 15 to 20)
#    0.000    3.000    0.000    3.000    0.000    4.727 
#    0.000    5.455    0.000    0.000    2.364    0.000 
#    0.000    0.000    0.000    0.000    0.000    0.000 
#
# Total GULP energy -545269.772758 kJ/mol
# GULP energy per Si atom -12392.494835 kJ/mol
# Density = 1.884420 g / cm^3
# Si number density = 18.887190 Si / 1000 Ang^3
#
#
#
# Elastic Constant Matrix: (Units=GPa)
#
#
# Indices 1 2 3 4 5 6 
#
# 1 175.6003 34.0046 102.5668 0.0000 0.0000 0.0000
# 2 34.0046 30.0978 26.3624 0.0000 0.0000 0.0000
# 3 102.5668 26.3624 122.9879 0.0000 0.0000 0.0000
# 4 0.0000 0.0000 0.0000 19.7396 0.0000 0.0000
# 5 0.0000 0.0000 0.0000 0.0000 37.9468 0.0000
# 6 0.0000 0.0000 0.0000 0.0000 0.0000 6.8823
#
#
#
# Elastic Compliance Matrix: (Units=1/GPa)
#
#
# Indices 1 2 3 4 5 6 
#
# 1 0.011883 -0.005842 -0.008658 0.000000 0.000000 0.000000
# 2 -0.005842 0.043777 -0.004511 0.000000 0.000000 0.000000
# 3 -0.008658 -0.004511 0.016318 0.000000 0.000000 0.000000
# 4 0.000000 0.000000 0.000000 0.050660 0.000000 0.000000
# 5 0.000000 0.000000 0.000000 0.000000 0.026353 0.000000
# 6 0.000000 0.000000 0.000000 0.000000 0.000000 0.145301
#
#
# Mechanical properties :
#
#
# Convention : Reuss Voigt Hill
#
# Bulk Modulus (GPa) = 29.45028 72.72817 51.08922
# Shear Modulus (GPa) = 14.55044 23.96388 19.25716
#
# Velocity S-wave (km/s) = 2.77859 3.56587 3.19656
# Velocity P-wave (km/s) = 5.09124 7.45279 6.38219
#
# Compressibility (1/GPa) = 0.03395554
#
# Stress axis : x y z
#
# Youngs Moduli (GPa) = 84.15452 22.84295 61.28214
#
# Poissons Ratio (x) = 0.13345 0.53055
# Poissons Ratio (y) = 0.49165 0.27647
# Poissons Ratio (z) = 0.72857 0.10305
#
# Static dielectric constant tensor:
#      x y z
#    x 4.151190 0.000000 0.000000 
#    y 0.000000 2.740930 0.000000 
#    z 0.000000 0.000000 7.936130 
# 
# 
# High freq. dielectric constant tensor:
#      x y z
#    x 1.747980 0.000000 0.000000 
#    y 0.000000 1.678210 0.000000 
#    z 0.000000 0.000000 1.734020 
# 
# From -- ./inp_files/8838.got.cif
#   From: 2010.06.25/outbox.cif.g09.slc.cpg/sg71_5_cif.got.tgz:8838.got - 2010.06.28 04:59:45.
