data_PCOD8292517
_publ_section_title
;
Structure prediction by ZEFSAII (Michael W. Deem and Ramdas Pophale) SiO2 
 PCOD8292517
Probable space group: I M M M
;
_chemical_formula_sum "Si O2"
_cell_formula_units_Z 88
_cell_length_a 17.989630
_cell_length_b 30.080426
_cell_length_c 9.427605
_cell_angle_alpha 90.000000
_cell_angle_beta 90.000000
_cell_angle_gamma 90.000000
_cell_volume 5101.613951
_symmetry_space_group_name_H-M "I M M M"
_symmetry_group_IT_number 71
_symmetry_cell_setting 'orthorhombic'
loop_
_space_group_symop_operation_xyz
x,y,z
-x,-y,z
x,-y,-z
-x,y,-z
-x,-y,-z
x,y,-z
-x,y,z
x,-y,z
1/2+x,1/2+y,1/2+z
1/2-x,1/2-y,1/2+z
1/2+x,1/2-y,1/2-z
1/2-x,1/2+y,1/2-z
1/2-x,1/2-y,1/2-z
1/2+x,1/2+y,1/2-z
1/2-x,1/2+y,1/2+z
1/2+x,1/2-y,1/2+z
loop_
_atom_site_type_symbol
_atom_site_label
_atom_site_fract_x
_atom_site_fract_y
_atom_site_fract_z
Si Si1 0.916471 0.000000 0.833088
Si Si2 0.079889 0.830565 0.336449
Si Si3 0.307419 0.885270 0.661110
Si Si4 0.586333 0.949501 0.833785
Si Si5 0.644868 0.576204 0.842978
Si Si6 0.766555 0.794847 0.669648
O O1 0.872015 0.957695 0.780500
O O2 0.000000 0.000000 0.771940
O O3 0.916330 0.000000 0.000000
O O4 0.077374 0.817264 0.500000
O O5 0.089398 0.883098 0.320049
O O6 0.151263 0.806487 0.269622
O O7 0.000000 0.817108 0.265620
O O8 0.337087 0.885733 0.500000
O O9 0.367128 0.911096 0.756100
O O10 0.229826 0.910161 0.672401
O O11 0.292590 0.833917 0.709779
O O12 0.500000 0.941531 0.798188
O O13 0.608792 0.000000 0.786148
O O14 0.601135 0.944306 0.000000
O O15 0.631993 0.555663 0.000000
O O16 0.766785 0.788682 0.500000
O O17 0.750000 0.750000 0.750000
#
# Coordination Sequence:
#
# PCOD8292517 Si02
#       6
#     8  16  16  16  16  16
#     4  11  23  33  41  63 100 133 160 195 239 282
#     4   8  14  28  51  73  91 118 160 203 238 277
#     4   9  19  34  52  76 102 129 167 211 252 301
#     4   9  19  35  53  75 104 137 174 215 259 310
#     4   9  18  32  50  70  92 124 165 203 237 282
#     4   9  18  33  52  75 102 129 161 205 254 304
#
# _framework density 17.249444
#
# number of rings (size 3 to 8) (size 9 to 14) (size 15 to 20)
#    0.000    3.000    0.000    3.545    1.273    3.636 
#    0.000    4.545    0.000    4.909    0.000    0.000 
#    0.000    0.000    0.000    0.000    0.000    0.000 
#
# Total GULP energy -545149.546905 kJ/mol
# GULP energy per Si atom -12389.762430 kJ/mol
# Density = 1.721018 g / cm^3
# Si number density = 17.249444 Si / 1000 Ang^3
#
#
#
# Elastic Constant Matrix: (Units=GPa)
#
#
# Indices 1 2 3 4 5 6 
#
# 1 97.1367 65.6743 39.3619 0.0010 0.0002 0.0003
# 2 65.6743 125.0740 52.9826 0.0001 0.0001 0.0003
# 3 39.3619 52.9826 55.0506 0.0013 0.0047 0.0018
# 4 0.0010 0.0001 0.0013 32.1574 0.0012 0.0003
# 5 0.0002 0.0001 0.0047 0.0012 25.4961 0.0007
# 6 0.0003 0.0003 0.0018 0.0003 0.0007 21.0606
#
#
#
# Elastic Compliance Matrix: (Units=1/GPa)
#
#
# Indices 1 2 3 4 5 6 
#
# 1 0.017074 -0.006405 -0.006044 0.000000 0.000001 0.000000
# 2 -0.006405 0.015902 -0.010724 0.000001 0.000002 0.000001
# 3 -0.006044 -0.010724 0.032808 -0.000001 -0.000006 -0.000003
# 4 0.000000 0.000001 -0.000001 0.031097 -0.000001 0.000000
# 5 0.000001 0.000002 -0.000006 -0.000001 0.039222 -0.000001
# 6 0.000000 0.000001 -0.000003 0.000000 -0.000001 0.047482
#
#
# Mechanical properties :
#
#
# Convention : Reuss Voigt Hill
#
# Bulk Modulus (GPa) = 51.44789 65.92210 58.68500
# Shear Modulus (GPa) = 21.14967 23.69233 22.42100
#
# Velocity S-wave (km/s) = 3.50538 3.71011 3.60920
# Velocity P-wave (km/s) = 6.80251 7.52683 7.17382
#
# Compressibility (1/GPa) = 0.01943714
#
# Stress axis : x y z
#
# Youngs Moduli (GPa) = 58.56697 62.88707 30.48053
#
# Poissons Ratio (x) = 0.40281 0.18422
# Poissons Ratio (y) = 0.37514 0.32688
# Poissons Ratio (z) = 0.35396 0.67442
#
# Static dielectric constant tensor:
#      x y z
#    x 3.415110 0.000000 0.000000 
#    y 0.000000 3.156000 0.000000 
#    z 0.000000 0.000000 2.987280 
# 
# 
# High freq. dielectric constant tensor:
#      x y z
#    x 1.671920 0.000000 0.000000 
#    y 0.000000 1.659250 0.000000 
#    z 0.000000 0.000000 1.641670 
# 
# From -- ./inp_files/8785.got.cif
#   From: 2010.06.25/outbox.cif.g09.slc.cpg/sg71_5_cif.got.tgz:8785.got - 2010.06.28 04:59:45.
