data_PCOD8292455
_publ_section_title
;
Structure prediction by ZEFSAII (Michael W. Deem and Ramdas Pophale) SiO2 
 PCOD8292455
Probable space group: I M M M
;
_chemical_formula_sum "Si O2"
_cell_formula_units_Z 88
_cell_length_a 29.843252
_cell_length_b 8.979371
_cell_length_c 17.977090
_cell_angle_alpha 90.000000
_cell_angle_beta 90.000000
_cell_angle_gamma 90.000000
_cell_volume 4817.386092
_symmetry_space_group_name_H-M "I M M M"
_symmetry_group_IT_number 71
_symmetry_cell_setting 'orthorhombic'
loop_
_space_group_symop_operation_xyz
x,y,z
-x,-y,z
x,-y,-z
-x,y,-z
-x,-y,-z
x,y,-z
-x,y,z
x,-y,z
1/2+x,1/2+y,1/2+z
1/2-x,1/2-y,1/2+z
1/2+x,1/2-y,1/2-z
1/2-x,1/2+y,1/2-z
1/2-x,1/2-y,1/2-z
1/2+x,1/2+y,1/2-z
1/2-x,1/2+y,1/2+z
1/2+x,1/2-y,1/2+z
loop_
_atom_site_type_symbol
_atom_site_label
_atom_site_fract_x
_atom_site_fract_y
_atom_site_fract_z
Si Si1 0.050967 0.173546 0.351995
Si Si2 0.946774 0.330807 0.500000
Si Si3 0.644148 0.825183 0.584225
Si Si4 0.621651 0.675040 0.728320
Si Si5 0.709073 0.824997 0.207875
Si Si6 0.752588 0.666501 0.914139
O O1 0.071752 0.254601 0.424625
O O2 0.078212 0.214138 0.277550
O O3 0.000000 0.225197 0.337299
O O4 0.053701 0.000000 0.369700
O O5 0.930330 0.500000 0.500000
O O6 0.000000 0.314822 0.500000
O O7 0.631644 0.775189 0.500000
O O8 0.614250 0.735052 0.644009
O O9 0.696002 0.787205 0.601155
O O10 0.635349 0.000000 0.593327
O O11 0.631139 0.500000 0.725853
O O12 0.662626 0.759127 0.765636
O O13 0.750000 0.750000 0.250000
O O14 0.717935 0.782861 0.122020
O O15 0.708507 0.000000 0.220664
O O16 0.744716 0.500000 0.882175
O O17 0.741676 0.669063 0.000000
#
# Coordination Sequence:
#
# PCOD8292455 Si02
#       6
#    16   8  16  16  16  16
#     4   9  19  37  59  81 108 142 178 217 265 321
#     4   9  17  31  55  85 111 137 175 221 265 311
#     4   9  18  33  54  78 105 139 176 218 266 314
#     4  11  22  35  55  82 107 138 179 221 268 317
#     4  12  23  35  52  75 107 142 177 217 262 312
#     4   9  18  34  54  74 100 137 178 219 261 307
#
# _framework density 18.267167000000001
#
# number of rings (size 3 to 8) (size 9 to 14) (size 15 to 20)
#    0.000    2.091    1.818    3.545    0.000    3.273 
#    1.636    1.818    0.000    0.545    0.000    3.818 
#    0.000    0.000    0.000    0.000    0.000    0.000 
#
# Total GULP energy -545509.582250 kJ/mol
# GULP energy per Si atom -12397.945051 kJ/mol
# Density = 1.822559 g / cm^3
# Si number density = 18.267167 Si / 1000 Ang^3
#
#
#
# Elastic Constant Matrix: (Units=GPa)
#
#
# Indices 1 2 3 4 5 6 
#
# 1 66.8526 44.6475 54.5254 0.0000 0.0000 0.0000
# 2 44.6475 101.1304 70.5153 0.0000 0.0000 0.0000
# 3 54.5254 70.5153 146.8154 0.0000 0.0000 0.0000
# 4 0.0000 0.0000 0.0000 36.9298 0.0000 0.0000
# 5 0.0000 0.0000 0.0000 0.0000 28.3808 0.0000
# 6 0.0000 0.0000 0.0000 0.0000 0.0000 21.3199
#
#
#
# Elastic Compliance Matrix: (Units=1/GPa)
#
#
# Indices 1 2 3 4 5 6 
#
# 1 0.024075 -0.006607 -0.005768 0.000000 0.000000 0.000000
# 2 -0.006607 0.016680 -0.005558 0.000000 0.000000 0.000000
# 3 -0.005768 -0.005558 0.011623 0.000000 0.000000 0.000000
# 4 0.000000 0.000000 0.000000 0.027078 0.000000 0.000000
# 5 0.000000 0.000000 0.000000 0.000000 0.035235 0.000000
# 6 0.000000 0.000000 0.000000 0.000000 0.000000 0.046905
#
#
# Mechanical properties :
#
#
# Convention : Reuss Voigt Hill
#
# Bulk Modulus (GPa) = 60.55861 72.68607 66.62234
# Shear Modulus (GPa) = 24.63465 27.00010 25.81737
#
# Velocity S-wave (km/s) = 3.67628 3.84873 3.76349
# Velocity P-wave (km/s) = 7.15847 7.72187 7.44550
#
# Compressibility (1/GPa) = 0.01651293
#
# Stress axis : x y z
#
# Youngs Moduli (GPa) = 41.53671 59.95040 86.03791
#
# Poissons Ratio (x) = 0.39610 0.49625
# Poissons Ratio (y) = 0.27444 0.47818
# Poissons Ratio (z) = 0.23958 0.33319
#
# Static dielectric constant tensor:
#      x y z
#    x 3.472680 0.000000 0.000000 
#    y 0.000000 3.657040 0.000000 
#    z 0.000000 0.000000 3.565400 
# 
# 
# High freq. dielectric constant tensor:
#      x y z
#    x 1.666980 0.000000 0.000000 
#    y 0.000000 1.709050 0.000000 
#    z 0.000000 0.000000 1.726320 
# 
# From -- ./inp_files/49262.got.cif
#   From: 2010.06.25/outbox.cif.g09.slc.cpg/sg71_25_cif.got.tgz:49262.got - 2010.06.28 04:59:45.
