data_PCOD8292174
_publ_section_title
;
Structure prediction by ZEFSAII (Michael W. Deem and Ramdas Pophale) SiO2 
 PCOD8292174
Probable space group: I M M M
;
_chemical_formula_sum "Si O2"
_cell_formula_units_Z 56
_cell_length_a 10.272924
_cell_length_b 13.263013
_cell_length_c 23.809169
_cell_angle_alpha 90.000000
_cell_angle_beta 90.000000
_cell_angle_gamma 90.000000
_cell_volume 3243.997480
_symmetry_space_group_name_H-M "I M M M"
_symmetry_group_IT_number 71
_symmetry_cell_setting 'orthorhombic'
loop_
_space_group_symop_operation_xyz
x,y,z
-x,-y,z
x,-y,-z
-x,y,-z
-x,-y,-z
x,y,-z
-x,y,z
x,-y,z
1/2+x,1/2+y,1/2+z
1/2-x,1/2-y,1/2+z
1/2+x,1/2-y,1/2-z
1/2-x,1/2+y,1/2-z
1/2-x,1/2-y,1/2-z
1/2+x,1/2+y,1/2-z
1/2-x,1/2+y,1/2+z
1/2+x,1/2-y,1/2+z
loop_
_atom_site_type_symbol
_atom_site_label
_atom_site_fract_x
_atom_site_fract_y
_atom_site_fract_z
Si Si1 0.000000 0.500000 0.721198
Si Si2 0.000000 0.228259 0.178437
Si Si3 0.000000 0.718083 0.688257
Si Si4 0.000000 0.000000 0.814707
Si Si5 0.766430 0.169475 0.354591
Si Si6 0.347871 0.500000 0.933989
Si Si7 0.274944 0.500000 0.770194
O O1 0.000000 0.598285 0.683537
O O2 0.877736 0.500000 0.761697
O O3 0.000000 0.240687 0.246725
O O4 0.876173 0.283627 0.151290
O O5 0.000000 0.111054 0.155908
O O6 0.874117 0.744362 0.650967
O O7 0.137350 0.000000 0.784016
O O8 0.778390 0.101551 0.410753
O O9 0.809656 0.099949 0.303128
O O10 0.500000 0.500000 0.916648
O O11 0.328441 0.500000 0.000000
#
# Coordination Sequence:
#
# PCOD8292174 Si02
#       7
#     4   8   8   4  16   8   8
#     4  12  22  28  46  72 110 150 192 222 252 322
#     4  12  22  34  50  81 120 158 195 227 277 337
#     4  12  20  34  48  77 110 164 191 221 271 337
#     4  12  22  30  50  72 112 164 190 214 252 344
#     4  11  21  35  55  80 113 150 187 237 288 333
#     4  10  22  42  67  89 107 141 195 249 300 351
#     4  11  18  30  47  73 104 151 190 217 267 322
#
# _framework density 17.262651999999999
#
# number of rings (size 3 to 8) (size 9 to 14) (size 15 to 20)
#    0.000    0.714    7.143    2.571    2.000    1.714 
#    0.000    1.429    0.000    0.000    0.000    6.000 
#    0.000    0.000    0.000    0.000    0.000    0.000 
#
# Total GULP energy -346904.688911 kJ/mol
# GULP energy per Si atom -12389.453175 kJ/mol
# Density = 1.722336 g / cm^3
# Si number density = 17.262652 Si / 1000 Ang^3
#
#
#
# Elastic Constant Matrix: (Units=GPa)
#
#
# Indices 1 2 3 4 5 6 
#
# 1 123.1228 33.4712 38.0059 0.0000 0.0000 0.0000
# 2 33.4712 137.5674 36.4609 0.0000 0.0000 0.0000
# 3 38.0059 36.4609 67.0570 0.0000 0.0000 0.0000
# 4 0.0000 0.0000 0.0000 37.1634 0.0000 0.0000
# 5 0.0000 0.0000 0.0000 0.0000 12.8934 0.0000
# 6 0.0000 0.0000 0.0000 0.0000 0.0000 22.7555
#
#
#
# Elastic Compliance Matrix: (Units=1/GPa)
#
#
# Indices 1 2 3 4 5 6 
#
# 1 0.009981 -0.001086 -0.005067 0.000000 0.000000 0.000000
# 2 -0.001086 0.008611 -0.004067 0.000000 0.000000 0.000000
# 3 -0.005067 -0.004067 0.019996 0.000000 0.000000 0.000000
# 4 0.000000 0.000000 0.000000 0.026908 0.000000 0.000000
# 5 0.000000 0.000000 0.000000 0.000000 0.077559 0.000000
# 6 0.000000 0.000000 0.000000 0.000000 0.000000 0.043945
#
#
# Mechanical properties :
#
#
# Convention : Reuss Voigt Hill
#
# Bulk Modulus (GPa) = 55.09780 60.40256 57.75018
# Shear Modulus (GPa) = 23.42045 29.21642 26.31843
#
# Velocity S-wave (km/s) = 3.68735 4.11842 3.90883
# Velocity P-wave (km/s) = 7.07922 7.59483 7.34155
#
# Compressibility (1/GPa) = 0.01814955
#
# Stress axis : x y z
#
# Youngs Moduli (GPa) = 100.18932 116.12811 50.01092
#
# Poissons Ratio (x) = 0.12607 0.25339
# Poissons Ratio (y) = 0.10876 0.20339
# Poissons Ratio (z) = 0.50763 0.47228
#
# Static dielectric constant tensor:
#      x y z
#    x 3.230670 0.000000 0.000000 
#    y 0.000000 3.657620 0.000000 
#    z 0.000000 0.000000 2.729070 
# 
# 
# High freq. dielectric constant tensor:
#      x y z
#    x 1.690900 0.000000 0.000000 
#    y 0.000000 1.687200 0.000000 
#    z 0.000000 0.000000 1.595400 
# 
# From -- ./inp_files/5425.got.cif
#   From: 2010.06.25/outbox.cif.g09.slc.cpg/sg71_3_cif.got.tgz:5425.got - 2010.06.28 04:59:45.
