data_PCOD8292419
_publ_section_title
;
Structure prediction by ZEFSAII (Michael W. Deem and Ramdas Pophale) SiO2 
 PCOD8292419
Probable space group: I M M M
;
_chemical_formula_sum "Si O2"
_cell_formula_units_Z 56
_cell_length_a 17.024220
_cell_length_b 8.503396
_cell_length_c 18.455259
_cell_angle_alpha 90.000000
_cell_angle_beta 90.000000
_cell_angle_gamma 90.000000
_cell_volume 2671.651287
_symmetry_space_group_name_H-M "I M M M"
_symmetry_group_IT_number 71
_symmetry_cell_setting 'orthorhombic'
loop_
_space_group_symop_operation_xyz
x,y,z
-x,-y,z
x,-y,-z
-x,y,-z
-x,-y,-z
x,y,-z
-x,y,z
x,-y,z
1/2+x,1/2+y,1/2+z
1/2-x,1/2-y,1/2+z
1/2+x,1/2-y,1/2-z
1/2-x,1/2+y,1/2-z
1/2-x,1/2-y,1/2-z
1/2+x,1/2+y,1/2-z
1/2-x,1/2+y,1/2+z
1/2+x,1/2-y,1/2+z
loop_
_atom_site_type_symbol
_atom_site_label
_atom_site_fract_x
_atom_site_fract_y
_atom_site_fract_z
Si Si1 0.709880 0.816611 0.916493
Si Si2 0.500000 0.813170 0.419645
Si Si3 0.852428 0.315720 0.829239
Si Si4 0.910345 0.815942 0.684091
O O1 0.771760 0.717907 0.869948
O O2 0.623759 0.774536 0.885874
O O3 0.727415 0.000000 0.907648
O O4 0.714513 0.764307 0.000000
O O5 0.500000 0.740069 0.500000
O O6 0.423048 0.751275 0.378900
O O7 0.500000 0.000000 0.423635
O O8 0.860324 0.500000 0.813682
O O9 0.856704 0.225642 0.753212
O O10 0.000000 0.759569 0.696580
O O11 0.906197 0.000000 0.669020
#
# Coordination Sequence:
#
# PCOD8292419 Si02
#       4
#    16   8  16  16
#     4  11  25  43  63  90 125 164 207 256 311 368
#     4   9  18  32  55  89 124 159 198 243 297 356
#     4  11  21  38  64  92 126 163 205 254 303 366
#     4  11  24  42  65  92 124 162 207 257 309 368
#
# _framework density 20.960819000000001
#
# number of rings (size 3 to 8) (size 9 to 14) (size 15 to 20)
#    0.000    1.286    1.429    4.286    0.000    5.714 
#    0.000    2.857    0.000    3.429    0.000    0.000 
#    0.000    0.000    0.000    0.000    0.000    0.000 
#
# Total GULP energy -347385.662594 kJ/mol
# GULP energy per Si atom -12406.630807 kJ/mol
# Density = 2.091311 g / cm^3
# Si number density = 20.960819 Si / 1000 Ang^3
#
#
#
# Elastic Constant Matrix: (Units=GPa)
#
#
# Indices 1 2 3 4 5 6 
#
# 1 94.2797 16.5879 53.7630 0.0000 0.0000 0.0000
# 2 16.5879 46.5058 18.7538 0.0000 0.0000 0.0000
# 3 53.7630 18.7538 114.7994 0.0000 0.0000 0.0000
# 4 0.0000 0.0000 0.0000 31.2831 0.0000 0.0000
# 5 0.0000 0.0000 0.0000 0.0000 35.5519 0.0000
# 6 0.0000 0.0000 0.0000 0.0000 0.0000 29.1908
#
#
#
# Elastic Compliance Matrix: (Units=1/GPa)
#
#
# Indices 1 2 3 4 5 6 
#
# 1 0.014771 -0.002654 -0.006484 0.000000 0.000000 0.000000
# 2 -0.002654 0.023496 -0.002595 0.000000 0.000000 0.000000
# 3 -0.006484 -0.002595 0.012172 0.000000 0.000000 0.000000
# 4 0.000000 0.000000 0.000000 0.031966 0.000000 0.000000
# 5 0.000000 0.000000 0.000000 0.000000 0.028128 0.000000
# 6 0.000000 0.000000 0.000000 0.000000 0.000000 0.034257
#
#
# Mechanical properties :
#
#
# Convention : Reuss Voigt Hill
#
# Bulk Modulus (GPa) = 37.07590 48.19938 42.63764
# Shear Modulus (GPa) = 28.20912 30.30385 29.25648
#
# Velocity S-wave (km/s) = 3.67250 3.80641 3.74005
# Velocity P-wave (km/s) = 5.97575 6.50871 6.24791
#
# Compressibility (1/GPa) = 0.02697170
#
# Stress axis : x y z
#
# Youngs Moduli (GPa) = 67.69907 42.56055 82.15908
#
# Poissons Ratio (x) = 0.11295 0.53273
# Poissons Ratio (y) = 0.17967 0.21324
# Poissons Ratio (z) = 0.43897 0.11046
#
# Static dielectric constant tensor:
#      x y z
#    x 3.917170 0.000000 0.000000 
#    y 0.000000 3.537410 0.000000 
#    z 0.000000 0.000000 3.931850 
# 
# 
# High freq. dielectric constant tensor:
#      x y z
#    x 1.829980 0.000000 0.000000 
#    y 0.000000 1.811500 0.000000 
#    z 0.000000 0.000000 1.830020 
# 
# From -- ./inp_files/7209.got.cif
#   From: 2010.06.25/outbox.cif.g09.slc.cpg/sg71_4_cif.got.tgz:7209.got - 2010.06.28 04:59:45.
