data_PCOD8292985
_publ_section_title
;
Structure prediction by ZEFSAII (Michael W. Deem and Ramdas Pophale) SiO2 
 PCOD8292985
Probable space group: I B A M
;
_chemical_formula_sum "Si O2"
_cell_formula_units_Z 80
_cell_length_a 23.472821
_cell_length_b 24.092000
_cell_length_c 8.848099
_cell_angle_alpha 90.000000
_cell_angle_beta 90.000000
_cell_angle_gamma 90.000000
_cell_volume 5003.663722
_symmetry_space_group_name_H-M "I B A M"
_symmetry_group_IT_number 72
_symmetry_cell_setting 'orthorhombic'
loop_
_space_group_symop_operation_xyz
x,y,z
-x,-y,z
x,-y,1/2-z
-x,y,1/2-z
-x,-y,-z
x,y,-z
-x,y,1/2+z
x,-y,1/2+z
1/2+x,1/2+y,1/2+z
1/2-x,1/2-y,1/2+z
1/2+x,1/2-y,-z
1/2-x,1/2+y,-z
1/2-x,1/2-y,1/2-z
1/2+x,1/2+y,1/2-z
1/2-x,1/2+y,z
1/2+x,1/2-y,z
loop_
_atom_site_type_symbol
_atom_site_label
_atom_site_fract_x
_atom_site_fract_y
_atom_site_fract_z
Si Si1 0.660607 0.733644 0.324269
Si Si2 0.761395 0.945240 0.176671
Si Si3 0.223654 0.673298 0.826076
Si Si4 0.440126 0.669875 0.677916
Si Si5 0.883981 0.056083 0.821014
O O1 0.645944 0.731867 0.500000
O O2 0.713126 0.693671 0.281654
O O3 0.676488 0.796513 0.276216
O O4 0.605816 0.714380 0.232716
O O5 0.720174 0.892684 0.204027
O O6 0.821310 0.933912 0.256243
O O7 0.732404 0.000000 0.250000
O O8 0.772567 0.954815 0.000000
O O9 0.211311 0.688013 0.000000
O O10 0.500000 0.685768 0.750000
O O11 0.445160 0.674346 0.500000
O O12 0.422830 0.607772 0.728682
O O13 0.910796 0.000000 0.750000
O O14 0.880311 0.050013 0.000000
#
# Coordination Sequence:
#
# PCOD8292985 Si02
#       5
#    16  16  16  16  16
#     4  10  19  32  50  70  93 121 157 197 238 284
#     4  10  18  29  46  69  97 126 156 193 234 280
#     4   9  18  31  48  70  96 124 154 192 236 285
#     4  11  23  36  50  67  91 123 161 203 244 285
#     4  10  20  32  47  65  88 121 160 202 241 280
#
# _framework density 15.988284
#
# number of rings (size 3 to 8) (size 9 to 14) (size 15 to 20)
#    0.000    2.000    2.000    3.600    0.000    5.200 
#    0.000    2.000    0.000    0.000    0.000    0.000 
#    0.000    0.800    0.000    8.400    0.000    4.600 
#
# Total GULP energy -496039.483980 kJ/mol
# GULP energy per Si atom -12400.987099 kJ/mol
# Density = 1.595189 g / cm^3
# Si number density = 15.988284 Si / 1000 Ang^3
#
#
#
# Elastic Constant Matrix: (Units=GPa)
#
#
# Indices 1 2 3 4 5 6 
#
# 1 67.0172 47.1248 29.4212 0.0000 0.0000 0.0000
# 2 47.1248 103.7290 39.5716 0.0000 0.0000 0.0000
# 3 29.4212 39.5716 67.7408 0.0000 0.0000 0.0000
# 4 0.0000 0.0000 0.0000 28.3758 0.0000 0.0000
# 5 0.0000 0.0000 0.0000 0.0000 23.7567 0.0000
# 6 0.0000 0.0000 0.0000 0.0000 0.0000 18.8969
#
#
#
# Elastic Compliance Matrix: (Units=1/GPa)
#
#
# Indices 1 2 3 4 5 6 
#
# 1 0.023191 -0.008613 -0.005041 0.000000 0.000000 0.000000
# 2 -0.008613 0.015604 -0.005374 0.000000 0.000000 0.000000
# 3 -0.005041 -0.005374 0.020091 0.000000 0.000000 0.000000
# 4 0.000000 0.000000 0.000000 0.035241 0.000000 0.000000
# 5 0.000000 0.000000 0.000000 0.000000 0.042093 0.000000
# 6 0.000000 0.000000 0.000000 0.000000 0.000000 0.052919
#
#
# Mechanical properties :
#
#
# Convention : Reuss Voigt Hill
#
# Bulk Modulus (GPa) = 48.00923 52.30247 50.15585
# Shear Modulus (GPa) = 21.35494 22.36386 21.85940
#
# Velocity S-wave (km/s) = 3.65864 3.74406 3.70160
# Velocity P-wave (km/s) = 6.92390 7.17459 7.05036
#
# Compressibility (1/GPa) = 0.02082933
#
# Stress axis : x y z
#
# Youngs Moduli (GPa) = 43.12060 64.08800 49.77333
#
# Poissons Ratio (x) = 0.55197 0.25091
# Poissons Ratio (y) = 0.37138 0.26750
# Poissons Ratio (z) = 0.21737 0.34443
#
# Static dielectric constant tensor:
#      x y z
#    x 2.674680 0.000000 0.000000 
#    y 0.000000 3.117530 0.000000 
#    z 0.000000 0.000000 3.129770 
# 
# 
# High freq. dielectric constant tensor:
#      x y z
#    x 1.566940 0.000000 0.000000 
#    y 0.000000 1.615980 0.000000 
#    z 0.000000 0.000000 1.631670 
# 
# From -- ./inp_files/4757.got.cif
#   From: 2010.03.12/outbox.cif.g09.slc.cpg/sg72_3_cif.got.tgz:4757.got - 2010.04.16 14:54:00.
