data_PCOD8292199
_publ_section_title
;
Structure prediction by ZEFSAII (Michael W. Deem and Ramdas Pophale) SiO2 
 PCOD8292199
Probable space group: I M M M
;
_chemical_formula_sum "Si O2"
_cell_formula_units_Z 64
_cell_length_a 7.735148
_cell_length_b 13.895665
_cell_length_c 27.858890
_cell_angle_alpha 90.000000
_cell_angle_beta 90.000000
_cell_angle_gamma 90.000000
_cell_volume 2994.413497
_symmetry_space_group_name_H-M "I M M M"
_symmetry_group_IT_number 71
_symmetry_cell_setting 'orthorhombic'
loop_
_space_group_symop_operation_xyz
x,y,z
-x,-y,z
x,-y,-z
-x,y,-z
-x,-y,-z
x,y,-z
-x,y,z
x,-y,z
1/2+x,1/2+y,1/2+z
1/2-x,1/2-y,1/2+z
1/2+x,1/2-y,1/2-z
1/2-x,1/2+y,1/2-z
1/2-x,1/2-y,1/2-z
1/2+x,1/2+y,1/2-z
1/2-x,1/2+y,1/2+z
1/2+x,1/2-y,1/2+z
loop_
_atom_site_type_symbol
_atom_site_label
_atom_site_fract_x
_atom_site_fract_y
_atom_site_fract_z
Si Si1 0.500000 0.886559 0.592916
Si Si2 0.296785 0.892548 0.131146
Si Si3 0.500000 0.115173 0.298003
Si Si4 0.802421 0.764827 0.555202
Si Si5 0.690707 0.614164 0.734044
O O1 0.500000 0.848513 0.647540
O O2 0.673869 0.852171 0.566493
O O3 0.500000 0.000000 0.590343
O O4 0.500000 0.895431 0.138859
O O5 0.243706 0.826783 0.086329
O O6 0.215325 0.848494 0.179706
O O7 0.225662 0.000000 0.120795
O O8 0.331092 0.158551 0.270896
O O9 0.500000 0.000000 0.296309
O O10 0.785275 0.734261 0.500000
O O11 0.000000 0.796353 0.567148
O O12 0.500000 0.643413 0.752342
O O13 0.716259 0.500000 0.733252
#
# Coordination Sequence:
#
# PCOD8292199 Si02
#       5
#     8  16   8  16  16
#     4  11  25  44  66  86 112 155 207 261 315 359
#     4   9  17  33  60  90 126 166 196 229 283 357
#     4   9  18  35  56  82 115 152 197 246 294 350
#     4  10  23  42  63  89 122 155 196 254 306 355
#     4   9  16  28  52  84 118 158 194 227 279 346
#
# _framework density 21.373132999999999
#
# number of rings (size 3 to 8) (size 9 to 14) (size 15 to 20)
#    0.000    2.500    1.250    0.375    1.750    3.000 
#    0.000    7.500    0.000    1.500    0.000    0.000 
#    0.000    0.000    0.000    0.000    0.000    0.000 
#
# Total GULP energy -396830.350509 kJ/mol
# GULP energy per Si atom -12400.948453 kJ/mol
# Density = 2.132449 g / cm^3
# Si number density = 21.373133 Si / 1000 Ang^3
#
#
#
# Elastic Constant Matrix: (Units=GPa)
#
#
# Indices 1 2 3 4 5 6 
#
# 1 116.4927 28.0773 55.3494 0.0000 0.0000 0.0000
# 2 28.0773 54.8099 29.7257 0.0000 0.0000 0.0000
# 3 55.3494 29.7257 127.2420 0.0000 0.0000 0.0000
# 4 0.0000 0.0000 0.0000 32.9039 0.0000 0.0000
# 5 0.0000 0.0000 0.0000 0.0000 28.0426 0.0000
# 6 0.0000 0.0000 0.0000 0.0000 0.0000 23.9325
#
#
#
# Elastic Compliance Matrix: (Units=1/GPa)
#
#
# Indices 1 2 3 4 5 6 
#
# 1 0.011413 -0.003611 -0.004121 0.000000 0.000000 0.000000
# 2 -0.003611 0.022035 -0.003577 0.000000 0.000000 0.000000
# 3 -0.004121 -0.003577 0.010487 0.000000 0.000000 0.000000
# 4 0.000000 0.000000 0.000000 0.030392 0.000000 0.000000
# 5 0.000000 0.000000 0.000000 0.000000 0.035660 0.000000
# 6 0.000000 0.000000 0.000000 0.000000 0.000000 0.041784
#
#
# Mechanical properties :
#
#
# Convention : Reuss Voigt Hill
#
# Bulk Modulus (GPa) = 46.91163 58.31660 52.61411
# Shear Modulus (GPa) = 27.54921 29.33525 28.44223
#
# Velocity S-wave (km/s) = 3.59411 3.70879 3.65190
# Velocity P-wave (km/s) = 6.26259 6.75902 6.51553
#
# Compressibility (1/GPa) = 0.02131668
#
# Stress axis : x y z
#
# Youngs Moduli (GPa) = 87.62289 45.38296 95.35542
#
# Poissons Ratio (x) = 0.16390 0.39293
# Poissons Ratio (y) = 0.31645 0.34106
# Poissons Ratio (z) = 0.36107 0.16232
#
# Static dielectric constant tensor:
#      x y z
#    x 3.963030 0.000000 0.000000 
#    y 0.000000 3.647310 0.000000 
#    z 0.000000 0.000000 3.917570 
# 
# 
# High freq. dielectric constant tensor:
#      x y z
#    x 1.846920 0.000000 0.000000 
#    y 0.000000 1.825360 0.000000 
#    z 0.000000 0.000000 1.837160 
# 
# From -- ./inp_files/62794.got.cif
#   From: 2010.06.25/outbox.cif.g09.slc.cpg/sg71_32_cif.got.tgz:62794.got - 2010.06.28 04:59:45.
