data_PCOD8292013
_publ_section_title
;
Structure prediction by ZEFSAII (Michael W. Deem and Ramdas Pophale) SiO2 
 PCOD8292013
Probable space group: I M M M
;
_chemical_formula_sum "Si O2"
_cell_formula_units_Z 88
_cell_length_a 23.804057
_cell_length_b 19.626532
_cell_length_c 9.581214
_cell_angle_alpha 90.000000
_cell_angle_beta 90.000000
_cell_angle_gamma 90.000000
_cell_volume 4476.257778
_symmetry_space_group_name_H-M "I M M M"
_symmetry_group_IT_number 71
_symmetry_cell_setting 'orthorhombic'
loop_
_space_group_symop_operation_xyz
x,y,z
-x,-y,z
x,-y,-z
-x,y,-z
-x,-y,-z
x,y,-z
-x,y,z
x,-y,z
1/2+x,1/2+y,1/2+z
1/2-x,1/2-y,1/2+z
1/2+x,1/2-y,1/2-z
1/2-x,1/2+y,1/2-z
1/2-x,1/2-y,1/2-z
1/2+x,1/2+y,1/2-z
1/2-x,1/2+y,1/2+z
1/2+x,1/2-y,1/2+z
loop_
_atom_site_type_symbol
_atom_site_label
_atom_site_fract_x
_atom_site_fract_y
_atom_site_fract_z
Si Si1 0.212936 0.500000 0.335446
Si Si2 0.882489 0.862657 0.341470
Si Si3 0.808784 0.757434 0.167582
Si Si4 0.559138 0.923977 0.500000
Si Si5 0.500000 0.421816 0.165451
Si Si6 0.365563 0.881850 0.746274
Si Si7 0.933396 0.580221 0.500000
Si Si8 0.315751 0.500000 0.849742
O O1 0.212310 0.500000 0.500000
O O2 0.185964 0.568881 0.278662
O O3 0.275952 0.500000 0.282693
O O4 0.881657 0.831488 0.500000
O O5 0.847314 0.816458 0.233488
O O6 0.945989 0.876690 0.286993
O O7 0.855042 0.935710 0.343056
O O8 0.750000 0.750000 0.250000
O O9 0.842959 0.689142 0.192330
O O10 0.798993 0.769363 0.000000
O O11 0.500000 0.880906 0.500000
O O12 0.596114 0.913669 0.367811
O O13 0.538679 0.000000 0.500000
O O14 0.500000 0.500000 0.227158
O O15 0.500000 0.428659 0.000000
O O16 0.407800 0.876610 0.874785
O O17 0.913702 0.500000 0.500000
O O18 0.000000 0.584405 0.500000
O O19 0.282885 0.500000 0.000000
#
# Coordination Sequence:
#
# PCOD8292013 Si02
#       8
#     8  16  16   8   8  16   8   8
#     4  12  24  38  60  92 124 164 210 271 320 375
#     4  10  21  41  67 101 128 167 212 261 327 385
#     4  12  28  46  65  90 130 175 219 270 322 384
#     4  11  22  40  67  94 124 165 208 257 319 381
#     4   9  16  36  73 103 133 162 207 266 319 385
#     4  12  23  42  62  94 128 164 216 263 317 377
#     4  11  22  42  69  98 130 165 212 265 317 377
#     4  10  22  37  64  95 125 156 211 267 318 389
#
# _framework density 19.659279000000002
#
# number of rings (size 3 to 8) (size 9 to 14) (size 15 to 20)
#    0.000    1.000    4.545    2.182    3.818    5.091 
#    3.273    0.455    0.000    0.545    0.000    0.000 
#    0.000    0.000    0.000    0.000    0.000    0.000 
#
# Total GULP energy -545224.184777 kJ/mol
# GULP energy per Si atom -12391.458745 kJ/mol
# Density = 1.961453 g / cm^3
# Si number density = 19.659279 Si / 1000 Ang^3
#
#
#
# Elastic Constant Matrix: (Units=GPa)
#
#
# Indices 1 2 3 4 5 6 
#
# 1 140.6707 37.6849 61.1144 0.0000 0.0000 0.0000
# 2 37.6849 92.6529 37.0164 0.0000 0.0000 0.0000
# 3 61.1144 37.0164 139.2856 0.0000 0.0000 0.0000
# 4 0.0000 0.0000 0.0000 33.9773 0.0000 0.0000
# 5 0.0000 0.0000 0.0000 0.0000 50.4214 0.0000
# 6 0.0000 0.0000 0.0000 0.0000 0.0000 16.1961
#
#
#
# Elastic Compliance Matrix: (Units=1/GPa)
#
#
# Indices 1 2 3 4 5 6 
#
# 1 0.009233 -0.002391 -0.003416 0.000000 0.000000 0.000000
# 2 -0.002391 0.012694 -0.002325 0.000000 0.000000 0.000000
# 3 -0.003416 -0.002325 0.009296 0.000000 0.000000 0.000000
# 4 0.000000 0.000000 0.000000 0.029431 0.000000 0.000000
# 5 0.000000 0.000000 0.000000 0.000000 0.019833 0.000000
# 6 0.000000 0.000000 0.000000 0.000000 0.000000 0.061743
#
#
# Mechanical properties :
#
#
# Convention : Reuss Voigt Hill
#
# Bulk Modulus (GPa) = 66.84073 71.58228 69.21150
# Shear Modulus (GPa) = 30.58464 35.90518 33.24491
#
# Velocity S-wave (km/s) = 3.94856 4.27825 4.11670
# Velocity P-wave (km/s) = 7.40686 7.80353 7.60778
#
# Compressibility (1/GPa) = 0.01496094
#
# Stress axis : x y z
#
# Youngs Moduli (GPa) = 108.30328 78.77689 107.57216
#
# Poissons Ratio (x) = 0.18834 0.36746
# Poissons Ratio (y) = 0.25893 0.25006
# Poissons Ratio (z) = 0.36996 0.18312
#
# Static dielectric constant tensor:
#      x y z
#    x 3.945780 0.000000 0.000000 
#    y 0.000000 3.472790 0.000000 
#    z 0.000000 0.000000 3.643510 
# 
# 
# High freq. dielectric constant tensor:
#      x y z
#    x 1.787430 0.000000 0.000000 
#    y 0.000000 1.760290 0.000000 
#    z 0.000000 0.000000 1.765370 
# 
# From -- ./inp_files/12692.got.cif
#   From: 2010.06.25/outbox.cif.g09.slc.cpg/sg71_7_cif.got.tgz:12692.got - 2010.06.28 04:59:45.
