data_PCOD8292313
_publ_section_title
;
Structure prediction by ZEFSAII (Michael W. Deem and Ramdas Pophale) SiO2 
 PCOD8292313
Probable space group: I M M M
;
_chemical_formula_sum "Si O2"
_cell_formula_units_Z 72
_cell_length_a 17.825189
_cell_length_b 15.193979
_cell_length_c 16.459471
_cell_angle_alpha 90.000000
_cell_angle_beta 90.000000
_cell_angle_gamma 90.000000
_cell_volume 4457.809837
_symmetry_space_group_name_H-M "I M M M"
_symmetry_group_IT_number 71
_symmetry_cell_setting 'orthorhombic'
loop_
_space_group_symop_operation_xyz
x,y,z
-x,-y,z
x,-y,-z
-x,y,-z
-x,-y,-z
x,y,-z
-x,y,z
x,-y,z
1/2+x,1/2+y,1/2+z
1/2-x,1/2-y,1/2+z
1/2+x,1/2-y,1/2-z
1/2-x,1/2+y,1/2-z
1/2-x,1/2-y,1/2-z
1/2+x,1/2+y,1/2-z
1/2-x,1/2+y,1/2+z
1/2+x,1/2-y,1/2+z
loop_
_atom_site_type_symbol
_atom_site_label
_atom_site_fract_x
_atom_site_fract_y
_atom_site_fract_z
Si Si1 0.918555 0.500000 0.904514
Si Si2 0.911613 0.000000 0.911508
Si Si3 0.829230 0.106377 0.341429
Si Si4 0.418494 0.603171 0.000000
Si Si5 0.090163 0.828808 0.183590
Si Si6 0.326972 0.169055 0.402226
O O1 0.875342 0.585711 0.876641
O O2 0.000000 0.500000 0.862295
O O3 0.927687 0.500000 0.000000
O O4 0.884846 0.085336 0.864710
O O5 0.000000 0.000000 0.919971
O O6 0.873492 0.000000 0.000000
O O7 0.874339 0.132162 0.421110
O O8 0.873908 0.157469 0.271536
O O9 0.749804 0.153692 0.353780
O O10 0.823163 0.000000 0.328314
O O11 0.429043 0.500000 0.000000
O O12 0.500000 0.649235 0.000000
O O13 0.127961 0.750802 0.133541
O O14 0.000000 0.816269 0.189504
O O15 0.315572 0.177494 0.500000
#
# Coordination Sequence:
#
# PCOD8292313 Si02
#       6
#     8   8  16   8  16  16
#     4   9  18  31  50  74 104 142 181 218 260 317
#     4   9  18  33  50  71 103 142 177 217 263 315
#     4  11  20  35  55  78 111 146 182 227 281 327
#     4   9  18  30  52  78 104 141 184 225 271 330
#     4  11  22  35  54  80 111 144 185 230 274 327
#     4  11  21  35  55  79 111 147 183 226 277 329
#
# _framework density 16.151429
#
# number of rings (size 3 to 8) (size 9 to 14) (size 15 to 20)
#    0.000    1.667    3.333    2.667    0.000    3.111 
#    0.000    0.000    0.000    0.000    0.000    0.000 
#    0.000    0.000    0.000    7.444    0.000    0.000 
#
# Total GULP energy -446133.436703 kJ/mol
# GULP energy per Si atom -12392.595464 kJ/mol
# Density = 1.611467 g / cm^3
# Si number density = 16.151429 Si / 1000 Ang^3
#
#
#
# Elastic Constant Matrix: (Units=GPa)
#
#
# Indices 1 2 3 4 5 6 
#
# 1 125.2352 49.8481 42.7326 0.0000 0.0000 0.0000
# 2 49.8481 110.2634 40.4063 0.0000 0.0000 0.0000
# 3 42.7326 40.4063 96.8919 0.0000 0.0000 0.0000
# 4 0.0000 0.0000 0.0000 -26.5592 0.0000 0.0000
# 5 0.0000 0.0000 0.0000 0.0000 28.6262 0.0000
# 6 0.0000 0.0000 0.0000 0.0000 0.0000 28.6754
#
#
#
# Elastic Compliance Matrix: (Units=1/GPa)
#
#
# Indices 1 2 3 4 5 6 
#
# 1 0.010481 -0.003594 -0.003124 0.000000 0.000000 0.000000
# 2 -0.003594 0.011937 -0.003393 0.000000 0.000000 0.000000
# 3 -0.003124 -0.003393 0.013114 0.000000 0.000000 0.000000
# 4 0.000000 0.000000 0.000000 -0.037652 0.000000 0.000000
# 5 0.000000 0.000000 0.000000 0.000000 0.034933 0.000000
# 6 0.000000 0.000000 0.000000 0.000000 0.000000 0.034873
#
#
# Mechanical properties :
#
#
# Convention : Reuss Voigt Hill
#
# Bulk Modulus (GPa) = 65.31450 66.48496 65.89973
# Shear Modulus (GPa) = 53.75664 19.44205 36.59935
#
# Velocity S-wave (km/s) = 5.77539 3.47325 4.76543
# Velocity P-wave (km/s) = 9.21955 7.57215 8.43616
#
# Compressibility (1/GPa) = 0.01531054
#
# Stress axis : x y z
#
# Youngs Moduli (GPa) = 95.40764 83.77133 76.25658
#
# Poissons Ratio (x) = 0.30104 0.23823
# Poissons Ratio (y) = 0.34286 0.25876
# Poissons Ratio (z) = 0.29805 0.28425
#
# Static dielectric constant tensor:
#      x y z
#    x 3.299760 0.000000 0.000000 
#    y 0.000000 3.016270 0.000000 
#    z 0.000000 0.000000 3.203070 
# 
# 
# High freq. dielectric constant tensor:
#      x y z
#    x 1.629310 0.000000 0.000000 
#    y 0.000000 1.611600 0.000000 
#    z 0.000000 0.000000 1.620630 
# 
# From -- ./inp_files/34110.got.cif
#   From: 2010.06.25/outbox.cif.g09.slc.cpg/sg71_18_cif.got.tgz:34110.got - 2010.06.28 04:59:45.
