data_PCOD8292384
_publ_section_title
;
Structure prediction by ZEFSAII (Michael W. Deem and Ramdas Pophale) SiO2 
 PCOD8292384
Probable space group: I M M M
;
_chemical_formula_sum "Si O2"
_cell_formula_units_Z 96
_cell_length_a 24.483943
_cell_length_b 8.688130
_cell_length_c 21.138584
_cell_angle_alpha 90.000000
_cell_angle_beta 90.000000
_cell_angle_gamma 90.000000
_cell_volume 4496.592818
_symmetry_space_group_name_H-M "I M M M"
_symmetry_group_IT_number 71
_symmetry_cell_setting 'orthorhombic'
loop_
_space_group_symop_operation_xyz
x,y,z
-x,-y,z
x,-y,-z
-x,y,-z
-x,-y,-z
x,y,-z
-x,y,z
x,-y,z
1/2+x,1/2+y,1/2+z
1/2-x,1/2-y,1/2+z
1/2+x,1/2-y,1/2-z
1/2-x,1/2+y,1/2-z
1/2-x,1/2-y,1/2-z
1/2+x,1/2+y,1/2-z
1/2-x,1/2+y,1/2+z
1/2+x,1/2-y,1/2+z
loop_
_atom_site_type_symbol
_atom_site_label
_atom_site_fract_x
_atom_site_fract_y
_atom_site_fract_z
Si Si1 0.438664 0.818851 0.598776
Si Si2 0.059082 0.682144 0.757475
Si Si3 0.827926 0.820457 0.929770
Si Si4 0.746990 0.180028 0.679094
Si Si5 0.439582 0.328977 0.074233
Si Si6 0.142681 0.678270 0.343761
O O1 0.500000 0.776167 0.574331
O O2 0.432420 0.766888 0.671085
O O3 0.391397 0.728021 0.562670
O O4 0.429151 0.000000 0.590009
O O5 0.058843 0.500000 0.751349
O O6 0.109486 0.745803 0.716583
O O7 0.000000 0.745076 0.733419
O O8 0.799744 0.737380 0.869594
O O9 0.823470 0.000000 0.915801
O O10 0.801931 0.783300 0.000000
O O11 0.750000 0.250000 0.750000
O O12 0.803781 0.220378 0.645591
O O13 0.737732 0.000000 0.687288
O O14 0.500000 0.280152 0.097346
O O15 0.425292 0.500000 0.100377
O O16 0.396453 0.201704 0.096506
O O17 0.437562 0.332213 0.000000
O O18 0.159075 0.500000 0.336565
#
# Coordination Sequence:
#
# PCOD8292384 Si02
#       6
#    16  16  16  16  16  16
#     4   9  18  35  61  91 123 161 202 242 292 360
#     4   8  15  29  51  82 118 152 187 232 286 344
#     4  11  25  44  65  91 125 164 209 261 313 366
#     4  12  26  45  68  92 122 161 207 258 314 376
#     4   9  19  36  55  77 112 158 204 250 302 360
#     4  11  21  34  57  87 116 150 196 248 302 362
#
# _framework density 21.349498000000001
#
# number of rings (size 3 to 8) (size 9 to 14) (size 15 to 20)
#    0.000    2.000    0.000    5.500    0.000    5.333 
#    0.000    3.333    0.000    2.000    0.000    0.000 
#    0.000    0.000    0.000    0.000    0.000    0.000 
#
# Total GULP energy -594771.231978 kJ/mol
# GULP energy per Si atom -12391.067333 kJ/mol
# Density = 2.130091 g / cm^3
# Si number density = 21.349498 Si / 1000 Ang^3
#
#
#
# Elastic Constant Matrix: (Units=GPa)
#
#
# Indices 1 2 3 4 5 6 
#
# 1 123.8049 40.1954 43.1146 0.0000 0.0000 0.0000
# 2 40.1954 93.4085 44.9519 0.0000 0.0000 0.0000
# 3 43.1146 44.9519 102.7721 0.0000 0.0000 0.0000
# 4 0.0000 0.0000 0.0000 28.3075 0.0000 0.0000
# 5 0.0000 0.0000 0.0000 0.0000 -240.7347 0.0000
# 6 0.0000 0.0000 0.0000 0.0000 0.0000 31.6382
#
#
#
# Elastic Compliance Matrix: (Units=1/GPa)
#
#
# Indices 1 2 3 4 5 6 
#
# 1 0.010046 -0.002907 -0.002943 0.000000 0.000000 0.000000
# 2 -0.002907 0.014401 -0.005079 0.000000 0.000000 0.000000
# 3 -0.002943 -0.005079 0.013187 0.000000 0.000000 0.000000
# 4 0.000000 0.000000 0.000000 0.035326 0.000000 0.000000
# 5 0.000000 0.000000 0.000000 0.000000 -0.004154 0.000000
# 6 0.000000 0.000000 0.000000 0.000000 0.000000 0.031607
#
#
# Mechanical properties :
#
#
# Convention : Reuss Voigt Hill
#
# Bulk Modulus (GPa) = 63.39114 64.05660 63.72387
# Shear Modulus (GPa) = 39.20658 -23.37621 7.91518
#
# Velocity S-wave (km/s) = 4.28999 -3.31256 1.92756
# Velocity P-wave (km/s) = 7.36853 3.92914 5.90481
#
# Compressibility (1/GPa) = 0.01577507
#
# Stress axis : x y z
#
# Youngs Moduli (GPa) = 99.54407 69.44030 75.83417
#
# Poissons Ratio (x) = 0.20183 0.22319
# Poissons Ratio (y) = 0.28933 0.38520
# Poissons Ratio (z) = 0.29296 0.35272
#
# Static dielectric constant tensor:
#      x y z
#    x 4.357410 0.000000 0.000000 
#    y 0.000000 3.749410 0.000000 
#    z 0.000000 0.000000 3.947860 
# 
# 
# High freq. dielectric constant tensor:
#      x y z
#    x 1.845510 0.000000 0.000000 
#    y 0.000000 1.814120 0.000000 
#    z 0.000000 0.000000 1.843380 
# 
# From -- ./inp_files/61546.got.cif
#   From: 2010.06.25/outbox.cif.g09.slc.cpg/sg71_31_cif.got.tgz:61546.got - 2010.06.28 04:59:45.
