data_PCOD8292021
_publ_section_title
;
Structure prediction by ZEFSAII (Michael W. Deem and Ramdas Pophale) SiO2 
 PCOD8292021
Probable space group: I M M M
;
_chemical_formula_sum "Si O2"
_cell_formula_units_Z 88
_cell_length_a 20.430229
_cell_length_b 26.827661
_cell_length_c 7.809098
_cell_angle_alpha 90.000000
_cell_angle_beta 90.000000
_cell_angle_gamma 90.000000
_cell_volume 4280.129581
_symmetry_space_group_name_H-M "I M M M"
_symmetry_group_IT_number 71
_symmetry_cell_setting 'orthorhombic'
loop_
_space_group_symop_operation_xyz
x,y,z
-x,-y,z
x,-y,-z
-x,y,-z
-x,-y,-z
x,y,-z
-x,y,z
x,-y,z
1/2+x,1/2+y,1/2+z
1/2-x,1/2-y,1/2+z
1/2+x,1/2-y,1/2-z
1/2-x,1/2+y,1/2-z
1/2-x,1/2-y,1/2-z
1/2+x,1/2+y,1/2-z
1/2-x,1/2+y,1/2+z
1/2+x,1/2-y,1/2+z
loop_
_atom_site_type_symbol
_atom_site_label
_atom_site_fract_x
_atom_site_fract_y
_atom_site_fract_z
Si Si1 0.631548 0.848538 0.694414
Si Si2 0.000000 0.803960 0.696288
Si Si3 0.000000 0.696246 0.192460
Si Si4 0.925569 0.555539 0.701400
Si Si5 0.878900 0.127594 0.695378
Si Si6 0.421701 0.440644 0.500000
Si Si7 0.762005 0.193694 0.190606
O O1 0.643208 0.830065 0.500000
O O2 0.566484 0.823949 0.780196
O O3 0.623559 0.908119 0.699345
O O4 0.692439 0.833363 0.808933
O O5 0.000000 0.755553 0.812946
O O6 0.063329 0.835235 0.743411
O O7 0.000000 0.786673 0.500000
O O8 0.000000 0.675077 0.000000
O O9 0.915599 0.561002 0.500000
O O10 0.908189 0.500000 0.761875
O O11 0.000000 0.568728 0.752047
O O12 0.886017 0.106887 0.500000
O O13 0.885479 0.082163 0.831115
O O14 0.812392 0.160186 0.700820
O O15 0.409395 0.500000 0.500000
O O16 0.500000 0.429427 0.500000
O O17 0.750000 0.250000 0.250000
O O18 0.790407 0.195113 0.000000
#
# Coordination Sequence:
#
# PCOD8292021 Si02
#       7
#    16   8   8  16  16   8  16
#     4  11  22  38  56  86 122 160 209 261 314 376
#     4  10  22  36  60  92 123 161 207 256 318 384
#     4  10  22  34  53  83 123 166 209 261 315 382
#     4   9  18  34  57  83 112 151 198 250 308 362
#     4  11  23  43  67  99 136 173 220 277 332 400
#     4  11  24  44  74 108 138 179 227 281 349 409
#     4  12  25  42  64  93 130 175 218 265 331 403
#
# _framework density 20.560124999999999
#
# number of rings (size 3 to 8) (size 9 to 14) (size 15 to 20)
#    0.000    1.364    2.727    3.818    1.273    5.091 
#    0.000    2.727    0.000    2.182    0.000    0.000 
#    0.000    0.000    0.000    0.000    0.000    0.000 
#
# Total GULP energy -545537.167304 kJ/mol
# GULP energy per Si atom -12398.571984 kJ/mol
# Density = 2.051333 g / cm^3
# Si number density = 20.560125 Si / 1000 Ang^3
#
#
#
# Elastic Constant Matrix: (Units=GPa)
#
#
# Indices 1 2 3 4 5 6 
#
# 1 126.3354 56.3065 17.3468 0.0000 0.0000 0.0000
# 2 56.3065 132.1560 32.7749 0.0000 0.0000 0.0000
# 3 17.3468 32.7749 84.1022 0.0000 0.0000 0.0000
# 4 0.0000 0.0000 0.0000 31.5492 0.0000 0.0000
# 5 0.0000 0.0000 0.0000 0.0000 35.8278 0.0000
# 6 0.0000 0.0000 0.0000 0.0000 0.0000 34.7156
#
#
#
# Elastic Compliance Matrix: (Units=1/GPa)
#
#
# Indices 1 2 3 4 5 6 
#
# 1 0.009785 -0.004061 -0.000436 0.000000 0.000000 0.000000
# 2 -0.004061 0.010062 -0.003083 0.000000 0.000000 0.000000
# 3 -0.000436 -0.003083 0.013182 0.000000 0.000000 0.000000
# 4 0.000000 0.000000 0.000000 0.031696 0.000000 0.000000
# 5 0.000000 0.000000 0.000000 0.000000 0.027911 0.000000
# 6 0.000000 0.000000 0.000000 0.000000 0.000000 0.028806
#
#
# Mechanical properties :
#
#
# Convention : Reuss Voigt Hill
#
# Bulk Modulus (GPa) = 55.96478 61.71666 58.84072
# Shear Modulus (GPa) = 35.07327 36.16287 35.61807
#
# Velocity S-wave (km/s) = 4.13472 4.19845 4.16671
# Velocity P-wave (km/s) = 7.07628 7.32021 7.19928
#
# Compressibility (1/GPa) = 0.01786838
#
# Stress axis : x y z
#
# Youngs Moduli (GPa) = 102.19480 99.38601 75.86212
#
# Poissons Ratio (x) = 0.40361 0.03305
# Poissons Ratio (y) = 0.41502 0.23392
# Poissons Ratio (z) = 0.04452 0.30646
#
# Static dielectric constant tensor:
#      x y z
#    x 3.789830 0.000000 0.000000 
#    y 0.000000 3.703270 0.000000 
#    z 0.000000 0.000000 3.660610 
# 
# 
# High freq. dielectric constant tensor:
#      x y z
#    x 1.797920 0.000000 0.000000 
#    y 0.000000 1.801520 0.000000 
#    z 0.000000 0.000000 1.805150 
# 
# From -- ./inp_files/10518.got.cif
#   From: 2010.06.25/outbox.cif.g09.slc.cpg/sg71_6_cif.got.tgz:10518.got - 2010.06.28 04:59:45.
