data_PCOD8292456
_publ_section_title
;
Structure prediction by ZEFSAII (Michael W. Deem and Ramdas Pophale) SiO2 
 PCOD8292456
Probable space group: I M M M
;
_chemical_formula_sum "Si O2"
_cell_formula_units_Z 88
_cell_length_a 21.549961
_cell_length_b 8.723271
_cell_length_c 23.846128
_cell_angle_alpha 90.000000
_cell_angle_beta 90.000000
_cell_angle_gamma 90.000000
_cell_volume 4482.741791
_symmetry_space_group_name_H-M "I M M M"
_symmetry_group_IT_number 71
_symmetry_cell_setting 'orthorhombic'
loop_
_space_group_symop_operation_xyz
x,y,z
-x,-y,z
x,-y,-z
-x,y,-z
-x,-y,-z
x,y,-z
-x,y,z
x,-y,z
1/2+x,1/2+y,1/2+z
1/2-x,1/2-y,1/2+z
1/2+x,1/2-y,1/2-z
1/2-x,1/2+y,1/2-z
1/2-x,1/2-y,1/2-z
1/2+x,1/2+y,1/2-z
1/2-x,1/2+y,1/2+z
1/2+x,1/2-y,1/2+z
loop_
_atom_site_type_symbol
_atom_site_label
_atom_site_fract_x
_atom_site_fract_y
_atom_site_fract_z
Si Si1 0.846221 0.323279 0.849529
Si Si2 0.067554 0.174056 0.761515
Si Si3 0.905174 0.682412 0.649964
Si Si4 0.429186 0.328329 0.436058
Si Si5 0.269605 0.820750 0.190214
Si Si6 0.000000 0.181320 0.565952
O O1 0.828895 0.500000 0.845614
O O2 0.883500 0.277437 0.793974
O O3 0.886983 0.292077 0.904034
O O4 0.783196 0.226096 0.854269
O O5 0.056119 0.247461 0.700984
O O6 0.000000 0.175935 0.791895
O O7 0.092656 0.000000 0.757452
O O8 0.910973 0.500000 0.647551
O O9 0.834011 0.736217 0.662030
O O10 0.936663 0.749755 0.593463
O O11 0.407639 0.328207 0.500000
O O12 0.500000 0.274796 0.430834
O O13 0.421165 0.500000 0.410748
O O14 0.250000 0.750000 0.250000
O O15 0.272767 0.000000 0.199549
O O16 0.000000 0.223820 0.500000
O O17 0.000000 0.000000 0.575153
#
# Coordination Sequence:
#
# PCOD8292456 Si02
#       6
#    16  16  16  16  16   8
#     4  12  24  36  55  86 123 161 201 245 295 357
#     4  11  22  35  56  85 120 160 199 244 301 361
#     4  11  23  39  63  92 120 152 199 254 308 363
#     4   9  19  38  62  85 113 153 200 248 298 351
#     4  11  23  39  60  87 121 162 202 246 303 367
#     4  11  25  45  69  95 125 165 208 251 310 377
#
# _framework density 19.630844
#
# number of rings (size 3 to 8) (size 9 to 14) (size 15 to 20)
#    0.000    1.182    2.727    4.636    0.000    6.909 
#    0.000    1.818    0.000    1.091    0.000    0.000 
#    0.000    0.000    0.000    0.000    0.000    0.000 
#
# Total GULP energy -545503.769148 kJ/mol
# GULP energy per Si atom -12397.812935 kJ/mol
# Density = 1.958616 g / cm^3
# Si number density = 19.630844 Si / 1000 Ang^3
#
#
#
# Elastic Constant Matrix: (Units=GPa)
#
#
# Indices 1 2 3 4 5 6 
#
# 1 134.7216 41.6130 50.8904 0.0000 0.0000 0.0000
# 2 41.6130 84.9737 33.8147 0.0000 0.0000 0.0000
# 3 50.8904 33.8147 102.1308 0.0000 0.0000 0.0000
# 4 0.0000 0.0000 0.0000 32.3974 0.0000 0.0000
# 5 0.0000 0.0000 0.0000 0.0000 -80.6040 0.0000
# 6 0.0000 0.0000 0.0000 0.0000 0.0000 29.4706
#
#
#
# Elastic Compliance Matrix: (Units=1/GPa)
#
#
# Indices 1 2 3 4 5 6 
#
# 1 0.009896 -0.003322 -0.003831 0.000000 0.000000 0.000000
# 2 -0.003322 0.014669 -0.003202 0.000000 0.000000 0.000000
# 3 -0.003831 -0.003202 0.012760 0.000000 0.000000 0.000000
# 4 0.000000 0.000000 0.000000 0.030867 0.000000 0.000000
# 5 0.000000 0.000000 0.000000 0.000000 -0.012406 0.000000
# 6 0.000000 0.000000 0.000000 0.000000 0.000000 0.033932
#
#
# Mechanical properties :
#
#
# Convention : Reuss Voigt Hill
#
# Bulk Modulus (GPa) = 60.18151 63.82911 62.00531
# Shear Modulus (GPa) = 43.11613 9.28667 26.20140
#
# Velocity S-wave (km/s) = 4.69160 2.17737 3.65733
# Velocity P-wave (km/s) = 7.75057 6.23751 7.03484
#
# Compressibility (1/GPa) = 0.01661640
#
# Stress axis : x y z
#
# Youngs Moduli (GPa) = 101.05171 68.17062 78.36684
#
# Poissons Ratio (x) = 0.22643 0.30024
# Poissons Ratio (y) = 0.33565 0.25091
# Poissons Ratio (z) = 0.38716 0.21826
#
# Static dielectric constant tensor:
#      x y z
#    x 3.439180 0.000000 0.000000 
#    y 0.000000 3.574760 0.000000 
#    z 0.000000 0.000000 3.461490 
# 
# 
# High freq. dielectric constant tensor:
#      x y z
#    x 1.776520 0.000000 0.000000 
#    y 0.000000 1.771000 0.000000 
#    z 0.000000 0.000000 1.746100 
# 
# From -- ./inp_files/55568.got.cif
#   From: 2010.06.25/outbox.cif.g09.slc.cpg/sg71_28_cif.got.tgz:55568.got - 2010.06.28 04:59:45.
