data_PCOD8292586
_publ_section_title
;
Structure prediction by ZEFSAII (Michael W. Deem and Ramdas Pophale) SiO2 
 PCOD8292586
Probable space group: I M M M
;
_chemical_formula_sum "Si O2"
_cell_formula_units_Z 72
_cell_length_a 26.262861
_cell_length_b 11.706017
_cell_length_c 13.015667
_cell_angle_alpha 90.000000
_cell_angle_beta 90.000000
_cell_angle_gamma 90.000000
_cell_volume 4001.452026
_symmetry_space_group_name_H-M "I M M M"
_symmetry_group_IT_number 71
_symmetry_cell_setting 'orthorhombic'
loop_
_space_group_symop_operation_xyz
x,y,z
-x,-y,z
x,-y,-z
-x,y,-z
-x,-y,-z
x,y,-z
-x,y,z
x,-y,z
1/2+x,1/2+y,1/2+z
1/2-x,1/2-y,1/2+z
1/2+x,1/2-y,1/2-z
1/2-x,1/2+y,1/2-z
1/2-x,1/2-y,1/2-z
1/2+x,1/2+y,1/2-z
1/2-x,1/2+y,1/2+z
1/2+x,1/2-y,1/2+z
loop_
_atom_site_type_symbol
_atom_site_label
_atom_site_fract_x
_atom_site_fract_y
_atom_site_fract_z
Si Si1 0.115657 0.207492 0.235187
Si Si2 0.439908 0.872989 0.885221
Si Si3 0.202743 0.133287 0.387381
Si Si4 0.686423 0.873691 0.379256
Si Si5 0.939548 0.000000 0.878481
O O1 0.077511 0.278185 0.305553
O O2 0.159146 0.155422 0.306120
O O3 0.141351 0.291330 0.154452
O O4 0.084748 0.111245 0.174171
O O5 0.500000 0.873922 0.883561
O O6 0.419604 0.000000 0.855480
O O7 0.420526 0.841699 0.000000
O O8 0.188975 0.186534 0.500000
O O9 0.258051 0.178874 0.348568
O O10 0.210055 0.000000 0.401831
O O11 0.683444 0.884242 0.500000
O O12 0.678540 0.000000 0.329733
O O13 0.000000 0.000000 0.859143
O O14 0.927167 0.000000 0.000000
#
# Coordination Sequence:
#
# PCOD8292586 Si02
#       5
#    16  16  16  16   8
#     4  12  19  34  57  80  99 143 188 217 261 325
#     4   9  19  35  54  79 109 136 169 223 282 325
#     4   9  18  33  51  78 111 138 166 210 267 320
#     4   9  19  34  53  78 107 136 172 218 267 320
#     4  11  26  42  53  73 109 147 188 238 278 309
#
# _framework density 17.993468
#
# number of rings (size 3 to 8) (size 9 to 14) (size 15 to 20)
#    0.000    2.111    1.111    5.333    0.000    0.000 
#    0.000    0.000    0.000    2.667    0.000    9.333 
#    0.000    0.000    0.000    0.000    0.000    0.000 
#
# Total GULP energy -446133.663343 kJ/mol
# GULP energy per Si atom -12392.601760 kJ/mol
# Density = 1.795251 g / cm^3
# Si number density = 17.993468 Si / 1000 Ang^3
#
#
#
# Elastic Constant Matrix: (Units=GPa)
#
#
# Indices 1 2 3 4 5 6 
#
# 1 99.4493 60.1584 56.4146 0.0000 0.0000 0.0000
# 2 60.1584 104.5465 67.7428 0.0000 0.0000 0.0000
# 3 56.4146 67.7428 94.0460 0.0000 0.0000 0.0000
# 4 0.0000 0.0000 0.0000 36.5178 0.0000 0.0000
# 5 0.0000 0.0000 0.0000 0.0000 35.8346 0.0000
# 6 0.0000 0.0000 0.0000 0.0000 0.0000 57.4569
#
#
#
# Elastic Compliance Matrix: (Units=1/GPa)
#
#
# Indices 1 2 3 4 5 6 
#
# 1 0.017015 -0.005958 -0.005915 0.000000 0.000000 0.000000
# 2 -0.005958 0.020023 -0.010849 0.000000 0.000000 0.000000
# 3 -0.005915 -0.010849 0.021996 0.000000 0.000000 0.000000
# 4 0.000000 0.000000 0.000000 0.027384 0.000000 0.000000
# 5 0.000000 0.000000 0.000000 0.000000 0.027906 0.000000
# 6 0.000000 0.000000 0.000000 0.000000 0.000000 0.017404
#
#
# Mechanical properties :
#
#
# Convention : Reuss Voigt Hill
#
# Bulk Modulus (GPa) = 73.58306 74.07481 73.82894
# Shear Modulus (GPa) = 27.51743 33.54357 30.53050
#
# Velocity S-wave (km/s) = 3.91487 4.32233 4.12364
# Velocity P-wave (km/s) = 7.83697 8.13431 7.98702
#
# Compressibility (1/GPa) = 0.01359008
#
# Stress axis : x y z
#
# Youngs Moduli (GPa) = 58.77224 49.94137 45.46265
#
# Poissons Ratio (x) = 0.29755 0.26891
# Poissons Ratio (y) = 0.35017 0.49323
# Poissons Ratio (z) = 0.34763 0.54182
#
# Static dielectric constant tensor:
#      x y z
#    x 3.420040 0.000000 0.000000 
#    y 0.000000 3.390600 0.000000 
#    z 0.000000 0.000000 3.341230 
# 
# 
# High freq. dielectric constant tensor:
#      x y z
#    x 1.701440 0.000000 0.000000 
#    y 0.000000 1.693150 0.000000 
#    z 0.000000 0.000000 1.699450 
# 
# From -- ./inp_files/14322.got.cif
#   From: 2010.06.25/outbox.cif.g09.slc.cpg/sg71_8_cif.got.tgz:14322.got - 2010.06.28 04:59:45.
