data_PCOD8292635
_publ_section_title
;
Structure prediction by ZEFSAII (Michael W. Deem and Ramdas Pophale) SiO2 
 PCOD8292635
Probable space group: I M M M
;
_chemical_formula_sum "Si O2"
_cell_formula_units_Z 80
_cell_length_a 33.755356
_cell_length_b 14.812405
_cell_length_c 8.760778
_cell_angle_alpha 90.000000
_cell_angle_beta 90.000000
_cell_angle_gamma 90.000000
_cell_volume 4380.371513
_symmetry_space_group_name_H-M "I M M M"
_symmetry_group_IT_number 71
_symmetry_cell_setting 'orthorhombic'
loop_
_space_group_symop_operation_xyz
x,y,z
-x,-y,z
x,-y,-z
-x,y,-z
-x,-y,-z
x,y,-z
-x,y,z
x,-y,z
1/2+x,1/2+y,1/2+z
1/2-x,1/2-y,1/2+z
1/2+x,1/2-y,1/2-z
1/2-x,1/2+y,1/2-z
1/2-x,1/2-y,1/2-z
1/2+x,1/2+y,1/2-z
1/2-x,1/2+y,1/2+z
1/2+x,1/2-y,1/2+z
loop_
_atom_site_type_symbol
_atom_site_label
_atom_site_fract_x
_atom_site_fract_y
_atom_site_fract_z
Si Si1 0.248338 0.603791 0.819512
Si Si2 0.808834 0.256666 0.680640
Si Si3 0.043823 0.600166 0.681603
Si Si4 0.102019 0.249728 0.682277
Si Si5 0.456196 0.600125 0.181640
O O1 0.252596 0.500000 0.759095
O O2 0.209795 0.652237 0.750097
O O3 0.286120 0.664743 0.769502
O O4 0.243908 0.602788 0.000000
O O5 0.808004 0.267634 0.500000
O O6 0.853354 0.248939 0.745524
O O7 0.044992 0.600876 0.500000
O O8 0.052085 0.500000 0.744444
O O9 0.078402 0.663685 0.746603
O O10 0.000000 0.632928 0.734680
O O11 0.102643 0.248976 0.500000
O O12 0.078313 0.163526 0.747440
O O13 0.500000 0.633191 0.234105
O O14 0.448065 0.500000 0.244732
O O15 0.454807 0.600631 0.000000
#
# Coordination Sequence:
#
# PCOD8292635 Si02
#       5
#    16  16  16  16  16
#     4   9  18  33  49  62  83 116 145 171 213 267
#     4   9  18  30  45  68  90 108 140 183 219 254
#     4   8  13  20  29  43  68 103 134 155 186 237
#     4   9  15  22  34  53  78 105 132 168 209 241
#     4   8  13  20  30  47  75 112 146 168 194 242
#
# _framework density 18.263290000000001
#
# number of rings (size 3 to 8) (size 9 to 14) (size 15 to 20)
#    0.000    3.400    0.000    1.800    0.000    4.400 
#    0.000    6.000    0.000    0.000    0.000    0.000 
#    0.000    3.200    0.000   13.200    0.000   10.400 
#
# Total GULP energy -495631.163213 kJ/mol
# GULP energy per Si atom -12390.779080 kJ/mol
# Density = 1.822172 g / cm^3
# Si number density = 18.263290 Si / 1000 Ang^3
#
#
#
# Elastic Constant Matrix: (Units=GPa)
#
#
# Indices 1 2 3 4 5 6 
#
# 1 188.9933 101.0540 9.9872 0.0000 0.0000 0.0000
# 2 101.0540 158.6797 11.2944 0.0000 0.0000 0.0000
# 3 9.9872 11.2944 3.8951 0.0000 0.0000 0.0000
# 4 0.0000 0.0000 0.0000 13.0132 0.0000 0.0000
# 5 0.0000 0.0000 0.0000 0.0000 13.8739 0.0000
# 6 0.0000 0.0000 0.0000 0.0000 0.0000 17.5761
#
#
#
# Elastic Compliance Matrix: (Units=1/GPa)
#
#
# Indices 1 2 3 4 5 6 
#
# 1 0.008189 -0.004688 -0.007403 0.000000 0.000000 0.000000
# 2 -0.004688 0.010625 -0.018788 0.000000 0.000000 0.000000
# 3 -0.007403 -0.018788 0.330190 0.000000 -0.000001 0.000000
# 4 0.000000 0.000000 0.000000 0.076845 0.000000 0.000000
# 5 0.000000 0.000000 -0.000001 0.000000 0.072078 0.000000
# 6 0.000000 0.000000 0.000000 0.000000 0.000000 0.056895
#
#
# Mechanical properties :
#
#
# Convention : Reuss Voigt Hill
#
# Bulk Modulus (GPa) = 3.48133 66.24881 34.86507
# Shear Modulus (GPa) = 7.01923 24.17481 15.59702
#
# Velocity S-wave (km/s) = 1.96257 3.64219 2.92551
# Velocity P-wave (km/s) = 2.65442 7.35122 5.52659
#
# Compressibility (1/GPa) = 0.28724630
#
# Stress axis : x y z
#
# Youngs Moduli (GPa) = 122.11172 94.11782 3.02856
#
# Poissons Ratio (x) = 0.44125 0.02242
# Poissons Ratio (y) = 0.57250 0.05690
# Poissons Ratio (z) = 0.90399 1.76824
#
# Static dielectric constant tensor:
#      x y z
#    x 3.654420 0.000000 0.000000 
#    y 0.000000 3.746390 0.000000 
#    z 0.000000 0.000000 2.665010 
# 
# 
# High freq. dielectric constant tensor:
#      x y z
#    x 1.712840 0.000000 0.000000 
#    y 0.000000 1.718460 0.000000 
#    z 0.000000 0.000000 1.632570 
# 
# From -- ./inp_files/29833.got.cif
#   From: 2010.06.25/outbox.cif.g09.slc.cpg/sg71_15_cif.got.tgz:29833.got - 2010.06.28 04:59:45.
