data_PCOD8292947
_publ_section_title
;
Structure prediction by ZEFSAII (Michael W. Deem and Ramdas Pophale) SiO2 
 PCOD8292947
Probable space group: I B A M
;
_chemical_formula_sum "Si O2"
_cell_formula_units_Z 96
_cell_length_a 26.204319
_cell_length_b 29.163928
_cell_length_c 9.128093
_cell_angle_alpha 90.000000
_cell_angle_beta 90.000000
_cell_angle_gamma 90.000000
_cell_volume 6975.879198
_symmetry_space_group_name_H-M "I B A M"
_symmetry_group_IT_number 72
_symmetry_cell_setting 'orthorhombic'
loop_
_space_group_symop_operation_xyz
x,y,z
-x,-y,z
x,-y,1/2-z
-x,y,1/2-z
-x,-y,-z
x,y,-z
-x,y,1/2+z
x,-y,1/2+z
1/2+x,1/2+y,1/2+z
1/2-x,1/2-y,1/2+z
1/2+x,1/2-y,-z
1/2-x,1/2+y,-z
1/2-x,1/2-y,1/2-z
1/2+x,1/2+y,1/2-z
1/2-x,1/2+y,z
1/2+x,1/2-y,z
loop_
_atom_site_type_symbol
_atom_site_label
_atom_site_fract_x
_atom_site_fract_y
_atom_site_fract_z
Si Si1 0.053041 0.140913 0.674369
Si Si2 0.857185 0.190810 0.672639
Si Si3 0.782871 0.043954 0.169300
Si Si4 0.099859 0.044748 0.329089
Si Si5 0.795326 0.727136 0.833177
Si Si6 0.236927 0.856642 0.829311
O O1 0.049345 0.146160 0.500000
O O2 0.093310 0.177308 0.736166
O O3 0.069186 0.089631 0.721112
O O4 0.000000 0.152894 0.750000
O O5 0.865311 0.181079 0.500000
O O6 0.847857 0.245849 0.704945
O O7 0.808500 0.162240 0.728682
O O8 0.841442 0.051787 0.217651
O O9 0.752195 0.090289 0.211389
O O10 0.758695 0.000000 0.250000
O O11 0.778876 0.032629 0.000000
O O12 0.094210 0.036440 0.500000
O O13 0.076551 0.000000 0.250000
O O14 0.750000 0.750000 0.750000
O O15 0.790095 0.672105 0.803249
O O16 0.783173 0.737450 0.000000
O O17 0.219237 0.853833 0.000000
#
# Coordination Sequence:
#
# PCOD8292947 Si02
#       6
#    16  16  16  16  16  16
#     4  11  22  35  46  58  74  97 127 161 203 244
#     4  10  18  28  42  61  79  97 123 158 195 233
#     4   9  16  26  39  56  76 102 130 157 193 230
#     4   9  18  31  44  56  71  94 125 161 202 240
#     4   8  15  25  40  60  79  98 122 151 187 228
#     4   9  15  27  43  58  79 104 127 155 190 229
#
# _framework density 13.761706
#
# number of rings (size 3 to 8) (size 9 to 14) (size 15 to 20)
#    0.000    2.667    1.667    1.000    0.000    3.000 
#    0.000    1.667    0.000    0.000    0.000    0.000 
#    0.000    0.000    0.000    0.000    0.000    0.833 
#
# Total GULP energy -594627.464789 kJ/mol
# GULP energy per Si atom -12388.072183 kJ/mol
# Density = 1.373038 g / cm^3
# Si number density = 13.761706 Si / 1000 Ang^3
#
#
#
# Elastic Constant Matrix: (Units=GPa)
#
#
# Indices 1 2 3 4 5 6 
#
# 1 50.9524 56.2292 28.3496 0.0000 0.0000 0.0000
# 2 56.2292 118.4489 41.3592 0.0000 0.0000 0.0000
# 3 28.3496 41.3592 47.0317 0.0000 0.0000 0.0000
# 4 0.0000 0.0000 0.0000 20.1998 0.0000 0.0000
# 5 0.0000 0.0000 0.0000 0.0000 14.4058 0.0000
# 6 0.0000 0.0000 0.0000 0.0000 0.0000 18.3745
#
#
#
# Elastic Compliance Matrix: (Units=1/GPa)
#
#
# Indices 1 2 3 4 5 6 
#
# 1 0.045602 -0.017390 -0.012196 0.000000 0.000000 0.000000
# 2 -0.017390 0.018815 -0.006063 0.000000 0.000000 0.000000
# 3 -0.012196 -0.006063 0.033946 0.000000 0.000000 0.000000
# 4 0.000000 0.000000 0.000000 0.049505 0.000000 0.000000
# 5 0.000000 0.000000 0.000000 0.000000 0.069417 0.000000
# 6 0.000000 0.000000 0.000000 0.000000 0.000000 0.054423
#
#
# Mechanical properties :
#
#
# Convention : Reuss Voigt Hill
#
# Bulk Modulus (GPa) = 36.94787 52.03435 44.49111
# Shear Modulus (GPa) = 14.20343 16.62900 15.41621
#
# Velocity S-wave (km/s) = 3.21611 3.47991 3.35061
# Velocity P-wave (km/s) = 6.37948 7.35115 6.88248
#
# Compressibility (1/GPa) = 0.02706516
#
# Stress axis : x y z
#
# Youngs Moduli (GPa) = 21.92867 53.14986 29.45880
#
# Poissons Ratio (x) = 0.92425 0.35927
# Poissons Ratio (y) = 0.38133 0.17862
# Poissons Ratio (z) = 0.26744 0.32227
#
# Static dielectric constant tensor:
#      x y z
#    x 2.516660 0.000000 0.000000 
#    y 0.000000 3.189730 0.000000 
#    z 0.000000 0.000000 2.786620 
# 
# 
# High freq. dielectric constant tensor:
#      x y z
#    x 1.468920 0.000000 0.000000 
#    y 0.000000 1.527060 0.000000 
#    z 0.000000 0.000000 1.535600 
# 
# From -- ./inp_files/8457.got.cif
#   From: 2010.03.12/outbox.cif.g09.slc.cpg/sg72_5_cif.got.tgz:8457.got - 2010.04.16 14:54:00.
