data_PCOD8292874
_publ_section_title
;
Structure prediction by ZEFSAII (Michael W. Deem and Ramdas Pophale) SiO2 
 PCOD8292874
Probable space group: I B A M
;
_chemical_formula_sum "Si O2"
_cell_formula_units_Z 128
_cell_length_a 20.092833
_cell_length_b 21.728451
_cell_length_c 18.231733
_cell_angle_alpha 90.000000
_cell_angle_beta 90.000000
_cell_angle_gamma 90.000000
_cell_volume 7959.721887
_symmetry_space_group_name_H-M "I B A M"
_symmetry_group_IT_number 72
_symmetry_cell_setting 'orthorhombic'
loop_
_space_group_symop_operation_xyz
x,y,z
-x,-y,z
x,-y,1/2-z
-x,y,1/2-z
-x,-y,-z
x,y,-z
-x,y,1/2+z
x,-y,1/2+z
1/2+x,1/2+y,1/2+z
1/2-x,1/2-y,1/2+z
1/2+x,1/2-y,-z
1/2-x,1/2+y,-z
1/2-x,1/2-y,1/2-z
1/2+x,1/2+y,1/2-z
1/2-x,1/2+y,z
1/2+x,1/2-y,z
loop_
_atom_site_type_symbol
_atom_site_label
_atom_site_fract_x
_atom_site_fract_y
_atom_site_fract_z
Si Si1 0.769994 0.561772 0.715154
Si Si2 0.425293 0.278579 0.270863
Si Si3 0.754422 0.779229 0.360758
Si Si4 0.658724 0.621433 0.184768
Si Si5 0.861036 0.210832 0.419979
Si Si6 0.076753 0.991531 0.163716
Si Si7 0.819401 0.072660 0.415610
Si Si8 0.830118 0.686262 0.720517
O O1 0.801147 0.500000 0.750000
O O2 0.707947 0.581300 0.765502
O O3 0.743364 0.549794 0.632617
O O4 0.828981 0.612461 0.712058
O O5 0.500000 0.294302 0.250000
O O6 0.377609 0.330871 0.238643
O O7 0.417385 0.277439 0.359021
O O8 0.404205 0.211834 0.238084
O O9 0.800257 0.839655 0.377578
O O10 0.697184 0.763122 0.419284
O O11 0.801907 0.719259 0.352638
O O12 0.718894 0.793969 0.284723
O O13 0.605554 0.576671 0.144705
O O14 0.895477 0.213731 0.500000
O O15 0.826040 0.145614 0.406937
O O16 0.088283 0.000000 0.250000
O O17 0.113608 0.042090 0.115192
O O18 0.000000 0.000000 0.142516
O O19 0.807859 0.053104 0.500000
#
# Coordination Sequence:
#
# PCOD8292874 Si02
#       8
#    16  16  16  16  16  16  16  16
#     4  11  16  29  51  70  90 117 154 198 238 276
#     4  10  19  30  51  72  92 125 163 202 227 275
#     4   8  14  27  45  65  90 115 146 196 240 274
#     4  10  17  28  48  70  91 117 163 201 229 264
#     4  10  18  30  48  69  95 123 155 195 242 288
#     4  11  21  31  46  65  93 132 170 197 215 266
#     4  11  20  31  45  64  92 126 158 191 235 280
#     4   8  15  27  45  70  90 109 151 194 241 273
#
# _framework density 16.080964000000002
#
# number of rings (size 3 to 8) (size 9 to 14) (size 15 to 20)
#    0.000    2.125    5.000    1.500    3.500    0.250 
#    0.000    0.625    0.000    4.125    0.000    0.000 
#    0.000    0.000    0.000    7.000    0.000    0.000 
#
# Total GULP energy -793031.418178 kJ/mol
# GULP energy per Si atom -12391.115909 kJ/mol
# Density = 1.604436 g / cm^3
# Si number density = 16.080964 Si / 1000 Ang^3
#
#
#
# Elastic Constant Matrix: (Units=GPa)
#
#
# Indices 1 2 3 4 5 6 
#
# 1 36.9942 28.7152 15.5708 0.0000 0.0000 0.0000
# 2 28.7152 89.1315 18.2950 0.0000 0.0000 0.0000
# 3 15.5708 18.2950 69.4127 0.0000 0.0000 0.0000
# 4 0.0000 0.0000 0.0000 12.1604 0.0000 0.0000
# 5 0.0000 0.0000 0.0000 0.0000 10.4721 0.0000
# 6 0.0000 0.0000 0.0000 0.0000 0.0000 21.5596
#
#
#
# Elastic Compliance Matrix: (Units=1/GPa)
#
#
# Indices 1 2 3 4 5 6 
#
# 1 0.037998 -0.011092 -0.005600 0.000000 0.000000 0.000000
# 2 -0.011092 0.015099 -0.001491 0.000000 0.000000 0.000000
# 3 -0.005600 -0.001491 0.016056 0.000000 0.000000 0.000000
# 4 0.000000 0.000000 0.000000 0.082234 0.000000 0.000000
# 5 0.000000 0.000000 0.000000 0.000000 0.095491 0.000000
# 6 0.000000 0.000000 0.000000 0.000000 0.000000 0.046383
#
#
# Mechanical properties :
#
#
# Convention : Reuss Voigt Hill
#
# Bulk Modulus (GPa) = 30.50136 35.63337 33.06736
# Shear Modulus (GPa) = 14.68176 17.70226 16.19201
#
# Velocity S-wave (km/s) = 3.02485 3.32146 3.17662
# Velocity P-wave (km/s) = 5.58643 6.07588 5.83629
#
# Compressibility (1/GPa) = 0.03278542
#
# Stress axis : x y z
#
# Youngs Moduli (GPa) = 26.31694 66.22932 62.28228
#
# Poissons Ratio (x) = 0.73463 0.34880
# Poissons Ratio (y) = 0.29191 0.09289
# Poissons Ratio (z) = 0.14738 0.09877
#
# Static dielectric constant tensor:
#      x y z
#    x 2.932300 0.000000 0.000000 
#    y 0.000000 3.395600 0.000000 
#    z 0.000000 0.000000 2.878240 
# 
# 
# High freq. dielectric constant tensor:
#      x y z
#    x 1.581580 0.000000 0.000000 
#    y 0.000000 1.620740 0.000000 
#    z 0.000000 0.000000 1.590910 
# 
# From -- ./inp_files/32993.got.cif
#   From: 2010.03.12/outbox.cif.g09.slc.cpg/sg72_17_cif.got.tgz:32993.got - 2010.04.16 14:54:00.
