data_PCOD8292849
_publ_section_title
;
Structure prediction by ZEFSAII (Michael W. Deem and Ramdas Pophale) SiO2 
 PCOD8292849
Probable space group: I B A M
;
_chemical_formula_sum "Si O2"
_cell_formula_units_Z 80
_cell_length_a 25.907730
_cell_length_b 18.154803
_cell_length_c 8.882700
_cell_angle_alpha 90.000000
_cell_angle_beta 90.000000
_cell_angle_gamma 90.000000
_cell_volume 4177.975585
_symmetry_space_group_name_H-M "I B A M"
_symmetry_group_IT_number 72
_symmetry_cell_setting 'orthorhombic'
loop_
_space_group_symop_operation_xyz
x,y,z
-x,-y,z
x,-y,1/2-z
-x,y,1/2-z
-x,-y,-z
x,y,-z
-x,y,1/2+z
x,-y,1/2+z
1/2+x,1/2+y,1/2+z
1/2-x,1/2-y,1/2+z
1/2+x,1/2-y,-z
1/2-x,1/2+y,-z
1/2-x,1/2-y,1/2-z
1/2+x,1/2+y,1/2-z
1/2-x,1/2+y,z
1/2+x,1/2-y,z
loop_
_atom_site_type_symbol
_atom_site_label
_atom_site_fract_x
_atom_site_fract_y
_atom_site_fract_z
Si Si1 0.661757 0.316849 0.671657
Si Si2 0.951905 0.193328 0.174539
Si Si3 0.260411 0.576546 0.823483
Si Si4 0.449118 0.147948 0.677898
Si Si5 0.845910 0.353695 0.176636
O O1 0.680479 0.327025 0.500000
O O2 0.603007 0.347897 0.690176
O O3 0.698651 0.361270 0.780946
O O4 0.663989 0.231449 0.718884
O O5 0.948464 0.267932 0.269204
O O6 0.000000 0.147739 0.250000
O O7 0.963225 0.211287 0.000000
O O8 0.276729 0.500000 0.750000
O O9 0.203562 0.600238 0.768848
O O10 0.261639 0.566545 0.000000
O O11 0.500000 0.108761 0.750000
O O12 0.451791 0.140694 0.500000
O O13 0.395613 0.112447 0.737599
O O14 0.856380 0.360769 0.000000
#
# Coordination Sequence:
#
# PCOD8292849 Si02
#       5
#    16  16  16  16  16
#     4   9  18  33  53  77 105 133 168 211 252 297
#     4   9  16  27  45  72 105 136 165 204 250 298
#     4  11  23  37  54  74 101 136 172 211 257 305
#     4  10  17  26  45  73 104 135 165 203 249 298
#     4   9  19  35  53  76 104 134 169 211 254 300
#
# _framework density 19.148029999999999
#
# number of rings (size 3 to 8) (size 9 to 14) (size 15 to 20)
#    0.000    2.400    0.000    6.000    0.000    5.600 
#    0.000    0.000    0.000    1.200    0.000    8.400 
#    0.000    0.000    0.000    0.000    0.000    0.000 
#
# Total GULP energy -495788.335976 kJ/mol
# GULP energy per Si atom -12394.708399 kJ/mol
# Density = 1.910445 g / cm^3
# Si number density = 19.148030 Si / 1000 Ang^3
#
#
#
# Elastic Constant Matrix: (Units=GPa)
#
#
# Indices 1 2 3 4 5 6 
#
# 1 105.5402 4.2314 50.7705 0.0000 0.0000 0.0000
# 2 4.2314 22.5248 12.6857 0.0000 0.0000 0.0000
# 3 50.7705 12.6857 94.1606 0.0000 0.0000 0.0000
# 4 0.0000 0.0000 0.0000 16.1120 0.0000 0.0000
# 5 0.0000 0.0000 0.0000 0.0000 40.2623 0.0000
# 6 0.0000 0.0000 0.0000 0.0000 0.0000 0.0475
#
#
#
# Elastic Compliance Matrix: (Units=1/GPa)
#
#
# Indices 1 2 3 4 5 6 
#
# 1 0.012847 0.001610 -0.007144 0.000000 0.000000 0.000000
# 2 0.001610 0.048242 -0.007367 0.000000 0.000000 0.000000
# 3 -0.007144 -0.007367 0.015465 0.000000 0.000000 0.000000
# 4 0.000000 0.000000 0.000000 0.062066 0.000000 0.000000
# 5 0.000000 0.000000 0.000000 0.000000 0.024837 0.000000
# 6 0.000000 0.000000 0.000000 0.000000 0.000000 21.054863
#
#
# Mechanical properties :
#
#
# Convention : Reuss Voigt Hill
#
# Bulk Modulus (GPa) = 19.70395 39.73343 29.71869
# Shear Modulus (GPa) = 0.23517 21.58689 10.91103
#
# Velocity S-wave (km/s) = 0.35083 3.36127 2.38969
# Velocity P-wave (km/s) = 3.23679 5.98832 4.81335
#
# Compressibility (1/GPa) = 0.05075123
#
# Stress axis : x y z
#
# Youngs Moduli (GPa) = 77.83826 20.72869 64.66342
#
# Poissons Ratio (x) = -0.03337 0.46195
# Poissons Ratio (y) = -0.12532 0.47641
# Poissons Ratio (z) = 0.55607 0.15272
#
# Static dielectric constant tensor:
#      x y z
#    x 4.424940 0.000000 0.000000 
#    y 0.000000 2.933820 0.000000 
#    z 0.000000 0.000000 3.491420 
# 
# 
# High freq. dielectric constant tensor:
#      x y z
#    x 1.773680 0.000000 0.000000 
#    y 0.000000 1.678780 0.000000 
#    z 0.000000 0.000000 1.750070 
# 
# From -- ./inp_files/4789.got.cif
#   From: 2010.03.12/outbox.cif.g09.slc.cpg/sg72_3_cif.got.tgz:4789.got - 2010.04.16 14:54:00.
