data_PCOD8292162
_publ_section_title
;
Structure prediction by ZEFSAII (Michael W. Deem and Ramdas Pophale) SiO2 
 PCOD8292162
Probable space group: I M M M
;
_chemical_formula_sum "Si O2"
_cell_formula_units_Z 104
_cell_length_a 14.388786
_cell_length_b 18.002544
_cell_length_c 19.995511
_cell_angle_alpha 90.000000
_cell_angle_beta 90.000000
_cell_angle_gamma 90.000000
_cell_volume 5179.532254
_symmetry_space_group_name_H-M "I M M M"
_symmetry_group_IT_number 71
_symmetry_cell_setting 'orthorhombic'
loop_
_space_group_symop_operation_xyz
x,y,z
-x,-y,z
x,-y,-z
-x,y,-z
-x,-y,-z
x,y,-z
-x,y,z
x,-y,z
1/2+x,1/2+y,1/2+z
1/2-x,1/2-y,1/2+z
1/2+x,1/2-y,1/2-z
1/2-x,1/2+y,1/2-z
1/2-x,1/2-y,1/2-z
1/2+x,1/2+y,1/2-z
1/2-x,1/2+y,1/2+z
1/2+x,1/2-y,1/2+z
loop_
_atom_site_type_symbol
_atom_site_label
_atom_site_fract_x
_atom_site_fract_y
_atom_site_fract_z
Si Si1 0.242113 0.912627 0.800523
Si Si2 0.817682 0.161131 0.074101
Si Si3 0.500000 0.581148 0.579167
Si Si4 0.605265 0.187167 0.396137
Si Si5 0.389193 0.652924 0.806425
Si Si6 0.602460 0.812420 0.242690
Si Si7 0.769582 0.086134 0.422801
O O1 0.254414 0.867005 0.870434
O O2 0.151992 0.893868 0.755724
O O3 0.332652 0.884489 0.761351
O O4 0.246948 0.000000 0.814399
O O5 0.910680 0.124373 0.103829
O O6 0.835519 0.248626 0.067389
O O7 0.789197 0.131836 0.000000
O O8 0.500000 0.500000 0.612336
O O9 0.500000 0.576198 0.500000
O O10 0.500000 0.178611 0.425292
O O11 0.599436 0.210891 0.319605
O O12 0.663671 0.112451 0.409288
O O13 0.500000 0.640468 0.808073
O O14 0.362332 0.739715 0.797361
O O15 0.344098 0.628556 0.876602
O O16 0.500000 0.835226 0.217373
O O17 0.797588 0.099342 0.500000
O O18 0.772926 0.000000 0.403585
#
# Coordination Sequence:
#
# PCOD8292162 Si02
#       7
#    16  16   8  16  16  16  16
#     4  12  24  38  62  91 122 160 201 246 300 360
#     4  11  22  36  56  86 122 159 198 239 291 360
#     4   9  18  32  48  74 117 155 184 228 283 342
#     4  11  21  38  63  89 120 161 204 248 301 359
#     4  11  23  42  65  88 118 158 205 251 298 356
#     4  10  22  41  65  90 120 155 200 258 304 346
#     4  11  25  42  60  88 124 159 201 254 307 358
#
# _framework density 20.079034
#
# number of rings (size 3 to 8) (size 9 to 14) (size 15 to 20)
#    0.000    1.154    3.846    2.769    1.077    4.000 
#    0.000    3.077    0.000    1.385    0.000    1.077 
#    0.000    0.000    0.000    0.000    0.000    0.000 
#
# Total GULP energy -644669.504312 kJ/mol
# GULP energy per Si atom -12397.490468 kJ/mol
# Density = 2.003333 g / cm^3
# Si number density = 20.079034 Si / 1000 Ang^3
#
#
#
# Elastic Constant Matrix: (Units=GPa)
#
#
# Indices 1 2 3 4 5 6 
#
# 1 86.5628 50.2361 33.0247 0.0000 0.0000 0.0000
# 2 50.2361 91.6984 32.1509 0.0000 0.0000 0.0000
# 3 33.0247 32.1509 109.9899 0.0000 0.0000 0.0000
# 4 0.0000 0.0000 0.0000 26.8601 0.0000 0.0000
# 5 0.0000 0.0000 0.0000 0.0000 26.3648 0.0000
# 6 0.0000 0.0000 0.0000 0.0000 0.0000 39.0804
#
#
#
# Elastic Compliance Matrix: (Units=1/GPa)
#
#
# Indices 1 2 3 4 5 6 
#
# 1 0.017657 -0.008707 -0.002756 0.000000 0.000000 0.000000
# 2 -0.008707 0.016444 -0.002192 0.000000 0.000000 0.000000
# 3 -0.002756 -0.002192 0.010560 0.000000 0.000000 0.000000
# 4 0.000000 0.000000 0.000000 0.037230 0.000000 0.000000
# 5 0.000000 0.000000 0.000000 0.000000 0.037929 0.000000
# 6 0.000000 0.000000 0.000000 0.000000 0.000000 0.025588
#
#
# Mechanical properties :
#
#
# Convention : Reuss Voigt Hill
#
# Bulk Modulus (GPa) = 57.63776 57.67493 57.65635
# Shear Modulus (GPa) = 28.01075 29.98369 28.99722
#
# Velocity S-wave (km/s) = 3.73906 3.86849 3.80433
# Velocity P-wave (km/s) = 6.88538 6.98140 6.93356
#
# Compressibility (1/GPa) = 0.01734974
#
# Stress axis : x y z
#
# Youngs Moduli (GPa) = 56.63553 60.81291 94.69468
#
# Poissons Ratio (x) = 0.52948 0.26102
# Poissons Ratio (y) = 0.49310 0.20762
# Poissons Ratio (z) = 0.15611 0.13333
#
# Static dielectric constant tensor:
#      x y z
#    x 3.549160 0.000000 0.000000 
#    y 0.000000 3.593240 0.000000 
#    z 0.000000 0.000000 3.618920 
# 
# 
# High freq. dielectric constant tensor:
#      x y z
#    x 1.768300 0.000000 0.000000 
#    y 0.000000 1.783100 0.000000 
#    z 0.000000 0.000000 1.790160 
# 
# From -- ./inp_files/36708.got.cif
#   From: 2010.06.25/outbox.cif.g09.slc.cpg/sg71_19_cif.got.tgz:36708.got - 2010.06.28 04:59:45.
