data_PCOD8292370
_publ_section_title
;
Structure prediction by ZEFSAII (Michael W. Deem and Ramdas Pophale) SiO2 
 PCOD8292370
Probable space group: I M M M
;
_chemical_formula_sum "Si O2"
_cell_formula_units_Z 104
_cell_length_a 21.779065
_cell_length_b 27.347398
_cell_length_c 8.771010
_cell_angle_alpha 90.000000
_cell_angle_beta 90.000000
_cell_angle_gamma 90.000000
_cell_volume 5224.020210
_symmetry_space_group_name_H-M "I M M M"
_symmetry_group_IT_number 71
_symmetry_cell_setting 'orthorhombic'
loop_
_space_group_symop_operation_xyz
x,y,z
-x,-y,z
x,-y,-z
-x,y,-z
-x,-y,-z
x,y,-z
-x,y,z
x,-y,z
1/2+x,1/2+y,1/2+z
1/2-x,1/2-y,1/2+z
1/2+x,1/2-y,1/2-z
1/2-x,1/2+y,1/2-z
1/2-x,1/2-y,1/2-z
1/2+x,1/2+y,1/2-z
1/2-x,1/2+y,1/2+z
1/2+x,1/2-y,1/2+z
loop_
_atom_site_type_symbol
_atom_site_label
_atom_site_fract_x
_atom_site_fract_y
_atom_site_fract_z
Si Si1 0.569978 0.307691 0.820304
Si Si2 0.745132 0.800290 0.668573
Si Si3 0.108671 0.607807 0.319958
Si Si4 0.105219 0.294168 0.168196
Si Si5 0.268648 0.945020 0.818987
Si Si6 0.168885 0.127440 0.177084
Si Si7 0.000000 0.443402 0.832075
O O1 0.500000 0.314469 0.764957
O O2 0.597751 0.257972 0.750531
O O3 0.608088 0.355900 0.768892
O O4 0.573607 0.302797 0.000000
O O5 0.777269 0.801517 0.500000
O O6 0.750000 0.750000 0.750000
O O7 0.674528 0.811494 0.648353
O O8 0.776245 0.835741 0.788725
O O9 0.110927 0.610335 0.500000
O O10 0.080221 0.660047 0.263959
O O11 0.175932 0.589853 0.257390
O O12 0.060481 0.568263 0.263901
O O13 0.074561 0.290237 0.000000
O O14 0.200188 0.924326 0.773999
O O15 0.274344 0.000000 0.751240
O O16 0.273391 0.946645 0.000000
O O17 0.151352 0.128690 0.000000
O O18 0.000000 0.500000 0.859732
O O19 0.000000 0.417537 0.000000
#
# Coordination Sequence:
#
# PCOD8292370 Si02
#       7
#    16  16  16  16  16  16   8
#     4  11  25  42  60  83 116 158 202 245 294 356
#     4  11  21  33  54  83 117 151 186 227 278 338
#     4  11  22  38  61  86 118 157 202 247 295 355
#     4  11  23  37  56  84 119 154 192 235 287 345
#     4   9  19  36  60  90 119 147 187 243 300 354
#     4  11  21  36  60  88 118 152 193 242 298 354
#     4  11  25  43  59  79 113 157 207 259 304 347
#
# _framework density 19.90804
#
# number of rings (size 3 to 8) (size 9 to 14) (size 15 to 20)
#    0.000    1.308    3.077    3.000    1.077    3.692 
#    0.000    0.000    0.000    5.077    0.000    3.231 
#    0.000    0.000    0.000    0.000    0.000    0.000 
#
# Total GULP energy -644234.264631 kJ/mol
# GULP energy per Si atom -12389.120474 kJ/mol
# Density = 1.986273 g / cm^3
# Si number density = 19.908040 Si / 1000 Ang^3
#
#
#
# Elastic Constant Matrix: (Units=GPa)
#
#
# Indices 1 2 3 4 5 6 
#
# 1 110.4954 31.9017 20.5350 0.0000 0.0000 0.0000
# 2 31.9017 90.5407 23.0700 0.0000 0.0000 0.0000
# 3 20.5350 23.0700 69.7412 0.0000 0.0000 0.0000
# 4 0.0000 0.0000 0.0000 22.9276 0.0000 0.0000
# 5 0.0000 0.0000 0.0000 0.0000 30.8445 0.0000
# 6 0.0000 0.0000 0.0000 0.0000 0.0000 20.2266
#
#
#
# Elastic Compliance Matrix: (Units=1/GPa)
#
#
# Indices 1 2 3 4 5 6 
#
# 1 0.010326 -0.003127 -0.002006 0.000000 0.000000 0.000000
# 2 -0.003127 0.013008 -0.003382 0.000000 0.000000 0.000000
# 3 -0.002006 -0.003382 0.016048 0.000000 0.000000 0.000000
# 4 0.000000 0.000000 0.000000 0.043615 0.000000 0.000000
# 5 0.000000 0.000000 0.000000 0.000000 0.032421 0.000000
# 6 0.000000 0.000000 0.000000 0.000000 0.000000 0.049440
#
#
# Mechanical properties :
#
#
# Convention : Reuss Voigt Hill
#
# Bulk Modulus (GPa) = 44.73951 46.86561 45.80256
# Shear Modulus (GPa) = 26.40754 27.81779 27.11266
#
# Velocity S-wave (km/s) = 3.64603 3.74212 3.69439
# Velocity P-wave (km/s) = 6.34402 6.50103 6.42301
#
# Compressibility (1/GPa) = 0.02235161
#
# Stress axis : x y z
#
# Youngs Moduli (GPa) = 96.84481 76.87331 62.31220
#
# Poissons Ratio (x) = 0.24039 0.12499
# Poissons Ratio (y) = 0.30285 0.21076
# Poissons Ratio (z) = 0.19427 0.26001
#
# Static dielectric constant tensor:
#      x y z
#    x 3.813410 0.000000 0.000000 
#    y 0.000000 3.668230 0.000000 
#    z 0.000000 0.000000 3.812680 
# 
# 
# High freq. dielectric constant tensor:
#      x y z
#    x 1.770440 0.000000 0.000000 
#    y 0.000000 1.765290 0.000000 
#    z 0.000000 0.000000 1.775500 
# 
# From -- ./inp_files/11131.got.cif
#   From: 2010.06.25/outbox.cif.g09.slc.cpg/sg71_6_cif.got.tgz:11131.got - 2010.06.28 04:59:45.
