data_PCOD8292502
_publ_section_title
;
Structure prediction by ZEFSAII (Michael W. Deem and Ramdas Pophale) SiO2 
 PCOD8292502
Probable space group: I M M M
;
_chemical_formula_sum "Si O2"
_cell_formula_units_Z 72
_cell_length_a 8.599071
_cell_length_b 15.315698
_cell_length_c 26.327126
_cell_angle_alpha 90.000000
_cell_angle_beta 90.000000
_cell_angle_gamma 90.000000
_cell_volume 3467.302885
_symmetry_space_group_name_H-M "I M M M"
_symmetry_group_IT_number 71
_symmetry_cell_setting 'orthorhombic'
loop_
_space_group_symop_operation_xyz
x,y,z
-x,-y,z
x,-y,-z
-x,y,-z
-x,-y,-z
x,y,-z
-x,y,z
x,-y,z
1/2+x,1/2+y,1/2+z
1/2-x,1/2-y,1/2+z
1/2+x,1/2-y,1/2-z
1/2-x,1/2+y,1/2-z
1/2-x,1/2-y,1/2-z
1/2+x,1/2+y,1/2-z
1/2-x,1/2+y,1/2+z
1/2+x,1/2-y,1/2+z
loop_
_atom_site_type_symbol
_atom_site_label
_atom_site_fract_x
_atom_site_fract_y
_atom_site_fract_z
Si Si1 0.314955 0.178155 0.287232
Si Si2 0.684093 0.000000 0.763214
Si Si3 0.815983 0.500000 0.942651
Si Si4 0.684588 0.000000 0.878372
Si Si5 0.316652 0.325415 0.103006
Si Si6 0.680014 0.657258 0.441979
O O1 0.500000 0.182641 0.290470
O O2 0.250000 0.250000 0.250000
O O3 0.256054 0.084398 0.267164
O O4 0.241650 0.199014 0.341341
O O5 0.500000 0.000000 0.765867
O O6 0.748862 0.000000 0.820740
O O7 0.757745 0.415832 0.913429
O O8 0.000000 0.500000 0.942054
O O9 0.750923 0.500000 0.000000
O O10 0.745303 0.913871 0.905545
O O11 0.500000 0.000000 0.880124
O O12 0.500000 0.334430 0.102050
O O13 0.264392 0.249708 0.064722
O O14 0.701567 0.626630 0.500000
O O15 0.500000 0.668109 0.427943
#
# Coordination Sequence:
#
# PCOD8292502 Si02
#       6
#    16   8   8   8  16  16
#     4  11  22  40  64  90 123 163 207 254 306 363
#     4   9  21  39  60  86 118 157 198 243 296 358
#     4  11  24  43  66  92 124 163 206 255 315 378
#     4  11  22  39  64  94 126 159 202 255 309 364
#     4  12  25  41  63  93 126 161 207 259 311 369
#     4  11  24  42  63  89 123 164 209 255 307 369
#
# _framework density 20.765421
#
# number of rings (size 3 to 8) (size 9 to 14) (size 15 to 20)
#    0.000    1.000    0.000    7.000    0.000    9.333 
#    0.000    5.000    0.000    0.000    0.000    0.000 
#    0.000    0.000    0.000    0.000    0.000    0.000 
#
# Total GULP energy -446648.445111 kJ/mol
# GULP energy per Si atom -12406.901253 kJ/mol
# Density = 2.071816 g / cm^3
# Si number density = 20.765421 Si / 1000 Ang^3
#
#
#
# Elastic Constant Matrix: (Units=GPa)
#
#
# Indices 1 2 3 4 5 6 
#
# 1 81.8776 18.0699 22.3662 0.0000 0.0000 0.0000
# 2 18.0699 105.3381 2.2782 0.0000 0.0000 0.0000
# 3 22.3662 2.2782 89.2452 0.0000 0.0000 0.0000
# 4 0.0000 0.0000 0.0000 56.6558 0.0000 0.0000
# 5 0.0000 0.0000 0.0000 0.0000 35.7497 0.0000
# 6 0.0000 0.0000 0.0000 0.0000 0.0000 45.7010
#
#
#
# Elastic Compliance Matrix: (Units=1/GPa)
#
#
# Indices 1 2 3 4 5 6 
#
# 1 0.013631 -0.002266 -0.003358 0.000000 0.000000 0.000000
# 2 -0.002266 0.009875 0.000316 0.000000 0.000000 0.000000
# 3 -0.003358 0.000316 0.012039 0.000000 0.000000 0.000000
# 4 0.000000 0.000000 0.000000 0.017650 0.000000 0.000000
# 5 0.000000 0.000000 0.000000 0.000000 0.027972 0.000000
# 6 0.000000 0.000000 0.000000 0.000000 0.000000 0.021881
#
#
# Mechanical properties :
#
#
# Convention : Reuss Voigt Hill
#
# Bulk Modulus (GPa) = 40.11525 40.20993 40.16259
# Shear Modulus (GPa) = 40.99229 43.20440 42.09835
#
# Velocity S-wave (km/s) = 4.44787 4.56630 4.50747
# Velocity P-wave (km/s) = 6.76301 6.87076 6.81710
#
# Compressibility (1/GPa) = 0.02492818
#
# Stress axis : x y z
#
# Youngs Moduli (GPa) = 73.36373 101.26521 83.06583
#
# Poissons Ratio (x) = 0.22943 0.27895
# Poissons Ratio (y) = 0.16621 -0.02623
# Poissons Ratio (z) = 0.24637 -0.03197
#
# Static dielectric constant tensor:
#      x y z
#    x 3.816640 0.000000 0.000000 
#    y 0.000000 3.791620 0.000000 
#    z 0.000000 0.000000 4.464690 
# 
# 
# High freq. dielectric constant tensor:
#      x y z
#    x 1.816300 0.000000 0.000000 
#    y 0.000000 1.831150 0.000000 
#    z 0.000000 0.000000 1.831690 
# 
# From -- ./inp_files/31482.got.cif
#   From: 2010.06.25/outbox.cif.g09.slc.cpg/sg71_16_cif.got.tgz:31482.got - 2010.06.28 04:59:45.
