data_PCOD8292541
_publ_section_title
;
Structure prediction by ZEFSAII (Michael W. Deem and Ramdas Pophale) SiO2 
 PCOD8292541
Probable space group: I M M M
;
_chemical_formula_sum "Si O2"
_cell_formula_units_Z 88
_cell_length_a 24.817466
_cell_length_b 20.012219
_cell_length_c 8.877467
_cell_angle_alpha 90.000000
_cell_angle_beta 90.000000
_cell_angle_gamma 90.000000
_cell_volume 4409.016753
_symmetry_space_group_name_H-M "I M M M"
_symmetry_group_IT_number 71
_symmetry_cell_setting 'orthorhombic'
loop_
_space_group_symop_operation_xyz
x,y,z
-x,-y,z
x,-y,-z
-x,y,-z
-x,-y,-z
x,y,-z
-x,y,z
x,-y,z
1/2+x,1/2+y,1/2+z
1/2-x,1/2-y,1/2+z
1/2+x,1/2-y,1/2-z
1/2-x,1/2+y,1/2-z
1/2-x,1/2-y,1/2-z
1/2+x,1/2+y,1/2-z
1/2-x,1/2+y,1/2+z
1/2+x,1/2-y,1/2+z
loop_
_atom_site_type_symbol
_atom_site_label
_atom_site_fract_x
_atom_site_fract_y
_atom_site_fract_z
Si Si1 0.288824 0.925709 0.825507
Si Si2 0.000000 0.642993 0.830936
Si Si3 0.212633 0.807245 0.176987
Si Si4 0.395436 0.077567 0.675004
Si Si5 0.604215 0.357183 0.178779
Si Si6 0.437869 0.500000 0.821934
Si Si7 0.000000 0.799650 0.828936
O O1 0.238816 0.878907 0.789600
O O2 0.341238 0.893898 0.748109
O O3 0.275966 0.000000 0.761544
O O4 0.301705 0.929175 0.000000
O O5 0.053784 0.615482 0.750059
O O6 0.000000 0.721103 0.835693
O O7 0.000000 0.612448 0.000000
O O8 0.250000 0.750000 0.250000
O O9 0.153676 0.816334 0.247978
O O10 0.207429 0.791729 0.000000
O O11 0.390811 0.093657 0.500000
O O12 0.402008 0.000000 0.711199
O O13 0.596616 0.434916 0.230270
O O14 0.551313 0.320707 0.234614
O O15 0.609909 0.351832 0.000000
O O16 0.500000 0.500000 0.756200
O O17 0.443598 0.500000 0.000000
O O18 0.000000 0.828940 0.000000
#
# Coordination Sequence:
#
# PCOD8292541 Si02
#       7
#    16   8  16  16  16   8   8
#     4   9  20  39  59  82 116 153 191 240 297 354
#     4   9  19  33  53  81 114 150 189 239 289 342
#     4  11  25  43  64  90 123 163 207 257 312 373
#     4   9  17  32  56  83 110 145 191 239 287 341
#     4  11  23  42  66  92 123 161 207 257 312 372
#     4   9  18  38  66  94 126 162 202 257 316 375
#     4  11  23  39  58  88 125 164 203 245 304 368
#
# _framework density 19.959099999999999
#
# number of rings (size 3 to 8) (size 9 to 14) (size 15 to 20)
#    0.000    2.091    0.909    1.636    3.818    2.545 
#    0.000    3.182    0.000    2.182    0.000    0.000 
#    0.000    0.000    0.000    0.000    0.000    0.000 
#
# Total GULP energy -545399.265965 kJ/mol
# GULP energy per Si atom -12395.437863 kJ/mol
# Density = 1.991367 g / cm^3
# Si number density = 19.959100 Si / 1000 Ang^3
#
#
#
# Elastic Constant Matrix: (Units=GPa)
#
#
# Indices 1 2 3 4 5 6 
#
# 1 160.0520 55.8945 53.6551 0.0000 0.0000 0.0000
# 2 55.8945 70.2393 40.0490 0.0000 0.0000 0.0000
# 3 53.6551 40.0490 63.0057 0.0000 0.0000 0.0000
# 4 0.0000 0.0000 0.0000 25.0211 0.0000 0.0000
# 5 0.0000 0.0000 0.0000 0.0000 32.7044 0.0000
# 6 0.0000 0.0000 0.0000 0.0000 0.0000 24.8072
#
#
#
# Elastic Compliance Matrix: (Units=1/GPa)
#
#
# Indices 1 2 3 4 5 6 
#
# 1 0.009638 -0.004689 -0.005227 0.000000 0.000000 0.000000
# 2 -0.004689 0.024612 -0.011651 0.000000 0.000000 0.000000
# 3 -0.005227 -0.011651 0.027728 0.000000 0.000000 0.000000
# 4 0.000000 0.000000 0.000000 0.039966 0.000000 0.000000
# 5 0.000000 0.000000 0.000000 0.000000 0.030577 0.000000
# 6 0.000000 0.000000 0.000000 0.000000 0.000000 0.040311
#
#
# Mechanical properties :
#
#
# Convention : Reuss Voigt Hill
#
# Bulk Modulus (GPa) = 53.06702 65.83271 59.44987
# Shear Modulus (GPa) = 22.49747 26.08643 24.29195
#
# Velocity S-wave (km/s) = 3.36099 3.61916 3.49246
# Velocity P-wave (km/s) = 6.45812 7.10773 6.79070
#
# Compressibility (1/GPa) = 0.01884409
#
# Stress axis : x y z
#
# Youngs Moduli (GPa) = 103.75829 40.63100 36.06416
#
# Poissons Ratio (x) = 0.19053 0.18850
# Poissons Ratio (y) = 0.48656 0.42018
# Poissons Ratio (z) = 0.54232 0.47339
#
# Static dielectric constant tensor:
#      x y z
#    x 3.194780 0.000000 0.000000 
#    y 0.000000 3.929710 0.000000 
#    z 0.000000 0.000000 3.590760 
# 
# 
# High freq. dielectric constant tensor:
#      x y z
#    x 1.791980 0.000000 0.000000 
#    y 0.000000 1.784730 0.000000 
#    z 0.000000 0.000000 1.759940 
# 
# From -- ./inp_files/12612.got.cif
#   From: 2010.06.25/outbox.cif.g09.slc.cpg/sg71_7_cif.got.tgz:12612.got - 2010.06.28 04:59:45.
