data_PCOD8292749
_publ_section_title
;
Structure prediction by ZEFSAII (Michael W. Deem and Ramdas Pophale) SiO2 
 PCOD8292749
Probable space group: I M M M
;
_chemical_formula_sum "Si O2"
_cell_formula_units_Z 88
_cell_length_a 34.060568
_cell_length_b 9.242665
_cell_length_c 22.649973
_cell_angle_alpha 90.000000
_cell_angle_beta 90.000000
_cell_angle_gamma 90.000000
_cell_volume 7130.447507
_symmetry_space_group_name_H-M "I M M M"
_symmetry_group_IT_number 71
_symmetry_cell_setting 'orthorhombic'
loop_
_space_group_symop_operation_xyz
x,y,z
-x,-y,z
x,-y,-z
-x,y,-z
-x,-y,-z
x,y,-z
-x,y,z
x,-y,z
1/2+x,1/2+y,1/2+z
1/2-x,1/2-y,1/2+z
1/2+x,1/2-y,1/2-z
1/2-x,1/2+y,1/2-z
1/2-x,1/2-y,1/2-z
1/2+x,1/2+y,1/2-z
1/2-x,1/2+y,1/2+z
1/2+x,1/2-y,1/2+z
loop_
_atom_site_type_symbol
_atom_site_label
_atom_site_fract_x
_atom_site_fract_y
_atom_site_fract_z
Si Si1 0.000000 0.336487 0.929773
Si Si2 0.232576 0.831858 0.067858
Si Si3 0.690809 0.836500 0.263708
Si Si4 0.228130 0.163477 0.666174
Si Si5 0.424166 0.668612 0.431886
Si Si6 0.653947 0.668309 0.364245
O O1 0.961194 0.256151 0.906123
O O2 0.000000 0.500000 0.905989
O O3 0.000000 0.329990 0.000000
O O4 0.264931 0.740598 0.103462
O O5 0.188890 0.796306 0.090339
O O6 0.242260 0.000000 0.077033
O O7 0.235178 0.785341 0.000000
O O8 0.731982 0.834848 0.297088
O O9 0.694782 0.750137 0.202186
O O10 0.658270 0.758961 0.304150
O O11 0.677284 0.000000 0.250260
O O12 0.213550 0.000000 0.655473
O O13 0.415986 0.707313 0.500000
O O14 0.433416 0.500000 0.424567
O O15 0.386269 0.716124 0.394986
O O16 0.654067 0.500000 0.347305
#
# Coordination Sequence:
#
# PCOD8292749 Si02
#       6
#     8  16  16  16  16  16
#     4   9  17  27  37  49  65  85 109 137 168 201
#     4   9  16  25  36  50  68  88 109 135 169 206
#     4   9  16  25  36  49  64  83 107 134 166 201
#     4   9  16  25  36  48  63  84 109 136 164 196
#     4   9  16  26  39  52  66  86 111 137 167 205
#     4   9  16  25  37  52  68  85 107 137 171 205
#
# _framework density 12.341442000000001
#
# number of rings (size 3 to 8) (size 9 to 14) (size 15 to 20)
#    0.000    3.000    0.000    1.909    0.000    8.727 
#    0.000    0.000    0.000    3.273    0.000    0.000 
#    0.000    0.000    0.000    0.000    0.000    0.000 
#
# Total GULP energy -545558.186184 kJ/mol
# GULP energy per Si atom -12399.049686 kJ/mol
# Density = 1.231335 g / cm^3
# Si number density = 12.341442 Si / 1000 Ang^3
#
#
#
# Elastic Constant Matrix: (Units=GPa)
#
#
# Indices 1 2 3 4 5 6 
#
# 1 60.4725 42.6489 44.2673 0.0000 0.0000 0.0000
# 2 42.6489 83.1435 49.9167 0.0000 0.0000 0.0000
# 3 44.2673 49.9167 75.4501 0.0000 0.0000 0.0000
# 4 0.0000 0.0000 0.0000 20.4817 0.0000 0.0000
# 5 0.0000 0.0000 0.0000 0.0000 15.9411 0.0000
# 6 0.0000 0.0000 0.0000 0.0000 0.0000 15.8372
#
#
#
# Elastic Compliance Matrix: (Units=1/GPa)
#
#
# Indices 1 2 3 4 5 6 
#
# 1 0.032323 -0.008618 -0.013263 0.000000 0.000000 0.000000
# 2 -0.008618 0.022250 -0.009664 0.000000 0.000000 0.000000
# 3 -0.013263 -0.009664 0.027429 0.000000 0.000000 0.000000
# 4 0.000000 0.000000 0.000000 0.048824 0.000000 0.000000
# 5 0.000000 0.000000 0.000000 0.000000 0.062731 0.000000
# 6 0.000000 0.000000 0.000000 0.000000 0.000000 0.063142
#
#
# Mechanical properties :
#
#
# Convention : Reuss Voigt Hill
#
# Bulk Modulus (GPa) = 52.87535 54.74799 53.81167
# Shear Modulus (GPa) = 15.33308 15.93422 15.63365
#
# Velocity S-wave (km/s) = 3.52860 3.59711 3.56302
# Velocity P-wave (km/s) = 7.71610 7.85555 7.78613
#
# Compressibility (1/GPa) = 0.01891240
#
# Stress axis : x y z
#
# Youngs Moduli (GPa) = 30.93796 44.94401 36.45779
#
# Poissons Ratio (x) = 0.38731 0.48353
# Poissons Ratio (y) = 0.26661 0.35234
# Poissons Ratio (z) = 0.41033 0.43435
#
# Static dielectric constant tensor:
#      x y z
#    x 2.319480 0.000000 0.000000 
#    y 0.000000 2.656180 0.000000 
#    z 0.000000 0.000000 2.420830 
# 
# 
# High freq. dielectric constant tensor:
#      x y z
#    x 1.428150 0.000000 0.000000 
#    y 0.000000 1.480290 0.000000 
#    z 0.000000 0.000000 1.443680 
# 
# From -- ./inp_files/11393.got.cif
#   From: 2010.06.25/outbox.cif.g09.slc.cpg/sg71_6_cif.got.tgz:11393.got - 2010.06.28 04:59:45.
