data_PCOD8292703
_publ_section_title
;
Structure prediction by ZEFSAII (Michael W. Deem and Ramdas Pophale) SiO2 
 PCOD8292703
Probable space group: I M M M
;
_chemical_formula_sum "Si O2"
_cell_formula_units_Z 96
_cell_length_a 36.128149
_cell_length_b 9.826172
_cell_length_c 16.784667
_cell_angle_alpha 90.000000
_cell_angle_beta 90.000000
_cell_angle_gamma 90.000000
_cell_volume 5958.580386
_symmetry_space_group_name_H-M "I M M M"
_symmetry_group_IT_number 71
_symmetry_cell_setting 'orthorhombic'
loop_
_space_group_symop_operation_xyz
x,y,z
-x,-y,z
x,-y,-z
-x,y,-z
-x,-y,-z
x,y,-z
-x,y,z
x,-y,z
1/2+x,1/2+y,1/2+z
1/2-x,1/2-y,1/2+z
1/2+x,1/2-y,1/2-z
1/2-x,1/2+y,1/2-z
1/2-x,1/2-y,1/2-z
1/2+x,1/2+y,1/2-z
1/2-x,1/2+y,1/2+z
1/2+x,1/2-y,1/2+z
loop_
_atom_site_type_symbol
_atom_site_label
_atom_site_fract_x
_atom_site_fract_y
_atom_site_fract_z
Si Si1 0.854199 0.148968 0.336233
Si Si2 0.404162 0.651666 0.319054
Si Si3 0.834942 0.161813 0.088612
Si Si4 0.214510 0.840009 0.233720
Si Si5 0.957319 0.341737 0.736461
Si Si6 0.407357 0.155295 0.089115
O O1 0.880440 0.143840 0.260404
O O2 0.813140 0.188113 0.307348
O O3 0.869987 0.257799 0.398573
O O4 0.853709 0.000000 0.377137
O O5 0.419253 0.500000 0.340085
O O6 0.376551 0.709359 0.387361
O O7 0.438313 0.754862 0.306999
O O8 0.804004 0.212857 0.151061
O O9 0.835171 0.000000 0.091741
O O10 0.825621 0.216923 0.000000
O O11 0.250000 0.750000 0.250000
O O12 0.224647 0.000000 0.228406
O O13 0.951930 0.500000 0.756919
O O14 0.939714 0.304641 0.650656
O O15 0.000000 0.300483 0.732058
O O16 0.395349 0.000000 0.101746
O O17 0.422698 0.180613 0.000000
#
# Coordination Sequence:
#
# PCOD8292703 Si02
#       6
#    16  16  16  16  16  16
#     4   8  15  28  43  59  81 111 144 173 208 254
#     4   8  14  26  45  65  82 104 138 177 210 244
#     4   8  14  27  48  70  88 108 139 178 216 251
#     4   9  17  29  46  67  90 116 143 172 209 253
#     4   9  17  28  42  61  86 115 142 170 211 260
#     4   9  17  28  42  61  83 108 144 186 218 246
#
# _framework density 16.111219999999999
#
# number of rings (size 3 to 8) (size 9 to 14) (size 15 to 20)
#    0.000    3.500    0.000    2.000    0.000    1.667 
#    0.000    5.000    0.000    5.500    0.000    8.167 
#    0.000    0.000    0.000    0.000    0.000    0.000 
#
# Total GULP energy -594836.175996 kJ/mol
# GULP energy per Si atom -12392.420333 kJ/mol
# Density = 1.607455 g / cm^3
# Si number density = 16.111220 Si / 1000 Ang^3
#
#
#
# Elastic Constant Matrix: (Units=GPa)
#
#
# Indices 1 2 3 4 5 6 
#
# 1 124.0045 60.2115 45.8064 0.0000 0.0000 0.0000
# 2 60.2115 60.4471 30.4462 0.0000 0.0000 0.0000
# 3 45.8064 30.4462 73.7642 0.0000 0.0000 0.0000
# 4 0.0000 0.0000 0.0000 16.3105 0.0000 0.0000
# 5 0.0000 0.0000 0.0000 0.0000 17.6097 0.0000
# 6 0.0000 0.0000 0.0000 0.0000 0.0000 29.9711
#
#
#
# Elastic Compliance Matrix: (Units=1/GPa)
#
#
# Indices 1 2 3 4 5 6 
#
# 1 0.016687 -0.014395 -0.004421 0.000000 0.000000 0.000000
# 2 -0.014395 0.033304 -0.004807 0.000000 0.000000 0.000000
# 3 -0.004421 -0.004807 0.018286 0.000000 0.000000 0.000000
# 4 0.000000 0.000000 0.000000 0.061310 0.000000 0.000000
# 5 0.000000 0.000000 0.000000 0.000000 0.056787 0.000000
# 6 0.000000 0.000000 0.000000 0.000000 0.000000 0.033365
#
#
# Mechanical properties :
#
#
# Convention : Reuss Voigt Hill
#
# Bulk Modulus (GPa) = 47.54907 59.01600 53.28254
# Shear Modulus (GPa) = 18.24852 20.89505 19.57179
#
# Velocity S-wave (km/s) = 3.36915 3.60519 3.48917
# Velocity P-wave (km/s) = 6.68670 7.35118 7.02680
#
# Compressibility (1/GPa) = 0.02103091
#
# Stress axis : x y z
#
# Youngs Moduli (GPa) = 59.92714 30.02673 54.68691
#
# Poissons Ratio (x) = 0.43224 0.24175
# Poissons Ratio (y) = 0.86267 0.26287
# Poissons Ratio (z) = 0.26492 0.14433
#
# Static dielectric constant tensor:
#      x y z
#    x 3.017150 0.000000 0.000000 
#    y 0.000000 3.133270 0.000000 
#    z 0.000000 0.000000 3.150210 
# 
# 
# High freq. dielectric constant tensor:
#      x y z
#    x 1.606940 0.000000 0.000000 
#    y 0.000000 1.605320 0.000000 
#    z 0.000000 0.000000 1.600450 
# 
# From -- ./inp_files/48761.got.cif
#   From: 2010.06.25/outbox.cif.g09.slc.cpg/sg71_25_cif.got.tgz:48761.got - 2010.06.28 04:59:45.
