data_PCOD8292532
_publ_section_title
;
Structure prediction by ZEFSAII (Michael W. Deem and Ramdas Pophale) SiO2 
 PCOD8292532
Probable space group: I M M M
;
_chemical_formula_sum "Si O2"
_cell_formula_units_Z 72
_cell_length_a 9.141047
_cell_length_b 31.241143
_cell_length_c 13.157165
_cell_angle_alpha 90.000000
_cell_angle_beta 90.000000
_cell_angle_gamma 90.000000
_cell_volume 3757.380505
_symmetry_space_group_name_H-M "I M M M"
_symmetry_group_IT_number 71
_symmetry_cell_setting 'orthorhombic'
loop_
_space_group_symop_operation_xyz
x,y,z
-x,-y,z
x,-y,-z
-x,y,-z
-x,-y,-z
x,y,-z
-x,y,z
x,-y,z
1/2+x,1/2+y,1/2+z
1/2-x,1/2-y,1/2+z
1/2+x,1/2-y,1/2-z
1/2-x,1/2+y,1/2-z
1/2-x,1/2-y,1/2-z
1/2+x,1/2+y,1/2-z
1/2-x,1/2+y,1/2+z
1/2+x,1/2-y,1/2+z
loop_
_atom_site_type_symbol
_atom_site_label
_atom_site_fract_x
_atom_site_fract_y
_atom_site_fract_z
Si Si1 0.834002 0.550539 0.000000
Si Si2 0.331359 0.685345 0.778468
Si Si3 0.671964 0.770271 0.888287
Si Si4 0.328471 0.411254 0.807203
Si Si5 0.830526 0.550099 0.616109
O O1 0.752158 0.564930 0.101738
O O2 0.836127 0.500000 0.000000
O O3 0.000000 0.568517 0.000000
O O4 0.500000 0.690601 0.750380
O O5 0.279621 0.722544 0.855093
O O6 0.240922 0.691402 0.675793
O O7 0.299958 0.639052 0.825815
O O8 0.500000 0.775152 0.882529
O O9 0.733677 0.776902 0.000000
O O10 0.500000 0.422406 0.811054
O O11 0.267723 0.424408 0.696720
O O12 0.787830 0.562937 0.500000
O O13 0.802558 0.500000 0.632557
O O14 0.000000 0.561123 0.636029
#
# Coordination Sequence:
#
# PCOD8292532 Si02
#       5
#     8  16  16  16  16
#     4  11  25  43  61  83 115 155 195 239 289 341
#     4   9  20  36  53  78 111 143 177 222 276 329
#     4   9  18  34  57  78 103 143 185 225 269 323
#     4  11  23  37  58  86 116 150 187 234 289 343
#     4   9  19  37  59  81 109 148 189 231 282 337
#
# _framework density 19.162286000000002
#
# number of rings (size 3 to 8) (size 9 to 14) (size 15 to 20)
#    0.000    2.333    0.000    2.333    1.556    7.556 
#    0.000    5.556    0.000    0.000    0.000    0.000 
#    0.000    0.000    0.000    0.000    0.000    0.000 
#
# Total GULP energy -446355.997566 kJ/mol
# GULP energy per Si atom -12398.777710 kJ/mol
# Density = 1.911867 g / cm^3
# Si number density = 19.162286 Si / 1000 Ang^3
#
#
#
# Elastic Constant Matrix: (Units=GPa)
#
#
# Indices 1 2 3 4 5 6 
#
# 1 82.4412 35.6593 54.2029 0.0000 0.0000 0.0000
# 2 35.6593 59.6840 23.4172 -0.0002 0.0001 0.0000
# 3 54.2029 23.4172 121.9545 0.0006 -0.0002 0.0002
# 4 0.0000 -0.0002 0.0006 18.0168 -0.0001 0.0001
# 5 0.0000 0.0001 -0.0002 -0.0001 30.0576 0.0001
# 6 0.0000 0.0000 0.0002 0.0001 0.0001 30.6996
#
#
#
# Elastic Compliance Matrix: (Units=1/GPa)
#
#
# Indices 1 2 3 4 5 6 
#
# 1 0.021369 -0.009778 -0.007620 0.000000 0.000000 0.000000
# 2 -0.009778 0.022594 0.000007 0.000000 0.000000 0.000000
# 3 -0.007620 0.000007 0.011585 0.000000 0.000000 0.000000
# 4 0.000000 0.000000 0.000000 0.055504 0.000000 0.000000
# 5 0.000000 0.000000 0.000000 0.000000 0.033269 0.000000
# 6 0.000000 0.000000 0.000000 0.000000 0.000000 0.032574
#
#
# Mechanical properties :
#
#
# Convention : Reuss Voigt Hill
#
# Bulk Modulus (GPa) = 48.15255 54.51537 51.33396
# Shear Modulus (GPa) = 22.87302 25.80817 24.34060
#
# Velocity S-wave (km/s) = 3.45867 3.67389 3.56790
# Velocity P-wave (km/s) = 6.41352 6.81965 6.61970
#
# Compressibility (1/GPa) = 0.02076733
#
# Stress axis : x y z
#
# Youngs Moduli (GPa) = 46.79658 44.25982 86.31747
#
# Poissons Ratio (x) = 0.43275 0.65775
# Poissons Ratio (y) = 0.45756 -0.00063
# Poissons Ratio (z) = 0.35659 -0.00032
#
# Static dielectric constant tensor:
#      x y z
#    x 3.512400 0.000000 0.000000 
#    y 0.000000 3.522950 0.000000 
#    z 0.000000 0.000000 4.146210 
# 
# 
# High freq. dielectric constant tensor:
#      x y z
#    x 1.743730 0.000000 0.000000 
#    y 0.000000 1.745520 0.000000 
#    z 0.000000 0.000000 1.753020 
# 
# From -- ./inp_files/31670.got.cif
#   From: 2010.06.25/outbox.cif.g09.slc.cpg/sg71_16_cif.got.tgz:31670.got - 2010.06.28 04:59:45.
