data_PCOD8292752
_publ_section_title
;
Structure prediction by ZEFSAII (Michael W. Deem and Ramdas Pophale) SiO2 
 PCOD8292752
Probable space group: I M M M
;
_chemical_formula_sum "Si O2"
_cell_formula_units_Z 72
_cell_length_a 36.962594
_cell_length_b 14.738160
_cell_length_c 7.682103
_cell_angle_alpha 90.000000
_cell_angle_beta 90.000000
_cell_angle_gamma 90.000000
_cell_volume 4184.907227
_symmetry_space_group_name_H-M "I M M M"
_symmetry_group_IT_number 71
_symmetry_cell_setting 'orthorhombic'
loop_
_space_group_symop_operation_xyz
x,y,z
-x,-y,z
x,-y,-z
-x,y,-z
-x,-y,-z
x,y,-z
-x,y,z
x,-y,z
1/2+x,1/2+y,1/2+z
1/2-x,1/2-y,1/2+z
1/2+x,1/2-y,1/2-z
1/2-x,1/2+y,1/2-z
1/2-x,1/2-y,1/2-z
1/2+x,1/2+y,1/2-z
1/2-x,1/2+y,1/2+z
1/2+x,1/2-y,1/2+z
loop_
_atom_site_type_symbol
_atom_site_label
_atom_site_fract_x
_atom_site_fract_y
_atom_site_fract_z
Si Si1 0.664070 0.214368 0.207482
Si Si2 0.093764 0.606156 0.298754
Si Si3 0.188912 0.901268 0.302051
Si Si4 0.459953 0.106996 0.500000
Si Si5 0.268422 0.103431 0.201991
O O1 0.627916 0.163953 0.268974
O O2 0.665088 0.318777 0.278604
O O3 0.699297 0.163359 0.282767
O O4 0.666074 0.211698 0.000000
O O5 0.083898 0.627389 0.500000
O O6 0.102999 0.500000 0.275208
O O7 0.060623 0.636983 0.176317
O O8 0.177020 0.912405 0.500000
O O9 0.231009 0.873039 0.297467
O O10 0.182701 0.000000 0.207487
O O11 0.500000 0.151595 0.500000
O O12 0.463712 0.000000 0.500000
O O13 0.279742 0.000000 0.234705
O O14 0.262391 0.123680 0.000000
#
# Coordination Sequence:
#
# PCOD8292752 Si02
#       5
#    16  16  16   8  16
#     4   9  16  27  42  58  80 111 145 180 221 264
#     4   9  17  30  47  67  92 120 148 178 214 256
#     4   9  17  28  39  54  79 109 144 187 227 261
#     4   9  18  32  48  70  99 123 145 173 208 262
#     4   9  16  26  39  54  75 106 144 184 223 263
#
# _framework density 17.204684
#
# number of rings (size 3 to 8) (size 9 to 14) (size 15 to 20)
#    0.000    3.000    0.000    1.333    0.000    3.111 
#    4.000    2.222    0.000    0.000    0.000    0.000 
#    0.000    1.778    0.000    8.667    0.000    0.222 
#
# Total GULP energy -446083.882143 kJ/mol
# GULP energy per Si atom -12391.218948 kJ/mol
# Density = 1.716553 g / cm^3
# Si number density = 17.204684 Si / 1000 Ang^3
#
#
#
# Elastic Constant Matrix: (Units=GPa)
#
#
# Indices 1 2 3 4 5 6 
#
# 1 101.2853 64.9493 27.2493 0.0000 0.0000 0.0000
# 2 64.9493 100.2068 23.2911 0.0000 0.0000 0.0000
# 3 27.2493 23.2911 46.0725 0.0000 -0.0001 0.0000
# 4 0.0000 0.0000 0.0000 7.1266 0.0000 0.0000
# 5 0.0000 0.0000 -0.0001 0.0000 21.3454 0.0000
# 6 0.0000 0.0000 0.0000 0.0000 0.0000 14.4945
#
#
#
# Elastic Compliance Matrix: (Units=1/GPa)
#
#
# Indices 1 2 3 4 5 6 
#
# 1 0.018000 -0.010416 -0.005380 0.000000 0.000000 0.000000
# 2 -0.010416 0.017336 -0.002603 0.000000 0.000000 0.000000
# 3 -0.005380 -0.002603 0.026203 0.000000 0.000000 0.000000
# 4 0.000000 0.000000 0.000000 0.140320 0.000000 0.000000
# 5 0.000000 0.000000 0.000000 0.000000 0.046848 0.000000
# 6 0.000000 0.000000 0.000000 0.000000 0.000000 0.068992
#
#
# Mechanical properties :
#
#
# Convention : Reuss Voigt Hill
#
# Bulk Modulus (GPa) = 40.42119 53.17153 46.79636
# Shear Modulus (GPa) = 13.78380 17.39829 15.59105
#
# Velocity S-wave (km/s) = 2.83356 3.18347 3.01360
# Velocity P-wave (km/s) = 5.85241 6.66971 6.27438
#
# Compressibility (1/GPa) = 0.02473950
#
# Stress axis : x y z
#
# Youngs Moduli (GPa) = 55.55565 57.68440 38.16352
#
# Poissons Ratio (x) = 0.60085 0.20533
# Poissons Ratio (y) = 0.57868 0.09935
# Poissons Ratio (z) = 0.29890 0.15016
#
# Static dielectric constant tensor:
#      x y z
#    x 3.150510 0.000000 0.000000 
#    y 0.000000 3.471380 0.000000 
#    z 0.000000 0.000000 3.049030 
# 
# 
# High freq. dielectric constant tensor:
#      x y z
#    x 1.623800 0.000000 0.000000 
#    y 0.000000 1.653960 0.000000 
#    z 0.000000 0.000000 1.653460 
# 
# From -- ./inp_files/6462.got.cif
#   From: 2010.06.25/outbox.cif.g09.slc.cpg/sg71_4_cif.got.tgz:6462.got - 2010.06.28 04:59:45.
