data_PCOD8292025
_publ_section_title
;
Structure prediction by ZEFSAII (Michael W. Deem and Ramdas Pophale) SiO2 
 PCOD8292025
Probable space group: I M M M
;
_chemical_formula_sum "Si O2"
_cell_formula_units_Z 82
_cell_length_a 20.775022
_cell_length_b 23.852829
_cell_length_c 10.090671
_cell_angle_alpha 90.000000
_cell_angle_beta 90.000000
_cell_angle_gamma 90.000000
_cell_volume 5000.361856
_symmetry_space_group_name_H-M "I M M M"
_symmetry_group_IT_number 71
_symmetry_cell_setting 'orthorhombic'
loop_
_space_group_symop_operation_xyz
x,y,z
-x,-y,z
x,-y,-z
-x,y,-z
-x,-y,-z
x,y,-z
-x,y,z
x,-y,z
1/2+x,1/2+y,1/2+z
1/2-x,1/2-y,1/2+z
1/2+x,1/2-y,1/2-z
1/2-x,1/2+y,1/2-z
1/2-x,1/2-y,1/2-z
1/2+x,1/2+y,1/2-z
1/2-x,1/2+y,1/2+z
1/2+x,1/2-y,1/2+z
loop_
_atom_site_type_symbol
_atom_site_label
_atom_site_fract_x
_atom_site_fract_y
_atom_site_fract_z
Si Si1 0.000000 0.000000 0.500000
Si Si2 0.855796 0.233833 0.239722
Si Si3 0.617178 0.417556 0.000000
Si Si4 0.218970 0.062193 0.276731
Si Si5 0.576085 0.672903 0.500000
Si Si6 0.153796 0.936749 0.000000
Si Si7 0.576159 0.289844 0.000000
Si Si8 0.232939 0.674344 0.152745
O O1 0.948237 0.950792 0.500000
O O2 0.898374 0.203858 0.129556
O O3 0.897986 0.242293 0.370822
O O4 0.833536 0.295687 0.192993
O O5 0.792383 0.196520 0.260670
O O6 0.656009 0.432313 0.867687
O O7 0.603440 0.352063 0.000000
O O8 0.272832 0.107641 0.319678
O O9 0.248785 0.000000 0.293936
O O10 0.198821 0.072824 0.126113
O O11 0.500000 0.675579 0.500000
O O12 0.595641 0.607486 0.500000
O O13 0.124273 0.000000 0.000000
O O14 0.500000 0.288819 0.000000
O O15 0.248639 0.686380 0.000000
#
# Coordination Sequence:
#
# PCOD8292025 Si02
#       8
#     2  16   8  16   8   8   8  16
#     4  12  24  32  52  74 104 152 192 246 236 272
#     4  11  22  35  52  80 100 135 183 216 280 312
#     4  12  20  35  49  75 100 140 195 221 252 292
#     4  11  20  34  54  75 104 136 175 223 264 308
#     4  12  22  37  51  71 106 146 183 221 257 311
#     4  10  22  36  47  71 106 138 182 220 249 299
#     4  12  22  36  54  75 110 142 182 223 252 316
#     4  11  20  34  58  76 104 131 174 233 268 321
#
# _framework density 16.398813000000001
#
# number of rings (size 3 to 8) (size 9 to 14) (size 15 to 20)
#    0.000    0.780    8.293    0.585    0.000    0.976 
#    1.756    0.000    0.000    0.000    0.000    0.000 
#    0.000    4.683    0.000    0.000    0.000    0.000 
#
# Total GULP energy -507943.681854 kJ/mol
# GULP energy per Si atom -12388.870289 kJ/mol
# Density = 1.636149 g / cm^3
# Si number density = 16.398813 Si / 1000 Ang^3
#
#
#
# Elastic Constant Matrix: (Units=GPa)
#
#
# Indices 1 2 3 4 5 6 
#
# 1 43.5276 50.4372 31.7217 0.0000 0.0000 0.0000
# 2 50.4372 128.4788 42.9678 0.0000 0.0000 0.0000
# 3 31.7217 42.9678 115.3963 0.0000 0.0000 0.0000
# 4 0.0000 0.0000 0.0000 28.4301 0.0000 0.0000
# 5 0.0000 0.0000 0.0000 0.0000 18.5456 0.0000
# 6 0.0000 0.0000 0.0000 0.0000 0.0000 28.4116
#
#
#
# Elastic Compliance Matrix: (Units=1/GPa)
#
#
# Indices 1 2 3 4 5 6 
#
# 1 0.046418 -0.015940 -0.006825 0.000000 0.000000 0.000000
# 2 -0.015940 0.014364 -0.000967 0.000000 0.000000 0.000000
# 3 -0.006825 -0.000967 0.010902 0.000000 0.000000 0.000000
# 4 0.000000 0.000000 0.000000 0.035174 0.000000 0.000000
# 5 0.000000 0.000000 0.000000 0.000000 0.053921 0.000000
# 6 0.000000 0.000000 0.000000 0.000000 0.000000 0.035197
#
#
# Mechanical properties :
#
#
# Convention : Reuss Voigt Hill
#
# Bulk Modulus (GPa) = 41.28625 59.73955 50.51290
# Shear Modulus (GPa) = 19.87972 25.89586 22.88779
#
# Velocity S-wave (km/s) = 3.48554 3.97814 3.73996
# Velocity P-wave (km/s) = 6.43659 7.59006 7.03700
#
# Compressibility (1/GPa) = 0.02422114
#
# Stress axis : x y z
#
# Youngs Moduli (GPa) = 21.54342 69.61716 91.72772
#
# Poissons Ratio (x) = 1.10969 0.62602
# Poissons Ratio (y) = 0.34340 0.08868
# Poissons Ratio (z) = 0.14703 0.06730
#
# Static dielectric constant tensor:
#      x y z
#    x 2.862310 0.000000 0.000000 
#    y 0.000000 3.456420 0.000000 
#    z 0.000000 0.000000 3.344080 
# 
# 
# High freq. dielectric constant tensor:
#      x y z
#    x 1.590720 0.000000 0.000000 
#    y 0.000000 1.635520 0.000000 
#    z 0.000000 0.000000 1.650810 
# 
# From -- ./inp_files/10359.got.cif
#   From: 2010.06.25/outbox.cif.g09.slc.cpg/sg71_6_cif.got.tgz:10359.got - 2010.06.28 04:59:45.
