data_PCOD8292235
_publ_section_title
;
Structure prediction by ZEFSAII (Michael W. Deem and Ramdas Pophale) SiO2 
 PCOD8292235
Probable space group: I M M M
;
_chemical_formula_sum "Si O2"
_cell_formula_units_Z 80
_cell_length_a 12.799846
_cell_length_b 26.895880
_cell_length_c 13.827862
_cell_angle_alpha 90.000000
_cell_angle_beta 90.000000
_cell_angle_gamma 90.000000
_cell_volume 4760.422943
_symmetry_space_group_name_H-M "I M M M"
_symmetry_group_IT_number 71
_symmetry_cell_setting 'orthorhombic'
loop_
_space_group_symop_operation_xyz
x,y,z
-x,-y,z
x,-y,-z
-x,y,-z
-x,-y,-z
x,y,-z
-x,y,z
x,-y,z
1/2+x,1/2+y,1/2+z
1/2-x,1/2-y,1/2+z
1/2+x,1/2-y,1/2-z
1/2-x,1/2+y,1/2-z
1/2-x,1/2-y,1/2-z
1/2+x,1/2+y,1/2-z
1/2-x,1/2+y,1/2+z
1/2+x,1/2-y,1/2+z
loop_
_atom_site_type_symbol
_atom_site_label
_atom_site_fract_x
_atom_site_fract_y
_atom_site_fract_z
Si Si1 0.253621 0.863466 0.712864
Si Si2 0.876988 0.706019 0.894477
Si Si3 0.619841 0.441925 0.889237
Si Si4 0.619792 0.267840 0.217205
Si Si5 0.120397 0.668423 0.610713
O O1 0.347391 0.850110 0.638390
O O2 0.198587 0.915031 0.685245
O O3 0.169683 0.820221 0.692452
O O4 0.301042 0.864119 0.821695
O O5 0.828657 0.744618 0.815843
O O6 0.000000 0.709868 0.894495
O O7 0.831220 0.718694 0.000000
O O8 0.500000 0.429267 0.862406
O O9 0.640941 0.500000 0.876872
O O10 0.642016 0.425572 0.000000
O O11 0.500000 0.279303 0.238381
O O12 0.631770 0.227198 0.132178
O O13 0.152200 0.658247 0.500000
O O14 0.000000 0.652238 0.630169
#
# Coordination Sequence:
#
# PCOD8292235 Si02
#       5
#    16  16  16  16  16
#     4  11  18  27  48  70  88 118 160 195 223 265
#     4   9  17  28  41  61  93 125 148 178 223 271
#     4   9  19  35  52  71  95 119 144 181 231 280
#     4   9  18  28  39  63  95 123 154 189 223 265
#     4   9  18  31  45  65  97 131 158 188 227 269
#
# _framework density 16.805230000000002
#
# number of rings (size 3 to 8) (size 9 to 14) (size 15 to 20)
#    0.000    2.600    0.000    6.000    0.000    4.000 
#    0.000    2.000    0.000    4.800    0.000    9.800 
#    0.000    0.000    0.000    0.000    0.000    0.000 
#
# Total GULP energy -495699.001976 kJ/mol
# GULP energy per Si atom -12392.475049 kJ/mol
# Density = 1.676698 g / cm^3
# Si number density = 16.805230 Si / 1000 Ang^3
#
#
#
# Elastic Constant Matrix: (Units=GPa)
#
#
# Indices 1 2 3 4 5 6 
#
# 1 41.3793 28.8230 38.4454 0.0000 0.0000 0.0000
# 2 28.8230 59.3159 36.2597 0.0000 0.0000 0.0000
# 3 38.4454 36.2597 126.8668 0.0015 -0.0007 -0.0002
# 4 0.0000 0.0000 0.0015 18.6819 -0.0001 0.0000
# 5 0.0000 0.0000 -0.0007 -0.0001 29.5892 0.0001
# 6 0.0000 0.0000 -0.0002 0.0000 0.0001 27.5292
#
#
#
# Elastic Compliance Matrix: (Units=1/GPa)
#
#
# Indices 1 2 3 4 5 6 
#
# 1 0.043046 -0.015683 -0.008562 0.000001 0.000000 0.000000
# 2 -0.015683 0.026142 -0.002719 0.000000 0.000000 0.000000
# 3 -0.008562 -0.002719 0.011254 -0.000001 0.000000 0.000000
# 4 0.000001 0.000000 -0.000001 0.053528 0.000000 0.000000
# 5 0.000000 0.000000 0.000000 0.000000 0.033796 0.000000
# 6 0.000000 0.000000 0.000000 0.000000 0.000000 0.036325
#
#
# Mechanical properties :
#
#
# Convention : Reuss Voigt Hill
#
# Bulk Modulus (GPa) = 37.71688 48.29091 43.00389
# Shear Modulus (GPa) = 18.73666 23.42901 21.08284
#
# Velocity S-wave (km/s) = 3.34268 3.73788 3.54579
# Velocity P-wave (km/s) = 6.11476 6.88673 6.51219
#
# Compressibility (1/GPa) = 0.02651333
#
# Stress axis : x y z
#
# Youngs Moduli (GPa) = 23.23106 38.25298 88.85681
#
# Poissons Ratio (x) = 0.59992 0.76081
# Poissons Ratio (y) = 0.36433 0.24160
# Poissons Ratio (z) = 0.19891 0.10401
#
# Static dielectric constant tensor:
#      x y z
#    x 3.377750 0.000000 0.000000 
#    y 0.000000 2.738430 0.000000 
#    z 0.000000 0.000000 3.440350 
# 
# 
# High freq. dielectric constant tensor:
#      x y z
#    x 1.667410 0.000000 0.000000 
#    y 0.000000 1.596000 0.000000 
#    z 0.000000 0.000000 1.647030 
# 
# From -- ./inp_files/28491.got.cif
#   From: 2010.06.25/outbox.cif.g09.slc.cpg/sg71_15_cif.got.tgz:28491.got - 2010.06.28 04:59:45.
