data_PCOD8292362
_publ_section_title
;
Structure prediction by ZEFSAII (Michael W. Deem and Ramdas Pophale) SiO2 
 PCOD8292362
Probable space group: I M M M
;
_chemical_formula_sum "Si O2"
_cell_formula_units_Z 96
_cell_length_a 23.747208
_cell_length_b 8.537383
_cell_length_c 25.786815
_cell_angle_alpha 90.000000
_cell_angle_beta 90.000000
_cell_angle_gamma 90.000000
_cell_volume 5227.993341
_symmetry_space_group_name_H-M "I M M M"
_symmetry_group_IT_number 71
_symmetry_cell_setting 'orthorhombic'
loop_
_space_group_symop_operation_xyz
x,y,z
-x,-y,z
x,-y,-z
-x,y,-z
-x,-y,-z
x,y,-z
-x,y,z
x,-y,z
1/2+x,1/2+y,1/2+z
1/2-x,1/2-y,1/2+z
1/2+x,1/2-y,1/2-z
1/2-x,1/2+y,1/2-z
1/2-x,1/2-y,1/2-z
1/2+x,1/2+y,1/2-z
1/2-x,1/2+y,1/2+z
1/2+x,1/2-y,1/2+z
loop_
_atom_site_type_symbol
_atom_site_label
_atom_site_fract_x
_atom_site_fract_y
_atom_site_fract_z
Si Si1 0.187389 0.813528 0.557553
Si Si2 0.117920 0.814180 0.653116
Si Si3 0.000000 0.812971 0.692487
Si Si4 0.500000 0.684864 0.689844
Si Si5 0.813694 0.313895 0.942525
Si Si6 0.615764 0.814699 0.346237
Si Si7 0.187729 0.814385 0.752764
O O1 0.168638 0.758162 0.500000
O O2 0.143897 0.743871 0.599937
O O3 0.250506 0.752198 0.569732
O O4 0.187221 0.000000 0.560461
O O5 0.054870 0.748677 0.662268
O O6 0.156878 0.761063 0.700471
O O7 0.115823 0.000000 0.649954
O O8 0.000000 0.747992 0.751432
O O9 0.000000 0.000000 0.694399
O O10 0.500000 0.500000 0.691935
O O11 0.445648 0.741652 0.658901
O O12 0.812560 0.500000 0.940763
O O13 0.857214 0.249665 0.899792
O O14 0.832365 0.256608 0.000000
O O15 0.656072 0.764322 0.300120
O O16 0.610252 0.000000 0.346939
O O17 0.250000 0.750000 0.750000
O O18 0.187060 0.000000 0.759744
#
# Coordination Sequence:
#
# PCOD8292362 Si02
#       7
#    16  16   8   8  16  16  16
#     4   8  13  23  41  66  96 129 164 205 253 302
#     4   9  16  27  44  66  94 131 171 205 248 307
#     4   9  16  29  46  64  91 134 173 196 239 306
#     4  11  21  37  54  71 101 146 179 208 261 321
#     4   8  15  29  49  73 102 134 167 208 264 322
#     4  11  21  34  54  80 104 131 175 225 264 309
#     4  11  21  33  50  74 105 139 173 214 266 321
#
# _framework density 18.362686
#
# number of rings (size 3 to 8) (size 9 to 14) (size 15 to 20)
#    0.000    2.500    1.667    3.250    0.000    2.667 
#    0.000    0.833    0.000    7.000    0.000    0.000 
#    0.000    2.000    0.000    1.500    0.000    2.167 
#
# Total GULP energy -595010.310749 kJ/mol
# GULP energy per Si atom -12396.048141 kJ/mol
# Density = 1.832089 g / cm^3
# Si number density = 18.362686 Si / 1000 Ang^3
#
#
#
# Elastic Constant Matrix: (Units=GPa)
#
#
# Indices 1 2 3 4 5 6 
#
# 1 179.3334 14.6242 105.7983 0.0000 0.0000 0.0000
# 2 14.6242 23.6822 15.4030 0.0000 0.0000 0.0000
# 3 105.7983 15.4030 176.6517 0.0000 0.0000 0.0000
# 4 0.0000 0.0000 0.0000 18.4915 0.0000 0.0000
# 5 0.0000 0.0000 0.0000 0.0000 24.4309 0.0000
# 6 0.0000 0.0000 0.0000 0.0000 0.0000 22.7880
#
#
#
# Elastic Compliance Matrix: (Units=1/GPa)
#
#
# Indices 1 2 3 4 5 6 
#
# 1 0.008721 -0.002108 -0.005039 0.000000 0.000000 0.000000
# 2 -0.002108 0.045274 -0.002685 0.000000 0.000000 0.000000
# 3 -0.005039 -0.002685 0.008913 0.000000 0.000000 0.000000
# 4 0.000000 0.000000 0.000000 0.054079 0.000000 0.000000
# 5 0.000000 0.000000 0.000000 0.000000 0.040932 0.000000
# 6 0.000000 0.000000 0.000000 0.000000 0.000000 0.043883
#
#
# Mechanical properties :
#
#
# Convention : Reuss Voigt Hill
#
# Bulk Modulus (GPa) = 23.12495 72.36870 47.74683
# Shear Modulus (GPa) = 21.19715 29.39820 25.29767
#
# Velocity S-wave (km/s) = 3.40127 4.00556 3.71572
# Velocity P-wave (km/s) = 5.29582 7.80314 6.66838
#
# Compressibility (1/GPa) = 0.04324334
#
# Stress axis : x y z
#
# Youngs Moduli (GPa) = 114.66488 22.08776 112.19441
#
# Poissons Ratio (x) = 0.04656 0.56539
# Poissons Ratio (y) = 0.24169 0.30127
# Poissons Ratio (z) = 0.57784 0.05931
#
# Static dielectric constant tensor:
#      x y z
#    x 3.546400 0.000000 0.000000 
#    y 0.000000 2.938290 0.000000 
#    z 0.000000 0.000000 3.782350 
# 
# 
# High freq. dielectric constant tensor:
#      x y z
#    x 1.717960 0.000000 0.000000 
#    y 0.000000 1.663870 0.000000 
#    z 0.000000 0.000000 1.719750 
# 
# From -- ./inp_files/61594.got.cif
#   From: 2010.06.25/outbox.cif.g09.slc.cpg/sg71_31_cif.got.tgz:61594.got - 2010.06.28 04:59:45.
