data_PCOD8292304
_publ_section_title
;
Structure prediction by ZEFSAII (Michael W. Deem and Ramdas Pophale) SiO2 
 PCOD8292304
Probable space group: I M M M
;
_chemical_formula_sum "Si O2"
_cell_formula_units_Z 80
_cell_length_a 25.293096
_cell_length_b 9.135407
_cell_length_c 23.777505
_cell_angle_alpha 90.000000
_cell_angle_beta 90.000000
_cell_angle_gamma 90.000000
_cell_volume 5494.095129
_symmetry_space_group_name_H-M "I M M M"
_symmetry_group_IT_number 71
_symmetry_cell_setting 'orthorhombic'
loop_
_space_group_symop_operation_xyz
x,y,z
-x,-y,z
x,-y,-z
-x,y,-z
-x,-y,-z
x,y,-z
-x,y,z
x,-y,z
1/2+x,1/2+y,1/2+z
1/2-x,1/2-y,1/2+z
1/2+x,1/2-y,1/2-z
1/2-x,1/2+y,1/2-z
1/2-x,1/2-y,1/2-z
1/2+x,1/2+y,1/2-z
1/2-x,1/2+y,1/2+z
1/2+x,1/2-y,1/2+z
loop_
_atom_site_type_symbol
_atom_site_label
_atom_site_fract_x
_atom_site_fract_y
_atom_site_fract_z
Si Si1 0.560671 0.167827 0.890814
Si Si2 0.704963 0.330886 0.283941
Si Si3 0.640837 0.333849 0.819387
Si Si4 0.748348 0.830284 0.379965
Si Si5 0.599965 0.325346 0.000000
Si Si6 0.280288 0.673511 0.000000
O O1 0.500000 0.183123 0.872637
O O2 0.595261 0.223811 0.838356
O O3 0.570682 0.265541 0.945357
O O4 0.575335 0.000000 0.904171
O O5 0.720247 0.500000 0.289589
O O6 0.750000 0.250000 0.250000
O O7 0.651043 0.312230 0.247768
O O8 0.702936 0.259185 0.346149
O O9 0.622830 0.500000 0.831908
O O10 0.693941 0.300213 0.854259
O O11 0.748956 0.773805 0.444459
O O12 0.733400 0.000000 0.375843
O O13 0.596821 0.500000 0.000000
O O14 0.660010 0.265700 0.000000
O O15 0.284796 0.500000 0.000000
#
# Coordination Sequence:
#
# PCOD8292304 Si02
#       6
#    16  16  16  16   8   8
#     4  11  23  34  43  60  84 106 137 184 226 254
#     4   9  17  28  42  61  82 103 131 168 206 248
#     4   9  17  30  46  60  77 106 141 173 207 251
#     4   9  16  28  44  62  83 107 136 170 205 243
#     4  11  20  34  49  58  76 110 148 181 213 251
#     4   9  16  28  44  61  84 110 139 175 206 237
#
# _framework density 14.561088
#
# number of rings (size 3 to 8) (size 9 to 14) (size 15 to 20)
#    0.000    2.400    2.000    3.000    0.000    6.800 
#    0.000    0.500    0.000    0.000    0.000    0.000 
#    0.000    0.000    0.000    0.900    0.000   17.600 
#
# Total GULP energy -495808.275300 kJ/mol
# GULP energy per Si atom -12395.206882 kJ/mol
# Density = 1.452795 g / cm^3
# Si number density = 14.561088 Si / 1000 Ang^3
#
#
#
# Elastic Constant Matrix: (Units=GPa)
#
#
# Indices 1 2 3 4 5 6 
#
# 1 43.0503 36.6288 42.7482 0.0000 0.0000 0.0000
# 2 36.6288 85.1676 49.1762 0.0000 0.0000 0.0000
# 3 42.7482 49.1762 112.9474 0.0000 0.0000 0.0000
# 4 0.0000 0.0000 0.0000 25.0787 0.0000 0.0000
# 5 0.0000 0.0000 0.0000 0.0000 15.0240 0.0000
# 6 0.0000 0.0000 0.0000 0.0000 0.0000 20.0478
#
#
#
# Elastic Compliance Matrix: (Units=1/GPa)
#
#
# Indices 1 2 3 4 5 6 
#
# 1 0.045914 -0.012975 -0.011729 0.000000 0.000000 0.000000
# 2 -0.012975 0.019351 -0.003515 0.000000 0.000000 0.000000
# 3 -0.011729 -0.003515 0.014823 0.000000 0.000000 0.000000
# 4 0.000000 0.000000 0.000000 0.039875 0.000000 0.000000
# 5 0.000000 0.000000 0.000000 0.000000 0.066560 0.000000
# 6 0.000000 0.000000 0.000000 0.000000 0.000000 0.049881
#
#
# Mechanical properties :
#
#
# Convention : Reuss Voigt Hill
#
# Bulk Modulus (GPa) = 42.27874 55.36353 48.82114
# Shear Modulus (GPa) = 16.62658 19.53756 18.08207
#
# Velocity S-wave (km/s) = 3.38279 3.66699 3.52775
# Velocity P-wave (km/s) = 6.66004 7.48553 7.08482
#
# Compressibility (1/GPa) = 0.02365255
#
# Stress axis : x y z
#
# Youngs Moduli (GPa) = 21.77982 51.67692 67.46311
#
# Poissons Ratio (x) = 0.67048 0.79124
# Poissons Ratio (y) = 0.28258 0.23711
# Poissons Ratio (z) = 0.25545 0.18163
#
# Static dielectric constant tensor:
#      x y z
#    x 2.632350 0.000000 0.000000 
#    y 0.000000 2.942280 0.000000 
#    z 0.000000 0.000000 3.546010 
# 
# 
# High freq. dielectric constant tensor:
#      x y z
#    x 1.505660 0.000000 0.000000 
#    y 0.000000 1.562480 0.000000 
#    z 0.000000 0.000000 1.555420 
# 
# From -- ./inp_files/12750.got.cif
#   From: 2010.06.25/outbox.cif.g09.slc.cpg/sg71_7_cif.got.tgz:12750.got - 2010.06.28 04:59:45.
