data_PCOD8292447
_publ_section_title
;
Structure prediction by ZEFSAII (Michael W. Deem and Ramdas Pophale) SiO2 
 PCOD8292447
Probable space group: I M M M
;
_chemical_formula_sum "Si O2"
_cell_formula_units_Z 96
_cell_length_a 9.233064
_cell_length_b 27.457578
_cell_length_c 19.095332
_cell_angle_alpha 90.000000
_cell_angle_beta 90.000000
_cell_angle_gamma 90.000000
_cell_volume 4841.002262
_symmetry_space_group_name_H-M "I M M M"
_symmetry_group_IT_number 71
_symmetry_cell_setting 'orthorhombic'
loop_
_space_group_symop_operation_xyz
x,y,z
-x,-y,z
x,-y,-z
-x,y,-z
-x,-y,-z
x,y,-z
-x,y,z
x,-y,z
1/2+x,1/2+y,1/2+z
1/2-x,1/2-y,1/2+z
1/2+x,1/2-y,1/2-z
1/2-x,1/2+y,1/2-z
1/2-x,1/2-y,1/2-z
1/2+x,1/2+y,1/2-z
1/2-x,1/2+y,1/2+z
1/2+x,1/2-y,1/2+z
loop_
_atom_site_type_symbol
_atom_site_label
_atom_site_fract_x
_atom_site_fract_y
_atom_site_fract_z
Si Si1 0.328964 0.198870 0.419782
Si Si2 0.840973 0.707599 0.417227
Si Si3 0.842627 0.943351 0.576052
Si Si4 0.669841 0.555790 0.296659
Si Si5 0.830836 0.610862 0.178596
Si Si6 0.170196 0.599226 0.580694
O O1 0.275699 0.187241 0.500000
O O2 0.500000 0.201582 0.419418
O O3 0.269018 0.250626 0.392644
O O4 0.276212 0.159577 0.361930
O O5 0.853522 0.706449 0.500000
O O6 0.788673 0.654024 0.393539
O O7 0.000000 0.718858 0.385251
O O8 0.819636 0.918682 0.500000
O O9 0.706380 0.931797 0.624458
O O10 0.000000 0.926030 0.607329
O O11 0.847715 0.000000 0.566036
O O12 0.500000 0.566283 0.299009
O O13 0.699056 0.500000 0.270711
O O14 0.744248 0.597464 0.248788
O O15 0.737167 0.561318 0.373903
O O16 0.000000 0.612512 0.196198
O O17 0.213125 0.591012 0.500000
O O18 0.000000 0.589851 0.591776
#
# Coordination Sequence:
#
# PCOD8292447 Si02
#       6
#    16  16  16  16  16  16
#     4   9  18  32  51  79 114 148 184 227 270 313
#     4   8  15  30  54  84 114 142 174 214 262 318
#     4   9  18  32  49  70  98 134 178 228 279 328
#     4  11  25  42  58  79 109 144 183 227 275 330
#     4  11  22  35  52  75 106 145 188 231 274 320
#     4   9  19  38  64  91 115 138 170 216 269 328
#
# _framework density 19.830603
#
# number of rings (size 3 to 8) (size 9 to 14) (size 15 to 20)
#    0.000    2.500    0.000    3.500    0.000    7.333 
#    0.000    6.667    0.000    0.000    0.000    0.000 
#    0.000    0.000    0.000    0.000    0.000    0.000 
#
# Total GULP energy -594718.048883 kJ/mol
# GULP energy per Si atom -12389.959352 kJ/mol
# Density = 1.978547 g / cm^3
# Si number density = 19.830603 Si / 1000 Ang^3
#
#
#
# Elastic Constant Matrix: (Units=GPa)
#
#
# Indices 1 2 3 4 5 6 
#
# 1 61.2911 34.6669 36.5336 -0.0040 0.0000 0.0000
# 2 34.6669 69.1639 31.0686 -0.0041 0.0000 0.0000
# 3 36.5336 31.0686 79.7050 -0.0199 0.0001 -0.0001
# 4 -0.0040 -0.0041 -0.0199 -125.4902 0.0008 -0.0002
# 5 0.0000 0.0000 0.0001 0.0008 27.8714 -0.0001
# 6 0.0000 0.0000 -0.0001 -0.0002 -0.0001 34.1878
#
#
#
# Elastic Compliance Matrix: (Units=1/GPa)
#
#
# Indices 1 2 3 4 5 6 
#
# 1 0.026858 -0.009616 -0.008563 0.000001 0.000000 0.000000
# 2 -0.009616 0.020970 -0.003767 0.000000 0.000000 0.000000
# 3 -0.008563 -0.003767 0.017939 -0.000002 0.000000 0.000000
# 4 0.000001 0.000000 -0.000002 -0.007969 0.000000 0.000000
# 5 0.000000 0.000000 0.000000 0.000000 0.035879 0.000000
# 6 0.000000 0.000000 0.000000 0.000000 0.000000 0.029250
#
#
# Mechanical properties :
#
#
# Convention : Reuss Voigt Hill
#
# Bulk Modulus (GPa) = 45.70864 46.07760 45.89312
# Shear Modulus (GPa) = 28.71744 -5.49347 11.61199
#
# Velocity S-wave (km/s) = 3.80957 -1.66620 2.42246
# Velocity P-wave (km/s) = 6.51537 4.42543 5.56931
#
# Compressibility (1/GPa) = 0.02187770
#
# Stress axis : x y z
#
# Youngs Moduli (GPa) = 37.23259 47.68711 55.74398
#
# Poissons Ratio (x) = 0.45855 0.47731
# Poissons Ratio (y) = 0.35802 0.20996
# Poissons Ratio (z) = 0.31881 0.17962
#
# Static dielectric constant tensor:
#      x y z
#    x 3.592700 0.000000 0.000000 
#    y 0.000000 3.697860 0.000000 
#    z 0.000000 0.000000 3.527630 
# 
# 
# High freq. dielectric constant tensor:
#      x y z
#    x 1.766540 0.000000 0.000000 
#    y 0.000000 1.767190 0.000000 
#    z 0.000000 0.000000 1.758220 
# 
# From -- ./inp_files/50825.got.cif
#   From: 2010.06.25/outbox.cif.g09.slc.cpg/sg71_26_cif.got.tgz:50825.got - 2010.06.28 04:59:45.
