data_PCOD8292352
_publ_section_title
;
Structure prediction by ZEFSAII (Michael W. Deem and Ramdas Pophale) SiO2 
 PCOD8292352
Probable space group: I M M M
;
_chemical_formula_sum "Si O2"
_cell_formula_units_Z 112
_cell_length_a 16.945642
_cell_length_b 14.564729
_cell_length_c 23.829348
_cell_angle_alpha 90.000000
_cell_angle_beta 90.000000
_cell_angle_gamma 90.000000
_cell_volume 5881.290008
_symmetry_space_group_name_H-M "I M M M"
_symmetry_group_IT_number 71
_symmetry_cell_setting 'orthorhombic'
loop_
_space_group_symop_operation_xyz
x,y,z
-x,-y,z
x,-y,-z
-x,y,-z
-x,-y,-z
x,y,-z
-x,y,z
x,-y,z
1/2+x,1/2+y,1/2+z
1/2-x,1/2-y,1/2+z
1/2+x,1/2-y,1/2-z
1/2-x,1/2+y,1/2-z
1/2-x,1/2-y,1/2-z
1/2+x,1/2+y,1/2-z
1/2-x,1/2+y,1/2+z
1/2+x,1/2-y,1/2+z
loop_
_atom_site_type_symbol
_atom_site_label
_atom_site_fract_x
_atom_site_fract_y
_atom_site_fract_z
Si Si1 0.161021 0.106732 0.564296
Si Si2 0.184323 0.398357 0.338193
Si Si3 0.794872 0.895293 0.936997
Si Si4 0.186367 0.822348 0.768081
Si Si5 0.843699 0.604878 0.064274
Si Si6 0.590828 0.732130 0.373516
Si Si7 0.907507 0.787140 0.665954
O O1 0.135929 0.126319 0.500000
O O2 0.252456 0.131717 0.573129
O O3 0.110194 0.171821 0.604735
O O4 0.145465 0.000000 0.578613
O O5 0.144704 0.500000 0.334669
O O6 0.216640 0.377806 0.400500
O O7 0.261414 0.402255 0.296871
O O8 0.121292 0.318477 0.325678
O O9 0.868002 0.834314 0.917922
O O10 0.823085 0.000000 0.932265
O O11 0.771600 0.867654 0.000000
O O12 0.250000 0.750000 0.750000
O O13 0.125998 0.777553 0.811755
O O14 0.136235 0.851123 0.712813
O O15 0.857977 0.500000 0.080948
O O16 0.897716 0.663773 0.105676
O O17 0.868402 0.622212 0.000000
O O18 0.500000 0.705751 0.371008
O O19 0.000000 0.789145 0.676941
#
# Coordination Sequence:
#
# PCOD8292352 Si02
#       7
#    16  16  16  16  16  16  16
#     4   9  19  37  59  81 106 139 182 227 266 313
#     4   9  19  36  57  79 104 140 183 223 261 307
#     4   9  18  33  53  75  99 134 180 218 248 296
#     4   9  19  37  56  73  97 135 182 222 253 304
#     4   9  18  33  53  76 103 140 184 220 252 304
#     4  11  21  32  49  75 108 138 165 211 272 319
#     4  11  22  35  55  83 113 141 170 216 278 334
#
# _framework density 19.043441999999999
#
# number of rings (size 3 to 8) (size 9 to 14) (size 15 to 20)
#    0.000    2.429    0.000    4.286    0.000    4.857 
#    0.000    6.429    0.000    6.000    0.000    3.000 
#    0.000    0.000    0.000    0.000    0.000    0.000 
#
# Total GULP energy -694196.922353 kJ/mol
# GULP energy per Si atom -12396.373613 kJ/mol
# Density = 1.900010 g / cm^3
# Si number density = 19.043442 Si / 1000 Ang^3
#
#
#
# Elastic Constant Matrix: (Units=GPa)
#
#
# Indices 1 2 3 4 5 6 
#
# 1 68.0309 8.7285 23.0420 0.0000 0.0000 0.0000
# 2 8.7285 52.4432 18.1333 0.0000 0.0000 0.0000
# 3 23.0420 18.1333 99.3785 0.0000 0.0000 0.0000
# 4 0.0000 0.0000 0.0000 15.5659 0.0000 0.0000
# 5 0.0000 0.0000 0.0000 0.0000 18.6235 0.0000
# 6 0.0000 0.0000 0.0000 0.0000 0.0000 17.4075
#
#
#
# Elastic Compliance Matrix: (Units=1/GPa)
#
#
# Indices 1 2 3 4 5 6 
#
# 1 0.016059 -0.001479 -0.003454 0.000000 0.000000 0.000000
# 2 -0.001479 0.020488 -0.003396 0.000000 0.000000 0.000000
# 3 -0.003454 -0.003396 0.011483 0.000000 0.000000 0.000000
# 4 0.000000 0.000000 0.000000 0.064243 0.000000 0.000000
# 5 0.000000 0.000000 0.000000 0.000000 0.053696 0.000000
# 6 0.000000 0.000000 0.000000 0.000000 0.000000 0.057446
#
#
# Mechanical properties :
#
#
# Convention : Reuss Voigt Hill
#
# Bulk Modulus (GPa) = 31.87320 35.51780 33.69550
# Shear Modulus (GPa) = 19.95779 21.64930 20.80354
#
# Velocity S-wave (km/s) = 3.24082 3.37536 3.30877
# Velocity P-wave (km/s) = 5.54773 5.82084 5.68592
#
# Compressibility (1/GPa) = 0.03137432
#
# Stress axis : x y z
#
# Youngs Moduli (GPa) = 62.27178 48.80799 87.08614
#
# Poissons Ratio (x) = 0.07217 0.30076
# Poissons Ratio (y) = 0.09208 0.29571
# Poissons Ratio (z) = 0.21506 0.16573
#
# Static dielectric constant tensor:
#      x y z
#    x 3.296940 0.000000 0.000000 
#    y 0.000000 3.465150 0.000000 
#    z 0.000000 0.000000 3.818870 
# 
# 
# High freq. dielectric constant tensor:
#      x y z
#    x 1.717230 0.000000 0.000000 
#    y 0.000000 1.735750 0.000000 
#    z 0.000000 0.000000 1.750970 
# 
# From -- ./inp_files/59916.got.cif
#   From: 2010.06.25/outbox.cif.g09.slc.cpg/sg71_30_cif.got.tgz:59916.got - 2010.06.28 04:59:45.
