data_PCOD8292245
_publ_section_title
;
Structure prediction by ZEFSAII (Michael W. Deem and Ramdas Pophale) SiO2 
 PCOD8292245
Probable space group: I M M M
;
_chemical_formula_sum "Si O2"
_cell_formula_units_Z 112
_cell_length_a 27.699638
_cell_length_b 27.878824
_cell_length_c 9.203083
_cell_angle_alpha 90.000000
_cell_angle_beta 90.000000
_cell_angle_gamma 90.000000
_cell_volume 7106.927456
_symmetry_space_group_name_H-M "I M M M"
_symmetry_group_IT_number 71
_symmetry_cell_setting 'orthorhombic'
loop_
_space_group_symop_operation_xyz
x,y,z
-x,-y,z
x,-y,-z
-x,y,-z
-x,-y,-z
x,y,-z
-x,y,z
x,-y,z
1/2+x,1/2+y,1/2+z
1/2-x,1/2-y,1/2+z
1/2+x,1/2-y,1/2-z
1/2-x,1/2+y,1/2-z
1/2-x,1/2-y,1/2-z
1/2+x,1/2+y,1/2-z
1/2-x,1/2+y,1/2+z
1/2+x,1/2-y,1/2+z
loop_
_atom_site_type_symbol
_atom_site_label
_atom_site_fract_x
_atom_site_fract_y
_atom_site_fract_z
Si Si1 0.446840 0.235299 0.327448
Si Si2 0.744420 0.945037 0.832154
Si Si3 0.853240 0.209620 0.827444
Si Si4 0.366365 0.946186 0.830243
Si Si5 0.697600 0.195834 0.328597
Si Si6 0.709604 0.640034 0.827043
Si Si7 0.895735 0.641277 0.171176
O O1 0.445727 0.235586 0.500000
O O2 0.500000 0.249558 0.267724
O O3 0.406585 0.273430 0.274598
O O4 0.434868 0.180838 0.277139
O O5 0.689135 0.938617 0.780864
O O6 0.779550 0.912863 0.733167
O O7 0.760586 0.000000 0.810552
O O8 0.750062 0.929828 0.000000
O O9 0.814518 0.250208 0.777009
O O10 0.839742 0.160688 0.743154
O O11 0.851961 0.200875 0.000000
O O12 0.402780 0.909959 0.748610
O O13 0.382768 0.000000 0.790132
O O14 0.370941 0.937080 0.000000
O O15 0.696745 0.195496 0.500000
O O16 0.748464 0.176244 0.270919
O O17 0.656107 0.160129 0.274259
O O18 0.704901 0.637742 0.000000
O O19 0.898426 0.633085 0.000000
#
# Coordination Sequence:
#
# PCOD8292245 Si02
#       7
#    16  16  16  16  16  16  16
#     4   8  15  29  49  68  85 108 140 182 225 261
#     4   9  18  31  44  59  83 118 155 183 210 248
#     4   9  17  29  44  61  85 115 147 175 209 258
#     4   9  17  28  41  59  84 112 144 182 219 257
#     4   8  15  26  38  57  85 115 142 172 206 246
#     4  11  19  27  41  62  91 118 144 177 212 250
#     4   9  15  26  44  64  84 107 143 183 219 259
#
# _framework density 15.759271
#
# number of rings (size 3 to 8) (size 9 to 14) (size 15 to 20)
#    0.000    3.000    1.429    3.429    0.000    0.571 
#    0.000    5.000    0.000    2.143    0.000    3.000 
#    0.000    0.571    0.000    6.571    0.000    1.857 
#
# Total GULP energy -693957.907523 kJ/mol
# GULP energy per Si atom -12392.105491 kJ/mol
# Density = 1.572340 g / cm^3
# Si number density = 15.759271 Si / 1000 Ang^3
#
#
#
# Elastic Constant Matrix: (Units=GPa)
#
#
# Indices 1 2 3 4 5 6 
#
# 1 75.9572 37.1171 22.6444 0.0000 0.0000 0.0000
# 2 37.1171 62.1136 26.6996 0.0000 0.0000 0.0000
# 3 22.6444 26.6996 38.7052 0.0000 0.0000 0.0000
# 4 0.0000 0.0000 0.0000 26.7583 0.0000 0.0000
# 5 0.0000 0.0000 0.0000 0.0000 11.9600 0.0000
# 6 0.0000 0.0000 0.0000 0.0000 0.0000 17.1592
#
#
#
# Elastic Compliance Matrix: (Units=1/GPa)
#
#
# Indices 1 2 3 4 5 6 
#
# 1 0.019181 -0.009436 -0.004713 0.000000 0.000000 0.000000
# 2 -0.009436 0.027528 -0.013469 0.000000 0.000000 0.000000
# 3 -0.004713 -0.013469 0.037884 0.000000 0.000000 0.000000
# 4 0.000000 0.000000 0.000000 0.037372 0.000000 0.000000
# 5 0.000000 0.000000 0.000000 0.000000 0.083612 0.000000
# 6 0.000000 0.000000 0.000000 0.000000 0.000000 0.058278
#
#
# Mechanical properties :
#
#
# Convention : Reuss Voigt Hill
#
# Bulk Modulus (GPa) = 34.06174 38.85535 36.45854
# Shear Modulus (GPa) = 15.20326 17.19648 16.19987
#
# Velocity S-wave (km/s) = 3.10936 3.30691 3.20966
# Velocity P-wave (km/s) = 5.87806 6.26817 6.07624
#
# Compressibility (1/GPa) = 0.02935846
#
# Stress axis : x y z
#
# Youngs Moduli (GPa) = 52.13367 36.32673 26.39616
#
# Poissons Ratio (x) = 0.34280 0.12439
# Poissons Ratio (y) = 0.49196 0.35552
# Poissons Ratio (z) = 0.24569 0.48927
#
# Static dielectric constant tensor:
#      x y z
#    x 3.004960 0.000000 0.000000 
#    y 0.000000 2.984690 0.000000 
#    z 0.000000 0.000000 2.673830 
# 
# 
# High freq. dielectric constant tensor:
#      x y z
#    x 1.569300 0.000000 0.000000 
#    y 0.000000 1.598760 0.000000 
#    z 0.000000 0.000000 1.582670 
# 
# From -- ./inp_files/29236.got.cif
#   From: 2010.06.25/outbox.cif.g09.slc.cpg/sg71_15_cif.got.tgz:29236.got - 2010.06.28 04:59:45.
