data_PCOD8292941
_publ_section_title
;
Structure prediction by ZEFSAII (Michael W. Deem and Ramdas Pophale) SiO2 
 PCOD8292941
Probable space group: I B A M
;
_chemical_formula_sum "Si O2"
_cell_formula_units_Z 88
_cell_length_a 22.476641
_cell_length_b 15.972087
_cell_length_c 15.421321
_cell_angle_alpha 90.000000
_cell_angle_beta 90.000000
_cell_angle_gamma 90.000000
_cell_volume 5536.236744
_symmetry_space_group_name_H-M "I B A M"
_symmetry_group_IT_number 72
_symmetry_cell_setting 'orthorhombic'
loop_
_space_group_symop_operation_xyz
x,y,z
-x,-y,z
x,-y,1/2-z
-x,y,1/2-z
-x,-y,-z
x,y,-z
-x,y,1/2+z
x,-y,1/2+z
1/2+x,1/2+y,1/2+z
1/2-x,1/2-y,1/2+z
1/2+x,1/2-y,-z
1/2-x,1/2+y,-z
1/2-x,1/2-y,1/2-z
1/2+x,1/2+y,1/2-z
1/2-x,1/2+y,z
1/2+x,1/2-y,z
loop_
_atom_site_type_symbol
_atom_site_label
_atom_site_fract_x
_atom_site_fract_y
_atom_site_fract_z
Si Si1 0.877164 0.160502 0.846181
Si Si2 0.820167 0.730364 0.000000
Si Si3 0.498624 0.407209 0.352484
Si Si4 0.203459 0.997964 0.345195
Si Si5 0.688958 0.716341 0.000000
Si Si6 0.126417 0.834723 0.351699
Si Si7 0.736795 0.063572 0.000000
O O1 0.845748 0.070533 0.846913
O O2 0.874176 0.196556 0.748139
O O3 0.944262 0.147063 0.880609
O O4 0.847892 0.230096 0.910621
O O5 0.751723 0.766150 0.000000
O O6 0.852679 0.758890 0.912635
O O7 0.819155 0.627882 0.000000
O O8 0.500000 0.500000 0.394650
O O9 0.500000 0.417353 0.250000
O O10 0.439302 0.360173 0.383206
O O11 0.258467 0.008208 0.412671
O O12 0.233090 0.000000 0.250000
O O13 0.170971 0.911471 0.366386
O O14 0.702097 0.616872 0.000000
#
# Coordination Sequence:
#
# PCOD8292941 Si02
#       7
#    16   8  16  16   8  16   8
#     4   9  16  29  44  60  84 120 148 179 218 254
#     4  10  21  30  38  60  84 121 155 188 215 256
#     4   9  15  25  42  65  91 115 145 185 212 247
#     4   9  15  27  45  62  80 116 153 180 216 253
#     4   8  18  31  39  52  78 117 160 173 217 254
#     4  10  18  27  44  66  90 112 156 184 213 257
#     4   8  17  31  39  53  87 112 149 185 218 252
#
# _framework density 15.895274000000001
#
# number of rings (size 3 to 8) (size 9 to 14) (size 15 to 20)
#    0.545    2.364    1.818    0.545    0.000    1.455 
#    0.000    0.909    0.000    0.000    0.000    0.000 
#    0.000    0.000    0.000   13.091    8.727    0.182 
#
# Total GULP energy -545077.538795 kJ/mol
# GULP energy per Si atom -12388.125882 kJ/mol
# Density = 1.585910 g / cm^3
# Si number density = 15.895274 Si / 1000 Ang^3
#
#
#
# Elastic Constant Matrix: (Units=GPa)
#
#
# Indices 1 2 3 4 5 6 
#
# 1 81.4469 30.0032 43.8603 0.0000 0.0000 0.0000
# 2 30.0032 31.2154 29.4393 0.0000 0.0000 0.0000
# 3 43.8603 29.4393 106.3888 0.0000 0.0000 0.0000
# 4 0.0000 0.0000 0.0000 16.2330 0.0000 0.0000
# 5 0.0000 0.0000 0.0000 0.0000 22.3409 0.0000
# 6 0.0000 0.0000 0.0000 0.0000 0.0000 18.9194
#
#
#
# Elastic Compliance Matrix: (Units=1/GPa)
#
#
# Indices 1 2 3 4 5 6 
#
# 1 0.020191 -0.015637 -0.003997 0.000000 0.000000 0.000000
# 2 -0.015637 0.055459 -0.008899 0.000000 0.000000 0.000000
# 3 -0.003997 -0.008899 0.013510 0.000000 0.000000 0.000000
# 4 0.000000 0.000000 0.000000 0.061603 0.000000 0.000000
# 5 0.000000 0.000000 0.000000 0.000000 0.044761 0.000000
# 6 0.000000 0.000000 0.000000 0.000000 0.000000 0.052856
#
#
# Mechanical properties :
#
#
# Convention : Reuss Voigt Hill
#
# Bulk Modulus (GPa) = 31.16044 47.29518 39.22781
# Shear Modulus (GPa) = 15.81561 19.21521 17.51541
#
# Velocity S-wave (km/s) = 3.15777 3.48064 3.32313
# Velocity P-wave (km/s) = 5.73946 6.78027 6.28146
#
# Compressibility (1/GPa) = 0.03209197
#
# Stress axis : x y z
#
# Youngs Moduli (GPa) = 49.52771 18.03150 74.01992
#
# Poissons Ratio (x) = 0.28196 0.29585
# Poissons Ratio (y) = 0.77447 0.65874
# Poissons Ratio (z) = 0.19796 0.16047
#
# Static dielectric constant tensor:
#      x y z
#    x 2.905290 0.000000 0.000000 
#    y 0.000000 2.520360 0.000000 
#    z 0.000000 0.000000 3.214900 
# 
# 
# High freq. dielectric constant tensor:
#      x y z
#    x 1.584750 0.000000 0.000000 
#    y 0.000000 1.549200 0.000000 
#    z 0.000000 0.000000 1.625250 
# 
# From -- ./inp_files/22224.got.cif
#   From: 2010.03.12/outbox.cif.g09.slc.cpg/sg72_12_cif.got.tgz:22224.got - 2010.04.16 14:54:00.
