data_PCOD8292441
_publ_section_title
;
Structure prediction by ZEFSAII (Michael W. Deem and Ramdas Pophale) SiO2 
 PCOD8292441
Probable space group: I M M M
;
_chemical_formula_sum "Si O2"
_cell_formula_units_Z 120
_cell_length_a 9.311759
_cell_length_b 27.013331
_cell_length_c 27.392755
_cell_angle_alpha 90.000000
_cell_angle_beta 90.000000
_cell_angle_gamma 90.000000
_cell_volume 6890.418190
_symmetry_space_group_name_H-M "I M M M"
_symmetry_group_IT_number 71
_symmetry_cell_setting 'orthorhombic'
loop_
_space_group_symop_operation_xyz
x,y,z
-x,-y,z
x,-y,-z
-x,y,-z
-x,-y,-z
x,y,-z
-x,y,z
x,-y,z
1/2+x,1/2+y,1/2+z
1/2-x,1/2-y,1/2+z
1/2+x,1/2-y,1/2-z
1/2-x,1/2+y,1/2-z
1/2-x,1/2-y,1/2-z
1/2+x,1/2+y,1/2-z
1/2-x,1/2+y,1/2+z
1/2+x,1/2-y,1/2+z
loop_
_atom_site_type_symbol
_atom_site_label
_atom_site_fract_x
_atom_site_fract_y
_atom_site_fract_z
Si Si1 0.834106 0.821135 0.056716
Si Si2 0.330142 0.349458 0.863723
Si Si3 0.165967 0.897418 0.787773
Si Si4 0.328960 0.904152 0.886405
Si Si5 0.170673 0.054620 0.688131
Si Si6 0.835919 0.202629 0.265574
Si Si7 0.170215 0.500000 0.554629
Si Si8 0.833985 0.292214 0.943938
O O1 0.731602 0.854536 0.089395
O O2 0.794839 0.764401 0.068860
O O3 0.000000 0.831817 0.069768
O O4 0.805389 0.832403 0.000000
O O5 0.500000 0.347715 0.870697
O O6 0.277281 0.405716 0.852360
O O7 0.281293 0.315760 0.818238
O O8 0.257557 0.330452 0.912658
O O9 0.266930 0.911246 0.832596
O O10 0.221613 0.930090 0.742271
O O11 0.184243 0.839729 0.774892
O O12 0.000000 0.909072 0.800546
O O13 0.500000 0.900345 0.883878
O O14 0.275761 0.951038 0.917784
O O15 0.000000 0.055518 0.688959
O O16 0.230607 0.000000 0.675013
O O17 0.750000 0.250000 0.250000
O O18 0.000000 0.218551 0.269547
O O19 0.235283 0.500000 0.500000
O O20 0.000000 0.500000 0.552384
O O21 0.000000 0.301804 0.933007
O O22 0.797444 0.303106 0.000000
#
# Coordination Sequence:
#
# PCOD8292441 Si02
#       8
#    16  16  16  16  16  16   8  16
#     4   9  19  36  54  72  97 129 167 211 254 300
#     4   9  18  32  51  78 105 129 169 215 251 296
#     4   9  19  34  50  73 102 133 168 206 250 297
#     4  11  22  34  52  75  99 130 168 212 258 306
#     4   8  15  31  55  77 100 133 169 209 255 301
#     4   9  19  33  48  70 103 136 167 203 245 297
#     4   9  20  38  53  67  95 133 167 207 266 317
#     4   9  19  35  54  76 104 138 170 201 248 307
#
# _framework density 17.415489000000001
#
# number of rings (size 3 to 8) (size 9 to 14) (size 15 to 20)
#    0.000    2.867    0.000    3.200    2.800    2.667 
#    0.000    4.333    0.000    4.000    0.000    2.800 
#    0.000    0.000    0.000    0.000    0.000    0.000 
#
# Total GULP energy -743893.904144 kJ/mol
# GULP energy per Si atom -12398.231736 kJ/mol
# Density = 1.737585 g / cm^3
# Si number density = 17.415489 Si / 1000 Ang^3
#
#
#
# Elastic Constant Matrix: (Units=GPa)
#
#
# Indices 1 2 3 4 5 6 
#
# 1 51.9009 45.9116 42.9031 0.0000 0.0000 0.0000
# 2 45.9116 135.9743 66.6297 0.0000 0.0000 0.0000
# 3 42.9031 66.6297 103.2720 0.0000 0.0000 0.0000
# 4 0.0000 0.0000 0.0000 24.2731 0.0000 0.0000
# 5 0.0000 0.0000 0.0000 0.0000 32.8132 0.0000
# 6 0.0000 0.0000 0.0000 0.0000 0.0000 20.6090
#
#
#
# Elastic Compliance Matrix: (Units=1/GPa)
#
#
# Indices 1 2 3 4 5 6 
#
# 1 0.032784 -0.006428 -0.009473 0.000000 0.000000 0.000000
# 2 -0.006428 0.012015 -0.005081 0.000000 0.000000 0.000000
# 3 -0.009473 -0.005081 0.016897 0.000000 0.000000 0.000000
# 4 0.000000 0.000000 0.000000 0.041198 0.000000 0.000000
# 5 0.000000 0.000000 0.000000 0.000000 0.030476 0.000000
# 6 0.000000 0.000000 0.000000 0.000000 0.000000 0.048522
#
#
# Mechanical properties :
#
#
# Convention : Reuss Voigt Hill
#
# Bulk Modulus (GPa) = 50.67905 66.89289 58.78597
# Shear Modulus (GPa) = 21.69841 24.58592 23.14216
#
# Velocity S-wave (km/s) = 3.53360 3.76137 3.64926
# Velocity P-wave (km/s) = 6.76842 7.57346 7.18223
#
# Compressibility (1/GPa) = 0.01973202
#
# Stress axis : x y z
#
# Youngs Moduli (GPa) = 30.50284 83.23229 59.18260
#
# Poissons Ratio (x) = 0.53499 0.56061
# Poissons Ratio (y) = 0.19606 0.30073
# Poissons Ratio (z) = 0.28894 0.42293
#
# Static dielectric constant tensor:
#      x y z
#    x 2.965510 0.000000 0.000000 
#    y 0.000000 3.411740 0.000000 
#    z 0.000000 0.000000 3.223390 
# 
# 
# High freq. dielectric constant tensor:
#      x y z
#    x 1.650320 0.000000 0.000000 
#    y 0.000000 1.676050 0.000000 
#    z 0.000000 0.000000 1.670170 
# 
# From -- ./inp_files/63848.got.cif
#   From: 2010.06.25/outbox.cif.g09.slc.cpg/sg71_32_cif.got.tgz:63848.got - 2010.06.28 04:59:45.
