data_PCOD8292246
_publ_section_title
;
Structure prediction by ZEFSAII (Michael W. Deem and Ramdas Pophale) SiO2 
 PCOD8292246
Probable space group: I M M M
;
_chemical_formula_sum "Si O2"
_cell_formula_units_Z 88
_cell_length_a 27.263447
_cell_length_b 14.193962
_cell_length_c 14.102873
_cell_angle_alpha 90.000000
_cell_angle_beta 90.000000
_cell_angle_gamma 90.000000
_cell_volume 5457.478046
_symmetry_space_group_name_H-M "I M M M"
_symmetry_group_IT_number 71
_symmetry_cell_setting 'orthorhombic'
loop_
_space_group_symop_operation_xyz
x,y,z
-x,-y,z
x,-y,-z
-x,y,-z
-x,-y,-z
x,y,-z
-x,y,z
x,-y,z
1/2+x,1/2+y,1/2+z
1/2-x,1/2-y,1/2+z
1/2+x,1/2-y,1/2-z
1/2-x,1/2+y,1/2-z
1/2-x,1/2-y,1/2-z
1/2+x,1/2+y,1/2-z
1/2-x,1/2+y,1/2+z
1/2+x,1/2-y,1/2+z
loop_
_atom_site_type_symbol
_atom_site_label
_atom_site_fract_x
_atom_site_fract_y
_atom_site_fract_z
Si Si1 0.555994 0.704345 0.386741
Si Si2 0.057172 0.000000 0.898258
Si Si3 0.851175 0.263972 0.205454
Si Si4 0.288017 0.391953 0.389987
Si Si5 0.801812 0.737643 0.392178
Si Si6 0.776517 0.606580 0.109598
O O1 0.564200 0.710210 0.500000
O O2 0.500000 0.732033 0.361907
O O3 0.569402 0.598737 0.346758
O O4 0.592505 0.773005 0.329505
O O5 0.000000 0.000000 0.919811
O O6 0.084895 0.000000 0.000000
O O7 0.828131 0.167115 0.166852
O O8 0.847745 0.265909 0.320238
O O9 0.822681 0.354650 0.166996
O O10 0.301373 0.381812 0.500000
O O11 0.289542 0.500000 0.355881
O O12 0.233633 0.351180 0.371905
O O13 0.821692 0.736546 0.500000
O O14 0.771938 0.832950 0.369361
O O15 0.765546 0.500000 0.141028
O O16 0.790782 0.614434 0.000000
#
# Coordination Sequence:
#
# PCOD8292246 Si02
#       6
#    16   8  16  16  16  16
#     4   9  17  29  44  64  90 113 135 171 221 270
#     4   7  12  24  40  58  83 111 129 151 202 266
#     4  11  19  27  45  67  86 115 154 181 209 257
#     4   9  17  28  44  69  96 114 133 172 224 269
#     4   9  19  32  42  59  89 120 150 184 215 247
#     4   9  17  30  46  64  90 120 147 176 212 258
#
# _framework density 16.124665
#
# number of rings (size 3 to 8) (size 9 to 14) (size 15 to 20)
#    0.000    2.818    0.000    6.000    1.273    2.909 
#    0.000    0.000    0.000    1.091    0.000    2.545 
#    0.000    2.182    0.000    6.182    0.000    0.182 
#
# Total GULP energy -545258.827604 kJ/mol
# GULP energy per Si atom -12392.246082 kJ/mol
# Density = 1.608796 g / cm^3
# Si number density = 16.124665 Si / 1000 Ang^3
#
#
#
# Elastic Constant Matrix: (Units=GPa)
#
#
# Indices 1 2 3 4 5 6 
#
# 1 72.9773 6.8498 50.6267 0.0000 0.0000 0.0000
# 2 6.8498 71.7325 16.2731 0.0000 0.0000 0.0000
# 3 50.6267 16.2731 71.6998 0.0000 0.0000 0.0000
# 4 0.0000 0.0000 0.0000 10.0669 0.0000 0.0000
# 5 0.0000 0.0000 0.0000 0.0000 22.8532 0.0000
# 6 0.0000 0.0000 0.0000 0.0000 0.0000 10.6502
#
#
#
# Elastic Compliance Matrix: (Units=1/GPa)
#
#
# Indices 1 2 3 4 5 6 
#
# 1 0.027090 0.001848 -0.019548 0.000000 0.000000 0.000000
# 2 0.001848 0.014823 -0.004669 0.000000 0.000000 0.000000
# 3 -0.019548 -0.004669 0.028809 0.000000 0.000000 0.000000
# 4 0.000000 0.000000 0.000000 0.099335 0.000000 0.000000
# 5 0.000000 0.000000 0.000000 0.000000 0.043758 0.000000
# 6 0.000000 0.000000 0.000000 0.000000 0.000000 0.093895
#
#
# Mechanical properties :
#
#
# Convention : Reuss Voigt Hill
#
# Bulk Modulus (GPa) = 38.48369 40.43432 39.45901
# Shear Modulus (GPa) = 13.84621 18.22474 16.03547
#
# Velocity S-wave (km/s) = 2.93353 3.36555 3.15694
# Velocity P-wave (km/s) = 5.94914 6.34296 6.14920
#
# Compressibility (1/GPa) = 0.02598503
#
# Stress axis : x y z
#
# Youngs Moduli (GPa) = 36.91362 67.46072 34.71122
#
# Poissons Ratio (x) = -0.12465 0.67852
# Poissons Ratio (y) = -0.06820 0.16207
# Poissons Ratio (z) = 0.72157 0.31497
#
# Static dielectric constant tensor:
#      x y z
#    x 2.796620 0.000000 0.000000 
#    y 0.000000 3.224420 0.000000 
#    z 0.000000 0.000000 2.971070 
# 
# 
# High freq. dielectric constant tensor:
#      x y z
#    x 1.582620 0.000000 0.000000 
#    y 0.000000 1.614890 0.000000 
#    z 0.000000 0.000000 1.603110 
# 
# From -- ./inp_files/40245.got.cif
#   From: 2010.06.25/outbox.cif.g09.slc.cpg/sg71_21_cif.got.tgz:40245.got - 2010.06.28 04:59:45.
