data_PCOD8292379
_publ_section_title
;
Structure prediction by ZEFSAII (Michael W. Deem and Ramdas Pophale) SiO2 
 PCOD8292379
Probable space group: I M M M
;
_chemical_formula_sum "Si O2"
_cell_formula_units_Z 104
_cell_length_a 23.042886
_cell_length_b 8.891313
_cell_length_c 28.008545
_cell_angle_alpha 90.000000
_cell_angle_beta 90.000000
_cell_angle_gamma 90.000000
_cell_volume 5738.433044
_symmetry_space_group_name_H-M "I M M M"
_symmetry_group_IT_number 71
_symmetry_cell_setting 'orthorhombic'
loop_
_space_group_symop_operation_xyz
x,y,z
-x,-y,z
x,-y,-z
-x,y,-z
-x,-y,-z
x,y,-z
-x,y,z
x,-y,z
1/2+x,1/2+y,1/2+z
1/2-x,1/2-y,1/2+z
1/2+x,1/2-y,1/2-z
1/2-x,1/2+y,1/2-z
1/2-x,1/2-y,1/2-z
1/2+x,1/2+y,1/2-z
1/2-x,1/2+y,1/2+z
1/2+x,1/2-y,1/2+z
loop_
_atom_site_type_symbol
_atom_site_label
_atom_site_fract_x
_atom_site_fract_y
_atom_site_fract_z
Si Si1 0.933313 0.176449 0.593169
Si Si2 0.069202 0.668154 0.500000
Si Si3 0.366775 0.673633 0.181978
Si Si4 0.566508 0.177113 0.555066
Si Si5 0.563864 0.321908 0.270011
Si Si6 0.366079 0.322031 0.359549
Si Si7 0.261896 0.174652 0.698745
O O1 0.905652 0.249672 0.546276
O O2 0.900337 0.249174 0.638047
O O3 0.000000 0.220060 0.599327
O O4 0.923851 0.000000 0.588670
O O5 0.092585 0.500000 0.500000
O O6 0.000000 0.678033 0.500000
O O7 0.384618 0.500000 0.183940
O O8 0.389773 0.745826 0.231910
O O9 0.299146 0.693274 0.172046
O O10 0.580838 0.219576 0.500000
O O11 0.500000 0.227567 0.566790
O O12 0.614082 0.257278 0.589139
O O13 0.572618 0.000000 0.562697
O O14 0.500000 0.254094 0.260132
O O15 0.562238 0.500000 0.265960
O O16 0.582867 0.277042 0.323119
O O17 0.356790 0.500000 0.364337
O O18 0.307511 0.253571 0.336614
O O19 0.250000 0.250000 0.750000
O O20 0.278717 0.000000 0.706279
#
# Coordination Sequence:
#
# PCOD8292379 Si02
#       7
#    16   8  16  16  16  16  16
#     4   9  16  28  50  76  97 122 162 210 253 299
#     4   9  17  29  45  67  99 133 157 187 240 303
#     4   9  17  30  49  74 101 130 170 216 261 308
#     4   9  19  37  60  86 117 150 183 226 284 343
#     4   9  16  27  46  75 108 136 165 208 261 314
#     4  11  21  34  54  82 112 146 187 227 269 325
#     4  11  21  36  55  76 104 142 185 226 268 318
#
# _framework density 18.123414
#
# number of rings (size 3 to 8) (size 9 to 14) (size 15 to 20)
#    0.000    2.385    1.538    2.538    0.000    4.000 
#    0.000    2.308    1.692    0.000    0.000    0.000 
#    0.000    0.000    0.000    0.000    0.000    0.000 
#
# Total GULP energy -644391.821080 kJ/mol
# GULP energy per Si atom -12392.150405 kJ/mol
# Density = 1.808216 g / cm^3
# Si number density = 18.123414 Si / 1000 Ang^3
#
#
#
# Elastic Constant Matrix: (Units=GPa)
#
#
# Indices 1 2 3 4 5 6 
#
# 1 92.2930 36.3871 61.3404 0.0000 0.0000 0.0000
# 2 36.3871 60.2574 47.5388 0.0000 0.0000 0.0000
# 3 61.3404 47.5388 150.8301 0.0000 0.0000 0.0000
# 4 0.0000 0.0000 0.0000 22.1051 0.0000 0.0000
# 5 0.0000 0.0000 0.0000 0.0000 28.0332 0.0000
# 6 0.0000 0.0000 0.0000 0.0000 0.0000 20.4047
#
#
#
# Elastic Compliance Matrix: (Units=1/GPa)
#
#
# Indices 1 2 3 4 5 6 
#
# 1 0.016414 -0.006183 -0.004727 0.000000 0.000000 0.000000
# 2 -0.006183 0.024417 -0.005181 0.000000 0.000000 0.000000
# 3 -0.004727 -0.005181 0.010185 0.000000 0.000000 0.000000
# 4 0.000000 0.000000 0.000000 0.045239 0.000000 0.000000
# 5 0.000000 0.000000 0.000000 0.000000 0.035672 0.000000
# 6 0.000000 0.000000 0.000000 0.000000 0.000000 0.049008
#
#
# Mechanical properties :
#
#
# Convention : Reuss Voigt Hill
#
# Bulk Modulus (GPa) = 53.09372 65.99033 59.54202
# Shear Modulus (GPa) = 22.79001 24.64955 23.71978
#
# Velocity S-wave (km/s) = 3.54996 3.69195 3.62165
# Velocity P-wave (km/s) = 6.79428 7.39355 7.10024
#
# Compressibility (1/GPa) = 0.01883462
#
# Stress axis : x y z
#
# Youngs Moduli (GPa) = 60.92297 40.95573 98.18112
#
# Poissons Ratio (x) = 0.25322 0.46407
# Poissons Ratio (y) = 0.37668 0.50869
# Poissons Ratio (z) = 0.28796 0.21220
#
# Static dielectric constant tensor:
#      x y z
#    x 3.366870 0.000000 0.000000 
#    y 0.000000 3.114860 0.000000 
#    z 0.000000 0.000000 3.622710 
# 
# 
# High freq. dielectric constant tensor:
#      x y z
#    x 1.690220 0.000000 0.000000 
#    y 0.000000 1.675490 0.000000 
#    z 0.000000 0.000000 1.710050 
# 
# From -- ./inp_files/66798.got.cif
#   From: 2010.06.25/outbox.cif.g09.slc.cpg/sg71_34_cif.got.tgz:66798.got - 2010.06.28 04:59:45.
