data_PCOD8292328
_publ_section_title
;
Structure prediction by ZEFSAII (Michael W. Deem and Ramdas Pophale) SiO2 
 PCOD8292328
Probable space group: I M M M
;
_chemical_formula_sum "Si O2"
_cell_formula_units_Z 112
_cell_length_a 14.630800
_cell_length_b 31.938911
_cell_length_c 15.064699
_cell_angle_alpha 90.000000
_cell_angle_beta 90.000000
_cell_angle_gamma 90.000000
_cell_volume 7039.610599
_symmetry_space_group_name_H-M "I M M M"
_symmetry_group_IT_number 71
_symmetry_cell_setting 'orthorhombic'
loop_
_space_group_symop_operation_xyz
x,y,z
-x,-y,z
x,-y,-z
-x,y,-z
-x,-y,-z
x,y,-z
-x,y,z
x,-y,z
1/2+x,1/2+y,1/2+z
1/2-x,1/2-y,1/2+z
1/2+x,1/2-y,1/2-z
1/2-x,1/2+y,1/2-z
1/2-x,1/2-y,1/2-z
1/2+x,1/2+y,1/2-z
1/2-x,1/2+y,1/2+z
1/2+x,1/2-y,1/2+z
loop_
_atom_site_type_symbol
_atom_site_label
_atom_site_fract_x
_atom_site_fract_y
_atom_site_fract_z
Si Si1 0.899290 0.112137 0.896959
Si Si2 0.605945 0.890739 0.101158
Si Si3 0.895074 0.680634 0.262693
Si Si4 0.399138 0.729138 0.841323
Si Si5 0.705539 0.786952 0.402428
Si Si6 0.396544 0.703644 0.646334
Si Si7 0.742719 0.546281 0.395787
O O1 0.858191 0.158740 0.884939
O O2 0.833913 0.077020 0.853215
O O3 0.000000 0.109304 0.852514
O O4 0.906631 0.102312 0.000000
O O5 0.500000 0.900822 0.111779
O O6 0.637929 0.856034 0.171967
O O7 0.658439 0.933619 0.123263
O O8 0.628231 0.875589 0.000000
O O9 0.882540 0.722606 0.318238
O O10 0.834081 0.682176 0.173191
O O11 0.000000 0.674922 0.232758
O O12 0.500000 0.723648 0.886757
O O13 0.316212 0.713692 0.902386
O O14 0.395986 0.702215 0.752119
O O15 0.676335 0.803406 0.500000
O O16 0.668204 0.739954 0.390219
O O17 0.500000 0.711131 0.610603
O O18 0.726395 0.542165 0.500000
O O19 0.737567 0.500000 0.351888
#
# Coordination Sequence:
#
# PCOD8292328 Si02
#       7
#    16  16  16  16  16  16  16
#     4   9  17  27  41  62  86 115 150 183 216 258
#     4   9  18  31  48  68  89 118 153 187 223 264
#     4   9  18  32  47  65  89 116 151 193 229 262
#     4   9  19  32  43  59  86 118 151 188 227 262
#     4  11  21  29  44  66  90 124 155 187 228 263
#     4   9  17  30  46  63  84 114 154 194 226 258
#     4   9  18  29  42  63  89 117 146 179 223 271
#
# _framework density 15.909971000000001
#
# number of rings (size 3 to 8) (size 9 to 14) (size 15 to 20)
#    0.000    2.714    0.000    3.429    4.000    3.143 
#    0.000    4.286    0.000    0.000    0.000    0.000 
#    0.000    0.571    0.000    3.143    0.000    8.143 
#
# Total GULP energy -693994.607901 kJ/mol
# GULP energy per Si atom -12392.760855 kJ/mol
# Density = 1.587376 g / cm^3
# Si number density = 15.909971 Si / 1000 Ang^3
#
#
#
# Elastic Constant Matrix: (Units=GPa)
#
#
# Indices 1 2 3 4 5 6 
#
# 1 87.2487 39.7091 28.2183 -0.0005 -0.0002 -0.0001
# 2 39.7091 89.7170 31.5509 -0.0012 0.0000 0.0001
# 3 28.2183 31.5509 53.5101 -0.0090 0.0030 0.0008
# 4 -0.0005 -0.0012 -0.0090 15.1666 0.0015 0.0008
# 5 -0.0002 0.0000 0.0030 0.0015 12.9215 0.0000
# 6 -0.0001 0.0001 0.0008 0.0008 0.0000 22.0017
#
#
#
# Elastic Compliance Matrix: (Units=1/GPa)
#
#
# Indices 1 2 3 4 5 6 
#
# 1 0.015412 -0.005000 -0.005179 -0.000003 0.000001 0.000000
# 2 -0.005000 0.015684 -0.006611 -0.000003 0.000001 0.000000
# 3 -0.005179 -0.006611 0.025317 0.000014 -0.000006 -0.000001
# 4 -0.000003 -0.000003 0.000014 0.065934 -0.000008 -0.000002
# 5 0.000001 0.000001 -0.000006 -0.000008 0.077390 0.000000
# 6 0.000000 0.000000 -0.000001 -0.000002 0.000000 0.045451
#
#
# Mechanical properties :
#
#
# Convention : Reuss Voigt Hill
#
# Bulk Modulus (GPa) = 43.79655 47.71471 45.75563
# Shear Modulus (GPa) = 17.45924 18.75114 18.10519
#
# Velocity S-wave (km/s) = 3.31626 3.43677 3.37705
# Velocity P-wave (km/s) = 6.50007 6.76787 6.63532
#
# Compressibility (1/GPa) = 0.02283285
#
# Stress axis : x y z
#
# Youngs Moduli (GPa) = 64.88318 63.75875 39.49847
#
# Poissons Ratio (x) = 0.31880 0.20458
# Poissons Ratio (y) = 0.32442 0.26112
# Poissons Ratio (z) = 0.33606 0.42151
#
# Static dielectric constant tensor:
#      x y z
#    x 3.314450 0.000000 0.000000 
#    y 0.000000 2.951250 0.000000 
#    z 0.000000 0.000000 2.778400 
# 
# 
# High freq. dielectric constant tensor:
#      x y z
#    x 1.631620 0.000000 0.000000 
#    y 0.000000 1.579370 0.000000 
#    z 0.000000 0.000000 1.568770 
# 
# From -- ./inp_files/35370.got.cif
#   From: 2010.06.25/outbox.cif.g09.slc.cpg/sg71_18_cif.got.tgz:35370.got - 2010.06.28 04:59:45.
