data_PCOD8292555
_publ_section_title
;
Structure prediction by ZEFSAII (Michael W. Deem and Ramdas Pophale) SiO2 
 PCOD8292555
Probable space group: I M M M
;
_chemical_formula_sum "Si O2"
_cell_formula_units_Z 72
_cell_length_a 18.453315
_cell_length_b 23.268060
_cell_length_c 8.089709
_cell_angle_alpha 90.000000
_cell_angle_beta 90.000000
_cell_angle_gamma 90.000000
_cell_volume 3473.501333
_symmetry_space_group_name_H-M "I M M M"
_symmetry_group_IT_number 71
_symmetry_cell_setting 'orthorhombic'
loop_
_space_group_symop_operation_xyz
x,y,z
-x,-y,z
x,-y,-z
-x,y,-z
-x,-y,-z
x,y,-z
-x,y,z
x,-y,z
1/2+x,1/2+y,1/2+z
1/2-x,1/2-y,1/2+z
1/2+x,1/2-y,1/2-z
1/2-x,1/2+y,1/2-z
1/2-x,1/2-y,1/2-z
1/2+x,1/2+y,1/2-z
1/2-x,1/2+y,1/2+z
1/2+x,1/2-y,1/2+z
loop_
_atom_site_type_symbol
_atom_site_label
_atom_site_fract_x
_atom_site_fract_y
_atom_site_fract_z
Si Si1 0.414983 0.563138 0.500000
Si Si2 0.417923 0.854864 0.690486
Si Si3 0.345372 0.618884 0.184472
Si Si4 0.169133 0.250634 0.313593
Si Si5 0.202986 0.565902 0.309739
O O1 0.379736 0.500000 0.500000
O O2 0.500000 0.560499 0.500000
O O3 0.392066 0.591975 0.329483
O O4 0.417452 0.872342 0.500000
O O5 0.500000 0.852606 0.759544
O O6 0.381764 0.792190 0.707605
O O7 0.374843 0.904098 0.789167
O O8 0.360346 0.686358 0.198144
O O9 0.260969 0.602305 0.204745
O O10 0.369444 0.598096 0.000000
O O11 0.168497 0.274202 0.500000
O O12 0.250000 0.250000 0.250000
O O13 0.227270 0.568109 0.500000
O O14 0.199017 0.500000 0.247538
#
# Coordination Sequence:
#
# PCOD8292555 Si02
#       5
#     8  16  16  16  16
#     4  11  26  46  68  98 133 171 218 272 331 392
#     4  11  25  42  62  93 131 172 217 270 334 393
#     4  11  24  42  68  99 131 172 220 271 328 392
#     4  11  23  39  64  94 125 163 211 264 324 389
#     4  11  23  40  65  95 128 171 223 272 323 389
#
# _framework density 20.728363000000002
#
# number of rings (size 3 to 8) (size 9 to 14) (size 15 to 20)
#    0.000    1.000    3.333    2.667    3.111    6.667 
#    0.000    5.556    0.000    0.000    0.000    0.000 
#    0.000    0.000    0.000    0.000    0.000    0.000 
#
# Total GULP energy -446477.061608 kJ/mol
# GULP energy per Si atom -12402.140600 kJ/mol
# Density = 2.068118 g / cm^3
# Si number density = 20.728363 Si / 1000 Ang^3
#
#
#
# Elastic Constant Matrix: (Units=GPa)
#
#
# Indices 1 2 3 4 5 6 
#
# 1 85.9442 30.8753 19.9685 0.0000 0.0000 0.0000
# 2 30.8753 114.0338 32.3804 0.0000 0.0000 0.0000
# 3 19.9685 32.3804 122.1128 0.0000 0.0000 0.0000
# 4 0.0000 0.0000 0.0000 31.9562 0.0000 0.0000
# 5 0.0000 0.0000 0.0000 0.0000 29.9922 0.0000
# 6 0.0000 0.0000 0.0000 0.0000 0.0000 30.6552
#
#
#
# Elastic Compliance Matrix: (Units=1/GPa)
#
#
# Indices 1 2 3 4 5 6 
#
# 1 0.013076 -0.003172 -0.001297 0.000000 0.000000 0.000000
# 2 -0.003172 0.010253 -0.002200 0.000000 0.000000 0.000000
# 3 -0.001297 -0.002200 0.008985 0.000000 0.000000 0.000000
# 4 0.000000 0.000000 0.000000 0.031293 0.000000 0.000000
# 5 0.000000 0.000000 0.000000 0.000000 0.033342 0.000000
# 6 0.000000 0.000000 0.000000 0.000000 0.000000 0.032621
#
#
# Mechanical properties :
#
#
# Convention : Reuss Voigt Hill
#
# Bulk Modulus (GPa) = 52.70015 54.28214 53.49115
# Shear Modulus (GPa) = 33.50454 34.44517 33.97485
#
# Velocity S-wave (km/s) = 4.02476 4.08087 4.05291
# Velocity P-wave (km/s) = 6.86132 6.96052 6.91110
#
# Compressibility (1/GPa) = 0.01897528
#
# Stress axis : x y z
#
# Youngs Moduli (GPa) = 76.47335 97.53321 111.30100
#
# Poissons Ratio (x) = 0.30939 0.14438
# Poissons Ratio (y) = 0.24259 0.24486
# Poissons Ratio (z) = 0.09920 0.21457
#
# Static dielectric constant tensor:
#      x y z
#    x 3.684700 0.000000 0.000000 
#    y 0.000000 4.048050 0.000000 
#    z 0.000000 0.000000 3.504820 
# 
# 
# High freq. dielectric constant tensor:
#      x y z
#    x 1.803120 0.000000 0.000000 
#    y 0.000000 1.821130 0.000000 
#    z 0.000000 0.000000 1.824370 
# 
# From -- ./inp_files/7914.got.cif
#   From: 2010.06.25/outbox.cif.g09.slc.cpg/sg71_4_cif.got.tgz:7914.got - 2010.06.28 04:59:45.
