data_PCOD8292601
_publ_section_title
;
Structure prediction by ZEFSAII (Michael W. Deem and Ramdas Pophale) SiO2 
 PCOD8292601
Probable space group: I M M M
;
_chemical_formula_sum "Si O2"
_cell_formula_units_Z 48
_cell_length_a 14.680875
_cell_length_b 5.149868
_cell_length_c 29.403710
_cell_angle_alpha 90.000000
_cell_angle_beta 90.000000
_cell_angle_gamma 90.000000
_cell_volume 2223.054803
_symmetry_space_group_name_H-M "I M M M"
_symmetry_group_IT_number 71
_symmetry_cell_setting 'orthorhombic'
loop_
_space_group_symop_operation_xyz
x,y,z
-x,-y,z
x,-y,-z
-x,y,-z
-x,-y,-z
x,y,-z
-x,y,z
x,-y,z
1/2+x,1/2+y,1/2+z
1/2-x,1/2-y,1/2+z
1/2+x,1/2-y,1/2-z
1/2-x,1/2+y,1/2-z
1/2-x,1/2-y,1/2-z
1/2+x,1/2+y,1/2-z
1/2-x,1/2+y,1/2+z
1/2+x,1/2-y,1/2+z
loop_
_atom_site_type_symbol
_atom_site_label
_atom_site_fract_x
_atom_site_fract_y
_atom_site_fract_z
Si Si1 0.660327 0.000000 0.683952
Si Si2 0.099258 0.500000 0.396489
Si Si3 0.397749 0.500000 0.265625
Si Si4 0.102559 0.500000 0.912248
Si Si5 0.789438 0.000000 0.053758
Si Si6 0.136583 0.000000 0.660568
O O1 0.653705 0.751599 0.716121
O O2 0.755436 0.000000 0.658276
O O3 0.589060 0.000000 0.642496
O O4 0.183605 0.500000 0.431328
O O5 0.099995 0.748379 0.364364
O O6 0.000000 0.500000 0.422061
O O7 0.500000 0.500000 0.284647
O O8 0.399461 0.500000 0.211694
O O9 0.157826 0.750772 0.927974
O O10 0.000000 0.500000 0.933042
O O11 0.790897 0.000000 0.000000
#
# Coordination Sequence:
#
# PCOD8292601 Si02
#       6
#     8   8   8   8   8   8
#     4  12  23  43  64  94 136 180 220 270 323 387
#     4  12  24  45  72  98 132 176 221 274 338 397
#     4  12  24  38  61  98 132 176 230 269 316 382
#     4  12  25  45  72 100 137 181 219 267 333 398
#     4  12  26  47  71 101 136 168 218 282 335 404
#     4  12  24  44  66  95 134 179 223 272 325 386
#
# _framework density 21.591912000000001
#
# number of rings (size 3 to 8) (size 9 to 14) (size 15 to 20)
#    0.000    0.000    3.333    8.000    0.000    2.333 
#    0.000    0.000    0.000    4.000    0.000    0.000 
#    0.000    0.000    0.000    0.000    0.000    0.000 
#
# Total GULP energy -297663.151557 kJ/mol
# GULP energy per Si atom -12402.631315 kJ/mol
# Density = 2.154277 g / cm^3
# Si number density = 21.591912 Si / 1000 Ang^3
#
#
#
# Elastic Constant Matrix: (Units=GPa)
#
#
# Indices 1 2 3 4 5 6 
#
# 1 166.9904 40.1211 10.6295 0.0000 0.0000 0.0000
# 2 40.1211 193.9442 42.3470 0.0000 0.0000 0.0000
# 3 10.6295 42.3470 104.5339 0.0000 0.0000 0.0000
# 4 0.0000 0.0000 0.0000 25.2720 0.0000 0.0000
# 5 0.0000 0.0000 0.0000 0.0000 3.2633 0.0000
# 6 0.0000 0.0000 0.0000 0.0000 0.0000 21.7452
#
#
#
# Elastic Compliance Matrix: (Units=1/GPa)
#
#
# Indices 1 2 3 4 5 6 
#
# 1 0.006303 -0.001277 -0.000124 0.000000 0.000000 0.000000
# 2 -0.001277 0.005915 -0.002266 0.000000 0.000000 0.000000
# 3 -0.000124 -0.002266 0.010497 0.000000 0.000000 0.000000
# 4 0.000000 0.000000 0.000000 0.039569 0.000000 0.000000
# 5 0.000000 0.000000 0.000000 0.000000 0.306441 0.000000
# 6 0.000000 0.000000 0.000000 0.000000 0.000000 0.045987
#
#
# Mechanical properties :
#
#
# Convention : Reuss Voigt Hill
#
# Bulk Modulus (GPa) = 65.01425 72.40707 68.71066
# Shear Modulus (GPa) = 11.70484 34.88083 23.29283
#
# Velocity S-wave (km/s) = 2.33082 4.02364 3.28804
# Velocity P-wave (km/s) = 6.11714 7.42922 6.80488
#
# Compressibility (1/GPa) = 0.01538124
#
# Stress axis : x y z
#
# Youngs Moduli (GPa) = 158.65388 169.05794 95.26554
#
# Poissons Ratio (x) = 0.21587 0.01178
# Poissons Ratio (y) = 0.20259 0.21591
# Poissons Ratio (z) = 0.01962 0.38315
#
# Static dielectric constant tensor:
#      x y z
#    x 4.291050 0.000000 0.000000 
#    y 0.000000 4.109510 0.000000 
#    z 0.000000 0.000000 3.788890 
# 
# 
# High freq. dielectric constant tensor:
#      x y z
#    x 1.874380 0.000000 0.000000 
#    y 0.000000 1.868870 0.000000 
#    z 0.000000 0.000000 1.839060 
# 
# From -- ./inp_files/64997.got.cif
#   From: 2010.06.25/outbox.cif.g09.slc.cpg/sg71_33_cif.got.tgz:64997.got - 2010.06.28 04:59:45.
