data_PCOD8292385
_publ_section_title
;
Structure prediction by ZEFSAII (Michael W. Deem and Ramdas Pophale) SiO2 
 PCOD8292385
Probable space group: I M M M
;
_chemical_formula_sum "Si O2"
_cell_formula_units_Z 96
_cell_length_a 28.757057
_cell_length_b 9.018075
_cell_length_c 18.643591
_cell_angle_alpha 90.000000
_cell_angle_beta 90.000000
_cell_angle_gamma 90.000000
_cell_volume 4834.903918
_symmetry_space_group_name_H-M "I M M M"
_symmetry_group_IT_number 71
_symmetry_cell_setting 'orthorhombic'
loop_
_space_group_symop_operation_xyz
x,y,z
-x,-y,z
x,-y,-z
-x,y,-z
-x,-y,-z
x,y,-z
-x,y,z
x,-y,z
1/2+x,1/2+y,1/2+z
1/2-x,1/2-y,1/2+z
1/2+x,1/2-y,1/2-z
1/2-x,1/2+y,1/2-z
1/2-x,1/2-y,1/2-z
1/2+x,1/2+y,1/2-z
1/2-x,1/2+y,1/2+z
1/2+x,1/2-y,1/2+z
loop_
_atom_site_type_symbol
_atom_site_label
_atom_site_fract_x
_atom_site_fract_y
_atom_site_fract_z
Si Si1 0.694576 0.173102 0.817740
Si Si2 0.275866 0.327398 0.580597
Si Si3 0.947979 0.671408 0.784998
Si Si4 0.366501 0.664857 0.921177
Si Si5 0.146640 0.172278 0.186376
Si Si6 0.447821 0.835174 0.883412
O O1 0.739869 0.238910 0.859838
O O2 0.652817 0.204416 0.871975
O O3 0.682032 0.257232 0.744602
O O4 0.699035 0.000000 0.800043
O O5 0.271232 0.256836 0.500000
O O6 0.263889 0.500000 0.574753
O O7 0.328246 0.302598 0.609553
O O8 0.941621 0.500000 0.805522
O O9 0.905072 0.760052 0.820484
O O10 0.944246 0.695990 0.700892
O O11 0.000000 0.724411 0.810940
O O12 0.359829 0.500000 0.888194
O O13 0.420648 0.707242 0.926093
O O14 0.343801 0.669417 0.000000
O O15 0.141719 0.000000 0.205333
O O16 0.500000 0.823030 0.910579
O O17 0.428633 0.000000 0.900634
#
# Coordination Sequence:
#
# PCOD8292385 Si02
#       6
#    16  16  16  16  16  16
#     4  11  21  36  58  80 107 148 192 226 264 323
#     4   9  20  38  58  82 113 149 187 227 273 328
#     4   9  18  34  56  82 112 145 182 225 272 327
#     4  11  23  35  48  72 107 142 179 229 282 323
#     4  11  21  34  58  89 116 142 180 232 282 325
#     4   9  18  33  52  72  97 136 183 226 270 325
#
# _framework density 19.855616999999999
#
# number of rings (size 3 to 8) (size 9 to 14) (size 15 to 20)
#    0.000    2.000    1.667    3.500    0.000    3.000 
#    0.000    5.833    0.000    6.500    0.000    3.500 
#    0.000    0.000    0.000    0.000    0.000    0.000 
#
# Total GULP energy -594692.011056 kJ/mol
# GULP energy per Si atom -12389.416897 kJ/mol
# Density = 1.981042 g / cm^3
# Si number density = 19.855617 Si / 1000 Ang^3
#
#
#
# Elastic Constant Matrix: (Units=GPa)
#
#
# Indices 1 2 3 4 5 6 
#
# 1 120.7627 39.7317 47.2065 0.0000 0.0000 0.0000
# 2 39.7317 71.3902 26.3490 0.0000 0.0000 0.0000
# 3 47.2065 26.3490 62.1979 0.0000 0.0000 0.0000
# 4 0.0000 0.0000 0.0000 10.5169 0.0000 0.0000
# 5 0.0000 0.0000 0.0000 0.0000 -1.5618 0.0000
# 6 0.0000 0.0000 0.0000 0.0000 0.0000 29.4671
#
#
#
# Elastic Compliance Matrix: (Units=1/GPa)
#
#
# Indices 1 2 3 4 5 6 
#
# 1 0.012744 -0.004176 -0.007903 0.000000 0.000000 0.000000
# 2 -0.004176 0.017972 -0.004444 0.000000 0.000000 0.000000
# 3 -0.007903 -0.004444 0.023959 0.000000 0.000000 0.000000
# 4 0.000000 0.000000 0.000000 0.095085 0.000000 0.000000
# 5 0.000000 0.000000 0.000000 0.000000 -0.640292 0.000000
# 6 0.000000 0.000000 0.000000 0.000000 0.000000 0.033936
#
#
# Mechanical properties :
#
#
# Convention : Reuss Voigt Hill
#
# Bulk Modulus (GPa) = 46.23608 53.43615 49.83612
# Shear Modulus (GPa) = -12.00941 17.08867 2.53963
#
# Velocity S-wave (km/s) = -2.46201 2.93686 1.13218
# Velocity P-wave (km/s) = 3.90573 6.20250 5.18294
#
# Compressibility (1/GPa) = 0.02162813
#
# Stress axis : x y z
#
# Youngs Moduli (GPa) = 78.46861 55.64306 41.73807
#
# Poissons Ratio (x) = 0.23234 0.32987
# Poissons Ratio (y) = 0.32765 0.18550
# Poissons Ratio (z) = 0.62017 0.24729
#
# Static dielectric constant tensor:
#      x y z
#    x 3.879770 0.000000 0.000000 
#    y 0.000000 3.400400 0.000000 
#    z 0.000000 0.000000 3.420830 
# 
# 
# High freq. dielectric constant tensor:
#      x y z
#    x 1.783580 0.000000 0.000000 
#    y 0.000000 1.756570 0.000000 
#    z 0.000000 0.000000 1.746880 
# 
# From -- ./inp_files/56146.got.cif
#   From: 2010.06.25/outbox.cif.g09.slc.cpg/sg71_29_cif.got.tgz:56146.got - 2010.06.28 04:59:45.
