data_PCOD8292100
_publ_section_title
;
Structure prediction by ZEFSAII (Michael W. Deem and Ramdas Pophale) SiO2 
 PCOD8292100
Probable space group: I M M M
;
_chemical_formula_sum "Si O2"
_cell_formula_units_Z 64
_cell_length_a 17.843790
_cell_length_b 16.148349
_cell_length_c 10.848700
_cell_angle_alpha 90.000000
_cell_angle_beta 90.000000
_cell_angle_gamma 90.000000
_cell_volume 3126.028478
_symmetry_space_group_name_H-M "I M M M"
_symmetry_group_IT_number 71
_symmetry_cell_setting 'orthorhombic'
loop_
_space_group_symop_operation_xyz
x,y,z
-x,-y,z
x,-y,-z
-x,y,-z
-x,-y,-z
x,y,-z
-x,y,z
x,-y,z
1/2+x,1/2+y,1/2+z
1/2-x,1/2-y,1/2+z
1/2+x,1/2-y,1/2-z
1/2-x,1/2+y,1/2-z
1/2-x,1/2-y,1/2-z
1/2+x,1/2+y,1/2-z
1/2-x,1/2+y,1/2+z
1/2+x,1/2-y,1/2+z
loop_
_atom_site_type_symbol
_atom_site_label
_atom_site_fract_x
_atom_site_fract_y
_atom_site_fract_z
Si Si1 0.341137 0.837131 0.744879
Si Si2 0.915966 0.342190 0.500000
Si Si3 0.418252 0.500000 0.360291
Si Si4 0.582830 0.902846 0.500000
Si Si5 0.833722 0.855380 0.257147
Si Si6 0.084706 0.854119 0.500000
O O1 0.375089 0.871836 0.874020
O O2 0.376885 0.876692 0.624932
O O3 0.255152 0.863510 0.744070
O O4 0.355521 0.739317 0.730539
O O5 0.917258 0.244146 0.500000
O O6 0.000000 0.378872 0.500000
O O7 0.500000 0.500000 0.289901
O O8 0.439427 0.500000 0.500000
O O9 0.369855 0.583011 0.340544
O O10 0.500000 0.863224 0.500000
O O11 0.578090 0.000000 0.500000
O O12 0.868456 0.887118 0.384969
O O13 0.000000 0.889676 0.500000
#
# Coordination Sequence:
#
# PCOD8292100 Si02
#       6
#    16   8   8   8  16   8
#     4  10  22  40  67  91 124 166 213 266 318 374
#     4   9  18  35  61  92 116 152 205 260 315 372
#     4  11  26  41  57  91 136 172 211 257 311 385
#     4  11  25  42  62  94 128 165 210 260 322 384
#     4  10  22  39  63  91 123 164 215 257 317 374
#     4   9  17  34  59  87 120 154 202 257 305 367
#
# _framework density 20.473261999999998
#
# number of rings (size 3 to 8) (size 9 to 14) (size 15 to 20)
#    0.000    2.000    0.000    2.250    5.250    5.500 
#    0.000    1.875    0.000    2.250    0.000    0.000 
#    0.000    0.000    0.000    0.000    0.000    0.000 
#
# Total GULP energy -396647.668595 kJ/mol
# GULP energy per Si atom -12395.239644 kJ/mol
# Density = 2.042666 g / cm^3
# Si number density = 20.473262 Si / 1000 Ang^3
#
#
#
# Elastic Constant Matrix: (Units=GPa)
#
#
# Indices 1 2 3 4 5 6 
#
# 1 156.6149 48.6534 72.8989 0.0000 0.0000 0.0000
# 2 48.6534 64.7309 30.4310 0.0000 0.0000 0.0000
# 3 72.8989 30.4310 161.0703 0.0000 0.0000 0.0000
# 4 0.0000 0.0000 0.0000 25.9004 0.0000 0.0000
# 5 0.0000 0.0000 0.0000 0.0000 19.7377 0.0000
# 6 0.0000 0.0000 0.0000 0.0000 0.0000 27.6218
#
#
#
# Elastic Compliance Matrix: (Units=1/GPa)
#
#
# Indices 1 2 3 4 5 6 
#
# 1 0.009709 -0.005742 -0.003310 0.000000 0.000000 0.000000
# 2 -0.005742 0.020350 -0.001246 0.000000 0.000000 0.000000
# 3 -0.003310 -0.001246 0.007942 0.000000 0.000000 0.000000
# 4 0.000000 0.000000 0.000000 0.038609 0.000000 0.000000
# 5 0.000000 0.000000 0.000000 0.000000 0.050664 0.000000
# 6 0.000000 0.000000 0.000000 0.000000 0.000000 0.036203
#
#
# Mechanical properties :
#
#
# Convention : Reuss Voigt Hill
#
# Bulk Modulus (GPa) = 57.45060 76.26476 66.85768
# Shear Modulus (GPa) = 26.33307 30.01417 28.17362
#
# Velocity S-wave (km/s) = 3.59028 3.83302 3.71363
# Velocity P-wave (km/s) = 6.73120 7.54461 7.14948
#
# Compressibility (1/GPa) = 0.01740626
#
# Stress axis : x y z
#
# Youngs Moduli (GPa) = 102.99383 49.13979 125.91705
#
# Poissons Ratio (x) = 0.28216 0.41673
# Poissons Ratio (y) = 0.59138 0.15689
# Poissons Ratio (z) = 0.34086 0.06123
#
# Static dielectric constant tensor:
#      x y z
#    x 3.699280 0.000000 0.000000 
#    y 0.000000 3.451830 0.000000 
#    z 0.000000 0.000000 4.028130 
# 
# 
# High freq. dielectric constant tensor:
#      x y z
#    x 1.820100 0.000000 0.000000 
#    y 0.000000 1.780770 0.000000 
#    z 0.000000 0.000000 1.810270 
# 
# From -- ./inp_files/23253.got.cif
#   From: 2010.06.25/outbox.cif.g09.slc.cpg/sg71_12_cif.got.tgz:23253.got - 2010.06.28 04:59:45.
