data_PCOD8292659
_publ_section_title
;
Structure prediction by ZEFSAII (Michael W. Deem and Ramdas Pophale) SiO2 
 PCOD8292659
Probable space group: I M M M
;
_chemical_formula_sum "Si O2"
_cell_formula_units_Z 80
_cell_length_a 10.029280
_cell_length_b 17.263624
_cell_length_c 27.372086
_cell_angle_alpha 90.000000
_cell_angle_beta 90.000000
_cell_angle_gamma 90.000000
_cell_volume 4739.250020
_symmetry_space_group_name_H-M "I M M M"
_symmetry_group_IT_number 71
_symmetry_cell_setting 'orthorhombic'
loop_
_space_group_symop_operation_xyz
x,y,z
-x,-y,z
x,-y,-z
-x,y,-z
-x,-y,-z
x,y,-z
-x,y,z
x,-y,z
1/2+x,1/2+y,1/2+z
1/2-x,1/2-y,1/2+z
1/2+x,1/2-y,1/2-z
1/2-x,1/2+y,1/2-z
1/2-x,1/2-y,1/2-z
1/2+x,1/2+y,1/2-z
1/2-x,1/2+y,1/2+z
1/2+x,1/2-y,1/2+z
loop_
_atom_site_type_symbol
_atom_site_label
_atom_site_fract_x
_atom_site_fract_y
_atom_site_fract_z
Si Si1 0.851595 0.156285 0.781244
Si Si2 0.851848 0.338450 0.202187
Si Si3 0.840817 0.000000 0.054366
Si Si4 0.158006 0.683407 0.906721
Si Si5 0.840945 0.146712 0.888731
Si Si6 0.159181 0.411524 0.000000
O O1 0.858276 0.248585 0.784475
O O2 0.754483 0.123060 0.739024
O O3 0.795567 0.127945 0.833436
O O4 0.000000 0.123694 0.770555
O O5 0.803688 0.352508 0.146211
O O6 0.000000 0.374543 0.209515
O O7 0.782931 0.077327 0.078954
O O8 0.000000 0.000000 0.057040
O O9 0.786399 0.000000 0.000000
O O10 0.215376 0.771356 0.909214
O O11 0.000000 0.686662 0.911068
O O12 0.215280 0.631927 0.951439
O O13 0.000000 0.150862 0.889902
O O14 0.211591 0.500000 0.000000
O O15 0.000000 0.410385 0.000000
#
# Coordination Sequence:
#
# PCOD8292659 Si02
#       6
#    16  16   8  16  16   8
#     4   8  13  22  37  56  80 107 133 161 197 238
#     4   8  13  22  37  58  80 103 132 165 199 235
#     4   9  16  22  32  52  79 107 133 160 195 238
#     4   8  14  23  36  53  75 101 128 161 200 240
#     4   8  14  23  34  52  77 104 130 159 196 236
#     4   9  16  24  36  53  74 102 132 161 200 245
#
# _framework density 16.880307999999999
#
# number of rings (size 3 to 8) (size 9 to 14) (size 15 to 20)
#    0.000    3.800    0.000    2.400    1.400    0.000 
#    0.000    0.000    2.200    0.000    0.000    0.700 
#    0.000    2.400    0.000    0.000    0.000    0.000 
#
# Total GULP energy -495538.009027 kJ/mol
# GULP energy per Si atom -12388.450226 kJ/mol
# Density = 1.684189 g / cm^3
# Si number density = 16.880308 Si / 1000 Ang^3
#
#
#
# Elastic Constant Matrix: (Units=GPa)
#
#
# Indices 1 2 3 4 5 6 
#
# 1 32.0233 17.6856 41.6188 0.0000 0.0000 0.0000
# 2 17.6856 81.3037 70.6505 0.0000 0.0000 0.0000
# 3 41.6188 70.6505 173.1038 0.0000 0.0000 0.0000
# 4 0.0000 0.0000 0.0000 19.2011 0.0000 0.0000
# 5 0.0000 0.0000 0.0000 0.0000 19.4070 0.0000
# 6 0.0000 0.0000 0.0000 0.0000 0.0000 4.2978
#
#
#
# Elastic Compliance Matrix: (Units=1/GPa)
#
#
# Indices 1 2 3 4 5 6 
#
# 1 0.045439 -0.000606 -0.010678 0.000000 0.000000 0.000000
# 2 -0.000606 0.019067 -0.007636 0.000000 0.000000 0.000000
# 3 -0.010678 -0.007636 0.011461 0.000000 0.000000 0.000000
# 4 0.000000 0.000000 0.000000 0.052080 0.000000 0.000000
# 5 0.000000 0.000000 0.000000 0.000000 0.051528 0.000000
# 6 0.000000 0.000000 0.000000 0.000000 0.000000 0.232679
#
#
# Mechanical properties :
#
#
# Convention : Reuss Voigt Hill
#
# Bulk Modulus (GPa) = 26.22781 60.70451 43.46616
# Shear Modulus (GPa) = 10.80375 19.01291 14.90833
#
# Velocity S-wave (km/s) = 2.53261 3.35973 2.97506
# Velocity P-wave (km/s) = 4.91156 7.14774 6.13244
#
# Compressibility (1/GPa) = 0.03812747
#
# Stress axis : x y z
#
# Youngs Moduli (GPa) = 22.00769 52.44622 87.25406
#
# Poissons Ratio (x) = 0.03176 0.93166
# Poissons Ratio (y) = 0.01333 0.66631
# Poissons Ratio (z) = 0.23499 0.40050
#
# Static dielectric constant tensor:
#      x y z
#    x 2.814890 0.000000 0.000000 
#    y 0.000000 3.089800 0.000000 
#    z 0.000000 0.000000 3.534990 
# 
# 
# High freq. dielectric constant tensor:
#      x y z
#    x 1.573850 0.000000 0.000000 
#    y 0.000000 1.623570 0.000000 
#    z 0.000000 0.000000 1.665090 
# 
# From -- ./inp_files/28741.got.cif
#   From: 2010.06.25/outbox.cif.g09.slc.cpg/sg71_15_cif.got.tgz:28741.got - 2010.06.28 04:59:45.
