data_PCOD8292631
_publ_section_title
;
Structure prediction by ZEFSAII (Michael W. Deem and Ramdas Pophale) SiO2 
 PCOD8292631
Probable space group: I M M M
;
_chemical_formula_sum "Si O2"
_cell_formula_units_Z 104
_cell_length_a 23.190824
_cell_length_b 20.171969
_cell_length_c 19.455029
_cell_angle_alpha 90.000000
_cell_angle_beta 90.000000
_cell_angle_gamma 90.000000
_cell_volume 9101.151725
_symmetry_space_group_name_H-M "I M M M"
_symmetry_group_IT_number 71
_symmetry_cell_setting 'orthorhombic'
loop_
_space_group_symop_operation_xyz
x,y,z
-x,-y,z
x,-y,-z
-x,y,-z
-x,-y,-z
x,y,-z
-x,y,z
x,-y,z
1/2+x,1/2+y,1/2+z
1/2-x,1/2-y,1/2+z
1/2+x,1/2-y,1/2-z
1/2-x,1/2+y,1/2-z
1/2-x,1/2-y,1/2-z
1/2+x,1/2+y,1/2-z
1/2-x,1/2+y,1/2+z
1/2+x,1/2-y,1/2+z
loop_
_atom_site_type_symbol
_atom_site_label
_atom_site_fract_x
_atom_site_fract_y
_atom_site_fract_z
Si Si1 0.500000 0.079129 0.577487
Si Si2 0.435788 0.678227 0.918264
Si Si3 0.067874 0.423633 0.307348
Si Si4 0.216714 0.421210 0.076770
Si Si5 0.931603 0.325520 0.423859
Si Si6 0.609055 0.921217 0.660611
Si Si7 0.155729 0.925983 0.581899
O O1 0.500000 0.106214 0.500000
O O2 0.443574 0.107354 0.615612
O O3 0.500000 0.000000 0.578692
O O4 0.500000 0.664121 0.888769
O O5 0.414272 0.751941 0.897862
O O6 0.391645 0.624281 0.886980
O O7 0.437708 0.673181 0.000000
O O8 0.081096 0.500000 0.324705
O O9 0.091807 0.380024 0.370544
O O10 0.101887 0.399253 0.239653
O O11 0.000000 0.413127 0.294325
O O12 0.213070 0.500000 0.072999
O O13 0.168866 0.392902 0.129473
O O14 0.280392 0.401082 0.103745
O O15 0.205223 0.392633 0.000000
O O16 0.905683 0.339868 0.500000
O O17 0.000000 0.329709 0.428587
O O18 0.607696 0.000000 0.656547
O O19 0.152789 0.927470 0.500000
O O20 0.143209 0.000000 0.610569
#
# Coordination Sequence:
#
# PCOD8292631 Si02
#       7
#     8  16  16  16  16  16  16
#     4   9  14  18  26  40  57  77  99 123 151 178
#     4   8  13  21  32  45  60  76  95 120 148 179
#     4   9  15  22  31  43  59  76  97 128 160 183
#     4   8  13  20  29  41  58  80 103 122 140 169
#     4   8  14  23  33  44  57  75  98 122 152 188
#     4   9  14  20  28  40  58  78  99 124 152 178
#     4   8  13  20  30  45  62  78  97 120 145 172
#
# _framework density 11.427125
#
# number of rings (size 3 to 8) (size 9 to 14) (size 15 to 20)
#    0.000    3.615    0.769    2.308    0.000    2.462 
#    0.000    3.077    0.000    0.923    0.000    0.000 
#    0.000    0.000    0.000    0.000    0.000    0.000 
#
# Total GULP energy -644319.212719 kJ/mol
# GULP energy per Si atom -12390.754091 kJ/mol
# Density = 1.140112 g / cm^3
# Si number density = 11.427125 Si / 1000 Ang^3
#
#
#
# Elastic Constant Matrix: (Units=GPa)
#
#
# Indices 1 2 3 4 5 6 
#
# 1 69.7240 34.1170 35.1215 0.0000 0.0000 0.0000
# 2 34.1170 48.3252 32.7921 0.0000 0.0000 0.0000
# 3 35.1215 32.7921 60.0669 0.0000 0.0000 0.0000
# 4 0.0000 0.0000 0.0000 4.7064 0.0000 0.0000
# 5 0.0000 0.0000 0.0000 0.0000 6.9816 0.0000
# 6 0.0000 0.0000 0.0000 0.0000 0.0000 5.8119
#
#
#
# Elastic Compliance Matrix: (Units=1/GPa)
#
#
# Indices 1 2 3 4 5 6 
#
# 1 0.023896 -0.011737 -0.007564 0.000000 0.000000 0.000000
# 2 -0.011737 0.038635 -0.014229 0.000000 0.000000 0.000000
# 3 -0.007564 -0.014229 0.028839 0.000000 0.000000 0.000000
# 4 0.000000 0.000000 0.000000 0.212478 0.000000 0.000000
# 5 0.000000 0.000000 0.000000 0.000000 0.143234 0.000000
# 6 0.000000 0.000000 0.000000 0.000000 0.000000 0.172062
#
#
# Mechanical properties :
#
#
# Convention : Reuss Voigt Hill
#
# Bulk Modulus (GPa) = 41.13776 42.46415 41.80096
# Shear Modulus (GPa) = 7.20143 8.57233 7.88688
#
# Velocity S-wave (km/s) = 2.51311 2.74190 2.63000
# Velocity P-wave (km/s) = 6.67077 6.87499 6.77365
#
# Compressibility (1/GPa) = 0.02430857
#
# Stress axis : x y z
#
# Youngs Moduli (GPa) = 41.84835 25.88345 34.67524
#
# Poissons Ratio (x) = 0.30380 0.26230
# Poissons Ratio (y) = 0.49118 0.49339
# Poissons Ratio (z) = 0.31656 0.36829
#
# Static dielectric constant tensor:
#      x y z
#    x 2.547080 0.000000 0.000000 
#    y 0.000000 2.289950 0.000000 
#    z 0.000000 0.000000 2.379140 
# 
# 
# High freq. dielectric constant tensor:
#      x y z
#    x 1.419750 0.000000 0.000000 
#    y 0.000000 1.395760 0.000000 
#    z 0.000000 0.000000 1.405560 
# 
# From -- ./inp_files/39604.got.cif
#   From: 2010.06.25/outbox.cif.g09.slc.cpg/sg71_20_cif.got.tgz:39604.got - 2010.06.28 04:59:45.
