data_PCOD8292483
_publ_section_title
;
Structure prediction by ZEFSAII (Michael W. Deem and Ramdas Pophale) SiO2 
 PCOD8292483
Probable space group: I M M M
;
_chemical_formula_sum "Si O2"
_cell_formula_units_Z 80
_cell_length_a 18.240493
_cell_length_b 8.450019
_cell_length_c 25.282607
_cell_angle_alpha 90.000000
_cell_angle_beta 90.000000
_cell_angle_gamma 90.000000
_cell_volume 3896.871737
_symmetry_space_group_name_H-M "I M M M"
_symmetry_group_IT_number 71
_symmetry_cell_setting 'orthorhombic'
loop_
_space_group_symop_operation_xyz
x,y,z
-x,-y,z
x,-y,-z
-x,y,-z
-x,-y,-z
x,y,-z
-x,y,z
x,-y,z
1/2+x,1/2+y,1/2+z
1/2-x,1/2-y,1/2+z
1/2+x,1/2-y,1/2-z
1/2-x,1/2+y,1/2-z
1/2-x,1/2-y,1/2-z
1/2+x,1/2+y,1/2-z
1/2-x,1/2+y,1/2+z
1/2+x,1/2-y,1/2+z
loop_
_atom_site_type_symbol
_atom_site_label
_atom_site_fract_x
_atom_site_fract_y
_atom_site_fract_z
Si Si1 0.081857 0.812076 0.441232
Si Si2 0.662403 0.681405 0.343195
Si Si3 0.320954 0.684307 0.845602
Si Si4 0.584138 0.184029 0.560263
Si Si5 0.084656 0.317435 0.745580
O O1 0.107134 0.757964 0.500000
O O2 0.138322 0.746705 0.397703
O O3 0.000000 0.746147 0.429483
O O4 0.079622 0.000000 0.437917
O O5 0.648465 0.500000 0.328530
O O6 0.747840 0.717074 0.336762
O O7 0.637427 0.714411 0.403027
O O8 0.615222 0.790518 0.304306
O O9 0.301575 0.500000 0.852009
O O10 0.372883 0.706254 0.795235
O O11 0.600317 0.233538 0.500000
O O12 0.500000 0.220638 0.574750
O O13 0.601407 0.000000 0.568554
O O14 0.095831 0.500000 0.730097
O O15 0.000000 0.268549 0.744375
#
# Coordination Sequence:
#
# PCOD8292483 Si02
#       5
#    16  16  16  16  16
#     4   8  15  30  54  84 114 144 183 230 276 325
#     4  12  25  39  57  84 119 154 191 237 288 342
#     4  11  22  37  59  86 117 152 192 237 286 341
#     4   9  19  38  63  88 115 150 193 239 287 342
#     4  11  24  42  63  85 112 147 188 236 291 350
#
# _framework density 20.529288000000001
#
# number of rings (size 3 to 8) (size 9 to 14) (size 15 to 20)
#    0.000    1.800    0.000    6.000    0.000    6.400 
#    0.000    3.000    0.000    1.800    0.000    7.000 
#    0.000    0.000    0.000    0.000    0.000    0.000 
#
# Total GULP energy -496169.509341 kJ/mol
# GULP energy per Si atom -12404.237734 kJ/mol
# Density = 2.048256 g / cm^3
# Si number density = 20.529288 Si / 1000 Ang^3
#
#
#
# Elastic Constant Matrix: (Units=GPa)
#
#
# Indices 1 2 3 4 5 6 
#
# 1 118.8009 23.4226 50.3286 0.0000 0.0000 0.0000
# 2 23.4226 45.4580 16.0672 0.0000 0.0000 0.0000
# 3 50.3286 16.0672 111.4428 0.0000 0.0000 0.0000
# 4 0.0000 0.0000 0.0000 25.7729 0.0000 0.0000
# 5 0.0000 0.0000 0.0000 0.0000 31.3880 0.0000
# 6 0.0000 0.0000 0.0000 0.0000 0.0000 27.5771
#
#
#
# Elastic Compliance Matrix: (Units=1/GPa)
#
#
# Indices 1 2 3 4 5 6 
#
# 1 0.011109 -0.004163 -0.004417 0.000000 0.000000 0.000000
# 2 -0.004163 0.024740 -0.001687 0.000000 0.000000 0.000000
# 3 -0.004417 -0.001687 0.011211 0.000000 0.000000 0.000000
# 4 0.000000 0.000000 0.000000 0.038800 0.000000 0.000000
# 5 0.000000 0.000000 0.000000 0.000000 0.031859 0.000000
# 6 0.000000 0.000000 0.000000 0.000000 0.000000 0.036262
#
#
# Mechanical properties :
#
#
# Convention : Reuss Voigt Hill
#
# Bulk Modulus (GPa) = 37.69785 50.59315 44.14550
# Shear Modulus (GPa) = 27.26916 29.33983 28.30450
#
# Velocity S-wave (km/s) = 3.64855 3.78454 3.71716
# Velocity P-wave (km/s) = 6.01265 6.61777 6.32245
#
# Compressibility (1/GPa) = 0.02652671
#
# Stress axis : x y z
#
# Youngs Moduli (GPa) = 90.01394 40.42106 89.19720
#
# Poissons Ratio (x) = 0.16827 0.39398
# Poissons Ratio (y) = 0.37473 0.15045
# Poissons Ratio (z) = 0.39758 0.06818
#
# Static dielectric constant tensor:
#      x y z
#    x 3.752270 0.000000 0.000000 
#    y 0.000000 3.366890 0.000000 
#    z 0.000000 0.000000 3.876920 
# 
# 
# High freq. dielectric constant tensor:
#      x y z
#    x 1.806070 0.000000 0.000000 
#    y 0.000000 1.779960 0.000000 
#    z 0.000000 0.000000 1.815810 
# 
# From -- ./inp_files/63037.got.cif
#   From: 2010.06.25/outbox.cif.g09.slc.cpg/sg71_32_cif.got.tgz:63037.got - 2010.06.28 04:59:45.
