data_PCOD8292170
_publ_section_title
;
Structure prediction by ZEFSAII (Michael W. Deem and Ramdas Pophale) SiO2 
 PCOD8292170
Probable space group: I M M M
;
_chemical_formula_sum "Si O2"
_cell_formula_units_Z 64
_cell_length_a 8.914494
_cell_length_b 13.449967
_cell_length_c 26.543726
_cell_angle_alpha 90.000000
_cell_angle_beta 90.000000
_cell_angle_gamma 90.000000
_cell_volume 3182.583460
_symmetry_space_group_name_H-M "I M M M"
_symmetry_group_IT_number 71
_symmetry_cell_setting 'orthorhombic'
loop_
_space_group_symop_operation_xyz
x,y,z
-x,-y,z
x,-y,-z
-x,y,-z
-x,-y,-z
x,y,-z
-x,y,z
x,-y,z
1/2+x,1/2+y,1/2+z
1/2-x,1/2-y,1/2+z
1/2+x,1/2-y,1/2-z
1/2-x,1/2+y,1/2-z
1/2-x,1/2-y,1/2-z
1/2+x,1/2+y,1/2-z
1/2-x,1/2+y,1/2+z
1/2+x,1/2-y,1/2+z
loop_
_atom_site_type_symbol
_atom_site_label
_atom_site_fract_x
_atom_site_fract_y
_atom_site_fract_z
Si Si1 0.176896 0.112194 0.380476
Si Si2 0.330243 0.000000 0.917138
Si Si3 0.169014 0.500000 0.701518
Si Si4 0.172532 0.208249 0.942030
Si Si5 0.676499 0.347893 0.232913
O O1 0.255723 0.200714 0.410916
O O2 0.229308 0.116821 0.322256
O O3 0.000000 0.130406 0.385150
O O4 0.217843 0.000000 0.400210
O O5 0.333240 0.000000 0.857789
O O6 0.249912 0.899074 0.935097
O O7 0.500000 0.000000 0.938609
O O8 0.263989 0.410042 0.721113
O O9 0.000000 0.500000 0.723096
O O10 0.000000 0.197213 0.925384
O O11 0.186929 0.239400 0.000000
O O12 0.500000 0.342692 0.233968
O O13 0.750000 0.250000 0.250000
#
# Coordination Sequence:
#
# PCOD8292170 Si02
#       5
#    16   8   8  16  16
#     4  10  22  42  64  89 125 167 212 259 307 369
#     4  11  24  42  65  94 126 163 211 260 309 378
#     4  11  23  38  58  89 123 159 200 244 299 363
#     4  11  25  43  64  93 126 161 206 264 325 378
#     4  11  22  38  59  88 124 162 204 252 300 360
#
# _framework density 20.109449000000001
#
# number of rings (size 3 to 8) (size 9 to 14) (size 15 to 20)
#    0.000    1.250    1.250    4.125    0.000   14.500 
#    0.000    2.500    0.000    0.000    0.000    0.000 
#    0.000    0.000    0.000    0.000    0.000    0.000 
#
# Total GULP energy -396470.142077 kJ/mol
# GULP energy per Si atom -12389.691940 kJ/mol
# Density = 2.006368 g / cm^3
# Si number density = 20.109449 Si / 1000 Ang^3
#
#
#
# Elastic Constant Matrix: (Units=GPa)
#
#
# Indices 1 2 3 4 5 6 
#
# 1 109.8768 66.8663 48.7096 0.0000 0.0000 0.0000
# 2 66.8663 169.5750 37.0213 0.0000 0.0000 0.0000
# 3 48.7096 37.0213 78.4054 0.0000 0.0000 0.0000
# 4 0.0000 0.0000 0.0000 38.8857 0.0000 0.0000
# 5 0.0000 0.0000 0.0000 0.0000 34.7684 0.0000
# 6 0.0000 0.0000 0.0000 0.0000 0.0000 26.5863
#
#
#
# Elastic Compliance Matrix: (Units=1/GPa)
#
#
# Indices 1 2 3 4 5 6 
#
# 1 0.014933 -0.004307 -0.007244 0.000000 0.000000 0.000000
# 2 -0.004307 0.007817 -0.001015 0.000000 0.000000 0.000000
# 3 -0.007244 -0.001015 0.017734 0.000000 0.000000 0.000000
# 4 0.000000 0.000000 0.000000 0.025716 0.000000 0.000000
# 5 0.000000 0.000000 0.000000 0.000000 0.028762 0.000000
# 6 0.000000 0.000000 0.000000 0.000000 0.000000 0.037613
#
#
# Mechanical properties :
#
#
# Convention : Reuss Voigt Hill
#
# Bulk Modulus (GPa) = 65.13739 73.67239 69.40489
# Shear Modulus (GPa) = 30.70773 33.73206 32.21989
#
# Velocity S-wave (km/s) = 3.91196 4.10008 4.00712
# Velocity P-wave (km/s) = 7.27093 7.68957 7.48317
#
# Compressibility (1/GPa) = 0.01535216
#
# Stress axis : x y z
#
# Youngs Moduli (GPa) = 66.96390 127.92467 56.38948
#
# Poissons Ratio (x) = 0.55098 0.40847
# Poissons Ratio (y) = 0.28842 0.05725
# Poissons Ratio (z) = 0.48507 0.12988
#
# Static dielectric constant tensor:
#      x y z
#    x 3.997430 0.000000 0.000000 
#    y 0.000000 3.871670 0.000000 
#    z 0.000000 0.000000 3.739960 
# 
# 
# High freq. dielectric constant tensor:
#      x y z
#    x 1.793210 0.000000 0.000000 
#    y 0.000000 1.810090 0.000000 
#    z 0.000000 0.000000 1.790550 
# 
# From -- ./inp_files/31196.got.cif
#   From: 2010.06.25/outbox.cif.g09.slc.cpg/sg71_16_cif.got.tgz:31196.got - 2010.06.28 04:59:45.
