data_PCOD8292388
_publ_section_title
;
Structure prediction by ZEFSAII (Michael W. Deem and Ramdas Pophale) SiO2 
 PCOD8292388
Probable space group: I M M M
;
_chemical_formula_sum "Si O2"
_cell_formula_units_Z 64
_cell_length_a 9.099653
_cell_length_b 11.071974
_cell_length_c 34.803950
_cell_angle_alpha 90.000000
_cell_angle_beta 90.000000
_cell_angle_gamma 90.000000
_cell_volume 3506.536993
_symmetry_space_group_name_H-M "I M M M"
_symmetry_group_IT_number 71
_symmetry_cell_setting 'orthorhombic'
loop_
_space_group_symop_operation_xyz
x,y,z
-x,-y,z
x,-y,-z
-x,y,-z
-x,-y,-z
x,y,-z
-x,y,z
x,-y,z
1/2+x,1/2+y,1/2+z
1/2-x,1/2-y,1/2+z
1/2+x,1/2-y,1/2-z
1/2-x,1/2+y,1/2-z
1/2-x,1/2-y,1/2-z
1/2+x,1/2+y,1/2-z
1/2-x,1/2+y,1/2+z
1/2+x,1/2-y,1/2+z
loop_
_atom_site_type_symbol
_atom_site_label
_atom_site_fract_x
_atom_site_fract_y
_atom_site_fract_z
Si Si1 0.838275 0.140024 0.000000
Si Si2 0.173020 0.000000 0.457444
Si Si3 0.335120 0.638800 0.640377
Si Si4 0.326621 0.362270 0.728688
Si Si5 0.173098 0.253474 0.428656
O O1 0.749265 0.170531 0.961820
O O2 0.000000 0.202980 0.000000
O O3 0.863633 0.000000 0.000000
O O4 0.223706 0.115665 0.433659
O O5 0.245573 0.000000 0.500000
O O6 0.000000 0.000000 0.462826
O O7 0.500000 0.689553 0.634596
O O8 0.330849 0.500000 0.628090
O O9 0.284901 0.654286 0.684219
O O10 0.222433 0.710053 0.613769
O O11 0.500000 0.351066 0.735137
O O12 0.277505 0.500000 0.741720
O O13 0.250000 0.250000 0.750000
O O14 0.000000 0.272239 0.432644
#
# Coordination Sequence:
#
# PCOD8292388 Si02
#       5
#     8   8  16  16  16
#     4  11  23  36  51  74 106 139 170 215 272 319
#     4   9  18  36  54  70 102 142 172 214 272 312
#     4   9  19  37  57  78 110 145 174 215 272 324
#     4   9  19  37  60  85 115 151 188 227 277 337
#     4  11  21  35  56  78 102 136 181 223 262 316
#
# _framework density 18.251626000000002
#
# number of rings (size 3 to 8) (size 9 to 14) (size 15 to 20)
#    0.000    2.250    1.250    3.375    0.000    6.000 
#    2.250    5.625    0.000    0.000    0.000    0.000 
#    0.000    0.000    0.000    0.000    0.000    0.000 
#
# Total GULP energy -396624.596023 kJ/mol
# GULP energy per Si atom -12394.518626 kJ/mol
# Density = 1.821008 g / cm^3
# Si number density = 18.251626 Si / 1000 Ang^3
#
#
#
# Elastic Constant Matrix: (Units=GPa)
#
#
# Indices 1 2 3 4 5 6 
#
# 1 84.7286 52.2348 50.3034 0.0000 0.0000 0.0000
# 2 52.2348 128.8848 70.2579 0.0000 0.0001 0.0000
# 3 50.3034 70.2579 107.7403 0.0000 0.0001 0.0000
# 4 0.0000 0.0000 0.0000 27.0002 0.0000 0.0000
# 5 0.0000 0.0001 0.0001 0.0000 1639.0737 0.0001
# 6 0.0000 0.0000 0.0000 0.0000 0.0001 17.4296
#
#
#
# Elastic Compliance Matrix: (Units=1/GPa)
#
#
# Indices 1 2 3 4 5 6 
#
# 1 0.017638 -0.004126 -0.005544 0.000000 0.000000 0.000000
# 2 -0.004126 0.013003 -0.006553 0.000000 0.000000 0.000000
# 3 -0.005544 -0.006553 0.016144 0.000000 0.000000 0.000000
# 4 0.000000 0.000000 0.000000 0.037037 0.000000 0.000000
# 5 0.000000 0.000000 0.000000 0.000000 0.000610 0.000000
# 6 0.000000 0.000000 0.000000 0.000000 0.000000 0.057374
#
#
# Mechanical properties :
#
#
# Convention : Reuss Voigt Hill
#
# Bulk Modulus (GPa) = 69.74649 74.10509 71.92579
# Shear Modulus (GPa) = 27.92808 346.60455 187.26632
#
# Velocity S-wave (km/s) = 3.91598 13.79549 10.14028
# Velocity P-wave (km/s) = 7.66442 17.15938 13.28886
#
# Compressibility (1/GPa) = 0.01433764
#
# Stress axis : x y z
#
# Youngs Moduli (GPa) = 56.69666 76.90383 61.94408
#
# Poissons Ratio (x) = 0.31729 0.34345
# Poissons Ratio (y) = 0.23392 0.40593
# Poissons Ratio (z) = 0.31435 0.50396
#
# Static dielectric constant tensor:
#      x y z
#    x 3.288570 0.000000 0.000000 
#    y 0.000000 4.240580 0.000000 
#    z 0.000000 0.000000 3.313290 
# 
# 
# High freq. dielectric constant tensor:
#      x y z
#    x 1.700790 0.000000 0.000000 
#    y 0.000000 1.711540 0.000000 
#    z 0.000000 0.000000 1.705870 
# 
# From -- ./inp_files/3805.got.cif
#   From: 2010.06.25/outbox.cif.g09.slc.cpg/sg71_2_cif.got.tgz:3805.got - 2010.06.28 04:59:45.
