data_PCOD8292475
_publ_section_title
;
Structure prediction by ZEFSAII (Michael W. Deem and Ramdas Pophale) SiO2 
 PCOD8292475
Probable space group: I M M M
;
_chemical_formula_sum "Si O2"
_cell_formula_units_Z 72
_cell_length_a 9.572697
_cell_length_b 24.479651
_cell_length_c 15.035204
_cell_angle_alpha 90.000000
_cell_angle_beta 90.000000
_cell_angle_gamma 90.000000
_cell_volume 3523.293800
_symmetry_space_group_name_H-M "I M M M"
_symmetry_group_IT_number 71
_symmetry_cell_setting 'orthorhombic'
loop_
_space_group_symop_operation_xyz
x,y,z
-x,-y,z
x,-y,-z
-x,y,-z
-x,-y,-z
x,y,-z
-x,y,z
x,-y,z
1/2+x,1/2+y,1/2+z
1/2-x,1/2-y,1/2+z
1/2+x,1/2-y,1/2-z
1/2-x,1/2+y,1/2-z
1/2-x,1/2-y,1/2-z
1/2+x,1/2+y,1/2-z
1/2-x,1/2+y,1/2+z
1/2+x,1/2-y,1/2+z
loop_
_atom_site_type_symbol
_atom_site_label
_atom_site_fract_x
_atom_site_fract_y
_atom_site_fract_z
Si Si1 0.335492 0.709920 0.500000
Si Si2 0.000000 0.442097 0.402079
Si Si3 0.834341 0.619673 0.846092
Si Si4 0.247994 0.128601 0.846733
Si Si5 0.162652 0.500000 0.901079
Si Si6 0.000000 0.936063 0.100787
Si Si7 0.829510 0.178912 0.500000
O O1 0.500000 0.726594 0.500000
O O2 0.300592 0.678474 0.591437
O O3 0.230381 0.760378 0.500000
O O4 0.871562 0.403465 0.390233
O O5 0.000000 0.500000 0.344836
O O6 0.000000 0.464338 0.500000
O O7 0.794169 0.646967 0.751762
O O8 0.797420 0.554872 0.846686
O O9 0.732686 0.648541 0.914977
O O10 0.000000 0.629381 0.866427
O O11 0.128183 0.083760 0.840950
O O12 0.000000 0.500000 0.917553
O O13 0.233672 0.500000 0.000000
O O14 0.000000 0.000000 0.091606
O O15 0.000000 0.910083 0.000000
O O16 0.000000 0.178753 0.500000
#
# Coordination Sequence:
#
# PCOD8292475 Si02
#       7
#     8   8  16  16   8   8   8
#     4  12  26  50  72  92 133 184 225 283 344 399
#     4  11  22  36  60 100 148 186 222 271 322 396
#     4  11  24  44  70 104 139 178 220 273 335 404
#     4  12  23  40  67 101 139 179 232 268 336 404
#     4   9  18  38  70  97 134 179 221 260 322 398
#     4  11  22  40  62  94 146 194 224 269 332 400
#     4  12  30  49  73  97 126 168 233 291 340 397
#
# _framework density 20.435421999999999
#
# number of rings (size 3 to 8) (size 9 to 14) (size 15 to 20)
#    0.000    0.778    5.556    1.667    6.222    2.667 
#    0.000    1.111    0.000    0.000    0.000    0.000 
#    0.000    0.000    0.000    0.000    0.000    0.000 
#
# Total GULP energy -446035.843852 kJ/mol
# GULP energy per Si atom -12389.884551 kJ/mol
# Density = 2.038891 g / cm^3
# Si number density = 20.435422 Si / 1000 Ang^3
#
#
#
# Elastic Constant Matrix: (Units=GPa)
#
#
# Indices 1 2 3 4 5 6 
#
# 1 170.5833 56.0945 43.0658 -0.0001 0.0000 0.0000
# 2 56.0945 106.4188 47.7147 -0.0001 0.0002 0.0000
# 3 43.0658 47.7147 125.8768 -0.0010 -0.0003 0.0000
# 4 -0.0001 -0.0001 -0.0010 40.0191 0.0001 -0.0001
# 5 0.0000 0.0002 -0.0003 0.0001 76.0434 -0.0002
# 6 0.0000 0.0000 0.0000 -0.0001 -0.0002 47.6902
#
#
#
# Elastic Compliance Matrix: (Units=1/GPa)
#
#
# Indices 1 2 3 4 5 6 
#
# 1 0.007249 -0.003264 -0.001243 0.000000 0.000000 0.000000
# 2 -0.003264 0.012790 -0.003732 0.000000 0.000000 0.000000
# 3 -0.001243 -0.003732 0.009784 0.000000 0.000000 0.000000
# 4 0.000000 0.000000 0.000000 0.024988 0.000000 0.000000
# 5 0.000000 0.000000 0.000000 0.000000 0.013150 0.000000
# 6 0.000000 0.000000 0.000000 0.000000 0.000000 0.020969
#
#
# Mechanical properties :
#
#
# Convention : Reuss Voigt Hill
#
# Bulk Modulus (GPa) = 74.92463 77.40321 76.16392
# Shear Modulus (GPa) = 45.51373 49.81745 47.66559
#
# Velocity S-wave (km/s) = 4.72444 4.94276 4.83483
# Velocity P-wave (km/s) = 8.15501 8.39844 8.27762
#
# Compressibility (1/GPa) = 0.01334675
#
# Stress axis : x y z
#
# Youngs Moduli (GPa) = 137.94358 78.18348 102.20719
#
# Poissons Ratio (x) = 0.25518 0.12704
# Poissons Ratio (y) = 0.45023 0.38140
# Poissons Ratio (z) = 0.17146 0.29175
#
# Static dielectric constant tensor:
#      x y z
#    x 3.863370 0.000000 0.000000 
#    y 0.000000 3.757350 0.000000 
#    z 0.000000 0.000000 2.534440 
# 
# 
# High freq. dielectric constant tensor:
#      x y z
#    x 1.802230 0.000000 0.000000 
#    y 0.000000 1.798440 0.000000 
#    z 0.000000 0.000000 1.802470 
# 
# From -- ./inp_files/31527.got.cif
#   From: 2010.06.25/outbox.cif.g09.slc.cpg/sg71_16_cif.got.tgz:31527.got - 2010.06.28 04:59:45.
