data_PCOD8292319
_publ_section_title
;
Structure prediction by ZEFSAII (Michael W. Deem and Ramdas Pophale) SiO2 
 PCOD8292319
Probable space group: I M M M
;
_chemical_formula_sum "Si O2"
_cell_formula_units_Z 80
_cell_length_a 22.950127
_cell_length_b 15.428309
_cell_length_c 11.566345
_cell_angle_alpha 90.000000
_cell_angle_beta 90.000000
_cell_angle_gamma 90.000000
_cell_volume 4095.430533
_symmetry_space_group_name_H-M "I M M M"
_symmetry_group_IT_number 71
_symmetry_cell_setting 'orthorhombic'
loop_
_space_group_symop_operation_xyz
x,y,z
-x,-y,z
x,-y,-z
-x,y,-z
-x,-y,-z
x,y,-z
-x,y,z
x,-y,z
1/2+x,1/2+y,1/2+z
1/2-x,1/2-y,1/2+z
1/2+x,1/2-y,1/2-z
1/2-x,1/2+y,1/2-z
1/2-x,1/2-y,1/2-z
1/2+x,1/2+y,1/2-z
1/2-x,1/2+y,1/2+z
1/2+x,1/2-y,1/2+z
loop_
_atom_site_type_symbol
_atom_site_label
_atom_site_fract_x
_atom_site_fract_y
_atom_site_fract_z
Si Si1 0.136270 0.844882 0.750835
Si Si2 0.850676 0.902414 0.500000
Si Si3 0.753100 0.602062 0.633370
Si Si4 0.932352 0.500000 0.862966
Si Si5 0.286576 0.098229 0.500000
Si Si6 0.433034 0.500000 0.363756
Si Si7 0.145703 0.653405 0.214658
O O1 0.126506 0.854855 0.614015
O O2 0.203664 0.855559 0.786711
O O3 0.116083 0.747913 0.782706
O O4 0.096877 0.913556 0.817313
O O5 0.781821 0.903328 0.500000
O O6 0.875158 0.000000 0.500000
O O7 0.742281 0.626545 0.500000
O O8 0.750338 0.500000 0.654746
O O9 0.817083 0.636281 0.668866
O O10 0.905555 0.584681 0.802959
O O11 0.000000 0.500000 0.834047
O O12 0.920759 0.500000 0.000000
O O13 0.308186 0.149083 0.388694
O O14 0.311738 0.000000 0.500000
O O15 0.500000 0.500000 0.325246
O O16 0.425333 0.500000 0.500000
#
# Coordination Sequence:
#
# PCOD8292319 Si02
#       7
#    16   8  16   8   8   8  16
#     4  12  25  39  65  96 127 166 207 258 312 372
#     4  11  22  40  62  93 132 167 207 252 315 378
#     4  11  22  37  60  94 132 167 202 247 310 378
#     4  11  24  43  67  93 122 162 213 265 313 365
#     4  11  20  36  60  93 132 171 203 244 321 380
#     4  11  26  48  67  87 120 161 208 261 317 369
#     4  12  23  38  62  93 134 163 205 254 309 378
#
# _framework density 19.533965999999999
#
# number of rings (size 3 to 8) (size 9 to 14) (size 15 to 20)
#    0.000    0.600    7.000    1.200    4.200    0.800 
#    0.000    3.000    0.000    1.200    0.000    0.000 
#    0.000    0.000    0.000    0.000    0.000    0.000 
#
# Total GULP energy -496169.718519 kJ/mol
# GULP energy per Si atom -12404.242963 kJ/mol
# Density = 1.948951 g / cm^3
# Si number density = 19.533966 Si / 1000 Ang^3
#
#
#
# Elastic Constant Matrix: (Units=GPa)
#
#
# Indices 1 2 3 4 5 6 
#
# 1 106.1833 51.1806 28.8334 0.0000 0.0000 0.0000
# 2 51.1806 171.2698 48.4762 0.0000 0.0000 0.0000
# 3 28.8334 48.4762 88.8487 0.0000 0.0000 0.0000
# 4 0.0000 0.0000 0.0000 2.0670 0.0000 0.0000
# 5 0.0000 0.0000 0.0000 0.0000 37.2035 0.0000
# 6 0.0000 0.0000 0.0000 0.0000 0.0000 5.3272
#
#
#
# Elastic Compliance Matrix: (Units=1/GPa)
#
#
# Indices 1 2 3 4 5 6 
#
# 1 0.011344 -0.002777 -0.002166 0.000000 0.000000 0.000000
# 2 -0.002777 0.007585 -0.003237 0.000000 0.000000 0.000000
# 3 -0.002166 -0.003237 0.013724 0.000000 0.000000 0.000000
# 4 0.000000 0.000000 0.000000 0.483791 0.000000 0.000000
# 5 0.000000 0.000000 0.000000 0.000000 0.026879 0.000000
# 6 0.000000 0.000000 0.000000 0.000000 0.000000 0.187715
#
#
# Mechanical properties :
#
#
# Convention : Reuss Voigt Hill
#
# Bulk Modulus (GPa) = 61.37736 69.25357 65.31547
# Shear Modulus (GPa) = 6.64160 24.77364 15.70762
#
# Velocity S-wave (km/s) = 1.84592 3.56509 2.83877
# Velocity P-wave (km/s) = 6.00269 7.24406 6.65239
#
# Compressibility (1/GPa) = 0.01629265
#
# Stress axis : x y z
#
# Youngs Moduli (GPa) = 88.14904 131.84280 72.86320
#
# Poissons Ratio (x) = 0.36611 0.15786
# Poissons Ratio (y) = 0.24478 0.23587
# Poissons Ratio (z) = 0.19097 0.42679
#
# Static dielectric constant tensor:
#      x y z
#    x 3.352590 0.000000 0.000000 
#    y 0.000000 3.703900 0.000000 
#    z 0.000000 0.000000 3.738470 
# 
# 
# High freq. dielectric constant tensor:
#      x y z
#    x 1.733190 0.000000 0.000000 
#    y 0.000000 1.772140 0.000000 
#    z 0.000000 0.000000 1.769420 
# 
# From -- ./inp_files/27182.got.cif
#   From: 2010.06.25/outbox.cif.g09.slc.cpg/sg71_14_cif.got.tgz:27182.got - 2010.06.28 04:59:45.
