data_PCOD8292320
_publ_section_title
;
Structure prediction by ZEFSAII (Michael W. Deem and Ramdas Pophale) SiO2 
 PCOD8292320
Probable space group: I M M M
;
_chemical_formula_sum "Si O2"
_cell_formula_units_Z 88
_cell_length_a 16.958814
_cell_length_b 14.399364
_cell_length_c 17.938042
_cell_angle_alpha 90.000000
_cell_angle_beta 90.000000
_cell_angle_gamma 90.000000
_cell_volume 4380.400540
_symmetry_space_group_name_H-M "I M M M"
_symmetry_group_IT_number 71
_symmetry_cell_setting 'orthorhombic'
loop_
_space_group_symop_operation_xyz
x,y,z
-x,-y,z
x,-y,-z
-x,y,-z
-x,-y,-z
x,y,-z
-x,y,z
x,-y,z
1/2+x,1/2+y,1/2+z
1/2-x,1/2-y,1/2+z
1/2+x,1/2-y,1/2-z
1/2-x,1/2+y,1/2-z
1/2-x,1/2-y,1/2-z
1/2+x,1/2+y,1/2-z
1/2-x,1/2+y,1/2+z
1/2+x,1/2-y,1/2+z
loop_
_atom_site_type_symbol
_atom_site_label
_atom_site_fract_x
_atom_site_fract_y
_atom_site_fract_z
Si Si1 0.500000 0.100878 0.084671
Si Si2 0.817834 0.897181 0.305937
Si Si3 0.500000 0.890195 0.583001
Si Si4 0.864614 0.606088 0.806886
Si Si5 0.139540 0.703905 0.653667
Si Si6 0.588415 0.390106 0.500000
Si Si7 0.199681 0.106518 0.866378
O O1 0.575865 0.162787 0.099114
O O2 0.500000 0.000000 0.127477
O O3 0.500000 0.075033 0.000000
O O4 0.726562 0.885413 0.329149
O O5 0.865284 0.816380 0.348245
O O6 0.832009 0.884281 0.217617
O O7 0.847611 0.000000 0.330249
O O8 0.500000 0.845392 0.500000
O O9 0.420777 0.858329 0.626331
O O10 0.500000 0.000000 0.575435
O O11 0.884974 0.500000 0.785235
O O12 0.881169 0.670192 0.736393
O O13 0.224224 0.670662 0.624716
O O14 0.581604 0.500000 0.500000
O O15 0.500000 0.346778 0.500000
O O16 0.634176 0.357980 0.574892
O O17 0.224108 0.000000 0.882866
#
# Coordination Sequence:
#
# PCOD8292320 Si02
#       7
#     8  16   8  16  16   8  16
#     4  11  25  41  60  93 122 138 174 236 306 369
#     4   9  19  36  59  82 107 148 206 251 279 333
#     4   9  17  29  49  80 120 160 192 230 287 346
#     4   9  16  29  54  85 116 150 193 241 292 345
#     4  11  20  36  61  82 116 150 193 240 297 347
#     4   9  18  32  52  85 128 162 187 223 286 362
#     4   9  17  31  57  88 118 155 193 236 293 350
#
# _framework density 20.089486999999998
#
# number of rings (size 3 to 8) (size 9 to 14) (size 15 to 20)
#    0.000    2.455    0.000    5.455    1.273    0.727 
#    1.636    1.364    8.000    2.182    0.000    0.000 
#    0.000    0.000    0.000    0.000    0.000    0.000 
#
# Total GULP energy -545414.623478 kJ/mol
# GULP energy per Si atom -12395.786897 kJ/mol
# Density = 2.004376 g / cm^3
# Si number density = 20.089487 Si / 1000 Ang^3
#
#
#
# Elastic Constant Matrix: (Units=GPa)
#
#
# Indices 1 2 3 4 5 6 
#
# 1 98.5504 49.8828 67.8033 0.0000 0.0000 0.0000
# 2 49.8828 135.7589 34.3029 0.0000 0.0000 0.0000
# 3 67.8033 34.3029 89.9800 0.0000 0.0000 0.0000
# 4 0.0000 0.0000 0.0000 4.9529 0.0000 0.0000
# 5 0.0000 0.0000 0.0000 0.0000 21.1720 0.0000
# 6 0.0000 0.0000 0.0000 0.0000 0.0000 51.2365
#
#
#
# Elastic Compliance Matrix: (Units=1/GPa)
#
#
# Indices 1 2 3 4 5 6 
#
# 1 0.023392 -0.004583 -0.015880 0.000000 0.000000 0.000000
# 2 -0.004583 0.009049 0.000004 0.000000 0.000000 0.000000
# 3 -0.015880 0.000004 0.023078 0.000000 0.000000 0.000000
# 4 0.000000 0.000000 0.000000 0.201901 0.000000 0.000000
# 5 0.000000 0.000000 0.000000 0.000000 0.047232 0.000000
# 6 0.000000 0.000000 0.000000 0.000000 0.000000 0.019517
#
#
# Mechanical properties :
#
#
# Convention : Reuss Voigt Hill
#
# Bulk Modulus (GPa) = 68.48658 69.80748 69.14703
# Shear Modulus (GPa) = 13.51518 26.95898 20.23708
#
# Velocity S-wave (km/s) = 2.59655 3.66723 3.17732
# Velocity P-wave (km/s) = 6.56919 7.26327 6.92493
#
# Compressibility (1/GPa) = 0.01460140
#
# Stress axis : x y z
#
# Youngs Moduli (GPa) = 42.74966 110.50991 43.33102
#
# Poissons Ratio (x) = 0.50643 0.68808
# Poissons Ratio (y) = 0.19591 -0.00015
# Poissons Ratio (z) = 0.67885 -0.00039
#
# Static dielectric constant tensor:
#      x y z
#    x 3.640670 0.000000 0.000000 
#    y 0.000000 3.718110 0.000000 
#    z 0.000000 0.000000 3.534540 
# 
# 
# High freq. dielectric constant tensor:
#      x y z
#    x 1.768050 0.000000 0.000000 
#    y 0.000000 1.786890 0.000000 
#    z 0.000000 0.000000 1.759300 
# 
# From -- ./inp_files/45885.got.cif
#   From: 2010.06.25/outbox.cif.g09.slc.cpg/sg71_23_cif.got.tgz:45885.got - 2010.06.28 04:59:45.
