data_PCOD8292142
_publ_section_title
;
Structure prediction by ZEFSAII (Michael W. Deem and Ramdas Pophale) SiO2 
 PCOD8292142
Probable space group: I M M M
;
_chemical_formula_sum "Si O2"
_cell_formula_units_Z 112
_cell_length_a 17.677623
_cell_length_b 14.694781
_cell_length_c 22.009431
_cell_angle_alpha 90.000000
_cell_angle_beta 90.000000
_cell_angle_gamma 90.000000
_cell_volume 5717.363448
_symmetry_space_group_name_H-M "I M M M"
_symmetry_group_IT_number 71
_symmetry_cell_setting 'orthorhombic'
loop_
_space_group_symop_operation_xyz
x,y,z
-x,-y,z
x,-y,-z
-x,y,-z
-x,-y,-z
x,y,-z
-x,y,z
x,-y,z
1/2+x,1/2+y,1/2+z
1/2-x,1/2-y,1/2+z
1/2+x,1/2-y,1/2-z
1/2-x,1/2+y,1/2-z
1/2-x,1/2-y,1/2-z
1/2+x,1/2+y,1/2-z
1/2-x,1/2+y,1/2+z
1/2+x,1/2-y,1/2+z
loop_
_atom_site_type_symbol
_atom_site_label
_atom_site_fract_x
_atom_site_fract_y
_atom_site_fract_z
Si Si1 0.411949 0.280138 0.752788
Si Si2 0.415344 0.360155 0.930959
Si Si3 0.687507 0.599107 0.172869
Si Si4 0.083986 0.668204 0.370619
Si Si5 0.314518 0.235901 0.361580
Si Si6 0.229289 0.602546 0.571120
Si Si7 0.416500 0.100601 0.428536
O O1 0.500000 0.299933 0.744572
O O2 0.373632 0.372687 0.776608
O O3 0.398434 0.198428 0.801196
O O4 0.377183 0.257343 0.688104
O O5 0.500000 0.398265 0.919743
O O6 0.354653 0.413999 0.891316
O O7 0.412777 0.254542 0.914559
O O8 0.390414 0.373758 0.000000
O O9 0.722342 0.500000 0.190004
O O10 0.748658 0.679244 0.170951
O O11 0.147280 0.600043 0.395991
O O12 0.000000 0.623337 0.373867
O O13 0.283703 0.326640 0.394142
O O14 0.353380 0.173092 0.411519
O O15 0.222245 0.629552 0.500000
O O16 0.262405 0.500000 0.577141
O O17 0.420499 0.097294 0.500000
O O18 0.500000 0.127078 0.402975
O O19 0.394130 0.000000 0.403544
#
# Coordination Sequence:
#
# PCOD8292142 Si02
#       7
#    16  16  16  16  16  16  16
#     4  10  22  41  62  85 112 152 203 243 288 354
#     4   9  17  31  53  80 113 153 191 228 276 341
#     4  11  23  36  56  87 121 153 188 235 298 363
#     4   9  18  36  60  83 112 150 193 243 296 352
#     4  12  22  39  61  88 119 160 192 250 302 358
#     4  11  24  39  58  86 120 160 208 258 305 353
#     4   9  19  37  62  92 123 155 193 237 290 355
#
# _framework density 19.589449999999999
#
# number of rings (size 3 to 8) (size 9 to 14) (size 15 to 20)
#    0.000    1.857    2.857    3.857    0.000    3.714 
#    0.000    2.143    0.000    3.000    0.000    5.000 
#    0.000    0.000    0.000    0.000    0.000    0.000 
#
# Total GULP energy -694143.728588 kJ/mol
# GULP energy per Si atom -12395.423725 kJ/mol
# Density = 1.954486 g / cm^3
# Si number density = 19.589450 Si / 1000 Ang^3
#
#
#
# Elastic Constant Matrix: (Units=GPa)
#
#
# Indices 1 2 3 4 5 6 
#
# 1 100.8084 49.3023 33.6711 0.0000 0.0000 0.0000
# 2 49.3023 110.0197 31.2392 0.0000 0.0000 0.0000
# 3 33.6711 31.2392 71.1588 0.0000 0.0000 0.0000
# 4 0.0000 0.0000 0.0000 7.2259 0.0000 0.0000
# 5 0.0000 0.0000 0.0000 0.0000 29.0924 0.0000
# 6 0.0000 0.0000 0.0000 0.0000 0.0000 2.1668
#
#
#
# Elastic Compliance Matrix: (Units=1/GPa)
#
#
# Indices 1 2 3 4 5 6 
#
# 1 0.013793 -0.004944 -0.004356 0.000000 0.000000 0.000000
# 2 -0.004944 0.012156 -0.002997 0.000000 0.000000 0.000000
# 3 -0.004356 -0.002997 0.017430 0.000000 0.000000 0.000000
# 4 0.000000 0.000000 0.000000 0.138392 0.000000 0.000000
# 5 0.000000 0.000000 0.000000 0.000000 0.034373 0.000000
# 6 0.000000 0.000000 0.000000 0.000000 0.000000 0.461521
#
#
# Mechanical properties :
#
#
# Convention : Reuss Voigt Hill
#
# Bulk Modulus (GPa) = 53.23578 56.71244 54.97411
# Shear Modulus (GPa) = 7.05697 18.88196 12.96946
#
# Velocity S-wave (km/s) = 1.90007 3.10802 2.57585
# Velocity P-wave (km/s) = 5.66113 6.47248 6.08036
#
# Compressibility (1/GPa) = 0.01878436
#
# Stress axis : x y z
#
# Youngs Moduli (GPa) = 72.50211 82.26542 57.37237
#
# Poissons Ratio (x) = 0.40672 0.24992
# Poissons Ratio (y) = 0.35845 0.17195
# Poissons Ratio (z) = 0.31582 0.24656
#
# Static dielectric constant tensor:
#      x y z
#    x 3.702620 0.000000 0.000000 
#    y 0.000000 3.436200 0.000000 
#    z 0.000000 0.000000 3.494490 
# 
# 
# High freq. dielectric constant tensor:
#      x y z
#    x 1.765590 0.000000 0.000000 
#    y 0.000000 1.749120 0.000000 
#    z 0.000000 0.000000 1.758150 
# 
# From -- ./inp_files/59909.got.cif
#   From: 2010.06.25/outbox.cif.g09.slc.cpg/sg71_30_cif.got.tgz:59909.got - 2010.06.28 04:59:45.
