data_PCOD8292696
_publ_section_title
;
Structure prediction by ZEFSAII (Michael W. Deem and Ramdas Pophale) SiO2 
 PCOD8292696
Probable space group: I M M M
;
_chemical_formula_sum "Si O2"
_cell_formula_units_Z 88
_cell_length_a 30.090230
_cell_length_b 17.554839
_cell_length_c 9.099475
_cell_angle_alpha 90.000000
_cell_angle_beta 90.000000
_cell_angle_gamma 90.000000
_cell_volume 4806.607882
_symmetry_space_group_name_H-M "I M M M"
_symmetry_group_IT_number 71
_symmetry_cell_setting 'orthorhombic'
loop_
_space_group_symop_operation_xyz
x,y,z
-x,-y,z
x,-y,-z
-x,y,-z
-x,-y,-z
x,y,-z
-x,y,z
x,-y,z
1/2+x,1/2+y,1/2+z
1/2-x,1/2-y,1/2+z
1/2+x,1/2-y,1/2-z
1/2-x,1/2+y,1/2-z
1/2-x,1/2-y,1/2-z
1/2+x,1/2+y,1/2-z
1/2-x,1/2+y,1/2+z
1/2+x,1/2-y,1/2+z
loop_
_atom_site_type_symbol
_atom_site_label
_atom_site_fract_x
_atom_site_fract_y
_atom_site_fract_z
Si Si1 0.121497 0.872627 0.173313
Si Si2 0.051381 0.000000 0.826267
Si Si3 0.789417 0.854219 0.334019
Si Si4 0.380802 0.801431 0.672803
Si Si5 0.205344 0.327211 0.334802
Si Si6 0.951139 0.582951 0.174385
O O1 0.167318 0.892491 0.257728
O O2 0.109956 0.785966 0.216132
O O3 0.080063 0.925840 0.224644
O O4 0.130175 0.882983 0.000000
O O5 0.000000 0.000000 0.762261
O O6 0.047142 0.000000 0.000000
O O7 0.786249 0.886252 0.500000
O O8 0.789544 0.763403 0.335133
O O9 0.745508 0.874331 0.240585
O O10 0.374202 0.808761 0.500000
O O11 0.338850 0.842869 0.744029
O O12 0.421879 0.848710 0.737177
O O13 0.201121 0.358231 0.500000
O O14 0.931880 0.500000 0.219706
O O15 0.000000 0.593075 0.241977
O O16 0.953384 0.588962 0.000000
#
# Coordination Sequence:
#
# PCOD8292696 Si02
#       6
#    16   8  16  16  16  16
#     4   9  17  29  46  68  93 122 156 194 235 278
#     4   9  18  32  49  69  95 127 161 201 248 289
#     4   9  16  27  45  68  93 120 152 189 228 276
#     4   9  16  26  44  70  95 120 155 195 231 273
#     4   9  16  26  43  68  96 123 150 184 229 277
#     4   8  14  25  42  65  92 120 149 185 229 270
#
# _framework density 18.308129000000001
#
# number of rings (size 3 to 8) (size 9 to 14) (size 15 to 20)
#    0.000    3.182    0.000    1.636    0.000    5.091 
#    0.000    4.091    2.000    2.182    0.000    6.364 
#    0.000    0.000    0.000    0.000    0.000    0.000 
#
# Total GULP energy -545138.784968 kJ/mol
# GULP energy per Si atom -12389.517840 kJ/mol
# Density = 1.826646 g / cm^3
# Si number density = 18.308129 Si / 1000 Ang^3
#
#
#
# Elastic Constant Matrix: (Units=GPa)
#
#
# Indices 1 2 3 4 5 6 
#
# 1 160.6612 74.0869 43.9392 0.0000 0.0000 0.0000
# 2 74.0869 74.6356 25.7713 0.0000 0.0000 0.0000
# 3 43.9392 25.7713 58.0286 0.0000 0.0000 0.0000
# 4 0.0000 0.0000 0.0000 7.6955 0.0000 0.0000
# 5 0.0000 0.0000 0.0000 0.0000 22.4255 0.0000
# 6 0.0000 0.0000 0.0000 0.0000 0.0000 24.3422
#
#
#
# Elastic Compliance Matrix: (Units=1/GPa)
#
#
# Indices 1 2 3 4 5 6 
#
# 1 0.012460 -0.010760 -0.004656 0.000000 0.000000 0.000000
# 2 -0.010760 0.025118 -0.003008 0.000000 0.000000 0.000000
# 3 -0.004656 -0.003008 0.022094 0.000000 0.000000 0.000000
# 4 0.000000 0.000000 0.000000 0.129946 0.000000 0.000000
# 5 0.000000 0.000000 0.000000 0.000000 0.044592 0.000000
# 6 0.000000 0.000000 0.000000 0.000000 0.000000 0.041081
#
#
# Mechanical properties :
#
#
# Convention : Reuss Voigt Hill
#
# Bulk Modulus (GPa) = 43.81255 64.54670 54.17962
# Shear Modulus (GPa) = 15.63742 20.86116 18.24929
#
# Velocity S-wave (km/s) = 2.92571 3.37923 3.16062
# Velocity P-wave (km/s) = 5.94942 7.11041 6.55567
#
# Compressibility (1/GPa) = 0.02282451
#
# Stress axis : x y z
#
# Youngs Moduli (GPa) = 80.25967 39.81166 45.26166
#
# Poissons Ratio (x) = 0.42839 0.21072
# Poissons Ratio (y) = 0.86363 0.13613
# Poissons Ratio (z) = 0.37365 0.11974
#
# Static dielectric constant tensor:
#      x y z
#    x 3.737470 0.000000 0.000000 
#    y 0.000000 3.230540 0.000000 
#    z 0.000000 0.000000 3.170720 
# 
# 
# High freq. dielectric constant tensor:
#      x y z
#    x 1.715670 0.000000 0.000000 
#    y 0.000000 1.681380 0.000000 
#    z 0.000000 0.000000 1.679770 
# 
# From -- ./inp_files/16653.got.cif
#   From: 2010.06.25/outbox.cif.g09.slc.cpg/sg71_9_cif.got.tgz:16653.got - 2010.06.28 04:59:45.
