data_PCOD8292542
_publ_section_title
;
Structure prediction by ZEFSAII (Michael W. Deem and Ramdas Pophale) SiO2 
 PCOD8292542
Probable space group: I M M M
;
_chemical_formula_sum "Si O2"
_cell_formula_units_Z 88
_cell_length_a 17.506407
_cell_length_b 29.018240
_cell_length_c 8.737997
_cell_angle_alpha 90.000000
_cell_angle_beta 90.000000
_cell_angle_gamma 90.000000
_cell_volume 4438.947213
_symmetry_space_group_name_H-M "I M M M"
_symmetry_group_IT_number 71
_symmetry_cell_setting 'orthorhombic'
loop_
_space_group_symop_operation_xyz
x,y,z
-x,-y,z
x,-y,-z
-x,y,-z
-x,-y,-z
x,y,-z
-x,y,z
x,-y,z
1/2+x,1/2+y,1/2+z
1/2-x,1/2-y,1/2+z
1/2+x,1/2-y,1/2-z
1/2-x,1/2+y,1/2-z
1/2-x,1/2-y,1/2-z
1/2+x,1/2+y,1/2-z
1/2-x,1/2+y,1/2+z
1/2+x,1/2-y,1/2+z
loop_
_atom_site_type_symbol
_atom_site_label
_atom_site_fract_x
_atom_site_fract_y
_atom_site_fract_z
Si Si1 0.588549 0.205049 0.178164
Si Si2 0.640708 0.604690 0.678885
Si Si3 0.589158 0.894762 0.819023
Si Si4 0.500000 0.551822 0.819119
Si Si5 0.720989 0.946603 0.677859
Si Si6 0.089784 0.195431 0.319413
O O1 0.500000 0.204952 0.214343
O O2 0.620128 0.155930 0.240128
O O3 0.620159 0.254139 0.241515
O O4 0.603717 0.205544 0.000000
O O5 0.626692 0.600491 0.500000
O O6 0.575403 0.577076 0.765098
O O7 0.722110 0.583757 0.721442
O O8 0.638787 0.658001 0.728263
O O9 0.500000 0.901114 0.780463
O O10 0.635139 0.933479 0.726999
O O11 0.602747 0.900107 0.000000
O O12 0.500000 0.500000 0.753958
O O13 0.500000 0.551917 0.000000
O O14 0.734013 0.936130 0.500000
O O15 0.734994 0.000000 0.714290
O O16 0.103949 0.189858 0.500000
O O17 0.000000 0.188950 0.283490
#
# Coordination Sequence:
#
# PCOD8292542 Si02
#       6
#    16  16  16   8  16  16
#     4   7  12  26  52  85 115 147 185 223 270 329
#     4  12  24  37  56  84 116 148 190 241 289 334
#     4   9  18  36  63  92 119 145 182 232 285 342
#     4  11  23  39  59  81 109 149 195 237 282 341
#     4  11  25  43  60  79 109 150 194 239 289 345
#     4   9  16  30  55  83 115 155 193 226 270 331
#
# _framework density 19.824521000000001
#
# number of rings (size 3 to 8) (size 9 to 14) (size 15 to 20)
#    0.000    2.273    0.909    5.182    0.000    5.091 
#    0.000    3.636    0.000    3.273    0.000    0.000 
#    0.000    0.000    0.000    0.000    0.000    0.000 
#
# Total GULP energy -545245.046908 kJ/mol
# GULP energy per Si atom -12391.932884 kJ/mol
# Density = 1.977940 g / cm^3
# Si number density = 19.824521 Si / 1000 Ang^3
#
#
#
# Elastic Constant Matrix: (Units=GPa)
#
#
# Indices 1 2 3 4 5 6 
#
# 1 63.2965 24.3355 13.2905 -0.0007 -0.0004 -0.0128
# 2 24.3355 70.2671 25.2976 -0.0011 -0.0027 0.0284
# 3 13.2905 25.2976 50.6185 -0.0123 -0.0037 -0.0056
# 4 -0.0007 -0.0011 -0.0123 22.1797 -0.0011 0.0163
# 5 -0.0004 -0.0027 -0.0037 -0.0011 25.3565 -0.0158
# 6 -0.0128 0.0284 -0.0056 0.0163 -0.0158 308.3222
#
#
#
# Elastic Compliance Matrix: (Units=1/GPa)
#
#
# Indices 1 2 3 4 5 6 
#
# 1 0.018391 -0.005647 -0.002007 -0.000001 -0.000001 0.000001
# 2 -0.005647 0.019088 -0.008057 -0.000004 0.000001 -0.000002
# 3 -0.002007 -0.008057 0.024309 0.000013 0.000003 0.000001
# 4 -0.000001 -0.000004 0.000013 0.045086 0.000002 -0.000002
# 5 -0.000001 0.000001 0.000003 0.000002 0.039438 0.000002
# 6 0.000001 -0.000002 0.000001 -0.000002 0.000002 0.003243
#
#
# Mechanical properties :
#
#
# Convention : Reuss Voigt Hill
#
# Bulk Modulus (GPa) = 32.93038 34.44772 33.68905
# Shear Modulus (GPa) = 26.16456 79.25558 52.71007
#
# Velocity S-wave (km/s) = 3.63686 6.32972 5.16198
# Velocity P-wave (km/s) = 5.85514 8.41632 7.24973
#
# Compressibility (1/GPa) = 0.03036710
#
# Stress axis : x y z
#
# Youngs Moduli (GPa) = 54.37421 52.38971 41.13691
#
# Poissons Ratio (x) = 0.29584 0.08255
# Poissons Ratio (y) = 0.30705 0.33143
# Poissons Ratio (z) = 0.10911 0.42209
#
# Static dielectric constant tensor:
#      x y z
#    x 3.639840 0.000000 0.000000 
#    y 0.000000 4.207560 0.000000 
#    z 0.000000 0.000000 3.325110 
# 
# 
# High freq. dielectric constant tensor:
#      x y z
#    x 1.747100 0.000000 0.000000 
#    y 0.000000 1.798800 0.000000 
#    z 0.000000 0.000000 1.749060 
# 
# From -- ./inp_files/8725.got.cif
#   From: 2010.06.25/outbox.cif.g09.slc.cpg/sg71_5_cif.got.tgz:8725.got - 2010.06.28 04:59:45.
