data_PCOD8292958
_publ_section_title
;
Structure prediction by ZEFSAII (Michael W. Deem and Ramdas Pophale) SiO2 
 PCOD8292958
Probable space group: I B A M
;
_chemical_formula_sum "Si O2"
_cell_formula_units_Z 80
_cell_length_a 23.626784
_cell_length_b 9.632346
_cell_length_c 13.471835
_cell_angle_alpha 90.000000
_cell_angle_beta 90.000000
_cell_angle_gamma 90.000000
_cell_volume 3065.938509
_symmetry_space_group_name_H-M "I B A M"
_symmetry_group_IT_number 72
_symmetry_cell_setting 'orthorhombic'
loop_
_space_group_symop_operation_xyz
x,y,z
-x,-y,z
x,-y,1/2-z
-x,y,1/2-z
-x,-y,-z
x,y,-z
-x,y,1/2+z
x,-y,1/2+z
1/2+x,1/2+y,1/2+z
1/2-x,1/2-y,1/2+z
1/2+x,1/2-y,-z
1/2-x,1/2+y,-z
1/2-x,1/2-y,1/2-z
1/2+x,1/2+y,1/2-z
1/2-x,1/2+y,z
1/2+x,1/2-y,z
loop_
_atom_site_type_symbol
_atom_site_label
_atom_site_fract_x
_atom_site_fract_y
_atom_site_fract_z
Si Si1 0.084864 0.285707 0.304123
Si Si2 0.203813 0.255654 0.618647
Si Si3 0.924807 0.004991 0.611368
Si Si4 0.801585 0.947112 0.113909
Si Si5 0.529156 0.790793 0.608992
O O1 0.146401 0.330683 0.341878
O O2 0.073764 0.341670 0.192146
O O3 0.034075 0.349708 0.371943
O O4 0.075639 0.117499 0.307014
O O5 0.200567 0.252140 0.500000
O O6 0.206396 0.099610 0.662810
O O7 0.258643 0.335291 0.661720
O O8 0.921304 0.937220 0.500000
O O9 0.975379 0.119367 0.615938
O O10 0.866995 0.097674 0.627023
O O11 0.783396 0.957843 0.000000
O O12 0.550225 0.836926 0.500000
#
# Coordination Sequence:
#
# PCOD8292958 Si02
#       5
#    16  16  16  16  16
#     4  10  18  28  45  70 100 136 172 213 268 323
#     4   9  16  29  49  76 108 140 176 220 269 320
#     4   9  16  27  43  66  98 134 170 210 259 317
#     4   8  15  27  46  72 104 140 176 217 266 319
#     4  10  19  29  43  67 101 136 171 215 269 324
#
# _framework density 26.093152
#
# number of rings (size 3 to 8) (size 9 to 14) (size 15 to 20)
#    0.000    2.800    0.000    4.200    0.000    3.200 
#    0.000    1.000    0.000    0.000    0.000    7.000 
#    0.000   38.400    0.000   18.800    0.000    2.800 
#
# Total GULP energy -495782.799022 kJ/mol
# GULP energy per Si atom -12394.569976 kJ/mol
# Density = 2.603376 g / cm^3
# Si number density = 26.093152 Si / 1000 Ang^3
#
#
#
# Elastic Constant Matrix: (Units=GPa)
#
#
# Indices 1 2 3 4 5 6 
#
# 1 120.5937 27.9223 24.1589 0.0000 0.0000 0.0000
# 2 27.9223 15.1151 11.8930 0.0000 0.0000 0.0000
# 3 24.1589 11.8930 91.9073 0.0000 0.0000 0.0000
# 4 0.0000 0.0000 0.0000 14.5914 0.0000 0.0000
# 5 0.0000 0.0000 0.0000 0.0000 36.1253 0.0000
# 6 0.0000 0.0000 0.0000 0.0000 0.0000 25.0896
#
#
#
# Elastic Compliance Matrix: (Units=1/GPa)
#
#
# Indices 1 2 3 4 5 6 
#
# 1 0.014502 -0.026488 -0.000385 0.000000 0.000000 0.000000
# 2 -0.026488 0.122038 -0.008829 0.000000 0.000000 0.000000
# 3 -0.000385 -0.008829 0.012124 0.000000 0.000000 0.000000
# 4 0.000000 0.000000 0.000000 0.068534 0.000000 0.000000
# 5 0.000000 0.000000 0.000000 0.000000 0.027681 0.000000
# 6 0.000000 0.000000 0.000000 0.000000 0.000000 0.039857
#
#
# Mechanical properties :
#
#
# Convention : Reuss Voigt Hill
#
# Bulk Modulus (GPa) = 12.94314 39.50716 26.22515
# Shear Modulus (GPa) = 13.09263 26.07071 19.58167
#
# Velocity S-wave (km/s) = 2.24244 3.16435 2.74241
# Velocity P-wave (km/s) = 3.41699 5.34083 4.48332
#
# Compressibility (1/GPa) = 0.07726098
#
# Stress axis : x y z
#
# Youngs Moduli (GPa) = 68.95423 8.19416 82.48001
#
# Poissons Ratio (x) = 0.21705 0.03171
# Poissons Ratio (y) = 1.82646 0.72825
# Poissons Ratio (z) = 0.02651 0.07235
#
# Static dielectric constant tensor:
#      x y z
#    x 4.767530 0.000000 0.000000 
#    y 0.000000 4.203790 0.000000 
#    z 0.000000 0.000000 4.595790 
# 
# 
# High freq. dielectric constant tensor:
#      x y z
#    x 2.049850 0.000000 0.000000 
#    y 0.000000 1.984410 0.000000 
#    z 0.000000 0.000000 2.061370 
# 
# From -- ./inp_files/24892.got.cif
#   From: 2010.03.12/outbox.cif.g09.slc.cpg/sg72_13_cif.got.tgz:24892.got - 2010.04.16 14:54:00.
