data_PCOD8292270
_publ_section_title
;
Structure prediction by ZEFSAII (Michael W. Deem and Ramdas Pophale) SiO2 
 PCOD8292270
Probable space group: I M M M
;
_chemical_formula_sum "Si O2"
_cell_formula_units_Z 80
_cell_length_a 28.070525
_cell_length_b 23.100069
_cell_length_c 9.084953
_cell_angle_alpha 90.000000
_cell_angle_beta 90.000000
_cell_angle_gamma 90.000000
_cell_volume 5890.965744
_symmetry_space_group_name_H-M "I M M M"
_symmetry_group_IT_number 71
_symmetry_cell_setting 'orthorhombic'
loop_
_space_group_symop_operation_xyz
x,y,z
-x,-y,z
x,-y,-z
-x,y,-z
-x,-y,-z
x,y,-z
-x,y,z
x,-y,z
1/2+x,1/2+y,1/2+z
1/2-x,1/2-y,1/2+z
1/2+x,1/2-y,1/2-z
1/2-x,1/2+y,1/2-z
1/2-x,1/2-y,1/2-z
1/2+x,1/2+y,1/2-z
1/2-x,1/2+y,1/2+z
1/2+x,1/2-y,1/2+z
loop_
_atom_site_type_symbol
_atom_site_label
_atom_site_fract_x
_atom_site_fract_y
_atom_site_fract_z
Si Si1 0.278025 0.065888 0.172252
Si Si2 0.445007 0.066813 0.831308
Si Si3 0.863025 0.628373 0.174326
Si Si4 0.279966 0.670961 0.337144
Si Si5 0.178592 0.267451 0.663846
O O1 0.324425 0.083344 0.263604
O O2 0.232567 0.105722 0.217133
O O3 0.264358 0.000000 0.207804
O O4 0.290036 0.075404 0.000000
O O5 0.500000 0.082452 0.806580
O O6 0.414962 0.106918 0.722326
O O7 0.435470 0.000000 0.792374
O O8 0.430109 0.078831 0.000000
O O9 0.855535 0.693004 0.236628
O O10 0.858913 0.630565 0.000000
O O11 0.302614 0.669778 0.500000
O O12 0.230581 0.705234 0.340483
O O13 0.317592 0.702530 0.230455
O O14 0.157045 0.262766 0.500000
#
# Coordination Sequence:
#
# PCOD8292270 Si02
#       5
#    16  16  16  16  16
#     4   9  17  28  40  53  72  99 126 150 180 220
#     4   9  18  32  46  56  69  93 122 150 184 227
#     4  11  20  27  38  56  75  93 118 155 191 219
#     4   8  14  24  37  53  71  90 116 150 182 211
#     4   9  16  26  39  52  68  92 119 147 181 220
#
# _framework density 13.580116
#
# number of rings (size 3 to 8) (size 9 to 14) (size 15 to 20)
#    0.000    2.800    0.000    4.800    0.000    8.400 
#    0.000    1.000    0.000    0.000    0.000    0.000 
#    0.000    0.000    0.000    0.000    0.000    1.000 
#
# Total GULP energy -495851.732093 kJ/mol
# GULP energy per Si atom -12396.293302 kJ/mol
# Density = 1.354921 g / cm^3
# Si number density = 13.580116 Si / 1000 Ang^3
#
#
#
# Elastic Constant Matrix: (Units=GPa)
#
#
# Indices 1 2 3 4 5 6 
#
# 1 40.0045 41.1256 33.8919 0.0000 0.0000 0.0000
# 2 41.1256 99.4471 49.8254 0.0000 0.0000 0.0000
# 3 33.8919 49.8254 93.1588 0.0000 0.0000 0.0000
# 4 0.0000 0.0000 0.0000 21.2234 0.0000 0.0000
# 5 0.0000 0.0000 0.0000 0.0000 17.3609 0.0000
# 6 0.0000 0.0000 0.0000 0.0000 0.0000 19.2972
#
#
#
# Elastic Compliance Matrix: (Units=1/GPa)
#
#
# Indices 1 2 3 4 5 6 
#
# 1 0.048999 -0.015480 -0.009547 0.000000 0.000000 0.000000
# 2 -0.015480 0.018627 -0.004331 0.000000 0.000000 0.000000
# 3 -0.009547 -0.004331 0.016524 0.000000 0.000000 0.000000
# 4 0.000000 0.000000 0.000000 0.047118 0.000000 0.000000
# 5 0.000000 0.000000 0.000000 0.000000 0.057601 0.000000
# 6 0.000000 0.000000 0.000000 0.000000 0.000000 0.051821
#
#
# Mechanical properties :
#
#
# Convention : Reuss Voigt Hill
#
# Bulk Modulus (GPa) = 39.31636 53.58846 46.45241
# Shear Modulus (GPa) = 16.23988 18.76077 17.50033
#
# Velocity S-wave (km/s) = 3.46187 3.72087 3.59370
# Velocity P-wave (km/s) = 6.70773 7.61620 7.17635
#
# Compressibility (1/GPa) = 0.02543470
#
# Stress axis : x y z
#
# Youngs Moduli (GPa) = 20.40846 53.68520 60.51831
#
# Poissons Ratio (x) = 0.83105 0.57776
# Poissons Ratio (y) = 0.31592 0.26209
# Poissons Ratio (z) = 0.19484 0.23250
#
# Static dielectric constant tensor:
#      x y z
#    x 2.353020 0.000000 0.000000 
#    y 0.000000 2.863250 0.000000 
#    z 0.000000 0.000000 2.803110 
# 
# 
# High freq. dielectric constant tensor:
#      x y z
#    x 1.463800 0.000000 0.000000 
#    y 0.000000 1.509670 0.000000 
#    z 0.000000 0.000000 1.524970 
# 
# From -- ./inp_files/13460.got.cif
#   From: 2010.06.25/outbox.cif.g09.slc.cpg/sg71_7_cif.got.tgz:13460.got - 2010.06.28 04:59:45.
