data_PCOD8292789
_publ_section_title
;
Structure prediction by ZEFSAII (Michael W. Deem and Ramdas Pophale) SiO2 
 PCOD8292789
Probable space group: I M M M
;
_chemical_formula_sum "Si O2"
_cell_formula_units_Z 48
_cell_length_a 24.000000
_cell_length_b 9.000000
_cell_length_c 24.000000
_cell_angle_alpha 90.000000
_cell_angle_beta 90.000000
_cell_angle_gamma 90.000000
_cell_volume 5184.000000
_symmetry_space_group_name_H-M "I M M M"
_symmetry_group_IT_number 71
_symmetry_cell_setting 'orthorhombic'
loop_
_space_group_symop_operation_xyz
x,y,z
-x,-y,z
x,-y,-z
-x,y,-z
-x,-y,-z
x,y,-z
-x,y,z
x,-y,z
1/2+x,1/2+y,1/2+z
1/2-x,1/2-y,1/2+z
1/2+x,1/2-y,1/2-z
1/2-x,1/2+y,1/2-z
1/2-x,1/2-y,1/2-z
1/2+x,1/2+y,1/2-z
1/2-x,1/2+y,1/2+z
1/2+x,1/2-y,1/2+z
loop_
_atom_site_type_symbol
_atom_site_label
_atom_site_fract_x
_atom_site_fract_y
_atom_site_fract_z
Si Si1 0.934825 0.823638 0.778616
Si Si2 0.759163 0.674320 0.500000
Si Si3 0.634696 0.828462 0.623967
Si Si4 0.854694 0.329891 0.000000
Si Si5 0.435007 0.172781 0.062634
Si Si6 0.375386 0.673401 0.834625
Si Si7 0.737261 0.673170 0.112184
O O1 0.904680 0.761893 0.834044
O O2 0.902144 0.763601 0.723167
O O3 0.000000 0.772794 0.776631
O O4 0.931001 0.000000 0.781887
O O5 0.770461 0.500000 0.500000
O O6 0.694017 0.710523 0.500000
O O7 0.784706 0.742377 0.556755
O O8 0.612999 0.805119 0.559209
O O9 0.699884 0.776286 0.629695
O O10 0.629488 0.000000 0.640925
O O11 0.831328 0.500000 0.000000
O O12 0.500000 0.208648 0.067996
O O13 0.403761 0.260804 0.110710
O O14 0.423195 0.000000 0.072033
O O15 0.414507 0.218376 0.000000
O O16 0.387525 0.500000 0.836056
O O17 0.308319 0.705772 0.838809
O O18 0.739033 0.500000 0.097326
#
# Coordination Sequence:
#
# PCOD8292789 Si02
#       7
#    16   8  16   8  16  16  16
#     4  10  22  39  56  77 108 142 179 229 279 320
#     4  10  18  28  48  79 112 145 180 213 257 321
#     4   9  18  35  59  83 108 141 177 214 265 328
#     4   8  16  34  57  81 112 142 169 212 263 312
#     4   9  19  35  52  73 106 143 179 230 286 320
#     4  10  21  36  55  77 104 144 188 225 266 321
#     4   9  19  35  53  77 111 146 179 222 270 317
#
# _framework density 9.2592590000000001
#
# number of rings (size 3 to 8) (size 9 to 14) (size 15 to 20)
#    0.000    2.667    0.000    2.750    1.167    6.333 
#    0.000    1.250    0.000    2.500    0.000    0.000 
#    0.000    0.000    0.000    0.000    0.000    0.000 
#
# Total GULP energy -594756.271860 kJ/mol
# GULP energy per Si atom -12390.755664 kJ/mol
# Density = 0.923818 g / cm^3
# Si number density = 9.259259 Si / 1000 Ang^3
#
#
#
# Elastic Constant Matrix: (Units=GPa)
#
#
# Indices 1 2 3 4 5 6 
#
# 1 109.9449 29.0698 77.0092 0.0000 0.0000 0.0000
# 2 29.0698 43.8247 34.2396 0.0000 0.0000 0.0000
# 3 77.0092 34.2396 165.3934 0.0000 0.0000 0.0000
# 4 0.0000 0.0000 0.0000 36.6770 0.0000 0.0000
# 5 0.0000 0.0000 0.0000 0.0000 42.9588 0.0000
# 6 0.0000 0.0000 0.0000 0.0000 0.0000 27.6785
#
#
#
# Elastic Compliance Matrix: (Units=1/GPa)
#
#
# Indices 1 2 3 4 5 6 
#
# 1 0.014410 -0.005149 -0.005643 0.000000 0.000000 0.000000
# 2 -0.005149 0.029061 -0.003619 0.000000 0.000000 0.000000
# 3 -0.005643 -0.003619 0.009423 0.000000 0.000000 0.000000
# 4 0.000000 0.000000 0.000000 0.027265 0.000000 0.000000
# 5 0.000000 0.000000 0.000000 0.000000 0.023278 0.000000
# 6 0.000000 0.000000 0.000000 0.000000 0.000000 0.036129
#
#
# Mechanical properties :
#
#
# Convention : Reuss Voigt Hill
#
# Bulk Modulus (GPa) = 41.54337 66.64444 54.09391
# Shear Modulus (GPa) = 28.34274 33.38582 30.86428
#
# Velocity S-wave (km/s) = 3.91641 4.25059 4.08692
# Velocity P-wave (km/s) = 6.55234 7.75604 7.17946
#
# Compressibility (1/GPa) = 0.02407123
#
# Stress axis : x y z
#
# Youngs Moduli (GPa) = 69.39757 34.41045 106.12399
#
# Poissons Ratio (x) = 0.17719 0.59890
# Poissons Ratio (y) = 0.35734 0.38402
# Poissons Ratio (z) = 0.39164 0.12452
#
# Static dielectric constant tensor:
#      x y z
#    x 3.546160 0.000000 0.000000 
#    y 0.000000 3.244520 0.000000 
#    z 0.000000 0.000000 3.699830 
# 
# 
# High freq. dielectric constant tensor:
#      x y z
#    x 1.717890 0.000000 0.000000 
#    y 0.000000 1.707420 0.000000 
#    z 0.000000 0.000000 1.736840 
# 
# From -- ./inp_files/61586.got.cif
#   From: 2010.06.25/outbox.ucp.g09.slc.cvg/sg71_31_cif.got.tgz:61586.got - 2010.06.28 16:23:14.
