data_PCOD8292512
_publ_section_title
;
Structure prediction by ZEFSAII (Michael W. Deem and Ramdas Pophale) SiO2 
 PCOD8292512
Probable space group: I M M M
;
_chemical_formula_sum "Si O2"
_cell_formula_units_Z 64
_cell_length_a 9.702743
_cell_length_b 32.201819
_cell_length_c 10.027871
_cell_angle_alpha 90.000000
_cell_angle_beta 90.000000
_cell_angle_gamma 90.000000
_cell_volume 3133.167921
_symmetry_space_group_name_H-M "I M M M"
_symmetry_group_IT_number 71
_symmetry_cell_setting 'orthorhombic'
loop_
_space_group_symop_operation_xyz
x,y,z
-x,-y,z
x,-y,-z
-x,y,-z
-x,-y,-z
x,y,-z
-x,y,z
x,-y,z
1/2+x,1/2+y,1/2+z
1/2-x,1/2-y,1/2+z
1/2+x,1/2-y,1/2-z
1/2-x,1/2+y,1/2-z
1/2-x,1/2-y,1/2-z
1/2+x,1/2+y,1/2-z
1/2-x,1/2+y,1/2+z
1/2+x,1/2-y,1/2+z
loop_
_atom_site_type_symbol
_atom_site_label
_atom_site_fract_x
_atom_site_fract_y
_atom_site_fract_z
Si Si1 0.751622 0.163923 0.153673
Si Si2 0.341057 0.953783 0.500000
Si Si3 0.659219 0.074378 0.219160
Si Si4 0.000000 0.718276 0.344230
Si Si5 0.352284 0.500000 0.353325
Si Si6 0.500000 0.314608 0.838453
O O1 0.687042 0.118304 0.151675
O O2 0.637986 0.196273 0.209620
O O3 0.870769 0.165034 0.264023
O O4 0.798974 0.174257 0.000000
O O5 0.500000 0.964326 0.500000
O O6 0.302749 0.925083 0.375397
O O7 0.267172 0.000000 0.500000
O O8 0.500000 0.061925 0.193593
O O9 0.759553 0.040335 0.161267
O O10 0.000000 0.711420 0.500000
O O11 0.000000 0.766036 0.302966
O O12 0.500000 0.500000 0.269964
O O13 0.407447 0.500000 0.500000
O O14 0.500000 0.322464 0.000000
#
# Coordination Sequence:
#
# PCOD8292512 Si02
#       6
#    16   8  16   8   8   8
#     4  11  23  41  67  97 130 169 217 273 326 381
#     4   9  18  36  60  88 124 162 202 258 316 364
#     4  11  22  40  66  91 122 166 219 264 316 377
#     4   9  20  43  69  96 127 164 220 276 322 385
#     4  11  25  40  57  88 128 165 206 261 318 383
#     4  11  25  43  65  94 133 174 211 262 331 401
#
# _framework density 20.42661
#
# number of rings (size 3 to 8) (size 9 to 14) (size 15 to 20)
#    0.000    1.500    2.500    2.250    3.500    2.000 
#    0.000    3.125    0.000    0.000    0.000    0.000 
#    0.000    0.000    0.000    0.000    0.000    0.000 
#
# Total GULP energy -396464.910146 kJ/mol
# GULP energy per Si atom -12389.528442 kJ/mol
# Density = 2.038012 g / cm^3
# Si number density = 20.426610 Si / 1000 Ang^3
#
#
#
# Elastic Constant Matrix: (Units=GPa)
#
#
# Indices 1 2 3 4 5 6 
#
# 1 141.4780 36.7875 41.6878 -0.0009 0.0001 0.0073
# 2 36.7875 90.5620 15.3564 -0.0012 0.0000 0.0067
# 3 41.6878 15.3564 108.8637 0.0019 -0.0018 0.0375
# 4 -0.0009 -0.0012 0.0019 36.3864 -0.0005 0.0117
# 5 0.0001 0.0000 -0.0018 -0.0005 21.4011 -0.0034
# 6 0.0073 0.0067 0.0375 0.0117 -0.0034 -65.0689
#
#
#
# Elastic Compliance Matrix: (Units=1/GPa)
#
#
# Indices 1 2 3 4 5 6 
#
# 1 0.008718 -0.003048 -0.002908 0.000000 0.000000 -0.000001
# 2 -0.003048 0.012379 -0.000579 0.000000 0.000000 0.000001
# 3 -0.002908 -0.000579 0.010381 -0.000001 0.000001 0.000006
# 4 0.000000 0.000000 -0.000001 0.027483 0.000001 0.000005
# 5 0.000000 0.000000 0.000001 0.000001 0.046727 -0.000002
# 6 -0.000001 0.000001 0.000006 0.000005 -0.000002 -0.015368
#
#
# Mechanical properties :
#
#
# Convention : Reuss Voigt Hill
#
# Bulk Modulus (GPa) = 54.32803 58.72966 56.52884
# Shear Modulus (GPa) = 45.65174 15.01518 30.33346
#
# Velocity S-wave (km/s) = 4.73262 2.71418 3.85775
# Velocity P-wave (km/s) = 7.51784 6.21581 6.89762
#
# Compressibility (1/GPa) = 0.01840671
#
# Stress axis : x y z
#
# Youngs Moduli (GPa) = 114.70780 80.78518 96.32816
#
# Poissons Ratio (x) = 0.24624 0.28016
# Poissons Ratio (y) = 0.34964 0.05576
# Poissons Ratio (z) = 0.33362 0.04677
#
# Static dielectric constant tensor:
#      x y z
#    x 3.701060 0.000000 0.000010 
#    y 0.000000 3.605450 0.000020 
#    z 0.000010 0.000020 2.472980 
# 
# 
# High freq. dielectric constant tensor:
#      x y z
#    x 1.801620 0.000000 0.000000 
#    y 0.000000 1.799110 0.000000 
#    z 0.000000 0.000000 1.795370 
# 
# From -- ./inp_files/18503.got.cif
#   From: 2010.06.25/outbox.cif.g09.slc.cpg/sg71_10_cif.got.tgz:18503.got - 2010.06.28 04:59:45.
