data_PCOD8292038
_publ_section_title
;
Structure prediction by ZEFSAII (Michael W. Deem and Ramdas Pophale) SiO2 
 PCOD8292038
Probable space group: I M M M
;
_chemical_formula_sum "Si O2"
_cell_formula_units_Z 104
_cell_length_a 9.756524
_cell_length_b 25.427544
_cell_length_c 21.548344
_cell_angle_alpha 90.000000
_cell_angle_beta 90.000000
_cell_angle_gamma 90.000000
_cell_volume 5345.808925
_symmetry_space_group_name_H-M "I M M M"
_symmetry_group_IT_number 71
_symmetry_cell_setting 'orthorhombic'
loop_
_space_group_symop_operation_xyz
x,y,z
-x,-y,z
x,-y,-z
-x,y,-z
-x,-y,-z
x,y,-z
-x,y,z
x,-y,z
1/2+x,1/2+y,1/2+z
1/2-x,1/2-y,1/2+z
1/2+x,1/2-y,1/2-z
1/2-x,1/2+y,1/2-z
1/2-x,1/2-y,1/2-z
1/2+x,1/2+y,1/2-z
1/2-x,1/2+y,1/2+z
1/2+x,1/2-y,1/2+z
loop_
_atom_site_type_symbol
_atom_site_label
_atom_site_fract_x
_atom_site_fract_y
_atom_site_fract_z
Si Si1 0.000000 0.436852 0.425398
Si Si2 0.151953 0.500000 0.074220
Si Si3 0.841336 0.772119 0.068050
Si Si4 0.240172 0.874515 0.120058
Si Si5 0.153009 0.806765 0.370139
Si Si6 0.340948 0.301793 0.734455
Si Si7 0.500000 0.437951 0.571275
Si Si8 0.150870 0.912469 0.427920
O O1 0.122592 0.407073 0.390849
O O2 0.000000 0.500000 0.412018
O O3 0.000000 0.427782 0.500000
O O4 0.233240 0.449756 0.100964
O O5 0.000000 0.500000 0.103017
O O6 0.142948 0.500000 0.000000
O O7 0.781257 0.830893 0.066693
O O8 0.762185 0.739906 0.120981
O O9 0.000000 0.773436 0.086813
O O10 0.819314 0.747161 0.000000
O O11 0.228104 0.842396 0.185578
O O12 0.126968 0.918853 0.111718
O O13 0.156947 0.830816 0.301073
O O14 0.195245 0.852626 0.417238
O O15 0.000000 0.785094 0.385524
O O16 0.500000 0.288205 0.714974
O O17 0.250000 0.250000 0.750000
O O18 0.500000 0.500000 0.569244
O O19 0.500000 0.416459 0.500000
O O20 0.141886 0.924544 0.500000
O O21 0.000000 0.923042 0.398153
#
# Coordination Sequence:
#
# PCOD8292038 Si02
#       8
#     8   8  16  16  16  16   8  16
#     4  11  26  46  69 100 132 166 216 276 338 399
#     4   9  17  29  51  79 107 139 179 229 286 351
#     4  11  22  35  54  88 126 158 199 253 315 379
#     4  12  23  41  64  93 130 166 210 263 320 393
#     4  10  22  37  57  83 117 159 205 250 299 360
#     4  11  23  40  62  89 122 165 214 257 303 373
#     4  11  22  40  69  98 126 166 214 270 336 399
#     4   9  17  32  53  77 107 144 189 242 299 354
#
# _framework density 19.454491999999998
#
# number of rings (size 3 to 8) (size 9 to 14) (size 15 to 20)
#    0.000    1.462    3.077    2.538    2.154    3.692 
#    0.000    1.538    3.385    0.000    0.000    0.000 
#    0.000    0.000    0.000    0.000    0.000    0.000 
#
# Total GULP energy -644206.499090 kJ/mol
# GULP energy per Si atom -12388.586521 kJ/mol
# Density = 1.941021 g / cm^3
# Si number density = 19.454492 Si / 1000 Ang^3
#
#
#
# Elastic Constant Matrix: (Units=GPa)
#
#
# Indices 1 2 3 4 5 6 
#
# 1 160.8233 83.7301 38.9034 0.0000 0.0000 0.0000
# 2 83.7301 115.5644 36.6094 0.0000 0.0000 0.0000
# 3 38.9034 36.6094 87.8250 0.0000 0.0000 0.0000
# 4 0.0000 0.0000 0.0000 25.3019 0.0000 0.0000
# 5 0.0000 0.0000 0.0000 0.0000 24.8796 0.0000
# 6 0.0000 0.0000 0.0000 0.0000 0.0000 38.0316
#
#
#
# Elastic Compliance Matrix: (Units=1/GPa)
#
#
# Indices 1 2 3 4 5 6 
#
# 1 0.010189 -0.006858 -0.001655 0.000000 0.000000 0.000000
# 2 -0.006858 0.014586 -0.003042 0.000000 0.000000 0.000000
# 3 -0.001655 -0.003042 0.013387 0.000000 0.000000 0.000000
# 4 0.000000 0.000000 0.000000 0.039523 0.000000 0.000000
# 5 0.000000 0.000000 0.000000 0.000000 0.040194 0.000000
# 6 0.000000 0.000000 0.000000 0.000000 0.000000 0.026294
#
#
# Mechanical properties :
#
#
# Convention : Reuss Voigt Hill
#
# Bulk Modulus (GPa) = 66.43436 75.85537 71.14486
# Shear Modulus (GPa) = 29.01941 31.30728 30.16335
#
# Velocity S-wave (km/s) = 3.86639 4.01591 3.94186
# Velocity P-wave (km/s) = 7.35898 7.78326 7.57409
#
# Compressibility (1/GPa) = 0.01505245
#
# Stress axis : x y z
#
# Youngs Moduli (GPa) = 98.14806 68.56050 74.69766
#
# Poissons Ratio (x) = 0.47018 0.12359
# Poissons Ratio (y) = 0.67309 0.22724
# Poissons Ratio (z) = 0.16239 0.20857
#
# Static dielectric constant tensor:
#      x y z
#    x 3.740320 0.000000 0.000000 
#    y 0.000000 3.524410 0.000000 
#    z 0.000000 0.000000 3.561240 
# 
# 
# High freq. dielectric constant tensor:
#      x y z
#    x 1.768290 0.000000 0.000000 
#    y 0.000000 1.751570 0.000000 
#    z 0.000000 0.000000 1.744940 
# 
# From -- ./inp_files/58035.got.cif
#   From: 2010.06.25/outbox.cif.g09.slc.cpg/sg71_30_cif.got.tgz:58035.got - 2010.06.28 04:59:45.
