data_PCOD8292189
_publ_section_title
;
Structure prediction by ZEFSAII (Michael W. Deem and Ramdas Pophale) SiO2 
 PCOD8292189
Probable space group: I M M M
;
_chemical_formula_sum "Si O2"
_cell_formula_units_Z 64
_cell_length_a 9.825571
_cell_length_b 19.249413
_cell_length_c 16.128530
_cell_angle_alpha 90.000000
_cell_angle_beta 90.000000
_cell_angle_gamma 90.000000
_cell_volume 3050.493297
_symmetry_space_group_name_H-M "I M M M"
_symmetry_group_IT_number 71
_symmetry_cell_setting 'orthorhombic'
loop_
_space_group_symop_operation_xyz
x,y,z
-x,-y,z
x,-y,-z
-x,y,-z
-x,-y,-z
x,y,-z
-x,y,z
x,-y,z
1/2+x,1/2+y,1/2+z
1/2-x,1/2-y,1/2+z
1/2+x,1/2-y,1/2-z
1/2-x,1/2+y,1/2-z
1/2-x,1/2-y,1/2-z
1/2+x,1/2+y,1/2-z
1/2-x,1/2+y,1/2+z
1/2+x,1/2-y,1/2+z
loop_
_atom_site_type_symbol
_atom_site_label
_atom_site_fract_x
_atom_site_fract_y
_atom_site_fract_z
Si Si1 0.500000 0.000000 0.772222
Si Si2 0.784894 0.848120 0.906791
Si Si3 0.000000 0.829290 0.500000
Si Si4 0.500000 0.787904 0.132184
Si Si5 0.767493 0.423194 0.000000
Si Si6 0.000000 0.758764 0.819348
Si Si7 0.230563 0.500000 0.406816
Si Si8 0.000000 0.606162 0.126702
O O1 0.628354 0.000000 0.831082
O O2 0.500000 0.069706 0.716392
O O3 0.626347 0.837146 0.888481
O O4 0.867670 0.803675 0.840651
O O5 0.820627 0.929962 0.897798
O O6 0.820917 0.822835 0.000000
O O7 0.000000 0.782380 0.580722
O O8 0.138893 0.872726 0.500000
O O9 0.500000 0.760600 0.224517
O O10 0.861964 0.415209 0.080607
O O11 0.704866 0.500000 0.000000
O O12 0.000000 0.688822 0.871588
O O13 0.163593 0.500000 0.500000
#
# Coordination Sequence:
#
# PCOD8292189 Si02
#       8
#     4  16   4   8   8   8   8   8
#     4  12  21  41  68  98 126 166 218 273 323 372
#     4  11  23  43  66  97 129 173 218 264 330 391
#     4  12  25  40  70  89 134 182 198 264 336 397
#     4  12  24  43  64  98 133 167 222 266 323 388
#     4  11  23  45  65  97 129 166 222 260 319 395
#     4  12  26  40  67  99 132 169 218 276 323 384
#     4  10  23  39  65  94 133 170 212 269 324 391
#     4  11  23  41  70  98 125 168 219 274 314 372
#
# _framework density 20.980214
#
# number of rings (size 3 to 8) (size 9 to 14) (size 15 to 20)
#    0.000    0.750    2.500    5.625    3.500    4.500 
#    0.000    1.875    2.750    0.000    0.000    0.000 
#    0.000    0.000    0.000    0.000    0.000    0.000 
#
# Total GULP energy -396816.964416 kJ/mol
# GULP energy per Si atom -12400.530138 kJ/mol
# Density = 2.093246 g / cm^3
# Si number density = 20.980214 Si / 1000 Ang^3
#
#
#
# Elastic Constant Matrix: (Units=GPa)
#
#
# Indices 1 2 3 4 5 6 
#
# 1 90.1191 38.0651 8.8176 0.0000 0.0000 0.0000
# 2 38.0651 166.1293 36.5853 0.0000 0.0000 0.0000
# 3 8.8176 36.5853 114.6600 -0.0001 0.0000 0.0000
# 4 0.0000 0.0000 -0.0001 76.7108 0.0000 0.0000
# 5 0.0000 0.0000 0.0000 0.0000 40.0254 0.0000
# 6 0.0000 0.0000 0.0000 0.0000 0.0000 74.5166
#
#
#
# Elastic Compliance Matrix: (Units=1/GPa)
#
#
# Indices 1 2 3 4 5 6 
#
# 1 0.012286 -0.002804 -0.000050 0.000000 0.000000 0.000000
# 2 -0.002804 0.007114 -0.002054 0.000000 0.000000 0.000000
# 3 -0.000050 -0.002054 0.009381 0.000000 0.000000 0.000000
# 4 0.000000 0.000000 0.000000 0.013036 0.000000 0.000000
# 5 0.000000 0.000000 0.000000 0.000000 0.024984 0.000000
# 6 0.000000 0.000000 0.000000 0.000000 0.000000 0.013420
#
#
# Mechanical properties :
#
#
# Convention : Reuss Voigt Hill
#
# Bulk Modulus (GPa) = 52.73187 59.76048 56.24617
# Shear Modulus (GPa) = 51.88933 57.41325 54.65129
#
# Velocity S-wave (km/s) = 4.97857 5.23687 5.10936
# Velocity P-wave (km/s) = 7.63131 8.06923 7.85332
#
# Compressibility (1/GPa) = 0.01896386
#
# Stress axis : x y z
#
# Youngs Moduli (GPa) = 81.39548 140.56199 106.60078
#
# Poissons Ratio (x) = 0.39413 0.00534
# Poissons Ratio (y) = 0.22823 0.21900
# Poissons Ratio (z) = 0.00408 0.28877
#
# Static dielectric constant tensor:
#      x y z
#    x 3.660720 0.000000 0.000000 
#    y 0.000000 4.125300 0.000000 
#    z 0.000000 0.000000 3.908870 
# 
# 
# High freq. dielectric constant tensor:
#      x y z
#    x 1.808490 0.000000 0.000000 
#    y 0.000000 1.848550 0.000000 
#    z 0.000000 0.000000 1.832000 
# 
# From -- ./inp_files/32344.got.cif
#   From: 2010.06.25/outbox.cif.g09.slc.cpg/sg71_17_cif.got.tgz:32344.got - 2010.06.28 04:59:45.
