data_PCOD8292272
_publ_section_title
;
Structure prediction by ZEFSAII (Michael W. Deem and Ramdas Pophale) SiO2 
 PCOD8292272
Probable space group: I M M M
;
_chemical_formula_sum "Si O2"
_cell_formula_units_Z 72
_cell_length_a 8.920240
_cell_length_b 34.074857
_cell_length_c 14.504342
_cell_angle_alpha 90.000000
_cell_angle_beta 90.000000
_cell_angle_gamma 90.000000
_cell_volume 4408.680361
_symmetry_space_group_name_H-M "I M M M"
_symmetry_group_IT_number 71
_symmetry_cell_setting 'orthorhombic'
loop_
_space_group_symop_operation_xyz
x,y,z
-x,-y,z
x,-y,-z
-x,y,-z
-x,-y,-z
x,y,-z
-x,y,z
x,-y,z
1/2+x,1/2+y,1/2+z
1/2-x,1/2-y,1/2+z
1/2+x,1/2-y,1/2-z
1/2-x,1/2+y,1/2-z
1/2-x,1/2-y,1/2-z
1/2+x,1/2+y,1/2-z
1/2-x,1/2+y,1/2+z
1/2+x,1/2-y,1/2+z
loop_
_atom_site_type_symbol
_atom_site_label
_atom_site_fract_x
_atom_site_fract_y
_atom_site_fract_z
Si Si1 0.663088 0.000000 0.108795
Si Si2 0.179080 0.584578 0.604348
Si Si3 0.169844 0.721724 0.392518
Si Si4 0.677713 0.309529 0.899235
Si Si5 0.676125 0.653732 0.286315
O O1 0.744117 0.958673 0.134592
O O2 0.500000 0.000000 0.156898
O O3 0.640100 0.000000 0.000000
O O4 0.231343 0.595064 0.500000
O O5 0.240460 0.615748 0.676177
O O6 0.000000 0.584042 0.608316
O O7 0.171891 0.711681 0.500000
O O8 0.233197 0.765560 0.374672
O O9 0.281542 0.692318 0.342488
O O10 0.000000 0.716521 0.354689
O O11 0.500000 0.306917 0.904880
O O12 0.727486 0.340029 0.820216
O O13 0.740840 0.322770 0.000000
O O14 0.500000 0.646824 0.294541
#
# Coordination Sequence:
#
# PCOD8292272 Si02
#       5
#     8  16  16  16  16
#     4   7  12  26  47  65  80 107 146 172 187 229
#     4   9  17  30  47  65  87 115 142 166 197 245
#     4   9  17  30  46  60  79 113 150 177 205 247
#     4   8  16  31  46  58  77 111 152 184 210 244
#     4  11  20  27  41  66  90 110 136 176 219 251
#
# _framework density 16.331417999999999
#
# number of rings (size 3 to 8) (size 9 to 14) (size 15 to 20)
#    0.000    3.000    0.000    4.667    0.000    3.556 
#    0.000    1.667    0.000    7.333    0.000    0.778 
#    0.000    6.222    0.000    0.000    0.000    0.000 
#
# Total GULP energy -446023.185110 kJ/mol
# GULP energy per Si atom -12389.532920 kJ/mol
# Density = 1.629425 g / cm^3
# Si number density = 16.331418 Si / 1000 Ang^3
#
#
#
# Elastic Constant Matrix: (Units=GPa)
#
#
# Indices 1 2 3 4 5 6 
#
# 1 24.2064 22.9981 20.9902 0.0000 0.0000 0.0000
# 2 22.9981 129.5039 79.8062 0.0001 0.0000 0.0000
# 3 20.9902 79.8062 89.0251 0.0004 -0.0001 0.0000
# 4 0.0000 0.0001 0.0004 20.8730 0.0000 0.0000
# 5 0.0000 0.0000 -0.0001 0.0000 16.8091 0.0000
# 6 0.0000 0.0000 0.0000 0.0000 0.0000 15.7984
#
#
#
# Elastic Compliance Matrix: (Units=1/GPa)
#
#
# Indices 1 2 3 4 5 6 
#
# 1 0.052755 -0.003806 -0.009027 0.000000 0.000000 0.000000
# 2 -0.003806 0.017527 -0.014815 0.000000 0.000000 0.000000
# 3 -0.009027 -0.014815 0.026642 0.000000 0.000000 0.000000
# 4 0.000000 0.000000 0.000000 0.047909 0.000000 0.000000
# 5 0.000000 0.000000 0.000000 0.000000 0.059492 0.000000
# 6 0.000000 0.000000 0.000000 0.000000 0.000000 0.063298
#
#
# Mechanical properties :
#
#
# Convention : Reuss Voigt Hill
#
# Bulk Modulus (GPa) = 24.02183 54.48049 39.25116
# Shear Modulus (GPa) = 14.84593 18.62550 16.73571
#
# Velocity S-wave (km/s) = 3.01830 3.38075 3.20465
# Velocity P-wave (km/s) = 5.18534 6.97646 6.14649
#
# Compressibility (1/GPa) = 0.04162881
#
# Stress axis : x y z
#
# Youngs Moduli (GPa) = 18.95572 57.05403 37.53489
#
# Poissons Ratio (x) = 0.21714 0.33882
# Poissons Ratio (y) = 0.07214 0.55608
# Poissons Ratio (z) = 0.17111 0.84525
#
# Static dielectric constant tensor:
#      x y z
#    x 2.789770 0.000000 0.000000 
#    y 0.000000 3.298210 0.000000 
#    z 0.000000 0.000000 3.261340 
# 
# 
# High freq. dielectric constant tensor:
#      x y z
#    x 1.598430 0.000000 0.000000 
#    y 0.000000 1.623120 0.000000 
#    z 0.000000 0.000000 1.611440 
# 
# From -- ./inp_files/31663.got.cif
#   From: 2010.06.25/outbox.cif.g09.slc.cpg/sg71_16_cif.got.tgz:31663.got - 2010.06.28 04:59:45.
