data_PCOD8292018
_publ_section_title
;
Structure prediction by ZEFSAII (Michael W. Deem and Ramdas Pophale) SiO2 
 PCOD8292018
Probable space group: I M M M
;
_chemical_formula_sum "Si O2"
_cell_formula_units_Z 104
_cell_length_a 8.611979
_cell_length_b 27.024453
_cell_length_c 22.033146
_cell_angle_alpha 90.000000
_cell_angle_beta 90.000000
_cell_angle_gamma 90.000000
_cell_volume 5127.862680
_symmetry_space_group_name_H-M "I M M M"
_symmetry_group_IT_number 71
_symmetry_cell_setting 'orthorhombic'
loop_
_space_group_symop_operation_xyz
x,y,z
-x,-y,z
x,-y,-z
-x,y,-z
-x,-y,-z
x,y,-z
-x,y,z
x,-y,z
1/2+x,1/2+y,1/2+z
1/2-x,1/2-y,1/2+z
1/2+x,1/2-y,1/2-z
1/2-x,1/2+y,1/2-z
1/2-x,1/2-y,1/2-z
1/2+x,1/2+y,1/2-z
1/2-x,1/2+y,1/2+z
1/2+x,1/2-y,1/2+z
loop_
_atom_site_type_symbol
_atom_site_label
_atom_site_fract_x
_atom_site_fract_y
_atom_site_fract_z
Si Si1 0.679539 0.814962 0.379742
Si Si2 0.818855 0.138937 0.123761
Si Si3 0.814840 0.208257 0.500000
Si Si4 0.680342 0.076858 0.337787
Si Si5 0.682947 0.822726 0.000000
Si Si6 0.183171 0.000000 0.570109
Si Si7 0.819965 0.270819 0.689405
Si Si8 0.177454 0.556530 0.297332
O O1 0.500000 0.798418 0.374510
O O2 0.734465 0.823426 0.447528
O O3 0.709431 0.864604 0.342156
O O4 0.794026 0.770947 0.360388
O O5 0.768708 0.179474 0.172684
O O6 0.774764 0.086348 0.152700
O O7 0.000000 0.141436 0.111942
O O8 0.737677 0.147959 0.059343
O O9 0.758623 0.265759 0.500000
O O10 0.000000 0.203384 0.500000
O O11 0.500000 0.062998 0.343135
O O12 0.744461 0.061626 0.271358
O O13 0.764116 0.048536 0.392718
O O14 0.500000 0.822397 0.000000
O O15 0.247998 0.000000 0.500000
O O16 0.000000 0.000000 0.567215
O O17 0.750000 0.250000 0.750000
O O18 0.000000 0.283488 0.696691
O O19 0.189277 0.500000 0.317906
O O20 0.000000 0.575668 0.298021
#
# Coordination Sequence:
#
# PCOD8292018 Si02
#       8
#    16  16   8  16   8   8  16  16
#     4  11  23  38  61  92 124 160 205 255 307 371
#     4  12  25  41  66  98 132 170 212 268 331 395
#     4  11  23  39  61  87 124 172 212 256 311 375
#     4  10  22  42  66  92 122 166 215 263 318 381
#     4  11  23  43  68  94 127 175 222 265 322 391
#     4  11  25  41  59  89 125 166 213 268 325 379
#     4  12  24  40  61  90 126 165 208 255 311 376
#     4  10  21  42  70  96 126 167 216 269 327 391
#
# _framework density 20.281354
#
# number of rings (size 3 to 8) (size 9 to 14) (size 15 to 20)
#    0.000    1.000    2.308    4.846    1.077    4.615 
#    0.000    0.385    0.000    2.308    0.000    0.000 
#    0.000    0.000    0.000    0.000    0.000    0.000 
#
# Total GULP energy -644884.927757 kJ/mol
# GULP energy per Si atom -12401.633226 kJ/mol
# Density = 2.023519 g / cm^3
# Si number density = 20.281354 Si / 1000 Ang^3
#
#
#
# Elastic Constant Matrix: (Units=GPa)
#
#
# Indices 1 2 3 4 5 6 
#
# 1 78.2579 29.2403 26.0717 0.0000 0.0000 0.0000
# 2 29.2403 90.1682 26.6532 0.0000 0.0000 0.0000
# 3 26.0717 26.6532 107.0522 -0.0001 0.0000 0.0000
# 4 0.0000 0.0000 -0.0001 9.9212 0.0000 0.0000
# 5 0.0000 0.0000 0.0000 0.0000 35.7020 0.0000
# 6 0.0000 0.0000 0.0000 0.0000 0.0000 31.8603
#
#
#
# Elastic Compliance Matrix: (Units=1/GPa)
#
#
# Indices 1 2 3 4 5 6 
#
# 1 0.015218 -0.004144 -0.002674 0.000000 0.000000 0.000000
# 2 -0.004144 0.013100 -0.002252 0.000000 0.000000 0.000000
# 3 -0.002674 -0.002252 0.010553 0.000000 0.000000 0.000000
# 4 0.000000 0.000000 0.000000 0.100794 0.000000 0.000000
# 5 0.000000 0.000000 0.000000 0.000000 0.028010 0.000000
# 6 0.000000 0.000000 0.000000 0.000000 0.000000 0.031387
#
#
# Mechanical properties :
#
#
# Convention : Reuss Voigt Hill
#
# Bulk Modulus (GPa) = 48.24109 48.82321 48.53215
# Shear Modulus (GPa) = 22.31014 28.39758 25.35386
#
# Velocity S-wave (km/s) = 3.32027 3.74596 3.53952
# Velocity P-wave (km/s) = 6.20778 6.54483 6.37853
#
# Compressibility (1/GPa) = 0.02072922
#
# Stress axis : x y z
#
# Youngs Moduli (GPa) = 65.71289 76.33528 94.75714
#
# Poissons Ratio (x) = 0.31636 0.25341
# Poissons Ratio (y) = 0.27234 0.21342
# Poissons Ratio (z) = 0.17574 0.17193
#
# Static dielectric constant tensor:
#      x y z
#    x 1.949030 0.000000 -0.000020 
#    y 0.000000 3.824710 0.000000 
#    z -0.000020 0.000000 5.050630 
# 
# 
# High freq. dielectric constant tensor:
#      x y z
#    x 1.791220 0.000000 0.000000 
#    y 0.000000 1.793030 0.000000 
#    z 0.000000 0.000000 1.804320 
# 
# From -- ./inp_files/50955.got.cif
#   From: 2010.06.25/outbox.cif.g09.slc.cpg/sg71_26_cif.got.tgz:50955.got - 2010.06.28 04:59:45.
