data_PCOD8292180
_publ_section_title
;
Structure prediction by ZEFSAII (Michael W. Deem and Ramdas Pophale) SiO2 
 PCOD8292180
Probable space group: I M M M
;
_chemical_formula_sum "Si O2"
_cell_formula_units_Z 104
_cell_length_a 21.980169
_cell_length_b 8.878699
_cell_length_c 26.996268
_cell_angle_alpha 90.000000
_cell_angle_beta 90.000000
_cell_angle_gamma 90.000000
_cell_volume 5268.464902
_symmetry_space_group_name_H-M "I M M M"
_symmetry_group_IT_number 71
_symmetry_cell_setting 'orthorhombic'
loop_
_space_group_symop_operation_xyz
x,y,z
-x,-y,z
x,-y,-z
-x,y,-z
-x,-y,-z
x,y,-z
-x,y,z
x,-y,z
1/2+x,1/2+y,1/2+z
1/2-x,1/2-y,1/2+z
1/2+x,1/2-y,1/2-z
1/2-x,1/2+y,1/2-z
1/2-x,1/2-y,1/2-z
1/2+x,1/2+y,1/2-z
1/2-x,1/2+y,1/2+z
1/2+x,1/2-y,1/2+z
loop_
_atom_site_type_symbol
_atom_site_label
_atom_site_fract_x
_atom_site_fract_y
_atom_site_fract_z
Si Si1 0.500000 0.679033 0.324530
Si Si2 0.500000 0.677846 0.787990
Si Si3 0.807320 0.668759 0.771531
Si Si4 0.295509 0.829195 0.443617
Si Si5 0.840811 0.179033 0.580347
Si Si6 0.427997 0.179009 0.000000
Si Si7 0.115493 0.329689 0.325002
Si Si8 0.371033 0.322153 0.638436
O O1 0.500000 0.500000 0.322121
O O2 0.500000 0.743386 0.268218
O O3 0.440217 0.737634 0.353791
O O4 0.500000 0.500000 0.785699
O O5 0.554894 0.734771 0.821026
O O6 0.790491 0.500000 0.788298
O O7 0.750000 0.750000 0.750000
O O8 0.857702 0.668015 0.729615
O O9 0.828646 0.760293 0.818673
O O10 0.316672 0.815924 0.500000
O O11 0.225605 0.774106 0.439847
O O12 0.343514 0.729070 0.413645
O O13 0.299946 0.000000 0.424048
O O14 0.894810 0.253319 0.548342
O O15 0.841953 0.243436 0.635985
O O16 0.849771 0.000000 0.579134
O O17 0.500000 0.222669 0.000000
O O18 0.420226 0.000000 0.000000
O O19 0.103291 0.500000 0.343492
O O20 0.369816 0.500000 0.641276
#
# Coordination Sequence:
#
# PCOD8292180 Si02
#       8
#     8   8  16  16  16   8  16  16
#     4   9  20  39  62  90 126 165 208 253 310 377
#     4  11  21  39  63  85 117 165 208 247 299 366
#     4  11  23  38  58  87 122 160 200 247 302 362
#     4  10  22  43  66  92 124 160 207 263 318 372
#     4  11  23  42  66  90 120 164 211 255 309 373
#     4  11  25  43  63  89 123 160 203 262 318 364
#     4  11  24  39  57  88 124 156 197 249 298 353
#     4  11  22  39  64  93 124 163 208 258 316 380
#
# _framework density 19.740096000000001
#
# number of rings (size 3 to 8) (size 9 to 14) (size 15 to 20)
#    0.000    1.308    2.308    3.231    1.077    6.462 
#    0.000    1.923    0.000    2.308    0.000    0.000 
#    0.000    0.000    0.000    0.000    0.000    0.000 
#
# Total GULP energy -644873.356662 kJ/mol
# GULP energy per Si atom -12401.410705 kJ/mol
# Density = 1.969517 g / cm^3
# Si number density = 19.740096 Si / 1000 Ang^3
#
#
#
# Elastic Constant Matrix: (Units=GPa)
#
#
# Indices 1 2 3 4 5 6 
#
# 1 109.2783 43.7726 31.4869 0.0000 0.0000 0.0000
# 2 43.7726 92.0344 33.8114 0.0000 0.0000 0.0000
# 3 31.4869 33.8114 93.0057 0.0000 0.0000 0.0000
# 4 0.0000 0.0000 0.0000 37.1204 0.0000 0.0000
# 5 0.0000 0.0000 0.0000 0.0000 37.0909 0.0000
# 6 0.0000 0.0000 0.0000 0.0000 0.0000 30.6357
#
#
#
# Elastic Compliance Matrix: (Units=1/GPa)
#
#
# Indices 1 2 3 4 5 6 
#
# 1 0.011694 -0.004740 -0.002236 0.000000 0.000000 0.000000
# 2 -0.004740 0.014462 -0.003653 0.000000 0.000000 0.000000
# 3 -0.002236 -0.003653 0.012837 0.000000 0.000000 0.000000
# 4 0.000000 0.000000 0.000000 0.026939 0.000000 0.000000
# 5 0.000000 0.000000 0.000000 0.000000 0.026961 0.000000
# 6 0.000000 0.000000 0.000000 0.000000 0.000000 0.032642
#
#
# Mechanical properties :
#
#
# Convention : Reuss Voigt Hill
#
# Bulk Modulus (GPa) = 56.38478 56.94003 56.66240
# Shear Modulus (GPa) = 32.74310 33.31921 33.03116
#
# Velocity S-wave (km/s) = 4.07715 4.11286 4.09504
# Velocity P-wave (km/s) = 7.12669 7.17367 7.15022
#
# Compressibility (1/GPa) = 0.01773528
#
# Stress axis : x y z
#
# Youngs Moduli (GPa) = 85.51431 69.14661 77.90108
#
# Poissons Ratio (x) = 0.32779 0.17416
# Poissons Ratio (y) = 0.40538 0.28455
# Poissons Ratio (z) = 0.19118 0.25257
#
# Static dielectric constant tensor:
#      x y z
#    x 3.697790 0.000000 0.000000 
#    y 0.000000 3.643050 0.000000 
#    z 0.000000 0.000000 4.532600 
# 
# 
# High freq. dielectric constant tensor:
#      x y z
#    x 1.773750 0.000000 0.000000 
#    y 0.000000 1.772850 0.000000 
#    z 0.000000 0.000000 1.773120 
# 
# From -- ./inp_files/66490.got.cif
#   From: 2010.06.25/outbox.cif.g09.slc.cpg/sg71_34_cif.got.tgz:66490.got - 2010.06.28 04:59:45.
