data_PCOD8292868
_publ_section_title
;
Structure prediction by ZEFSAII (Michael W. Deem and Ramdas Pophale) SiO2 
 PCOD8292868
Probable space group: I B A M
;
_chemical_formula_sum "Si O2"
_cell_formula_units_Z 112
_cell_length_a 10.127410
_cell_length_b 25.171392
_cell_length_c 24.394361
_cell_angle_alpha 90.000000
_cell_angle_beta 90.000000
_cell_angle_gamma 90.000000
_cell_volume 6218.635073
_symmetry_space_group_name_H-M "I B A M"
_symmetry_group_IT_number 72
_symmetry_cell_setting 'orthorhombic'
loop_
_space_group_symop_operation_xyz
x,y,z
-x,-y,z
x,-y,1/2-z
-x,y,1/2-z
-x,-y,-z
x,y,-z
-x,y,1/2+z
x,-y,1/2+z
1/2+x,1/2+y,1/2+z
1/2-x,1/2-y,1/2+z
1/2+x,1/2-y,-z
1/2-x,1/2+y,-z
1/2-x,1/2-y,1/2-z
1/2+x,1/2+y,1/2-z
1/2-x,1/2+y,z
1/2+x,1/2-y,z
loop_
_atom_site_type_symbol
_atom_site_label
_atom_site_fract_x
_atom_site_fract_y
_atom_site_fract_z
Si Si1 0.350227 0.601407 0.131923
Si Si2 0.857214 0.104691 0.246763
Si Si3 0.154494 0.213630 0.400549
Si Si4 0.138835 0.797471 0.561499
Si Si5 0.125225 0.772784 0.221554
Si Si6 0.657330 0.502452 0.561801
Si Si7 0.335017 0.596542 0.630550
O O1 0.286784 0.598560 0.193702
O O2 0.313449 0.657362 0.103973
O O3 0.292003 0.553283 0.095931
O O4 0.507094 0.597519 0.135758
O O5 0.882452 0.165209 0.231396
O O6 0.778858 0.083165 0.192530
O O7 0.000000 0.075647 0.250000
O O8 0.270337 0.245579 0.430890
O O9 0.125952 0.240836 0.342302
O O10 0.209760 0.153387 0.393590
O O11 0.016329 0.216315 0.432959
O O12 0.159178 0.819283 0.500000
O O13 0.250000 0.750000 0.250000
O O14 0.000000 0.744659 0.250000
O O15 0.500000 0.500000 0.561175
O O16 0.712560 0.506222 0.500000
O O17 0.714984 0.449214 0.589707
#
# Coordination Sequence:
#
# PCOD8292868 Si02
#       7
#    16  16  16  16  16  16  16
#     4   9  16  27  42  62  88 117 151 192 234 278
#     4   8  14  25  39  58  84 113 145 183 233 283
#     4  10  20  33  48  70  97 126 160 197 239 284
#     4  11  21  33  48  68  96 130 164 198 237 281
#     4  10  17  28  46  67  92 122 154 191 236 285
#     4   9  16  25  38  58  85 118 153 187 227 276
#     4   8  16  27  42  63  88 117 149 190 236 280
#
# _framework density 18.010383000000001
#
# number of rings (size 3 to 8) (size 9 to 14) (size 15 to 20)
#    0.000    2.714    0.000    5.143    0.000    4.571 
#    0.000    2.857    0.000    0.000    0.000    1.000 
#    0.000    3.429    0.000    7.000    0.000   11.429 
#
# Total GULP energy -693825.622185 kJ/mol
# GULP energy per Si atom -12389.743253 kJ/mol
# Density = 1.796939 g / cm^3
# Si number density = 18.010383 Si / 1000 Ang^3
#
#
#
# Elastic Constant Matrix: (Units=GPa)
#
#
# Indices 1 2 3 4 5 6 
#
# 1 38.4199 19.2880 19.6135 0.0000 0.0000 0.0000
# 2 19.2880 82.5593 48.9144 0.0000 0.0000 0.0000
# 3 19.6135 48.9144 166.3272 0.0000 0.0000 0.0000
# 4 0.0000 0.0000 0.0000 29.6484 0.0000 0.0000
# 5 0.0000 0.0000 0.0000 0.0000 16.2627 0.0000
# 6 0.0000 0.0000 0.0000 0.0000 0.0000 12.4669
#
#
#
# Elastic Compliance Matrix: (Units=1/GPa)
#
#
# Indices 1 2 3 4 5 6 
#
# 1 0.029917 -0.005933 -0.001783 0.000000 0.000000 0.000000
# 2 -0.005933 0.015845 -0.003960 0.000000 0.000000 0.000000
# 3 -0.001783 -0.003960 0.007387 0.000000 0.000000 0.000000
# 4 0.000000 0.000000 0.000000 0.033729 0.000000 0.000000
# 5 0.000000 0.000000 0.000000 0.000000 0.061490 0.000000
# 6 0.000000 0.000000 0.000000 0.000000 0.000000 0.080213
#
#
# Mechanical properties :
#
#
# Convention : Reuss Voigt Hill
#
# Bulk Modulus (GPa) = 33.56079 51.43760 42.49920
# Shear Modulus (GPa) = 19.09380 24.97497 22.03438
#
# Velocity S-wave (km/s) = 3.25953 3.72788 3.50155
# Velocity P-wave (km/s) = 5.73068 6.86669 6.32424
#
# Compressibility (1/GPa) = 0.02979667
#
# Stress axis : x y z
#
# Youngs Moduli (GPa) = 33.42587 63.11184 135.37074
#
# Poissons Ratio (x) = 0.37444 0.24137
# Poissons Ratio (y) = 0.19831 0.53609
# Poissons Ratio (z) = 0.05960 0.24993
#
# Static dielectric constant tensor:
#      x y z
#    x 2.742420 0.000000 0.000000 
#    y 0.000000 3.457600 0.000000 
#    z 0.000000 0.000000 3.818930 
# 
# 
# High freq. dielectric constant tensor:
#      x y z
#    x 1.616980 0.000000 0.000000 
#    y 0.000000 1.686690 0.000000 
#    z 0.000000 0.000000 1.726820 
# 
# From -- ./inp_files/43629.got.cif
#   From: 2010.03.12/outbox.cif.g09.slc.cpg/sg72_22_cif.got.tgz:43629.got - 2010.04.16 14:54:00.
