data_PCOD8292204
_publ_section_title
;
Structure prediction by ZEFSAII (Michael W. Deem and Ramdas Pophale) SiO2 
 PCOD8292204
Probable space group: I M M M
;
_chemical_formula_sum "Si O2"
_cell_formula_units_Z 48
_cell_length_a 7.618969
_cell_length_b 10.716198
_cell_length_c 27.713636
_cell_angle_alpha 90.000000
_cell_angle_beta 90.000000
_cell_angle_gamma 90.000000
_cell_volume 2262.718066
_symmetry_space_group_name_H-M "I M M M"
_symmetry_group_IT_number 71
_symmetry_cell_setting 'orthorhombic'
loop_
_space_group_symop_operation_xyz
x,y,z
-x,-y,z
x,-y,-z
-x,y,-z
-x,-y,-z
x,y,-z
-x,y,z
x,-y,z
1/2+x,1/2+y,1/2+z
1/2-x,1/2-y,1/2+z
1/2+x,1/2-y,1/2-z
1/2-x,1/2+y,1/2-z
1/2-x,1/2-y,1/2-z
1/2+x,1/2+y,1/2-z
1/2-x,1/2+y,1/2+z
1/2+x,1/2-y,1/2+z
loop_
_atom_site_type_symbol
_atom_site_label
_atom_site_fract_x
_atom_site_fract_y
_atom_site_fract_z
Si Si1 0.500000 0.141913 0.446651
Si Si2 0.799306 0.000000 0.056403
Si Si3 0.794565 0.641039 0.712399
Si Si4 0.302264 0.234443 0.890523
O O1 0.500000 0.212028 0.500000
O O2 0.327933 0.167089 0.414779
O O3 0.500000 0.000000 0.459655
O O4 0.691198 0.882794 0.074565
O O5 0.000000 0.000000 0.076208
O O6 0.798877 0.000000 0.000000
O O7 0.717154 0.500000 0.724272
O O8 0.750000 0.750000 0.750000
O O9 0.724560 0.690447 0.661068
O O10 0.000000 0.624933 0.709154
O O11 0.500000 0.290493 0.885934
#
# Coordination Sequence:
#
# PCOD8292204 Si02
#       4
#     8   8  16  16
#     4  11  26  45  65  95 135 176 221 273 331 396
#     4  11  21  35  63 100 131 165 210 265 331 387
#     4  10  23  42  64  94 130 170 218 274 333 396
#     4  11  23  42  66  93 130 170 218 271 326 394
#
# _framework density 21.213425000000001
#
# number of rings (size 3 to 8) (size 9 to 14) (size 15 to 20)
#    0.000    1.333    3.333    1.500    2.333    6.000 
#    0.000    5.000    0.000    0.000    0.000    0.000 
#    0.000    0.000    0.000    0.000    0.000    0.000 
#
# Total GULP energy -297374.195614 kJ/mol
# GULP energy per Si atom -12390.591484 kJ/mol
# Density = 2.116514 g / cm^3
# Si number density = 21.213425 Si / 1000 Ang^3
#
#
#
# Elastic Constant Matrix: (Units=GPa)
#
#
# Indices 1 2 3 4 5 6 
#
# 1 85.2758 25.9526 42.6000 0.0000 0.0000 0.0000
# 2 25.9526 115.8454 69.6499 0.0000 0.0000 0.0000
# 3 42.6000 69.6499 146.1743 0.0000 0.0000 0.0000
# 4 0.0000 0.0000 0.0000 36.8817 0.0000 0.0000
# 5 0.0000 0.0000 0.0000 0.0000 24.8165 0.0000
# 6 0.0000 0.0000 0.0000 0.0000 0.0000 32.9666
#
#
#
# Elastic Compliance Matrix: (Units=1/GPa)
#
#
# Indices 1 2 3 4 5 6 
#
# 1 0.013798 -0.000944 -0.003571 0.000000 0.000000 0.000000
# 2 -0.000944 0.012163 -0.005520 0.000000 0.000000 0.000000
# 3 -0.003571 -0.005520 0.010512 0.000000 0.000000 0.000000
# 4 0.000000 0.000000 0.000000 0.027114 0.000000 0.000000
# 5 0.000000 0.000000 0.000000 0.000000 0.040296 0.000000
# 6 0.000000 0.000000 0.000000 0.000000 0.000000 0.030334
#
#
# Mechanical properties :
#
#
# Convention : Reuss Voigt Hill
#
# Bulk Modulus (GPa) = 60.96884 69.30006 65.13445
# Shear Modulus (GPa) = 31.29803 32.87250 32.08527
#
# Velocity S-wave (km/s) = 3.84524 3.94078 3.89330
# Velocity P-wave (km/s) = 6.96546 7.31063 7.14013
#
# Compressibility (1/GPa) = 0.01640182
#
# Stress axis : x y z
#
# Youngs Moduli (GPa) = 72.47396 82.21946 95.12680
#
# Poissons Ratio (x) = 0.07760 0.33974
# Poissons Ratio (y) = 0.06841 0.52512
# Poissons Ratio (z) = 0.25884 0.45387
#
# Static dielectric constant tensor:
#      x y z
#    x 4.119120 0.000000 0.000000 
#    y 0.000000 3.762480 0.000000 
#    z 0.000000 0.000000 4.427300 
# 
# 
# High freq. dielectric constant tensor:
#      x y z
#    x 1.830210 0.000000 0.000000 
#    y 0.000000 1.824050 0.000000 
#    z 0.000000 0.000000 1.844460 
# 
# From -- ./inp_files/57033.got.cif
#   From: 2010.06.25/outbox.cif.g09.slc.cpg/sg71_29_cif.got.tgz:57033.got - 2010.06.28 04:59:45.
