data_PCOD8292913
_publ_section_title
;
Structure prediction by ZEFSAII (Michael W. Deem and Ramdas Pophale) SiO2 
 PCOD8292913
Probable space group: I B A M
;
_chemical_formula_sum "Si O2"
_cell_formula_units_Z 120
_cell_length_a 11.891958
_cell_length_b 22.703837
_cell_length_c 23.256640
_cell_angle_alpha 90.000000
_cell_angle_beta 90.000000
_cell_angle_gamma 90.000000
_cell_volume 6279.131772
_symmetry_space_group_name_H-M "I B A M"
_symmetry_group_IT_number 72
_symmetry_cell_setting 'orthorhombic'
loop_
_space_group_symop_operation_xyz
x,y,z
-x,-y,z
x,-y,1/2-z
-x,y,1/2-z
-x,-y,-z
x,y,-z
-x,y,1/2+z
x,-y,1/2+z
1/2+x,1/2+y,1/2+z
1/2-x,1/2-y,1/2+z
1/2+x,1/2-y,-z
1/2-x,1/2+y,-z
1/2-x,1/2-y,1/2-z
1/2+x,1/2+y,1/2-z
1/2-x,1/2+y,z
1/2+x,1/2-y,z
loop_
_atom_site_type_symbol
_atom_site_label
_atom_site_fract_x
_atom_site_fract_y
_atom_site_fract_z
Si Si1 0.665416 0.354421 0.134555
Si Si2 0.166219 0.722917 0.933182
Si Si3 0.171729 0.540208 0.129195
Si Si4 0.232528 0.423479 0.065821
Si Si5 0.906273 0.844180 0.379035
Si Si6 0.269588 0.000000 0.250000
Si Si7 0.373896 0.385767 0.758720
Si Si8 0.505028 0.118401 0.565339
O O1 0.730343 0.300634 0.104764
O O2 0.722858 0.416373 0.118842
O O3 0.538518 0.353778 0.111503
O O4 0.669795 0.348550 0.203903
O O5 0.135460 0.787610 0.912960
O O6 0.056474 0.682689 0.923083
O O7 0.202415 0.724010 0.000000
O O8 0.194285 0.485851 0.088765
O O9 0.155897 0.520836 0.195725
O O10 0.056676 0.571326 0.109722
O O11 0.344294 0.401431 0.096640
O O12 0.128817 0.377823 0.075382
O O13 0.263306 0.430766 0.000000
O O14 0.871749 0.840182 0.311959
O O15 0.196675 0.055437 0.271366
O O16 0.500000 0.409097 0.750000
O O17 0.532012 0.097906 0.500000
#
# Coordination Sequence:
#
# PCOD8292913 Si02
#       8
#    16  16  16  16  16   8  16  16
#     4   9  22  39  61  84 114 153 195 238 299 349
#     4  10  22  39  60  82 115 157 197 240 289 345
#     4  10  19  36  60  85 117 153 193 244 291 348
#     4  11  22  36  57  86 119 154 194 241 292 349
#     4  11  22  37  58  89 117 148 199 243 289 347
#     4  10  17  32  57  84 116 152 188 238 290 350
#     4   9  18  35  58  84 114 152 190 233 289 351
#     4   9  20  39  59  80 112 162 203 229 285 353
#
# _framework density 19.110921999999999
#
# number of rings (size 3 to 8) (size 9 to 14) (size 15 to 20)
#    0.000    2.133    1.333    1.400    1.867    3.733 
#    0.000    2.000    0.000    0.000    0.000    0.000 
#    0.000    0.000    0.000    0.000    0.000    0.000 
#
# Total GULP energy -743997.453602 kJ/mol
# GULP energy per Si atom -12399.957560 kJ/mol
# Density = 1.906742 g / cm^3
# Si number density = 19.110922 Si / 1000 Ang^3
#
#
#
# Elastic Constant Matrix: (Units=GPa)
#
#
# Indices 1 2 3 4 5 6 
#
# 1 73.0276 8.1435 30.7122 0.0000 0.0000 0.0000
# 2 8.1435 49.4208 15.6524 0.0000 0.0000 0.0000
# 3 30.7122 15.6524 91.4574 0.0000 0.0000 0.0000
# 4 0.0000 0.0000 0.0000 35.1906 0.0000 0.0000
# 5 0.0000 0.0000 0.0000 0.0000 29.0674 0.0000
# 6 0.0000 0.0000 0.0000 0.0000 0.0000 13.5155
#
#
#
# Elastic Compliance Matrix: (Units=1/GPa)
#
#
# Indices 1 2 3 4 5 6 
#
# 1 0.015991 -0.000988 -0.005201 0.000000 0.000000 0.000000
# 2 -0.000988 0.021455 -0.003340 0.000000 0.000000 0.000000
# 3 -0.005201 -0.003340 0.013252 0.000000 0.000000 0.000000
# 4 0.000000 0.000000 0.000000 0.028417 0.000000 0.000000
# 5 0.000000 0.000000 0.000000 0.000000 0.034403 0.000000
# 6 0.000000 0.000000 0.000000 0.000000 0.000000 0.073989
#
#
# Mechanical properties :
#
#
# Convention : Reuss Voigt Hill
#
# Bulk Modulus (GPa) = 31.60503 35.88020 33.74261
# Shear Modulus (GPa) = 23.02969 26.18122 24.60545
#
# Velocity S-wave (km/s) = 3.47515 3.70531 3.59208
# Velocity P-wave (km/s) = 5.71628 6.09272 5.90750
#
# Compressibility (1/GPa) = 0.03164053
#
# Stress axis : x y z
#
# Youngs Moduli (GPa) = 62.53580 46.60903 75.45923
#
# Poissons Ratio (x) = 0.04604 0.39245
# Poissons Ratio (y) = 0.06177 0.25205
# Poissons Ratio (z) = 0.32524 0.15568
#
# Static dielectric constant tensor:
#      x y z
#    x 3.552680 0.000000 0.000000 
#    y 0.000000 3.330520 0.000000 
#    z 0.000000 0.000000 3.695340 
# 
# 
# High freq. dielectric constant tensor:
#      x y z
#    x 1.741260 0.000000 0.000000 
#    y 0.000000 1.734580 0.000000 
#    z 0.000000 0.000000 1.754310 
# 
# From -- ./inp_files/43587.got.cif
#   From: 2010.03.12/outbox.cif.g09.slc.cpg/sg72_22_cif.got.tgz:43587.got - 2010.04.16 14:54:00.
