data_PCOD8292741
_publ_section_title
;
Structure prediction by ZEFSAII (Michael W. Deem and Ramdas Pophale) SiO2 
 PCOD8292741
Probable space group: I M M M
;
_chemical_formula_sum "Si O2"
_cell_formula_units_Z 104
_cell_length_a 20.603305
_cell_length_b 9.212279
_cell_length_c 32.491786
_cell_angle_alpha 90.000000
_cell_angle_beta 90.000000
_cell_angle_gamma 90.000000
_cell_volume 6167.051259
_symmetry_space_group_name_H-M "I M M M"
_symmetry_group_IT_number 71
_symmetry_cell_setting 'orthorhombic'
loop_
_space_group_symop_operation_xyz
x,y,z
-x,-y,z
x,-y,-z
-x,y,-z
-x,-y,-z
x,y,-z
-x,y,z
x,-y,z
1/2+x,1/2+y,1/2+z
1/2-x,1/2-y,1/2+z
1/2+x,1/2-y,1/2-z
1/2-x,1/2+y,1/2-z
1/2-x,1/2-y,1/2-z
1/2+x,1/2+y,1/2-z
1/2-x,1/2+y,1/2+z
1/2+x,1/2-y,1/2+z
loop_
_atom_site_type_symbol
_atom_site_label
_atom_site_fract_x
_atom_site_fract_y
_atom_site_fract_z
Si Si1 0.573512 0.669018 0.315093
Si Si2 0.748916 0.667068 0.454080
Si Si3 0.623415 0.662428 0.048691
Si Si4 0.310494 0.667048 0.371508
Si Si5 0.349447 0.836677 0.749784
Si Si6 0.500000 0.836077 0.049180
Si Si7 0.272039 0.336875 0.189520
O O1 0.500000 0.707372 0.327724
O O2 0.581613 0.500000 0.304501
O O3 0.619258 0.713840 0.353722
O O4 0.592453 0.757612 0.274351
O O5 0.724935 0.712830 0.500000
O O6 0.771293 0.500000 0.454369
O O7 0.809743 0.760800 0.439069
O O8 0.691020 0.692083 0.420999
O O9 0.622350 0.500000 0.067312
O O10 0.563217 0.753582 0.066748
O O11 0.616800 0.655685 0.000000
O O12 0.296937 0.500000 0.360270
O O13 0.252347 0.759214 0.351768
O O14 0.333325 0.749767 0.791652
O O15 0.285961 0.838782 0.721898
O O16 0.371288 0.000000 0.760899
O O17 0.500000 0.000000 0.066234
O O18 0.500000 0.836955 0.000000
O O19 0.294449 0.500000 0.178870
#
# Coordination Sequence:
#
# PCOD8292741 Si02
#       7
#    16  16  16  16  16   8  16
#     4   9  17  29  45  66  93 124 157 193 234 279
#     4   9  17  29  44  62  86 118 157 200 245 289
#     4   9  16  25  38  58  83 108 137 177 223 269
#     4   9  17  29  45  65  90 121 157 197 239 281
#     4   9  16  26  42  65  92 118 144 176 215 263
#     4   9  15  23  37  57  81 107 133 163 205 259
#     4   9  16  26  42  65  91 116 143 177 218 265
#
# _framework density 16.863813
#
# number of rings (size 3 to 8) (size 9 to 14) (size 15 to 20)
#    0.000    3.000    0.000    1.615    0.000    7.385 
#    0.000    0.000    0.000    0.462    2.000    3.231 
#    0.000    0.000    0.000   11.538    0.000   12.000 
#
# Total GULP energy -644566.181656 kJ/mol
# GULP energy per Si atom -12395.503493 kJ/mol
# Density = 1.682543 g / cm^3
# Si number density = 16.863813 Si / 1000 Ang^3
#
#
#
# Elastic Constant Matrix: (Units=GPa)
#
#
# Indices 1 2 3 4 5 6 
#
# 1 90.9605 46.4393 48.8209 0.0000 0.0000 0.0000
# 2 46.4393 102.1138 38.4953 0.0000 0.0000 0.0000
# 3 48.8209 38.4953 80.1133 0.0000 0.0000 0.0000
# 4 0.0000 0.0000 0.0000 16.5145 0.0000 0.0000
# 5 0.0000 0.0000 0.0000 0.0000 17.4773 0.0000
# 6 0.0000 0.0000 0.0000 0.0000 0.0000 18.6667
#
#
#
# Elastic Compliance Matrix: (Units=1/GPa)
#
#
# Indices 1 2 3 4 5 6 
#
# 1 0.018217 -0.005007 -0.008696 0.000000 0.000000 0.000000
# 2 -0.005007 0.013335 -0.003357 0.000000 0.000000 0.000000
# 3 -0.008696 -0.003357 0.019394 0.000000 0.000000 0.000000
# 4 0.000000 0.000000 0.000000 0.060553 0.000000 0.000000
# 5 0.000000 0.000000 0.000000 0.000000 0.057217 0.000000
# 6 0.000000 0.000000 0.000000 0.000000 0.000000 0.053571
#
#
# Mechanical properties :
#
#
# Convention : Reuss Voigt Hill
#
# Bulk Modulus (GPa) = 59.42239 60.07765 59.75002
# Shear Modulus (GPa) = 19.08282 19.82718 19.45500
#
# Velocity S-wave (km/s) = 3.36755 3.43260 3.40023
# Velocity P-wave (km/s) = 7.10167 7.17028 7.13605
#
# Compressibility (1/GPa) = 0.01682867
#
# Stress axis : x y z
#
# Youngs Moduli (GPa) = 54.89345 74.98862 51.56117
#
# Poissons Ratio (x) = 0.37544 0.44836
# Poissons Ratio (y) = 0.27483 0.17308
# Poissons Ratio (z) = 0.47734 0.25172
#
# Static dielectric constant tensor:
#      x y z
#    x 2.968700 0.000000 0.000000 
#    y 0.000000 3.382820 0.000000 
#    z 0.000000 0.000000 2.934910 
# 
# 
# High freq. dielectric constant tensor:
#      x y z
#    x 1.619100 0.000000 0.000000 
#    y 0.000000 1.661790 0.000000 
#    z 0.000000 0.000000 1.616840 
# 
# From -- ./inp_files/70730.got.cif
#   From: 2010.06.25/outbox.cif.g09.slc.cpg/sg71_36_cif.got.tgz:70730.got - 2010.06.28 04:59:45.
