data_PCOD8292314
_publ_section_title
;
Structure prediction by ZEFSAII (Michael W. Deem and Ramdas Pophale) SiO2 
 PCOD8292314
Probable space group: I M M M
;
_chemical_formula_sum "Si O2"
_cell_formula_units_Z 96
_cell_length_a 16.734391
_cell_length_b 11.866824
_cell_length_c 27.307446
_cell_angle_alpha 90.000000
_cell_angle_beta 90.000000
_cell_angle_gamma 90.000000
_cell_volume 5422.823843
_symmetry_space_group_name_H-M "I M M M"
_symmetry_group_IT_number 71
_symmetry_cell_setting 'orthorhombic'
loop_
_space_group_symop_operation_xyz
x,y,z
-x,-y,z
x,-y,-z
-x,y,-z
-x,-y,-z
x,y,-z
-x,y,z
x,-y,z
1/2+x,1/2+y,1/2+z
1/2-x,1/2-y,1/2+z
1/2+x,1/2-y,1/2-z
1/2-x,1/2+y,1/2-z
1/2-x,1/2-y,1/2-z
1/2+x,1/2+y,1/2-z
1/2-x,1/2+y,1/2+z
1/2+x,1/2-y,1/2+z
loop_
_atom_site_type_symbol
_atom_site_label
_atom_site_fract_x
_atom_site_fract_y
_atom_site_fract_z
Si Si1 0.818741 0.786605 0.879561
Si Si2 0.682472 0.132816 0.054148
Si Si3 0.588404 0.866838 0.853777
Si Si4 0.297998 0.718279 0.798585
Si Si5 0.593847 0.124249 0.446436
Si Si6 0.908994 0.000000 0.163679
Si Si7 0.093978 0.000000 0.279330
O O1 0.768244 0.833945 0.924867
O O2 0.766404 0.711179 0.842290
O O3 0.884072 0.705289 0.902224
O O4 0.862223 0.889254 0.852847
O O5 0.615630 0.176555 0.092425
O O6 0.677518 0.000000 0.049489
O O7 0.669068 0.186642 0.000000
O O8 0.500000 0.820809 0.844657
O O9 0.643998 0.822713 0.810283
O O10 0.593364 0.000000 0.851489
O O11 0.250000 0.750000 0.750000
O O12 0.354131 0.607828 0.796670
O O13 0.623704 0.167705 0.500000
O O14 0.500000 0.115765 0.447041
O O15 0.630421 0.000000 0.436825
O O16 0.910467 0.000000 0.221582
O O17 0.000000 0.000000 0.143051
O O18 0.000000 0.000000 0.298960
#
# Coordination Sequence:
#
# PCOD8292314 Si02
#       7
#    16  16  16  16  16   8   8
#     4  11  20  35  55  80 111 141 188 230 274 333
#     4   9  17  29  50  78 107 139 171 213 266 318
#     4   9  19  35  55  79 109 140 174 219 269 326
#     4  11  23  36  59  80 108 142 187 227 277 329
#     4   9  19  36  55  76 108 147 184 226 272 322
#     4  11  22  36  55  80 113 151 183 228 289 340
#     4  11  24  42  58  79 111 149 189 232 284 341
#
# _framework density 17.702953999999998
#
# number of rings (size 3 to 8) (size 9 to 14) (size 15 to 20)
#    0.000    2.000    2.500    2.000    3.500    0.333 
#    0.000    1.667    0.000    4.000    0.000    0.000 
#    0.000    7.000    0.000    0.000    0.000    0.000 
#
# Total GULP energy -594813.963697 kJ/mol
# GULP energy per Si atom -12391.957577 kJ/mol
# Density = 1.766266 g / cm^3
# Si number density = 17.702954 Si / 1000 Ang^3
#
#
#
# Elastic Constant Matrix: (Units=GPa)
#
#
# Indices 1 2 3 4 5 6 
#
# 1 105.4986 43.8288 53.6551 0.0000 0.0000 0.0000
# 2 43.8288 68.4806 37.6020 0.0000 0.0000 0.0000
# 3 53.6551 37.6020 106.6136 0.0000 0.0000 0.0000
# 4 0.0000 0.0000 0.0000 23.8629 0.0000 0.0000
# 5 0.0000 0.0000 0.0000 0.0000 36.6413 0.0000
# 6 0.0000 0.0000 0.0000 0.0000 0.0000 28.2078
#
#
#
# Elastic Compliance Matrix: (Units=1/GPa)
#
#
# Indices 1 2 3 4 5 6 
#
# 1 0.014867 -0.006705 -0.005117 0.000000 0.000000 0.000000
# 2 -0.006705 0.021134 -0.004079 0.000000 0.000000 0.000000
# 3 -0.005117 -0.004079 0.013394 0.000000 0.000000 0.000000
# 4 0.000000 0.000000 0.000000 0.041906 0.000000 0.000000
# 5 0.000000 0.000000 0.000000 0.000000 0.027292 0.000000
# 6 0.000000 0.000000 0.000000 0.000000 0.000000 0.035451
#
#
# Mechanical properties :
#
#
# Convention : Reuss Voigt Hill
#
# Bulk Modulus (GPa) = 56.84649 61.19606 59.02128
# Shear Modulus (GPa) = 26.08092 27.44285 26.76188
#
# Velocity S-wave (km/s) = 3.84246 3.94151 3.89230
# Velocity P-wave (km/s) = 7.20188 7.44025 7.32203
#
# Compressibility (1/GPa) = 0.01759123
#
# Stress axis : x y z
#
# Youngs Moduli (GPa) = 67.26301 47.31678 74.66201
#
# Poissons Ratio (x) = 0.31728 0.38205
# Poissons Ratio (y) = 0.45102 0.30457
# Poissons Ratio (z) = 0.34419 0.19302
#
# Static dielectric constant tensor:
#      x y z
#    x 3.507470 0.000000 0.000000 
#    y 0.000000 3.228110 0.000000 
#    z 0.000000 0.000000 4.022170 
# 
# 
# High freq. dielectric constant tensor:
#      x y z
#    x 1.691740 0.000000 0.000000 
#    y 0.000000 1.670940 0.000000 
#    z 0.000000 0.000000 1.689730 
# 
# From -- ./inp_files/60559.got.cif
#   From: 2010.06.25/outbox.cif.g09.slc.cpg/sg71_31_cif.got.tgz:60559.got - 2010.06.28 04:59:45.
