data_PCOD8292795
_publ_section_title
;
Structure prediction by ZEFSAII (Michael W. Deem and Ramdas Pophale) SiO2 
 PCOD8292795
Probable space group: I M M M
;
_chemical_formula_sum "Si O2"
_cell_formula_units_Z 44
_cell_length_a 30.000000
_cell_length_b 18.000000
_cell_length_c 9.000000
_cell_angle_alpha 90.000000
_cell_angle_beta 90.000000
_cell_angle_gamma 90.000000
_cell_volume 4860.000000
_symmetry_space_group_name_H-M "I M M M"
_symmetry_group_IT_number 71
_symmetry_cell_setting 'orthorhombic'
loop_
_space_group_symop_operation_xyz
x,y,z
-x,-y,z
x,-y,-z
-x,y,-z
-x,-y,-z
x,y,-z
-x,y,z
x,-y,z
1/2+x,1/2+y,1/2+z
1/2-x,1/2-y,1/2+z
1/2+x,1/2-y,1/2-z
1/2-x,1/2+y,1/2-z
1/2-x,1/2-y,1/2-z
1/2+x,1/2+y,1/2-z
1/2-x,1/2+y,1/2+z
1/2+x,1/2-y,1/2+z
loop_
_atom_site_type_symbol
_atom_site_label
_atom_site_fract_x
_atom_site_fract_y
_atom_site_fract_z
Si Si1 0.116618 0.862105 0.177854
Si Si2 0.052388 0.000000 0.824592
Si Si3 0.790830 0.849428 0.332752
Si Si4 0.390867 0.796687 0.823358
Si Si5 0.205687 0.326979 0.334076
Si Si6 0.947361 0.583364 0.168251
O O1 0.080559 0.926153 0.225828
O O2 0.166276 0.880331 0.241737
O O3 0.100839 0.782571 0.242743
O O4 0.119969 0.857291 0.000000
O O5 0.000000 0.000000 0.764108
O O6 0.049521 0.000000 0.000000
O O7 0.793765 0.881512 0.500000
O O8 0.788711 0.761243 0.333947
O O9 0.742999 0.871881 0.260500
O O10 0.344700 0.837254 0.772873
O O11 0.428965 0.854537 0.779701
O O12 0.390574 0.781409 0.000000
O O13 0.210424 0.358651 0.500000
O O14 0.931890 0.500000 0.214831
O O15 0.000000 0.588335 0.177924
O O16 0.931421 0.600233 0.000000
#
# Coordination Sequence:
#
# PCOD8292795 Si02
#       6
#    16   8  16  16  16  16
#     4  10  19  33  55  78 103 138 178 221 271 321
#     4   9  20  38  57  77 101 135 183 233 276 321
#     4   9  16  27  46  73 103 132 167 211 256 309
#     4  10  20  33  52  81 112 139 174 219 266 317
#     4   8  15  27  44  70 103 136 169 204 249 306
#     4   9  19  36  56  77 103 138 177 214 256 310
#
# _framework density 9.0534979999999994
#
# number of rings (size 3 to 8) (size 9 to 14) (size 15 to 20)
#    0.000    2.818    0.000    3.273    0.000    6.545 
#    0.000    4.545    2.000    3.818    0.000    0.000 
#    0.000    0.000    0.000    0.000    0.000    0.000 
#
# Total GULP energy -545150.885790 kJ/mol
# GULP energy per Si atom -12389.792859 kJ/mol
# Density = 0.903289 g / cm^3
# Si number density = 9.053498 Si / 1000 Ang^3
#
#
#
# Elastic Constant Matrix: (Units=GPa)
#
#
# Indices 1 2 3 4 5 6 
#
# 1 121.8372 56.7774 45.5895 0.0000 0.0000 0.0000
# 2 56.7774 92.1376 39.2546 0.0000 0.0000 0.0000
# 3 45.5895 39.2546 96.5370 0.0000 0.0000 0.0000
# 4 0.0000 0.0000 0.0000 18.4577 0.0000 0.0000
# 5 0.0000 0.0000 0.0000 0.0000 33.4228 0.0000
# 6 0.0000 0.0000 0.0000 0.0000 0.0000 29.8382
#
#
#
# Elastic Compliance Matrix: (Units=1/GPa)
#
#
# Indices 1 2 3 4 5 6 
#
# 1 0.012329 -0.006189 -0.003306 0.000000 0.000000 0.000000
# 2 -0.006189 0.016234 -0.003679 0.000000 0.000000 0.000000
# 3 -0.003306 -0.003679 0.013416 0.000000 0.000000 0.000000
# 4 0.000000 0.000000 0.000000 0.054178 0.000000 0.000000
# 5 0.000000 0.000000 0.000000 0.000000 0.029920 0.000000
# 6 0.000000 0.000000 0.000000 0.000000 0.000000 0.033514
#
#
# Mechanical properties :
#
#
# Convention : Reuss Voigt Hill
#
# Bulk Modulus (GPa) = 63.96995 65.97277 64.97136
# Shear Modulus (GPa) = 26.15782 27.60309 26.88046
#
# Velocity S-wave (km/s) = 3.80495 3.90865 3.85715
# Velocity P-wave (km/s) = 7.39656 7.54215 7.46971
#
# Compressibility (1/GPa) = 0.01563234
#
# Stress axis : x y z
#
# Youngs Moduli (GPa) = 81.11171 61.59784 74.53988
#
# Poissons Ratio (x) = 0.38122 0.24640
# Poissons Ratio (y) = 0.50199 0.27421
# Poissons Ratio (z) = 0.26813 0.22660
#
# Static dielectric constant tensor:
#      x y z
#    x 3.813880 0.000000 0.000000 
#    y 0.000000 3.193410 0.000000 
#    z 0.000000 0.000000 3.457550 
# 
# 
# High freq. dielectric constant tensor:
#      x y z
#    x 1.719950 0.000000 0.000000 
#    y 0.000000 1.678130 0.000000 
#    z 0.000000 0.000000 1.703850 
# 
# From -- ./inp_files/16673.got.cif
#   From: 2010.06.25/outbox.ucp.g09.slc.cvg/sg71_9_cif.got.tgz:16673.got - 2010.06.28 16:23:14.
