data_PCOD8292231
_publ_section_title
;
Structure prediction by ZEFSAII (Michael W. Deem and Ramdas Pophale) SiO2 
 PCOD8292231
Probable space group: I M M M
;
_chemical_formula_sum "Si O2"
_cell_formula_units_Z 104
_cell_length_a 13.614876
_cell_length_b 22.475202
_cell_length_c 21.957310
_cell_angle_alpha 90.000000
_cell_angle_beta 90.000000
_cell_angle_gamma 90.000000
_cell_volume 6718.872927
_symmetry_space_group_name_H-M "I M M M"
_symmetry_group_IT_number 71
_symmetry_cell_setting 'orthorhombic'
loop_
_space_group_symop_operation_xyz
x,y,z
-x,-y,z
x,-y,-z
-x,y,-z
-x,-y,-z
x,y,-z
-x,y,z
x,-y,z
1/2+x,1/2+y,1/2+z
1/2-x,1/2-y,1/2+z
1/2+x,1/2-y,1/2-z
1/2-x,1/2+y,1/2-z
1/2-x,1/2-y,1/2-z
1/2+x,1/2+y,1/2-z
1/2-x,1/2+y,1/2+z
1/2+x,1/2-y,1/2+z
loop_
_atom_site_type_symbol
_atom_site_label
_atom_site_fract_x
_atom_site_fract_y
_atom_site_fract_z
Si Si1 0.113031 0.150822 0.930246
Si Si2 0.609648 0.931856 0.760380
Si Si3 0.701373 0.109432 0.358620
Si Si4 0.612650 0.787143 0.570505
Si Si5 0.388626 0.569978 0.204590
Si Si6 0.797161 0.931693 0.168004
Si Si7 0.112664 0.500000 0.927786
O O1 0.129291 0.218933 0.910479
O O2 0.179730 0.108857 0.889361
O O3 0.000000 0.132742 0.921488
O O4 0.144958 0.141616 0.000000
O O5 0.500000 0.916737 0.782771
O O6 0.637644 0.891602 0.702973
O O7 0.682588 0.920928 0.816623
O O8 0.619839 0.000000 0.737766
O O9 0.685672 0.173198 0.389509
O O10 0.816749 0.103140 0.342569
O O11 0.667624 0.058451 0.404667
O O12 0.638322 0.796402 0.500000
O O13 0.500000 0.806173 0.582582
O O14 0.500000 0.589358 0.190227
O O15 0.372272 0.500000 0.195927
O O16 0.363156 0.587134 0.274084
O O17 0.817780 0.000000 0.150299
O O18 0.000000 0.500000 0.904579
O O19 0.117044 0.500000 0.000000
#
# Coordination Sequence:
#
# PCOD8292231 Si02
#       7
#    16  16  16  16  16  16   8
#     4   9  18  32  48  67  92 119 146 180 227 278
#     4   9  16  27  44  67  97 124 145 178 224 271
#     4  11  17  28  45  67  89 120 156 185 223 265
#     4   9  18  31  46  64  89 122 151 179 226 282
#     4   9  17  30  46  65  93 124 152 185 226 271
#     4   9  17  29  48  73  92 114 149 184 225 271
#     4  11  20  26  39  67  95 113 143 196 234 254
#
# _framework density 15.478787000000001
#
# number of rings (size 3 to 8) (size 9 to 14) (size 15 to 20)
#    0.000    2.538    1.538    4.154    0.000    2.462 
#    0.000    3.846    0.000    5.538    0.000    4.308 
#    0.000    0.000    0.000    0.000    0.000    0.000 
#
# Total GULP energy -644802.013132 kJ/mol
# GULP energy per Si atom -12400.038714 kJ/mol
# Density = 1.544356 g / cm^3
# Si number density = 15.478787 Si / 1000 Ang^3
#
#
#
# Elastic Constant Matrix: (Units=GPa)
#
#
# Indices 1 2 3 4 5 6 
#
# 1 120.0550 41.7315 49.5594 0.0000 0.0000 0.0000
# 2 41.7315 70.5204 49.7662 0.0000 0.0000 0.0000
# 3 49.5594 49.7662 75.5237 0.0000 0.0000 0.0000
# 4 0.0000 0.0000 0.0000 31.2913 0.0000 0.0000
# 5 0.0000 0.0000 0.0000 0.0000 24.2492 0.0000
# 6 0.0000 0.0000 0.0000 0.0000 0.0000 22.0667
#
#
#
# Elastic Compliance Matrix: (Units=1/GPa)
#
#
# Indices 1 2 3 4 5 6 
#
# 1 0.011716 -0.002818 -0.005831 0.000000 0.000000 0.000000
# 2 -0.002818 0.027184 -0.016064 0.000000 0.000000 0.000000
# 3 -0.005831 -0.016064 0.027653 0.000000 0.000000 0.000000
# 4 0.000000 0.000000 0.000000 0.031958 0.000000 0.000000
# 5 0.000000 0.000000 0.000000 0.000000 0.041238 0.000000
# 6 0.000000 0.000000 0.000000 0.000000 0.000000 0.045317
#
#
# Mechanical properties :
#
#
# Convention : Reuss Voigt Hill
#
# Bulk Modulus (GPa) = 58.38820 60.91257 59.65039
# Shear Modulus (GPa) = 20.81587 23.85756 22.33672
#
# Velocity S-wave (km/s) = 3.67113 3.93021 3.80288
# Velocity P-wave (km/s) = 7.46813 7.74810 7.60940
#
# Compressibility (1/GPa) = 0.01712675
#
# Stress axis : x y z
#
# Youngs Moduli (GPa) = 85.35098 36.78635 36.16306
#
# Poissons Ratio (x) = 0.10367 0.21088
# Poissons Ratio (y) = 0.24053 0.58091
# Poissons Ratio (z) = 0.49771 0.59092
#
# Static dielectric constant tensor:
#      x y z
#    x 2.984980 0.000000 0.000000 
#    y 0.000000 2.772960 0.000000 
#    z 0.000000 0.000000 2.791010 
# 
# 
# High freq. dielectric constant tensor:
#      x y z
#    x 1.586770 0.000000 0.000000 
#    y 0.000000 1.576630 0.000000 
#    z 0.000000 0.000000 1.583200 
# 
# From -- ./inp_files/53384.got.cif
#   From: 2010.06.25/outbox.cif.g09.slc.cpg/sg71_27_cif.got.tgz:53384.got - 2010.06.28 04:59:45.
