data_PCOD8292077
_publ_section_title
;
Structure prediction by ZEFSAII (Michael W. Deem and Ramdas Pophale) SiO2 
 PCOD8292077
Probable space group: I M M M
;
_chemical_formula_sum "Si O2"
_cell_formula_units_Z 56
_cell_length_a 10.582403
_cell_length_b 13.183014
_cell_length_c 19.334879
_cell_angle_alpha 90.000000
_cell_angle_beta 90.000000
_cell_angle_gamma 90.000000
_cell_volume 2697.369660
_symmetry_space_group_name_H-M "I M M M"
_symmetry_group_IT_number 71
_symmetry_cell_setting 'orthorhombic'
loop_
_space_group_symop_operation_xyz
x,y,z
-x,-y,z
x,-y,-z
-x,y,-z
-x,-y,-z
x,y,-z
-x,y,z
x,-y,z
1/2+x,1/2+y,1/2+z
1/2-x,1/2-y,1/2+z
1/2+x,1/2-y,1/2-z
1/2-x,1/2+y,1/2-z
1/2-x,1/2-y,1/2-z
1/2+x,1/2+y,1/2-z
1/2-x,1/2+y,1/2+z
1/2+x,1/2-y,1/2+z
loop_
_atom_site_type_symbol
_atom_site_label
_atom_site_fract_x
_atom_site_fract_y
_atom_site_fract_z
Si Si1 0.500000 0.620549 0.578355
Si Si2 0.138713 0.192469 0.674513
Si Si3 0.360395 0.880579 0.422794
Si Si4 0.213374 0.882989 0.817667
O O1 0.500000 0.500000 0.579464
O O2 0.500000 0.663122 0.500000
O O3 0.626969 0.655657 0.618149
O O4 0.249340 0.149411 0.627889
O O5 0.136454 0.132853 0.746920
O O6 0.161799 0.313012 0.685167
O O7 0.000000 0.178075 0.640516
O O8 0.323756 0.845183 0.500000
O O9 0.500000 0.833027 0.403083
O O10 0.375473 0.000000 0.419771
O O11 0.254010 0.000000 0.825949
#
# Coordination Sequence:
#
# PCOD8292077 Si02
#       4
#     8  16  16  16
#     4   9  18  36  62  86 108 148 206 257 298 344
#     4  11  23  37  59  90 124 159 199 250 311 366
#     4   9  20  39  61  87 121 162 206 249 297 361
#     4  10  22  39  58  84 121 160 202 250 303 366
#
# _framework density 20.760966
#
# number of rings (size 3 to 8) (size 9 to 14) (size 15 to 20)
#    0.000    2.143    1.429    1.714    2.000    5.143 
#    0.000    1.429    0.000    0.000    0.000    6.000 
#    0.000    0.000    0.000    0.000    0.000    0.000 
#
# Total GULP energy -347087.005825 kJ/mol
# GULP energy per Si atom -12395.964494 kJ/mol
# Density = 2.071371 g / cm^3
# Si number density = 20.760966 Si / 1000 Ang^3
#
#
#
# Elastic Constant Matrix: (Units=GPa)
#
#
# Indices 1 2 3 4 5 6 
#
# 1 154.8325 20.2958 79.2373 0.0000 0.0000 0.0000
# 2 20.2958 38.8713 22.4383 0.0000 0.0000 0.0000
# 3 79.2373 22.4383 147.3787 0.0000 0.0000 0.0000
# 4 0.0000 0.0000 0.0000 13.0543 0.0000 0.0000
# 5 0.0000 0.0000 0.0000 0.0000 32.4927 0.0000
# 6 0.0000 0.0000 0.0000 0.0000 0.0000 19.9029
#
#
#
# Elastic Compliance Matrix: (Units=1/GPa)
#
#
# Indices 1 2 3 4 5 6 
#
# 1 0.009065 -0.002105 -0.004553 0.000000 0.000000 0.000000
# 2 -0.002105 0.028693 -0.003237 0.000000 0.000000 0.000000
# 3 -0.004553 -0.003237 0.009726 0.000000 0.000000 0.000000
# 4 0.000000 0.000000 0.000000 0.076603 0.000000 0.000000
# 5 0.000000 0.000000 0.000000 0.000000 0.030776 0.000000
# 6 0.000000 0.000000 0.000000 0.000000 0.000000 0.050244
#
#
# Mechanical properties :
#
#
# Convention : Reuss Voigt Hill
#
# Bulk Modulus (GPa) = 36.10826 65.00283 50.55555
# Shear Modulus (GPa) = 21.35585 27.69739 24.52662
#
# Velocity S-wave (km/s) = 3.21074 3.65651 3.44085
# Velocity P-wave (km/s) = 5.58348 7.01462 6.33956
#
# Compressibility (1/GPa) = 0.02769449
#
# Stress axis : x y z
#
# Youngs Moduli (GPa) = 110.31974 34.85129 102.81706
#
# Poissons Ratio (x) = 0.07335 0.46813
# Poissons Ratio (y) = 0.23218 0.33282
# Poissons Ratio (z) = 0.50229 0.11281
#
# Static dielectric constant tensor:
#      x y z
#    x 3.581630 0.000000 0.000000 
#    y 0.000000 3.952770 0.000000 
#    z 0.000000 0.000000 3.845960 
# 
# 
# High freq. dielectric constant tensor:
#      x y z
#    x 1.797790 0.000000 0.000000 
#    y 0.000000 1.837020 0.000000 
#    z 0.000000 0.000000 1.805660 
# 
# From -- ./inp_files/30972.got.cif
#   From: 2010.06.25/outbox.cif.g09.slc.cpg/sg71_16_cif.got.tgz:30972.got - 2010.06.28 04:59:45.
