data_PCOD8292476
_publ_section_title
;
Structure prediction by ZEFSAII (Michael W. Deem and Ramdas Pophale) SiO2 
 PCOD8292476
Probable space group: I M M M
;
_chemical_formula_sum "Si O2"
_cell_formula_units_Z 80
_cell_length_a 18.774539
_cell_length_b 8.703315
_cell_length_c 27.082647
_cell_angle_alpha 90.000000
_cell_angle_beta 90.000000
_cell_angle_gamma 90.000000
_cell_volume 4425.324206
_symmetry_space_group_name_H-M "I M M M"
_symmetry_group_IT_number 71
_symmetry_cell_setting 'orthorhombic'
loop_
_space_group_symop_operation_xyz
x,y,z
-x,-y,z
x,-y,-z
-x,y,-z
-x,-y,-z
x,y,-z
-x,y,z
x,-y,z
1/2+x,1/2+y,1/2+z
1/2-x,1/2-y,1/2+z
1/2+x,1/2-y,1/2-z
1/2-x,1/2+y,1/2-z
1/2-x,1/2-y,1/2-z
1/2+x,1/2+y,1/2-z
1/2-x,1/2+y,1/2+z
1/2+x,1/2-y,1/2+z
loop_
_atom_site_type_symbol
_atom_site_label
_atom_site_fract_x
_atom_site_fract_y
_atom_site_fract_z
Si Si1 0.713543 0.679952 0.202336
Si Si2 0.214341 0.821919 0.889478
Si Si3 0.421687 0.317800 0.445000
Si Si4 0.419280 0.817849 0.846197
Si Si5 0.646028 0.822680 0.053877
O O1 0.706666 0.500000 0.209367
O O2 0.750000 0.750000 0.250000
O O3 0.763847 0.718734 0.156477
O O4 0.633951 0.746633 0.194155
O O5 0.138765 0.755601 0.908218
O O6 0.270661 0.802453 0.933788
O O7 0.210333 0.000000 0.872754
O O8 0.410686 0.249926 0.500000
O O9 0.500000 0.269977 0.424991
O O10 0.414787 0.500000 0.447944
O O11 0.500000 0.772191 0.832477
O O12 0.400987 0.752239 0.901247
O O13 0.407447 0.000000 0.845767
O O14 0.625799 0.000000 0.049371
O O15 0.630662 0.744605 0.000000
#
# Coordination Sequence:
#
# PCOD8292476 Si02
#       5
#    16  16  16  16  16
#     4  11  22  37  56  74  94 124 165 211 256 301
#     4   9  16  28  47  71  99 130 165 206 249 294
#     4   8  13  22  41  72 105 133 163 202 245 286
#     4   9  18  33  53  78 107 134 161 198 243 290
#     4   8  13  22  41  71 102 132 166 198 228 271
#
# _framework density 18.077773000000001
#
# number of rings (size 3 to 8) (size 9 to 14) (size 15 to 20)
#    0.000    3.000    0.000    4.200    0.000    3.200 
#    0.000    3.000    0.000   19.200    0.000    7.000 
#    0.000    0.000    0.000    0.000    0.000    0.000 
#
# Total GULP energy -495699.809274 kJ/mol
# GULP energy per Si atom -12392.495232 kJ/mol
# Density = 1.803663 g / cm^3
# Si number density = 18.077773 Si / 1000 Ang^3
#
#
#
# Elastic Constant Matrix: (Units=GPa)
#
#
# Indices 1 2 3 4 5 6 
#
# 1 161.1546 38.1025 65.1185 0.0000 0.0000 0.0000
# 2 38.1025 51.1706 32.2675 0.0000 0.0000 0.0000
# 3 65.1185 32.2675 107.4254 0.0000 0.0000 0.0000
# 4 0.0000 0.0000 0.0000 18.2173 0.0000 0.0000
# 5 0.0000 0.0000 0.0000 0.0000 22.0086 0.0000
# 6 0.0000 0.0000 0.0000 0.0000 0.0000 17.1533
#
#
#
# Elastic Compliance Matrix: (Units=1/GPa)
#
#
# Indices 1 2 3 4 5 6 
#
# 1 0.008819 -0.003942 -0.004162 0.000000 0.000000 0.000000
# 2 -0.003942 0.025871 -0.005381 0.000000 0.000000 0.000000
# 3 -0.004162 -0.005381 0.013448 0.000000 0.000000 0.000000
# 4 0.000000 0.000000 0.000000 0.054893 0.000000 0.000000
# 5 0.000000 0.000000 0.000000 0.000000 0.045437 0.000000
# 6 0.000000 0.000000 0.000000 0.000000 0.000000 0.058298
#
#
# Mechanical properties :
#
#
# Convention : Reuss Voigt Hill
#
# Bulk Modulus (GPa) = 47.24201 65.63638 56.43919
# Shear Modulus (GPa) = 20.76479 23.75997 22.26238
#
# Velocity S-wave (km/s) = 3.39283 3.62929 3.51305
# Velocity P-wave (km/s) = 6.44498 7.34499 6.90966
#
# Compressibility (1/GPa) = 0.02116760
#
# Stress axis : x y z
#
# Youngs Moduli (GPa) = 113.39199 38.65265 74.36151
#
# Poissons Ratio (x) = 0.15239 0.30946
# Poissons Ratio (y) = 0.44705 0.40016
# Poissons Ratio (z) = 0.47189 0.20800
#
# Static dielectric constant tensor:
#      x y z
#    x 3.541250 0.000000 0.000000 
#    y 0.000000 2.876300 0.000000 
#    z 0.000000 0.000000 3.411450 
# 
# 
# High freq. dielectric constant tensor:
#      x y z
#    x 1.706640 0.000000 0.000000 
#    y 0.000000 1.650400 0.000000 
#    z 0.000000 0.000000 1.690380 
# 
# From -- ./inp_files/14533.got.cif
#   From: 2010.06.25/outbox.cif.g09.slc.cpg/sg71_8_cif.got.tgz:14533.got - 2010.06.28 04:59:45.
