data_PCOD8292115
_publ_section_title
;
Structure prediction by ZEFSAII (Michael W. Deem and Ramdas Pophale) SiO2 
 PCOD8292115
Probable space group: I M M M
;
_chemical_formula_sum "Si O2"
_cell_formula_units_Z 72
_cell_length_a 14.831224
_cell_length_b 30.058460
_cell_length_c 8.240209
_cell_angle_alpha 90.000000
_cell_angle_beta 90.000000
_cell_angle_gamma 90.000000
_cell_volume 3673.516101
_symmetry_space_group_name_H-M "I M M M"
_symmetry_group_IT_number 71
_symmetry_cell_setting 'orthorhombic'
loop_
_space_group_symop_operation_xyz
x,y,z
-x,-y,z
x,-y,-z
-x,y,-z
-x,-y,-z
x,y,-z
-x,y,z
x,-y,z
1/2+x,1/2+y,1/2+z
1/2-x,1/2-y,1/2+z
1/2+x,1/2-y,1/2-z
1/2-x,1/2+y,1/2-z
1/2-x,1/2-y,1/2-z
1/2+x,1/2+y,1/2-z
1/2-x,1/2+y,1/2+z
1/2+x,1/2-y,1/2+z
loop_
_atom_site_type_symbol
_atom_site_label
_atom_site_fract_x
_atom_site_fract_y
_atom_site_fract_z
Si Si1 0.000000 0.326967 0.682338
Si Si2 0.711045 0.551264 0.815868
Si Si3 0.000000 0.769249 0.184967
Si Si4 0.174555 0.633402 0.815209
Si Si5 0.099125 0.052462 0.000000
Si Si6 0.692795 0.708613 0.189371
O O1 0.000000 0.283953 0.796040
O O2 0.086987 0.357575 0.708461
O O3 0.000000 0.308712 0.500000
O O4 0.739731 0.500000 0.792283
O O5 0.800075 0.581487 0.799610
O O6 0.645663 0.567006 0.669821
O O7 0.669283 0.558043 0.000000
O O8 0.089574 0.791371 0.256014
O O9 0.000000 0.781614 0.000000
O O10 0.258402 0.663349 0.751856
O O11 0.151134 0.646148 0.000000
O O12 0.000000 0.074292 0.000000
O O13 0.091674 0.000000 0.000000
O O14 0.750000 0.750000 0.250000
O O15 0.692111 0.711494 0.000000
#
# Coordination Sequence:
#
# PCOD8292115 Si02
#       6
#     8  16   8  16   8  16
#     4  12  24  36  61  89 114 152 200 245 296 361
#     4   9  19  38  62  86 118 160 201 246 303 357
#     4  12  24  40  58  83 120 159 198 244 292 347
#     4  10  22  40  61  86 117 154 195 245 300 352
#     4   9  18  34  58  87 117 153 197 248 298 353
#     4  11  22  38  60  84 115 151 192 239 291 348
#
# _framework density 19.599751000000001
#
# number of rings (size 3 to 8) (size 9 to 14) (size 15 to 20)
#    0.000    1.667    2.222    2.667    1.556    1.333 
#    2.000    2.778    0.000    3.333    0.000    0.000 
#    0.000    0.000    0.000    0.000    0.000    0.000 
#
# Total GULP energy -446246.906231 kJ/mol
# GULP energy per Si atom -12395.747395 kJ/mol
# Density = 1.955514 g / cm^3
# Si number density = 19.599751 Si / 1000 Ang^3
#
#
#
# Elastic Constant Matrix: (Units=GPa)
#
#
# Indices 1 2 3 4 5 6 
#
# 1 158.7357 51.8283 57.9711 0.0049 -0.0032 -0.0010
# 2 51.8283 88.5471 34.4833 -0.0041 -0.0059 -0.0034
# 3 57.9711 34.4833 104.0213 0.0151 -0.0241 0.0010
# 4 0.0049 -0.0041 0.0151 22.5240 -0.0079 -0.0045
# 5 -0.0032 -0.0059 -0.0241 -0.0079 31.7248 0.0021
# 6 -0.0010 -0.0034 0.0010 -0.0045 0.0021 21.6048
#
#
#
# Elastic Compliance Matrix: (Units=1/GPa)
#
#
# Indices 1 2 3 4 5 6 
#
# 1 0.008878 -0.003754 -0.003703 0.000000 -0.000003 0.000000
# 2 -0.003754 0.014555 -0.002733 0.000005 0.000000 0.000002
# 3 -0.003703 -0.002733 0.012583 -0.000008 0.000009 -0.000001
# 4 0.000000 0.000005 -0.000008 0.044397 0.000011 0.000009
# 5 -0.000003 0.000000 0.000009 0.000011 0.031521 -0.000003
# 6 0.000000 0.000002 -0.000001 0.000009 -0.000003 0.046286
#
#
# Mechanical properties :
#
#
# Convention : Reuss Voigt Hill
#
# Bulk Modulus (GPa) = 63.95601 71.09663 67.52632
# Shear Modulus (GPa) = 27.20158 28.97215 28.08687
#
# Velocity S-wave (km/s) = 3.72943 3.84889 3.78963
# Velocity P-wave (km/s) = 7.15868 7.49033 7.32638
#
# Compressibility (1/GPa) = 0.01563575
#
# Stress axis : x y z
#
# Youngs Moduli (GPa) = 112.63789 68.70418 79.47168
#
# Poissons Ratio (x) = 0.25794 0.29430
# Poissons Ratio (y) = 0.42288 0.21718
# Poissons Ratio (z) = 0.41711 0.18775
#
# Static dielectric constant tensor:
#      x y z
#    x 3.541580 -0.000020 0.000050 
#    y -0.000020 3.475200 -0.000020 
#    z 0.000050 -0.000020 3.849170 
# 
# 
# High freq. dielectric constant tensor:
#      x y z
#    x 1.754210 0.000000 0.000000 
#    y 0.000000 1.754600 0.000000 
#    z 0.000000 0.000000 1.779730 
# 
# From -- ./inp_files/6221.got.cif
#   From: 2010.06.25/outbox.cif.g09.slc.cpg/sg71_4_cif.got.tgz:6221.got - 2010.06.28 04:59:45.
