data_PCOD8292084
_publ_section_title
;
Structure prediction by ZEFSAII (Michael W. Deem and Ramdas Pophale) SiO2 
 PCOD8292084
Probable space group: I M M M
;
_chemical_formula_sum "Si O2"
_cell_formula_units_Z 104
_cell_length_a 8.977272
_cell_length_b 29.348969
_cell_length_c 20.416058
_cell_angle_alpha 90.000000
_cell_angle_beta 90.000000
_cell_angle_gamma 90.000000
_cell_volume 5379.093884
_symmetry_space_group_name_H-M "I M M M"
_symmetry_group_IT_number 71
_symmetry_cell_setting 'orthorhombic'
loop_
_space_group_symop_operation_xyz
x,y,z
-x,-y,z
x,-y,-z
-x,y,-z
-x,-y,-z
x,y,-z
-x,y,z
x,-y,z
1/2+x,1/2+y,1/2+z
1/2-x,1/2-y,1/2+z
1/2+x,1/2-y,1/2-z
1/2-x,1/2+y,1/2-z
1/2-x,1/2-y,1/2-z
1/2+x,1/2+y,1/2-z
1/2-x,1/2+y,1/2+z
1/2+x,1/2-y,1/2+z
loop_
_atom_site_type_symbol
_atom_site_label
_atom_site_fract_x
_atom_site_fract_y
_atom_site_fract_z
Si Si1 0.673420 0.715257 0.924505
Si Si2 0.668644 0.551677 0.924350
Si Si3 0.674008 0.868348 0.362846
Si Si4 0.333701 0.054019 0.000000
Si Si5 0.670854 0.729807 0.313774
Si Si6 0.825110 0.052054 0.130993
Si Si7 0.669718 0.369405 0.728419
O O1 0.500000 0.713859 0.906642
O O2 0.741046 0.665566 0.911474
O O3 0.752466 0.752672 0.879684
O O4 0.699845 0.728449 0.000000
O O5 0.500000 0.569000 0.912803
O O6 0.683539 0.500000 0.900108
O O7 0.784033 0.580394 0.882013
O O8 0.711809 0.555763 0.000000
O O9 0.500000 0.860091 0.370027
O O10 0.721549 0.859991 0.288533
O O11 0.250992 0.070922 0.934835
O O12 0.500000 0.074205 0.000000
O O13 0.334630 0.000000 0.000000
O O14 0.500000 0.746400 0.312324
O O15 0.750000 0.750000 0.250000
O O16 0.680649 0.675099 0.317172
O O17 0.776500 0.085584 0.189617
O O18 0.000000 0.054655 0.118892
O O19 0.776167 0.000000 0.147917
O O20 0.500000 0.376206 0.753364
#
# Coordination Sequence:
#
# PCOD8292084 Si02
#       7
#    16  16  16   8  16  16  16
#     4  11  24  42  64  88 117 154 198 248 297 353
#     4   9  19  37  59  81 110 152 197 239 286 341
#     4  12  24  36  57  87 118 153 192 240 294 351
#     4   9  17  31  53  81 113 149 185 229 287 339
#     4  11  22  39  64  89 118 156 197 245 298 356
#     4   9  18  35  59  84 111 148 194 237 278 337
#     4  10  22  39  59  84 115 152 193 236 285 346
#
# _framework density 19.334112000000001
#
# number of rings (size 3 to 8) (size 9 to 14) (size 15 to 20)
#    0.000    1.769    1.538    3.462    0.000    6.462 
#    1.385    2.308    0.000    0.000    0.000    0.000 
#    0.000    0.000    0.000    0.000    0.000    0.000 
#
# Total GULP energy -644944.202619 kJ/mol
# GULP energy per Si atom -12402.773127 kJ/mol
# Density = 1.929011 g / cm^3
# Si number density = 19.334112 Si / 1000 Ang^3
#
#
#
# Elastic Constant Matrix: (Units=GPa)
#
#
# Indices 1 2 3 4 5 6 
#
# 1 121.0199 42.9904 61.5369 0.0001 0.0000 0.0000
# 2 42.9904 94.4874 42.6675 0.0000 0.0000 0.0000
# 3 61.5369 42.6675 100.9432 0.0000 -0.0001 0.0000
# 4 0.0001 0.0000 0.0000 35.8340 0.0000 0.0000
# 5 0.0000 0.0000 -0.0001 0.0000 30.6510 0.0000
# 6 0.0000 0.0000 0.0000 0.0000 0.0000 27.7307
#
#
#
# Elastic Compliance Matrix: (Units=1/GPa)
#
#
# Indices 1 2 3 4 5 6 
#
# 1 0.012542 -0.002785 -0.006468 0.000000 0.000000 0.000000
# 2 -0.002785 0.013699 -0.004092 0.000000 0.000000 0.000000
# 3 -0.006468 -0.004092 0.015579 0.000000 0.000000 0.000000
# 4 0.000000 0.000000 0.000000 0.027906 0.000000 0.000000
# 5 0.000000 0.000000 0.000000 0.000000 0.032625 0.000000
# 6 0.000000 0.000000 0.000000 0.000000 0.000000 0.036061
#
#
# Mechanical properties :
#
#
# Convention : Reuss Voigt Hill
#
# Bulk Modulus (GPa) = 66.10269 67.87113 66.98691
# Shear Modulus (GPa) = 29.38636 30.12686 29.75661
#
# Velocity S-wave (km/s) = 3.90285 3.95172 3.92736
# Velocity P-wave (km/s) = 7.38739 7.48345 7.43557
#
# Compressibility (1/GPa) = 0.01512798
#
# Stress axis : x y z
#
# Youngs Moduli (GPa) = 79.73479 72.99983 64.18708
#
# Poissons Ratio (x) = 0.20333 0.41518
# Poissons Ratio (y) = 0.22209 0.26267
# Poissons Ratio (z) = 0.51574 0.29873
#
# Static dielectric constant tensor:
#      x y z
#    x 3.574260 0.000000 0.000000 
#    y 0.000000 3.645610 0.000000 
#    z 0.000000 0.000000 3.451650 
# 
# 
# High freq. dielectric constant tensor:
#      x y z
#    x 1.753110 0.000000 0.000000 
#    y 0.000000 1.752460 0.000000 
#    z 0.000000 0.000000 1.748820 
# 
# From -- ./inp_files/16970.got.cif
#   From: 2010.06.25/outbox.cif.g09.slc.cpg/sg71_9_cif.got.tgz:16970.got - 2010.06.28 04:59:45.
