data_PCOD8292207
_publ_section_title
;
Structure prediction by ZEFSAII (Michael W. Deem and Ramdas Pophale) SiO2 
 PCOD8292207
Probable space group: I M M M
;
_chemical_formula_sum "Si O2"
_cell_formula_units_Z 112
_cell_length_a 13.442488
_cell_length_b 27.504860
_cell_length_c 13.736185
_cell_angle_alpha 90.000000
_cell_angle_beta 90.000000
_cell_angle_gamma 90.000000
_cell_volume 5078.731197
_symmetry_space_group_name_H-M "I M M M"
_symmetry_group_IT_number 71
_symmetry_cell_setting 'orthorhombic'
loop_
_space_group_symop_operation_xyz
x,y,z
-x,-y,z
x,-y,-z
-x,y,-z
-x,-y,-z
x,y,-z
-x,y,z
x,-y,z
1/2+x,1/2+y,1/2+z
1/2-x,1/2-y,1/2+z
1/2+x,1/2-y,1/2-z
1/2-x,1/2+y,1/2-z
1/2-x,1/2-y,1/2-z
1/2+x,1/2+y,1/2-z
1/2-x,1/2+y,1/2+z
1/2+x,1/2-y,1/2+z
loop_
_atom_site_type_symbol
_atom_site_label
_atom_site_fract_x
_atom_site_fract_y
_atom_site_fract_z
Si Si1 0.881518 0.296712 0.204417
Si Si2 0.890680 0.855944 0.384859
Si Si3 0.884183 0.093271 0.886269
Si Si4 0.118489 0.750599 0.607094
Si Si5 0.383380 0.896849 0.613736
Si Si6 0.216933 0.054300 0.707562
Si Si7 0.116571 0.200845 0.107344
O O1 0.853022 0.293589 0.319429
O O2 0.840790 0.344773 0.151457
O O3 0.832761 0.247447 0.158749
O O4 0.000000 0.295991 0.190648
O O5 0.897280 0.852938 0.500000
O O6 0.843534 0.803552 0.351413
O O7 0.832674 0.904351 0.357411
O O8 0.000000 0.861803 0.337985
O O9 0.812496 0.059282 0.821532
O O10 0.864175 0.147926 0.844544
O O11 0.000000 0.078931 0.872398
O O12 0.855709 0.088013 0.000000
O O13 0.161213 0.737940 0.500000
O O14 0.000000 0.756241 0.601978
O O15 0.355002 0.902538 0.500000
O O16 0.500000 0.901575 0.629751
O O17 0.333931 0.938203 0.682467
O O18 0.186044 0.000000 0.674675
O O19 0.000000 0.210171 0.103120
O O20 0.161772 0.198537 0.000000
#
# Coordination Sequence:
#
# PCOD8292207 Si02
#       7
#    16  16  16  16  16  16  16
#     4   9  15  27  52  81 108 142 186 234 283 337
#     4   9  18  33  53  81 120 158 186 219 273 343
#     4   9  19  37  61  91 128 163 189 218 265 333
#     4   8  14  26  47  77 115 156 185 206 252 332
#     4  10  23  43  63  83 109 143 189 248 309 357
#     4  12  25  39  58  82 108 144 195 250 297 340
#     4   8  13  24  48  82 116 150 185 218 261 327
#
# _framework density 22.052752000000002
#
# number of rings (size 3 to 8) (size 9 to 14) (size 15 to 20)
#    0.000    2.714    0.000    3.857    0.000    6.857 
#    0.000    5.714    0.000    4.714    0.000    1.000 
#    0.000    0.000    0.000    0.000    0.000    0.000 
#
# Total GULP energy -693833.132962 kJ/mol
# GULP energy per Si atom -12389.877374 kJ/mol
# Density = 2.200256 g / cm^3
# Si number density = 22.052752 Si / 1000 Ang^3
#
#
#
# Elastic Constant Matrix: (Units=GPa)
#
#
# Indices 1 2 3 4 5 6 
#
# 1 46.5809 31.1841 21.8284 0.0000 0.0000 0.0000
# 2 31.1841 117.1099 49.3876 0.0002 0.0000 0.0000
# 3 21.8284 49.3876 92.5611 0.0010 -0.0004 -0.0001
# 4 0.0000 0.0002 0.0010 15.4425 -0.0001 0.0000
# 5 0.0000 0.0000 -0.0004 -0.0001 19.0830 0.0000
# 6 0.0000 0.0000 -0.0001 0.0000 0.0000 20.4974
#
#
#
# Elastic Compliance Matrix: (Units=1/GPa)
#
#
# Indices 1 2 3 4 5 6 
#
# 1 0.026862 -0.005782 -0.003249 0.000000 0.000000 0.000000
# 2 -0.005782 0.012263 -0.005180 0.000000 0.000000 0.000000
# 3 -0.003249 -0.005180 0.014334 -0.000001 0.000000 0.000000
# 4 0.000000 0.000000 -0.000001 0.064756 0.000000 0.000000
# 5 0.000000 0.000000 0.000000 0.000000 0.052403 0.000000
# 6 0.000000 0.000000 0.000000 0.000000 0.000000 0.048787
#
#
# Mechanical properties :
#
#
# Convention : Reuss Voigt Hill
#
# Bulk Modulus (GPa) = 39.94285 51.22801 45.58543
# Shear Modulus (GPa) = 19.51813 21.26138 20.38975
#
# Velocity S-wave (km/s) = 2.97823 3.10839 3.04401
# Velocity P-wave (km/s) = 5.47524 6.01356 5.75070
#
# Compressibility (1/GPa) = 0.02503577
#
# Stress axis : x y z
#
# Youngs Moduli (GPa) = 37.22746 81.54579 69.76624
#
# Poissons Ratio (x) = 0.47154 0.22670
# Poissons Ratio (y) = 0.21527 0.36135
# Poissons Ratio (z) = 0.12097 0.42237
#
# Static dielectric constant tensor:
#      x y z
#    x 3.878530 0.000000 0.000000 
#    y 0.000000 3.848460 0.000000 
#    z 0.000000 0.000000 4.097320 
# 
# 
# High freq. dielectric constant tensor:
#      x y z
#    x 1.860620 0.000000 0.000000 
#    y 0.000000 1.841840 0.000000 
#    z 0.000000 0.000000 1.872640 
# 
# From -- ./inp_files/35115.got.cif
#   From: 2010.06.25/outbox.cif.g09.slc.cpg/sg71_18_cif.got.tgz:35115.got - 2010.06.28 04:59:45.
