data_PCOD8292862
_publ_section_title
;
Structure prediction by ZEFSAII (Michael W. Deem and Ramdas Pophale) SiO2 
 PCOD8292862
Probable space group: I B A M
;
_chemical_formula_sum "Si O2"
_cell_formula_units_Z 68
_cell_length_a 24.057753
_cell_length_b 9.764590
_cell_length_c 19.555779
_cell_angle_alpha 90.000000
_cell_angle_beta 90.000000
_cell_angle_gamma 90.000000
_cell_volume 4593.928113
_symmetry_space_group_name_H-M "I B A M"
_symmetry_group_IT_number 72
_symmetry_cell_setting 'orthorhombic'
loop_
_space_group_symop_operation_xyz
x,y,z
-x,-y,z
x,-y,1/2-z
-x,y,1/2-z
-x,-y,-z
x,y,-z
-x,y,1/2+z
x,-y,1/2+z
1/2+x,1/2+y,1/2+z
1/2-x,1/2-y,1/2+z
1/2+x,1/2-y,-z
1/2-x,1/2+y,-z
1/2-x,1/2-y,1/2-z
1/2+x,1/2+y,1/2-z
1/2-x,1/2+y,z
1/2+x,1/2-y,z
loop_
_atom_site_type_symbol
_atom_site_label
_atom_site_fract_x
_atom_site_fract_y
_atom_site_fract_z
Si Si1 0.737110 0.219643 0.858738
Si Si2 0.687797 0.953970 0.078714
Si Si3 0.329745 0.347868 0.754140
Si Si4 0.393459 0.897347 0.305750
Si Si5 0.500000 0.000000 0.250000
O O1 0.715545 0.101537 0.908895
O O2 0.770075 0.333029 0.901634
O O3 0.685245 0.292573 0.821321
O O4 0.774945 0.149113 0.801043
O O5 0.630146 0.939224 0.120415
O O6 0.671664 0.940664 0.000000
O O7 0.354270 0.500000 0.750000
O O8 0.377800 0.257508 0.788043
O O9 0.460659 0.909730 0.300373
O O10 0.365047 0.000000 0.250000
#
# Coordination Sequence:
#
# PCOD8292862 Si02
#       5
#    16  16  16  16   4
#     4  10  18  28  43  67 100 135 151 186 219 271
#     4  11  20  30  44  71 101 127 156 183 228 286
#     4  10  17  27  48  71  93 123 166 190 222 271
#     4   9  18  32  53  67  87 120 157 202 238 266
#     4   8  16  36  56  68  84 112 160 216 248 262
#
# _framework density 14.802148000000001
#
# number of rings (size 3 to 8) (size 9 to 14) (size 15 to 20)
#    0.706    1.412    4.706    0.706    0.000    0.000 
#    0.000    1.176    0.000    0.000    0.000    0.000 
#    0.000    6.118    0.000    0.000    0.000    0.000 
#
# Total GULP energy -421468.046132 kJ/mol
# GULP energy per Si atom -12396.119004 kJ/mol
# Density = 1.476846 g / cm^3
# Si number density = 14.802148 Si / 1000 Ang^3
#
#
#
# Elastic Constant Matrix: (Units=GPa)
#
#
# Indices 1 2 3 4 5 6 
#
# 1 88.5456 35.7244 37.1107 0.0000 0.0000 0.0000
# 2 35.7244 109.9820 36.9645 0.0000 0.0000 0.0000
# 3 37.1107 36.9645 109.0379 0.0000 0.0000 0.0000
# 4 0.0000 0.0000 0.0000 20.3042 0.0000 0.0000
# 5 0.0000 0.0000 0.0000 0.0000 13.0532 0.0000
# 6 0.0000 0.0000 0.0000 0.0000 0.0000 10.5159
#
#
#
# Elastic Compliance Matrix: (Units=1/GPa)
#
#
# Indices 1 2 3 4 5 6 
#
# 1 0.014201 -0.003373 -0.003690 0.000000 0.000000 0.000000
# 2 -0.003373 0.011063 -0.002602 0.000000 0.000000 0.000000
# 3 -0.003690 -0.002602 0.011309 0.000000 0.000000 0.000000
# 4 0.000000 0.000000 0.000000 0.049251 0.000000 0.000000
# 5 0.000000 0.000000 0.000000 0.000000 0.076610 0.000000
# 6 0.000000 0.000000 0.000000 0.000000 0.000000 0.095095
#
#
# Mechanical properties :
#
#
# Convention : Reuss Voigt Hill
#
# Bulk Modulus (GPa) = 57.99519 58.57384 58.28452
# Shear Modulus (GPa) = 17.69255 21.95905 19.82580
#
# Velocity S-wave (km/s) = 3.46102 3.85581 3.66373
# Velocity P-wave (km/s) = 7.43215 7.71233 7.57354
#
# Compressibility (1/GPa) = 0.01724281
#
# Stress axis : x y z
#
# Youngs Moduli (GPa) = 70.41866 90.39521 88.42361
#
# Poissons Ratio (x) = 0.30486 0.32627
# Poissons Ratio (y) = 0.23749 0.23012
# Poissons Ratio (z) = 0.25984 0.23525
#
# Static dielectric constant tensor:
#      x y z
#    x 2.525770 0.000000 0.000000 
#    y 0.000000 2.894180 0.000000 
#    z 0.000000 0.000000 2.729200 
# 
# 
# High freq. dielectric constant tensor:
#      x y z
#    x 1.530200 0.000000 0.000000 
#    y 0.000000 1.577480 0.000000 
#    z 0.000000 0.000000 1.554450 
# 
# From -- ./inp_files/28268.got.cif
#   From: 2010.03.12/outbox.cif.g09.slc.cpg/sg72_15_cif.got.tgz:28268.got - 2010.04.16 14:54:00.
