data_PCOD8292078
_publ_section_title
;
Structure prediction by ZEFSAII (Michael W. Deem and Ramdas Pophale) SiO2 
 PCOD8292078
Probable space group: I M M M
;
_chemical_formula_sum "Si O2"
_cell_formula_units_Z 88
_cell_length_a 20.847197
_cell_length_b 17.652762
_cell_length_c 12.489995
_cell_angle_alpha 90.000000
_cell_angle_beta 90.000000
_cell_angle_gamma 90.000000
_cell_volume 4596.450641
_symmetry_space_group_name_H-M "I M M M"
_symmetry_group_IT_number 71
_symmetry_cell_setting 'orthorhombic'
loop_
_space_group_symop_operation_xyz
x,y,z
-x,-y,z
x,-y,-z
-x,y,-z
-x,-y,-z
x,y,-z
-x,y,z
x,-y,z
1/2+x,1/2+y,1/2+z
1/2-x,1/2-y,1/2+z
1/2+x,1/2-y,1/2-z
1/2-x,1/2+y,1/2-z
1/2-x,1/2-y,1/2-z
1/2+x,1/2+y,1/2-z
1/2-x,1/2+y,1/2+z
1/2+x,1/2-y,1/2+z
loop_
_atom_site_type_symbol
_atom_site_label
_atom_site_fract_x
_atom_site_fract_y
_atom_site_fract_z
Si Si1 0.255613 0.089479 0.500000
Si Si2 0.075286 0.000000 0.626764
Si Si3 0.102665 0.409926 0.000000
Si Si4 0.765165 0.413977 0.375956
Si Si5 0.500000 0.149180 0.882657
Si Si6 0.863110 0.284070 0.621619
Si Si7 0.830387 0.126617 0.698009
Si Si8 0.500000 0.914265 0.340407
O O1 0.326657 0.126008 0.500000
O O2 0.221913 0.117054 0.393414
O O3 0.255967 0.000000 0.500000
O O4 0.107267 0.925093 0.676906
O O5 0.087654 0.000000 0.500000
O O6 0.000000 0.000000 0.654348
O O7 0.064338 0.379576 0.894451
O O8 0.111221 0.500000 0.000000
O O9 0.747399 0.404510 0.500000
O O10 0.787892 0.500000 0.350911
O O11 0.823372 0.358489 0.342580
O O12 0.700737 0.395055 0.311186
O O13 0.438479 0.201734 0.870852
O O14 0.500000 0.088688 0.787613
O O15 0.500000 0.108339 0.000000
O O16 0.844523 0.261399 0.500000
O O17 0.849372 0.214767 0.701153
O O18 0.500000 0.000000 0.378212
#
# Coordination Sequence:
#
# PCOD8292078 Si02
#       8
#     8   8   8  16   8  16  16   8
#     4  11  19  32  57  94 119 143 187 251 299 344
#     4  11  22  36  59  95 127 153 189 243 305 359
#     4   8  18  33  56  82 116 149 186 237 296 346
#     4  10  22  40  61  85 120 158 193 237 291 352
#     4  10  23  38  54  79 115 155 197 235 283 346
#     4  10  22  39  58  85 116 156 197 243 297 345
#     4  12  20  39  61  90 119 148 199 243 295 356
#     4   9  18  37  55  79 112 157 198 233 289 347
#
# _framework density 19.145206000000002
#
# number of rings (size 3 to 8) (size 9 to 14) (size 15 to 20)
#    0.000    1.727    3.636    1.091    3.818    0.909 
#    0.000    1.818    2.000    1.091    0.000    0.000 
#    0.000    0.000    0.000    0.000    0.000    0.000 
#
# Total GULP energy -545517.193257 kJ/mol
# GULP energy per Si atom -12398.118029 kJ/mol
# Density = 1.910163 g / cm^3
# Si number density = 19.145206 Si / 1000 Ang^3
#
#
#
# Elastic Constant Matrix: (Units=GPa)
#
#
# Indices 1 2 3 4 5 6 
#
# 1 152.9320 54.7993 51.9791 0.0000 0.0000 0.0000
# 2 54.7993 120.6199 36.9752 0.0000 0.0000 0.0000
# 3 51.9791 36.9752 96.2898 0.0000 0.0000 0.0000
# 4 0.0000 0.0000 0.0000 25.6380 0.0000 0.0000
# 5 0.0000 0.0000 0.0000 0.0000 17.4626 0.0000
# 6 0.0000 0.0000 0.0000 0.0000 0.0000 15.0612
#
#
#
# Elastic Compliance Matrix: (Units=1/GPa)
#
#
# Indices 1 2 3 4 5 6 
#
# 1 0.008813 -0.002885 -0.003650 0.000000 0.000000 0.000000
# 2 -0.002885 0.010341 -0.002414 0.000000 0.000000 0.000000
# 3 -0.003650 -0.002414 0.013282 0.000000 0.000000 0.000000
# 4 0.000000 0.000000 0.000000 0.039005 0.000000 0.000000
# 5 0.000000 0.000000 0.000000 0.000000 0.057265 0.000000
# 6 0.000000 0.000000 0.000000 0.000000 0.000000 0.066396
#
#
# Mechanical properties :
#
#
# Convention : Reuss Voigt Hill
#
# Bulk Modulus (GPa) = 68.77612 73.03875 70.90743
# Shear Modulus (GPa) = 22.95205 26.70488 24.82847
#
# Velocity S-wave (km/s) = 3.46618 3.73883 3.60509
# Velocity P-wave (km/s) = 7.21253 7.54130 7.37875
#
# Compressibility (1/GPa) = 0.01453993
#
# Stress axis : x y z
#
# Youngs Moduli (GPa) = 113.46724 96.70127 75.28859
#
# Poissons Ratio (x) = 0.27900 0.27477
# Poissons Ratio (y) = 0.32737 0.18171
# Poissons Ratio (z) = 0.41411 0.23339
#
# Static dielectric constant tensor:
#      x y z
#    x 3.692260 0.000000 0.000000 
#    y 0.000000 3.408090 0.000000 
#    z 0.000000 0.000000 3.519250 
# 
# 
# High freq. dielectric constant tensor:
#      x y z
#    x 1.750510 0.000000 0.000000 
#    y 0.000000 1.727270 0.000000 
#    z 0.000000 0.000000 1.739510 
# 
# From -- ./inp_files/25721.got.cif
#   From: 2010.06.25/outbox.cif.g09.slc.cpg/sg71_13_cif.got.tgz:25721.got - 2010.06.28 04:59:45.
