data_PCOD8292989
_publ_section_title
;
Structure prediction by ZEFSAII (Michael W. Deem and Ramdas Pophale) SiO2 
 PCOD8292989
Probable space group: I B A M
;
_chemical_formula_sum "Si O2"
_cell_formula_units_Z 104
_cell_length_a 18.753682
_cell_length_b 12.999684
_cell_length_c 25.028448
_cell_angle_alpha 90.000000
_cell_angle_beta 90.000000
_cell_angle_gamma 90.000000
_cell_volume 6101.733889
_symmetry_space_group_name_H-M "I B A M"
_symmetry_group_IT_number 72
_symmetry_cell_setting 'orthorhombic'
loop_
_space_group_symop_operation_xyz
x,y,z
-x,-y,z
x,-y,1/2-z
-x,y,1/2-z
-x,-y,-z
x,y,-z
-x,y,1/2+z
x,-y,1/2+z
1/2+x,1/2+y,1/2+z
1/2-x,1/2-y,1/2+z
1/2+x,1/2-y,-z
1/2-x,1/2+y,-z
1/2-x,1/2-y,1/2-z
1/2+x,1/2+y,1/2-z
1/2-x,1/2+y,z
1/2+x,1/2-y,z
loop_
_atom_site_type_symbol
_atom_site_label
_atom_site_fract_x
_atom_site_fract_y
_atom_site_fract_z
Si Si1 0.728211 0.876662 0.371869
Si Si2 0.530556 0.212268 0.438318
Si Si3 0.000000 0.500000 0.112196
Si Si4 0.765680 0.934875 0.938359
Si Si5 0.663171 0.203774 0.372201
Si Si6 0.627175 0.010974 0.689102
Si Si7 0.125864 0.236263 0.938497
O O1 0.785339 0.793651 0.350795
O O2 0.664024 0.822872 0.403458
O O3 0.770006 0.954980 0.410303
O O4 0.696590 0.939809 0.321653
O O5 0.551536 0.229246 0.500000
O O6 0.593434 0.254224 0.399979
O O7 0.457610 0.272202 0.423833
O O8 0.519843 0.091949 0.427131
O O9 0.065498 0.469887 0.150336
O O10 0.700518 0.866731 0.916814
O O11 0.839979 0.875601 0.928073
O O12 0.750851 0.954117 0.000000
O O13 0.642752 0.131599 0.322119
O O14 0.603078 0.000000 0.750000
O O15 0.135501 0.270030 0.000000
#
# Coordination Sequence:
#
# PCOD8292989 Si02
#       7
#    16  16   8  16  16  16  16
#     4  10  18  33  49  68  96 131 162 200 246 286
#     4  10  18  29  47  72 102 130 158 192 232 290
#     4  10  18  32  48  74 102 128 154 192 250 300
#     4   9  17  29  46  69  97 130 164 195 233 288
#     4   9  20  32  47  70  99 125 163 202 244 289
#     4  10  20  33  51  73  95 123 162 209 252 293
#     4   9  17  29  46  69  98 131 163 191 233 292
#
# _framework density 17.044335
#
# number of rings (size 3 to 8) (size 9 to 14) (size 15 to 20)
#    0.000    2.462    1.538    1.385    0.000    2.462 
#    0.000    0.769    0.000    2.769    0.000    0.000 
#    0.000    0.000    0.000    0.000    0.000    0.000 
#
# Total GULP energy -644780.688241 kJ/mol
# GULP energy per Si atom -12399.628620 kJ/mol
# Density = 1.700554 g / cm^3
# Si number density = 17.044335 Si / 1000 Ang^3
#
#
#
# Elastic Constant Matrix: (Units=GPa)
#
#
# Indices 1 2 3 4 5 6 
#
# 1 92.4537 24.3320 18.7598 0.0000 0.0000 0.0000
# 2 24.3320 56.9369 14.1192 0.0000 0.0000 0.0000
# 3 18.7598 14.1192 51.7473 0.0000 0.0000 0.0000
# 4 0.0000 0.0000 0.0000 14.8742 0.0000 0.0000
# 5 0.0000 0.0000 0.0000 0.0000 12.0410 0.0000
# 6 0.0000 0.0000 0.0000 0.0000 0.0000 25.9207
#
#
#
# Elastic Compliance Matrix: (Units=1/GPa)
#
#
# Indices 1 2 3 4 5 6 
#
# 1 0.012707 -0.004599 -0.003352 0.000000 0.000000 0.000000
# 2 -0.004599 0.020502 -0.003927 0.000000 0.000000 0.000000
# 3 -0.003352 -0.003927 0.021611 0.000000 0.000000 0.000000
# 4 0.000000 0.000000 0.000000 0.067231 0.000000 0.000000
# 5 0.000000 0.000000 0.000000 0.000000 0.083050 0.000000
# 6 0.000000 0.000000 0.000000 0.000000 0.000000 0.038579
#
#
# Mechanical properties :
#
#
# Convention : Reuss Voigt Hill
#
# Bulk Modulus (GPa) = 32.19029 35.06223 33.62626
# Shear Modulus (GPa) = 17.99921 20.16231 19.08076
#
# Velocity S-wave (km/s) = 3.25318 3.44311 3.34949
# Velocity P-wave (km/s) = 5.74788 6.03511 5.89324
#
# Compressibility (1/GPa) = 0.03106527
#
# Stress axis : x y z
#
# Youngs Moduli (GPa) = 78.69868 48.77459 46.27239
#
# Poissons Ratio (x) = 0.22432 0.15509
# Poissons Ratio (y) = 0.36194 0.18170
# Poissons Ratio (z) = 0.26377 0.19153
#
# Static dielectric constant tensor:
#      x y z
#    x 3.356750 0.000000 0.000000 
#    y 0.000000 3.081810 0.000000 
#    z 0.000000 0.000000 2.906510 
# 
# 
# High freq. dielectric constant tensor:
#      x y z
#    x 1.664590 0.000000 0.000000 
#    y 0.000000 1.642580 0.000000 
#    z 0.000000 0.000000 1.633350 
# 
# From -- ./inp_files/44946.got.cif
#   From: 2010.03.12/outbox.cif.g09.slc.cpg/sg72_23_cif.got.tgz:44946.got - 2010.04.16 14:54:00.
