data_PCOD8292497
_publ_section_title
;
Structure prediction by ZEFSAII (Michael W. Deem and Ramdas Pophale) SiO2 
 PCOD8292497
Probable space group: I M M M
;
_chemical_formula_sum "Si O2"
_cell_formula_units_Z 64
_cell_length_a 8.623338
_cell_length_b 10.672616
_cell_length_c 32.985195
_cell_angle_alpha 90.000000
_cell_angle_beta 90.000000
_cell_angle_gamma 90.000000
_cell_volume 3035.745422
_symmetry_space_group_name_H-M "I M M M"
_symmetry_group_IT_number 71
_symmetry_cell_setting 'orthorhombic'
loop_
_space_group_symop_operation_xyz
x,y,z
-x,-y,z
x,-y,-z
-x,y,-z
-x,-y,-z
x,y,-z
-x,y,z
x,-y,z
1/2+x,1/2+y,1/2+z
1/2-x,1/2-y,1/2+z
1/2+x,1/2-y,1/2-z
1/2-x,1/2+y,1/2-z
1/2-x,1/2-y,1/2-z
1/2+x,1/2+y,1/2-z
1/2-x,1/2+y,1/2+z
1/2+x,1/2-y,1/2+z
loop_
_atom_site_type_symbol
_atom_site_label
_atom_site_fract_x
_atom_site_fract_y
_atom_site_fract_z
Si Si1 0.182415 0.239160 0.336358
Si Si2 0.182293 0.740883 0.920902
Si Si3 0.815979 0.000000 0.713631
Si Si4 0.668247 0.358099 0.000000
Si Si5 0.183647 0.000000 0.805756
Si Si6 0.817338 0.000000 0.045092
O O1 0.225529 0.194140 0.381580
O O2 0.246379 0.127942 0.307267
O O3 0.259053 0.373269 0.327157
O O4 0.000000 0.254432 0.331583
O O5 0.236296 0.882570 0.928848
O O6 0.000000 0.726878 0.913051
O O7 0.228611 0.665274 0.960558
O O8 0.755500 0.000000 0.759631
O O9 0.000000 0.000000 0.710962
O O10 0.623646 0.500000 0.000000
O O11 0.500000 0.285750 0.000000
O O12 0.000000 0.000000 0.808258
O O13 0.000000 0.000000 0.038980
O O14 0.741041 0.000000 0.000000
#
# Coordination Sequence:
#
# PCOD8292497 Si02
#       6
#    16  16   8   8   8   8
#     4  11  23  41  64  94 130 169 208 258 323 386
#     4  11  22  39  63  91 122 159 207 260 309 368
#     4   9  22  42  66  92 126 167 209 260 321 384
#     4  11  25  42  59  82 120 169 212 257 311 367
#     4  11  22  42  67  95 126 164 213 263 314 377
#     4   9  17  34  57  81 112 149 188 243 306 351
#
# _framework density 21.082138
#
# number of rings (size 3 to 8) (size 9 to 14) (size 15 to 20)
#    0.000    1.500    1.250    3.750    1.750    2.000 
#    0.000    8.125    0.000    0.000    0.000    0.000 
#    0.000    0.000    0.000    0.000    0.000    0.000 
#
# Total GULP energy -396744.265421 kJ/mol
# GULP energy per Si atom -12398.258294 kJ/mol
# Density = 2.103415 g / cm^3
# Si number density = 21.082138 Si / 1000 Ang^3
#
#
#
# Elastic Constant Matrix: (Units=GPa)
#
#
# Indices 1 2 3 4 5 6 
#
# 1 65.3278 27.7015 24.0639 0.0000 0.0000 0.0000
# 2 27.7015 111.8769 35.9104 0.0000 0.0000 0.0000
# 3 24.0639 35.9104 148.0695 0.0000 0.0000 0.0000
# 4 0.0000 0.0000 0.0000 13.6715 0.0000 0.0000
# 5 0.0000 0.0000 0.0000 0.0000 40.6848 0.0000
# 6 0.0000 0.0000 0.0000 0.0000 0.0000 18.8027
#
#
#
# Elastic Compliance Matrix: (Units=1/GPa)
#
#
# Indices 1 2 3 4 5 6 
#
# 1 0.017611 -0.003732 -0.001957 0.000000 0.000000 0.000000
# 2 -0.003732 0.010484 -0.001936 0.000000 0.000000 0.000000
# 3 -0.001957 -0.001936 0.007541 0.000000 0.000000 0.000000
# 4 0.000000 0.000000 0.000000 0.073145 0.000000 0.000000
# 5 0.000000 0.000000 0.000000 0.000000 0.024579 0.000000
# 6 0.000000 0.000000 0.000000 0.000000 0.000000 0.053184
#
#
# Mechanical properties :
#
#
# Convention : Reuss Voigt Hill
#
# Bulk Modulus (GPa) = 49.05483 55.62509 52.33996
# Shear Modulus (GPa) = 23.97047 30.47169 27.22108
#
# Velocity S-wave (km/s) = 3.37561 3.80594 3.59721
# Velocity P-wave (km/s) = 6.20580 6.76430 6.49106
#
# Compressibility (1/GPa) = 0.02038535
#
# Stress axis : x y z
#
# Youngs Moduli (GPa) = 56.78282 95.38335 132.60580
#
# Poissons Ratio (x) = 0.35602 0.25949
# Poissons Ratio (y) = 0.21194 0.25673
# Poissons Ratio (z) = 0.11112 0.18467
#
# Static dielectric constant tensor:
#      x y z
#    x 3.591940 0.000000 0.000000 
#    y 0.000000 3.817160 0.000000 
#    z 0.000000 0.000000 4.048440 
# 
# 
# High freq. dielectric constant tensor:
#      x y z
#    x 1.813170 0.000000 0.000000 
#    y 0.000000 1.832690 0.000000 
#    z 0.000000 0.000000 1.841460 
# 
# From -- ./inp_files/67741.got.cif
#   From: 2010.06.25/outbox.cif.g09.slc.cpg/sg71_34_cif.got.tgz:67741.got - 2010.06.28 04:59:45.
