data_PCOD8292467
_publ_section_title
;
Structure prediction by ZEFSAII (Michael W. Deem and Ramdas Pophale) SiO2 
 PCOD8292467
Probable space group: I M M M
;
_chemical_formula_sum "Si O2"
_cell_formula_units_Z 104
_cell_length_a 19.576570
_cell_length_b 9.068130
_cell_length_c 28.869736
_cell_angle_alpha 90.000000
_cell_angle_beta 90.000000
_cell_angle_gamma 90.000000
_cell_volume 5125.038729
_symmetry_space_group_name_H-M "I M M M"
_symmetry_group_IT_number 71
_symmetry_cell_setting 'orthorhombic'
loop_
_space_group_symop_operation_xyz
x,y,z
-x,-y,z
x,-y,-z
-x,y,-z
-x,-y,-z
x,y,-z
-x,y,z
x,-y,z
1/2+x,1/2+y,1/2+z
1/2-x,1/2-y,1/2+z
1/2+x,1/2-y,1/2-z
1/2-x,1/2+y,1/2-z
1/2-x,1/2-y,1/2-z
1/2+x,1/2+y,1/2-z
1/2-x,1/2+y,1/2+z
1/2+x,1/2-y,1/2+z
loop_
_atom_site_type_symbol
_atom_site_label
_atom_site_fract_x
_atom_site_fract_y
_atom_site_fract_z
Si Si1 0.921262 0.672674 0.553253
Si Si2 0.923754 0.334025 0.149920
Si Si3 0.576065 0.674913 0.500000
Si Si4 0.801011 0.174099 0.605779
Si Si5 0.423689 0.835546 0.759244
Si Si6 0.831578 0.173606 0.083923
Si Si7 0.202975 0.171265 0.287959
O O1 0.904346 0.715582 0.500000
O O2 0.908659 0.500000 0.560879
O O3 0.873235 0.761151 0.588772
O O4 0.000000 0.712837 0.564401
O O5 0.906225 0.500000 0.133129
O O6 0.919848 0.326280 0.204526
O O7 0.867518 0.220221 0.131689
O O8 0.000000 0.289403 0.133219
O O9 0.571183 0.500000 0.500000
O O10 0.500000 0.744161 0.500000
O O11 0.616972 0.730136 0.455425
O O12 0.740616 0.246394 0.575663
O O13 0.782063 0.215262 0.658925
O O14 0.803238 0.000000 0.598361
O O15 0.500000 0.802081 0.776828
O O16 0.375731 0.712536 0.780937
O O17 0.401334 0.000000 0.775218
O O18 0.818658 0.000000 0.082815
O O19 0.250000 0.250000 0.250000
O O20 0.214451 0.000000 0.280020
#
# Coordination Sequence:
#
# PCOD8292467 Si02
#       7
#    16  16   8  16  16  16  16
#     4   9  20  41  68  95 122 153 195 248 302 362
#     4   9  18  34  55  80 113 150 188 235 291 348
#     4   9  20  38  57  81 114 147 180 227 283 328
#     4  11  25  41  58  86 122 158 196 242 299 359
#     4   9  19  36  58  83 112 148 188 234 290 347
#     4  11  22  36  57  83 111 148 194 241 284 336
#     4  11  24  40  58  82 117 158 200 248 298 352
#
# _framework density 20.292529999999999
#
# number of rings (size 3 to 8) (size 9 to 14) (size 15 to 20)
#    0.000    2.077    0.000    4.154    1.077    9.231 
#    0.000    6.538    0.000    2.769    0.000    0.000 
#    0.000    0.000    0.000    0.000    0.000    0.000 
#
# Total GULP energy -644758.439808 kJ/mol
# GULP energy per Si atom -12399.200766 kJ/mol
# Density = 2.024634 g / cm^3
# Si number density = 20.292530 Si / 1000 Ang^3
#
#
#
# Elastic Constant Matrix: (Units=GPa)
#
#
# Indices 1 2 3 4 5 6 
#
# 1 144.2477 60.0620 54.9603 0.0000 0.0000 0.0000
# 2 60.0620 79.7257 52.1033 0.0000 0.0000 0.0000
# 3 54.9603 52.1033 75.7422 0.0000 0.0000 0.0000
# 4 0.0000 0.0000 0.0000 28.0352 0.0000 0.0000
# 5 0.0000 0.0000 0.0000 0.0000 28.8688 0.0000
# 6 0.0000 0.0000 0.0000 0.0000 0.0000 40.0750
#
#
#
# Elastic Compliance Matrix: (Units=1/GPa)
#
#
# Indices 1 2 3 4 5 6 
#
# 1 0.010743 -0.005448 -0.004048 0.000000 0.000000 0.000000
# 2 -0.005448 0.025551 -0.013623 0.000000 0.000000 0.000000
# 3 -0.004048 -0.013623 0.025511 0.000000 0.000000 0.000000
# 4 0.000000 0.000000 0.000000 0.035669 0.000000 0.000000
# 5 0.000000 0.000000 0.000000 0.000000 0.034639 0.000000
# 6 0.000000 0.000000 0.000000 0.000000 0.000000 0.024953
#
#
# Mechanical properties :
#
#
# Convention : Reuss Voigt Hill
#
# Bulk Modulus (GPa) = 64.23803 70.44078 67.33940
# Shear Modulus (GPa) = 23.98154 28.23515 26.10834
#
# Velocity S-wave (km/s) = 3.44145 3.73420 3.59081
# Velocity P-wave (km/s) = 6.89320 7.30619 7.10269
#
# Compressibility (1/GPa) = 0.01556710
#
# Stress axis : x y z
#
# Youngs Moduli (GPa) = 93.08123 39.13816 39.19867
#
# Poissons Ratio (x) = 0.21323 0.15867
# Poissons Ratio (y) = 0.50713 0.53400
# Poissons Ratio (z) = 0.37677 0.53318
#
# Static dielectric constant tensor:
#      x y z
#    x 4.067960 0.000000 0.000000 
#    y 0.000000 3.581710 0.000000 
#    z 0.000000 0.000000 3.657860 
# 
# 
# High freq. dielectric constant tensor:
#      x y z
#    x 1.809400 0.000000 0.000000 
#    y 0.000000 1.780960 0.000000 
#    z 0.000000 0.000000 1.785990 
# 
# From -- ./inp_files/66452.got.cif
#   From: 2010.06.25/outbox.cif.g09.slc.cpg/sg71_34_cif.got.tgz:66452.got - 2010.06.28 04:59:45.
