data_PCOD8292886
_publ_section_title
;
Structure prediction by ZEFSAII (Michael W. Deem and Ramdas Pophale) SiO2 
 PCOD8292886
Probable space group: I B A M
;
_chemical_formula_sum "Si O2"
_cell_formula_units_Z 80
_cell_length_a 15.457745
_cell_length_b 16.800723
_cell_length_c 15.217909
_cell_angle_alpha 90.000000
_cell_angle_beta 90.000000
_cell_angle_gamma 90.000000
_cell_volume 3952.110628
_symmetry_space_group_name_H-M "I B A M"
_symmetry_group_IT_number 72
_symmetry_cell_setting 'orthorhombic'
loop_
_space_group_symop_operation_xyz
x,y,z
-x,-y,z
x,-y,1/2-z
-x,y,1/2-z
-x,-y,-z
x,y,-z
-x,y,1/2+z
x,-y,1/2+z
1/2+x,1/2+y,1/2+z
1/2-x,1/2-y,1/2+z
1/2+x,1/2-y,-z
1/2-x,1/2+y,-z
1/2-x,1/2-y,1/2-z
1/2+x,1/2+y,1/2-z
1/2-x,1/2+y,z
1/2+x,1/2-y,z
loop_
_atom_site_type_symbol
_atom_site_label
_atom_site_fract_x
_atom_site_fract_y
_atom_site_fract_z
Si Si1 0.223888 0.615317 0.096003
Si Si2 0.821712 0.684555 0.767149
Si Si3 0.399300 0.710639 0.902401
Si Si4 0.718805 0.454894 0.660797
Si Si5 0.970846 0.915776 0.350666
O O1 0.155807 0.645959 0.170999
O O2 0.316874 0.654491 0.113882
O O3 0.240000 0.520181 0.095934
O O4 0.186673 0.638422 0.000000
O O5 0.750000 0.750000 0.750000
O O6 0.900543 0.723831 0.822993
O O7 0.788927 0.613701 0.828694
O O8 0.485718 0.657962 0.900554
O O9 0.393914 0.750081 0.000000
O O10 0.694054 0.500000 0.750000
O O11 0.631440 0.410561 0.630375
O O12 0.000000 0.909665 0.250000
O O13 0.000000 0.000000 0.391302
#
# Coordination Sequence:
#
# PCOD8292886 Si02
#       5
#    16  16  16  16  16
#     4   9  17  29  47  70  97 135 183 229 270 314
#     4   9  18  32  47  67 103 147 181 218 269 319
#     4  10  20  32  46  70 107 146 180 221 267 322
#     4  10  17  29  48  75 104 141 182 220 266 327
#     4  11  17  28  49  74 104 142 179 215 266 326
#
# _framework density 20.242348
#
# number of rings (size 3 to 8) (size 9 to 14) (size 15 to 20)
#    0.000    2.200    4.000    2.400    0.000    2.000 
#    0.000    0.000    0.000    3.600    0.000    0.000 
#    0.000   95.200    0.000  122.000    0.000    0.000 
#
# Total GULP energy -495559.257703 kJ/mol
# GULP energy per Si atom -12388.981443 kJ/mol
# Density = 2.019628 g / cm^3
# Si number density = 20.242348 Si / 1000 Ang^3
#
#
#
# Elastic Constant Matrix: (Units=GPa)
#
#
# Indices 1 2 3 4 5 6 
#
# 1 38.5424 35.9879 31.9750 0.0000 0.0000 0.0000
# 2 35.9879 99.9522 58.7519 0.0000 0.0000 0.0000
# 3 31.9750 58.7519 126.7732 0.0000 0.0000 0.0000
# 4 0.0000 0.0000 0.0000 25.7214 0.0000 0.0000
# 5 0.0000 0.0000 0.0000 0.0000 13.1337 0.0000
# 6 0.0000 0.0000 0.0000 0.0000 0.0000 33.4582
#
#
#
# Elastic Compliance Matrix: (Units=1/GPa)
#
#
# Indices 1 2 3 4 5 6 
#
# 1 0.041126 -0.011972 -0.004825 0.000000 0.000000 0.000000
# 2 -0.011972 0.017235 -0.004968 0.000000 0.000000 0.000000
# 3 -0.004825 -0.004968 0.011407 0.000000 0.000000 0.000000
# 4 0.000000 0.000000 0.000000 0.038878 0.000000 0.000000
# 5 0.000000 0.000000 0.000000 0.000000 0.076140 0.000000
# 6 0.000000 0.000000 0.000000 0.000000 0.000000 0.029888
#
#
# Mechanical properties :
#
#
# Convention : Reuss Voigt Hill
#
# Bulk Modulus (GPa) = 38.10951 57.63306 47.87129
# Shear Modulus (GPa) = 18.73003 23.69953 21.21478
#
# Velocity S-wave (km/s) = 3.04516 3.42539 3.24086
# Velocity P-wave (km/s) = 5.58851 6.64663 6.14041
#
# Compressibility (1/GPa) = 0.02624017
#
# Stress axis : x y z
#
# Youngs Moduli (GPa) = 24.31531 58.02012 87.66190
#
# Poissons Ratio (x) = 0.69459 0.42296
# Poissons Ratio (y) = 0.29109 0.43551
# Poissons Ratio (z) = 0.11732 0.28825
#
# Static dielectric constant tensor:
#      x y z
#    x 3.106530 0.000000 0.000000 
#    y 0.000000 4.209760 0.000000 
#    z 0.000000 0.000000 3.871690 
# 
# 
# High freq. dielectric constant tensor:
#      x y z
#    x 1.722440 0.000000 0.000000 
#    y 0.000000 1.787340 0.000000 
#    z 0.000000 0.000000 1.793050 
# 
# From -- ./inp_files/23103.got.cif
#   From: 2010.03.12/outbox.cif.g09.slc.cpg/sg72_12_cif.got.tgz:23103.got - 2010.04.16 14:54:00.
