data_PCOD8292805
_publ_section_title
;
Structure prediction by ZEFSAII (Michael W. Deem and Ramdas Pophale) SiO2 
 PCOD8292805
Probable space group: I M M M
;
_chemical_formula_sum "Si O2"
_cell_formula_units_Z 52
_cell_length_a 21.000000
_cell_length_b 9.000000
_cell_length_c 27.000000
_cell_angle_alpha 90.000000
_cell_angle_beta 90.000000
_cell_angle_gamma 90.000000
_cell_volume 5103.000000
_symmetry_space_group_name_H-M "I M M M"
_symmetry_group_IT_number 71
_symmetry_cell_setting 'orthorhombic'
loop_
_space_group_symop_operation_xyz
x,y,z
-x,-y,z
x,-y,-z
-x,y,-z
-x,-y,-z
x,y,-z
-x,y,z
x,-y,z
1/2+x,1/2+y,1/2+z
1/2-x,1/2-y,1/2+z
1/2+x,1/2-y,1/2-z
1/2-x,1/2+y,1/2-z
1/2-x,1/2-y,1/2-z
1/2+x,1/2+y,1/2-z
1/2-x,1/2+y,1/2+z
1/2+x,1/2-y,1/2+z
loop_
_atom_site_type_symbol
_atom_site_label
_atom_site_fract_x
_atom_site_fract_y
_atom_site_fract_z
Si Si1 0.887762 0.824876 0.377013
Si Si2 0.809747 0.174651 0.776939
Si Si3 0.070377 0.325168 0.054228
Si Si4 0.000000 0.175534 0.554023
Si Si5 0.205852 0.668007 0.556292
Si Si6 0.830142 0.835805 0.112520
Si Si7 0.074448 0.676569 0.724607
O O1 0.938778 0.770461 0.416885
O O2 0.822232 0.780349 0.403001
O O3 0.901040 0.732685 0.328111
O O4 0.890014 0.000000 0.365015
O O5 0.750000 0.250000 0.750000
O O6 0.798354 0.205160 0.834963
O O7 0.878447 0.246383 0.763884
O O8 0.810656 0.000000 0.763447
O O9 0.068640 0.500000 0.055089
O O10 0.113345 0.274374 0.099631
O O11 0.000000 0.260855 0.063349
O O12 0.094880 0.270530 0.000000
O O13 0.000000 0.251069 0.500000
O O14 0.000000 0.000000 0.548986
O O15 0.194191 0.724117 0.500000
O O16 0.179250 0.500000 0.562926
O O17 0.280363 0.671097 0.567674
O O18 0.859579 0.000000 0.116574
O O19 0.082430 0.500000 0.727526
O O20 0.000000 0.721607 0.733463
#
# Coordination Sequence:
#
# PCOD8292805 Si02
#       7
#    16  16  16   8  16  16  16
#     4  11  21  36  59  85 117 155 198 247 299 353
#     4  11  24  42  65  92 123 158 202 256 312 371
#     4   9  19  36  58  86 120 155 191 234 284 343
#     4   9  18  32  51  79 115 149 185 235 290 345
#     4  10  21  37  57  84 121 160 197 241 294 354
#     4  10  22  39  59  85 116 151 192 242 294 348
#     4  11  24  42  64  89 121 161 207 258 311 369
#
# _framework density 10.190084000000001
#
# number of rings (size 3 to 8) (size 9 to 14) (size 15 to 20)
#    0.000    1.769    0.769    3.692    0.000    6.769 
#    0.000    3.846    0.000    1.846    0.000    0.000 
#    0.000    0.000    0.000    0.000    0.000    0.000 
#
# Total GULP energy -644602.475235 kJ/mol
# GULP energy per Si atom -12396.201447 kJ/mol
# Density = 1.016689 g / cm^3
# Si number density = 10.190084 Si / 1000 Ang^3
#
#
#
# Elastic Constant Matrix: (Units=GPa)
#
#
# Indices 1 2 3 4 5 6 
#
# 1 98.7370 45.5139 39.3768 0.0000 0.0000 0.0000
# 2 45.5139 79.0689 31.3146 0.0000 0.0000 0.0000
# 3 39.3768 31.3146 77.8902 0.0000 0.0000 0.0000
# 4 0.0000 0.0000 0.0000 31.8882 0.0000 0.0000
# 5 0.0000 0.0000 0.0000 0.0000 40.0214 0.0000
# 6 0.0000 0.0000 0.0000 0.0000 0.0000 34.1250
#
#
#
# Elastic Compliance Matrix: (Units=1/GPa)
#
#
# Indices 1 2 3 4 5 6 
#
# 1 0.015249 -0.006809 -0.004972 0.000000 0.000000 0.000000
# 2 -0.006809 0.018082 -0.003828 0.000000 0.000000 0.000000
# 3 -0.004972 -0.003828 0.016891 0.000000 0.000000 0.000000
# 4 0.000000 0.000000 0.000000 0.031360 0.000000 0.000000
# 5 0.000000 0.000000 0.000000 0.000000 0.024987 0.000000
# 6 0.000000 0.000000 0.000000 0.000000 0.000000 0.029304
#
#
# Mechanical properties :
#
#
# Convention : Reuss Voigt Hill
#
# Bulk Modulus (GPa) = 52.61457 54.23406 53.42432
# Shear Modulus (GPa) = 28.83099 30.50632 29.66866
#
# Velocity S-wave (km/s) = 3.76528 3.87313 3.81958
# Velocity P-wave (km/s) = 6.69146 6.83158 6.76188
#
# Compressibility (1/GPa) = 0.01900614
#
# Stress axis : x y z
#
# Youngs Moduli (GPa) = 65.57685 55.30240 59.20367
#
# Poissons Ratio (x) = 0.37654 0.29435
# Poissons Ratio (y) = 0.44650 0.22661
# Poissons Ratio (z) = 0.32603 0.21168
#
# Static dielectric constant tensor:
#      x y z
#    x 3.700370 0.000000 0.000000 
#    y 0.000000 3.604240 0.000000 
#    z 0.000000 0.000000 4.002240 
# 
# 
# High freq. dielectric constant tensor:
#      x y z
#    x 1.797130 0.000000 0.000000 
#    y 0.000000 1.788200 0.000000 
#    z 0.000000 0.000000 1.803620 
# 
# From -- ./inp_files/11043.got.cif
#   From: 2010.06.25/outbox.ucp.g09.slc.cvg/sg71_6_cif.got.tgz:11043.got - 2010.06.28 16:23:14.
