data_PCOD8292655
_publ_section_title
;
Structure prediction by ZEFSAII (Michael W. Deem and Ramdas Pophale) SiO2 
 PCOD8292655
Probable space group: I M M M
;
_chemical_formula_sum "Si O2"
_cell_formula_units_Z 112
_cell_length_a 9.573323
_cell_length_b 22.825673
_cell_length_c 29.135716
_cell_angle_alpha 90.000000
_cell_angle_beta 90.000000
_cell_angle_gamma 90.000000
_cell_volume 6366.664996
_symmetry_space_group_name_H-M "I M M M"
_symmetry_group_IT_number 71
_symmetry_cell_setting 'orthorhombic'
loop_
_space_group_symop_operation_xyz
x,y,z
-x,-y,z
x,-y,-z
-x,y,-z
-x,-y,-z
x,y,-z
-x,y,z
x,-y,z
1/2+x,1/2+y,1/2+z
1/2-x,1/2-y,1/2+z
1/2+x,1/2-y,1/2-z
1/2-x,1/2+y,1/2-z
1/2-x,1/2-y,1/2-z
1/2+x,1/2+y,1/2-z
1/2-x,1/2+y,1/2+z
1/2+x,1/2-y,1/2+z
loop_
_atom_site_type_symbol
_atom_site_label
_atom_site_fract_x
_atom_site_fract_y
_atom_site_fract_z
Si Si1 0.661953 0.864491 0.314661
Si Si2 0.333831 0.934032 0.050715
Si Si3 0.163992 0.232144 0.639705
Si Si4 0.840520 0.161622 0.551087
Si Si5 0.160832 0.566503 0.906458
Si Si6 0.166242 0.566013 0.274198
Si Si7 0.333655 0.135275 0.862612
O O1 0.500000 0.846152 0.310369
O O2 0.752341 0.806208 0.323203
O O3 0.685672 0.910754 0.355128
O O4 0.718217 0.895470 0.268701
O O5 0.500000 0.933339 0.052507
O O6 0.272655 0.891152 0.089840
O O7 0.280593 0.000000 0.060327
O O8 0.283430 0.913257 0.000000
O O9 0.199600 0.211186 0.588001
O O10 0.218882 0.298411 0.643653
O O11 0.000000 0.226847 0.650621
O O12 0.815248 0.187301 0.500000
O O13 0.748181 0.103818 0.557259
O O14 0.000000 0.142195 0.557960
O O15 0.213320 0.500000 0.908638
O O16 0.000000 0.571760 0.920616
O O17 0.226767 0.500000 0.271101
O O18 0.222494 0.596207 0.320562
O O19 0.000000 0.563491 0.273977
O O20 0.500000 0.134379 0.864024
#
# Coordination Sequence:
#
# PCOD8292655 Si02
#       7
#    16  16  16  16  16  16  16
#     4   9  17  30  47  65  86 115 149 180 213 256
#     4   8  13  21  34  55  86 121 150 177 216 264
#     4   9  18  31  45  63  88 117 148 180 214 255
#     4   9  18  31  44  59  83 115 147 178 213 255
#     4   9  17  29  45  64  85 109 140 180 222 261
#     4   9  16  26  43  66  88 110 140 180 221 258
#     4   9  16  25  39  61  88 116 146 180 217 256
#
# _framework density 17.591628
#
# number of rings (size 3 to 8) (size 9 to 14) (size 15 to 20)
#    0.000    3.143    0.000    1.286    0.000    5.429 
#    0.000    4.286    0.000    1.286    0.000    0.000 
#    0.000    1.714    0.000    1.571    0.000    2.429 
#
# Total GULP energy -694241.161555 kJ/mol
# GULP energy per Si atom -12397.163599 kJ/mol
# Density = 1.755159 g / cm^3
# Si number density = 17.591628 Si / 1000 Ang^3
#
#
#
# Elastic Constant Matrix: (Units=GPa)
#
#
# Indices 1 2 3 4 5 6 
#
# 1 24.1235 30.7517 24.3186 0.0000 0.0000 0.0000
# 2 30.7517 151.5104 78.1078 0.0000 0.0000 0.0000
# 3 24.3186 78.1078 134.6328 0.0000 0.0000 0.0000
# 4 0.0000 0.0000 0.0000 27.7268 0.0000 0.0000
# 5 0.0000 0.0000 0.0000 0.0000 13.6154 0.0000
# 6 0.0000 0.0000 0.0000 0.0000 0.0000 17.4304
#
#
#
# Elastic Compliance Matrix: (Units=1/GPa)
#
#
# Indices 1 2 3 4 5 6 
#
# 1 0.058403 -0.009153 -0.005239 0.000000 0.000000 0.000000
# 2 -0.009153 0.010851 -0.004642 0.000000 0.000000 0.000000
# 3 -0.005239 -0.004642 0.011067 0.000000 0.000000 0.000000
# 4 0.000000 0.000000 0.000000 0.036066 0.000000 0.000000
# 5 0.000000 0.000000 0.000000 0.000000 0.073446 0.000000
# 6 0.000000 0.000000 0.000000 0.000000 0.000000 0.057371
#
#
# Mechanical properties :
#
#
# Convention : Reuss Voigt Hill
#
# Bulk Modulus (GPa) = 23.66717 64.06920 43.86818
# Shear Modulus (GPa) = 16.70252 23.56043 20.13147
#
# Velocity S-wave (km/s) = 3.08467 3.66361 3.38654
# Velocity P-wave (km/s) = 5.11564 7.37533 6.34686
#
# Compressibility (1/GPa) = 0.04225263
#
# Stress axis : x y z
#
# Youngs Moduli (GPa) = 17.12252 92.15711 90.35865
#
# Poissons Ratio (x) = 0.84351 0.47340
# Poissons Ratio (y) = 0.15672 0.41944
# Poissons Ratio (z) = 0.08971 0.42779
#
# Static dielectric constant tensor:
#      x y z
#    x 2.814240 0.000000 0.000000 
#    y 0.000000 3.369880 0.000000 
#    z 0.000000 0.000000 3.464390 
# 
# 
# High freq. dielectric constant tensor:
#      x y z
#    x 1.621670 0.000000 0.000000 
#    y 0.000000 1.681900 0.000000 
#    z 0.000000 0.000000 1.689980 
# 
# From -- ./inp_files/29116.got.cif
#   From: 2010.06.25/outbox.cif.g09.slc.cpg/sg71_15_cif.got.tgz:29116.got - 2010.06.28 04:59:45.
