data_PCOD8292841
_publ_section_title
;
Structure prediction by ZEFSAII (Michael W. Deem and Ramdas Pophale) SiO2 
 PCOD8292841
Probable space group: I B A M
;
_chemical_formula_sum "Si O2"
_cell_formula_units_Z 64
_cell_length_a 34.587302
_cell_length_b 13.575614
_cell_length_c 8.756570
_cell_angle_alpha 90.000000
_cell_angle_beta 90.000000
_cell_angle_gamma 90.000000
_cell_volume 4111.593689
_symmetry_space_group_name_H-M "I B A M"
_symmetry_group_IT_number 72
_symmetry_cell_setting 'orthorhombic'
loop_
_space_group_symop_operation_xyz
x,y,z
-x,-y,z
x,-y,1/2-z
-x,y,1/2-z
-x,-y,-z
x,y,-z
-x,y,1/2+z
x,-y,1/2+z
1/2+x,1/2+y,1/2+z
1/2-x,1/2-y,1/2+z
1/2+x,1/2-y,-z
1/2-x,1/2+y,-z
1/2-x,1/2-y,1/2-z
1/2+x,1/2+y,1/2-z
1/2-x,1/2+y,z
1/2+x,1/2-y,z
loop_
_atom_site_type_symbol
_atom_site_label
_atom_site_fract_x
_atom_site_fract_y
_atom_site_fract_z
Si Si1 0.766221 0.399210 0.178650
Si Si2 0.615477 0.393453 0.320527
Si Si3 0.538318 0.609262 0.318272
Si Si4 0.195880 0.199082 0.677658
O O1 0.782163 0.500000 0.250000
O O2 0.794514 0.310454 0.230234
O O3 0.722573 0.377932 0.232630
O O4 0.765916 0.412885 0.000000
O O5 0.624305 0.500000 0.250000
O O6 0.607895 0.405848 0.500000
O O7 0.578074 0.341373 0.241528
O O8 0.651322 0.322124 0.284868
O O9 0.539331 0.500000 0.250000
O O10 0.500000 0.663275 0.250000
O O11 0.536454 0.608545 0.500000
O O12 0.205121 0.184644 0.500000
#
# Coordination Sequence:
#
# PCOD8292841 Si02
#       4
#    16  16  16  16
#     4  10  19  31  46  63  84 111 142 176 214 252
#     4  10  18  28  41  59  83 110 140 173 207 243
#     4  10  17  26  39  56  79 108 139 168 201 241
#     4   9  19  32  45  62  84 111 143 177 211 249
#
# _framework density 15.565740999999999
#
# number of rings (size 3 to 8) (size 9 to 14) (size 15 to 20)
#    0.000    2.250    0.000    6.750    0.000    5.000 
#    0.000    0.000    0.000    0.000    0.000    0.000 
#    0.000    1.000    0.000   11.500    0.000    3.500 
#
# Total GULP energy -396706.623531 kJ/mol
# GULP energy per Si atom -12397.081985 kJ/mol
# Density = 1.553031 g / cm^3
# Si number density = 15.565741 Si / 1000 Ang^3
#
#
#
# Elastic Constant Matrix: (Units=GPa)
#
#
# Indices 1 2 3 4 5 6 
#
# 1 132.7951 39.6713 53.7316 0.0000 0.0000 0.0000
# 2 39.6713 67.8315 28.1824 0.0000 0.0000 0.0000
# 3 53.7316 28.1824 95.7245 -0.0002 -0.0001 0.0000
# 4 0.0000 0.0000 -0.0002 19.2830 0.0000 0.0000
# 5 0.0000 0.0000 -0.0001 0.0000 25.5230 0.0000
# 6 0.0000 0.0000 0.0000 0.0000 0.0000 14.5191
#
#
#
# Elastic Compliance Matrix: (Units=1/GPa)
#
#
# Indices 1 2 3 4 5 6 
#
# 1 0.010744 -0.004304 -0.004763 0.000000 0.000000 0.000000
# 2 -0.004304 0.018522 -0.003037 0.000000 0.000000 0.000000
# 3 -0.004763 -0.003037 0.014014 0.000000 0.000000 0.000000
# 4 0.000000 0.000000 0.000000 0.051859 0.000000 0.000000
# 5 0.000000 0.000000 0.000000 0.000000 0.039180 0.000000
# 6 0.000000 0.000000 0.000000 0.000000 0.000000 0.068875
#
#
# Mechanical properties :
#
#
# Convention : Reuss Voigt Hill
#
# Bulk Modulus (GPa) = 52.43678 59.94685 56.19182
# Shear Modulus (GPa) = 21.38945 23.51605 22.45275
#
# Velocity S-wave (km/s) = 3.71096 3.89106 3.80208
# Velocity P-wave (km/s) = 7.21956 7.66699 7.44664
#
# Compressibility (1/GPa) = 0.01907058
#
# Stress axis : x y z
#
# Youngs Moduli (GPa) = 93.07846 53.99112 71.35497
#
# Poissons Ratio (x) = 0.23240 0.33989
# Poissons Ratio (y) = 0.40065 0.21669
# Poissons Ratio (z) = 0.44336 0.16396
#
# Static dielectric constant tensor:
#      x y z
#    x 3.630920 0.000000 0.000000 
#    y 0.000000 2.757410 0.000000 
#    z 0.000000 0.000000 3.081940 
# 
# 
# High freq. dielectric constant tensor:
#      x y z
#    x 1.604600 0.000000 0.000000 
#    y 0.000000 1.544250 0.000000 
#    z 0.000000 0.000000 1.615560 
# 
# From -- ./inp_files/8942.got.cif
#   From: 2010.03.12/outbox.cif.g09.slc.cpg/sg72_5_cif.got.tgz:8942.got - 2010.04.16 14:54:00.
