data_PCOD8292920
_publ_section_title
;
Structure prediction by ZEFSAII (Michael W. Deem and Ramdas Pophale) SiO2 
 PCOD8292920
Probable space group: I B A M
;
_chemical_formula_sum "Si O2"
_cell_formula_units_Z 128
_cell_length_a 12.707759
_cell_length_b 23.850551
_cell_length_c 22.685190
_cell_angle_alpha 90.000000
_cell_angle_beta 90.000000
_cell_angle_gamma 90.000000
_cell_volume 6875.587409
_symmetry_space_group_name_H-M "I B A M"
_symmetry_group_IT_number 72
_symmetry_cell_setting 'orthorhombic'
loop_
_space_group_symop_operation_xyz
x,y,z
-x,-y,z
x,-y,1/2-z
-x,y,1/2-z
-x,-y,-z
x,y,-z
-x,y,1/2+z
x,-y,1/2+z
1/2+x,1/2+y,1/2+z
1/2-x,1/2-y,1/2+z
1/2+x,1/2-y,-z
1/2-x,1/2+y,-z
1/2-x,1/2-y,1/2-z
1/2+x,1/2+y,1/2-z
1/2-x,1/2+y,z
1/2+x,1/2-y,z
loop_
_atom_site_type_symbol
_atom_site_label
_atom_site_fract_x
_atom_site_fract_y
_atom_site_fract_z
Si Si1 0.212810 0.662468 0.566264
Si Si2 0.630093 0.725991 0.147020
Si Si3 0.233975 0.831357 0.625787
Si Si4 0.626711 0.932761 0.128224
Si Si5 0.886556 0.440093 0.378953
Si Si6 0.433061 0.736961 0.065903
Si Si7 0.796248 0.562932 0.243689
Si Si8 0.881328 0.851900 0.246034
O O1 0.257118 0.666319 0.500000
O O2 0.301398 0.682256 0.610669
O O3 0.185840 0.598334 0.580520
O O4 0.108106 0.699718 0.573509
O O5 0.676639 0.788314 0.147582
O O6 0.516450 0.726506 0.116971
O O7 0.623787 0.704678 0.214433
O O8 0.292026 0.887364 0.600282
O O9 0.166027 0.805266 0.572763
O O10 0.152618 0.840941 0.679014
O O11 0.507397 0.925526 0.106118
O O12 0.638647 0.920994 0.198030
O O13 0.653853 0.996415 0.109221
O O14 0.877063 0.428551 0.309501
O O15 0.480085 0.728434 0.000000
O O16 0.753315 0.500000 0.250000
O O17 0.695741 0.600843 0.228934
O O18 0.000000 0.875374 0.250000
#
# Coordination Sequence:
#
# PCOD8292920 Si02
#       8
#    16  16  16  16  16  16  16  16
#     4  10  21  35  55  80 106 140 185 227 264 316
#     4  11  20  36  56  78 109 142 180 223 271 326
#     4  10  21  36  52  82 114 141 177 221 278 328
#     4   9  19  32  54  80 109 142 172 218 274 330
#     4  10  17  34  54  79 109 138 181 221 265 322
#     4  10  21  37  57  78 106 147 188 225 267 322
#     4   9  18  32  52  78 108 143 179 217 265 324
#     4  11  20  34  53  80 112 142 174 223 276 330
#
# _framework density 18.616592000000001
#
# number of rings (size 3 to 8) (size 9 to 14) (size 15 to 20)
#    0.000    2.000    2.500    1.875    0.000    2.250 
#    0.000    2.500    0.000    0.750    0.000    1.750 
#    0.000    0.000    0.000    0.000    0.000    0.000 
#
# Total GULP energy -793367.322425 kJ/mol
# GULP energy per Si atom -12396.364413 kJ/mol
# Density = 1.857422 g / cm^3
# Si number density = 18.616592 Si / 1000 Ang^3
#
#
#
# Elastic Constant Matrix: (Units=GPa)
#
#
# Indices 1 2 3 4 5 6 
#
# 1 74.8721 35.8027 3.5689 0.0000 0.0000 0.0000
# 2 35.8027 99.9191 13.9710 0.0000 0.0000 0.0000
# 3 3.5689 13.9710 35.7740 0.0000 0.0000 0.0000
# 4 0.0000 0.0000 0.0000 19.7673 0.0000 0.0000
# 5 0.0000 0.0000 0.0000 0.0000 13.7977 0.0000
# 6 0.0000 0.0000 0.0000 0.0000 0.0000 29.7855
#
#
#
# Elastic Compliance Matrix: (Units=1/GPa)
#
#
# Indices 1 2 3 4 5 6 
#
# 1 0.016134 -0.005877 0.000686 0.000000 0.000000 0.000000
# 2 -0.005877 0.012727 -0.004384 0.000000 0.000000 0.000000
# 3 0.000686 -0.004384 0.029597 0.000000 0.000000 0.000000
# 4 0.000000 0.000000 0.000000 0.050588 0.000000 0.000000
# 5 0.000000 0.000000 0.000000 0.000000 0.072476 0.000000
# 6 0.000000 0.000000 0.000000 0.000000 0.000000 0.033573
#
#
# Mechanical properties :
#
#
# Convention : Reuss Voigt Hill
#
# Bulk Modulus (GPa) = 25.44080 35.25007 30.34543
# Shear Modulus (GPa) = 20.21443 23.15161 21.68302
#
# Velocity S-wave (km/s) = 3.29877 3.53030 3.41649
# Velocity P-wave (km/s) = 5.31079 5.96600 5.64791
#
# Compressibility (1/GPa) = 0.03930695
#
# Stress axis : x y z
#
# Youngs Moduli (GPa) = 61.98231 78.57407 33.78724
#
# Poissons Ratio (x) = 0.46177 -0.02316
# Poissons Ratio (y) = 0.36426 0.14812
# Poissons Ratio (z) = -0.04249 0.34447
#
# Static dielectric constant tensor:
#      x y z
#    x 3.335360 0.000000 0.000000 
#    y 0.000000 3.516900 0.000000 
#    z 0.000000 0.000000 3.237610 
# 
# 
# High freq. dielectric constant tensor:
#      x y z
#    x 1.717660 0.000000 0.000000 
#    y 0.000000 1.723550 0.000000 
#    z 0.000000 0.000000 1.710200 
# 
# From -- ./inp_files/43709.got.cif
#   From: 2010.03.12/outbox.cif.g09.slc.cpg/sg72_22_cif.got.tgz:43709.got - 2010.04.16 14:54:00.
