data_PCOD8292203
_publ_section_title
;
Structure prediction by ZEFSAII (Michael W. Deem and Ramdas Pophale) SiO2 
 PCOD8292203
Probable space group: I M M M
;
_chemical_formula_sum "Si O2"
_cell_formula_units_Z 72
_cell_length_a 23.260184
_cell_length_b 17.497982
_cell_length_c 8.739004
_cell_angle_alpha 90.000000
_cell_angle_beta 90.000000
_cell_angle_gamma 90.000000
_cell_volume 3556.829517
_symmetry_space_group_name_H-M "I M M M"
_symmetry_group_IT_number 71
_symmetry_cell_setting 'orthorhombic'
loop_
_space_group_symop_operation_xyz
x,y,z
-x,-y,z
x,-y,-z
-x,y,-z
-x,-y,-z
x,y,-z
-x,y,z
x,-y,z
1/2+x,1/2+y,1/2+z
1/2-x,1/2-y,1/2+z
1/2+x,1/2-y,1/2-z
1/2-x,1/2+y,1/2-z
1/2-x,1/2-y,1/2-z
1/2+x,1/2+y,1/2-z
1/2-x,1/2+y,1/2+z
1/2+x,1/2-y,1/2+z
loop_
_atom_site_type_symbol
_atom_site_label
_atom_site_fract_x
_atom_site_fract_y
_atom_site_fract_z
Si Si1 0.872114 0.639967 0.680512
Si Si2 0.754576 0.666718 0.820030
Si Si3 0.067603 0.500000 0.171091
Si Si4 0.066462 0.782866 0.179091
Si Si5 0.863987 0.088173 0.678871
O O1 0.867244 0.637082 0.500000
O O2 0.809660 0.623873 0.751253
O O3 0.914646 0.575183 0.738453
O O4 0.895655 0.722400 0.728626
O O5 0.750000 0.750000 0.750000
O O6 0.699216 0.617207 0.775310
O O7 0.761964 0.674522 0.000000
O O8 0.000000 0.500000 0.159777
O O9 0.094305 0.500000 0.000000
O O10 0.087901 0.866951 0.225197
O O11 0.000000 0.774222 0.224930
O O12 0.075597 0.768869 0.000000
O O13 0.875526 0.101208 0.500000
O O14 0.869123 0.000000 0.724760
#
# Coordination Sequence:
#
# PCOD8292203 Si02
#       5
#    16  16   8  16  16
#     4  12  25  41  64  96 129 167 213 261 318 382
#     4  11  22  39  65  94 126 164 209 260 315 374
#     4  11  25  45  67  93 129 171 214 265 322 379
#     4  11  24  42  65  92 123 165 214 263 320 382
#     4  10  23  42  64  93 127 166 211 260 317 377
#
# _framework density 20.242747000000001
#
# number of rings (size 3 to 8) (size 9 to 14) (size 15 to 20)
#    0.000    1.000    2.222    4.333    1.556    7.111 
#    0.000    2.222    0.000    0.000    0.000    0.000 
#    0.000    0.000    0.000    0.000    0.000    0.000 
#
# Total GULP energy -446664.593736 kJ/mol
# GULP energy per Si atom -12407.349826 kJ/mol
# Density = 2.019667 g / cm^3
# Si number density = 20.242747 Si / 1000 Ang^3
#
#
#
# Elastic Constant Matrix: (Units=GPa)
#
#
# Indices 1 2 3 4 5 6 
#
# 1 86.3045 14.7920 37.8784 0.0000 0.0000 0.0000
# 2 14.7920 101.3322 26.4292 0.0000 0.0000 0.0000
# 3 37.8784 26.4292 104.6481 0.0000 0.0000 0.0000
# 4 0.0000 0.0000 0.0000 31.6921 0.0000 0.0000
# 5 0.0000 0.0000 0.0000 0.0000 34.2855 0.0000
# 6 0.0000 0.0000 0.0000 0.0000 0.0000 -333.2271
#
#
#
# Elastic Compliance Matrix: (Units=1/GPa)
#
#
# Indices 1 2 3 4 5 6 
#
# 1 0.013830 -0.000764 -0.004813 0.000000 0.000000 0.000000
# 2 -0.000764 0.010607 -0.002402 0.000000 0.000000 0.000000
# 3 -0.004813 -0.002402 0.011905 0.000000 0.000000 0.000000
# 4 0.000000 0.000000 0.000000 0.031554 0.000000 0.000000
# 5 0.000000 0.000000 0.000000 0.000000 0.029167 0.000000
# 6 0.000000 0.000000 0.000000 0.000000 0.000000 -0.003001
#
#
# Mechanical properties :
#
#
# Convention : Reuss Voigt Hill
#
# Bulk Modulus (GPa) = 49.05943 50.05378 49.55660
# Shear Modulus (GPa) = 42.80326 -39.23755 1.78286
#
# Velocity S-wave (km/s) = 4.60336 -4.40745 0.93950
# Velocity P-wave (km/s) = 7.24863 1.05846 5.07062
#
# Compressibility (1/GPa) = 0.02038344
#
# Stress axis : x y z
#
# Youngs Moduli (GPa) = 72.30553 94.28128 84.00025
#
# Poissons Ratio (x) = 0.07199 0.40431
# Poissons Ratio (y) = 0.05521 0.20180
# Poissons Ratio (z) = 0.34802 0.22650
#
# Static dielectric constant tensor:
#      x y z
#    x 3.968710 0.000000 0.000000 
#    y 0.000000 2.956130 0.000000 
#    z 0.000000 0.000000 3.761130 
# 
# 
# High freq. dielectric constant tensor:
#      x y z
#    x 1.803330 0.000000 0.000000 
#    y 0.000000 1.796850 0.000000 
#    z 0.000000 0.000000 1.799960 
# 
# From -- ./inp_files/12191.got.cif
#   From: 2010.06.25/outbox.cif.g09.slc.cpg/sg71_7_cif.got.tgz:12191.got - 2010.06.28 04:59:45.
