data_PCOD8292044
_publ_section_title
;
Structure prediction by ZEFSAII (Michael W. Deem and Ramdas Pophale) SiO2 
 PCOD8292044
Probable space group: I M M M
;
_chemical_formula_sum "Si O2"
_cell_formula_units_Z 80
_cell_length_a 7.980211
_cell_length_b 17.276215
_cell_length_c 29.081891
_cell_angle_alpha 90.000000
_cell_angle_beta 90.000000
_cell_angle_gamma 90.000000
_cell_volume 4009.457524
_symmetry_space_group_name_H-M "I M M M"
_symmetry_group_IT_number 71
_symmetry_cell_setting 'orthorhombic'
loop_
_space_group_symop_operation_xyz
x,y,z
-x,-y,z
x,-y,-z
-x,y,-z
-x,-y,-z
x,y,-z
-x,y,z
x,-y,z
1/2+x,1/2+y,1/2+z
1/2-x,1/2-y,1/2+z
1/2+x,1/2-y,1/2-z
1/2-x,1/2+y,1/2-z
1/2-x,1/2-y,1/2-z
1/2+x,1/2+y,1/2-z
1/2-x,1/2+y,1/2+z
1/2+x,1/2-y,1/2+z
loop_
_atom_site_type_symbol
_atom_site_label
_atom_site_fract_x
_atom_site_fract_y
_atom_site_fract_z
Si Si1 0.500000 0.297751 0.448360
Si Si2 0.305493 0.684605 0.052571
Si Si3 0.500000 0.407740 0.368828
Si Si4 0.810982 0.327393 0.775073
Si Si5 0.317242 0.909983 0.185031
Si Si6 0.806970 0.084677 0.637977
O O1 0.500000 0.326835 0.500000
O O2 0.327642 0.252457 0.437853
O O3 0.500000 0.376869 0.420082
O O4 0.500000 0.711911 0.060753
O O5 0.252331 0.617511 0.088207
O O6 0.284995 0.654344 0.000000
O O7 0.500000 0.500000 0.368529
O O8 0.334935 0.372940 0.343677
O O9 0.750000 0.250000 0.750000
O O10 0.785977 0.396971 0.739033
O O11 0.721243 0.351847 0.822068
O O12 0.000000 0.313987 0.789696
O O13 0.500000 0.873832 0.171047
O O14 0.320796 0.000000 0.175131
O O15 0.000000 0.068043 0.636244
O O16 0.718047 0.000000 0.646233
#
# Coordination Sequence:
#
# PCOD8292044 Si02
#       6
#     8  16   8  16  16  16
#     4  10  22  39  61  88 120 149 187 241 293 352
#     4   9  20  39  61  86 116 153 194 237 292 349
#     4  10  22  37  62  87 111 154 193 237 293 340
#     4  11  24  37  54  81 114 152 192 238 288 340
#     4   9  20  38  56  78 110 149 191 231 277 339
#     4  10  22  38  58  85 116 152 193 241 294 346
#
# _framework density 19.952825000000001
#
# number of rings (size 3 to 8) (size 9 to 14) (size 15 to 20)
#    0.000    2.200    0.000    1.200    7.000    2.600 
#    0.000    2.000    0.000    1.800    0.000    5.600 
#    0.000    0.000    0.000    0.000    0.000    0.000 
#
# Total GULP energy -495587.918417 kJ/mol
# GULP energy per Si atom -12389.697960 kJ/mol
# Density = 1.990741 g / cm^3
# Si number density = 19.952825 Si / 1000 Ang^3
#
#
#
# Elastic Constant Matrix: (Units=GPa)
#
#
# Indices 1 2 3 4 5 6 
#
# 1 98.9406 22.1711 52.9213 0.0000 0.0000 0.0000
# 2 22.1711 40.6042 51.0097 0.0000 0.0000 0.0000
# 3 52.9213 51.0097 135.5728 0.0000 0.0000 0.0000
# 4 0.0000 0.0000 0.0000 29.3578 0.0000 0.0000
# 5 0.0000 0.0000 0.0000 0.0000 25.5482 0.0000
# 6 0.0000 0.0000 0.0000 0.0000 0.0000 13.5249
#
#
#
# Elastic Compliance Matrix: (Units=1/GPa)
#
#
# Indices 1 2 3 4 5 6 
#
# 1 0.012813 -0.001352 -0.004493 0.000000 0.000000 0.000000
# 2 -0.001352 0.046846 -0.017098 0.000000 0.000000 0.000000
# 3 -0.004493 -0.017098 0.015563 0.000000 0.000000 0.000000
# 4 0.000000 0.000000 0.000000 0.034063 0.000000 0.000000
# 5 0.000000 0.000000 0.000000 0.000000 0.039142 0.000000
# 6 0.000000 0.000000 0.000000 0.000000 0.000000 0.073938
#
#
# Mechanical properties :
#
#
# Convention : Reuss Voigt Hill
#
# Bulk Modulus (GPa) = 34.08760 58.59129 46.33944
# Shear Modulus (GPa) = 17.98367 23.62054 20.80210
#
# Velocity S-wave (km/s) = 3.00544 3.44440 3.23238
# Velocity P-wave (km/s) = 5.40044 6.72660 6.09967
#
# Compressibility (1/GPa) = 0.02933618
#
# Stress axis : x y z
#
# Youngs Moduli (GPa) = 78.04419 21.34640 64.25393
#
# Poissons Ratio (x) = 0.02886 0.28869
# Poissons Ratio (y) = 0.10552 1.09863
# Poissons Ratio (z) = 0.35065 0.36499
#
# Static dielectric constant tensor:
#      x y z
#    x 4.070960 0.000000 0.000000 
#    y 0.000000 3.501130 0.000000 
#    z 0.000000 0.000000 3.616700 
# 
# 
# High freq. dielectric constant tensor:
#      x y z
#    x 1.792500 0.000000 0.000000 
#    y 0.000000 1.759750 0.000000 
#    z 0.000000 0.000000 1.779170 
# 
# From -- ./inp_files/48645.got.cif
#   From: 2010.06.25/outbox.cif.g09.slc.cpg/sg71_25_cif.got.tgz:48645.got - 2010.06.28 04:59:45.
