data_PCOD8292070
_publ_section_title
;
Structure prediction by ZEFSAII (Michael W. Deem and Ramdas Pophale) SiO2 
 PCOD8292070
Probable space group: I M M M
;
_chemical_formula_sum "Si O2"
_cell_formula_units_Z 88
_cell_length_a 17.561325
_cell_length_b 28.770135
_cell_length_c 9.310588
_cell_angle_alpha 90.000000
_cell_angle_beta 90.000000
_cell_angle_gamma 90.000000
_cell_volume 4704.097226
_symmetry_space_group_name_H-M "I M M M"
_symmetry_group_IT_number 71
_symmetry_cell_setting 'orthorhombic'
loop_
_space_group_symop_operation_xyz
x,y,z
-x,-y,z
x,-y,-z
-x,y,-z
-x,-y,-z
x,y,-z
-x,y,z
x,-y,z
1/2+x,1/2+y,1/2+z
1/2-x,1/2-y,1/2+z
1/2+x,1/2-y,1/2-z
1/2-x,1/2+y,1/2-z
1/2-x,1/2-y,1/2-z
1/2+x,1/2+y,1/2-z
1/2-x,1/2+y,1/2+z
1/2+x,1/2-y,1/2+z
loop_
_atom_site_type_symbol
_atom_site_label
_atom_site_fract_x
_atom_site_fract_y
_atom_site_fract_z
Si Si1 0.914608 0.618139 0.165744
Si Si2 0.500000 0.551706 0.670166
Si Si3 0.588058 0.691833 0.830717
Si Si4 0.852190 0.893132 0.171160
Si Si5 0.277884 0.946072 0.666155
Si Si6 0.909484 0.295135 0.341396
O O1 0.862444 0.573463 0.195940
O O2 0.878604 0.663828 0.240464
O O3 0.000000 0.606829 0.222564
O O4 0.917015 0.630857 0.000000
O O5 0.500000 0.500000 0.736765
O O6 0.500000 0.549126 0.500000
O O7 0.574672 0.578050 0.724842
O O8 0.500000 0.684020 0.787053
O O9 0.641980 0.657899 0.739774
O O10 0.615469 0.743878 0.788422
O O11 0.598894 0.683136 0.000000
O O12 0.778709 0.919209 0.229771
O O13 0.847340 0.889188 0.000000
O O14 0.254450 0.938512 0.500000
O O15 0.278091 0.000000 0.707723
O O16 0.876445 0.304448 0.500000
O O17 0.000000 0.295731 0.345319
#
# Coordination Sequence:
#
# PCOD8292070 Si02
#       6
#    16   8  16  16  16  16
#     4   9  18  34  57  83 107 134 172 219 267 318
#     4   9  18  32  49  71 101 135 173 219 264 305
#     4   9  17  31  52  78 110 145 179 216 260 312
#     4  11  21  34  53  78 108 142 181 223 267 311
#     4  10  22  39  56  76 106 141 176 218 270 323
#     4   8  15  29  51  79 109 141 173 210 261 316
#
# _framework density 18.707094999999999
#
# number of rings (size 3 to 8) (size 9 to 14) (size 15 to 20)
#    0.000    2.636    0.909    2.182    0.000    2.909 
#    0.000    4.545    0.000    2.182    0.000    3.818 
#    0.000    0.000    0.000    0.000    0.000    0.000 
#
# Total GULP energy -545517.934565 kJ/mol
# GULP energy per Si atom -12398.134876 kJ/mol
# Density = 1.866452 g / cm^3
# Si number density = 18.707095 Si / 1000 Ang^3
#
#
#
# Elastic Constant Matrix: (Units=GPa)
#
#
# Indices 1 2 3 4 5 6 
#
# 1 75.6365 44.5450 37.0166 0.0002 -0.0001 0.0000
# 2 44.5450 115.0078 48.9587 -0.0002 -0.0010 -0.0001
# 3 37.0166 48.9587 63.4550 -0.0051 -0.0022 -0.0004
# 4 0.0002 -0.0002 -0.0051 29.3247 -0.0010 -0.0002
# 5 -0.0001 -0.0010 -0.0022 -0.0010 22.7711 0.0001
# 6 0.0000 -0.0001 -0.0004 -0.0002 0.0001 28.4530
#
#
#
# Elastic Compliance Matrix: (Units=1/GPa)
#
#
# Indices 1 2 3 4 5 6 
#
# 1 0.019710 -0.004079 -0.008351 -0.000002 -0.000001 0.000000
# 2 -0.004079 0.013792 -0.008261 -0.000001 0.000000 0.000000
# 3 -0.008351 -0.008261 0.027005 0.000005 0.000002 0.000000
# 4 -0.000002 -0.000001 0.000005 0.034101 0.000002 0.000000
# 5 -0.000001 0.000000 0.000002 0.000002 0.043915 0.000000
# 6 0.000000 0.000000 0.000000 0.000000 0.000000 0.035146
#
#
# Mechanical properties :
#
#
# Convention : Reuss Voigt Hill
#
# Bulk Modulus (GPa) = 52.29015 57.23775 54.76395
# Shear Modulus (GPa) = 22.58080 24.34835 23.46457
#
# Velocity S-wave (km/s) = 3.47806 3.61162 3.54547
# Velocity P-wave (km/s) = 6.64394 6.93217 6.78959
#
# Compressibility (1/GPa) = 0.01912406
#
# Stress axis : x y z
#
# Youngs Moduli (GPa) = 50.73447 72.50572 37.03055
#
# Poissons Ratio (x) = 0.29578 0.30923
# Poissons Ratio (y) = 0.20697 0.30593
# Poissons Ratio (z) = 0.42367 0.59900
#
# Static dielectric constant tensor:
#      x y z
#    x 3.271580 0.000000 0.000000 
#    y 0.000000 3.656880 0.000000 
#    z 0.000000 0.000000 3.366470 
# 
# 
# High freq. dielectric constant tensor:
#      x y z
#    x 1.704430 0.000000 0.000000 
#    y 0.000000 1.737380 0.000000 
#    z 0.000000 0.000000 1.713520 
# 
# From -- ./inp_files/8732.got.cif
#   From: 2010.06.25/outbox.cif.g09.slc.cpg/sg71_5_cif.got.tgz:8732.got - 2010.06.28 04:59:45.
