data_PCOD8292797
_publ_section_title
;
Structure prediction by ZEFSAII (Michael W. Deem and Ramdas Pophale) SiO2 
 PCOD8292797
Probable space group: I M M M
;
_chemical_formula_sum "Si O2"
_cell_formula_units_Z 52
_cell_length_a 27.000000
_cell_length_b 24.000000
_cell_length_c 9.000000
_cell_angle_alpha 90.000000
_cell_angle_beta 90.000000
_cell_angle_gamma 90.000000
_cell_volume 5832.000000
_symmetry_space_group_name_H-M "I M M M"
_symmetry_group_IT_number 71
_symmetry_cell_setting 'orthorhombic'
loop_
_space_group_symop_operation_xyz
x,y,z
-x,-y,z
x,-y,-z
-x,y,-z
-x,-y,-z
x,y,-z
-x,y,z
x,-y,z
1/2+x,1/2+y,1/2+z
1/2-x,1/2-y,1/2+z
1/2+x,1/2-y,1/2-z
1/2-x,1/2+y,1/2-z
1/2-x,1/2-y,1/2-z
1/2+x,1/2+y,1/2-z
1/2-x,1/2+y,1/2+z
1/2+x,1/2-y,1/2+z
loop_
_atom_site_type_symbol
_atom_site_label
_atom_site_fract_x
_atom_site_fract_y
_atom_site_fract_z
Si Si1 0.360105 0.337807 0.170465
Si Si2 0.899567 0.935755 0.826210
Si Si3 0.053223 0.238086 0.331223
Si Si4 0.500000 0.565158 0.834849
Si Si5 0.802552 0.260243 0.177564
Si Si6 0.378457 0.164821 0.177838
Si Si7 0.555742 0.937402 0.176325
O O1 0.357276 0.399326 0.242859
O O2 0.417624 0.319911 0.176540
O O3 0.332012 0.294393 0.273359
O O4 0.340077 0.337968 0.000000
O O5 0.952203 0.917978 0.759381
O O6 0.886721 0.000000 0.795581
O O7 0.899762 0.922155 0.000000
O O8 0.044646 0.256004 0.500000
O O9 0.083257 0.289162 0.259969
O O10 0.000000 0.230454 0.250893
O O11 0.500000 0.500000 0.860384
O O12 0.500000 0.593841 0.000000
O O13 0.750000 0.250000 0.250000
O O14 0.826692 0.317943 0.242397
O O15 0.799241 0.264553 0.000000
O O16 0.401357 0.105391 0.231324
O O17 0.370139 0.167143 0.000000
O O18 0.500000 0.921341 0.233253
O O19 0.569293 0.000000 0.231502
O O20 0.554779 0.935606 0.000000
#
# Coordination Sequence:
#
# PCOD8292797 Si02
#       7
#    16  16  16   8  16  16  16
#     4  10  20  33  52  77 102 129 168 209 254 310
#     4  10  20  33  48  69 101 138 173 211 253 295
#     4   8  14  24  40  65  96 129 164 203 243 287
#     4   9  17  29  45  65  91 131 179 215 244 283
#     4  11  22  38  58  77  99 125 162 212 269 325
#     4   9  16  28  48  74 103 135 172 212 254 300
#     4   8  13  22  42  76 114 149 183 215 244 281
#
# _framework density 8.9163239999999995
#
# number of rings (size 3 to 8) (size 9 to 14) (size 15 to 20)
#    0.000    2.692    0.000    4.385    1.077    3.692 
#    0.000    0.000    0.000    9.692    0.000    3.231 
#    0.000    0.000    0.000    0.000    0.000    0.000 
#
# Total GULP energy -644189.697138 kJ/mol
# GULP energy per Si atom -12388.263406 kJ/mol
# Density = 0.889603 g / cm^3
# Si number density = 8.916324 Si / 1000 Ang^3
#
#
#
# Elastic Constant Matrix: (Units=GPa)
#
#
# Indices 1 2 3 4 5 6 
#
# 1 92.0965 44.3880 33.7055 0.0000 0.0000 0.0000
# 2 44.3880 113.1679 39.5797 0.0000 0.0000 0.0000
# 3 33.7055 39.5797 96.5929 0.0000 0.0000 0.0000
# 4 0.0000 0.0000 0.0000 23.8269 0.0000 0.0000
# 5 0.0000 0.0000 0.0000 0.0000 22.4499 0.0000
# 6 0.0000 0.0000 0.0000 0.0000 0.0000 20.4034
#
#
#
# Elastic Compliance Matrix: (Units=1/GPa)
#
#
# Indices 1 2 3 4 5 6 
#
# 1 0.014146 -0.004461 -0.003108 0.000000 0.000000 0.000000
# 2 -0.004461 0.011722 -0.003246 0.000000 0.000000 0.000000
# 3 -0.003108 -0.003246 0.012767 0.000000 0.000000 0.000000
# 4 0.000000 0.000000 0.000000 0.041969 0.000000 0.000000
# 5 0.000000 0.000000 0.000000 0.000000 0.044544 0.000000
# 6 0.000000 0.000000 0.000000 0.000000 0.000000 0.049011
#
#
# Mechanical properties :
#
#
# Convention : Reuss Voigt Hill
#
# Bulk Modulus (GPa) = 58.81111 59.68929 59.25020
# Shear Modulus (GPa) = 24.81897 25.61500 25.21698
#
# Velocity S-wave (km/s) = 3.73469 3.79411 3.76452
# Velocity P-wave (km/s) = 7.18667 7.26211 7.22449
#
# Compressibility (1/GPa) = 0.01700359
#
# Stress axis : x y z
#
# Youngs Moduli (GPa) = 70.69161 85.31178 78.32428
#
# Poissons Ratio (x) = 0.38062 0.24343
# Poissons Ratio (y) = 0.31539 0.25426
# Poissons Ratio (z) = 0.21971 0.27694
#
# Static dielectric constant tensor:
#      x y z
#    x 3.617800 0.000000 0.000000 
#    y 0.000000 3.420730 0.000000 
#    z 0.000000 0.000000 3.170400 
# 
# 
# High freq. dielectric constant tensor:
#      x y z
#    x 1.664680 0.000000 0.000000 
#    y 0.000000 1.692400 0.000000 
#    z 0.000000 0.000000 1.668080 
# 
# From -- ./inp_files/15291.got.cif
#   From: 2010.06.25/outbox.ucp.g09.slc.cvg/sg71_8_cif.got.tgz:15291.got - 2010.06.28 16:23:14.
