data_PCOD8292516
_publ_section_title
;
Structure prediction by ZEFSAII (Michael W. Deem and Ramdas Pophale) SiO2 
 PCOD8292516
Probable space group: I M M M
;
_chemical_formula_sum "Si O2"
_cell_formula_units_Z 72
_cell_length_a 22.669574
_cell_length_b 9.608666
_cell_length_c 23.116721
_cell_angle_alpha 90.000000
_cell_angle_beta 90.000000
_cell_angle_gamma 90.000000
_cell_volume 5035.385071
_symmetry_space_group_name_H-M "I M M M"
_symmetry_group_IT_number 71
_symmetry_cell_setting 'orthorhombic'
loop_
_space_group_symop_operation_xyz
x,y,z
-x,-y,z
x,-y,-z
-x,y,-z
-x,-y,-z
x,y,-z
-x,y,z
x,-y,z
1/2+x,1/2+y,1/2+z
1/2-x,1/2-y,1/2+z
1/2+x,1/2-y,1/2-z
1/2-x,1/2+y,1/2-z
1/2-x,1/2-y,1/2-z
1/2+x,1/2+y,1/2-z
1/2-x,1/2+y,1/2+z
1/2+x,1/2-y,1/2+z
loop_
_atom_site_type_symbol
_atom_site_label
_atom_site_fract_x
_atom_site_fract_y
_atom_site_fract_z
Si Si1 0.108385 0.664113 0.615765
Si Si2 0.000000 0.836969 0.431657
Si Si3 0.708237 0.654958 0.675087
Si Si4 0.731739 0.834454 0.936055
Si Si5 0.835386 0.346995 0.733774
O O1 0.094496 0.500000 0.605894
O O2 0.165657 0.712485 0.579699
O O3 0.118618 0.695909 0.683785
O O4 0.056356 0.761503 0.594762
O O5 0.000000 0.816394 0.500000
O O6 0.000000 0.000000 0.414848
O O7 0.681752 0.500000 0.670501
O O8 0.720357 0.720256 0.611013
O O9 0.770428 0.651504 0.707284
O O10 0.661021 0.745013 0.711069
O O11 0.733212 0.000000 0.933158
O O12 0.748202 0.778328 0.000000
O O13 0.851327 0.500000 0.756969
#
# Coordination Sequence:
#
# PCOD8292516 Si02
#       5
#    16   8  16  16  16
#     4   9  17  29  44  56  67  94 134 165 188 218
#     4  11  23  33  39  53  77  99 122 159 202 231
#     4   8  13  21  35  54  73  94 118 145 183 224
#     4   8  13  22  37  56  75  96 127 161 183 209
#     4   8  14  24  37  54  72  89 117 155 187 217
#
# _framework density 14.298806000000001
#
# number of rings (size 3 to 8) (size 9 to 14) (size 15 to 20)
#    0.000    3.444    0.000    3.667    0.000    2.667 
#    0.000    3.333    0.000    2.000    0.000    0.000 
#    0.000    0.000    0.000    1.000    0.000   20.222 
#
# Total GULP energy -446031.397659 kJ/mol
# GULP energy per Si atom -12389.761046 kJ/mol
# Density = 1.426626 g / cm^3
# Si number density = 14.298806 Si / 1000 Ang^3
#
#
#
# Elastic Constant Matrix: (Units=GPa)
#
#
# Indices 1 2 3 4 5 6 
#
# 1 33.9730 32.9958 41.1380 0.0000 0.0000 0.0000
# 2 32.9958 70.2388 56.8715 0.0000 0.0000 0.0000
# 3 41.1380 56.8715 126.8415 0.0000 0.0000 0.0000
# 4 0.0000 0.0000 0.0000 20.9311 0.0000 0.0000
# 5 0.0000 0.0000 0.0000 0.0000 21.9108 0.0000
# 6 0.0000 0.0000 0.0000 0.0000 0.0000 16.7198
#
#
#
# Elastic Compliance Matrix: (Units=1/GPa)
#
#
# Indices 1 2 3 4 5 6 
#
# 1 0.062899 -0.020457 -0.011228 0.000000 0.000000 0.000000
# 2 -0.020457 0.029005 -0.006370 0.000000 0.000000 0.000000
# 3 -0.011228 -0.006370 0.014381 0.000000 0.000000 0.000000
# 4 0.000000 0.000000 0.000000 0.047776 0.000000 0.000000
# 5 0.000000 0.000000 0.000000 0.000000 0.045640 0.000000
# 6 0.000000 0.000000 0.000000 0.000000 0.000000 0.059809
#
#
# Mechanical properties :
#
#
# Convention : Reuss Voigt Hill
#
# Bulk Modulus (GPa) = 33.13874 54.78486 43.96180
# Shear Modulus (GPa) = 14.46429 18.58221 16.52325
#
# Velocity S-wave (km/s) = 3.18397 3.60886 3.40305
# Velocity P-wave (km/s) = 6.06161 7.46744 6.80095
#
# Compressibility (1/GPa) = 0.03017616
#
# Stress axis : x y z
#
# Youngs Moduli (GPa) = 15.89838 34.47690 69.53419
#
# Poissons Ratio (x) = 0.70530 0.78071
# Poissons Ratio (y) = 0.32523 0.44294
# Poissons Ratio (z) = 0.17850 0.21962
#
# Static dielectric constant tensor:
#      x y z
#    x 2.417480 0.000000 0.000000 
#    y 0.000000 2.826590 0.000000 
#    z 0.000000 0.000000 3.165090 
# 
# 
# High freq. dielectric constant tensor:
#      x y z
#    x 1.491290 0.000000 0.000000 
#    y 0.000000 1.530910 0.000000 
#    z 0.000000 0.000000 1.550430 
# 
# From -- ./inp_files/7973.got.cif
#   From: 2010.06.25/outbox.cif.g09.slc.cpg/sg71_4_cif.got.tgz:7973.got - 2010.06.28 04:59:45.
