data_PCOD8292767
_publ_section_title
;
Structure prediction by ZEFSAII (Michael W. Deem and Ramdas Pophale) SiO2 
 PCOD8292767
Probable space group: I M M M
;
_chemical_formula_sum "Si O2"
_cell_formula_units_Z 96
_cell_length_a 14.498811
_cell_length_b 30.174406
_cell_length_c 14.498729
_cell_angle_alpha 90.000000
_cell_angle_beta 90.000000
_cell_angle_gamma 90.000000
_cell_volume 6343.092586
_symmetry_space_group_name_H-M "I M M M"
_symmetry_group_IT_number 71
_symmetry_cell_setting 'orthorhombic'
loop_
_space_group_symop_operation_xyz
x,y,z
-x,-y,z
x,-y,-z
-x,y,-z
-x,-y,-z
x,y,-z
-x,y,z
x,-y,z
1/2+x,1/2+y,1/2+z
1/2-x,1/2-y,1/2+z
1/2+x,1/2-y,1/2-z
1/2-x,1/2+y,1/2-z
1/2-x,1/2-y,1/2-z
1/2+x,1/2+y,1/2-z
1/2-x,1/2+y,1/2+z
1/2+x,1/2-y,1/2+z
loop_
_atom_site_type_symbol
_atom_site_label
_atom_site_fract_x
_atom_site_fract_y
_atom_site_fract_z
Si Si1 0.745552 0.675002 0.105508
Si Si2 0.105916 0.750000 0.605917
Si Si3 0.891072 0.500000 0.397150
Si Si4 0.394493 0.824998 0.754447
Si Si5 0.256770 0.425921 0.106557
Si Si6 0.102850 0.000000 0.608929
Si Si7 0.106556 0.425921 0.256769
O O1 0.663326 0.707110 0.137212
O O2 0.836038 0.685819 0.163962
O O3 0.711349 0.624738 0.120701
O O4 0.773319 0.683353 0.000000
O O5 0.124110 0.737849 0.500000
O O6 0.137208 0.707110 0.663326
O O7 0.000000 0.762152 0.624109
O O8 0.846451 0.500000 0.500000
O O9 0.859101 0.543664 0.341413
O O10 0.000000 0.500000 0.407381
O O11 0.500000 0.816647 0.726678
O O12 0.379301 0.875262 0.788650
O O13 0.341414 0.456336 0.140900
O O14 0.165763 0.436812 0.165762
O O15 0.231748 0.435844 0.000000
O O16 0.092618 0.000000 0.500000
O O17 0.000000 0.000000 0.653550
O O18 0.000000 0.435845 0.231747
#
# Coordination Sequence:
#
# PCOD8292767 Si02
#       7
#    16  16   8  16  16   8  16
#     4   9  17  28  42  60  82 108 136 167 203 242
#     4   9  17  28  42  60  81 107 140 174 206 241
#     4   9  17  28  41  57  79 107 135 163 195 230
#     4   9  17  28  42  60  82 108 136 167 203 242
#     4   9  17  28  42  61  84 109 136 165 199 241
#     4   9  17  28  41  57  79 107 135 163 195 230
#     4   9  17  28  42  61  84 109 136 165 199 241
#
# _framework density 15.134574000000001
#
# number of rings (size 3 to 8) (size 9 to 14) (size 15 to 20)
#    0.000    3.000    0.000    1.000    0.000    2.000 
#    0.000   10.000    0.000    3.000    0.000    0.000 
#    0.000    5.333    0.000   24.667    0.000    2.000 
#
# Total GULP energy -595102.252535 kJ/mol
# GULP energy per Si atom -12397.963594 kJ/mol
# Density = 1.510013 g / cm^3
# Si number density = 15.134574 Si / 1000 Ang^3
#
#
#
# Elastic Constant Matrix: (Units=GPa)
#
#
# Indices 1 2 3 4 5 6 
#
# 1 80.9460 62.2780 49.6051 -0.0001 0.0000 0.0000
# 2 62.2780 112.3749 62.2758 0.0000 0.0000 0.0000
# 3 49.6051 62.2758 80.9398 -0.0003 0.0000 0.0000
# 4 -0.0001 0.0000 -0.0003 24.9887 0.0000 0.0000
# 5 0.0000 0.0000 0.0000 0.0000 17.1305 0.0000
# 6 0.0000 0.0000 0.0000 0.0000 0.0000 24.9893
#
#
#
# Elastic Compliance Matrix: (Units=1/GPa)
#
#
# Indices 1 2 3 4 5 6 
#
# 1 0.024081 -0.009008 -0.007828 0.000000 0.000000 0.000000
# 2 -0.009008 0.018883 -0.009008 0.000000 0.000000 0.000000
# 3 -0.007828 -0.009008 0.024083 0.000000 0.000000 0.000000
# 4 0.000000 0.000000 0.000000 0.040018 0.000000 0.000000
# 5 0.000000 0.000000 0.000000 0.000000 0.058375 0.000000
# 6 0.000000 0.000000 0.000000 0.000000 0.000000 0.040017
#
#
# Mechanical properties :
#
#
# Convention : Reuss Voigt Hill
#
# Bulk Modulus (GPa) = 65.10483 69.17540 67.14011
# Shear Modulus (GPa) = 19.06458 20.09515 19.57987
#
# Velocity S-wave (km/s) = 3.55303 3.64780 3.60073
# Velocity P-wave (km/s) = 7.74227 7.97170 7.85782
#
# Compressibility (1/GPa) = 0.01535984
#
# Stress axis : x y z
#
# Youngs Moduli (GPa) = 41.52578 52.95743 41.52243
#
# Poissons Ratio (x) = 0.47703 0.32504
# Poissons Ratio (y) = 0.37406 0.37405
# Poissons Ratio (z) = 0.32506 0.47705
#
# Static dielectric constant tensor:
#      x y z
#    x 2.873890 0.000000 0.000000 
#    y 0.000000 3.093130 0.000000 
#    z 0.000000 0.000000 2.873880 
# 
# 
# High freq. dielectric constant tensor:
#      x y z
#    x 1.562920 0.000000 0.000000 
#    y 0.000000 1.592110 0.000000 
#    z 0.000000 0.000000 1.562920 
# 
# From -- ./inp_files/22613.got.cif
#   From: 2010.06.25/outbox.cif.g09.slc.cpg/sg71_12_cif.got.tgz:22613.got - 2010.06.28 04:59:45.
