data_PCOD8292599
_publ_section_title
;
Structure prediction by ZEFSAII (Michael W. Deem and Ramdas Pophale) SiO2 
 PCOD8292599
Probable space group: I M M M
;
_chemical_formula_sum "Si O2"
_cell_formula_units_Z 88
_cell_length_a 30.015400
_cell_length_b 8.806982
_cell_length_c 18.085840
_cell_angle_alpha 90.000000
_cell_angle_beta 90.000000
_cell_angle_gamma 90.000000
_cell_volume 4780.902958
_symmetry_space_group_name_H-M "I M M M"
_symmetry_group_IT_number 71
_symmetry_cell_setting 'orthorhombic'
loop_
_space_group_symop_operation_xyz
x,y,z
-x,-y,z
x,-y,-z
-x,y,-z
-x,-y,-z
x,y,-z
-x,y,z
x,-y,z
1/2+x,1/2+y,1/2+z
1/2-x,1/2-y,1/2+z
1/2+x,1/2-y,1/2-z
1/2-x,1/2+y,1/2-z
1/2-x,1/2-y,1/2-z
1/2+x,1/2+y,1/2-z
1/2-x,1/2+y,1/2+z
1/2+x,1/2-y,1/2+z
loop_
_atom_site_type_symbol
_atom_site_label
_atom_site_fract_x
_atom_site_fract_y
_atom_site_fract_z
Si Si1 0.051872 0.179062 0.660878
Si Si2 0.747929 0.670631 0.585187
Si Si3 0.880349 0.679226 0.228665
Si Si4 0.354415 0.678812 0.583374
Si Si5 0.552826 0.667214 0.000000
Si Si6 0.708433 0.677255 0.208965
O O1 0.077049 0.268064 0.725100
O O2 0.066711 0.244081 0.578763
O O3 0.000000 0.210085 0.674040
O O4 0.062492 0.000000 0.665443
O O5 0.759479 0.676219 0.500000
O O6 0.754814 0.500000 0.616033
O O7 0.696987 0.720578 0.599979
O O8 0.782551 0.786200 0.623011
O O9 0.877142 0.500000 0.229345
O O10 0.884822 0.735467 0.143566
O O11 0.837112 0.748957 0.266075
O O12 0.367263 0.731349 0.500000
O O13 0.361840 0.500000 0.590984
O O14 0.574089 0.500000 0.000000
O O15 0.500000 0.651729 0.000000
O O16 0.705547 0.500000 0.224394
O O17 0.750000 0.750000 0.250000
#
# Coordination Sequence:
#
# PCOD8292599 Si02
#       6
#    16  16  16  16   8  16
#     4   9  18  36  62  87 111 142 181 228 277 325
#     4   9  18  34  55  77 104 139 179 226 276 324
#     4  12  24  36  54  82 114 149 184 223 275 328
#     4   9  18  34  57  81 106 140 182 229 276 325
#     4   7  12  28  57  87 109 135 177 225 269 315
#     4  12  23  36  54  77 108 145 186 228 272 321
#
# _framework density 18.406566000000002
#
# number of rings (size 3 to 8) (size 9 to 14) (size 15 to 20)
#    0.000    2.091    1.818    5.455    0.000    1.091 
#    1.636    2.273    0.000    2.182    0.000    3.818 
#    0.000    0.000    0.000    0.000    0.000    0.000 
#
# Total GULP energy -545317.730972 kJ/mol
# GULP energy per Si atom -12393.584795 kJ/mol
# Density = 1.836467 g / cm^3
# Si number density = 18.406566 Si / 1000 Ang^3
#
#
#
# Elastic Constant Matrix: (Units=GPa)
#
#
# Indices 1 2 3 4 5 6 
#
# 1 60.4769 43.3409 52.8717 0.0000 0.0000 0.0000
# 2 43.3409 103.9789 65.0019 0.0000 0.0000 0.0000
# 3 52.8717 65.0019 147.5792 0.0000 0.0000 0.0000
# 4 0.0000 0.0000 0.0000 26.5407 0.0000 0.0000
# 5 0.0000 0.0000 0.0000 0.0000 30.1219 0.0000
# 6 0.0000 0.0000 0.0000 0.0000 0.0000 23.3630
#
#
#
# Elastic Compliance Matrix: (Units=1/GPa)
#
#
# Indices 1 2 3 4 5 6 
#
# 1 0.027626 -0.007352 -0.006659 0.000000 0.000000 0.000000
# 2 -0.007352 0.015228 -0.004073 0.000000 0.000000 0.000000
# 3 -0.006659 -0.004073 0.010956 0.000000 0.000000 0.000000
# 4 0.000000 0.000000 0.000000 0.037678 0.000000 0.000000
# 5 0.000000 0.000000 0.000000 0.000000 0.033198 0.000000
# 6 0.000000 0.000000 0.000000 0.000000 0.000000 0.042803
#
#
# Mechanical properties :
#
#
# Convention : Reuss Voigt Hill
#
# Bulk Modulus (GPa) = 56.68667 70.49599 63.59133
# Shear Modulus (GPa) = 23.86197 26.05982 24.96090
#
# Velocity S-wave (km/s) = 3.60444 3.76678 3.68650
# Velocity P-wave (km/s) = 6.94165 7.56972 7.26248
#
# Compressibility (1/GPa) = 0.01764083
#
# Stress axis : x y z
#
# Youngs Moduli (GPa) = 36.19811 65.66668 91.27631
#
# Poissons Ratio (x) = 0.48280 0.60779
# Poissons Ratio (y) = 0.26614 0.37180
# Poissons Ratio (z) = 0.24104 0.26748
#
# Static dielectric constant tensor:
#      x y z
#    x 3.214930 0.000000 0.000000 
#    y 0.000000 3.488700 0.000000 
#    z 0.000000 0.000000 3.895970 
# 
# 
# High freq. dielectric constant tensor:
#      x y z
#    x 1.676280 0.000000 0.000000 
#    y 0.000000 1.698700 0.000000 
#    z 0.000000 0.000000 1.737290 
# 
# From -- ./inp_files/42450.got.cif
#   From: 2010.06.25/outbox.cif.g09.slc.cpg/sg71_22_cif.got.tgz:42450.got - 2010.06.28 04:59:45.
