data_PCOD8292804
_publ_section_title
;
Structure prediction by ZEFSAII (Michael W. Deem and Ramdas Pophale) SiO2 
 PCOD8292804
Probable space group: I M M M
;
_chemical_formula_sum "Si O2"
_cell_formula_units_Z 44
_cell_length_a 9.000000
_cell_length_b 21.000000
_cell_length_c 24.000000
_cell_angle_alpha 90.000000
_cell_angle_beta 90.000000
_cell_angle_gamma 90.000000
_cell_volume 4536.000000
_symmetry_space_group_name_H-M "I M M M"
_symmetry_group_IT_number 71
_symmetry_cell_setting 'orthorhombic'
loop_
_space_group_symop_operation_xyz
x,y,z
-x,-y,z
x,-y,-z
-x,y,-z
-x,-y,-z
x,y,-z
-x,y,z
x,-y,z
1/2+x,1/2+y,1/2+z
1/2-x,1/2-y,1/2+z
1/2+x,1/2-y,1/2-z
1/2-x,1/2+y,1/2-z
1/2-x,1/2-y,1/2-z
1/2+x,1/2+y,1/2-z
1/2-x,1/2+y,1/2+z
1/2+x,1/2-y,1/2+z
loop_
_atom_site_type_symbol
_atom_site_label
_atom_site_fract_x
_atom_site_fract_y
_atom_site_fract_z
Si Si1 0.829023 0.864810 0.389324
Si Si2 0.329260 0.928333 0.210361
Si Si3 0.325196 0.808424 0.715891
Si Si4 0.324461 0.343344 0.500000
Si Si5 0.665343 0.713866 0.000000
Si Si6 0.675716 0.571109 0.401999
Si Si7 0.676950 0.500000 0.064473
O O1 0.738565 0.820752 0.345745
O O2 0.808765 0.830004 0.447373
O O3 0.769509 0.937284 0.400494
O O4 0.000000 0.866804 0.369585
O O5 0.500000 0.925310 0.192415
O O6 0.291298 0.876605 0.256569
O O7 0.232617 0.907898 0.157877
O O8 0.288047 0.000000 0.231394
O O9 0.500000 0.793327 0.712655
O O10 0.250000 0.750000 0.750000
O O11 0.500000 0.349432 0.500000
O O12 0.282485 0.270265 0.500000
O O13 0.258122 0.379128 0.446159
O O14 0.500000 0.743275 0.000000
O O15 0.500000 0.573325 0.401190
O O16 0.731504 0.500000 0.417133
O O17 0.500000 0.500000 0.060698
O O18 0.738040 0.500000 0.000000
#
# Coordination Sequence:
#
# PCOD8292804 Si02
#       7
#    16  16  16   8   8  16   8
#     4  10  21  39  63  91 120 154 198 245 296 353
#     4   9  20  39  59  80 110 148 188 232 284 340
#     4  11  25  42  62  86 119 159 200 248 299 357
#     4  10  21  34  53  81 113 147 186 234 285 339
#     4  10  22  38  57  83 118 155 190 232 285 348
#     4   9  18  34  56  81 109 142 183 233 284 332
#     4   9  16  34  65  95 123 157 199 248 299 358
#
# _framework density 9.7001760000000008
#
# number of rings (size 3 to 8) (size 9 to 14) (size 15 to 20)
#    0.000    2.273    0.909    0.818    3.818    4.000 
#    0.000    0.000    0.000    3.273    0.000    0.000 
#    0.000    0.000    0.000    0.000    0.000    0.000 
#
# Total GULP energy -545386.757390 kJ/mol
# GULP energy per Si atom -12395.153577 kJ/mol
# Density = 0.967810 g / cm^3
# Si number density = 9.700176 Si / 1000 Ang^3
#
#
#
# Elastic Constant Matrix: (Units=GPa)
#
#
# Indices 1 2 3 4 5 6 
#
# 1 49.0737 37.0953 39.1589 0.0000 0.0000 0.0000
# 2 37.0953 114.6789 56.3638 0.0000 0.0000 0.0000
# 3 39.1589 56.3638 109.0248 0.0000 0.0000 0.0000
# 4 0.0000 0.0000 0.0000 28.4139 0.0000 0.0000
# 5 0.0000 0.0000 0.0000 0.0000 28.7900 0.0000
# 6 0.0000 0.0000 0.0000 0.0000 0.0000 30.9503
#
#
#
# Elastic Compliance Matrix: (Units=1/GPa)
#
#
# Indices 1 2 3 4 5 6 
#
# 1 0.031556 -0.006216 -0.008120 0.000000 0.000000 0.000000
# 2 -0.006216 0.012915 -0.004444 0.000000 0.000000 0.000000
# 3 -0.008120 -0.004444 0.014386 0.000000 0.000000 0.000000
# 4 0.000000 0.000000 0.000000 0.035194 0.000000 0.000000
# 5 0.000000 0.000000 0.000000 0.000000 0.034734 0.000000
# 6 0.000000 0.000000 0.000000 0.000000 0.000000 0.032310
#
#
# Mechanical properties :
#
#
# Convention : Reuss Voigt Hill
#
# Bulk Modulus (GPa) = 46.95737 59.77926 53.36831
# Shear Modulus (GPa) = 24.30056 26.97479 25.63767
#
# Velocity S-wave (km/s) = 3.54303 3.73289 3.63920
# Velocity P-wave (km/s) = 6.40268 7.03276 6.72510
#
# Compressibility (1/GPa) = 0.02129591
#
# Stress axis : x y z
#
# Youngs Moduli (GPa) = 31.68935 77.42899 69.51010
#
# Poissons Ratio (x) = 0.48133 0.56445
# Poissons Ratio (y) = 0.19699 0.30891
# Poissons Ratio (z) = 0.25733 0.34410
#
# Static dielectric constant tensor:
#      x y z
#    x 3.380770 0.000000 0.000000 
#    y 0.000000 3.842240 0.000000 
#    z 0.000000 0.000000 3.574890 
# 
# 
# High freq. dielectric constant tensor:
#      x y z
#    x 1.733990 0.000000 0.000000 
#    y 0.000000 1.775380 0.000000 
#    z 0.000000 0.000000 1.759510 
# 
# From -- ./inp_files/57614.got.cif
#   From: 2010.06.25/outbox.ucp.g09.slc.cvg/sg71_29_cif.got.tgz:57614.got - 2010.06.28 16:23:14.
