data_PCOD8292452
_publ_section_title
;
Structure prediction by ZEFSAII (Michael W. Deem and Ramdas Pophale) SiO2 
 PCOD8292452
Probable space group: I M M M
;
_chemical_formula_sum "Si O2"
_cell_formula_units_Z 96
_cell_length_a 9.029781
_cell_length_b 19.428092
_cell_length_c 30.174630
_cell_angle_alpha 90.000000
_cell_angle_beta 90.000000
_cell_angle_gamma 90.000000
_cell_volume 5293.578068
_symmetry_space_group_name_H-M "I M M M"
_symmetry_group_IT_number 71
_symmetry_cell_setting 'orthorhombic'
loop_
_space_group_symop_operation_xyz
x,y,z
-x,-y,z
x,-y,-z
-x,y,-z
-x,-y,-z
x,y,-z
-x,y,z
x,-y,z
1/2+x,1/2+y,1/2+z
1/2-x,1/2-y,1/2+z
1/2+x,1/2-y,1/2-z
1/2-x,1/2+y,1/2-z
1/2-x,1/2-y,1/2-z
1/2+x,1/2+y,1/2-z
1/2-x,1/2+y,1/2+z
1/2+x,1/2-y,1/2+z
loop_
_atom_site_type_symbol
_atom_site_label
_atom_site_fract_x
_atom_site_fract_y
_atom_site_fract_z
Si Si1 0.333409 0.074629 0.552686
Si Si2 0.827443 0.293537 0.632153
Si Si3 0.169463 0.922068 0.837607
Si Si4 0.170718 0.922041 0.733710
Si Si5 0.328484 0.707353 0.049291
Si Si6 0.176011 0.711363 0.208985
O O1 0.328577 0.076182 0.500000
O O2 0.500000 0.083920 0.570033
O O3 0.238866 0.138114 0.571149
O O4 0.271706 0.000000 0.569135
O O5 0.779063 0.372858 0.635351
O O6 0.795312 0.270956 0.581648
O O7 0.728237 0.247095 0.664103
O O8 0.000000 0.285583 0.644641
O O9 0.194852 0.910382 0.785711
O O10 0.000000 0.905111 0.849886
O O11 0.208806 0.000000 0.850943
O O12 0.274258 0.868509 0.707636
O O13 0.000000 0.908505 0.721203
O O14 0.216041 0.000000 0.720581
O O15 0.500000 0.692408 0.045412
O O16 0.263511 0.723738 0.000000
O O17 0.250000 0.750000 0.250000
O O18 0.000000 0.716543 0.213227
#
# Coordination Sequence:
#
# PCOD8292452 Si02
#       6
#    16  16  16  16  16  16
#     4   8  14  26  46  72  99 127 164 211 259 306
#     4  11  22  35  54  80 107 139 178 218 264 314
#     4   9  18  33  54  79 106 136 171 215 263 310
#     4   9  18  34  55  78 107 142 177 216 262 308
#     4   9  19  35  53  75 104 137 176 221 265 311
#     4  12  23  35  53  78 109 141 175 215 258 309
#
# _framework density 18.135182
#
# number of rings (size 3 to 8) (size 9 to 14) (size 15 to 20)
#    0.000    2.333    1.667    3.500    0.000    2.333 
#    0.000    4.167    0.000    1.500    0.000    3.500 
#    0.000    0.000    0.000    0.000    0.000    0.000 
#
# Total GULP energy -595063.202242 kJ/mol
# GULP energy per Si atom -12397.150047 kJ/mol
# Density = 1.809391 g / cm^3
# Si number density = 18.135182 Si / 1000 Ang^3
#
#
#
# Elastic Constant Matrix: (Units=GPa)
#
#
# Indices 1 2 3 4 5 6 
#
# 1 91.5640 60.3895 39.2481 0.0000 0.0000 0.0000
# 2 60.3895 137.1844 44.9565 0.0000 0.0000 0.0000
# 3 39.2481 44.9565 60.0871 0.0000 0.0000 0.0000
# 4 0.0000 0.0000 0.0000 23.4495 0.0000 0.0000
# 5 0.0000 0.0000 0.0000 0.0000 19.2408 0.0000
# 6 0.0000 0.0000 0.0000 0.0000 0.0000 37.5599
#
#
#
# Elastic Compliance Matrix: (Units=1/GPa)
#
#
# Indices 1 2 3 4 5 6 
#
# 1 0.017658 -0.005291 -0.007576 0.000000 0.000000 0.000000
# 2 -0.005291 0.011242 -0.004956 0.000000 0.000000 0.000000
# 3 -0.007576 -0.004956 0.025299 0.000000 0.000000 0.000000
# 4 0.000000 0.000000 0.000000 0.042645 0.000000 0.000000
# 5 0.000000 0.000000 0.000000 0.000000 0.051973 0.000000
# 6 0.000000 0.000000 0.000000 0.000000 0.000000 0.026624
#
#
# Mechanical properties :
#
#
# Convention : Reuss Voigt Hill
#
# Bulk Modulus (GPa) = 53.89326 64.22486 59.05906
# Shear Modulus (GPa) = 23.01291 25.66613 24.33952
#
# Velocity S-wave (km/s) = 3.56612 3.76609 3.66746
# Velocity P-wave (km/s) = 6.83654 7.37581 7.11129
#
# Compressibility (1/GPa) = 0.01855520
#
# Stress axis : x y z
#
# Youngs Moduli (GPa) = 56.63227 88.94878 39.52785
#
# Poissons Ratio (x) = 0.47058 0.29944
# Poissons Ratio (y) = 0.29961 0.19589
# Poissons Ratio (z) = 0.42902 0.44081
#
# Static dielectric constant tensor:
#      x y z
#    x 3.352490 0.000000 0.000000 
#    y 0.000000 3.681320 0.000000 
#    z 0.000000 0.000000 3.155080 
# 
# 
# High freq. dielectric constant tensor:
#      x y z
#    x 1.700160 0.000000 0.000000 
#    y 0.000000 1.712300 0.000000 
#    z 0.000000 0.000000 1.665410 
# 
# From -- ./inp_files/63208.got.cif
#   From: 2010.06.25/outbox.cif.g09.slc.cpg/sg71_32_cif.got.tgz:63208.got - 2010.06.28 04:59:45.
