data_PCOD8292582
_publ_section_title
;
Structure prediction by ZEFSAII (Michael W. Deem and Ramdas Pophale) SiO2 
 PCOD8292582
Probable space group: I M M M
;
_chemical_formula_sum "Si O2"
_cell_formula_units_Z 88
_cell_length_a 15.291028
_cell_length_b 13.791394
_cell_length_c 19.634526
_cell_angle_alpha 90.000000
_cell_angle_beta 90.000000
_cell_angle_gamma 90.000000
_cell_volume 4140.619001
_symmetry_space_group_name_H-M "I M M M"
_symmetry_group_IT_number 71
_symmetry_cell_setting 'orthorhombic'
loop_
_space_group_symop_operation_xyz
x,y,z
-x,-y,z
x,-y,-z
-x,y,-z
-x,-y,-z
x,y,-z
-x,y,z
x,-y,z
1/2+x,1/2+y,1/2+z
1/2-x,1/2-y,1/2+z
1/2+x,1/2-y,1/2-z
1/2-x,1/2+y,1/2-z
1/2-x,1/2-y,1/2-z
1/2+x,1/2+y,1/2-z
1/2-x,1/2+y,1/2+z
1/2+x,1/2-y,1/2+z
loop_
_atom_site_type_symbol
_atom_site_label
_atom_site_fract_x
_atom_site_fract_y
_atom_site_fract_z
Si Si1 0.500000 0.883808 0.922180
Si Si2 0.662210 0.112225 0.836876
Si Si3 0.905613 0.111533 0.722158
Si Si4 0.097421 0.694331 0.924237
Si Si5 0.718576 0.884508 0.307982
Si Si6 0.144441 0.107808 0.877489
O O1 0.415792 0.841443 0.881528
O O2 0.500000 0.000000 0.924319
O O3 0.500000 0.844117 0.000000
O O4 0.670941 0.157126 0.760197
O O5 0.751889 0.126565 0.877517
O O6 0.640396 0.000000 0.827219
O O7 0.818767 0.157640 0.686432
O O8 0.894174 0.120397 0.802701
O O9 0.000000 0.160345 0.701861
O O10 0.910173 0.000000 0.700622
O O11 0.166733 0.647793 0.873808
O O12 0.101250 0.811353 0.925033
O O13 0.000000 0.660827 0.903155
O O14 0.118870 0.656900 0.000000
O O15 0.724135 0.000000 0.302252
O O16 0.123504 0.000000 0.905789
#
# Coordination Sequence:
#
# PCOD8292582 Si02
#       6
#     8  16  16  16  16  16
#     4   9  16  26  44  76 115 145 176 223 271 323
#     4   8  16  30  52  82 107 139 186 221 264 334
#     4   8  14  28  55  89 115 135 170 222 281 342
#     4  11  25  39  52  77 109 146 195 241 281 327
#     4   9  19  36  58  81 109 146 186 233 281 328
#     4   9  18  35  57  80 108 142 178 225 283 339
#
# _framework density 21.252860999999999
#
# number of rings (size 3 to 8) (size 9 to 14) (size 15 to 20)
#    0.000    3.000    0.000    2.727    1.273    5.818 
#    0.000    3.636    2.000    0.545    0.000    2.545 
#    0.000    0.000    0.000    0.000    0.000    0.364 
#
# Total GULP energy -545184.564781 kJ/mol
# GULP energy per Si atom -12390.558290 kJ/mol
# Density = 2.120449 g / cm^3
# Si number density = 21.252861 Si / 1000 Ang^3
#
#
#
# Elastic Constant Matrix: (Units=GPa)
#
#
# Indices 1 2 3 4 5 6 
#
# 1 199.3883 19.0036 95.3091 0.0000 0.0000 0.0000
# 2 19.0036 16.4639 12.1637 0.0000 0.0000 0.0000
# 3 95.3091 12.1637 105.0624 0.0000 0.0000 0.0000
# 4 0.0000 0.0000 0.0000 17.1997 0.0000 0.0000
# 5 0.0000 0.0000 0.0000 0.0000 22.2649 0.0000
# 6 0.0000 0.0000 0.0000 0.0000 0.0000 21.9165
#
#
#
# Elastic Compliance Matrix: (Units=1/GPa)
#
#
# Indices 1 2 3 4 5 6 
#
# 1 0.009199 -0.004869 -0.007781 0.000000 0.000000 0.000000
# 2 -0.004869 0.068998 -0.003571 0.000000 0.000000 0.000000
# 3 -0.007781 -0.003571 0.016990 0.000000 0.000000 0.000000
# 4 0.000000 0.000000 0.000000 0.058140 0.000000 0.000000
# 5 0.000000 0.000000 0.000000 0.000000 0.044914 0.000000
# 6 0.000000 0.000000 0.000000 0.000000 0.000000 0.045628
#
#
# Mechanical properties :
#
#
# Convention : Reuss Voigt Hill
#
# Bulk Modulus (GPa) = 15.93777 63.76304 39.85041
# Shear Modulus (GPa) = 16.82218 25.23877 21.03047
#
# Velocity S-wave (km/s) = 2.81646 3.44982 3.14910
# Velocity P-wave (km/s) = 4.25347 6.77758 5.65807
#
# Compressibility (1/GPa) = 0.06274403
#
# Stress axis : x y z
#
# Youngs Moduli (GPa) = 108.70903 14.49324 58.85661
#
# Poissons Ratio (x) = 0.07057 0.45797
# Poissons Ratio (y) = 0.52931 0.21019
# Poissons Ratio (z) = 0.84588 0.05176
#
# Static dielectric constant tensor:
#      x y z
#    x 4.334830 0.000000 0.000000 
#    y 0.000000 3.621890 0.000000 
#    z 0.000000 0.000000 3.527360 
# 
# 
# High freq. dielectric constant tensor:
#      x y z
#    x 1.851630 0.000000 0.000000 
#    y 0.000000 1.811410 0.000000 
#    z 0.000000 0.000000 1.795880 
# 
# From -- ./inp_files/52900.got.cif
#   From: 2010.06.25/outbox.cif.g09.slc.cpg/sg71_27_cif.got.tgz:52900.got - 2010.06.28 04:59:45.
