data_PCOD8292746
_publ_section_title
;
Structure prediction by ZEFSAII (Michael W. Deem and Ramdas Pophale) SiO2 
 PCOD8292746
Probable space group: I M M M
;
_chemical_formula_sum "Si O2"
_cell_formula_units_Z 88
_cell_length_a 19.343807
_cell_length_b 9.416806
_cell_length_c 27.646698
_cell_angle_alpha 90.000000
_cell_angle_beta 90.000000
_cell_angle_gamma 90.000000
_cell_volume 5036.036190
_symmetry_space_group_name_H-M "I M M M"
_symmetry_group_IT_number 71
_symmetry_cell_setting 'orthorhombic'
loop_
_space_group_symop_operation_xyz
x,y,z
-x,-y,z
x,-y,-z
-x,y,-z
-x,-y,-z
x,y,-z
-x,y,z
x,-y,z
1/2+x,1/2+y,1/2+z
1/2-x,1/2-y,1/2+z
1/2+x,1/2-y,1/2-z
1/2-x,1/2+y,1/2-z
1/2-x,1/2-y,1/2-z
1/2+x,1/2+y,1/2-z
1/2-x,1/2+y,1/2+z
1/2+x,1/2-y,1/2+z
loop_
_atom_site_type_symbol
_atom_site_label
_atom_site_fract_x
_atom_site_fract_y
_atom_site_fract_z
Si Si1 0.000000 0.668506 0.445879
Si Si2 0.315415 0.165073 0.656673
Si Si3 0.577196 0.833802 0.732329
Si Si4 0.730199 0.834391 0.446931
Si Si5 0.809007 0.660898 0.306544
Si Si6 0.855280 0.339894 0.584956
O O1 0.931257 0.727716 0.420546
O O2 0.000000 0.500000 0.442189
O O3 0.000000 0.724545 0.500000
O O4 0.391638 0.194916 0.678529
O O5 0.315272 0.214987 0.599972
O O6 0.260386 0.244796 0.691438
O O7 0.296217 0.000000 0.660208
O O8 0.500000 0.764467 0.736154
O O9 0.632355 0.772425 0.771171
O O10 0.569732 0.000000 0.742294
O O11 0.695201 0.801864 0.500000
O O12 0.802609 0.753972 0.445676
O O13 0.745635 0.000000 0.442435
O O14 0.789612 0.500000 0.290424
O O15 0.841070 0.661801 0.358986
O O16 0.851221 0.500000 0.564043
#
# Coordination Sequence:
#
# PCOD8292746 Si02
#       6
#     8  16  16  16  16  16
#     4   9  16  24  35  53  79 109 137 169 208 244
#     4   9  17  30  47  65  87 116 146 178 215 257
#     4   9  17  28  45  68  91 115 144 177 215 260
#     4   9  17  29  44  61  82 109 142 178 215 254
#     4   9  17  28  45  67  88 113 144 179 214 252
#     4   9  17  27  41  61  84 109 140 177 212 250
#
# _framework density 17.474060999999999
#
# number of rings (size 3 to 8) (size 9 to 14) (size 15 to 20)
#    0.000    3.000    0.000    1.091    1.273    1.091 
#    0.000    0.455    0.000    4.364    0.000    3.818 
#    0.000    0.000    0.000    9.091    0.000    9.455 
#
# Total GULP energy -545089.558434 kJ/mol
# GULP energy per Si atom -12388.399055 kJ/mol
# Density = 1.743429 g / cm^3
# Si number density = 17.474061 Si / 1000 Ang^3
#
#
#
# Elastic Constant Matrix: (Units=GPa)
#
#
# Indices 1 2 3 4 5 6 
#
# 1 88.0745 17.8847 42.6280 0.0000 0.0000 0.0000
# 2 17.8847 23.6379 14.4311 0.0000 0.0000 0.0000
# 3 42.6280 14.4311 86.8162 0.0000 0.0000 0.0000
# 4 0.0000 0.0000 0.0000 14.3066 0.0000 0.0000
# 5 0.0000 0.0000 0.0000 0.0000 11.9738 0.0000
# 6 0.0000 0.0000 0.0000 0.0000 0.0000 17.2466
#
#
#
# Elastic Compliance Matrix: (Units=1/GPa)
#
#
# Indices 1 2 3 4 5 6 
#
# 1 0.016220 -0.008247 -0.006593 0.000000 0.000000 0.000000
# 2 -0.008247 0.051276 -0.004474 0.000000 0.000000 0.000000
# 3 -0.006593 -0.004474 0.015500 0.000000 0.000000 0.000000
# 4 0.000000 0.000000 0.000000 0.069898 0.000000 0.000000
# 5 0.000000 0.000000 0.000000 0.000000 0.083516 0.000000
# 6 0.000000 0.000000 0.000000 0.000000 0.000000 0.057983
#
#
# Mechanical properties :
#
#
# Convention : Reuss Voigt Hill
#
# Bulk Modulus (GPa) = 22.53923 38.71290 30.62606
# Shear Modulus (GPa) = 14.37569 16.94438 15.66003
#
# Velocity S-wave (km/s) = 2.87136 3.11736 2.99689
# Velocity P-wave (km/s) = 4.89077 5.92957 5.43505
#
# Compressibility (1/GPa) = 0.04436710
#
# Stress axis : x y z
#
# Youngs Moduli (GPa) = 61.65296 19.50228 64.51733
#
# Poissons Ratio (x) = 0.16083 0.42538
# Poissons Ratio (y) = 0.50844 0.28866
# Poissons Ratio (z) = 0.40650 0.08725
#
# Static dielectric constant tensor:
#      x y z
#    x 3.298750 0.000000 0.000000 
#    y 0.000000 3.135620 0.000000 
#    z 0.000000 0.000000 3.552900 
# 
# 
# High freq. dielectric constant tensor:
#      x y z
#    x 1.653250 0.000000 0.000000 
#    y 0.000000 1.637670 0.000000 
#    z 0.000000 0.000000 1.691590 
# 
# From -- ./inp_files/11343.got.cif
#   From: 2010.06.25/outbox.cif.g09.slc.cpg/sg71_6_cif.got.tgz:11343.got - 2010.06.28 04:59:45.
