data_PCOD8292166
_publ_section_title
;
Structure prediction by ZEFSAII (Michael W. Deem and Ramdas Pophale) SiO2 
 PCOD8292166
Probable space group: I M M M
;
_chemical_formula_sum "Si O2"
_cell_formula_units_Z 80
_cell_length_a 8.513056
_cell_length_b 18.849670
_cell_length_c 22.993751
_cell_angle_alpha 90.000000
_cell_angle_beta 90.000000
_cell_angle_gamma 90.000000
_cell_volume 3689.768048
_symmetry_space_group_name_H-M "I M M M"
_symmetry_group_IT_number 71
_symmetry_cell_setting 'orthorhombic'
loop_
_space_group_symop_operation_xyz
x,y,z
-x,-y,z
x,-y,-z
-x,y,-z
-x,-y,-z
x,y,-z
-x,y,z
x,-y,z
1/2+x,1/2+y,1/2+z
1/2-x,1/2-y,1/2+z
1/2+x,1/2-y,1/2-z
1/2-x,1/2+y,1/2-z
1/2-x,1/2-y,1/2-z
1/2+x,1/2+y,1/2-z
1/2-x,1/2+y,1/2+z
1/2+x,1/2-y,1/2+z
loop_
_atom_site_type_symbol
_atom_site_label
_atom_site_fract_x
_atom_site_fract_y
_atom_site_fract_z
Si Si1 0.684330 0.080936 0.296372
Si Si2 0.185413 0.244783 0.500000
Si Si3 0.323770 0.076649 0.116990
Si Si4 0.678542 0.678353 0.696524
Si Si5 0.683446 0.307417 0.872442
Si Si6 0.316092 0.398068 0.500000
O O1 0.500000 0.079143 0.305425
O O2 0.722160 0.134149 0.243473
O O3 0.762616 0.113374 0.354825
O O4 0.747253 0.000000 0.286624
O O5 0.232981 0.204122 0.559975
O O6 0.289667 0.314239 0.500000
O O7 0.000000 0.262106 0.500000
O O8 0.500000 0.109653 0.122136
O O9 0.191773 0.130190 0.139559
O O10 0.274157 0.063942 0.051696
O O11 0.321608 0.000000 0.149272
O O12 0.500000 0.686466 0.717721
O O13 0.743739 0.755119 0.677415
O O14 0.500000 0.298434 0.866096
O O15 0.500000 0.415937 0.500000
#
# Coordination Sequence:
#
# PCOD8292166 Si02
#       6
#    16   8  16  16  16   8
#     4  11  25  45  67  93 128 169 212 262 322 382
#     4  10  22  41  66  93 126 167 210 259 317 380
#     4  11  23  38  56  81 120 169 214 258 313 376
#     4  12  24  39  63  95 129 165 210 262 314 375
#     4  11  23  42  69  97 128 167 212 261 315 379
#     4  12  23  35  56  84 119 161 210 266 314 368
#
# _framework density 21.681578999999999
#
# number of rings (size 3 to 8) (size 9 to 14) (size 15 to 20)
#    0.000    0.800    2.000    6.000    0.000    7.600 
#    0.000    0.500    0.000    3.000    0.000    0.000 
#    0.000    0.000    0.000    0.000    0.000    0.000 
#
# Total GULP energy -495668.791878 kJ/mol
# GULP energy per Si atom -12391.719797 kJ/mol
# Density = 2.163223 g / cm^3
# Si number density = 21.681579 Si / 1000 Ang^3
#
#
#
# Elastic Constant Matrix: (Units=GPa)
#
#
# Indices 1 2 3 4 5 6 
#
# 1 75.0243 25.0045 6.8983 0.0000 0.0000 0.0000
# 2 25.0045 117.7250 59.5497 -0.0004 0.0000 0.0000
# 3 6.8983 59.5497 79.6883 -0.0002 0.0000 0.0000
# 4 0.0000 -0.0004 -0.0002-1764.0605 0.0000 -0.0001
# 5 0.0000 0.0000 0.0000 0.0000 32.0465 0.0000
# 6 0.0000 0.0000 0.0000 -0.0001 0.0000 25.9063
#
#
#
# Elastic Compliance Matrix: (Units=1/GPa)
#
#
# Indices 1 2 3 4 5 6 
#
# 1 0.014483 -0.003926 0.001680 0.000000 0.000000 0.000000
# 2 -0.003926 0.014721 -0.010661 0.000000 0.000000 0.000000
# 3 0.001680 -0.010661 0.020370 0.000000 0.000000 0.000000
# 4 0.000000 0.000000 0.000000 -0.000567 0.000000 0.000000
# 5 0.000000 0.000000 0.000000 0.000000 0.031205 0.000000
# 6 0.000000 0.000000 0.000000 0.000000 0.000000 0.038601
#
#
# Mechanical properties :
#
#
# Convention : Reuss Voigt Hill
#
# Bulk Modulus (GPa) = 42.08654 50.59363 46.34008
# Shear Modulus (GPa) = 32.77699 -329.15585 -148.18943
#
# Velocity S-wave (km/s) = 3.89233 -12.33463 -8.27626
# Velocity P-wave (km/s) = 6.29712 13.39672 8.36117
#
# Compressibility (1/GPa) = 0.02376057
#
# Stress axis : x y z
#
# Youngs Moduli (GPa) = 69.04642 67.93070 49.09154
#
# Poissons Ratio (x) = 0.26670 -0.08248
# Poissons Ratio (y) = 0.27108 0.52336
# Poissons Ratio (z) = -0.11601 0.72420
#
# Static dielectric constant tensor:
#      x y z
#    x 3.770010 0.000000 0.000000 
#    y 0.000000 4.157950 0.000000 
#    z 0.000000 0.000000 4.308060 
# 
# 
# High freq. dielectric constant tensor:
#      x y z
#    x 1.848960 0.000000 0.000000 
#    y 0.000000 1.853440 0.000000 
#    z 0.000000 0.000000 1.857350 
# 
# From -- ./inp_files/63077.got.cif
#   From: 2010.06.25/outbox.cif.g09.slc.cpg/sg71_32_cif.got.tgz:63077.got - 2010.06.28 04:59:45.
