data_PCOD8292893
_publ_section_title
;
Structure prediction by ZEFSAII (Michael W. Deem and Ramdas Pophale) SiO2 
 PCOD8292893
Probable space group: I B A M
;
_chemical_formula_sum "Si O2"
_cell_formula_units_Z 92
_cell_length_a 9.313213
_cell_length_b 25.302077
_cell_length_c 21.397269
_cell_angle_alpha 90.000000
_cell_angle_beta 90.000000
_cell_angle_gamma 90.000000
_cell_volume 5042.130192
_symmetry_space_group_name_H-M "I B A M"
_symmetry_group_IT_number 72
_symmetry_cell_setting 'orthorhombic'
loop_
_space_group_symop_operation_xyz
x,y,z
-x,-y,z
x,-y,1/2-z
-x,y,1/2-z
-x,-y,-z
x,y,-z
-x,y,1/2+z
x,-y,1/2+z
1/2+x,1/2+y,1/2+z
1/2-x,1/2-y,1/2+z
1/2+x,1/2-y,-z
1/2-x,1/2+y,-z
1/2-x,1/2-y,1/2-z
1/2+x,1/2+y,1/2-z
1/2-x,1/2+y,z
1/2+x,1/2-y,z
loop_
_atom_site_type_symbol
_atom_site_label
_atom_site_fract_x
_atom_site_fract_y
_atom_site_fract_z
Si Si1 0.500000 0.000000 0.750000
Si Si2 0.563147 0.282915 0.427582
Si Si3 0.000000 0.934295 0.250000
Si Si4 0.742948 0.812286 0.073012
Si Si5 0.749317 0.025927 0.833750
Si Si6 0.130829 0.102527 0.572629
Si Si7 0.159728 0.913152 0.366623
O O1 0.604425 0.035668 0.793539
O O2 0.601248 0.280723 0.500000
O O3 0.627586 0.229053 0.398474
O O4 0.394764 0.284131 0.415457
O O5 0.636349 0.336907 0.402324
O O6 0.890712 0.970411 0.290570
O O7 0.908662 0.898645 0.201527
O O8 0.732895 0.866596 0.112120
O O9 0.718884 0.825672 0.000000
O O10 0.752330 0.069290 0.888585
O O11 0.749444 0.967189 0.863295
O O12 0.169400 0.097737 0.500000
O O13 0.969092 0.080561 0.583081
#
# Coordination Sequence:
#
# PCOD8292893 Si02
#       7
#     4  16   8  16  16  16  16
#     4  12  24  38  50  74 110 150 176 206 252 320
#     4   8  15  30  48  71 102 135 169 200 246 314
#     4  10  17  34  56  75  93 136 186 214 251 300
#     4   9  17  30  50  75 101 132 165 204 253 305
#     4  11  21  35  56  77 105 138 176 217 257 311
#     4   9  18  32  56  84 105 132 172 220 265 302
#     4  10  17  29  54  78 100 128 174 222 249 298
#
# _framework density 18.246255999999999
#
# number of rings (size 3 to 8) (size 9 to 14) (size 15 to 20)
#    0.000    2.435    1.739    4.174    0.000    2.087 
#    3.130    0.435    0.000   10.435    0.000    0.000 
#    0.000    0.000    0.000    0.000    0.000    0.000 
#
# Total GULP energy -570067.810533 kJ/mol
# GULP energy per Si atom -12392.778490 kJ/mol
# Density = 1.820473 g / cm^3
# Si number density = 18.246256 Si / 1000 Ang^3
#
#
#
# Elastic Constant Matrix: (Units=GPa)
#
#
# Indices 1 2 3 4 5 6 
#
# 1 54.2381 27.2251 13.4920 0.0000 0.0000 0.0000
# 2 27.2251 103.1686 29.6376 0.0000 0.0000 0.0000
# 3 13.4920 29.6376 60.1866 -0.0001 0.0000 0.0000
# 4 0.0000 0.0000 -0.0001 15.1892 0.0000 0.0000
# 5 0.0000 0.0000 0.0000 0.0000 27.0634 0.0000
# 6 0.0000 0.0000 0.0000 0.0000 0.0000 28.9509
#
#
#
# Elastic Compliance Matrix: (Units=1/GPa)
#
#
# Indices 1 2 3 4 5 6 
#
# 1 0.021537 -0.005004 -0.002364 0.000000 0.000000 0.000000
# 2 -0.005004 0.012453 -0.005010 0.000000 0.000000 0.000000
# 3 -0.002364 -0.005010 0.019612 0.000000 0.000000 0.000000
# 4 0.000000 0.000000 0.000000 0.065836 0.000000 0.000000
# 5 0.000000 0.000000 0.000000 0.000000 0.036950 0.000000
# 6 0.000000 0.000000 0.000000 0.000000 0.000000 0.034541
#
#
# Mechanical properties :
#
#
# Convention : Reuss Voigt Hill
#
# Bulk Modulus (GPa) = 34.66766 39.81141 37.23953
# Shear Modulus (GPa) = 22.19249 24.05663 23.12456
#
# Velocity S-wave (km/s) = 3.49130 3.63497 3.56386
# Velocity P-wave (km/s) = 5.94082 6.28361 6.11462
#
# Compressibility (1/GPa) = 0.02884533
#
# Stress axis : x y z
#
# Youngs Moduli (GPa) = 46.43132 80.30324 50.98903
#
# Poissons Ratio (x) = 0.40187 0.12052
# Poissons Ratio (y) = 0.23236 0.25547
# Poissons Ratio (z) = 0.10975 0.40234
#
# Static dielectric constant tensor:
#      x y z
#    x 3.205820 0.000000 0.000000 
#    y 0.000000 3.484250 0.000000 
#    z 0.000000 0.000000 3.417370 
# 
# 
# High freq. dielectric constant tensor:
#      x y z
#    x 1.681710 0.000000 0.000000 
#    y 0.000000 1.700230 0.000000 
#    z 0.000000 0.000000 1.690820 
# 
# From -- ./inp_files/36103.got.cif
#   From: 2010.03.12/outbox.cif.g09.slc.cpg/sg72_19_cif.got.tgz:36103.got - 2010.04.16 14:54:00.
