data_PCOD8292261
_publ_section_title
;
Structure prediction by ZEFSAII (Michael W. Deem and Ramdas Pophale) SiO2 
 PCOD8292261
Probable space group: I M M M
;
_chemical_formula_sum "Si O2"
_cell_formula_units_Z 88
_cell_length_a 17.719034
_cell_length_b 20.704905
_cell_length_c 13.455293
_cell_angle_alpha 90.000000
_cell_angle_beta 90.000000
_cell_angle_gamma 90.000000
_cell_volume 4936.355663
_symmetry_space_group_name_H-M "I M M M"
_symmetry_group_IT_number 71
_symmetry_cell_setting 'orthorhombic'
loop_
_space_group_symop_operation_xyz
x,y,z
-x,-y,z
x,-y,-z
-x,y,-z
-x,-y,-z
x,y,-z
-x,y,z
x,-y,z
1/2+x,1/2+y,1/2+z
1/2-x,1/2-y,1/2+z
1/2+x,1/2-y,1/2-z
1/2-x,1/2+y,1/2-z
1/2-x,1/2-y,1/2-z
1/2+x,1/2+y,1/2-z
1/2-x,1/2+y,1/2+z
1/2+x,1/2-y,1/2+z
loop_
_atom_site_type_symbol
_atom_site_label
_atom_site_fract_x
_atom_site_fract_y
_atom_site_fract_z
Si Si1 0.413622 0.150720 0.694983
Si Si2 0.000000 0.923562 0.613026
Si Si3 0.640454 0.649370 0.803453
Si Si4 0.720429 0.925272 0.383853
Si Si5 0.087853 0.789898 0.111852
Si Si6 0.913011 0.721684 0.388730
O O1 0.500000 0.128812 0.681371
O O2 0.362860 0.092923 0.653850
O O3 0.395973 0.214815 0.631839
O O4 0.394936 0.164455 0.811281
O O5 0.925310 0.899486 0.667157
O O6 0.000000 0.897918 0.500000
O O7 0.000000 0.000000 0.616491
O O8 0.720466 0.616955 0.822490
O O9 0.635440 0.665350 0.686270
O O10 0.636500 0.715186 0.866872
O O11 0.729420 0.910499 0.500000
O O12 0.734658 0.000000 0.361053
O O13 0.000000 0.804287 0.130060
O O14 0.112743 0.806913 0.000000
O O15 0.896588 0.696332 0.500000
O O16 0.000000 0.743384 0.374740
#
# Coordination Sequence:
#
# PCOD8292261 Si02
#       6
#    16   8  16  16  16  16
#     4   9  19  36  56  79 104 136 175 216 269 320
#     4  11  20  30  49  73 101 143 181 204 242 304
#     4  11  19  33  51  78 109 140 172 212 258 306
#     4  11  24  38  52  74 105 138 175 223 266 306
#     4   9  17  32  56  83 109 137 172 216 261 310
#     4   9  16  29  54  85 112 134 163 211 263 314
#
# _framework density 17.826917000000002
#
# number of rings (size 3 to 8) (size 9 to 14) (size 15 to 20)
#    0.000    2.091    1.818    3.818    0.000    5.818 
#    0.000    3.636    0.000    4.364    0.000    2.545 
#    0.000    0.000    0.000    0.000    0.000    0.000 
#
# Total GULP energy -545686.847130 kJ/mol
# GULP energy per Si atom -12401.973798 kJ/mol
# Density = 1.778634 g / cm^3
# Si number density = 17.826917 Si / 1000 Ang^3
#
#
#
# Elastic Constant Matrix: (Units=GPa)
#
#
# Indices 1 2 3 4 5 6 
#
# 1 78.5256 25.3631 31.5343 0.0000 0.0000 0.0000
# 2 25.3631 40.1569 34.4381 0.0000 0.0000 0.0000
# 3 31.5343 34.4381 136.5453 0.0000 0.0000 0.0000
# 4 0.0000 0.0000 0.0000 24.0901 0.0000 0.0000
# 5 0.0000 0.0000 0.0000 0.0000 25.6675 0.0000
# 6 0.0000 0.0000 0.0000 0.0000 0.0000 22.1952
#
#
#
# Elastic Compliance Matrix: (Units=1/GPa)
#
#
# Indices 1 2 3 4 5 6 
#
# 1 0.016231 -0.008979 -0.001484 0.000000 0.000000 0.000000
# 2 -0.008979 0.036742 -0.007193 0.000000 0.000000 0.000000
# 3 -0.001484 -0.007193 0.009480 0.000000 0.000000 0.000000
# 4 0.000000 0.000000 0.000000 0.041511 0.000000 0.000000
# 5 0.000000 0.000000 0.000000 0.000000 0.038960 0.000000
# 6 0.000000 0.000000 0.000000 0.000000 0.000000 0.045055
#
#
# Mechanical properties :
#
#
# Convention : Reuss Voigt Hill
#
# Bulk Modulus (GPa) = 36.84367 48.65542 42.74954
# Shear Modulus (GPa) = 21.52041 25.31669 23.41855
#
# Velocity S-wave (km/s) = 3.47823 3.77256 3.62838
# Velocity P-wave (km/s) = 6.06985 6.80652 6.44871
#
# Compressibility (1/GPa) = 0.02714171
#
# Stress axis : x y z
#
# Youngs Moduli (GPa) = 61.61177 27.21672 105.48038
#
# Poissons Ratio (x) = 0.24437 0.15651
# Poissons Ratio (y) = 0.55320 0.75873
# Poissons Ratio (z) = 0.09142 0.19577
#
# Static dielectric constant tensor:
#      x y z
#    x 3.174580 0.000000 0.000000 
#    y 0.000000 3.021970 0.000000 
#    z 0.000000 0.000000 3.503940 
# 
# 
# High freq. dielectric constant tensor:
#      x y z
#    x 1.681560 0.000000 0.000000 
#    y 0.000000 1.662540 0.000000 
#    z 0.000000 0.000000 1.698010 
# 
# From -- ./inp_files/34372.got.cif
#   From: 2010.06.25/outbox.cif.g09.slc.cpg/sg71_18_cif.got.tgz:34372.got - 2010.06.28 04:59:45.
