data_PCOD8292760
_publ_section_title
;
Structure prediction by ZEFSAII (Michael W. Deem and Ramdas Pophale) SiO2 
 PCOD8292760
Probable space group: I M M M
;
_chemical_formula_sum "Si O2"
_cell_formula_units_Z 88
_cell_length_a 9.254081
_cell_length_b 17.096252
_cell_length_c 32.550581
_cell_angle_alpha 90.000000
_cell_angle_beta 90.000000
_cell_angle_gamma 90.000000
_cell_volume 5149.830701
_symmetry_space_group_name_H-M "I M M M"
_symmetry_group_IT_number 71
_symmetry_cell_setting 'orthorhombic'
loop_
_space_group_symop_operation_xyz
x,y,z
-x,-y,z
x,-y,-z
-x,y,-z
-x,-y,-z
x,y,-z
-x,y,z
x,-y,z
1/2+x,1/2+y,1/2+z
1/2-x,1/2-y,1/2+z
1/2+x,1/2-y,1/2-z
1/2-x,1/2+y,1/2-z
1/2-x,1/2-y,1/2-z
1/2+x,1/2+y,1/2-z
1/2-x,1/2+y,1/2+z
1/2+x,1/2-y,1/2+z
loop_
_atom_site_type_symbol
_atom_site_label
_atom_site_fract_x
_atom_site_fract_y
_atom_site_fract_z
Si Si1 0.667404 0.746678 0.378506
Si Si2 0.838253 0.362305 0.267123
Si Si3 0.161957 0.191113 0.695560
Si Si4 0.662752 0.500000 0.951203
Si Si5 0.167460 0.348874 0.046504
Si Si6 0.665731 0.414464 0.342538
O O1 0.500000 0.758998 0.367210
O O2 0.759243 0.800817 0.348075
O O3 0.699930 0.773451 0.425097
O O4 0.711195 0.654880 0.373980
O O5 0.843987 0.273596 0.281872
O O6 0.750721 0.368877 0.224328
O O7 0.760009 0.413956 0.301415
O O8 0.000000 0.394742 0.260209
O O9 0.000000 0.158759 0.688459
O O10 0.500000 0.500000 0.933847
O O11 0.743819 0.422352 0.935635
O O12 0.665334 0.500000 0.000000
O O13 0.000000 0.372540 0.047993
O O14 0.214369 0.327117 0.000000
O O15 0.500000 0.402181 0.329174
O O16 0.687600 0.500000 0.363648
#
# Coordination Sequence:
#
# PCOD8292760 Si02
#       6
#    16  16  16   8  16  16
#     4   9  17  29  46  68  93 123 159 196 233 275
#     4   9  16  26  42  63  86 113 147 186 228 274
#     4   9  16  26  42  64  88 114 145 183 228 276
#     4   9  17  29  47  71  95 117 143 179 225 277
#     4   9  17  30  49  71  95 124 156 189 228 278
#     4   9  17  29  45  65  91 124 161 200 238 273
#
# _framework density 17.087941000000001
#
# number of rings (size 3 to 8) (size 9 to 14) (size 15 to 20)
#    0.000    3.000    0.000    1.364    0.000    6.545 
#    0.000    0.000    2.000    0.545    0.000    3.818 
#    0.000    0.000    0.000   13.636    0.000   14.182 
#
# Total GULP energy -545388.213505 kJ/mol
# GULP energy per Si atom -12395.186671 kJ/mol
# Density = 1.704905 g / cm^3
# Si number density = 17.087941 Si / 1000 Ang^3
#
#
#
# Elastic Constant Matrix: (Units=GPa)
#
#
# Indices 1 2 3 4 5 6 
#
# 1 91.9226 38.7940 45.4583 0.0000 0.0000 0.0000
# 2 38.7940 91.2386 52.3921 0.0000 0.0000 0.0000
# 3 45.4583 52.3921 93.0578 0.0000 0.0000 0.0000
# 4 0.0000 0.0000 0.0000 18.5458 0.0000 0.0000
# 5 0.0000 0.0000 0.0000 0.0000 20.9389 0.0000
# 6 0.0000 0.0000 0.0000 0.0000 0.0000 13.9358
#
#
#
# Elastic Compliance Matrix: (Units=1/GPa)
#
#
# Indices 1 2 3 4 5 6 
#
# 1 0.014949 -0.003196 -0.005503 0.000000 0.000000 0.000000
# 2 -0.003196 0.016880 -0.007942 0.000000 0.000000 0.000000
# 3 -0.005503 -0.007942 0.017906 0.000000 0.000000 0.000000
# 4 0.000000 0.000000 0.000000 0.053920 0.000000 0.000000
# 5 0.000000 0.000000 0.000000 0.000000 0.047758 0.000000
# 6 0.000000 0.000000 0.000000 0.000000 0.000000 0.071758
#
#
# Mechanical properties :
#
#
# Convention : Reuss Voigt Hill
#
# Bulk Modulus (GPa) = 60.78353 61.05643 60.91998
# Shear Modulus (GPa) = 19.08851 19.98907 19.53879
#
# Velocity S-wave (km/s) = 3.34589 3.42391 3.38513
# Velocity P-wave (km/s) = 7.11160 7.17211 7.14192
#
# Compressibility (1/GPa) = 0.01645182
#
# Stress axis : x y z
#
# Youngs Moduli (GPa) = 66.89399 59.24196 55.84805
#
# Poissons Ratio (x) = 0.18935 0.30733
# Poissons Ratio (y) = 0.21381 0.44356
# Poissons Ratio (z) = 0.36812 0.47051
#
# Static dielectric constant tensor:
#      x y z
#    x 3.402550 0.000000 0.000000 
#    y 0.000000 3.042840 0.000000 
#    z 0.000000 0.000000 3.014040 
# 
# 
# High freq. dielectric constant tensor:
#      x y z
#    x 1.667780 0.000000 0.000000 
#    y 0.000000 1.634880 0.000000 
#    z 0.000000 0.000000 1.630070 
# 
# From -- ./inp_files/8866.got.cif
#   From: 2010.06.25/outbox.cif.g09.slc.cpg/sg71_5_cif.got.tgz:8866.got - 2010.06.28 04:59:45.
