data_PCOD8292704
_publ_section_title
;
Structure prediction by ZEFSAII (Michael W. Deem and Ramdas Pophale) SiO2 
 PCOD8292704
Probable space group: I M M M
;
_chemical_formula_sum "Si O2"
_cell_formula_units_Z 80
_cell_length_a 19.682226
_cell_length_b 9.239640
_cell_length_c 25.687807
_cell_angle_alpha 90.000000
_cell_angle_beta 90.000000
_cell_angle_gamma 90.000000
_cell_volume 4671.499365
_symmetry_space_group_name_H-M "I M M M"
_symmetry_group_IT_number 71
_symmetry_cell_setting 'orthorhombic'
loop_
_space_group_symop_operation_xyz
x,y,z
-x,-y,z
x,-y,-z
-x,y,-z
-x,-y,-z
x,y,-z
-x,y,z
x,-y,z
1/2+x,1/2+y,1/2+z
1/2-x,1/2-y,1/2+z
1/2+x,1/2-y,1/2-z
1/2-x,1/2+y,1/2-z
1/2-x,1/2-y,1/2-z
1/2+x,1/2+y,1/2-z
1/2-x,1/2+y,1/2+z
1/2+x,1/2-y,1/2+z
loop_
_atom_site_type_symbol
_atom_site_label
_atom_site_fract_x
_atom_site_fract_y
_atom_site_fract_z
Si Si1 0.576801 0.170744 0.941170
Si Si2 0.328001 0.829408 0.352176
Si Si3 0.670478 0.665310 0.138991
Si Si4 0.679549 0.331448 0.746166
Si Si5 0.075671 0.328108 0.942492
O O1 0.500000 0.222071 0.928524
O O2 0.628695 0.238546 0.900674
O O3 0.581974 0.000000 0.935778
O O4 0.596102 0.218243 0.000000
O O5 0.249604 0.789716 0.362606
O O6 0.359087 0.745263 0.301878
O O7 0.370306 0.769214 0.401088
O O8 0.337269 0.000000 0.342635
O O9 0.662338 0.500000 0.121263
O O10 0.641739 0.686633 0.198046
O O11 0.691784 0.500000 0.734092
O O12 0.750000 0.250000 0.750000
O O13 0.077316 0.500000 0.942760
O O14 0.000000 0.274240 0.927580
O O15 0.095451 0.270191 0.000000
#
# Coordination Sequence:
#
# PCOD8292704 Si02
#       5
#    16  16  16  16  16
#     4   9  19  35  51  67  90 120 153 190 232 276
#     4   9  17  29  47  72  98 122 153 193 231 269
#     4   9  18  30  46  70  95 120 151 187 230 277
#     4   9  17  30  47  68  95 124 153 187 229 274
#     4   8  14  26  45  68  94 125 159 193 228 266
#
# _framework density 17.125122000000001
#
# number of rings (size 3 to 8) (size 9 to 14) (size 15 to 20)
#    0.000    3.200    0.000    3.000    0.000    5.600 
#    0.000    4.000    0.000    4.800    0.000    1.400 
#    0.000    0.000    0.000    0.000    0.000    0.000 
#
# Total GULP energy -495655.956521 kJ/mol
# GULP energy per Si atom -12391.398913 kJ/mol
# Density = 1.708614 g / cm^3
# Si number density = 17.125122 Si / 1000 Ang^3
#
#
#
# Elastic Constant Matrix: (Units=GPa)
#
#
# Indices 1 2 3 4 5 6 
#
# 1 74.3470 29.8648 76.9902 0.0000 0.0000 0.0000
# 2 29.8648 54.5590 51.9984 0.0000 0.0000 0.0000
# 3 76.9902 51.9984 161.3356 0.0000 0.0000 0.0000
# 4 0.0000 0.0000 0.0000 32.3789 0.0000 0.0000
# 5 0.0000 0.0000 0.0000 0.0000 5.5152 0.0000
# 6 0.0000 0.0000 0.0000 0.0000 0.0000 19.2709
#
#
#
# Elastic Compliance Matrix: (Units=1/GPa)
#
#
# Indices 1 2 3 4 5 6 
#
# 1 0.027077 -0.003618 -0.011755 0.000000 0.000000 0.000000
# 2 -0.003618 0.026938 -0.006956 0.000000 0.000000 0.000000
# 3 -0.011755 -0.006956 0.014050 0.000000 0.000000 0.000000
# 4 0.000000 0.000000 0.000000 0.030884 0.000000 0.000000
# 5 0.000000 0.000000 0.000000 0.000000 0.181317 0.000000
# 6 0.000000 0.000000 0.000000 0.000000 0.000000 0.051892
#
#
# Mechanical properties :
#
#
# Convention : Reuss Voigt Hill
#
# Bulk Modulus (GPa) = 42.72178 67.54984 55.13581
# Shear Modulus (GPa) = 12.99991 20.19223 16.59607
#
# Velocity S-wave (km/s) = 2.75819 3.43753 3.11643
# Velocity P-wave (km/s) = 5.92828 7.43545 6.72423
#
# Compressibility (1/GPa) = 0.02340726
#
# Stress axis : x y z
#
# Youngs Moduli (GPa) = 36.93197 37.12160 71.17591
#
# Poissons Ratio (x) = 0.13431 0.83668
# Poissons Ratio (y) = 0.13362 0.49508
# Poissons Ratio (z) = 0.43414 0.25821
#
# Static dielectric constant tensor:
#      x y z
#    x 3.096190 0.000000 0.000000 
#    y 0.000000 3.068810 0.000000 
#    z 0.000000 0.000000 4.201080 
# 
# 
# High freq. dielectric constant tensor:
#      x y z
#    x 1.632730 0.000000 0.000000 
#    y 0.000000 1.639960 0.000000 
#    z 0.000000 0.000000 1.677700 
# 
# From -- ./inp_files/8298.got.cif
#   From: 2010.06.25/outbox.cif.g09.slc.cpg/sg71_5_cif.got.tgz:8298.got - 2010.06.28 04:59:45.
