data_PCOD8292603
_publ_section_title
;
Structure prediction by ZEFSAII (Michael W. Deem and Ramdas Pophale) SiO2 
 PCOD8292603
Probable space group: I M M M
;
_chemical_formula_sum "Si O2"
_cell_formula_units_Z 72
_cell_length_a 8.917594
_cell_length_b 28.321483
_cell_length_c 14.657461
_cell_angle_alpha 90.000000
_cell_angle_beta 90.000000
_cell_angle_gamma 90.000000
_cell_volume 3701.880829
_symmetry_space_group_name_H-M "I M M M"
_symmetry_group_IT_number 71
_symmetry_cell_setting 'orthorhombic'
loop_
_space_group_symop_operation_xyz
x,y,z
-x,-y,z
x,-y,-z
-x,y,-z
-x,-y,-z
x,y,-z
-x,y,z
x,-y,z
1/2+x,1/2+y,1/2+z
1/2-x,1/2-y,1/2+z
1/2+x,1/2-y,1/2-z
1/2-x,1/2+y,1/2-z
1/2-x,1/2-y,1/2-z
1/2+x,1/2+y,1/2-z
1/2-x,1/2+y,1/2+z
1/2+x,1/2-y,1/2+z
loop_
_atom_site_type_symbol
_atom_site_label
_atom_site_fract_x
_atom_site_fract_y
_atom_site_fract_z
Si Si1 0.165107 0.051814 0.607473
Si Si2 0.833640 0.210281 0.000000
Si Si3 0.824033 0.193568 0.500000
Si Si4 0.826421 0.638809 0.834857
Si Si5 0.321632 0.554742 0.500000
Si Si6 0.828221 0.869125 0.854087
O O1 0.170038 0.049413 0.500000
O O2 0.298495 0.084194 0.642478
O O3 0.000000 0.070452 0.638615
O O4 0.191861 0.000000 0.649352
O O5 0.812900 0.177764 0.087242
O O6 0.710076 0.251013 0.000000
O O7 0.000000 0.233265 0.000000
O O8 0.759346 0.171014 0.592245
O O9 0.000000 0.184633 0.500000
O O10 0.770613 0.644878 0.732329
O O11 0.000000 0.651505 0.841325
O O12 0.261006 0.500000 0.500000
O O13 0.500000 0.554719 0.500000
O O14 0.268730 0.584283 0.590198
O O15 0.000000 0.878182 0.825066
#
# Coordination Sequence:
#
# PCOD8292603 Si02
#       6
#    16   8   8  16   8  16
#     4   9  18  34  56  79 107 148 193 232 274 329
#     4   9  20  41  64  86 112 145 192 245 296 345
#     4  12  25  41  62  83 110 149 194 242 294 352
#     4  12  24  37  56  86 121 154 191 237 289 345
#     4   8  15  32  61  93 119 150 195 238 274 323
#     4   9  19  37  61  87 118 154 191 236 287 341
#
# _framework density 19.449573000000001
#
# number of rings (size 3 to 8) (size 9 to 14) (size 15 to 20)
#    0.000    2.111    1.111    5.000    0.000    3.111 
#    0.000    5.000    0.000    0.667    0.000    0.000 
#    0.000    0.000    0.000    0.000    0.000    0.000 
#
# Total GULP energy -446157.229921 kJ/mol
# GULP energy per Si atom -12393.256387 kJ/mol
# Density = 1.940531 g / cm^3
# Si number density = 19.449573 Si / 1000 Ang^3
#
#
#
# Elastic Constant Matrix: (Units=GPa)
#
#
# Indices 1 2 3 4 5 6 
#
# 1 117.2957 47.0017 55.7993 0.0001 0.0000 0.0000
# 2 47.0017 105.5700 54.0248 0.0001 0.0000 0.0000
# 3 55.7993 54.0248 123.8216 0.0004 0.0001 0.0000
# 4 0.0001 0.0001 0.0004 -26.3180 -0.0001 0.0000
# 5 0.0000 0.0000 0.0001 -0.0001 23.2793 0.0000
# 6 0.0000 0.0000 0.0000 0.0000 0.0000 30.1488
#
#
#
# Elastic Compliance Matrix: (Units=1/GPa)
#
#
# Indices 1 2 3 4 5 6 
#
# 1 0.011643 -0.003217 -0.003843 0.000000 0.000000 0.000000
# 2 -0.003217 0.013084 -0.004259 0.000000 0.000000 0.000000
# 3 -0.003843 -0.004259 0.011666 0.000000 0.000000 0.000000
# 4 0.000000 0.000000 0.000000 -0.037997 0.000000 0.000000
# 5 0.000000 0.000000 0.000000 0.000000 0.042957 0.000000
# 6 0.000000 0.000000 0.000000 0.000000 0.000000 0.033169
#
#
# Mechanical properties :
#
#
# Convention : Reuss Voigt Hill
#
# Bulk Modulus (GPa) = 72.70103 73.37100 73.03602
# Shear Modulus (GPa) = 49.14235 18.07944 33.61089
#
# Velocity S-wave (km/s) = 5.03204 3.05217 4.16156
# Velocity P-wave (km/s) = 8.43933 7.08707 7.79259
#
# Compressibility (1/GPa) = 0.01375496
#
# Stress axis : x y z
#
# Youngs Moduli (GPa) = 85.89046 76.42822 85.71662
#
# Poissons Ratio (x) = 0.24586 0.32942
# Poissons Ratio (y) = 0.27630 0.36508
# Poissons Ratio (z) = 0.33009 0.32552
#
# Static dielectric constant tensor:
#      x y z
#    x 3.381240 0.000000 0.000000 
#    y 0.000000 4.094640 0.000000 
#    z 0.000000 0.000000 3.888200 
# 
# 
# High freq. dielectric constant tensor:
#      x y z
#    x 1.733160 0.000000 0.000000 
#    y 0.000000 1.763250 0.000000 
#    z 0.000000 0.000000 1.760860 
# 
# From -- ./inp_files/31465.got.cif
#   From: 2010.06.25/outbox.cif.g09.slc.cpg/sg71_16_cif.got.tgz:31465.got - 2010.06.28 04:59:45.
