data_PCOD8292128
_publ_section_title
;
Structure prediction by ZEFSAII (Michael W. Deem and Ramdas Pophale) SiO2 
 PCOD8292128
Probable space group: I M M M
;
_chemical_formula_sum "Si O2"
_cell_formula_units_Z 72
_cell_length_a 18.976999
_cell_length_b 8.913045
_cell_length_c 21.865045
_cell_angle_alpha 90.000000
_cell_angle_beta 90.000000
_cell_angle_gamma 90.000000
_cell_volume 3698.315940
_symmetry_space_group_name_H-M "I M M M"
_symmetry_group_IT_number 71
_symmetry_cell_setting 'orthorhombic'
loop_
_space_group_symop_operation_xyz
x,y,z
-x,-y,z
x,-y,-z
-x,y,-z
-x,-y,-z
x,y,-z
-x,y,z
x,-y,z
1/2+x,1/2+y,1/2+z
1/2-x,1/2-y,1/2+z
1/2+x,1/2-y,1/2-z
1/2-x,1/2+y,1/2-z
1/2-x,1/2-y,1/2-z
1/2+x,1/2+y,1/2-z
1/2-x,1/2+y,1/2+z
1/2+x,1/2-y,1/2+z
loop_
_atom_site_type_symbol
_atom_site_label
_atom_site_fract_x
_atom_site_fract_y
_atom_site_fract_z
Si Si1 0.919144 0.826760 0.766663
Si Si2 0.918520 0.325010 0.641784
Si Si3 0.160843 0.823120 0.888680
Si Si4 0.299208 0.325334 0.071234
Si Si5 0.916806 0.327717 0.000000
O O1 0.895278 0.727778 0.709135
O O2 0.870935 0.778738 0.823275
O O3 0.000000 0.794305 0.784562
O O4 0.908199 0.000000 0.749195
O O5 0.903048 0.500000 0.635680
O O6 0.875146 0.237181 0.590365
O O7 0.000000 0.285980 0.630237
O O8 0.239888 0.761127 0.890509
O O9 0.161061 0.000000 0.899203
O O10 0.112731 0.749647 0.939971
O O11 0.295093 0.500000 0.086585
O O12 0.286846 0.293630 0.000000
O O13 0.892017 0.500000 0.000000
O O14 0.000000 0.311076 0.000000
#
# Coordination Sequence:
#
# PCOD8292128 Si02
#       5
#    16  16  16  16   8
#     4   9  19  37  60  87 119 154 195 242 293 350
#     4  10  22  40  63  90 117 149 193 244 298 354
#     4  11  22  37  60  87 118 157 199 246 295 344
#     4  11  24  41  61  85 118 157 197 243 296 355
#     4  11  23  37  55  83 120 161 202 243 289 345
#
# _framework density 19.468319000000001
#
# number of rings (size 3 to 8) (size 9 to 14) (size 15 to 20)
#    0.000    1.667    1.111    3.000    0.000    7.556 
#    0.000    4.444    0.000    0.000    0.000    0.000 
#    0.000    0.000    0.000    0.000    0.000    0.000 
#
# Total GULP energy -446632.364447 kJ/mol
# GULP energy per Si atom -12406.454568 kJ/mol
# Density = 1.942401 g / cm^3
# Si number density = 19.468319 Si / 1000 Ang^3
#
#
#
# Elastic Constant Matrix: (Units=GPa)
#
#
# Indices 1 2 3 4 5 6 
#
# 1 91.7888 46.1109 38.9699 0.0000 0.0000 0.0000
# 2 46.1109 95.2911 40.1988 0.0000 0.0000 0.0000
# 3 38.9699 40.1988 50.5721 0.0000 0.0000 0.0000
# 4 0.0000 0.0000 0.0000 34.3626 0.0000 0.0000
# 5 0.0000 0.0000 0.0000 0.0000 38.7144 0.0000
# 6 0.0000 0.0000 0.0000 0.0000 0.0000 35.8823
#
#
#
# Elastic Compliance Matrix: (Units=1/GPa)
#
#
# Indices 1 2 3 4 5 6 
#
# 1 0.017199 -0.004110 -0.009987 0.000000 0.000000 0.000000
# 2 -0.004110 0.016770 -0.010164 0.000000 0.000000 0.000000
# 3 -0.009987 -0.010164 0.035548 0.000000 0.000000 0.000000
# 4 0.000000 0.000000 0.000000 0.029101 0.000000 0.000000
# 5 0.000000 0.000000 0.000000 0.000000 0.025830 0.000000
# 6 0.000000 0.000000 0.000000 0.000000 0.000000 0.027869
#
#
# Mechanical properties :
#
#
# Convention : Reuss Voigt Hill
#
# Bulk Modulus (GPa) = 47.62408 54.24569 50.93489
# Shear Modulus (GPa) = 24.05737 29.28336 26.67036
#
# Velocity S-wave (km/s) = 3.51909 3.88255 3.70528
# Velocity P-wave (km/s) = 6.40527 6.92986 6.67272
#
# Compressibility (1/GPa) = 0.02099778
#
# Stress axis : x y z
#
# Youngs Moduli (GPa) = 58.14303 59.62914 28.13100
#
# Poissons Ratio (x) = 0.24506 0.28093
# Poissons Ratio (y) = 0.23895 0.28591
# Poissons Ratio (z) = 0.58065 0.60605
#
# Static dielectric constant tensor:
#      x y z
#    x 3.615250 0.000000 0.000000 
#    y 0.000000 3.648580 0.000000 
#    z 0.000000 0.000000 3.554220 
# 
# 
# High freq. dielectric constant tensor:
#      x y z
#    x 1.765750 0.000000 0.000000 
#    y 0.000000 1.769520 0.000000 
#    z 0.000000 0.000000 1.759560 
# 
# From -- ./inp_files/7939.got.cif
#   From: 2010.06.25/outbox.cif.g09.slc.cpg/sg71_4_cif.got.tgz:7939.got - 2010.06.28 04:59:45.
