data_PCOD8292037
_publ_section_title
;
Structure prediction by ZEFSAII (Michael W. Deem and Ramdas Pophale) SiO2 
 PCOD8292037
Probable space group: I M M M
;
_chemical_formula_sum "Si O2"
_cell_formula_units_Z 96
_cell_length_a 29.449166
_cell_length_b 11.978061
_cell_length_c 14.106187
_cell_angle_alpha 90.000000
_cell_angle_beta 90.000000
_cell_angle_gamma 90.000000
_cell_volume 4975.871512
_symmetry_space_group_name_H-M "I M M M"
_symmetry_group_IT_number 71
_symmetry_cell_setting 'orthorhombic'
loop_
_space_group_symop_operation_xyz
x,y,z
-x,-y,z
x,-y,-z
-x,y,-z
-x,-y,-z
x,y,-z
-x,y,z
x,-y,z
1/2+x,1/2+y,1/2+z
1/2-x,1/2-y,1/2+z
1/2+x,1/2-y,1/2-z
1/2-x,1/2+y,1/2-z
1/2-x,1/2-y,1/2-z
1/2+x,1/2+y,1/2-z
1/2-x,1/2+y,1/2+z
1/2+x,1/2-y,1/2+z
loop_
_atom_site_type_symbol
_atom_site_label
_atom_site_fract_x
_atom_site_fract_y
_atom_site_fract_z
Si Si1 0.446610 0.500000 0.897133
Si Si2 0.947177 0.816439 0.749431
Si Si3 0.701658 0.371159 0.610162
Si Si4 0.670083 0.000000 0.387023
Si Si5 0.052691 0.000000 0.101738
Si Si6 0.204414 0.754365 0.610574
Si Si7 0.728480 0.500000 0.111478
Si Si8 0.141974 0.710066 0.223945
O O1 0.500000 0.500000 0.908103
O O2 0.433048 0.611680 0.842291
O O3 0.422373 0.500000 0.000000
O O4 0.911907 0.715008 0.752640
O O5 0.000000 0.777302 0.746316
O O6 0.935546 0.888859 0.841643
O O7 0.688573 0.363245 0.500000
O O8 0.709978 0.500000 0.640488
O O9 0.746299 0.297701 0.630928
O O10 0.660789 0.321309 0.672312
O O11 0.645595 0.891605 0.347602
O O12 0.667037 0.000000 0.500000
O O13 0.721045 0.000000 0.346346
O O14 0.000000 0.000000 0.083011
O O15 0.078646 0.000000 0.000000
O O16 0.191336 0.738944 0.500000
O O17 0.168103 0.690860 0.676318
O O18 0.203384 0.885597 0.641946
O O19 0.734146 0.500000 0.000000
#
# Coordination Sequence:
#
# PCOD8292037 Si02
#       8
#     8  16  16   8   8  16   8  16
#     4   8  15  32  59  84 114 158 192 225 283 346
#     4   9  20  36  52  82 119 147 188 238 282 332
#     4  10  22  37  56  86 119 147 185 240 290 341
#     4  11  24  42  60  82 109 149 204 241 279 348
#     4   8  15  30  52  75 105 145 176 211 278 347
#     4  10  22  38  57  86 120 151 188 233 282 340
#     4   9  18  36  57  80 118 155 182 227 276 327
#     4  12  24  36  61  83 109 155 196 235 291 344
#
# _framework density 19.293102999999999
#
# number of rings (size 3 to 8) (size 9 to 14) (size 15 to 20)
#    0.000    2.167    1.667    2.000    4.667    2.000 
#    0.000    1.250    0.000    0.500    0.000    0.000 
#    0.000    4.000    0.000    0.000    0.000    0.000 
#
# Total GULP energy -594982.695552 kJ/mol
# GULP energy per Si atom -12395.472824 kJ/mol
# Density = 1.924919 g / cm^3
# Si number density = 19.293103 Si / 1000 Ang^3
#
#
#
# Elastic Constant Matrix: (Units=GPa)
#
#
# Indices 1 2 3 4 5 6 
#
# 1 96.9019 23.0574 40.6773 0.0000 0.0000 0.0000
# 2 23.0574 84.8185 38.2127 0.0000 0.0000 0.0000
# 3 40.6773 38.2127 109.0569 0.0000 0.0000 0.0000
# 4 0.0000 0.0000 0.0000 24.9866 0.0000 0.0000
# 5 0.0000 0.0000 0.0000 0.0000 14.4392 0.0000
# 6 0.0000 0.0000 0.0000 0.0000 0.0000 -0.3067
#
#
#
# Elastic Compliance Matrix: (Units=1/GPa)
#
#
# Indices 1 2 3 4 5 6 
#
# 1 0.012400 -0.001528 -0.004090 0.000000 0.000000 0.000000
# 2 -0.001528 0.014188 -0.004401 0.000000 0.000000 0.000000
# 3 -0.004090 -0.004401 0.012237 0.000000 0.000000 0.000000
# 4 0.000000 0.000000 0.000000 0.040022 0.000000 0.000000
# 5 0.000000 0.000000 0.000000 0.000000 0.069256 0.000000
# 6 0.000000 0.000000 0.000000 0.000000 0.000000 -3.260521
#
#
# Mechanical properties :
#
#
# Convention : Reuss Voigt Hill
#
# Bulk Modulus (GPa) = 53.22907 54.96355 54.09631
# Shear Modulus (GPa) = -1.62016 20.41248 9.39616
#
# Velocity S-wave (km/s) = -0.91738 3.25625 2.20925
# Velocity P-wave (km/s) = 5.15048 6.53361 5.88284
#
# Compressibility (1/GPa) = 0.01878673
#
# Stress axis : x y z
#
# Youngs Moduli (GPa) = 80.64443 70.48068 81.71865
#
# Poissons Ratio (x) = 0.10773 0.33419
# Poissons Ratio (y) = 0.12326 0.35967
# Poissons Ratio (z) = 0.32980 0.31021
#
# Static dielectric constant tensor:
#      x y z
#    x 3.267820 0.000000 0.000000 
#    y 0.000000 3.296180 0.000000 
#    z 0.000000 0.000000 25.769080 
# 
# 
# High freq. dielectric constant tensor:
#      x y z
#    x 1.730270 0.000000 0.000000 
#    y 0.000000 1.726570 0.000000 
#    z 0.000000 0.000000 1.768040 
# 
# From -- ./inp_files/40929.got.cif
#   From: 2010.06.25/outbox.cif.g09.slc.cpg/sg71_21_cif.got.tgz:40929.got - 2010.06.28 04:59:45.
