data_PCOD8292326
_publ_section_title
;
Structure prediction by ZEFSAII (Michael W. Deem and Ramdas Pophale) SiO2 
 PCOD8292326
Probable space group: I M M M
;
_chemical_formula_sum "Si O2"
_cell_formula_units_Z 88
_cell_length_a 9.128205
_cell_length_b 29.918521
_cell_length_c 23.467084
_cell_angle_alpha 90.000000
_cell_angle_beta 90.000000
_cell_angle_gamma 90.000000
_cell_volume 6408.916797
_symmetry_space_group_name_H-M "I M M M"
_symmetry_group_IT_number 71
_symmetry_cell_setting 'orthorhombic'
loop_
_space_group_symop_operation_xyz
x,y,z
-x,-y,z
x,-y,-z
-x,y,-z
-x,-y,-z
x,y,-z
-x,y,z
x,-y,z
1/2+x,1/2+y,1/2+z
1/2-x,1/2-y,1/2+z
1/2+x,1/2-y,1/2-z
1/2-x,1/2+y,1/2-z
1/2-x,1/2-y,1/2-z
1/2+x,1/2+y,1/2-z
1/2-x,1/2+y,1/2+z
1/2+x,1/2-y,1/2+z
loop_
_atom_site_type_symbol
_atom_site_label
_atom_site_fract_x
_atom_site_fract_y
_atom_site_fract_z
Si Si1 0.332294 0.747550 0.112625
Si Si2 0.331797 0.792222 0.225119
Si Si3 0.333699 0.137628 0.500000
Si Si4 0.326811 0.000000 0.567349
Si Si5 0.163954 0.256808 0.000000
Si Si6 0.831973 0.837261 0.314615
Si Si7 0.170340 0.911237 0.401554
O O1 0.500000 0.740816 0.094021
O O2 0.315583 0.789439 0.156533
O O3 0.275468 0.701222 0.141489
O O4 0.241840 0.760796 0.056851
O O5 0.500000 0.790792 0.243453
O O6 0.250000 0.750000 0.250000
O O7 0.258290 0.835644 0.254973
O O8 0.500000 0.117943 0.500000
O O9 0.335506 0.190208 0.500000
O O10 0.245541 0.121597 0.554285
O O11 0.255336 0.957838 0.598599
O O12 0.500000 0.000000 0.577356
O O13 0.288846 0.000000 0.500000
O O14 0.000000 0.237726 0.000000
O O15 0.813351 0.886843 0.340564
O O16 0.000000 0.826656 0.300227
O O17 0.000000 0.918794 0.417241
#
# Coordination Sequence:
#
# PCOD8292326 Si02
#       7
#    16  16   8   8   8  16  16
#     4   9  17  29  41  56  79 105 131 160 197 240
#     4   9  17  28  42  59  77 101 129 160 200 238
#     4  11  21  30  40  59  81 101 132 172 211 245
#     4  11  23  35  45  61  82 102 130 171 214 249
#     4  11  21  27  38  60  81 105 135 167 205 240
#     4   9  18  30  44  61  77  98 130 166 202 241
#     4  11  21  33  48  61  75 103 137 166 207 256
#
# _framework density 13.730869
#
# number of rings (size 3 to 8) (size 9 to 14) (size 15 to 20)
#    0.000    2.091    2.727    3.000    0.000    6.182 
#    0.000    0.000    0.000    0.000    0.000    0.000 
#    0.000    0.000    0.000    0.000    0.000    0.909 
#
# Total GULP energy -545379.989762 kJ/mol
# GULP energy per Si atom -12394.999767 kJ/mol
# Density = 1.369962 g / cm^3
# Si number density = 13.730869 Si / 1000 Ang^3
#
#
#
# Elastic Constant Matrix: (Units=GPa)
#
#
# Indices 1 2 3 4 5 6 
#
# 1 96.8964 32.0253 52.3751 0.0000 0.0000 0.0000
# 2 32.0253 46.3611 33.6675 0.0000 0.0000 0.0000
# 3 52.3751 33.6675 80.9575 0.0000 0.0000 0.0000
# 4 0.0000 0.0000 0.0000 37.6588 0.0000 0.0000
# 5 0.0000 0.0000 0.0000 0.0000 25.5159 0.0000
# 6 0.0000 0.0000 0.0000 0.0000 0.0000 19.3555
#
#
#
# Elastic Compliance Matrix: (Units=1/GPa)
#
#
# Indices 1 2 3 4 5 6 
#
# 1 0.016731 -0.005297 -0.008621 0.000000 0.000000 0.000000
# 2 -0.005297 0.032579 -0.010122 0.000000 0.000000 0.000000
# 3 -0.008621 -0.010122 0.022139 0.000000 0.000000 0.000000
# 4 0.000000 0.000000 0.000000 0.026554 0.000000 0.000000
# 5 0.000000 0.000000 0.000000 0.000000 0.039191 0.000000
# 6 0.000000 0.000000 0.000000 0.000000 0.000000 0.051665
#
#
# Mechanical properties :
#
#
# Convention : Reuss Voigt Hill
#
# Bulk Modulus (GPa) = 42.79101 51.15009 46.97055
# Shear Modulus (GPa) = 20.43074 23.58250 22.00662
#
# Velocity S-wave (km/s) = 3.86157 4.14875 4.00773
# Velocity P-wave (km/s) = 7.14941 7.76416 7.46312
#
# Compressibility (1/GPa) = 0.02336939
#
# Stress axis : x y z
#
# Youngs Moduli (GPa) = 59.76953 30.69448 45.16900
#
# Poissons Ratio (x) = 0.16258 0.38942
# Poissons Ratio (y) = 0.31657 0.45720
# Poissons Ratio (z) = 0.51529 0.31069
#
# Static dielectric constant tensor:
#      x y z
#    x 2.982710 0.000000 0.000000 
#    y 0.000000 2.653910 0.000000 
#    z 0.000000 0.000000 2.905380 
# 
# 
# High freq. dielectric constant tensor:
#      x y z
#    x 1.542130 0.000000 0.000000 
#    y 0.000000 1.477270 0.000000 
#    z 0.000000 0.000000 1.507880 
# 
# From -- ./inp_files/17209.got.cif
#   From: 2010.06.25/outbox.cif.g09.slc.cpg/sg71_9_cif.got.tgz:17209.got - 2010.06.28 04:59:45.
