data_PCOD8292219
_publ_section_title
;
Structure prediction by ZEFSAII (Michael W. Deem and Ramdas Pophale) SiO2 
 PCOD8292219
Probable space group: I M M M
;
_chemical_formula_sum "Si O2"
_cell_formula_units_Z 56
_cell_length_a 8.482440
_cell_length_b 15.095367
_cell_length_c 19.850569
_cell_angle_alpha 90.000000
_cell_angle_beta 90.000000
_cell_angle_gamma 90.000000
_cell_volume 2541.776923
_symmetry_space_group_name_H-M "I M M M"
_symmetry_group_IT_number 71
_symmetry_cell_setting 'orthorhombic'
loop_
_space_group_symop_operation_xyz
x,y,z
-x,-y,z
x,-y,-z
-x,y,-z
-x,-y,-z
x,y,-z
-x,y,z
x,-y,z
1/2+x,1/2+y,1/2+z
1/2-x,1/2-y,1/2+z
1/2+x,1/2-y,1/2-z
1/2-x,1/2+y,1/2-z
1/2-x,1/2-y,1/2-z
1/2+x,1/2+y,1/2-z
1/2-x,1/2+y,1/2+z
1/2+x,1/2-y,1/2+z
loop_
_atom_site_type_symbol
_atom_site_label
_atom_site_fract_x
_atom_site_fract_y
_atom_site_fract_z
Si Si1 0.684050 0.500000 0.723165
Si Si2 0.816344 0.159989 0.134461
Si Si3 0.680371 0.000000 0.631509
Si Si4 0.819498 0.172730 0.423276
Si Si5 0.173617 0.399860 0.500000
O O1 0.500000 0.500000 0.706562
O O2 0.752846 0.408845 0.690323
O O3 0.713501 0.500000 0.802010
O O4 0.726118 0.254545 0.133517
O O5 0.000000 0.178799 0.146074
O O6 0.784514 0.117576 0.062850
O O7 0.715373 0.914355 0.586583
O O8 0.500000 0.000000 0.654184
O O9 0.788640 0.208932 0.500000
O O10 0.000000 0.145547 0.412887
O O11 0.123949 0.500000 0.500000
O O12 0.000000 0.348360 0.500000
#
# Coordination Sequence:
#
# PCOD8292219 Si02
#       5
#     8  16   8  16   8
#     4  10  24  44  64  92 131 174 212 257 318 376
#     4  11  22  38  64  96 129 166 211 263 315 374
#     4  12  27  45  67  92 122 169 219 267 315 374
#     4  11  24  43  68  97 128 165 208 263 324 380
#     4  11  21  33  55  90 131 170 207 255 317 378
#
# _framework density 22.031831
#
# number of rings (size 3 to 8) (size 9 to 14) (size 15 to 20)
#    0.000    1.000    2.857    3.857    0.000    7.429 
#    0.000    0.000    0.000    0.000    0.000    0.000 
#    0.000    0.000    0.000    0.000    0.000    0.000 
#
# Total GULP energy -347135.030761 kJ/mol
# GULP energy per Si atom -12397.679670 kJ/mol
# Density = 2.198169 g / cm^3
# Si number density = 22.031831 Si / 1000 Ang^3
#
#
#
# Elastic Constant Matrix: (Units=GPa)
#
#
# Indices 1 2 3 4 5 6 
#
# 1 59.5632 25.7239 12.6117 0.0000 0.0000 0.0000
# 2 25.7239 137.1227 19.9076 0.0000 0.0000 0.0000
# 3 12.6117 19.9076 71.5462 0.0000 0.0000 0.0000
# 4 0.0000 0.0000 0.0000 20.8951 0.0000 0.0000
# 5 0.0000 0.0000 0.0000 0.0000 29.5640 0.0000
# 6 0.0000 0.0000 0.0000 0.0000 0.0000 36.6030
#
#
#
# Elastic Compliance Matrix: (Units=1/GPa)
#
#
# Indices 1 2 3 4 5 6 
#
# 1 0.018660 -0.003150 -0.002413 0.000000 0.000000 0.000000
# 2 -0.003150 0.008132 -0.001707 0.000000 0.000000 0.000000
# 3 -0.002413 -0.001707 0.014877 0.000000 0.000000 0.000000
# 4 0.000000 0.000000 0.000000 0.047858 0.000000 0.000000
# 5 0.000000 0.000000 0.000000 0.000000 0.033825 0.000000
# 6 0.000000 0.000000 0.000000 0.000000 0.000000 0.027320
#
#
# Mechanical properties :
#
#
# Convention : Reuss Voigt Hill
#
# Bulk Modulus (GPa) = 36.86157 42.74648 39.80403
# Shear Modulus (GPa) = 28.69341 31.41168 30.05254
#
# Velocity S-wave (km/s) = 3.61274 3.77999 3.69731
# Velocity P-wave (km/s) = 5.84550 6.20447 6.02766
#
# Compressibility (1/GPa) = 0.02712852
#
# Stress axis : x y z
#
# Youngs Moduli (GPa) = 53.58968 122.97705 67.21632
#
# Poissons Ratio (x) = 0.38742 0.16218
# Poissons Ratio (y) = 0.16883 0.11476
# Poissons Ratio (z) = 0.12930 0.20996
#
# Static dielectric constant tensor:
#      x y z
#    x 3.767790 0.000000 0.000000 
#    y 0.000000 4.275080 0.000000 
#    z 0.000000 0.000000 3.655640 
# 
# 
# High freq. dielectric constant tensor:
#      x y z
#    x 1.862850 0.000000 0.000000 
#    y 0.000000 1.888330 0.000000 
#    z 0.000000 0.000000 1.847440 
# 
# From -- ./inp_files/30984.got.cif
#   From: 2010.06.25/outbox.cif.g09.slc.cpg/sg71_16_cif.got.tgz:30984.got - 2010.06.28 04:59:45.
