data_PCOD8292063
_publ_section_title
;
Structure prediction by ZEFSAII (Michael W. Deem and Ramdas Pophale) SiO2 
 PCOD8292063
Probable space group: I M M M
;
_chemical_formula_sum "Si O2"
_cell_formula_units_Z 104
_cell_length_a 8.995705
_cell_length_b 25.147229
_cell_length_c 24.042919
_cell_angle_alpha 90.000000
_cell_angle_beta 90.000000
_cell_angle_gamma 90.000000
_cell_volume 5438.918297
_symmetry_space_group_name_H-M "I M M M"
_symmetry_group_IT_number 71
_symmetry_cell_setting 'orthorhombic'
loop_
_space_group_symop_operation_xyz
x,y,z
-x,-y,z
x,-y,-z
-x,y,-z
-x,-y,-z
x,y,-z
-x,y,z
x,-y,z
1/2+x,1/2+y,1/2+z
1/2-x,1/2-y,1/2+z
1/2+x,1/2-y,1/2-z
1/2-x,1/2+y,1/2-z
1/2-x,1/2-y,1/2-z
1/2+x,1/2+y,1/2-z
1/2-x,1/2+y,1/2+z
1/2+x,1/2-y,1/2+z
loop_
_atom_site_type_symbol
_atom_site_label
_atom_site_fract_x
_atom_site_fract_y
_atom_site_fract_z
Si Si1 0.661709 0.063491 0.500000
Si Si2 0.673349 0.766842 0.564843
Si Si3 0.836710 0.942115 0.397744
Si Si4 0.668235 0.337064 0.842094
Si Si5 0.172636 0.560782 0.564727
Si Si6 0.673822 0.342354 0.375609
Si Si7 0.324387 0.194431 0.236781
O O1 0.500000 0.088561 0.500000
O O2 0.738330 0.085167 0.554822
O O3 0.665607 0.000000 0.500000
O O4 0.718886 0.775000 0.500000
O O5 0.500000 0.780078 0.573823
O O6 0.770061 0.804902 0.604664
O O7 0.705586 0.705566 0.581326
O O8 0.839340 0.900353 0.348750
O O9 0.000000 0.950104 0.423150
O O10 0.774892 0.000000 0.377822
O O11 0.500000 0.315565 0.829562
O O12 0.781065 0.338373 0.790968
O O13 0.208866 0.568730 0.500000
O O14 0.211454 0.500000 0.582303
O O15 0.271440 0.601857 0.599454
O O16 0.000000 0.572458 0.576624
O O17 0.500000 0.347012 0.362233
O O18 0.759694 0.331640 0.318515
O O19 0.500000 0.199733 0.230616
O O20 0.250000 0.250000 0.250000
#
# Coordination Sequence:
#
# PCOD8292063 Si02
#       7
#     8  16  16  16  16  16  16
#     4   9  17  29  49  77 105 139 183 225 270 325
#     4  10  22  38  56  83 120 157 190 237 297 352
#     4   9  19  36  55  76 107 145 184 229 280 335
#     4  11  23  38  59  85 112 150 197 241 291 352
#     4   9  19  37  61  91 129 170 208 249 301 360
#     4  11  22  38  62  90 120 158 202 248 298 355
#     4  12  24  41  63  86 114 153 197 245 297 354
#
# _framework density 19.121448999999998
#
# number of rings (size 3 to 8) (size 9 to 14) (size 15 to 20)
#    0.000    1.769    1.538    3.462    1.077    4.308 
#    0.000    1.538    0.000    2.769    0.000    0.000 
#    0.000    0.000    0.000    0.000    0.000    0.000 
#
# Total GULP energy -644423.477302 kJ/mol
# GULP energy per Si atom -12392.759179 kJ/mol
# Density = 1.907793 g / cm^3
# Si number density = 19.121449 Si / 1000 Ang^3
#
#
#
# Elastic Constant Matrix: (Units=GPa)
#
#
# Indices 1 2 3 4 5 6 
#
# 1 125.5278 52.1428 59.7473 0.0000 0.0000 0.0000
# 2 52.1428 104.7679 45.3413 0.0000 0.0000 0.0000
# 3 59.7473 45.3413 115.8848 0.0000 0.0000 0.0000
# 4 0.0000 0.0000 0.0000 28.3779 0.0000 0.0000
# 5 0.0000 0.0000 0.0000 0.0000 34.7771 0.0000
# 6 0.0000 0.0000 0.0000 0.0000 0.0000 27.9553
#
#
#
# Elastic Compliance Matrix: (Units=1/GPa)
#
#
# Indices 1 2 3 4 5 6 
#
# 1 0.011735 -0.003879 -0.004533 0.000000 0.000000 0.000000
# 2 -0.003879 0.012773 -0.002998 0.000000 0.000000 0.000000
# 3 -0.004533 -0.002998 0.012139 0.000000 0.000000 0.000000
# 4 0.000000 0.000000 0.000000 0.035239 0.000000 0.000000
# 5 0.000000 0.000000 0.000000 0.000000 0.028755 0.000000
# 6 0.000000 0.000000 0.000000 0.000000 0.000000 0.035771
#
#
# Mechanical properties :
#
#
# Convention : Reuss Voigt Hill
#
# Bulk Modulus (GPa) = 72.31437 73.40480 72.85959
# Shear Modulus (GPa) = 30.51775 30.81867 30.66821
#
# Velocity S-wave (km/s) = 3.99933 4.01899 4.00917
# Velocity P-wave (km/s) = 7.69589 7.74651 7.72124
#
# Compressibility (1/GPa) = 0.01382851
#
# Stress axis : x y z
#
# Youngs Moduli (GPa) = 85.21535 78.29182 82.37899
#
# Poissons Ratio (x) = 0.30368 0.37339
# Poissons Ratio (y) = 0.33054 0.24694
# Poissons Ratio (z) = 0.38625 0.23469
#
# Static dielectric constant tensor:
#      x y z
#    x 3.501330 0.000000 0.000000 
#    y 0.000000 3.610770 0.000000 
#    z 0.000000 0.000000 3.508480 
# 
# 
# High freq. dielectric constant tensor:
#      x y z
#    x 1.751500 0.000000 0.000000 
#    y 0.000000 1.749580 0.000000 
#    z 0.000000 0.000000 1.735120 
# 
# From -- ./inp_files/50884.got.cif
#   From: 2010.06.25/outbox.cif.g09.slc.cpg/sg71_26_cif.got.tgz:50884.got - 2010.06.28 04:59:45.
