data_PCOD8292353
_publ_section_title
;
Structure prediction by ZEFSAII (Michael W. Deem and Ramdas Pophale) SiO2 
 PCOD8292353
Probable space group: I M M M
;
_chemical_formula_sum "Si O2"
_cell_formula_units_Z 72
_cell_length_a 23.541258
_cell_length_b 8.944408
_cell_length_c 18.113755
_cell_angle_alpha 90.000000
_cell_angle_beta 90.000000
_cell_angle_gamma 90.000000
_cell_volume 3814.079645
_symmetry_space_group_name_H-M "I M M M"
_symmetry_group_IT_number 71
_symmetry_cell_setting 'orthorhombic'
loop_
_space_group_symop_operation_xyz
x,y,z
-x,-y,z
x,-y,-z
-x,y,-z
-x,-y,-z
x,y,-z
-x,y,z
x,-y,z
1/2+x,1/2+y,1/2+z
1/2-x,1/2-y,1/2+z
1/2+x,1/2-y,1/2-z
1/2-x,1/2+y,1/2-z
1/2-x,1/2-y,1/2-z
1/2+x,1/2+y,1/2-z
1/2-x,1/2+y,1/2+z
1/2+x,1/2-y,1/2+z
loop_
_atom_site_type_symbol
_atom_site_label
_atom_site_fract_x
_atom_site_fract_y
_atom_site_fract_z
Si Si1 0.875715 0.176796 0.137447
Si Si2 0.231971 0.328040 0.914147
Si Si3 0.435992 0.322048 0.786412
Si Si4 0.432897 0.169465 0.500000
Si Si5 0.359530 0.321874 0.081648
O O1 0.810426 0.229399 0.135029
O O2 0.903103 0.232815 0.213856
O O3 0.878558 0.000000 0.129749
O O4 0.911566 0.248353 0.072375
O O5 0.226189 0.500000 0.890073
O O6 0.295647 0.268234 0.899408
O O7 0.215683 0.309007 0.000000
O O8 0.500000 0.257900 0.786051
O O9 0.437126 0.500000 0.789450
O O10 0.403369 0.257374 0.858216
O O11 0.500000 0.173636 0.500000
O O12 0.409538 0.000000 0.500000
O O13 0.359572 0.500000 0.081617
O O14 0.377308 0.263966 0.000000
#
# Coordination Sequence:
#
# PCOD8292353 Si02
#       5
#    16  16  16   8  16
#     4  11  21  32  50  76 106 140 173 211 260 306
#     4   9  17  31  51  74 103 136 172 214 256 301
#     4   9  18  31  46  70 105 137 170 216 263 307
#     4  11  23  37  53  73  99 137 182 219 252 301
#     4   8  15  29  50  74  99 134 174 212 258 309
#
# _framework density 18.877424000000001
#
# number of rings (size 3 to 8) (size 9 to 14) (size 15 to 20)
#    0.000    2.556    1.111    3.000    0.000    3.111 
#    0.000    2.222    0.000    1.333    0.000    0.000 
#    0.000    0.000    0.000   15.778    0.000   16.444 
#
# Total GULP energy -446358.542325 kJ/mol
# GULP energy per Si atom -12398.848398 kJ/mol
# Density = 1.883446 g / cm^3
# Si number density = 18.877424 Si / 1000 Ang^3
#
#
#
# Elastic Constant Matrix: (Units=GPa)
#
#
# Indices 1 2 3 4 5 6 
#
# 1 146.7358 30.1839 99.7540 0.0000 0.0000 0.0000
# 2 30.1839 47.2362 35.2268 0.0000 0.0000 0.0000
# 3 99.7540 35.2268 165.2797 0.0000 0.0000 0.0000
# 4 0.0000 0.0000 0.0000 8.7823 0.0000 0.0000
# 5 0.0000 0.0000 0.0000 0.0000 25.0640 0.0000
# 6 0.0000 0.0000 0.0000 0.0000 0.0000 21.0410
#
#
#
# Elastic Compliance Matrix: (Units=1/GPa)
#
#
# Indices 1 2 3 4 5 6 
#
# 1 0.011831 -0.002657 -0.006574 0.000000 0.000000 0.000000
# 2 -0.002657 0.025768 -0.003888 0.000000 0.000000 0.000000
# 3 -0.006574 -0.003888 0.010847 0.000000 0.000000 0.000000
# 4 0.000000 0.000000 0.000000 0.113866 0.000000 0.000000
# 5 0.000000 0.000000 0.000000 0.000000 0.039898 0.000000
# 6 0.000000 0.000000 0.000000 0.000000 0.000000 0.047526
#
#
# Mechanical properties :
#
#
# Convention : Reuss Voigt Hill
#
# Bulk Modulus (GPa) = 45.03213 76.62012 60.82612
# Shear Modulus (GPa) = 17.64436 23.91658 20.78047
#
# Velocity S-wave (km/s) = 3.06057 3.56327 3.32145
# Velocity P-wave (km/s) = 6.03293 7.58983 6.85572
#
# Compressibility (1/GPa) = 0.02220637
#
# Stress axis : x y z
#
# Youngs Moduli (GPa) = 84.52551 38.80806 92.19269
#
# Poissons Ratio (x) = 0.10312 0.60608
# Poissons Ratio (y) = 0.22460 0.35847
# Poissons Ratio (z) = 0.55568 0.15090
#
# Static dielectric constant tensor:
#      x y z
#    x 3.722580 0.000000 0.000000 
#    y 0.000000 3.030840 0.000000 
#    z 0.000000 0.000000 3.656850 
# 
# 
# High freq. dielectric constant tensor:
#      x y z
#    x 1.748390 0.000000 0.000000 
#    y 0.000000 1.685450 0.000000 
#    z 0.000000 0.000000 1.733590 
# 
# From -- ./inp_files/12159.got.cif
#   From: 2010.06.25/outbox.cif.g09.slc.cpg/sg71_7_cif.got.tgz:12159.got - 2010.06.28 04:59:45.
