data_PCOD8292176
_publ_section_title
;
Structure prediction by ZEFSAII (Michael W. Deem and Ramdas Pophale) SiO2 
 PCOD8292176
Probable space group: I M M M
;
_chemical_formula_sum "Si O2"
_cell_formula_units_Z 64
_cell_length_a 23.724367
_cell_length_b 8.822596
_cell_length_c 15.594551
_cell_angle_alpha 90.000000
_cell_angle_beta 90.000000
_cell_angle_gamma 90.000000
_cell_volume 3264.103351
_symmetry_space_group_name_H-M "I M M M"
_symmetry_group_IT_number 71
_symmetry_cell_setting 'orthorhombic'
loop_
_space_group_symop_operation_xyz
x,y,z
-x,-y,z
x,-y,-z
-x,y,-z
-x,-y,-z
x,y,-z
-x,y,z
x,-y,z
1/2+x,1/2+y,1/2+z
1/2-x,1/2-y,1/2+z
1/2+x,1/2-y,1/2-z
1/2-x,1/2+y,1/2-z
1/2-x,1/2-y,1/2-z
1/2+x,1/2+y,1/2-z
1/2-x,1/2+y,1/2+z
1/2+x,1/2-y,1/2+z
loop_
_atom_site_type_symbol
_atom_site_label
_atom_site_fract_x
_atom_site_fract_y
_atom_site_fract_z
Si Si1 0.500000 0.179009 0.366221
Si Si2 0.892812 0.826756 0.401901
Si Si3 0.287616 0.320993 0.500000
Si Si4 0.000000 0.322109 0.676298
Si Si5 0.728167 0.321975 0.162961
Si Si6 0.091884 0.320562 0.000000
O O1 0.500000 0.252361 0.271387
O O2 0.443705 0.228573 0.416284
O O3 0.500000 0.000000 0.361256
O O4 0.876545 0.791733 0.500000
O O5 0.944561 0.723637 0.374800
O O6 0.838531 0.789713 0.343987
O O7 0.911693 0.000000 0.390700
O O8 0.279627 0.500000 0.500000
O O9 0.259763 0.253159 0.415811
O O10 0.352854 0.279479 0.500000
O O11 0.000000 0.500000 0.685134
O O12 0.741107 0.500000 0.161763
O O13 0.750000 0.250000 0.250000
O O14 0.105700 0.500000 0.000000
#
# Coordination Sequence:
#
# PCOD8292176 Si02
#       6
#     8  16   8   8  16   8
#     4   8  18  37  59  87 119 158 202 248 304 364
#     4  10  22  43  64  84 117 162 205 247 306 373
#     4  12  25  41  63  97 131 166 211 258 312 378
#     4  11  23  36  58  94 123 152 201 256 306 361
#     4  11  24  44  67  94 127 168 212 261 317 375
#     4   9  18  38  64  84 117 165 207 248 303 365
#
# _framework density 19.607222
#
# number of rings (size 3 to 8) (size 9 to 14) (size 15 to 20)
#    0.000    1.750    1.250    3.375    3.500    4.000 
#    0.000    2.500    0.000    0.000    0.000    0.000 
#    0.000    0.000    0.000    0.000    0.000    0.000 
#
# Total GULP energy -396874.328471 kJ/mol
# GULP energy per Si atom -12402.322765 kJ/mol
# Density = 1.956260 g / cm^3
# Si number density = 19.607222 Si / 1000 Ang^3
#
#
#
# Elastic Constant Matrix: (Units=GPa)
#
#
# Indices 1 2 3 4 5 6 
#
# 1 135.9517 65.7009 63.6585 0.0000 0.0000 0.0000
# 2 65.7009 102.1310 57.6630 0.0000 0.0000 0.0000
# 3 63.6585 57.6630 142.2571 0.0000 0.0000 0.0000
# 4 0.0000 0.0000 0.0000 31.9379 0.0000 0.0000
# 5 0.0000 0.0000 0.0000 0.0000 32.1718 0.0000
# 6 0.0000 0.0000 0.0000 0.0000 0.0000 20.2126
#
#
#
# Elastic Compliance Matrix: (Units=1/GPa)
#
#
# Indices 1 2 3 4 5 6 
#
# 1 0.011461 -0.005806 -0.002775 0.000000 0.000000 0.000000
# 2 -0.005806 0.015638 -0.003741 0.000000 0.000000 0.000000
# 3 -0.002775 -0.003741 0.009788 0.000000 0.000000 0.000000
# 4 0.000000 0.000000 0.000000 0.031311 0.000000 0.000000
# 5 0.000000 0.000000 0.000000 0.000000 0.031083 0.000000
# 6 0.000000 0.000000 0.000000 0.000000 0.000000 0.049474
#
#
# Mechanical properties :
#
#
# Convention : Reuss Voigt Hill
#
# Bulk Modulus (GPa) = 81.67907 83.82051 82.74979
# Shear Modulus (GPa) = 28.17224 29.75229 28.96226
#
# Velocity S-wave (km/s) = 3.79467 3.89963 3.84750
# Velocity P-wave (km/s) = 7.80688 7.94473 7.87611
#
# Compressibility (1/GPa) = 0.01224304
#
# Stress axis : x y z
#
# Youngs Moduli (GPa) = 87.25390 63.94545 102.16872
#
# Poissons Ratio (x) = 0.37126 0.28354
# Poissons Ratio (y) = 0.50658 0.38220
# Poissons Ratio (z) = 0.24215 0.23921
#
# Static dielectric constant tensor:
#      x y z
#    x 3.631500 0.000000 0.000000 
#    y 0.000000 3.466300 0.000000 
#    z 0.000000 0.000000 3.982740 
# 
# 
# High freq. dielectric constant tensor:
#      x y z
#    x 1.776750 0.000000 0.000000 
#    y 0.000000 1.753520 0.000000 
#    z 0.000000 0.000000 1.777690 
# 
# From -- ./inp_files/12035.got.cif
#   From: 2010.06.25/outbox.cif.g09.slc.cpg/sg71_7_cif.got.tgz:12035.got - 2010.06.28 04:59:45.
