data_PCOD8292482
_publ_section_title
;
Structure prediction by ZEFSAII (Michael W. Deem and Ramdas Pophale) SiO2 
 PCOD8292482
Probable space group: I M M M
;
_chemical_formula_sum "Si O2"
_cell_formula_units_Z 96
_cell_length_a 8.717033
_cell_length_b 27.567360
_cell_length_c 20.298201
_cell_angle_alpha 90.000000
_cell_angle_beta 90.000000
_cell_angle_gamma 90.000000
_cell_volume 4877.771103
_symmetry_space_group_name_H-M "I M M M"
_symmetry_group_IT_number 71
_symmetry_cell_setting 'orthorhombic'
loop_
_space_group_symop_operation_xyz
x,y,z
-x,-y,z
x,-y,-z
-x,y,-z
-x,-y,-z
x,y,-z
-x,y,z
x,-y,z
1/2+x,1/2+y,1/2+z
1/2-x,1/2-y,1/2+z
1/2+x,1/2-y,1/2-z
1/2-x,1/2+y,1/2-z
1/2-x,1/2-y,1/2-z
1/2+x,1/2+y,1/2-z
1/2-x,1/2+y,1/2+z
1/2+x,1/2-y,1/2+z
loop_
_atom_site_type_symbol
_atom_site_label
_atom_site_fract_x
_atom_site_fract_y
_atom_site_fract_z
Si Si1 0.181239 0.221482 0.310444
Si Si2 0.817928 0.713745 0.427844
Si Si3 0.823172 0.943851 0.575519
Si Si4 0.676719 0.556351 0.303386
Si Si5 0.821661 0.616622 0.188398
Si Si6 0.179152 0.604302 0.575863
O O1 0.250000 0.250000 0.250000
O O2 0.246833 0.247367 0.376166
O O3 0.227505 0.165925 0.310365
O O4 0.000000 0.225827 0.307258
O O5 0.750569 0.726715 0.500000
O O6 0.769034 0.659302 0.407688
O O7 0.000000 0.715552 0.431021
O O8 0.793095 0.928737 0.500000
O O9 0.715366 0.912160 0.621731
O O10 0.000000 0.934443 0.594455
O O11 0.782137 0.000000 0.586128
O O12 0.500000 0.570100 0.292052
O O13 0.705487 0.500000 0.290464
O O14 0.780147 0.585565 0.252261
O O15 0.724264 0.568684 0.377956
O O16 0.000000 0.629119 0.190435
O O17 0.216202 0.591650 0.500000
O O18 0.000000 0.596973 0.590394
#
# Coordination Sequence:
#
# PCOD8292482 Si02
#       6
#    16  16  16  16  16  16
#     4  11  22  37  59  85 114 149 190 237 286 337
#     4   8  16  33  57  83 109 141 182 224 267 320
#     4   9  19  38  63  88 115 149 189 234 287 347
#     4  11  24  40  58  81 111 148 192 242 291 340
#     4  12  25  39  57  83 116 152 191 238 290 344
#     4   9  18  35  60  88 117 148 184 228 279 338
#
# _framework density 19.68112
#
# number of rings (size 3 to 8) (size 9 to 14) (size 15 to 20)
#    0.000    2.000    0.000    5.500    0.000    6.667 
#    0.000    5.000    0.000    3.500    0.000    0.000 
#    0.000    0.000    0.000    0.000    0.000    0.000 
#
# Total GULP energy -595303.430582 kJ/mol
# GULP energy per Si atom -12402.154804 kJ/mol
# Density = 1.963632 g / cm^3
# Si number density = 19.681120 Si / 1000 Ang^3
#
#
#
# Elastic Constant Matrix: (Units=GPa)
#
#
# Indices 1 2 3 4 5 6 
#
# 1 56.2476 18.9553 28.8890 0.0000 0.0000 0.0000
# 2 18.9553 53.2935 32.2566 0.0000 0.0000 0.0000
# 3 28.8890 32.2566 107.3976 0.0002 0.0000 0.0000
# 4 0.0000 0.0000 0.0002 40.6249 0.0000 0.0000
# 5 0.0000 0.0000 0.0000 0.0000 33.6956 0.0000
# 6 0.0000 0.0000 0.0000 0.0000 0.0000 29.2806
#
#
#
# Elastic Compliance Matrix: (Units=1/GPa)
#
#
# Indices 1 2 3 4 5 6 
#
# 1 0.021714 -0.005118 -0.004304 0.000000 0.000000 0.000000
# 2 -0.005118 0.024140 -0.005873 0.000000 0.000000 0.000000
# 3 -0.004304 -0.005873 0.012233 0.000000 0.000000 0.000000
# 4 0.000000 0.000000 0.000000 0.024615 0.000000 0.000000
# 5 0.000000 0.000000 0.000000 0.000000 0.029677 0.000000
# 6 0.000000 0.000000 0.000000 0.000000 0.000000 0.034152
#
#
# Mechanical properties :
#
#
# Convention : Reuss Voigt Hill
#
# Bulk Modulus (GPa) = 36.36959 41.90450 39.13705
# Shear Modulus (GPa) = 26.84028 29.84272 28.34150
#
# Velocity S-wave (km/s) = 3.69692 3.89821 3.79890
# Velocity P-wave (km/s) = 6.06156 6.44975 6.25867
#
# Compressibility (1/GPa) = 0.02749550
#
# Stress axis : x y z
#
# Youngs Moduli (GPa) = 46.05385 41.42587 81.74685
#
# Poissons Ratio (x) = 0.21203 0.35180
# Poissons Ratio (y) = 0.23572 0.48014
# Poissons Ratio (z) = 0.19819 0.24331
#
# Static dielectric constant tensor:
#      x y z
#    x 3.392260 0.000000 0.000000 
#    y 0.000000 3.674100 0.000000 
#    z 0.000000 0.000000 4.003650 
# 
# 
# High freq. dielectric constant tensor:
#      x y z
#    x 1.749540 0.000000 0.000000 
#    y 0.000000 1.769800 0.000000 
#    z 0.000000 0.000000 1.784140 
# 
# From -- ./inp_files/50824.got.cif
#   From: 2010.06.25/outbox.cif.g09.slc.cpg/sg71_26_cif.got.tgz:50824.got - 2010.06.28 04:59:45.
