data_PCOD8292092
_publ_section_title
;
Structure prediction by ZEFSAII (Michael W. Deem and Ramdas Pophale) SiO2 
 PCOD8292092
Probable space group: I M M M
;
_chemical_formula_sum "Si O2"
_cell_formula_units_Z 88
_cell_length_a 22.043707
_cell_length_b 18.277202
_cell_length_c 11.194864
_cell_angle_alpha 90.000000
_cell_angle_beta 90.000000
_cell_angle_gamma 90.000000
_cell_volume 4510.380319
_symmetry_space_group_name_H-M "I M M M"
_symmetry_group_IT_number 71
_symmetry_cell_setting 'orthorhombic'
loop_
_space_group_symop_operation_xyz
x,y,z
-x,-y,z
x,-y,-z
-x,y,-z
-x,-y,-z
x,y,-z
-x,y,z
x,-y,z
1/2+x,1/2+y,1/2+z
1/2-x,1/2-y,1/2+z
1/2+x,1/2-y,1/2-z
1/2-x,1/2+y,1/2-z
1/2-x,1/2-y,1/2-z
1/2+x,1/2+y,1/2-z
1/2-x,1/2+y,1/2+z
1/2+x,1/2-y,1/2+z
loop_
_atom_site_type_symbol
_atom_site_label
_atom_site_fract_x
_atom_site_fract_y
_atom_site_fract_z
Si Si1 0.753496 0.663550 0.726064
Si Si2 0.930988 0.187048 0.740919
Si Si3 0.839653 0.082085 0.637747
Si Si4 0.117025 0.667427 0.359124
Si Si5 0.567155 0.647779 0.500000
Si Si6 0.000000 0.418268 0.357895
Si Si7 0.306660 0.586128 0.500000
O O1 0.750000 0.750000 0.750000
O O2 0.723176 0.625662 0.840683
O O3 0.823337 0.639674 0.709809
O O4 0.716162 0.632876 0.613023
O O5 0.897371 0.111625 0.710842
O O6 0.894261 0.248223 0.669275
O O7 0.927716 0.199980 0.883513
O O8 0.000000 0.184595 0.694548
O O9 0.856278 0.086266 0.500000
O O10 0.829180 0.000000 0.682937
O O11 0.127276 0.656945 0.500000
O O12 0.060050 0.621547 0.309795
O O13 0.500000 0.609594 0.500000
O O14 0.619985 0.587030 0.500000
O O15 0.000000 0.500000 0.307368
O O16 0.000000 0.416421 0.500000
O O17 0.285681 0.500000 0.500000
#
# Coordination Sequence:
#
# PCOD8292092 Si02
#       7
#    16  16  16  16   8   8   8
#     4  12  24  39  64  91 126 165 213 259 316 378
#     4  11  22  39  64  90 123 162 209 255 306 371
#     4  11  25  43  63  90 126 162 204 258 315 377
#     4  11  21  38  62  92 121 160 206 257 316 374
#     4  10  22  39  60  92 125 167 213 253 309 369
#     4   9  20  36  58  91 126 154 195 253 315 376
#     4  12  24  41  64  95 129 166 215 270 324 377
#
# _framework density 19.510549999999999
#
# number of rings (size 3 to 8) (size 9 to 14) (size 15 to 20)
#    0.000    1.000    5.455    1.091    1.273    3.091 
#    1.636    2.727    0.000    0.000    0.000    0.636 
#    0.000    0.000    0.000    0.000    0.000    0.000 
#
# Total GULP energy -545495.250994 kJ/mol
# GULP energy per Si atom -12397.619341 kJ/mol
# Density = 1.946614 g / cm^3
# Si number density = 19.510550 Si / 1000 Ang^3
#
#
#
# Elastic Constant Matrix: (Units=GPa)
#
#
# Indices 1 2 3 4 5 6 
#
# 1 169.9226 39.4630 25.5579 0.0000 0.0000 0.0000
# 2 39.4630 111.5294 23.5005 0.0000 0.0000 0.0000
# 3 25.5579 23.5005 56.4509 0.0000 0.0000 0.0000
# 4 0.0000 0.0000 0.0000 22.4314 0.0000 0.0000
# 5 0.0000 0.0000 0.0000 0.0000 30.1550 0.0000
# 6 0.0000 0.0000 0.0000 0.0000 0.0000 30.3780
#
#
#
# Elastic Compliance Matrix: (Units=1/GPa)
#
#
# Indices 1 2 3 4 5 6 
#
# 1 0.006658 -0.001886 -0.002229 0.000000 0.000000 0.000000
# 2 -0.001886 0.010363 -0.003460 0.000000 0.000000 0.000000
# 3 -0.002229 -0.003460 0.020164 0.000000 0.000000 0.000000
# 4 0.000000 0.000000 0.000000 0.044580 0.000000 0.000000
# 5 0.000000 0.000000 0.000000 0.000000 0.033162 0.000000
# 6 0.000000 0.000000 0.000000 0.000000 0.000000 0.032919
#
#
# Mechanical properties :
#
#
# Convention : Reuss Voigt Hill
#
# Bulk Modulus (GPa) = 45.38395 57.21617 51.30006
# Shear Modulus (GPa) = 29.35270 33.21833 31.28552
#
# Velocity S-wave (km/s) = 3.88294 4.13071 4.00874
# Velocity P-wave (km/s) = 6.58898 7.22079 6.91211
#
# Compressibility (1/GPa) = 0.02203422
#
# Stress axis : x y z
#
# Youngs Moduli (GPa) = 150.18614 96.49978 49.59277
#
# Poissons Ratio (x) = 0.18202 0.11056
# Poissons Ratio (y) = 0.28329 0.17159
# Poissons Ratio (z) = 0.33481 0.33389
#
# Static dielectric constant tensor:
#      x y z
#    x 3.894080 0.000000 0.000000 
#    y 0.000000 3.520350 0.000000 
#    z 0.000000 0.000000 3.562810 
# 
# 
# High freq. dielectric constant tensor:
#      x y z
#    x 1.779430 0.000000 0.000000 
#    y 0.000000 1.747160 0.000000 
#    z 0.000000 0.000000 1.751450 
# 
# From -- ./inp_files/25693.got.cif
#   From: 2010.06.25/outbox.cif.g09.slc.cpg/sg71_13_cif.got.tgz:25693.got - 2010.06.28 04:59:45.
