data_PCOD8292620
_publ_section_title
;
Structure prediction by ZEFSAII (Michael W. Deem and Ramdas Pophale) SiO2 
 PCOD8292620
Probable space group: I M M M
;
_chemical_formula_sum "Si O2"
_cell_formula_units_Z 96
_cell_length_a 38.980189
_cell_length_b 23.018263
_cell_length_c 9.945504
_cell_angle_alpha 90.000000
_cell_angle_beta 90.000000
_cell_angle_gamma 90.000000
_cell_volume 8923.665546
_symmetry_space_group_name_H-M "I M M M"
_symmetry_group_IT_number 71
_symmetry_cell_setting 'orthorhombic'
loop_
_space_group_symop_operation_xyz
x,y,z
-x,-y,z
x,-y,-z
-x,y,-z
-x,-y,-z
x,y,-z
-x,y,z
x,-y,z
1/2+x,1/2+y,1/2+z
1/2-x,1/2-y,1/2+z
1/2+x,1/2-y,1/2-z
1/2-x,1/2+y,1/2-z
1/2-x,1/2-y,1/2-z
1/2+x,1/2+y,1/2-z
1/2-x,1/2+y,1/2+z
1/2+x,1/2-y,1/2+z
loop_
_atom_site_type_symbol
_atom_site_label
_atom_site_fract_x
_atom_site_fract_y
_atom_site_fract_z
Si Si1 0.461888 0.431014 0.650502
Si Si2 0.200471 0.760668 0.350144
Si Si3 0.902672 0.931531 0.344531
Si Si4 0.272899 0.825089 0.650173
Si Si5 0.735117 0.435634 0.839805
Si Si6 0.667300 0.376306 0.840671
O O1 0.451893 0.410172 0.500000
O O2 0.500000 0.407897 0.687970
O O3 0.462076 0.500000 0.655706
O O4 0.434606 0.407123 0.758361
O O5 0.191322 0.738308 0.500000
O O6 0.237403 0.790577 0.352754
O O7 0.200014 0.705914 0.249225
O O8 0.172794 0.808667 0.300592
O O9 0.909659 0.916199 0.500000
O O10 0.868995 0.899371 0.286428
O O11 0.897179 0.000000 0.325311
O O12 0.288788 0.826310 0.500000
O O13 0.265002 0.890442 0.703736
O O14 0.743876 0.500000 0.784665
O O15 0.698239 0.415477 0.780614
O O16 0.732879 0.435219 0.000000
O O17 0.668095 0.382672 0.000000
#
# Coordination Sequence:
#
# PCOD8292620 Si02
#       6
#    16  16  16  16  16  16
#     4   8  14  24  34  41  52  72  93 109 129 162
#     4   8  13  21  31  40  52  71  90 107 131 163
#     4   9  15  21  31  46  59  69  85 113 143 166
#     4   8  13  20  30  43  54  65  87 115 135 155
#     4   8  12  18  29  43  57  72  89 110 138 171
#     4   8  13  20  29  42  58  73  89 109 136 171
#
# _framework density 10.757911
#
# number of rings (size 3 to 8) (size 9 to 14) (size 15 to 20)
#    0.000    3.833    0.000    3.000    0.000    2.333 
#    0.000    2.500    0.000    1.500    0.000    0.000 
#    0.000    0.000    0.000    0.000    0.000    0.000 
#
# Total GULP energy -594686.007559 kJ/mol
# GULP energy per Si atom -12389.291824 kJ/mol
# Density = 1.073343 g / cm^3
# Si number density = 10.757911 Si / 1000 Ang^3
#
#
#
# Elastic Constant Matrix: (Units=GPa)
#
#
# Indices 1 2 3 4 5 6 
#
# 1 48.0608 32.8579 28.2652 0.0000 0.0000 0.0000
# 2 32.8579 62.9669 29.2956 0.0000 0.0000 0.0000
# 3 28.2652 29.2956 41.7230 0.0000 0.0000 0.0000
# 4 0.0000 0.0000 0.0000 11.3802 0.0000 0.0000
# 5 0.0000 0.0000 0.0000 0.0000 12.4409 0.0000
# 6 0.0000 0.0000 0.0000 0.0000 0.0000 10.3748
#
#
#
# Elastic Compliance Matrix: (Units=1/GPa)
#
#
# Indices 1 2 3 4 5 6 
#
# 1 0.040129 -0.012316 -0.018538 0.000000 0.000000 0.000000
# 2 -0.012316 0.027366 -0.010872 0.000000 0.000000 0.000000
# 3 -0.018538 -0.010872 0.044160 0.000000 0.000000 0.000000
# 4 0.000000 0.000000 0.000000 0.087872 0.000000 0.000000
# 5 0.000000 0.000000 0.000000 0.000000 0.080380 0.000000
# 6 0.000000 0.000000 0.000000 0.000000 0.000000 0.096387
#
#
# Mechanical properties :
#
#
# Convention : Reuss Voigt Hill
#
# Bulk Modulus (GPa) = 35.45587 37.06535 36.26061
# Shear Modulus (GPa) = 10.65763 10.99465 10.82614
#
# Velocity S-wave (km/s) = 3.15092 3.20035 3.17573
# Velocity P-wave (km/s) = 6.80200 6.94155 6.87213
#
# Compressibility (1/GPa) = 0.02820407
#
# Stress axis : x y z
#
# Youngs Moduli (GPa) = 24.91932 36.54142 22.64495
#
# Poissons Ratio (x) = 0.45003 0.41980
# Poissons Ratio (y) = 0.30690 0.24619
# Poissons Ratio (z) = 0.46196 0.39727
#
# Static dielectric constant tensor:
#      x y z
#    x 2.303270 0.000000 0.000000 
#    y 0.000000 2.352070 0.000000 
#    z 0.000000 0.000000 2.303150 
# 
# 
# High freq. dielectric constant tensor:
#      x y z
#    x 1.374910 0.000000 0.000000 
#    y 0.000000 1.379200 0.000000 
#    z 0.000000 0.000000 1.390840 
# 
# From -- ./inp_files/29024.got.cif
#   From: 2010.06.25/outbox.cif.g09.slc.cpg/sg71_15_cif.got.tgz:29024.got - 2010.06.28 04:59:45.
