data_PCOD8292395
_publ_section_title
;
Structure prediction by ZEFSAII (Michael W. Deem and Ramdas Pophale) SiO2 
 PCOD8292395
Probable space group: I M M M
;
_chemical_formula_sum "Si O2"
_cell_formula_units_Z 56
_cell_length_a 8.714887
_cell_length_b 15.050245
_cell_length_c 19.633296
_cell_angle_alpha 90.000000
_cell_angle_beta 90.000000
_cell_angle_gamma 90.000000
_cell_volume 2575.126359
_symmetry_space_group_name_H-M "I M M M"
_symmetry_group_IT_number 71
_symmetry_cell_setting 'orthorhombic'
loop_
_space_group_symop_operation_xyz
x,y,z
-x,-y,z
x,-y,-z
-x,y,-z
-x,-y,-z
x,y,-z
-x,y,z
x,-y,z
1/2+x,1/2+y,1/2+z
1/2-x,1/2-y,1/2+z
1/2+x,1/2-y,1/2-z
1/2-x,1/2+y,1/2-z
1/2-x,1/2-y,1/2-z
1/2+x,1/2+y,1/2-z
1/2-x,1/2+y,1/2+z
1/2+x,1/2-y,1/2+z
loop_
_atom_site_type_symbol
_atom_site_label
_atom_site_fract_x
_atom_site_fract_y
_atom_site_fract_z
Si Si1 0.832119 0.400337 0.000000
Si Si2 0.822587 0.818840 0.922302
Si Si3 0.680671 0.346034 0.863920
Si Si4 0.320647 0.000000 0.118316
Si Si5 0.680095 0.000000 0.276314
O O1 0.725330 0.385755 0.064228
O O2 0.884897 0.500000 0.000000
O O3 0.000000 0.347810 0.000000
O O4 0.748499 0.754283 0.864931
O O5 0.000000 0.828948 0.904996
O O6 0.746999 0.914598 0.918700
O O7 0.796178 0.780993 0.000000
O O8 0.500000 0.341806 0.853189
O O9 0.750606 0.408858 0.805872
O O10 0.277699 0.000000 0.197411
O O11 0.500000 0.000000 0.106424
O O12 0.500000 0.000000 0.291364
#
# Coordination Sequence:
#
# PCOD8292395 Si02
#       5
#     8  16  16   8   8
#     4  11  21  35  59  90 130 171 206 256 322 385
#     4  11  24  43  69  97 129 169 212 263 326 386
#     4  12  24  38  64  98 130 166 213 267 316 376
#     4  11  26  46  68  93 126 169 220 272 318 374
#     4  11  25  45  65  91 132 177 213 258 323 390
#
# _framework density 21.746506
#
# number of rings (size 3 to 8) (size 9 to 14) (size 15 to 20)
#    0.000    0.714    2.857    5.143    0.000    7.429 
#    0.000    0.000    0.000    0.000    0.000    0.000 
#    0.000    0.000    0.000    0.000    0.000    0.000 
#
# Total GULP energy -347164.774037 kJ/mol
# GULP energy per Si atom -12398.741930 kJ/mol
# Density = 2.169701 g / cm^3
# Si number density = 21.746506 Si / 1000 Ang^3
#
#
#
# Elastic Constant Matrix: (Units=GPa)
#
#
# Indices 1 2 3 4 5 6 
#
# 1 136.1364 39.5757 52.8307 0.0000 0.0000 0.0000
# 2 39.5757 130.8458 17.0442 0.0000 0.0000 0.0000
# 3 52.8307 17.0442 62.1416 0.0000 0.0000 0.0000
# 4 0.0000 0.0000 0.0000 -103.2481 0.0000 0.0000
# 5 0.0000 0.0000 0.0000 0.0000 33.4328 0.0000
# 6 0.0000 0.0000 0.0000 0.0000 0.0000 42.9930
#
#
#
# Elastic Compliance Matrix: (Units=1/GPa)
#
#
# Indices 1 2 3 4 5 6 
#
# 1 0.011596 -0.002306 -0.009226 0.000000 0.000000 0.000000
# 2 -0.002306 0.008384 -0.000339 0.000000 0.000000 0.000000
# 3 -0.009226 -0.000339 0.024029 0.000000 0.000000 0.000000
# 4 0.000000 0.000000 0.000000 -0.009685 0.000000 0.000000
# 5 0.000000 0.000000 0.000000 0.000000 0.029911 0.000000
# 6 0.000000 0.000000 0.000000 0.000000 0.000000 0.023260
#
#
# Mechanical properties :
#
#
# Convention : Reuss Voigt Hill
#
# Bulk Modulus (GPa) = 49.34155 60.89164 55.11660
# Shear Modulus (GPa) = 42.37526 9.28043 25.82784
#
# Velocity S-wave (km/s) = 4.41908 2.06805 3.45001
# Velocity P-wave (km/s) = 6.98401 5.81067 6.42418
#
# Compressibility (1/GPa) = 0.02026689
#
# Stress axis : x y z
#
# Youngs Moduli (GPa) = 86.23415 119.27266 41.61572
#
# Poissons Ratio (x) = 0.27499 0.38396
# Poissons Ratio (y) = 0.19882 0.01413
# Poissons Ratio (z) = 0.79563 0.04049
#
# Static dielectric constant tensor:
#      x y z
#    x 3.934040 0.000000 0.000000 
#    y 0.000000 4.258430 0.000000 
#    z 0.000000 0.000000 3.773580 
# 
# 
# High freq. dielectric constant tensor:
#      x y z
#    x 1.870350 0.000000 0.000000 
#    y 0.000000 1.880130 0.000000 
#    z 0.000000 0.000000 1.840800 
# 
# From -- ./inp_files/49843.got.cif
#   From: 2010.06.25/outbox.cif.g09.slc.cpg/sg71_25_cif.got.tgz:49843.got - 2010.06.28 04:59:45.
