data_PCOD8292766
_publ_section_title
;
Structure prediction by ZEFSAII (Michael W. Deem and Ramdas Pophale) SiO2 
 PCOD8292766
Probable space group: I M M M
;
_chemical_formula_sum "Si O2"
_cell_formula_units_Z 96
_cell_length_a 12.681951
_cell_length_b 31.964093
_cell_length_c 14.504087
_cell_angle_alpha 90.000000
_cell_angle_beta 90.000000
_cell_angle_gamma 90.000000
_cell_volume 5879.479122
_symmetry_space_group_name_H-M "I M M M"
_symmetry_group_IT_number 71
_symmetry_cell_setting 'orthorhombic'
loop_
_space_group_symop_operation_xyz
x,y,z
-x,-y,z
x,-y,-z
-x,y,-z
-x,-y,-z
x,y,-z
-x,y,z
x,-y,z
1/2+x,1/2+y,1/2+z
1/2-x,1/2-y,1/2+z
1/2+x,1/2-y,1/2-z
1/2-x,1/2+y,1/2-z
1/2-x,1/2-y,1/2-z
1/2+x,1/2+y,1/2-z
1/2-x,1/2+y,1/2+z
1/2+x,1/2-y,1/2+z
loop_
_atom_site_type_symbol
_atom_site_label
_atom_site_fract_x
_atom_site_fract_y
_atom_site_fract_z
Si Si1 0.234592 0.820562 0.897275
Si Si2 0.625602 0.424972 0.236138
Si Si3 0.000000 0.453043 0.390581
Si Si4 0.379630 0.743964 0.892803
Si Si5 0.717147 0.085103 0.105064
Si Si6 0.620837 0.667835 0.780217
Si Si7 0.124572 0.000000 0.395858
O O1 0.317454 0.785647 0.865384
O O2 0.292980 0.864915 0.893167
O O3 0.136909 0.820952 0.827249
O O4 0.190794 0.811557 0.000000
O O5 0.500000 0.427052 0.256819
O O6 0.687420 0.432815 0.332156
O O7 0.661023 0.379235 0.197841
O O8 0.661083 0.458802 0.159985
O O9 0.106130 0.431027 0.354027
O O10 0.000000 0.500000 0.352702
O O11 0.000000 0.451121 0.500000
O O12 0.500000 0.751002 0.860645
O O13 0.325590 0.703660 0.843176
O O14 0.372703 0.734632 0.000000
O O15 0.737359 0.069324 0.000000
O O16 0.500000 0.669066 0.805438
O O17 0.172818 0.000000 0.500000
O O18 0.000000 0.000000 0.403749
#
# Coordination Sequence:
#
# PCOD8292766 Si02
#       7
#    16  16   8  16  16  16   8
#     4   9  17  28  43  63  87 117 147 178 215 258
#     4   9  18  31  47  68  93 118 148 183 224 274
#     4   9  18  30  44  64  90 122 154 184 216 251
#     4   9  17  27  42  63  86 114 147 183 222 259
#     4   9  18  30  46  68  94 123 151 181 220 265
#     4   9  17  29  43  62  88 115 143 179 218 261
#     4   9  18  32  49  68  89 116 147 184 225 263
#
# _framework density 16.327978000000002
#
# number of rings (size 3 to 8) (size 9 to 14) (size 15 to 20)
#    0.000    3.000    0.000    0.500    2.333    1.333 
#    0.000    6.667    0.000    1.500    0.000    1.167 
#    0.000    0.000    0.000    0.000    0.000    0.000 
#
# Total GULP energy -594850.880249 kJ/mol
# GULP energy per Si atom -12392.726672 kJ/mol
# Density = 1.629081 g / cm^3
# Si number density = 16.327978 Si / 1000 Ang^3
#
#
#
# Elastic Constant Matrix: (Units=GPa)
#
#
# Indices 1 2 3 4 5 6 
#
# 1 40.3599 22.1884 24.4191 0.0000 0.0001 0.0000
# 2 22.1884 102.9874 54.7227 0.0002 0.0000 0.0000
# 3 24.4191 54.7227 76.9105 0.0024 -0.0006 -0.0002
# 4 0.0000 0.0002 0.0024 27.4746 -0.0005 -0.0001
# 5 0.0001 0.0000 -0.0006 -0.0005 17.0776 0.0001
# 6 0.0000 0.0000 -0.0002 -0.0001 0.0001 20.1437
#
#
#
# Elastic Compliance Matrix: (Units=1/GPa)
#
#
# Indices 1 2 3 4 5 6 
#
# 1 0.031013 -0.002331 -0.008188 0.000001 -0.000001 0.000000
# 2 -0.002331 0.015788 -0.010493 0.000001 0.000000 0.000000
# 3 -0.008188 -0.010493 0.023068 -0.000002 0.000001 0.000000
# 4 0.000001 0.000001 -0.000002 0.036397 0.000001 0.000000
# 5 -0.000001 0.000000 0.000001 0.000001 0.058556 0.000000
# 6 0.000000 0.000000 0.000000 0.000000 0.000000 0.049643
#
#
# Mechanical properties :
#
#
# Convention : Reuss Voigt Hill
#
# Bulk Modulus (GPa) = 35.91434 46.99092 41.45263
# Shear Modulus (GPa) = 18.81326 20.86768 19.84047
#
# Velocity S-wave (km/s) = 3.39810 3.57884 3.48964
# Velocity P-wave (km/s) = 6.11878 6.77638 6.45596
#
# Compressibility (1/GPa) = 0.02784403
#
# Stress axis : x y z
#
# Youngs Moduli (GPa) = 32.24503 63.34091 43.35056
#
# Poissons Ratio (x) = 0.14764 0.35496
# Poissons Ratio (y) = 0.07516 0.45488
# Poissons Ratio (z) = 0.26403 0.66464
#
# Static dielectric constant tensor:
#      x y z
#    x 2.908970 0.000000 0.000000 
#    y 0.000000 3.372240 0.000000 
#    z 0.000000 0.000000 3.105730 
# 
# 
# High freq. dielectric constant tensor:
#      x y z
#    x 1.597490 0.000000 0.000000 
#    y 0.000000 1.643620 0.000000 
#    z 0.000000 0.000000 1.613000 
# 
# From -- ./inp_files/22611.got.cif
#   From: 2010.06.25/outbox.cif.g09.slc.cpg/sg71_12_cif.got.tgz:22611.got - 2010.06.28 04:59:45.
