data_PCOD8292356
_publ_section_title
;
Structure prediction by ZEFSAII (Michael W. Deem and Ramdas Pophale) SiO2 
 PCOD8292356
Probable space group: I M M M
;
_chemical_formula_sum "Si O2"
_cell_formula_units_Z 56
_cell_length_a 12.584381
_cell_length_b 22.022735
_cell_length_c 11.764309
_cell_angle_alpha 90.000000
_cell_angle_beta 90.000000
_cell_angle_gamma 90.000000
_cell_volume 3260.389865
_symmetry_space_group_name_H-M "I M M M"
_symmetry_group_IT_number 71
_symmetry_cell_setting 'orthorhombic'
loop_
_space_group_symop_operation_xyz
x,y,z
-x,-y,z
x,-y,-z
-x,y,-z
-x,-y,-z
x,y,-z
-x,y,z
x,-y,z
1/2+x,1/2+y,1/2+z
1/2-x,1/2-y,1/2+z
1/2+x,1/2-y,1/2-z
1/2-x,1/2+y,1/2-z
1/2-x,1/2-y,1/2-z
1/2+x,1/2+y,1/2-z
1/2-x,1/2+y,1/2+z
1/2+x,1/2-y,1/2+z
loop_
_atom_site_type_symbol
_atom_site_label
_atom_site_fract_x
_atom_site_fract_y
_atom_site_fract_z
Si Si1 0.500000 0.427753 0.372923
Si Si2 0.202561 0.070676 0.262084
Si Si3 0.371938 0.384799 0.000000
Si Si4 0.123518 0.250476 0.500000
Si Si5 0.121721 0.636378 0.373605
O O1 0.500000 0.500000 0.370576
O O2 0.500000 0.401698 0.500000
O O3 0.604220 0.402959 0.310239
O O4 0.177358 0.080786 0.393260
O O5 0.307017 0.106223 0.222838
O O6 0.221339 0.000000 0.238481
O O7 0.324213 0.316026 0.000000
O O8 0.500000 0.389911 0.000000
O O9 0.150593 0.291384 0.612185
O O10 0.000000 0.236943 0.500000
O O11 0.137235 0.606087 0.500000
O O12 0.000000 0.628456 0.334269
#
# Coordination Sequence:
#
# PCOD8292356 Si02
#       5
#     8  16   8   8  16
#     4   9  18  31  47  73 109 136 169 221 262 306
#     4  11  21  32  52  80 110 144 178 216 266 325
#     4  11  21  36  54  75 108 152 189 212 256 321
#     4   7  16  35  57  79  99 136 185 222 267 309
#     4   8  17  36  57  79 105 130 174 231 275 316
#
# _framework density 17.175858999999999
#
# number of rings (size 3 to 8) (size 9 to 14) (size 15 to 20)
#    0.857    1.857    1.429    1.286    0.000    4.000 
#    0.000    2.143    0.000    1.714    0.000    0.000 
#    0.000    0.000    0.000    0.000    0.000    0.000 
#
# Total GULP energy -346883.478078 kJ/mol
# GULP energy per Si atom -12388.695646 kJ/mol
# Density = 1.713677 g / cm^3
# Si number density = 17.175859 Si / 1000 Ang^3
#
#
#
# Elastic Constant Matrix: (Units=GPa)
#
#
# Indices 1 2 3 4 5 6 
#
# 1 80.1927 16.0605 30.8488 -0.0005 0.0000 0.0000
# 2 16.0605 50.7250 0.4887 0.0005 0.0001 0.0000
# 3 30.8488 0.4887 87.1648 0.0007 0.0001 0.0000
# 4 -0.0005 0.0005 0.0007 21.6330 0.0001 0.0000
# 5 0.0000 0.0001 0.0001 0.0001 31.4944 0.0000
# 6 0.0000 0.0000 0.0000 0.0000 0.0000 19.7545
#
#
#
# Elastic Compliance Matrix: (Units=1/GPa)
#
#
# Indices 1 2 3 4 5 6 
#
# 1 0.015552 -0.004871 -0.005477 0.000001 0.000000 0.000000
# 2 -0.004871 0.021241 0.001605 -0.000001 0.000000 0.000000
# 3 -0.005477 0.001605 0.013402 -0.000001 0.000000 0.000000
# 4 0.000001 -0.000001 -0.000001 0.046226 0.000000 0.000000
# 5 0.000000 0.000000 0.000000 0.000000 0.031752 0.000000
# 6 0.000000 0.000000 0.000000 0.000000 0.000000 0.050621
#
#
# Mechanical properties :
#
#
# Convention : Reuss Voigt Hill
#
# Bulk Modulus (GPa) = 30.57297 34.76430 32.66863
# Shear Modulus (GPa) = 24.13317 25.95535 25.04426
#
# Velocity S-wave (km/s) = 3.75248 3.89157 3.82266
# Velocity P-wave (km/s) = 6.05091 6.36212 6.20846
#
# Compressibility (1/GPa) = 0.03270864
#
# Stress axis : x y z
#
# Youngs Moduli (GPa) = 64.29850 47.07862 74.61641
#
# Poissons Ratio (x) = 0.22934 0.40867
# Poissons Ratio (y) = 0.31323 -0.11976
# Poissons Ratio (z) = 0.35216 -0.07556
#
# Static dielectric constant tensor:
#      x y z
#    x 3.028200 0.000000 0.000000 
#    y 0.000000 3.193730 0.000000 
#    z 0.000000 0.000000 3.023710 
# 
# 
# High freq. dielectric constant tensor:
#      x y z
#    x 1.650340 0.000000 0.000000 
#    y 0.000000 1.649330 0.000000 
#    z 0.000000 0.000000 1.649610 
# 
# From -- ./inp_files/19549.got.cif
#   From: 2010.06.25/outbox.cif.g09.slc.cpg/sg71_10_cif.got.tgz:19549.got - 2010.06.28 04:59:45.
