data_PCOD8292028
_publ_section_title
;
Structure prediction by ZEFSAII (Michael W. Deem and Ramdas Pophale) SiO2 
 PCOD8292028
Probable space group: I M M M
;
_chemical_formula_sum "Si O2"
_cell_formula_units_Z 72
_cell_length_a 31.862178
_cell_length_b 8.760671
_cell_length_c 13.236294
_cell_angle_alpha 90.000000
_cell_angle_beta 90.000000
_cell_angle_gamma 90.000000
_cell_volume 3694.700468
_symmetry_space_group_name_H-M "I M M M"
_symmetry_group_IT_number 71
_symmetry_cell_setting 'orthorhombic'
loop_
_space_group_symop_operation_xyz
x,y,z
-x,-y,z
x,-y,-z
-x,y,-z
-x,-y,-z
x,y,-z
-x,y,z
x,-y,z
1/2+x,1/2+y,1/2+z
1/2-x,1/2-y,1/2+z
1/2+x,1/2-y,1/2-z
1/2-x,1/2+y,1/2-z
1/2-x,1/2-y,1/2-z
1/2+x,1/2+y,1/2-z
1/2-x,1/2+y,1/2+z
1/2+x,1/2-y,1/2+z
loop_
_atom_site_type_symbol
_atom_site_label
_atom_site_fract_x
_atom_site_fract_y
_atom_site_fract_z
Si Si1 0.584627 0.317800 0.197285
Si Si2 0.779973 0.169545 0.174177
Si Si3 0.132648 0.823648 0.500000
Si Si4 0.215166 0.659711 0.500000
Si Si5 0.500000 0.181471 0.117766
Si Si6 0.366696 0.819526 0.616771
O O1 0.583094 0.500000 0.201077
O O2 0.613355 0.255914 0.103916
O O3 0.539083 0.250278 0.177324
O O4 0.600927 0.258302 0.305619
O O5 0.750000 0.250000 0.250000
O O6 0.820043 0.269843 0.146452
O O7 0.795289 0.000000 0.208826
O O8 0.747423 0.160211 0.087458
O O9 0.182519 0.798021 0.500000
O O10 0.122524 0.000000 0.500000
O O11 0.188733 0.500000 0.500000
O O12 0.500000 0.000000 0.126281
O O13 0.500000 0.233294 0.000000
O O14 0.376406 0.770792 0.500000
O O15 0.370295 0.000000 0.628624
#
# Coordination Sequence:
#
# PCOD8292028 Si02
#       6
#    16  16   8   8   8  16
#     4  11  23  41  66  95 129 168 210 260 317 383
#     4  11  22  38  58  84 117 160 211 261 314 369
#     4  10  22  37  57  90 127 162 205 259 314 372
#     4  10  22  36  53  79 116 157 202 252 300 356
#     4  11  23  41  68 101 134 167 203 253 317 386
#     4  11  24  42  63  90 126 170 218 267 319 379
#
# _framework density 19.487369999999999
#
# number of rings (size 3 to 8) (size 9 to 14) (size 15 to 20)
#    0.000    1.222    2.222    3.667    0.000    8.889 
#    0.000    0.556    0.000    3.333    0.000    0.000 
#    0.000    0.000    0.000    0.000    0.000    0.000 
#
# Total GULP energy -446031.921086 kJ/mol
# GULP energy per Si atom -12389.775586 kJ/mol
# Density = 1.944302 g / cm^3
# Si number density = 19.487370 Si / 1000 Ang^3
#
#
#
# Elastic Constant Matrix: (Units=GPa)
#
#
# Indices 1 2 3 4 5 6 
#
# 1 134.1383 44.9334 65.9601 0.0000 0.0000 0.0000
# 2 44.9334 91.2274 61.0521 0.0000 0.0000 0.0000
# 3 65.9601 61.0521 161.5966 0.0000 0.0000 0.0000
# 4 0.0000 0.0000 0.0000 61.3802 0.0000 0.0000
# 5 0.0000 0.0000 0.0000 0.0000 47.6434 0.0000
# 6 0.0000 0.0000 0.0000 0.0000 0.0000 34.4514
#
#
#
# Elastic Compliance Matrix: (Units=1/GPa)
#
#
# Indices 1 2 3 4 5 6 
#
# 1 0.009868 -0.002897 -0.002933 0.000000 0.000000 0.000000
# 2 -0.002897 0.015522 -0.004682 0.000000 0.000000 0.000000
# 3 -0.002933 -0.004682 0.009154 0.000000 0.000000 0.000000
# 4 0.000000 0.000000 0.000000 0.016292 0.000000 0.000000
# 5 0.000000 0.000000 0.000000 0.000000 0.020989 0.000000
# 6 0.000000 0.000000 0.000000 0.000000 0.000000 0.029026
#
#
# Mechanical properties :
#
#
# Convention : Reuss Voigt Hill
#
# Bulk Modulus (GPa) = 73.96670 81.20593 77.58632
# Shear Modulus (GPa) = 39.56254 43.02946 41.29600
#
# Velocity S-wave (km/s) = 4.51062 4.70411 4.60838
# Velocity P-wave (km/s) = 8.07256 8.44194 8.25932
#
# Compressibility (1/GPa) = 0.01351960
#
# Stress axis : x y z
#
# Youngs Moduli (GPa) = 101.33864 64.42586 109.23909
#
# Poissons Ratio (x) = 0.18667 0.32042
# Poissons Ratio (y) = 0.29362 0.51141
# Poissons Ratio (z) = 0.29725 0.30161
#
# Static dielectric constant tensor:
#      x y z
#    x 3.508630 0.000000 0.000000 
#    y 0.000000 3.459570 0.000000 
#    z 0.000000 0.000000 3.851700 
# 
# 
# High freq. dielectric constant tensor:
#      x y z
#    x 1.757310 0.000000 0.000000 
#    y 0.000000 1.769580 0.000000 
#    z 0.000000 0.000000 1.775430 
# 
# From -- ./inp_files/40727.got.cif
#   From: 2010.06.25/outbox.cif.g09.slc.cpg/sg71_21_cif.got.tgz:40727.got - 2010.06.28 04:59:45.
