data_PCOD8292182
_publ_section_title
;
Structure prediction by ZEFSAII (Michael W. Deem and Ramdas Pophale) SiO2 
 PCOD8292182
Probable space group: I M M M
;
_chemical_formula_sum "Si O2"
_cell_formula_units_Z 72
_cell_length_a 7.584953
_cell_length_b 16.754300
_cell_length_c 27.640135
_cell_angle_alpha 90.000000
_cell_angle_beta 90.000000
_cell_angle_gamma 90.000000
_cell_volume 3512.524333
_symmetry_space_group_name_H-M "I M M M"
_symmetry_group_IT_number 71
_symmetry_cell_setting 'orthorhombic'
loop_
_space_group_symop_operation_xyz
x,y,z
-x,-y,z
x,-y,-z
-x,y,-z
-x,-y,-z
x,y,-z
-x,y,z
x,-y,z
1/2+x,1/2+y,1/2+z
1/2-x,1/2-y,1/2+z
1/2+x,1/2-y,1/2-z
1/2-x,1/2+y,1/2-z
1/2-x,1/2-y,1/2-z
1/2+x,1/2+y,1/2-z
1/2-x,1/2+y,1/2+z
1/2+x,1/2-y,1/2+z
loop_
_atom_site_type_symbol
_atom_site_label
_atom_site_fract_x
_atom_site_fract_y
_atom_site_fract_z
Si Si1 0.194674 0.405241 0.695532
Si Si2 0.708329 0.089872 0.697386
Si Si3 0.701173 0.661477 0.101455
Si Si4 0.709027 0.500000 0.053695
Si Si5 0.000000 0.767594 0.942386
Si Si6 0.000000 0.905666 0.124673
O O1 0.184843 0.500000 0.696301
O O2 0.259194 0.378586 0.748994
O O3 0.329930 0.376321 0.654846
O O4 0.000000 0.370272 0.683434
O O5 0.500000 0.088128 0.691812
O O6 0.790362 0.153031 0.659621
O O7 0.784045 0.000000 0.688581
O O8 0.500000 0.678906 0.085263
O O9 0.777644 0.578510 0.080596
O O10 0.823703 0.730228 0.080191
O O11 0.500000 0.500000 0.052763
O O12 0.788873 0.500000 0.000000
O O13 0.000000 0.860610 0.926686
O O14 0.000000 0.760560 0.000000
O O15 0.000000 0.000000 0.114803
#
# Coordination Sequence:
#
# PCOD8292182 Si02
#       6
#    16  16  16   8   8   8
#     4   8  16  32  59  93 124 153 187 239 297 361
#     4   9  16  30  56  91 129 166 203 236 277 340
#     4  11  22  37  59  88 124 167 204 246 292 345
#     4   9  18  33  53  81 114 159 217 250 271 326
#     4  12  28  46  62  84 119 157 202 264 323 361
#     4  10  22  43  69  93 110 146 203 255 317 386
#
# _framework density 20.498080000000002
#
# number of rings (size 3 to 8) (size 9 to 14) (size 15 to 20)
#    0.000    2.333    2.222    2.000    1.556    2.889 
#    0.000    2.222    0.000    0.000    0.000    4.667 
#    0.000    0.000    0.000    0.000    0.000    0.000 
#
# Total GULP energy -446307.814923 kJ/mol
# GULP energy per Si atom -12397.439303 kJ/mol
# Density = 2.045143 g / cm^3
# Si number density = 20.498080 Si / 1000 Ang^3
#
#
#
# Elastic Constant Matrix: (Units=GPa)
#
#
# Indices 1 2 3 4 5 6 
#
# 1 97.9496 34.3227 36.0775 0.0000 0.0000 0.0000
# 2 34.3227 68.7199 47.0325 0.0000 0.0000 0.0000
# 3 36.0775 47.0325 91.2739 0.0000 0.0000 0.0000
# 4 0.0000 0.0000 0.0000 27.3137 0.0000 0.0000
# 5 0.0000 0.0000 0.0000 0.0000 17.1930 0.0000
# 6 0.0000 0.0000 0.0000 0.0000 0.0000 14.3249
#
#
#
# Elastic Compliance Matrix: (Units=1/GPa)
#
#
# Indices 1 2 3 4 5 6 
#
# 1 0.012800 -0.004527 -0.002727 0.000000 0.000000 0.000000
# 2 -0.004527 0.024081 -0.010619 0.000000 0.000000 0.000000
# 3 -0.002727 -0.010619 0.017506 0.000000 0.000000 0.000000
# 4 0.000000 0.000000 0.000000 0.036612 0.000000 0.000000
# 5 0.000000 0.000000 0.000000 0.000000 0.058163 0.000000
# 6 0.000000 0.000000 0.000000 0.000000 0.000000 0.069809
#
#
# Mechanical properties :
#
#
# Convention : Reuss Voigt Hill
#
# Bulk Modulus (GPa) = 53.64572 54.75653 54.20113
# Shear Modulus (GPa) = 19.16230 21.13370 20.14800
#
# Velocity S-wave (km/s) = 3.06082 3.21442 3.13856
# Velocity P-wave (km/s) = 6.22249 6.36770 6.29552
#
# Compressibility (1/GPa) = 0.01864082
#
# Stress axis : x y z
#
# Youngs Moduli (GPa) = 78.12557 41.52711 57.12385
#
# Poissons Ratio (x) = 0.18798 0.15576
# Poissons Ratio (y) = 0.35366 0.60661
# Poissons Ratio (z) = 0.21303 0.44099
#
# Static dielectric constant tensor:
#      x y z
#    x 3.900280 0.000000 0.000000 
#    y 0.000000 3.304110 0.000000 
#    z 0.000000 0.000000 3.786850 
# 
# 
# High freq. dielectric constant tensor:
#      x y z
#    x 1.803550 0.000000 0.000000 
#    y 0.000000 1.761540 0.000000 
#    z 0.000000 0.000000 1.795370 
# 
# From -- ./inp_files/67866.got.cif
#   From: 2010.06.25/outbox.cif.g09.slc.cpg/sg71_34_cif.got.tgz:67866.got - 2010.06.28 04:59:45.
