data_PCOD8292250
_publ_section_title
;
Structure prediction by ZEFSAII (Michael W. Deem and Ramdas Pophale) SiO2 
 PCOD8292250
Probable space group: I M M M
;
_chemical_formula_sum "Si O2"
_cell_formula_units_Z 120
_cell_length_a 22.888841
_cell_length_b 23.094794
_cell_length_c 13.601612
_cell_angle_alpha 90.000000
_cell_angle_beta 90.000000
_cell_angle_gamma 90.000000
_cell_volume 7189.989846
_symmetry_space_group_name_H-M "I M M M"
_symmetry_group_IT_number 71
_symmetry_cell_setting 'orthorhombic'
loop_
_space_group_symop_operation_xyz
x,y,z
-x,-y,z
x,-y,-z
-x,y,-z
-x,-y,-z
x,y,-z
-x,y,z
x,-y,z
1/2+x,1/2+y,1/2+z
1/2-x,1/2-y,1/2+z
1/2+x,1/2-y,1/2-z
1/2-x,1/2+y,1/2-z
1/2-x,1/2-y,1/2-z
1/2+x,1/2+y,1/2-z
1/2-x,1/2+y,1/2+z
1/2+x,1/2-y,1/2+z
loop_
_atom_site_type_symbol
_atom_site_label
_atom_site_fract_x
_atom_site_fract_y
_atom_site_fract_z
Si Si1 0.067008 0.148481 0.613575
Si Si2 0.670608 0.135734 0.788908
Si Si3 0.159261 0.756171 0.387907
Si Si4 0.845810 0.932661 0.294862
Si Si5 0.566789 0.931009 0.713338
Si Si6 0.068440 0.437499 0.000000
Si Si7 0.229672 0.066480 0.888521
Si Si8 0.252648 0.643263 0.888163
O O1 0.074973 0.129356 0.500000
O O2 0.099916 0.208738 0.632652
O O3 0.092827 0.098864 0.684546
O O4 0.000000 0.157742 0.641953
O O5 0.658762 0.201431 0.817663
O O6 0.609823 0.100365 0.789901
O O7 0.714832 0.106399 0.865451
O O8 0.696579 0.135343 0.679577
O O9 0.161835 0.734896 0.500000
O O10 0.214960 0.796404 0.363741
O O11 0.824426 0.918901 0.183513
O O12 0.797618 0.909386 0.371275
O O13 0.855106 0.000000 0.313057
O O14 0.500000 0.915376 0.741336
O O15 0.583363 0.906266 0.603591
O O16 0.576019 0.000000 0.717447
O O17 0.100422 0.500000 0.000000
O O18 0.000000 0.449165 0.000000
O O19 0.249075 0.000000 0.873368
O O20 0.208985 0.078389 0.000000
O O21 0.230727 0.641235 0.000000
#
# Coordination Sequence:
#
# PCOD8292250 Si02
#       8
#    16  16  16  16  16   8  16  16
#     4   9  18  32  50  72  99 128 155 190 236 283
#     4  11  19  28  50  73  89 117 167 200 232 276
#     4   9  18  33  48  64  90 123 157 196 238 278
#     4   9  17  30  49  73  99 127 156 185 228 287
#     4   9  18  31  45  65  96 127 154 189 232 275
#     4   7  12  26  44  58  82 124 156 174 212 270
#     4   9  18  32  48  69  98 126 154 194 239 278
#     4   9  19  32  45  67 100 125 146 190 245 286
#
# _framework density 16.689869999999999
#
# number of rings (size 3 to 8) (size 9 to 14) (size 15 to 20)
#    0.000    2.867    0.000    3.200    0.933    2.400 
#    0.000    0.667    0.000    1.600    0.000    6.533 
#    0.000    0.000    0.000    0.000    0.000    0.000 
#
# Total GULP energy -743761.472133 kJ/mol
# GULP energy per Si atom -12396.024536 kJ/mol
# Density = 1.665188 g / cm^3
# Si number density = 16.689870 Si / 1000 Ang^3
#
#
#
# Elastic Constant Matrix: (Units=GPa)
#
#
# Indices 1 2 3 4 5 6 
#
# 1 87.6741 35.4777 31.0271 0.0000 0.0000 0.0000
# 2 35.4777 68.3303 31.2040 0.0000 0.0000 0.0000
# 3 31.0271 31.2040 68.4498 0.0000 0.0000 0.0000
# 4 0.0000 0.0000 0.0000 17.3656 0.0000 0.0000
# 5 0.0000 0.0000 0.0000 0.0000 19.0024 0.0000
# 6 0.0000 0.0000 0.0000 0.0000 0.0000 17.9954
#
#
#
# Elastic Compliance Matrix: (Units=1/GPa)
#
#
# Indices 1 2 3 4 5 6 
#
# 1 0.015338 -0.006048 -0.004195 0.000000 0.000000 0.000000
# 2 -0.006048 0.020867 -0.006771 0.000000 0.000000 0.000000
# 3 -0.004195 -0.006771 0.019598 0.000000 0.000000 0.000000
# 4 0.000000 0.000000 0.000000 0.057585 0.000000 0.000000
# 5 0.000000 0.000000 0.000000 0.000000 0.052625 0.000000
# 6 0.000000 0.000000 0.000000 0.000000 0.000000 0.055570
#
#
# Mechanical properties :
#
#
# Convention : Reuss Voigt Hill
#
# Bulk Modulus (GPa) = 45.92662 46.65241 46.28951
# Shear Modulus (GPa) = 19.02088 19.32237 19.17162
#
# Velocity S-wave (km/s) = 3.37956 3.40624 3.39292
# Velocity P-wave (km/s) = 6.54262 6.59417 6.56845
#
# Compressibility (1/GPa) = 0.02177386
#
# Stress axis : x y z
#
# Youngs Moduli (GPa) = 65.19847 47.92264 51.02623
#
# Poissons Ratio (x) = 0.28982 0.21408
# Poissons Ratio (y) = 0.39429 0.34551
# Poissons Ratio (z) = 0.27354 0.32450
#
# Static dielectric constant tensor:
#      x y z
#    x 3.021030 0.000000 0.000000 
#    y 0.000000 2.996200 0.000000 
#    z 0.000000 0.000000 3.145870 
# 
# 
# High freq. dielectric constant tensor:
#      x y z
#    x 1.630730 0.000000 0.000000 
#    y 0.000000 1.633430 0.000000 
#    z 0.000000 0.000000 1.636230 
# 
# From -- ./inp_files/39635.got.cif
#   From: 2010.06.25/outbox.cif.g09.slc.cpg/sg71_20_cif.got.tgz:39635.got - 2010.06.28 04:59:45.
