data_PCOD8292418
_publ_section_title
;
Structure prediction by ZEFSAII (Michael W. Deem and Ramdas Pophale) SiO2 
 PCOD8292418
Probable space group: I M M M
;
_chemical_formula_sum "Si O2"
_cell_formula_units_Z 80
_cell_length_a 11.695971
_cell_length_b 14.550100
_cell_length_c 23.526890
_cell_angle_alpha 90.000000
_cell_angle_beta 90.000000
_cell_angle_gamma 90.000000
_cell_volume 4003.748444
_symmetry_space_group_name_H-M "I M M M"
_symmetry_group_IT_number 71
_symmetry_cell_setting 'orthorhombic'
loop_
_space_group_symop_operation_xyz
x,y,z
-x,-y,z
x,-y,-z
-x,y,-z
-x,-y,-z
x,y,-z
-x,y,z
x,-y,z
1/2+x,1/2+y,1/2+z
1/2-x,1/2-y,1/2+z
1/2+x,1/2-y,1/2-z
1/2-x,1/2+y,1/2-z
1/2-x,1/2-y,1/2-z
1/2+x,1/2+y,1/2-z
1/2-x,1/2+y,1/2+z
1/2+x,1/2-y,1/2+z
loop_
_atom_site_type_symbol
_atom_site_label
_atom_site_fract_x
_atom_site_fract_y
_atom_site_fract_z
Si Si1 0.630303 0.897961 0.143067
Si Si2 0.255567 0.643090 0.756199
Si Si3 0.500000 0.397295 0.725159
Si Si4 0.633020 0.896571 0.371985
Si Si5 0.282815 0.719847 0.435124
Si Si6 0.500000 0.610463 0.400595
O O1 0.500000 0.871290 0.158060
O O2 0.704608 0.903186 0.200188
O O3 0.677648 0.821912 0.100108
O O4 0.636800 0.000000 0.115463
O O5 0.250000 0.750000 0.750000
O O6 0.389498 0.621447 0.763407
O O7 0.187953 0.606282 0.809886
O O8 0.500000 0.500000 0.703914
O O9 0.500000 0.346628 0.663735
O O10 0.500000 0.872864 0.366070
O O11 0.690167 0.822395 0.413295
O O12 0.650542 0.000000 0.396588
O O13 0.243888 0.728783 0.500000
O O14 0.389008 0.650589 0.431304
O O15 0.500000 0.500000 0.406073
#
# Coordination Sequence:
#
# PCOD8292418 Si02
#       6
#    16  16   8  16  16   8
#     4  11  24  42  65  94 128 165 206 256 318 386
#     4  12  23  37  65  95 129 162 205 253 315 377
#     4  11  22  37  60  92 127 158 196 251 311 375
#     4  11  24  43  66  93 128 168 211 260 314 374
#     4  12  25  42  64  91 124 164 215 263 311 369
#     4  11  21  38  62  92 128 163 201 253 316 378
#
# _framework density 19.981275
#
# number of rings (size 3 to 8) (size 9 to 14) (size 15 to 20)
#    0.000    0.600    5.000    3.300    2.800    4.400 
#    0.000    2.000    0.000    0.000    0.000    1.400 
#    0.000    0.000    0.000    0.000    0.000    0.000 
#
# Total GULP energy -496046.831304 kJ/mol
# GULP energy per Si atom -12401.170783 kJ/mol
# Density = 1.993580 g / cm^3
# Si number density = 19.981275 Si / 1000 Ang^3
#
#
#
# Elastic Constant Matrix: (Units=GPa)
#
#
# Indices 1 2 3 4 5 6 
#
# 1 125.9089 44.4406 25.8305 0.0000 0.0000 0.0000
# 2 44.4406 134.0238 33.1185 0.0000 0.0000 0.0000
# 3 25.8305 33.1185 100.4106 0.0000 0.0000 0.0000
# 4 0.0000 0.0000 0.0000 16.4893 0.0000 0.0000
# 5 0.0000 0.0000 0.0000 0.0000 13.3490 0.0000
# 6 0.0000 0.0000 0.0000 0.0000 0.0000 32.7384
#
#
#
# Elastic Compliance Matrix: (Units=1/GPa)
#
#
# Indices 1 2 3 4 5 6 
#
# 1 0.009193 -0.002682 -0.001480 0.000000 0.000000 0.000000
# 2 -0.002682 0.008906 -0.002247 0.000000 0.000000 0.000000
# 3 -0.001480 -0.002247 0.011081 0.000000 0.000000 0.000000
# 4 0.000000 0.000000 0.000000 0.060645 0.000000 0.000000
# 5 0.000000 0.000000 0.000000 0.000000 0.074912 0.000000
# 6 0.000000 0.000000 0.000000 0.000000 0.000000 0.030545
#
#
# Mechanical properties :
#
#
# Convention : Reuss Voigt Hill
#
# Bulk Modulus (GPa) = 61.12444 63.01358 62.06901
# Shear Modulus (GPa) = 23.41310 29.64560 26.52935
#
# Velocity S-wave (km/s) = 3.42680 3.85602 3.64773
# Velocity P-wave (km/s) = 6.80548 7.17147 6.99087
#
# Compressibility (1/GPa) = 0.01636007
#
# Stress axis : x y z
#
# Youngs Moduli (GPa) = 108.78223 112.28136 90.24341
#
# Poissons Ratio (x) = 0.30119 0.13357
# Poissons Ratio (y) = 0.29180 0.20282
# Poissons Ratio (z) = 0.16100 0.25235
#
# Static dielectric constant tensor:
#      x y z
#    x 3.589670 0.000000 0.000000 
#    y 0.000000 3.865230 0.000000 
#    z 0.000000 0.000000 3.380580 
# 
# 
# High freq. dielectric constant tensor:
#      x y z
#    x 1.783630 0.000000 0.000000 
#    y 0.000000 1.799180 0.000000 
#    z 0.000000 0.000000 1.758400 
# 
# From -- ./inp_files/32683.got.cif
#   From: 2010.06.25/outbox.cif.g09.slc.cpg/sg71_17_cif.got.tgz:32683.got - 2010.06.28 04:59:45.
