data_PCOD8292594
_publ_section_title
;
Structure prediction by ZEFSAII (Michael W. Deem and Ramdas Pophale) SiO2 
 PCOD8292594
Probable space group: I M M M
;
_chemical_formula_sum "Si O2"
_cell_formula_units_Z 48
_cell_length_a 8.813375
_cell_length_b 16.495664
_cell_length_c 19.067741
_cell_angle_alpha 90.000000
_cell_angle_beta 90.000000
_cell_angle_gamma 90.000000
_cell_volume 2772.115335
_symmetry_space_group_name_H-M "I M M M"
_symmetry_group_IT_number 71
_symmetry_cell_setting 'orthorhombic'
loop_
_space_group_symop_operation_xyz
x,y,z
-x,-y,z
x,-y,-z
-x,y,-z
-x,-y,-z
x,y,-z
-x,y,z
x,-y,z
1/2+x,1/2+y,1/2+z
1/2-x,1/2-y,1/2+z
1/2+x,1/2-y,1/2-z
1/2-x,1/2+y,1/2-z
1/2-x,1/2-y,1/2-z
1/2+x,1/2+y,1/2-z
1/2-x,1/2+y,1/2+z
1/2+x,1/2-y,1/2+z
loop_
_atom_site_type_symbol
_atom_site_label
_atom_site_fract_x
_atom_site_fract_y
_atom_site_fract_z
Si Si1 0.179607 0.868329 0.000000
Si Si2 0.679051 0.500000 0.390126
Si Si3 0.828336 0.410536 0.882540
Si Si4 0.819555 0.000000 0.732822
Si Si5 0.821530 0.805687 0.500000
O O1 0.229518 0.919278 0.931417
O O2 0.275656 0.787291 0.000000
O O3 0.000000 0.849652 0.000000
O O4 0.500000 0.500000 0.386273
O O5 0.746672 0.500000 0.311715
O O6 0.827991 0.500000 0.918871
O O7 0.743836 0.419455 0.807034
O O8 0.000000 0.379796 0.870784
O O9 0.742490 0.346744 0.930308
O O10 0.000000 0.000000 0.730841
O O11 0.000000 0.815617 0.500000
#
# Coordination Sequence:
#
# PCOD8292594 Si02
#       5
#     8   8  16   8   8
#     4   9  18  35  57  77 100 134 170 207 250 303
#     4   8  16  34  59  79  97 130 173 208 250 302
#     4   9  19  33  51  75 102 138 172 199 247 307
#     4   9  16  30  53  80 103 128 166 211 250 294
#     4  12  22  32  49  78 107 132 168 213 255 292
#
# _framework density 17.315297000000001
#
# number of rings (size 3 to 8) (size 9 to 14) (size 15 to 20)
#    1.000    1.667    0.000    4.000    0.000    2.000 
#    0.000    6.667    0.000    0.000    0.000    0.000 
#    0.000    0.000    0.000    0.000    0.000    0.000 
#
# Total GULP energy -297388.946095 kJ/mol
# GULP energy per Si atom -12391.206087 kJ/mol
# Density = 1.727589 g / cm^3
# Si number density = 17.315297 Si / 1000 Ang^3
#
#
#
# Elastic Constant Matrix: (Units=GPa)
#
#
# Indices 1 2 3 4 5 6 
#
# 1 115.4922 41.3045 54.9552 0.0000 0.0000 0.0000
# 2 41.3045 96.9594 63.1760 0.0000 0.0000 0.0000
# 3 54.9552 63.1760 168.3241 0.0000 0.0000 0.0000
# 4 0.0000 0.0000 0.0000 5.2465 0.0000 0.0000
# 5 0.0000 0.0000 0.0000 0.0000 15.8499 0.0000
# 6 0.0000 0.0000 0.0000 0.0000 0.0000 26.3704
#
#
#
# Elastic Compliance Matrix: (Units=1/GPa)
#
#
# Indices 1 2 3 4 5 6 
#
# 1 0.010904 -0.003078 -0.002405 0.000000 0.000000 0.000000
# 2 -0.003078 0.014521 -0.004445 0.000000 0.000000 0.000000
# 3 -0.002405 -0.004445 0.008394 0.000000 0.000000 0.000000
# 4 0.000000 0.000000 0.000000 0.190603 0.000000 0.000000
# 5 0.000000 0.000000 0.000000 0.000000 0.063092 0.000000
# 6 0.000000 0.000000 0.000000 0.000000 0.000000 0.037921
#
#
# Mechanical properties :
#
#
# Convention : Reuss Voigt Hill
#
# Bulk Modulus (GPa) = 71.61584 77.73855 74.67720
# Shear Modulus (GPa) = 14.28793 24.24936 19.26864
#
# Velocity S-wave (km/s) = 2.87568 3.74633 3.33950
# Velocity P-wave (km/s) = 7.24401 7.98165 7.62176
#
# Compressibility (1/GPa) = 0.01396339
#
# Stress axis : x y z
#
# Youngs Moduli (GPa) = 91.71253 68.86460 119.12767
#
# Poissons Ratio (x) = 0.21198 0.28645
# Poissons Ratio (y) = 0.28231 0.52955
# Poissons Ratio (z) = 0.22053 0.30612
#
# Static dielectric constant tensor:
#      x y z
#    x 3.102540 0.000000 0.000000 
#    y 0.000000 3.006620 0.000000 
#    z 0.000000 0.000000 3.529390 
# 
# 
# High freq. dielectric constant tensor:
#      x y z
#    x 1.665290 0.000000 0.000000 
#    y 0.000000 1.646820 0.000000 
#    z 0.000000 0.000000 1.666340 
# 
# From -- ./inp_files/49896.got.cif
#   From: 2010.06.25/outbox.cif.g09.slc.cpg/sg71_25_cif.got.tgz:49896.got - 2010.06.28 04:59:45.
