data_PCOD8292347
_publ_section_title
;
Structure prediction by ZEFSAII (Michael W. Deem and Ramdas Pophale) SiO2 
 PCOD8292347
Probable space group: I M M M
;
_chemical_formula_sum "Si O2"
_cell_formula_units_Z 96
_cell_length_a 11.952282
_cell_length_b 22.648549
_cell_length_c 22.268797
_cell_angle_alpha 90.000000
_cell_angle_beta 90.000000
_cell_angle_gamma 90.000000
_cell_volume 6028.204424
_symmetry_space_group_name_H-M "I M M M"
_symmetry_group_IT_number 71
_symmetry_cell_setting 'orthorhombic'
loop_
_space_group_symop_operation_xyz
x,y,z
-x,-y,z
x,-y,-z
-x,y,-z
-x,-y,-z
x,y,-z
-x,y,z
x,-y,z
1/2+x,1/2+y,1/2+z
1/2-x,1/2-y,1/2+z
1/2+x,1/2-y,1/2-z
1/2-x,1/2+y,1/2-z
1/2-x,1/2-y,1/2-z
1/2+x,1/2+y,1/2-z
1/2-x,1/2+y,1/2+z
1/2+x,1/2-y,1/2+z
loop_
_atom_site_type_symbol
_atom_site_label
_atom_site_fract_x
_atom_site_fract_y
_atom_site_fract_z
Si Si1 0.000000 0.430072 0.749594
Si Si2 0.239202 0.603326 0.069996
Si Si3 0.693823 0.934417 0.834847
Si Si4 0.376450 0.285376 0.928969
Si Si5 0.368879 0.153930 0.931263
Si Si6 0.370940 0.500000 0.867501
Si Si7 0.000000 0.429195 0.114767
Si Si8 0.873192 0.000000 0.774535
O O1 0.108691 0.407154 0.714082
O O2 0.000000 0.500000 0.755141
O O3 0.000000 0.405264 0.817130
O O4 0.282568 0.667752 0.091134
O O5 0.309734 0.557053 0.107678
O O6 0.107811 0.597357 0.081795
O O7 0.263737 0.592677 0.000000
O O8 0.702897 0.891830 0.891928
O O9 0.651714 0.000000 0.855558
O O10 0.814366 0.941346 0.802235
O O11 0.500000 0.303076 0.903704
O O12 0.343029 0.219832 0.906628
O O13 0.385333 0.282020 0.000000
O O14 0.500000 0.139495 0.924858
O O15 0.330026 0.146485 0.000000
O O16 0.500000 0.500000 0.887833
O O17 0.358355 0.500000 0.796396
O O18 0.000000 0.500000 0.109701
O O19 0.000000 0.000000 0.795418
#
# Coordination Sequence:
#
# PCOD8292347 Si02
#       8
#     8  16  16  16  16   8   8   8
#     4   9  16  29  47  73  95 126 164 192 240 286
#     4  11  21  32  48  72  99 128 159 195 243 293
#     4   9  17  28  51  75  98 125 158 197 239 287
#     4   8  16  31  49  69  97 129 157 189 238 296
#     4   9  16  28  49  80 106 122 150 197 253 294
#     4  11  21  33  51  73  93 121 158 210 251 278
#     4  11  21  32  49  67 100 137 161 200 232 283
#     4   9  20  34  48  66  94 134 167 190 232 288
#
# _framework density 15.925140000000001
#
# number of rings (size 3 to 8) (size 9 to 14) (size 15 to 20)
#    0.500    2.000    1.667    3.000    0.000    2.000 
#    0.000    0.833    1.833    5.000    0.000    0.000 
#    0.000    0.000    0.000    0.000    0.000    0.000 
#
# Total GULP energy -594924.340935 kJ/mol
# GULP energy per Si atom -12394.257103 kJ/mol
# Density = 1.588889 g / cm^3
# Si number density = 15.925140 Si / 1000 Ang^3
#
#
#
# Elastic Constant Matrix: (Units=GPa)
#
#
# Indices 1 2 3 4 5 6 
#
# 1 119.7423 47.1955 39.3692 0.0000 0.0000 0.0000
# 2 47.1955 89.7733 37.8547 0.0000 0.0000 0.0000
# 3 39.3692 37.8547 65.4649 0.0000 0.0000 0.0000
# 4 0.0000 0.0000 0.0000 -8.9123 0.0000 0.0000
# 5 0.0000 0.0000 0.0000 0.0000 18.3208 0.0000
# 6 0.0000 0.0000 0.0000 0.0000 0.0000 17.6829
#
#
#
# Elastic Compliance Matrix: (Units=1/GPa)
#
#
# Indices 1 2 3 4 5 6 
#
# 1 0.011458 -0.004124 -0.004506 0.000000 0.000000 0.000000
# 2 -0.004124 0.016215 -0.006896 0.000000 0.000000 0.000000
# 3 -0.004506 -0.006896 0.021973 0.000000 0.000000 0.000000
# 4 0.000000 0.000000 0.000000 -0.112204 0.000000 0.000000
# 5 0.000000 0.000000 0.000000 0.000000 0.054583 0.000000
# 6 0.000000 0.000000 0.000000 0.000000 0.000000 0.056552
#
#
# Mechanical properties :
#
#
# Convention : Reuss Voigt Hill
#
# Bulk Modulus (GPa) = 53.78135 58.20215 55.99175
# Shear Modulus (GPa) = 58.25671 15.45568 36.85619
#
# Velocity S-wave (km/s) = 6.05483 3.11870 4.81598
# Velocity P-wave (km/s) = 9.09538 7.04238 8.13391
#
# Compressibility (1/GPa) = 0.01859380
#
# Stress axis : x y z
#
# Youngs Moduli (GPa) = 87.27435 61.67111 45.51021
#
# Poissons Ratio (x) = 0.25431 0.20508
# Poissons Ratio (y) = 0.35989 0.31386
# Poissons Ratio (z) = 0.39328 0.42531
#
# Static dielectric constant tensor:
#      x y z
#    x 3.017860 0.000000 0.000000 
#    y 0.000000 3.012740 0.000000 
#    z 0.000000 0.000000 2.922780 
# 
# 
# High freq. dielectric constant tensor:
#      x y z
#    x 1.602040 0.000000 0.000000 
#    y 0.000000 1.593740 0.000000 
#    z 0.000000 0.000000 1.600770 
# 
# From -- ./inp_files/59016.got.cif
#   From: 2010.06.25/outbox.cif.g09.slc.cpg/sg71_30_cif.got.tgz:59016.got - 2010.06.28 04:59:45.
