data_PCOD8292769
_publ_section_title
;
Structure prediction by ZEFSAII (Michael W. Deem and Ramdas Pophale) SiO2 
 PCOD8292769
Probable space group: I M M M
;
_chemical_formula_sum "Si O2"
_cell_formula_units_Z 112
_cell_length_a 14.180556
_cell_length_b 34.376580
_cell_length_c 14.180733
_cell_angle_alpha 90.000000
_cell_angle_beta 90.000000
_cell_angle_gamma 90.000000
_cell_volume 6912.809794
_symmetry_space_group_name_H-M "I M M M"
_symmetry_group_IT_number 71
_symmetry_cell_setting 'orthorhombic'
loop_
_space_group_symop_operation_xyz
x,y,z
-x,-y,z
x,-y,-z
-x,y,-z
-x,-y,-z
x,y,-z
-x,y,z
x,-y,z
1/2+x,1/2+y,1/2+z
1/2-x,1/2-y,1/2+z
1/2+x,1/2-y,1/2-z
1/2-x,1/2+y,1/2-z
1/2-x,1/2-y,1/2-z
1/2+x,1/2+y,1/2-z
1/2-x,1/2+y,1/2+z
1/2+x,1/2-y,1/2+z
loop_
_atom_site_type_symbol
_atom_site_label
_atom_site_fract_x
_atom_site_fract_y
_atom_site_fract_z
Si Si1 0.260445 0.454538 0.608023
Si Si2 0.608025 0.045461 0.260444
Si Si3 0.892399 0.181837 0.241497
Si Si4 0.736869 0.093218 0.390593
Si Si5 0.608658 0.750000 0.391339
Si Si6 0.890592 0.093218 0.763131
Si Si7 0.758498 0.318163 0.107599
O O1 0.245615 0.441431 0.500000
O O2 0.282568 0.500000 0.614934
O O3 0.165498 0.443803 0.665497
O O4 0.350215 0.432598 0.651851
O O5 0.500000 0.058568 0.245613
O O6 0.651850 0.067403 0.350213
O O7 0.614939 0.000000 0.282569
O O8 0.855475 0.211506 0.162119
O O9 0.878043 0.137925 0.204792
O O10 0.837147 0.189583 0.337144
O O11 0.000000 0.190059 0.266851
O O12 0.754362 0.082685 0.500000
O O13 0.833845 0.084848 0.333845
O O14 0.704795 0.137926 0.378050
O O15 0.628846 0.741675 0.500000
O O16 0.500000 0.758324 0.371124
O O17 0.662122 0.788494 0.355482
O O18 0.000000 0.082686 0.745637
O O19 0.733138 0.309939 0.000000
#
# Coordination Sequence:
#
# PCOD8292769 Si02
#       7
#    16  16  16  16  16  16  16
#     4   9  18  32  49  69  92 117 146 181 220 262
#     4   9  18  32  49  69  92 117 146 181 220 262
#     4   9  17  29  45  64  86 113 144 178 216 256
#     4   9  18  31  46  66  91 118 150 186 222 262
#     4   9  17  28  42  62  87 113 142 176 214 257
#     4   9  18  31  46  66  91 118 150 186 222 262
#     4   9  17  29  45  64  86 113 144 178 216 256
#
# _framework density 16.201805
#
# number of rings (size 3 to 8) (size 9 to 14) (size 15 to 20)
#    0.000    3.000    0.000    0.429    0.000    3.143 
#    0.000    8.571    0.000    0.000    0.000    4.000 
#    0.000    6.857    0.000    0.000    0.000    0.000 
#
# Total GULP energy -694336.725671 kJ/mol
# GULP energy per Si atom -12398.870101 kJ/mol
# Density = 1.616493 g / cm^3
# Si number density = 16.201805 Si / 1000 Ang^3
#
#
#
# Elastic Constant Matrix: (Units=GPa)
#
#
# Indices 1 2 3 4 5 6 
#
# 1 103.9659 53.4002 55.8111 0.0000 0.0000 0.0000
# 2 53.4002 67.5858 53.4024 0.0001 0.0001 0.0000
# 3 55.8111 53.4024 103.9661 -0.0004 -0.0004 0.0000
# 4 0.0000 0.0001 -0.0004 28.1246 -0.0003 0.0000
# 5 0.0000 0.0001 -0.0004 -0.0003 19.8440 0.0000
# 6 0.0000 0.0000 0.0000 0.0000 0.0000 28.1223
#
#
#
# Elastic Compliance Matrix: (Units=1/GPa)
#
#
# Indices 1 2 3 4 5 6 
#
# 1 0.017015 -0.010480 -0.003751 0.000000 0.000000 0.000000
# 2 -0.010480 0.031358 -0.010481 0.000000 0.000000 0.000000
# 3 -0.003751 -0.010481 0.017016 0.000000 0.000000 0.000000
# 4 0.000000 0.000000 0.000000 0.035556 0.000001 0.000000
# 5 0.000000 0.000000 0.000000 0.000001 0.050393 0.000000
# 6 0.000000 0.000000 0.000000 0.000000 0.000000 0.035559
#
#
# Mechanical properties :
#
#
# Convention : Reuss Voigt Hill
#
# Bulk Modulus (GPa) = 62.63888 66.74947 64.69418
# Shear Modulus (GPa) = 20.69172 22.74512 21.71842
#
# Velocity S-wave (km/s) = 3.57756 3.75088 3.66525
# Velocity P-wave (km/s) = 7.47067 7.74900 7.61111
#
# Compressibility (1/GPa) = 0.01596452
#
# Stress axis : x y z
#
# Youngs Moduli (GPa) = 58.77192 31.88977 58.76877
#
# Poissons Ratio (x) = 0.33420 0.22044
# Poissons Ratio (y) = 0.61592 0.61597
# Poissons Ratio (z) = 0.22045 0.33425
#
# Static dielectric constant tensor:
#      x y z
#    x 3.071380 0.000000 0.000000 
#    y 0.000000 3.187280 0.000000 
#    z 0.000000 0.000000 3.071410 
# 
# 
# High freq. dielectric constant tensor:
#      x y z
#    x 1.619050 0.000000 0.000000 
#    y 0.000000 1.625220 0.000000 
#    z 0.000000 0.000000 1.619060 
# 
# From -- ./inp_files/35386.got.cif
#   From: 2010.06.25/outbox.cif.g09.slc.cpg/sg71_18_cif.got.tgz:35386.got - 2010.06.28 04:59:45.
