data_PCOD8292573
_publ_section_title
;
Structure prediction by ZEFSAII (Michael W. Deem and Ramdas Pophale) SiO2 
 PCOD8292573
Probable space group: I M M M
;
_chemical_formula_sum "Si O2"
_cell_formula_units_Z 64
_cell_length_a 41.296640
_cell_length_b 8.757210
_cell_length_c 9.518965
_cell_angle_alpha 90.000000
_cell_angle_beta 90.000000
_cell_angle_gamma 90.000000
_cell_volume 3442.470379
_symmetry_space_group_name_H-M "I M M M"
_symmetry_group_IT_number 71
_symmetry_cell_setting 'orthorhombic'
loop_
_space_group_symop_operation_xyz
x,y,z
-x,-y,z
x,-y,-z
-x,y,-z
-x,-y,-z
x,y,-z
-x,y,z
x,-y,z
1/2+x,1/2+y,1/2+z
1/2-x,1/2-y,1/2+z
1/2+x,1/2-y,1/2-z
1/2-x,1/2+y,1/2-z
1/2-x,1/2-y,1/2-z
1/2+x,1/2+y,1/2-z
1/2-x,1/2+y,1/2+z
1/2+x,1/2-y,1/2+z
loop_
_atom_site_type_symbol
_atom_site_label
_atom_site_fract_x
_atom_site_fract_y
_atom_site_fract_z
Si Si1 0.535539 0.318471 0.657023
Si Si2 0.834793 0.178442 0.336586
Si Si3 0.592524 0.318906 0.154755
Si Si4 0.278914 0.179929 0.338951
O O1 0.539307 0.254391 0.500000
O O2 0.500000 0.271534 0.717011
O O3 0.538471 0.500000 0.655849
O O4 0.564638 0.245858 0.747751
O O5 0.828409 0.219906 0.500000
O O6 0.871454 0.222265 0.292357
O O7 0.812468 0.275437 0.233889
O O8 0.827938 0.000000 0.312849
O O9 0.589094 0.500000 0.149227
O O10 0.587242 0.250354 0.000000
O O11 0.278075 0.240350 0.500000
O O12 0.250000 0.250000 0.250000
O O13 0.274921 0.000000 0.337185
#
# Coordination Sequence:
#
# PCOD8292573 Si02
#       4
#    16  16  16  16
#     4   8  13  20  30  48  78 116 156 195 233 275
#     4   9  18  33  52  74 100 129 163 202 242 287
#     4   8  14  24  38  58  85 117 153 193 235 278
#     4  11  24  39  55  77 102 127 159 197 236 283
#
# _framework density 18.5913
#
# number of rings (size 3 to 8) (size 9 to 14) (size 15 to 20)
#    0.000    3.000    0.000    3.750    0.000    7.000 
#    0.000    5.000    0.000    0.000    0.000    0.000 
#    0.000    1.000    0.000   11.000    0.000   18.000 
#
# Total GULP energy -396587.226058 kJ/mol
# GULP energy per Si atom -12393.350814 kJ/mol
# Density = 1.854899 g / cm^3
# Si number density = 18.591300 Si / 1000 Ang^3
#
#
#
# Elastic Constant Matrix: (Units=GPa)
#
#
# Indices 1 2 3 4 5 6 
#
# 1 170.7869 23.7563 94.4067 0.0000 0.0000 0.0000
# 2 23.7563 26.7793 26.8898 0.0000 0.0000 0.0000
# 3 94.4067 26.8898 121.6867 0.0000 0.0000 0.0000
# 4 0.0000 0.0000 0.0000 17.9874 0.0000 0.0000
# 5 0.0000 0.0000 0.0000 0.0000 42.4761 0.0000
# 6 0.0000 0.0000 0.0000 0.0000 0.0000 15.6248
#
#
#
# Elastic Compliance Matrix: (Units=1/GPa)
#
#
# Indices 1 2 3 4 5 6 
#
# 1 0.010294 -0.001430 -0.007670 0.000000 0.000000 0.000000
# 2 -0.001430 0.048190 -0.009539 0.000000 0.000000 0.000000
# 3 -0.007670 -0.009539 0.016277 0.000000 0.000000 0.000000
# 4 0.000000 0.000000 0.000000 0.055594 0.000000 0.000000
# 5 0.000000 0.000000 0.000000 0.000000 0.023543 0.000000
# 6 0.000000 0.000000 0.000000 0.000000 0.000000 0.064001
#
#
# Mechanical properties :
#
#
# Convention : Reuss Voigt Hill
#
# Bulk Modulus (GPa) = 26.68022 67.70649 47.19336
# Shear Modulus (GPa) = 18.67962 26.83100 22.75531
#
# Velocity S-wave (km/s) = 3.17322 3.80307 3.50233
# Velocity P-wave (km/s) = 5.27331 7.46873 6.46489
#
# Compressibility (1/GPa) = 0.03748095
#
# Stress axis : x y z
#
# Youngs Moduli (GPa) = 97.14243 20.75135 61.43795
#
# Poissons Ratio (x) = 0.02968 0.47125
# Poissons Ratio (y) = 0.13892 0.58607
# Poissons Ratio (z) = 0.74512 0.19795
#
# Static dielectric constant tensor:
#      x y z
#    x 3.776900 0.000000 0.000000 
#    y 0.000000 2.839230 0.000000 
#    z 0.000000 0.000000 3.748750 
# 
# 
# High freq. dielectric constant tensor:
#      x y z
#    x 1.741110 0.000000 0.000000 
#    y 0.000000 1.662070 0.000000 
#    z 0.000000 0.000000 1.721530 
# 
# From -- ./inp_files/29451.got.cif
#   From: 2010.06.25/outbox.cif.g09.slc.cpg/sg71_15_cif.got.tgz:29451.got - 2010.06.28 04:59:45.
