data_PCOD8292252
_publ_section_title
;
Structure prediction by ZEFSAII (Michael W. Deem and Ramdas Pophale) SiO2 
 PCOD8292252
Probable space group: I M M M
;
_chemical_formula_sum "Si O2"
_cell_formula_units_Z 88
_cell_length_a 29.940435
_cell_length_b 9.115879
_cell_length_c 24.046420
_cell_angle_alpha 90.000000
_cell_angle_beta 90.000000
_cell_angle_gamma 90.000000
_cell_volume 6563.070752
_symmetry_space_group_name_H-M "I M M M"
_symmetry_group_IT_number 71
_symmetry_cell_setting 'orthorhombic'
loop_
_space_group_symop_operation_xyz
x,y,z
-x,-y,z
x,-y,-z
-x,y,-z
-x,-y,-z
x,y,-z
-x,y,z
x,-y,z
1/2+x,1/2+y,1/2+z
1/2-x,1/2-y,1/2+z
1/2+x,1/2-y,1/2-z
1/2-x,1/2+y,1/2-z
1/2-x,1/2-y,1/2-z
1/2+x,1/2+y,1/2-z
1/2-x,1/2+y,1/2+z
1/2+x,1/2-y,1/2+z
loop_
_atom_site_type_symbol
_atom_site_label
_atom_site_fract_x
_atom_site_fract_y
_atom_site_fract_z
Si Si1 0.404777 0.326707 0.897570
Si Si2 0.640716 0.825296 0.000000
Si Si3 0.500000 0.671953 0.062792
Si Si4 0.740677 0.826669 0.000000
Si Si5 0.210705 0.669006 0.781018
Si Si6 0.839145 0.332197 0.325299
Si Si7 0.243749 0.172241 0.878741
O O1 0.397980 0.500000 0.904212
O O2 0.381802 0.239245 0.946294
O O3 0.456992 0.282310 0.900610
O O4 0.381046 0.271044 0.841112
O O5 0.690844 0.765565 0.000000
O O6 0.637089 0.000000 0.000000
O O7 0.500000 0.500000 0.053434
O O8 0.500000 0.742793 0.000000
O O9 0.764457 0.775642 0.942690
O O10 0.737897 0.000000 0.000000
O O11 0.223422 0.500000 0.788845
O O12 0.250000 0.750000 0.750000
O O13 0.167257 0.685932 0.741544
O O14 0.206358 0.743582 0.841798
O O15 0.850818 0.500000 0.340286
O O16 0.794096 0.287027 0.358935
O O17 0.235857 0.000000 0.871185
#
# Coordination Sequence:
#
# PCOD8292252 Si02
#       7
#    16   8   8   8  16  16  16
#     4  11  20  30  44  58  71  95 130 162 196 237
#     4  11  19  30  42  53  76 100 124 158 199 237
#     4   9  18  32  42  52  78 102 118 155 206 239
#     4   9  16  27  40  54  77 106 124 149 197 232
#     4   9  17  28  40  54  74  98 121 152 192 225
#     4   9  17  29  42  55  74  98 122 157 199 230
#     4   9  16  27  41  56  76 101 125 151 188 228
#
# _framework density 13.408358
#
# number of rings (size 3 to 8) (size 9 to 14) (size 15 to 20)
#    0.000    2.455    2.727    2.455    0.000    3.636 
#    0.000    2.727    0.000    0.000    0.000    0.000 
#    0.000    0.000    0.000    0.000    0.000    0.909 
#
# Total GULP energy -545156.052968 kJ/mol
# GULP energy per Si atom -12389.910295 kJ/mol
# Density = 1.337784 g / cm^3
# Si number density = 13.408358 Si / 1000 Ang^3
#
#
#
# Elastic Constant Matrix: (Units=GPa)
#
#
# Indices 1 2 3 4 5 6 
#
# 1 48.5261 28.6282 40.7673 0.0000 0.0000 0.0000
# 2 28.6282 60.3535 39.6417 0.0000 0.0000 0.0000
# 3 40.7673 39.6417 109.0679 0.0000 0.0000 0.0000
# 4 0.0000 0.0000 0.0000 24.3348 0.0000 0.0000
# 5 0.0000 0.0000 0.0000 0.0000 28.2850 0.0000
# 6 0.0000 0.0000 0.0000 0.0000 0.0000 15.4740
#
#
#
# Elastic Compliance Matrix: (Units=1/GPa)
#
#
# Indices 1 2 3 4 5 6 
#
# 1 0.034321 -0.010317 -0.009079 0.000000 0.000000 0.000000
# 2 -0.010317 0.024866 -0.005182 0.000000 0.000000 0.000000
# 3 -0.009079 -0.005182 0.014445 0.000000 0.000000 0.000000
# 4 0.000000 0.000000 0.000000 0.041093 0.000000 0.000000
# 5 0.000000 0.000000 0.000000 0.000000 0.035354 0.000000
# 6 0.000000 0.000000 0.000000 0.000000 0.000000 0.064625
#
#
# Mechanical properties :
#
#
# Convention : Reuss Voigt Hill
#
# Bulk Modulus (GPa) = 40.85264 48.44689 44.64977
# Shear Modulus (GPa) = 18.38109 20.87944 19.63027
#
# Velocity S-wave (km/s) = 3.70654 3.95041 3.83042
# Velocity P-wave (km/s) = 6.98943 7.55103 7.27565
#
# Compressibility (1/GPa) = 0.02447822
#
# Stress axis : x y z
#
# Youngs Moduli (GPa) = 29.13663 40.21534 69.22633
#
# Poissons Ratio (x) = 0.41489 0.62849
# Poissons Ratio (y) = 0.30060 0.35870
# Poissons Ratio (z) = 0.26453 0.20838
#
# Static dielectric constant tensor:
#      x y z
#    x 2.867560 0.000000 0.000000 
#    y 0.000000 2.706060 0.000000 
#    z 0.000000 0.000000 2.708750 
# 
# 
# High freq. dielectric constant tensor:
#      x y z
#    x 1.460270 0.000000 0.000000 
#    y 0.000000 1.511560 0.000000 
#    z 0.000000 0.000000 1.506960 
# 
# From -- ./inp_files/62257.got.cif
#   From: 2010.06.25/outbox.cif.g09.slc.cpg/sg71_32_cif.got.tgz:62257.got - 2010.06.28 04:59:45.
