data_PCOD8292543
_publ_section_title
;
Structure prediction by ZEFSAII (Michael W. Deem and Ramdas Pophale) SiO2 
 PCOD8292543
Probable space group: I M M M
;
_chemical_formula_sum "Si O2"
_cell_formula_units_Z 72
_cell_length_a 8.905817
_cell_length_b 21.545618
_cell_length_c 19.122095
_cell_angle_alpha 90.000000
_cell_angle_beta 90.000000
_cell_angle_gamma 90.000000
_cell_volume 3669.173041
_symmetry_space_group_name_H-M "I M M M"
_symmetry_group_IT_number 71
_symmetry_cell_setting 'orthorhombic'
loop_
_space_group_symop_operation_xyz
x,y,z
-x,-y,z
x,-y,-z
-x,y,-z
-x,-y,-z
x,y,-z
-x,y,z
x,-y,z
1/2+x,1/2+y,1/2+z
1/2-x,1/2-y,1/2+z
1/2+x,1/2-y,1/2-z
1/2-x,1/2+y,1/2-z
1/2-x,1/2-y,1/2-z
1/2+x,1/2+y,1/2-z
1/2-x,1/2+y,1/2+z
1/2+x,1/2-y,1/2+z
loop_
_atom_site_type_symbol
_atom_site_label
_atom_site_fract_x
_atom_site_fract_y
_atom_site_fract_z
Si Si1 0.326661 0.000000 0.582388
Si Si2 0.326879 0.636379 0.419918
Si Si3 0.325893 0.927732 0.795901
Si Si4 0.176462 0.886455 0.659548
Si Si5 0.672619 0.220430 0.419371
O O1 0.252678 0.061228 0.612791
O O2 0.500000 0.000000 0.604553
O O3 0.304524 0.000000 0.500000
O O4 0.283552 0.622990 0.500000
O O5 0.500000 0.619588 0.406456
O O6 0.222783 0.593070 0.372921
O O7 0.297206 0.708032 0.401489
O O8 0.500000 0.913079 0.785183
O O9 0.231334 0.889538 0.739251
O O10 0.291040 0.000000 0.785933
O O11 0.218695 0.819402 0.629356
O O12 0.000000 0.896009 0.657121
O O13 0.710692 0.206666 0.500000
O O14 0.500000 0.202750 0.404161
#
# Coordination Sequence:
#
# PCOD8292543 Si02
#       5
#     8  16  16  16  16
#     4  11  23  39  59  83 116 159 200 239 289 349
#     4   9  20  40  65  91 118 151 194 244 298 355
#     4  11  24  41  61  84 117 159 200 245 297 354
#     4  12  24  37  58  87 119 156 198 246 294 343
#     4   9  19  38  62  87 119 158 196 238 293 356
#
# _framework density 19.622949999999999
#
# number of rings (size 3 to 8) (size 9 to 14) (size 15 to 20)
#    0.000    1.667    1.111    5.000    0.000    8.000 
#    0.000    4.444    0.000    0.000    0.000    0.000 
#    0.000    0.000    0.000    0.000    0.000    0.000 
#
# Total GULP energy -446609.926433 kJ/mol
# GULP energy per Si atom -12405.831290 kJ/mol
# Density = 1.957829 g / cm^3
# Si number density = 19.622950 Si / 1000 Ang^3
#
#
#
# Elastic Constant Matrix: (Units=GPa)
#
#
# Indices 1 2 3 4 5 6 
#
# 1 115.4660 41.0942 64.0675 0.0000 0.0000 0.0000
# 2 41.0942 32.6475 29.7090 0.0000 0.0000 0.0000
# 3 64.0675 29.7090 98.9378 0.0000 0.0000 0.0000
# 4 0.0000 0.0000 0.0000 36.6347 0.0000 0.0000
# 5 0.0000 0.0000 0.0000 0.0000 36.1171 0.0000
# 6 0.0000 0.0000 0.0000 0.0000 0.0000 32.1255
#
#
#
# Elastic Compliance Matrix: (Units=1/GPa)
#
#
# Indices 1 2 3 4 5 6 
#
# 1 0.018572 -0.017107 -0.006889 0.000000 0.000000 0.000000
# 2 -0.017107 0.057906 -0.006310 0.000000 0.000000 0.000000
# 3 -0.006889 -0.006310 0.016463 0.000000 0.000000 0.000000
# 4 0.000000 0.000000 0.000000 0.027297 0.000000 0.000000
# 5 0.000000 0.000000 0.000000 0.000000 0.027688 0.000000
# 6 0.000000 0.000000 0.000000 0.000000 0.000000 0.031128
#
#
# Mechanical properties :
#
#
# Convention : Reuss Voigt Hill
#
# Bulk Modulus (GPa) = 30.93334 57.42141 44.17737
# Shear Modulus (GPa) = 19.96475 28.45418 24.20946
#
# Velocity S-wave (km/s) = 3.19316 3.81208 3.51626
# Velocity P-wave (km/s) = 5.42154 6.97867 6.24880
#
# Compressibility (1/GPa) = 0.03232758
#
# Stress axis : x y z
#
# Youngs Moduli (GPa) = 53.84584 17.26941 60.74183
#
# Poissons Ratio (x) = 0.29544 0.41845
# Poissons Ratio (y) = 0.92117 0.38328
# Poissons Ratio (z) = 0.37095 0.10897
#
# Static dielectric constant tensor:
#      x y z
#    x 3.528640 0.000000 0.000000 
#    y 0.000000 3.533120 0.000000 
#    z 0.000000 0.000000 3.603780 
# 
# 
# High freq. dielectric constant tensor:
#      x y z
#    x 1.765140 0.000000 0.000000 
#    y 0.000000 1.766180 0.000000 
#    z 0.000000 0.000000 1.773210 
# 
# From -- ./inp_files/42066.got.cif
#   From: 2010.06.25/outbox.cif.g09.slc.cpg/sg71_22_cif.got.tgz:42066.got - 2010.06.28 04:59:45.
