data_PCOD8292071
_publ_section_title
;
Structure prediction by ZEFSAII (Michael W. Deem and Ramdas Pophale) SiO2 
 PCOD8292071
Probable space group: I M M M
;
_chemical_formula_sum "Si O2"
_cell_formula_units_Z 96
_cell_length_a 18.766545
_cell_length_b 28.357280
_cell_length_c 9.289863
_cell_angle_alpha 90.000000
_cell_angle_beta 90.000000
_cell_angle_gamma 90.000000
_cell_volume 4943.769403
_symmetry_space_group_name_H-M "I M M M"
_symmetry_group_IT_number 71
_symmetry_cell_setting 'orthorhombic'
loop_
_space_group_symop_operation_xyz
x,y,z
-x,-y,z
x,-y,-z
-x,y,-z
-x,-y,-z
x,y,-z
-x,y,z
x,-y,z
1/2+x,1/2+y,1/2+z
1/2-x,1/2-y,1/2+z
1/2+x,1/2-y,1/2-z
1/2-x,1/2+y,1/2-z
1/2-x,1/2-y,1/2-z
1/2+x,1/2+y,1/2-z
1/2-x,1/2+y,1/2+z
1/2+x,1/2-y,1/2+z
loop_
_atom_site_type_symbol
_atom_site_label
_atom_site_fract_x
_atom_site_fract_y
_atom_site_fract_z
Si Si1 0.415631 0.705310 0.838772
Si Si2 0.173590 0.387362 0.833493
Si Si3 0.917256 0.551453 0.655792
Si Si4 0.417939 0.797521 0.331551
Si Si5 0.710818 0.446415 0.332461
Si Si6 0.919119 0.115344 0.834316
O O1 0.500000 0.703378 0.842975
O O2 0.391452 0.751679 0.753726
O O3 0.387609 0.658615 0.758770
O O4 0.383462 0.706623 0.000000
O O5 0.107657 0.420611 0.794921
O O6 0.142791 0.335892 0.792323
O O7 0.240289 0.406687 0.742811
O O8 0.193475 0.390754 0.000000
O O9 0.897914 0.575241 0.500000
O O10 0.880482 0.500000 0.659272
O O11 0.000000 0.545315 0.670184
O O12 0.416856 0.786196 0.500000
O O13 0.500000 0.812204 0.287688
O O14 0.730383 0.445643 0.500000
O O15 0.719780 0.500000 0.271481
O O16 0.629104 0.430725 0.306829
O O17 0.000000 0.102370 0.789360
O O18 0.916080 0.131420 0.000000
#
# Coordination Sequence:
#
# PCOD8292071 Si02
#       6
#    16  16  16  16  16  16
#     4   9  17  30  52  83 113 138 168 210 261 316
#     4  11  22  34  50  74 105 142 182 222 265 312
#     4   9  18  32  49  69  95 131 176 224 271 316
#     4   9  18  33  52  75 106 143 182 222 260 300
#     4  10  22  39  57  78 106 140 177 218 266 321
#     4   9  18  35  60  85 107 134 169 212 265 323
#
# _framework density 19.418381
#
# number of rings (size 3 to 8) (size 9 to 14) (size 15 to 20)
#    0.000    2.500    0.000    2.500    0.000    8.000 
#    0.000    5.000    0.000    0.000    0.000    3.500 
#    0.000    0.000    0.000    0.000    0.000    0.000 
#
# Total GULP energy -594727.633063 kJ/mol
# GULP energy per Si atom -12390.159022 kJ/mol
# Density = 1.937418 g / cm^3
# Si number density = 19.418381 Si / 1000 Ang^3
#
#
#
# Elastic Constant Matrix: (Units=GPa)
#
#
# Indices 1 2 3 4 5 6 
#
# 1 76.1593 56.3613 36.2625 0.0000 0.0000 0.0000
# 2 56.3613 107.3892 47.8644 0.0000 0.0000 0.0000
# 3 36.2625 47.8644 63.4287 0.0001 0.0000 0.0001
# 4 0.0000 0.0000 0.0001 29.5507 0.0000 0.0000
# 5 0.0000 0.0000 0.0000 0.0000 23.5715 0.0000
# 6 0.0000 0.0000 0.0001 0.0000 0.0000 41.0860
#
#
#
# Elastic Compliance Matrix: (Units=1/GPa)
#
#
# Indices 1 2 3 4 5 6 
#
# 1 0.022920 -0.009325 -0.006066 0.000000 0.000000 0.000000
# 2 -0.009325 0.017825 -0.008120 0.000000 0.000000 0.000000
# 3 -0.006066 -0.008120 0.025361 0.000000 0.000000 0.000000
# 4 0.000000 0.000000 0.000000 0.033840 0.000000 0.000000
# 5 0.000000 0.000000 0.000000 0.000000 0.042424 0.000000
# 6 0.000000 0.000000 0.000000 0.000000 0.000000 0.024339
#
#
# Mechanical properties :
#
#
# Convention : Reuss Voigt Hill
#
# Bulk Modulus (GPa) = 52.40185 58.66154 55.53169
# Shear Modulus (GPa) = 22.71750 25.94089 24.32919
#
# Velocity S-wave (km/s) = 3.42409 3.65895 3.54347
# Velocity P-wave (km/s) = 6.53275 6.93725 6.73803
#
# Compressibility (1/GPa) = 0.01908330
#
# Stress axis : x y z
#
# Youngs Moduli (GPa) = 43.63005 56.10009 39.42995
#
# Poissons Ratio (x) = 0.52315 0.23920
# Poissons Ratio (y) = 0.40686 0.32017
# Poissons Ratio (z) = 0.26468 0.45553
#
# Static dielectric constant tensor:
#      x y z
#    x 3.420370 0.000000 0.000000 
#    y 0.000000 3.632810 0.000000 
#    z 0.000000 0.000000 3.620700 
# 
# 
# High freq. dielectric constant tensor:
#      x y z
#    x 1.741640 0.000000 0.000000 
#    y 0.000000 1.751780 0.000000 
#    z 0.000000 0.000000 1.750060 
# 
# From -- ./inp_files/10973.got.cif
#   From: 2010.06.25/outbox.cif.g09.slc.cpg/sg71_6_cif.got.tgz:10973.got - 2010.06.28 04:59:45.
