data_PCOD8292120
_publ_section_title
;
Structure prediction by ZEFSAII (Michael W. Deem and Ramdas Pophale) SiO2 
 PCOD8292120
Probable space group: I M M M
;
_chemical_formula_sum "Si O2"
_cell_formula_units_Z 90
_cell_length_a 11.596568
_cell_length_b 20.781493
_cell_length_c 19.135219
_cell_angle_alpha 90.000000
_cell_angle_beta 90.000000
_cell_angle_gamma 90.000000
_cell_volume 4611.472905
_symmetry_space_group_name_H-M "I M M M"
_symmetry_group_IT_number 71
_symmetry_cell_setting 'orthorhombic'
loop_
_space_group_symop_operation_xyz
x,y,z
-x,-y,z
x,-y,-z
-x,y,-z
-x,-y,-z
x,y,-z
-x,y,z
x,-y,z
1/2+x,1/2+y,1/2+z
1/2-x,1/2-y,1/2+z
1/2+x,1/2-y,1/2-z
1/2-x,1/2+y,1/2-z
1/2-x,1/2-y,1/2-z
1/2+x,1/2+y,1/2-z
1/2-x,1/2+y,1/2+z
1/2+x,1/2-y,1/2+z
loop_
_atom_site_type_symbol
_atom_site_label
_atom_site_fract_x
_atom_site_fract_y
_atom_site_fract_z
Si Si1 0.636822 0.500000 0.421839
Si Si2 0.000000 0.500000 0.500000
Si Si3 0.866941 0.849912 0.418482
Si Si4 0.748051 0.074928 0.697709
Si Si5 0.284449 0.209686 0.078061
Si Si6 0.500000 0.073646 0.748903
Si Si7 0.136568 0.877600 0.165850
Si Si8 0.000000 0.620769 0.401540
O O1 0.500000 0.500000 0.427876
O O2 0.692869 0.500000 0.500000
O O3 0.681193 0.562636 0.381353
O O4 0.000000 0.552158 0.437860
O O5 0.845800 0.861884 0.500000
O O6 0.791099 0.902025 0.377568
O O7 0.829250 0.778557 0.395885
O O8 0.000000 0.859553 0.398645
O O9 0.612014 0.089177 0.702325
O O10 0.815317 0.114926 0.756644
O O11 0.777136 0.000000 0.707217
O O12 0.184287 0.187259 0.130932
O O13 0.387929 0.159578 0.075669
O O14 0.231815 0.214773 0.000000
O O15 0.500000 0.116534 0.817805
O O16 0.500000 0.000000 0.772783
O O17 0.000000 0.874336 0.168697
#
# Coordination Sequence:
#
# PCOD8292120 Si02
#       8
#     8   2  16  16  16   8  16   8
#     4   9  18  33  51  77 120 167 204 239 290 350
#     4  12  24  28  68 104 126 164 228 248 296 370
#     4  10  23  44  69  93 119 157 205 259 324 374
#     4  11  23  42  67  92 124 158 202 261 316 378
#     4  11  22  39  61  86 128 171 209 258 306 364
#     4  10  22  40  61  90 130 161 198 253 317 362
#     4  11  22  36  57  89 126 167 207 249 304 363
#     4  12  20  38  58  93 127 167 214 258 295 356
#
# _framework density 19.516542000000001
#
# number of rings (size 3 to 8) (size 9 to 14) (size 15 to 20)
#    0.000    1.333    4.889    1.067    0.000    3.911 
#    3.200    1.333    0.000    1.600    0.000    0.000 
#    0.000    0.000    0.000    0.000    0.000    0.000 
#
# Total GULP energy -557704.146042 kJ/mol
# GULP energy per Si atom -12393.425468 kJ/mol
# Density = 1.947212 g / cm^3
# Si number density = 19.516542 Si / 1000 Ang^3
#
#
#
# Elastic Constant Matrix: (Units=GPa)
#
#
# Indices 1 2 3 4 5 6 
#
# 1 113.0037 38.2033 52.9816 0.0000 0.0000 0.0000
# 2 38.2033 57.8846 42.1087 0.0000 0.0000 0.0000
# 3 52.9816 42.1087 101.4433 0.0000 0.0000 0.0000
# 4 0.0000 0.0000 0.0000 32.9882 0.0000 0.0000
# 5 0.0000 0.0000 0.0000 0.0000 39.7313 0.0000
# 6 0.0000 0.0000 0.0000 0.0000 0.0000 3.4769
#
#
#
# Elastic Compliance Matrix: (Units=1/GPa)
#
#
# Indices 1 2 3 4 5 6 
#
# 1 0.012686 -0.005090 -0.004513 0.000000 0.000000 0.000000
# 2 -0.005090 0.026791 -0.008463 0.000000 0.000000 0.000000
# 3 -0.004513 -0.008463 0.015727 0.000000 0.000000 0.000000
# 4 0.000000 0.000000 0.000000 0.030314 0.000000 0.000000
# 5 0.000000 0.000000 0.000000 0.000000 0.025169 0.000000
# 6 0.000000 0.000000 0.000000 0.000000 0.000000 0.287615
#
#
# Mechanical properties :
#
#
# Convention : Reuss Voigt Hill
#
# Bulk Modulus (GPa) = 52.42699 59.87986 56.15343
# Shear Modulus (GPa) = 11.34325 24.50847 17.92586
#
# Velocity S-wave (km/s) = 2.41345 3.54754 3.03396
# Velocity P-wave (km/s) = 5.88961 6.89408 6.41154
#
# Compressibility (1/GPa) = 0.01907414
#
# Stress axis : x y z
#
# Youngs Moduli (GPa) = 78.82873 37.32587 63.58290
#
# Poissons Ratio (x) = 0.18997 0.28694
# Poissons Ratio (y) = 0.40120 0.53808
# Poissons Ratio (z) = 0.35574 0.31588
#
# Static dielectric constant tensor:
#      x y z
#    x 2.467920 0.000000 0.000000 
#    y 0.000000 3.494290 0.000000 
#    z 0.000000 0.000000 3.523600 
# 
# 
# High freq. dielectric constant tensor:
#      x y z
#    x 1.755150 0.000000 0.000000 
#    y 0.000000 1.754440 0.000000 
#    z 0.000000 0.000000 1.762800 
# 
# From -- ./inp_files/43405.got.cif
#   From: 2010.06.25/outbox.cif.g09.slc.cpg/sg71_22_cif.got.tgz:43405.got - 2010.06.28 04:59:45.
