data_PCOD8292984
_publ_section_title
;
Structure prediction by ZEFSAII (Michael W. Deem and Ramdas Pophale) SiO2 
 PCOD8292984
Probable space group: I B A M
;
_chemical_formula_sum "Si O2"
_cell_formula_units_Z 88
_cell_length_a 20.341980
_cell_length_b 27.880834
_cell_length_c 9.339253
_cell_angle_alpha 90.000000
_cell_angle_beta 90.000000
_cell_angle_gamma 90.000000
_cell_volume 5296.770111
_symmetry_space_group_name_H-M "I B A M"
_symmetry_group_IT_number 72
_symmetry_cell_setting 'orthorhombic'
loop_
_space_group_symop_operation_xyz
x,y,z
-x,-y,z
x,-y,1/2-z
-x,y,1/2-z
-x,-y,-z
x,y,-z
-x,y,1/2+z
x,-y,1/2+z
1/2+x,1/2+y,1/2+z
1/2-x,1/2-y,1/2+z
1/2+x,1/2-y,-z
1/2-x,1/2+y,-z
1/2-x,1/2-y,1/2-z
1/2+x,1/2+y,1/2-z
1/2-x,1/2+y,z
1/2+x,1/2-y,z
loop_
_atom_site_type_symbol
_atom_site_label
_atom_site_fract_x
_atom_site_fract_y
_atom_site_fract_z
Si Si1 0.701512 0.627840 0.839668
Si Si2 0.074633 0.183427 0.652358
Si Si3 0.869435 0.048533 0.335625
Si Si4 0.792334 0.710151 0.831605
Si Si5 0.500000 0.402708 0.750000
Si Si6 0.560585 0.228259 0.832607
O O1 0.651139 0.672050 0.834168
O O2 0.682049 0.587165 0.726516
O O3 0.768946 0.655430 0.799047
O O4 0.704775 0.605363 0.000000
O O5 0.061730 0.210658 0.500000
O O6 0.054874 0.215169 0.789863
O O7 0.037364 0.132360 0.640602
O O8 0.850999 0.039835 0.500000
O O9 0.945605 0.064562 0.327305
O O10 0.859284 0.000000 0.250000
O O11 0.750000 0.750000 0.750000
O O12 0.868399 0.710132 0.779950
O O13 0.787905 0.722145 0.000000
O O14 0.500000 0.201525 0.750000
O O15 0.550929 0.221369 0.000000
#
# Coordination Sequence:
#
# PCOD8292984 Si02
#       6
#    16  16  16  16   8  16
#     4   9  19  35  52  71  95 124 163 212 259 300
#     4  10  18  29  46  67  94 127 167 211 254 293
#     4  11  23  37  53  73  97 130 171 216 263 309
#     4  10  20  34  52  75 100 132 172 216 259 307
#     4  10  21  32  48  68  98 130 178 214 255 294
#     4  11  22  32  46  69 102 137 173 210 253 303
#
# _framework density 16.613897999999999
#
# number of rings (size 3 to 8) (size 9 to 14) (size 15 to 20)
#    0.000    1.818    2.727    1.909    0.000    7.273 
#    0.000    0.000    0.000    0.000    0.000    0.000 
#    0.000    0.727    0.000    8.364    0.000    2.545 
#
# Total GULP energy -545191.278056 kJ/mol
# GULP energy per Si atom -12390.710865 kJ/mol
# Density = 1.657608 g / cm^3
# Si number density = 16.613898 Si / 1000 Ang^3
#
#
#
# Elastic Constant Matrix: (Units=GPa)
#
#
# Indices 1 2 3 4 5 6 
#
# 1 120.5626 42.5200 46.4490 0.0000 0.0000 0.0000
# 2 42.5200 65.8744 35.5328 0.0000 0.0000 0.0000
# 3 46.4490 35.5328 102.8101 0.0000 0.0000 0.0000
# 4 0.0000 0.0000 0.0000 20.9040 0.0000 0.0000
# 5 0.0000 0.0000 0.0000 0.0000 21.1298 0.0000
# 6 0.0000 0.0000 0.0000 0.0000 0.0000 17.4492
#
#
#
# Elastic Compliance Matrix: (Units=1/GPa)
#
#
# Indices 1 2 3 4 5 6 
#
# 1 0.011560 -0.005709 -0.003250 0.000000 0.000000 0.000000
# 2 -0.005709 0.021478 -0.004844 0.000000 0.000000 0.000000
# 3 -0.003250 -0.004844 0.012869 0.000000 0.000000 0.000000
# 4 0.000000 0.000000 0.000000 0.047838 0.000000 0.000000
# 5 0.000000 0.000000 0.000000 0.000000 0.047327 0.000000
# 6 0.000000 0.000000 0.000000 0.000000 0.000000 0.057309
#
#
# Mechanical properties :
#
#
# Convention : Reuss Voigt Hill
#
# Bulk Modulus (GPa) = 54.63817 59.80564 57.22191
# Shear Modulus (GPa) = 21.54376 22.87960 22.21168
#
# Velocity S-wave (km/s) = 3.60492 3.71500 3.66038
# Velocity P-wave (km/s) = 7.09124 7.38087 7.23750
#
# Compressibility (1/GPa) = 0.01830222
#
# Stress axis : x y z
#
# Youngs Moduli (GPa) = 86.50716 46.55919 77.70601
#
# Poissons Ratio (x) = 0.26579 0.25252
# Poissons Ratio (y) = 0.49384 0.37641
# Poissons Ratio (z) = 0.28112 0.22553
#
# Static dielectric constant tensor:
#      x y z
#    x 3.435550 0.000000 0.000000 
#    y 0.000000 2.815580 0.000000 
#    z 0.000000 0.000000 3.108020 
# 
# 
# High freq. dielectric constant tensor:
#      x y z
#    x 1.638610 0.000000 0.000000 
#    y 0.000000 1.595920 0.000000 
#    z 0.000000 0.000000 1.647040 
# 
# From -- ./inp_files/6280.got.cif
#   From: 2010.03.12/outbox.cif.g09.slc.cpg/sg72_4_cif.got.tgz:6280.got - 2010.04.16 14:54:00.
