data_PCOD8292256
_publ_section_title
;
Structure prediction by ZEFSAII (Michael W. Deem and Ramdas Pophale) SiO2 
 PCOD8292256
Probable space group: I M M M
;
_chemical_formula_sum "Si O2"
_cell_formula_units_Z 80
_cell_length_a 24.565126
_cell_length_b 10.046222
_cell_length_c 22.759705
_cell_angle_alpha 90.000000
_cell_angle_beta 90.000000
_cell_angle_gamma 90.000000
_cell_volume 5616.792701
_symmetry_space_group_name_H-M "I M M M"
_symmetry_group_IT_number 71
_symmetry_cell_setting 'orthorhombic'
loop_
_space_group_symop_operation_xyz
x,y,z
-x,-y,z
x,-y,-z
-x,y,-z
-x,-y,-z
x,y,-z
-x,y,z
x,-y,z
1/2+x,1/2+y,1/2+z
1/2-x,1/2-y,1/2+z
1/2+x,1/2-y,1/2-z
1/2-x,1/2+y,1/2-z
1/2-x,1/2-y,1/2-z
1/2+x,1/2+y,1/2-z
1/2-x,1/2+y,1/2+z
1/2+x,1/2-y,1/2+z
loop_
_atom_site_type_symbol
_atom_site_label
_atom_site_fract_x
_atom_site_fract_y
_atom_site_fract_z
Si Si1 0.940313 0.500000 0.931057
Si Si2 0.827912 0.651041 0.768512
Si Si3 0.207595 0.852174 0.320883
Si Si4 0.374456 0.754972 0.614387
Si Si5 0.935380 0.000000 0.069510
Si Si6 0.765379 0.653915 0.933854
O O1 0.909398 0.628990 0.911885
O O2 0.000000 0.500000 0.902026
O O3 0.945380 0.500000 0.000000
O O4 0.847622 0.500000 0.754745
O O5 0.830407 0.741089 0.709516
O O6 0.767135 0.647432 0.792649
O O7 0.866951 0.721341 0.816006
O O8 0.214796 0.817009 0.390073
O O9 0.181708 0.000000 0.313079
O O10 0.407660 0.622762 0.601950
O O11 0.316060 0.751278 0.581849
O O12 0.000000 0.000000 0.080779
O O13 0.922868 0.000000 0.000000
O O14 0.784379 0.500000 0.925962
O O15 0.745559 0.682992 0.000000
#
# Coordination Sequence:
#
# PCOD8292256 Si02
#       6
#     8  16  16  16   8  16
#     4  11  20  30  46  61  74  98 135 176 215 251
#     4   9  16  28  42  60  79  98 132 172 202 236
#     4   8  15  25  40  60  81 106 129 159 204 241
#     4  11  19  31  45  60  76 104 140 176 210 246
#     4  11  24  36  42  55  82 108 133 174 225 261
#     4   9  15  26  44  64  84 106 139 175 200 233
#
# _framework density 14.243004000000001
#
# number of rings (size 3 to 8) (size 9 to 14) (size 15 to 20)
#    0.000    2.400    2.000    3.600    1.400    1.600 
#    5.400    0.000    0.000    0.000    0.000    0.000 
#    0.000    0.000    0.000    0.000    0.000    6.000 
#
# Total GULP energy -495790.230679 kJ/mol
# GULP energy per Si atom -12394.755767 kJ/mol
# Density = 1.421059 g / cm^3
# Si number density = 14.243004 Si / 1000 Ang^3
#
#
#
# Elastic Constant Matrix: (Units=GPa)
#
#
# Indices 1 2 3 4 5 6 
#
# 1 31.2487 32.9519 32.9758 0.0000 0.0000 0.0000
# 2 32.9519 114.1845 54.7090 0.0000 0.0000 0.0000
# 3 32.9758 54.7090 108.1084 0.0000 0.0000 0.0000
# 4 0.0000 0.0000 0.0000 24.2500 0.0000 0.0000
# 5 0.0000 0.0000 0.0000 0.0000 47.8680 0.0000
# 6 0.0000 0.0000 0.0000 0.0000 0.0000 31.6237
#
#
#
# Elastic Compliance Matrix: (Units=1/GPa)
#
#
# Indices 1 2 3 4 5 6 
#
# 1 0.055151 -0.010370 -0.011575 0.000000 0.000000 0.000000
# 2 -0.010370 0.013511 -0.003674 0.000000 0.000000 0.000000
# 3 -0.011575 -0.003674 0.014640 0.000000 0.000000 0.000000
# 4 0.000000 0.000000 0.000000 0.041237 0.000000 0.000000
# 5 0.000000 0.000000 0.000000 0.000000 0.020891 0.000000
# 6 0.000000 0.000000 0.000000 0.000000 0.000000 0.031622
#
#
# Mechanical properties :
#
#
# Convention : Reuss Voigt Hill
#
# Bulk Modulus (GPa) = 31.18759 54.97943 43.08351
# Shear Modulus (GPa) = 20.92257 29.60867 25.26562
#
# Velocity S-wave (km/s) = 3.83688 4.56436 4.21633
# Velocity P-wave (km/s) = 6.44772 8.15246 7.34968
#
# Compressibility (1/GPa) = 0.03206403
#
# Stress axis : x y z
#
# Youngs Moduli (GPa) = 18.13212 74.01523 68.30690
#
# Poissons Ratio (x) = 0.76754 0.79062
# Poissons Ratio (y) = 0.18803 0.25097
# Poissons Ratio (z) = 0.20987 0.27194
#
# Static dielectric constant tensor:
#      x y z
#    x 2.548220 0.000000 0.000000 
#    y 0.000000 2.841160 0.000000 
#    z 0.000000 0.000000 3.003560 
# 
# 
# High freq. dielectric constant tensor:
#      x y z
#    x 1.489810 0.000000 0.000000 
#    y 0.000000 1.549880 0.000000 
#    z 0.000000 0.000000 1.540300 
# 
# From -- ./inp_files/12745.got.cif
#   From: 2010.06.25/outbox.cif.g09.slc.cpg/sg71_7_cif.got.tgz:12745.got - 2010.06.28 04:59:45.
