data_PCOD8292597
_publ_section_title
;
Structure prediction by ZEFSAII (Michael W. Deem and Ramdas Pophale) SiO2 
 PCOD8292597
Probable space group: I M M M
;
_chemical_formula_sum "Si O2"
_cell_formula_units_Z 64
_cell_length_a 9.346995
_cell_length_b 17.656263
_cell_length_c 22.902950
_cell_angle_alpha 90.000000
_cell_angle_beta 90.000000
_cell_angle_gamma 90.000000
_cell_volume 3779.742593
_symmetry_space_group_name_H-M "I M M M"
_symmetry_group_IT_number 71
_symmetry_cell_setting 'orthorhombic'
loop_
_space_group_symop_operation_xyz
x,y,z
-x,-y,z
x,-y,-z
-x,y,-z
-x,-y,-z
x,y,-z
-x,y,z
x,-y,z
1/2+x,1/2+y,1/2+z
1/2-x,1/2-y,1/2+z
1/2+x,1/2-y,1/2-z
1/2-x,1/2+y,1/2-z
1/2-x,1/2-y,1/2-z
1/2+x,1/2+y,1/2-z
1/2-x,1/2+y,1/2+z
1/2+x,1/2-y,1/2+z
loop_
_atom_site_type_symbol
_atom_site_label
_atom_site_fract_x
_atom_site_fract_y
_atom_site_fract_z
Si Si1 0.160624 0.000000 0.248213
Si Si2 0.667938 0.201620 0.064956
Si Si3 0.829793 0.500000 0.864248
Si Si4 0.336045 0.374112 0.068106
Si Si5 0.660740 0.583309 0.636226
O O1 0.179359 0.925607 0.206631
O O2 0.280745 0.000000 0.297274
O O3 0.000000 0.000000 0.275434
O O4 0.500000 0.189679 0.065023
O O5 0.705093 0.287612 0.082225
O O6 0.732330 0.145525 0.112313
O O7 0.728112 0.183943 0.000000
O O8 0.770873 0.425385 0.895343
O O9 0.000000 0.500000 0.867151
O O10 0.500000 0.391014 0.086259
O O11 0.315700 0.391767 0.000000
O O12 0.500000 0.609665 0.621440
O O13 0.689671 0.500000 0.607489
#
# Coordination Sequence:
#
# PCOD8292597 Si02
#       5
#     8  16   8  16  16
#     4   8  18  37  54  69  96 136 175 206 241 296
#     4   9  18  32  51  77 105 133 167 204 244 294
#     4  12  23  33  52  80 101 124 165 213 259 298
#     4   9  19  36  55  74 101 137 169 197 241 303
#     4   8  17  33  52  73 100 134 170 207 246 291
#
# _framework density 16.932369999999999
#
# number of rings (size 3 to 8) (size 9 to 14) (size 15 to 20)
#    0.750    2.250    0.000    3.000    0.000    5.500 
#    0.000    6.250    0.000    0.000    0.000    0.000 
#    0.000    0.000    0.000    0.000    0.000    0.000 
#
# Total GULP energy -396545.634986 kJ/mol
# GULP energy per Si atom -12392.051093 kJ/mol
# Density = 1.689383 g / cm^3
# Si number density = 16.932370 Si / 1000 Ang^3
#
#
#
# Elastic Constant Matrix: (Units=GPa)
#
#
# Indices 1 2 3 4 5 6 
#
# 1 90.9652 61.8581 53.3528 0.0000 0.0000 0.0000
# 2 61.8581 101.3957 58.8654 0.0000 0.0000 0.0000
# 3 53.3528 58.8654 82.1820 0.0000 0.0000 0.0000
# 4 0.0000 0.0000 0.0000 2.8063 0.0000 0.0000
# 5 0.0000 0.0000 0.0000 0.0000 30.8204 0.0000
# 6 0.0000 0.0000 0.0000 0.0000 0.0000 32.7138
#
#
#
# Elastic Compliance Matrix: (Units=1/GPa)
#
#
# Indices 1 2 3 4 5 6 
#
# 1 0.021326 -0.008512 -0.007748 0.000000 0.000000 0.000000
# 2 -0.008512 0.020281 -0.009000 0.000000 0.000000 0.000000
# 3 -0.007748 -0.009000 0.023645 0.000000 0.000000 0.000000
# 4 0.000000 0.000000 0.000000 0.356336 0.000000 0.000000
# 5 0.000000 0.000000 0.000000 0.000000 0.032446 0.000000
# 6 0.000000 0.000000 0.000000 0.000000 0.000000 0.030568
#
#
# Mechanical properties :
#
#
# Convention : Reuss Voigt Hill
#
# Bulk Modulus (GPa) = 67.88616 69.18838 68.53727
# Shear Modulus (GPa) = 9.25870 19.96587 14.61229
#
# Velocity S-wave (km/s) = 2.34092 3.43761 2.94084
# Velocity P-wave (km/s) = 6.89102 7.53037 7.21778
#
# Compressibility (1/GPa) = 0.01473054
#
# Stress axis : x y z
#
# Youngs Moduli (GPa) = 46.89138 49.30817 42.29276
#
# Poissons Ratio (x) = 0.41973 0.32767
# Poissons Ratio (y) = 0.39915 0.38065
# Poissons Ratio (z) = 0.36330 0.44379
#
# Static dielectric constant tensor:
#      x y z
#    x 2.984710 0.000000 0.000000 
#    y 0.000000 3.082590 0.000000 
#    z 0.000000 0.000000 3.021140 
# 
# 
# High freq. dielectric constant tensor:
#      x y z
#    x 1.646490 0.000000 0.000000 
#    y 0.000000 1.648410 0.000000 
#    z 0.000000 0.000000 1.641310 
# 
# From -- ./inp_files/12274.got.cif
#   From: 2010.06.25/outbox.cif.g09.slc.cpg/sg71_7_cif.got.tgz:12274.got - 2010.06.28 04:59:45.
