data_PCOD8292188
_publ_section_title
;
Structure prediction by ZEFSAII (Michael W. Deem and Ramdas Pophale) SiO2 
 PCOD8292188
Probable space group: I M M M
;
_chemical_formula_sum "Si O2"
_cell_formula_units_Z 96
_cell_length_a 20.588006
_cell_length_b 16.770778
_cell_length_c 13.801629
_cell_angle_alpha 90.000000
_cell_angle_beta 90.000000
_cell_angle_gamma 90.000000
_cell_volume 4765.383374
_symmetry_space_group_name_H-M "I M M M"
_symmetry_group_IT_number 71
_symmetry_cell_setting 'orthorhombic'
loop_
_space_group_symop_operation_xyz
x,y,z
-x,-y,z
x,-y,-z
-x,y,-z
-x,-y,-z
x,y,-z
-x,y,z
x,-y,z
1/2+x,1/2+y,1/2+z
1/2-x,1/2-y,1/2+z
1/2+x,1/2-y,1/2-z
1/2-x,1/2+y,1/2-z
1/2-x,1/2-y,1/2-z
1/2+x,1/2+y,1/2-z
1/2-x,1/2+y,1/2+z
1/2+x,1/2-y,1/2+z
loop_
_atom_site_type_symbol
_atom_site_label
_atom_site_fract_x
_atom_site_fract_y
_atom_site_fract_z
Si Si1 0.189247 0.588636 0.614367
Si Si2 0.573670 0.642705 0.762110
Si Si3 0.876247 0.000000 0.615436
Si Si4 0.318787 0.671277 0.610743
Si Si5 0.427432 0.822823 0.208361
Si Si6 0.771287 0.500000 0.115045
Si Si7 0.147302 0.650917 0.110056
O O1 0.192049 0.583628 0.500000
O O2 0.191667 0.500000 0.660294
O O3 0.251344 0.637399 0.653259
O O4 0.122572 0.630963 0.641575
O O5 0.500000 0.631235 0.724082
O O6 0.588838 0.578342 0.844260
O O7 0.621538 0.634316 0.670697
O O8 0.581777 0.729046 0.811347
O O9 0.882181 0.000000 0.500000
O O10 0.802121 0.000000 0.652806
O O11 0.330131 0.644493 0.500000
O O12 0.312800 0.766894 0.618084
O O13 0.500000 0.850716 0.181651
O O14 0.415852 0.842759 0.322030
O O15 0.807554 0.420066 0.151560
O O16 0.771009 0.500000 0.000000
O O17 0.124273 0.634532 0.000000
#
# Coordination Sequence:
#
# PCOD8292188 Si02
#       7
#    16  16   8  16  16   8  16
#     4  10  23  40  59  85 114 148 195 248 295 343
#     4  10  23  40  59  88 120 153 196 237 284 350
#     4  11  25  40  60  87 122 161 194 236 290 345
#     4   9  20  38  63  89 116 152 192 241 299 348
#     4  10  23  39  59  86 115 155 198 238 290 346
#     4   9  20  35  55  88 119 149 192 238 283 340
#     4   9  19  36  58  88 123 152 189 239 293 351
#
# _framework density 20.145284
#
# number of rings (size 3 to 8) (size 9 to 14) (size 15 to 20)
#    0.000    2.333    0.000    0.250    7.000    4.000 
#    0.000    5.833    0.000    2.500    0.000    0.000 
#    0.000    0.000    0.000    0.000    0.000    0.000 
#
# Total GULP energy -595267.547059 kJ/mol
# GULP energy per Si atom -12401.407230 kJ/mol
# Density = 2.009943 g / cm^3
# Si number density = 20.145284 Si / 1000 Ang^3
#
#
#
# Elastic Constant Matrix: (Units=GPa)
#
#
# Indices 1 2 3 4 5 6 
#
# 1 161.6503 75.1730 37.2230 0.0000 0.0000 0.0000
# 2 75.1730 128.3127 44.5292 0.0000 0.0000 0.0000
# 3 37.2230 44.5292 52.4377 0.0000 0.0000 0.0000
# 4 0.0000 0.0000 0.0000 28.0780 0.0000 0.0000
# 5 0.0000 0.0000 0.0000 0.0000 28.1765 0.0000
# 6 0.0000 0.0000 0.0000 0.0000 0.0000 24.1723
#
#
#
# Elastic Compliance Matrix: (Units=1/GPa)
#
#
# Indices 1 2 3 4 5 6 
#
# 1 0.008752 -0.004213 -0.002635 0.000000 0.000000 0.000000
# 2 -0.004213 0.013078 -0.008115 0.000000 0.000000 0.000000
# 3 -0.002635 -0.008115 0.027832 0.000000 0.000000 0.000000
# 4 0.000000 0.000000 0.000000 0.035615 0.000000 0.000000
# 5 0.000000 0.000000 0.000000 0.000000 0.035491 0.000000
# 6 0.000000 0.000000 0.000000 0.000000 0.000000 0.041370
#
#
# Mechanical properties :
#
#
# Convention : Reuss Voigt Hill
#
# Bulk Modulus (GPa) = 50.66936 72.91681 61.79308
# Shear Modulus (GPa) = 25.17095 28.45039 26.81067
#
# Velocity S-wave (km/s) = 3.53862 3.76208 3.65206
# Velocity P-wave (km/s) = 6.47320 7.42597 6.96590
#
# Compressibility (1/GPa) = 0.01973579
#
# Stress axis : x y z
#
# Youngs Moduli (GPa) = 114.25694 76.46510 35.93022
#
# Poissons Ratio (x) = 0.32215 0.09468
# Poissons Ratio (y) = 0.48137 0.29157
# Poissons Ratio (z) = 0.30108 0.62050
#
# Static dielectric constant tensor:
#      x y z
#    x 3.670250 0.000000 0.000000 
#    y 0.000000 3.893070 0.000000 
#    z 0.000000 0.000000 3.562570 
# 
# 
# High freq. dielectric constant tensor:
#      x y z
#    x 1.782370 0.000000 0.000000 
#    y 0.000000 1.796160 0.000000 
#    z 0.000000 0.000000 1.785040 
# 
# From -- ./inp_files/37864.got.cif
#   From: 2010.06.25/outbox.cif.g09.slc.cpg/sg71_19_cif.got.tgz:37864.got - 2010.06.28 04:59:45.
