data_PCOD8292442
_publ_section_title
;
Structure prediction by ZEFSAII (Michael W. Deem and Ramdas Pophale) SiO2 
 PCOD8292442
Probable space group: I M M M
;
_chemical_formula_sum "Si O2"
_cell_formula_units_Z 80
_cell_length_a 8.954387
_cell_length_b 17.013751
_cell_length_c 27.353308
_cell_angle_alpha 90.000000
_cell_angle_beta 90.000000
_cell_angle_gamma 90.000000
_cell_volume 4167.213856
_symmetry_space_group_name_H-M "I M M M"
_symmetry_group_IT_number 71
_symmetry_cell_setting 'orthorhombic'
loop_
_space_group_symop_operation_xyz
x,y,z
-x,-y,z
x,-y,-z
-x,y,-z
-x,-y,-z
x,y,-z
-x,y,z
x,-y,z
1/2+x,1/2+y,1/2+z
1/2-x,1/2-y,1/2+z
1/2+x,1/2-y,1/2-z
1/2-x,1/2+y,1/2-z
1/2-x,1/2-y,1/2-z
1/2+x,1/2+y,1/2-z
1/2-x,1/2+y,1/2+z
1/2+x,1/2-y,1/2+z
loop_
_atom_site_type_symbol
_atom_site_label
_atom_site_fract_x
_atom_site_fract_y
_atom_site_fract_z
Si Si1 0.328903 0.907277 0.794004
Si Si2 0.324346 0.642444 0.611678
Si Si3 0.677041 0.182204 0.593976
Si Si4 0.826556 0.500000 0.442848
Si Si5 0.321768 0.089530 0.500000
Si Si6 0.177839 0.412509 0.185465
O O1 0.500000 0.881258 0.801853
O O2 0.224626 0.861526 0.831911
O O3 0.271699 0.884749 0.739573
O O4 0.313037 0.000000 0.802938
O O5 0.500000 0.628842 0.608365
O O6 0.276392 0.726915 0.590145
O O7 0.243876 0.577755 0.579402
O O8 0.500000 0.173968 0.595186
O O9 0.741334 0.134608 0.547629
O O10 0.743085 0.145379 0.644096
O O11 0.794889 0.500000 0.500000
O O12 0.000000 0.500000 0.429718
O O13 0.500000 0.090666 0.500000
O O14 0.262680 0.000000 0.500000
O O15 0.239137 0.500000 0.174649
O O16 0.000000 0.414654 0.184733
#
# Coordination Sequence:
#
# PCOD8292442 Si02
#       6
#    16  16  16   8   8  16
#     4   9  17  31  52  74 102 144 188 224 256 307
#     4  11  22  34  53  81 113 142 170 217 279 325
#     4   9  18  29  44  74 111 140 176 222 268 319
#     4  11  25  43  61  77  99 139 189 228 259 318
#     4   9  16  28  48  71 103 146 178 211 261 315
#     4   8  14  27  48  72 101 144 188 221 257 308
#
# _framework density 19.197479000000001
#
# number of rings (size 3 to 8) (size 9 to 14) (size 15 to 20)
#    0.000    2.600    1.000    2.700    1.400    4.000 
#    0.000    0.000    0.000    1.200    0.000    0.000 
#    0.000   12.800    0.000    0.000    0.000    0.200 
#
# Total GULP energy -495921.177318 kJ/mol
# GULP energy per Si atom -12398.029433 kJ/mol
# Density = 1.915378 g / cm^3
# Si number density = 19.197479 Si / 1000 Ang^3
#
#
#
# Elastic Constant Matrix: (Units=GPa)
#
#
# Indices 1 2 3 4 5 6 
#
# 1 38.5243 39.4221 50.6384 0.0000 0.0000 0.0000
# 2 39.4221 152.3288 101.0905 0.0000 0.0000 0.0000
# 3 50.6384 101.0905 154.8683 0.0000 0.0000 0.0000
# 4 0.0000 0.0000 0.0000 28.8760 0.0000 0.0000
# 5 0.0000 0.0000 0.0000 0.0000 14.4908 0.0000
# 6 0.0000 0.0000 0.0000 0.0000 0.0000 9.0601
#
#
#
# Elastic Compliance Matrix: (Units=1/GPa)
#
#
# Indices 1 2 3 4 5 6 
#
# 1 0.046518 -0.003431 -0.012971 0.000000 0.000000 0.000000
# 2 -0.003431 0.011835 -0.006603 0.000000 0.000000 0.000000
# 3 -0.012971 -0.006603 0.015009 0.000000 0.000000 0.000000
# 4 0.000000 0.000000 0.000000 0.034631 0.000000 0.000000
# 5 0.000000 0.000000 0.000000 0.000000 0.069009 0.000000
# 6 0.000000 0.000000 0.000000 0.000000 0.000000 0.110374
#
#
# Mechanical properties :
#
#
# Convention : Reuss Voigt Hill
#
# Bulk Modulus (GPa) = 36.56121 80.89147 58.72634
# Shear Modulus (GPa) = 14.59840 20.79007 17.69424
#
# Velocity S-wave (km/s) = 2.76059 3.29440 3.03924
# Velocity P-wave (km/s) = 5.40807 7.52986 6.55538
#
# Compressibility (1/GPa) = 0.02735139
#
# Stress axis : x y z
#
# Youngs Moduli (GPa) = 21.49705 84.49593 66.62807
#
# Poissons Ratio (x) = 0.28989 0.86422
# Poissons Ratio (y) = 0.07375 0.43998
# Poissons Ratio (z) = 0.27884 0.55797
#
# Static dielectric constant tensor:
#      x y z
#    x 2.993040 0.000000 0.000000 
#    y 0.000000 3.569360 0.000000 
#    z 0.000000 0.000000 3.864530 
# 
# 
# High freq. dielectric constant tensor:
#      x y z
#    x 1.690270 0.000000 0.000000 
#    y 0.000000 1.747990 0.000000 
#    z 0.000000 0.000000 1.765160 
# 
# From -- ./inp_files/63060.got.cif
#   From: 2010.06.25/outbox.cif.g09.slc.cpg/sg71_32_cif.got.tgz:63060.got - 2010.06.28 04:59:45.
