data_PCOD8292102
_publ_section_title
;
Structure prediction by ZEFSAII (Michael W. Deem and Ramdas Pophale) SiO2 
 PCOD8292102
Probable space group: I M M M
;
_chemical_formula_sum "Si O2"
_cell_formula_units_Z 64
_cell_length_a 14.400797
_cell_length_b 18.156082
_cell_length_c 11.835284
_cell_angle_alpha 90.000000
_cell_angle_beta 90.000000
_cell_angle_gamma 90.000000
_cell_volume 3094.477631
_symmetry_space_group_name_H-M "I M M M"
_symmetry_group_IT_number 71
_symmetry_cell_setting 'orthorhombic'
loop_
_space_group_symop_operation_xyz
x,y,z
-x,-y,z
x,-y,-z
-x,y,-z
-x,-y,-z
x,y,-z
-x,y,z
x,-y,z
1/2+x,1/2+y,1/2+z
1/2-x,1/2-y,1/2+z
1/2+x,1/2-y,1/2-z
1/2-x,1/2+y,1/2-z
1/2-x,1/2-y,1/2-z
1/2+x,1/2+y,1/2-z
1/2-x,1/2+y,1/2+z
1/2+x,1/2-y,1/2+z
loop_
_atom_site_type_symbol
_atom_site_label
_atom_site_fract_x
_atom_site_fract_y
_atom_site_fract_z
Si Si1 0.742305 0.085373 0.867142
Si Si2 0.898111 0.140942 0.285907
Si Si3 0.204274 0.082255 0.500000
Si Si4 0.153011 0.290987 0.237006
Si Si5 0.894609 0.354982 0.000000
O O1 0.844307 0.110175 0.824138
O O2 0.659400 0.132877 0.808265
O O3 0.724919 0.000000 0.836241
O O4 0.738524 0.099181 0.000000
O O5 0.832358 0.123604 0.390868
O O6 0.917215 0.229189 0.284151
O O7 0.000000 0.103217 0.295021
O O8 0.316794 0.080921 0.500000
O O9 0.165945 0.000000 0.500000
O O10 0.250000 0.250000 0.250000
O O11 0.122111 0.304860 0.109173
O O12 0.000000 0.387127 0.000000
#
# Coordination Sequence:
#
# PCOD8292102 Si02
#       5
#    16  16   8  16   8
#     4  10  22  39  64  94 128 173 215 258 323 389
#     4  11  24  39  64  96 130 173 216 266 323 386
#     4  12  25  43  64  95 133 170 215 270 329 386
#     4  10  22  39  66  92 129 169 211 264 323 378
#     4  12  24  42  69  98 124 163 218 271 315 374
#
# _framework density 20.682005
#
# number of rings (size 3 to 8) (size 9 to 14) (size 15 to 20)
#    0.000    1.250    5.000    1.875    8.750    3.250 
#    0.000    1.250    0.000    2.250    0.000    7.000 
#    0.000    0.000    0.000    0.000    0.000    0.000 
#
# Total GULP energy -396530.315229 kJ/mol
# GULP energy per Si atom -12391.572351 kJ/mol
# Density = 2.063493 g / cm^3
# Si number density = 20.682005 Si / 1000 Ang^3
#
#
#
# Elastic Constant Matrix: (Units=GPa)
#
#
# Indices 1 2 3 4 5 6 
#
# 1 100.6620 25.4484 50.1437 0.0000 0.0000 0.0000
# 2 25.4484 148.4048 71.0395 0.0000 0.0000 0.0000
# 3 50.1437 71.0395 141.2166 0.0000 0.0000 0.0000
# 4 0.0000 0.0000 0.0000 26.4239 0.0000 0.0000
# 5 0.0000 0.0000 0.0000 0.0000 32.5579 0.0000
# 6 0.0000 0.0000 0.0000 0.0000 0.0000 13.8444
#
#
#
# Elastic Compliance Matrix: (Units=1/GPa)
#
#
# Indices 1 2 3 4 5 6 
#
# 1 0.012069 -0.000024 -0.004273 0.000000 0.000000 0.000000
# 2 -0.000024 0.008876 -0.004456 0.000000 0.000000 0.000000
# 3 -0.004273 -0.004456 0.010841 0.000000 0.000000 0.000000
# 4 0.000000 0.000000 0.000000 0.037845 0.000000 0.000000
# 5 0.000000 0.000000 0.000000 0.000000 0.030714 0.000000
# 6 0.000000 0.000000 0.000000 0.000000 0.000000 0.072231
#
#
# Mechanical properties :
#
#
# Convention : Reuss Voigt Hill
#
# Bulk Modulus (GPa) = 70.03971 75.94962 72.99467
# Shear Modulus (GPa) = 25.66170 30.80868 28.23519
#
# Velocity S-wave (km/s) = 3.52628 3.86377 3.69888
# Velocity P-wave (km/s) = 7.10761 7.53042 7.32207
#
# Compressibility (1/GPa) = 0.01427761
#
# Stress axis : x y z
#
# Youngs Moduli (GPa) = 82.85633 112.66749 92.24583
#
# Poissons Ratio (x) = 0.00270 0.39421
# Poissons Ratio (y) = 0.00198 0.41109
# Poissons Ratio (z) = 0.35409 0.50210
#
# Static dielectric constant tensor:
#      x y z
#    x 3.914400 0.000000 0.000000 
#    y 0.000000 4.294150 0.000000 
#    z 0.000000 0.000000 3.545510 
# 
# 
# High freq. dielectric constant tensor:
#      x y z
#    x 1.799430 0.000000 0.000000 
#    y 0.000000 1.813810 0.000000 
#    z 0.000000 0.000000 1.815100 
# 
# From -- ./inp_files/21259.got.cif
#   From: 2010.06.25/outbox.cif.g09.slc.cpg/sg71_11_cif.got.tgz:21259.got - 2010.06.28 04:59:45.
