data_PCOD8292494
_publ_section_title
;
Structure prediction by ZEFSAII (Michael W. Deem and Ramdas Pophale) SiO2 
 PCOD8292494
Probable space group: I M M M
;
_chemical_formula_sum "Si O2"
_cell_formula_units_Z 56
_cell_length_a 7.945201
_cell_length_b 36.254313
_cell_length_c 10.252903
_cell_angle_alpha 90.000000
_cell_angle_beta 90.000000
_cell_angle_gamma 90.000000
_cell_volume 2953.326193
_symmetry_space_group_name_H-M "I M M M"
_symmetry_group_IT_number 71
_symmetry_cell_setting 'orthorhombic'
loop_
_space_group_symop_operation_xyz
x,y,z
-x,-y,z
x,-y,-z
-x,y,-z
-x,-y,-z
x,y,-z
-x,y,z
x,-y,z
1/2+x,1/2+y,1/2+z
1/2-x,1/2-y,1/2+z
1/2+x,1/2-y,1/2-z
1/2-x,1/2+y,1/2-z
1/2-x,1/2-y,1/2-z
1/2+x,1/2+y,1/2-z
1/2-x,1/2+y,1/2+z
1/2+x,1/2-y,1/2+z
loop_
_atom_site_type_symbol
_atom_site_label
_atom_site_fract_x
_atom_site_fract_y
_atom_site_fract_z
Si Si1 0.308238 0.328865 0.746977
Si Si2 0.000000 0.541262 0.154859
Si Si3 0.192036 0.908843 0.653700
Si Si4 0.314994 0.789375 0.000000
Si Si5 0.809939 0.289073 0.000000
O O1 0.500000 0.326481 0.702884
O O2 0.258067 0.370816 0.777298
O O3 0.198988 0.314789 0.627099
O O4 0.283657 0.303361 0.872432
O O5 0.828293 0.561187 0.202945
O O6 0.000000 0.500000 0.213410
O O7 0.000000 0.539895 0.000000
O O8 0.207412 0.902262 0.500000
O O9 0.000000 0.921289 0.688762
O O10 0.500000 0.771650 0.000000
O O11 0.185734 0.755414 0.000000
O O12 0.000000 0.303905 0.000000
#
# Coordination Sequence:
#
# PCOD8292494 Si02
#       5
#    16   8  16   8   8
#     4  11  22  39  59  81 111 149 192 240 285 342
#     4   9  18  30  50  81 119 149 183 231 279 339
#     4   9  18  32  54  81 110 147 189 228 279 340
#     4  12  26  40  54  80 114 147 190 243 293 341
#     4  12  24  38  60  82 108 149 190 239 293 343
#
# _framework density 18.961672
#
# number of rings (size 3 to 8) (size 9 to 14) (size 15 to 20)
#    0.000    1.571    1.429    4.286    4.000    0.571 
#    0.000    2.857    0.000    0.000    0.000    2.000 
#    0.000    4.571    0.000    0.000    0.000    0.000 
#
# Total GULP energy -347242.087329 kJ/mol
# GULP energy per Si atom -12401.503119 kJ/mol
# Density = 1.891851 g / cm^3
# Si number density = 18.961672 Si / 1000 Ang^3
#
#
#
# Elastic Constant Matrix: (Units=GPa)
#
#
# Indices 1 2 3 4 5 6 
#
# 1 103.8945 60.4538 16.6740 -0.0021 -0.0001 -0.0001
# 2 60.4538 142.2062 38.1105 -0.0028 -0.0002 -0.0002
# 3 16.6740 38.1105 87.2130 -0.0035 -0.0005 -0.0003
# 4 -0.0021 -0.0028 -0.0035 5.7578 -0.0006 -0.0004
# 5 -0.0001 -0.0002 -0.0005 -0.0006 22.3343 -0.0002
# 6 -0.0001 -0.0002 -0.0003 -0.0004 -0.0002 35.0493
#
#
#
# Elastic Compliance Matrix: (Units=1/GPa)
#
#
# Indices 1 2 3 4 5 6 
#
# 1 0.012789 -0.005416 -0.000079 0.000002 0.000000 0.000000
# 2 -0.005416 0.010258 -0.003447 0.000001 0.000000 0.000000
# 3 -0.000079 -0.003447 0.012988 0.000006 0.000000 0.000000
# 4 0.000002 0.000001 0.000006 0.173678 0.000004 0.000002
# 5 0.000000 0.000000 0.000000 0.000004 0.044774 0.000000
# 6 0.000000 0.000000 0.000000 0.000002 0.000000 0.028531
#
#
# Mechanical properties :
#
#
# Convention : Reuss Voigt Hill
#
# Bulk Modulus (GPa) = 55.09088 62.64336 58.86712
# Shear Modulus (GPa) = 16.28920 27.16666 21.72793
#
# Velocity S-wave (km/s) = 2.93415 3.78923 3.38877
# Velocity P-wave (km/s) = 6.37149 7.22862 6.81354
#
# Compressibility (1/GPa) = 0.01815182
#
# Stress axis : x y z
#
# Youngs Moduli (GPa) = 78.19192 97.48312 76.99679
#
# Poissons Ratio (x) = 0.52794 0.00605
# Poissons Ratio (y) = 0.42347 0.26542
# Poissons Ratio (z) = 0.00614 0.33605
#
# Static dielectric constant tensor:
#      x y z
#    x 3.628180 0.000000 0.000000 
#    y 0.000000 3.507420 0.000000 
#    z 0.000000 0.000000 3.005750 
# 
# 
# High freq. dielectric constant tensor:
#      x y z
#    x 1.755970 0.000000 0.000000 
#    y 0.000000 1.730600 0.000000 
#    z 0.000000 0.000000 1.702960 
# 
# From -- ./inp_files/18430.got.cif
#   From: 2010.06.25/outbox.cif.g09.slc.cpg/sg71_10_cif.got.tgz:18430.got - 2010.06.28 04:59:45.
