data_PCOD8292220
_publ_section_title
;
Structure prediction by ZEFSAII (Michael W. Deem and Ramdas Pophale) SiO2 
 PCOD8292220
Probable space group: I M M M
;
_chemical_formula_sum "Si O2"
_cell_formula_units_Z 44
_cell_length_a 24.860670
_cell_length_b 7.560891
_cell_length_c 11.560633
_cell_angle_alpha 90.000000
_cell_angle_beta 90.000000
_cell_angle_gamma 90.000000
_cell_volume 2173.038498
_symmetry_space_group_name_H-M "I M M M"
_symmetry_group_IT_number 71
_symmetry_cell_setting 'orthorhombic'
loop_
_space_group_symop_operation_xyz
x,y,z
-x,-y,z
x,-y,-z
-x,y,-z
-x,-y,-z
x,y,-z
-x,y,z
x,-y,z
1/2+x,1/2+y,1/2+z
1/2-x,1/2-y,1/2+z
1/2+x,1/2-y,1/2-z
1/2-x,1/2+y,1/2-z
1/2-x,1/2-y,1/2-z
1/2+x,1/2+y,1/2-z
1/2-x,1/2+y,1/2+z
1/2+x,1/2-y,1/2+z
loop_
_atom_site_type_symbol
_atom_site_label
_atom_site_fract_x
_atom_site_fract_y
_atom_site_fract_z
Si Si1 0.273292 0.000000 0.500000
Si Si2 0.500000 0.708760 0.133365
Si Si3 0.390987 0.800396 0.745268
Si Si4 0.829899 0.000000 0.627802
Si Si5 0.639008 0.702831 0.500000
O O1 0.234917 0.000000 0.385948
O O2 0.307891 0.822608 0.500000
O O3 0.500000 0.500000 0.148480
O O4 0.551702 0.789430 0.194311
O O5 0.500000 0.766322 0.000000
O O6 0.347361 0.675474 0.805438
O O7 0.397478 0.744415 0.611577
O O8 0.368949 0.000000 0.753723
O O9 0.857839 0.000000 0.500000
O O10 0.658056 0.500000 0.500000
#
# Coordination Sequence:
#
# PCOD8292220 Si02
#       5
#     4   8  16   8   8
#     4  10  26  46  68 102 128 184 242 274 346 400
#     4  11  23  42  71 101 141 181 223 271 342 407
#     4  12  24  43  71 100 140 180 223 286 336 410
#     4  10  24  44  65  99 132 176 232 274 340 394
#     4  12  24  47  69  97 138 179 233 284 341 399
#
# _framework density 20.248146999999999
#
# number of rings (size 3 to 8) (size 9 to 14) (size 15 to 20)
#    0.545    0.182    5.455    1.636    0.000    7.273 
#    0.000    3.636    0.000    0.000    0.000    0.000 
#    0.000    0.000    0.000    0.000    0.000    0.000 
#
# Total GULP energy -272848.868044 kJ/mol
# GULP energy per Si atom -12402.221275 kJ/mol
# Density = 2.020206 g / cm^3
# Si number density = 20.248147 Si / 1000 Ang^3
#
#
#
# Elastic Constant Matrix: (Units=GPa)
#
#
# Indices 1 2 3 4 5 6 
#
# 1 100.9216 43.6536 50.9723 0.0000 0.0000 0.0000
# 2 43.6536 189.9575 62.1834 0.0000 0.0000 0.0000
# 3 50.9723 62.1834 172.6752 0.0000 0.0000 0.0000
# 4 0.0000 0.0000 0.0000 29.0267 0.0000 0.0000
# 5 0.0000 0.0000 0.0000 0.0000 -16.5776 0.0000
# 6 0.0000 0.0000 0.0000 0.0000 0.0000 32.5826
#
#
#
# Elastic Compliance Matrix: (Units=1/GPa)
#
#
# Indices 1 2 3 4 5 6 
#
# 1 0.012187 -0.001840 -0.002935 0.000000 0.000000 0.000000
# 2 -0.001840 0.006246 -0.001706 0.000000 0.000000 0.000000
# 3 -0.002935 -0.001706 0.007272 0.000000 0.000000 0.000000
# 4 0.000000 0.000000 0.000000 0.034451 0.000000 0.000000
# 5 0.000000 0.000000 0.000000 0.000000 -0.060323 0.000000
# 6 0.000000 0.000000 0.000000 0.000000 0.000000 0.030691
#
#
# Mechanical properties :
#
#
# Convention : Reuss Voigt Hill
#
# Bulk Modulus (GPa) = 78.47564 86.35255 82.41409
# Shear Modulus (GPa) = 104.74858 29.45602 67.10230
#
# Velocity S-wave (km/s) = 7.20033 3.81826 5.76298
# Velocity P-wave (km/s) = 10.39074 7.88534 9.22350
#
# Compressibility (1/GPa) = 0.01274281
#
# Stress axis : x y z
#
# Youngs Moduli (GPa) = 82.05577 160.11179 137.51469
#
# Poissons Ratio (x) = 0.29459 0.40359
# Poissons Ratio (y) = 0.15097 0.23461
# Poissons Ratio (z) = 0.24082 0.27316
#
# Static dielectric constant tensor:
#      x y z
#    x 3.537200 0.000000 0.000000 
#    y 0.000000 3.867570 0.000000 
#    z 0.000000 0.000000 4.007610 
# 
# 
# High freq. dielectric constant tensor:
#      x y z
#    x 1.774870 0.000000 0.000000 
#    y 0.000000 1.811080 0.000000 
#    z 0.000000 0.000000 1.806400 
# 
# From -- ./inp_files/26736.got.cif
#   From: 2010.06.25/outbox.cif.g09.slc.cpg/sg71_14_cif.got.tgz:26736.got - 2010.06.28 04:59:45.
