data_PCOD8292697
_publ_section_title
;
Structure prediction by ZEFSAII (Michael W. Deem and Ramdas Pophale) SiO2 
 PCOD8292697
Probable space group: I M M M
;
_chemical_formula_sum "Si O2"
_cell_formula_units_Z 120
_cell_length_a 23.532527
_cell_length_b 10.011532
_cell_length_c 30.988928
_cell_angle_alpha 90.000000
_cell_angle_beta 90.000000
_cell_angle_gamma 90.000000
_cell_volume 7300.887534
_symmetry_space_group_name_H-M "I M M M"
_symmetry_group_IT_number 71
_symmetry_cell_setting 'orthorhombic'
loop_
_space_group_symop_operation_xyz
x,y,z
-x,-y,z
x,-y,-z
-x,y,-z
-x,-y,-z
x,y,-z
-x,y,z
x,-y,z
1/2+x,1/2+y,1/2+z
1/2-x,1/2-y,1/2+z
1/2+x,1/2-y,1/2-z
1/2-x,1/2+y,1/2-z
1/2-x,1/2-y,1/2-z
1/2+x,1/2+y,1/2-z
1/2-x,1/2+y,1/2+z
1/2+x,1/2-y,1/2+z
loop_
_atom_site_type_symbol
_atom_site_label
_atom_site_fract_x
_atom_site_fract_y
_atom_site_fract_z
Si Si1 0.437064 0.851753 0.551394
Si Si2 0.435692 0.159076 0.000000
Si Si3 0.162557 0.347152 0.741881
Si Si4 0.257230 0.156453 0.104277
Si Si5 0.436162 0.841567 0.822691
Si Si6 0.881998 0.340406 0.588933
Si Si7 0.282437 0.347404 0.695044
Si Si8 0.653512 0.351516 0.449160
O O1 0.435135 0.847675 0.500000
O O2 0.500000 0.812404 0.567487
O O3 0.392677 0.747640 0.571696
O O4 0.421166 0.000000 0.567640
O O5 0.405872 0.215147 0.043445
O O6 0.500000 0.211080 0.000000
O O7 0.433494 0.000000 0.000000
O O8 0.151724 0.500000 0.757496
O O9 0.109486 0.293476 0.713166
O O10 0.219801 0.339866 0.714660
O O11 0.170885 0.247388 0.782197
O O12 0.318775 0.220450 0.095435
O O13 0.225291 0.209980 0.146818
O O14 0.216924 0.191411 0.063993
O O15 0.267059 0.000000 0.110909
O O16 0.500000 0.790081 0.811416
O O17 0.419558 0.789338 0.870580
O O18 0.434608 0.000000 0.823632
O O19 0.881400 0.500000 0.587373
O O20 0.305226 0.500000 0.696617
O O21 0.650153 0.347072 0.500000
O O22 0.640038 0.500000 0.431584
#
# Coordination Sequence:
#
# PCOD8292697 Si02
#       8
#    16   8  16  16  16  16  16  16
#     4   8  14  26  43  60  79 105 136 170 212 260
#     4   9  16  22  30  50  82 122 162 191 216 254
#     4   9  16  27  44  67  87 106 139 179 220 261
#     4   9  16  26  39  57  84 117 150 180 217 264
#     4   9  15  24  40  62  88 116 147 184 222 261
#     4   9  15  23  35  53  82 121 158 187 218 258
#     4   9  16  28  45  62  84 113 142 174 214 264
#     4   9  17  26  39  62  88 113 145 183 216 249
#
# _framework density 16.436357999999998
#
# number of rings (size 3 to 8) (size 9 to 14) (size 15 to 20)
#    0.000    3.133    1.333    0.800    0.933    1.867 
#    0.000    2.000    0.000    1.200    0.000    3.733 
#    0.000    0.000    0.000    0.133    0.000    6.333 
#
# Total GULP energy -743492.149497 kJ/mol
# GULP energy per Si atom -12391.535825 kJ/mol
# Density = 1.639895 g / cm^3
# Si number density = 16.436358 Si / 1000 Ang^3
#
#
#
# Elastic Constant Matrix: (Units=GPa)
#
#
# Indices 1 2 3 4 5 6 
#
# 1 123.6225 39.4663 55.1946 0.0000 0.0000 0.0000
# 2 39.4663 40.5164 23.5705 0.0000 0.0000 0.0000
# 3 55.1946 23.5705 69.8757 0.0000 0.0000 0.0000
# 4 0.0000 0.0000 0.0000 13.5696 0.0000 0.0000
# 5 0.0000 0.0000 0.0000 0.0000 29.0599 0.0000
# 6 0.0000 0.0000 0.0000 0.0000 0.0000 10.6107
#
#
#
# Elastic Compliance Matrix: (Units=1/GPa)
#
#
# Indices 1 2 3 4 5 6 
#
# 1 0.014997 -0.009601 -0.008608 0.000000 0.000000 0.000000
# 2 -0.009601 0.036854 -0.004848 0.000000 0.000000 0.000000
# 3 -0.008608 -0.004848 0.022746 0.000000 0.000000 0.000000
# 4 0.000000 0.000000 0.000000 0.073694 0.000000 0.000000
# 5 0.000000 0.000000 0.000000 0.000000 0.034412 0.000000
# 6 0.000000 0.000000 0.000000 0.000000 0.000000 0.094245
#
#
# Mechanical properties :
#
#
# Convention : Reuss Voigt Hill
#
# Bulk Modulus (GPa) = 35.10773 52.27525 43.69149
# Shear Modulus (GPa) = 15.03511 18.36692 16.70101
#
# Velocity S-wave (km/s) = 3.02776 3.34646 3.19109
# Velocity P-wave (km/s) = 5.79907 6.84145 6.34172
#
# Compressibility (1/GPa) = 0.02848376
#
# Stress axis : x y z
#
# Youngs Moduli (GPa) = 66.67783 27.13424 43.96454
#
# Poissons Ratio (x) = 0.26052 0.37844
# Poissons Ratio (y) = 0.64019 0.21312
# Poissons Ratio (z) = 0.57395 0.13154
#
# Static dielectric constant tensor:
#      x y z
#    x 3.285290 0.000000 0.000000 
#    y 0.000000 2.846260 0.000000 
#    z 0.000000 0.000000 3.052190 
# 
# 
# High freq. dielectric constant tensor:
#      x y z
#    x 1.635740 0.000000 0.000000 
#    y 0.000000 1.576810 0.000000 
#    z 0.000000 0.000000 1.618200 
# 
# From -- ./inp_files/71108.got.cif
#   From: 2010.06.25/outbox.cif.g09.slc.cpg/sg71_36_cif.got.tgz:71108.got - 2010.06.28 04:59:45.
