data_PCOD8292087
_publ_section_title
;
Structure prediction by ZEFSAII (Michael W. Deem and Ramdas Pophale) SiO2 
 PCOD8292087
Probable space group: I M M M
;
_chemical_formula_sum "Si O2"
_cell_formula_units_Z 80
_cell_length_a 8.789774
_cell_length_b 26.456555
_cell_length_c 17.071126
_cell_angle_alpha 90.000000
_cell_angle_beta 90.000000
_cell_angle_gamma 90.000000
_cell_volume 3969.841515
_symmetry_space_group_name_H-M "I M M M"
_symmetry_group_IT_number 71
_symmetry_cell_setting 'orthorhombic'
loop_
_space_group_symop_operation_xyz
x,y,z
-x,-y,z
x,-y,-z
-x,y,-z
-x,-y,-z
x,y,-z
-x,y,z
x,-y,z
1/2+x,1/2+y,1/2+z
1/2-x,1/2-y,1/2+z
1/2+x,1/2-y,1/2-z
1/2-x,1/2+y,1/2-z
1/2-x,1/2-y,1/2-z
1/2+x,1/2+y,1/2-z
1/2-x,1/2+y,1/2+z
1/2+x,1/2-y,1/2+z
loop_
_atom_site_type_symbol
_atom_site_label
_atom_site_fract_x
_atom_site_fract_y
_atom_site_fract_z
Si Si1 0.680900 0.500000 0.912323
Si Si2 0.680307 0.117624 0.151887
Si Si3 0.325886 0.275315 0.675236
Si Si4 0.819204 0.557224 0.500000
Si Si5 0.173418 0.676253 0.911647
Si Si6 0.321255 0.593838 0.188495
O O1 0.500000 0.500000 0.916250
O O2 0.740475 0.549347 0.867180
O O3 0.749616 0.500000 0.000000
O O4 0.500000 0.119735 0.154649
O O5 0.741151 0.174455 0.148281
O O6 0.740186 0.088502 0.228182
O O7 0.740161 0.086790 0.076619
O O8 0.500000 0.288804 0.695590
O O9 0.250000 0.250000 0.750000
O O10 0.314338 0.236007 0.603706
O O11 0.754037 0.500000 0.500000
O O12 0.000000 0.555705 0.500000
O O13 0.281654 0.647112 0.851424
O O14 0.000000 0.658041 0.898678
O O15 0.227863 0.665437 0.000000
O O16 0.500000 0.590073 0.201875
#
# Coordination Sequence:
#
# PCOD8292087 Si02
#       6
#     8  16  16   8  16  16
#     4   9  20  38  59  86 121 154 192 241 295 353
#     4  11  23  40  63  90 121 158 205 257 308 366
#     4  11  22  38  61  88 123 163 201 247 304 367
#     4   9  22  44  67  91 121 163 213 268 321 374
#     4  10  22  39  59  86 122 161 201 247 298 354
#     4  11  22  38  62  89 119 159 201 245 301 367
#
# _framework density 20.151937
#
# number of rings (size 3 to 8) (size 9 to 14) (size 15 to 20)
#    0.000    1.600    2.000    2.400    2.800    2.000 
#    0.000    3.000    0.000    6.000    0.000    0.000 
#    0.000    0.000    0.000    0.000    0.000    0.000 
#
# Total GULP energy -496148.898000 kJ/mol
# GULP energy per Si atom -12403.722450 kJ/mol
# Density = 2.010607 g / cm^3
# Si number density = 20.151937 Si / 1000 Ang^3
#
#
#
# Elastic Constant Matrix: (Units=GPa)
#
#
# Indices 1 2 3 4 5 6 
#
# 1 79.9592 36.5782 46.2953 0.0000 0.0000 0.0000
# 2 36.5782 145.5564 78.0824 -0.0001 0.0000 0.0000
# 3 46.2953 78.0824 175.1720 -0.0004 0.0000 0.0000
# 4 0.0000 -0.0001 -0.0004 41.6611 0.0000 0.0000
# 5 0.0000 0.0000 0.0000 0.0000 22.9849 0.0000
# 6 0.0000 0.0000 0.0000 0.0000 0.0000 26.0628
#
#
#
# Elastic Compliance Matrix: (Units=1/GPa)
#
#
# Indices 1 2 3 4 5 6 
#
# 1 0.015284 -0.002200 -0.003059 0.000000 0.000000 0.000000
# 2 -0.002200 0.009346 -0.003584 0.000000 0.000000 0.000000
# 3 -0.003059 -0.003584 0.008115 0.000000 0.000000 0.000000
# 4 0.000000 0.000000 0.000000 0.024003 0.000000 0.000000
# 5 0.000000 0.000000 0.000000 0.000000 0.043507 0.000000
# 6 0.000000 0.000000 0.000000 0.000000 0.000000 0.038369
#
#
# Mechanical properties :
#
#
# Convention : Reuss Voigt Hill
#
# Bulk Modulus (GPa) = 66.40901 80.28881 73.34891
# Shear Modulus (GPa) = 30.99259 34.12386 32.55823
#
# Velocity S-wave (km/s) = 3.92592 4.11947 4.02386
# Velocity P-wave (km/s) = 7.31957 7.90917 7.62008
#
# Compressibility (1/GPa) = 0.01505820
#
# Stress axis : x y z
#
# Youngs Moduli (GPa) = 65.42921 106.99860 123.23183
#
# Poissons Ratio (x) = 0.23540 0.37692
# Poissons Ratio (y) = 0.14395 0.44172
# Poissons Ratio (z) = 0.20012 0.38353
#
# Static dielectric constant tensor:
#      x y z
#    x 3.497820 0.000000 0.000000 
#    y 0.000000 3.804890 0.000000 
#    z 0.000000 0.000000 4.029690 
# 
# 
# High freq. dielectric constant tensor:
#      x y z
#    x 1.772910 0.000000 0.000000 
#    y 0.000000 1.794640 0.000000 
#    z 0.000000 0.000000 1.798370 
# 
# From -- ./inp_files/42273.got.cif
#   From: 2010.06.25/outbox.cif.g09.slc.cpg/sg71_22_cif.got.tgz:42273.got - 2010.06.28 04:59:45.
