data_PCOD8292251
_publ_section_title
;
Structure prediction by ZEFSAII (Michael W. Deem and Ramdas Pophale) SiO2 
 PCOD8292251
Probable space group: I M M M
;
_chemical_formula_sum "Si O2"
_cell_formula_units_Z 104
_cell_length_a 25.987102
_cell_length_b 13.879054
_cell_length_c 18.195657
_cell_angle_alpha 90.000000
_cell_angle_beta 90.000000
_cell_angle_gamma 90.000000
_cell_volume 6562.743916
_symmetry_space_group_name_H-M "I M M M"
_symmetry_group_IT_number 71
_symmetry_cell_setting 'orthorhombic'
loop_
_space_group_symop_operation_xyz
x,y,z
-x,-y,z
x,-y,-z
-x,y,-z
-x,-y,-z
x,y,-z
-x,y,z
x,-y,z
1/2+x,1/2+y,1/2+z
1/2-x,1/2-y,1/2+z
1/2+x,1/2-y,1/2-z
1/2-x,1/2+y,1/2-z
1/2-x,1/2-y,1/2-z
1/2+x,1/2+y,1/2-z
1/2-x,1/2+y,1/2+z
1/2+x,1/2-y,1/2+z
loop_
_atom_site_type_symbol
_atom_site_label
_atom_site_fract_x
_atom_site_fract_y
_atom_site_fract_z
Si Si1 0.941163 0.891877 0.084282
Si Si2 0.680469 0.888060 0.080457
Si Si3 0.858511 0.605864 0.269456
Si Si4 0.618178 0.218529 0.370884
Si Si5 0.940459 0.385985 0.000000
Si Si6 0.239630 0.892593 0.730889
Si Si7 0.230252 0.767634 0.134363
O O1 0.907643 0.823088 0.135364
O O2 0.000000 0.886898 0.109618
O O3 0.919980 0.000000 0.092823
O O4 0.935819 0.857025 0.000000
O O5 0.640842 0.855274 0.145434
O O6 0.734222 0.829057 0.079803
O O7 0.694685 0.000000 0.093777
O O8 0.654749 0.873131 0.000000
O O9 0.884523 0.500000 0.264579
O O10 0.886275 0.675389 0.211516
O O11 0.799148 0.597657 0.249686
O O12 0.587296 0.151334 0.426805
O O13 0.676764 0.230400 0.400876
O O14 0.936386 0.500000 0.000000
O O15 0.000000 0.351591 0.000000
O O16 0.212270 0.834697 0.796881
O O17 0.235621 0.825690 0.658493
O O18 0.215757 0.000000 0.718720
#
# Coordination Sequence:
#
# PCOD8292251 Si02
#       7
#    16  16  16  16   8  16  16
#     4   9  18  32  46  60  84 117 147 178 223 271
#     4   9  17  29  45  63  91 124 151 186 226 263
#     4   8  15  28  44  64  87 115 150 185 226 267
#     4  11  19  29  47  66  88 115 148 191 228 264
#     4  11  24  38  49  63  85 117 152 188 233 279
#     4   8  14  27  42  58  87 119 144 179 225 264
#     4   9  17  25  41  65  86 113 150 190 222 256
#
# _framework density 15.847028999999999
#
# number of rings (size 3 to 8) (size 9 to 14) (size 15 to 20)
#    0.000    2.846    0.769    3.692    1.077    1.846 
#    0.000    1.538    0.000    0.000    0.000    0.000 
#    0.000    2.462    0.000   19.077    0.000    0.000 
#
# Total GULP energy -644278.712786 kJ/mol
# GULP energy per Si atom -12389.975246 kJ/mol
# Density = 1.581096 g / cm^3
# Si number density = 15.847029 Si / 1000 Ang^3
#
#
#
# Elastic Constant Matrix: (Units=GPa)
#
#
# Indices 1 2 3 4 5 6 
#
# 1 45.1393 26.9591 35.5166 0.0000 0.0000 0.0000
# 2 26.9591 91.3780 44.1935 0.0000 0.0000 0.0000
# 3 35.5166 44.1935 110.6494 0.0000 0.0000 0.0000
# 4 0.0000 0.0000 0.0000 20.8666 0.0000 0.0000
# 5 0.0000 0.0000 0.0000 0.0000 17.1132 0.0000
# 6 0.0000 0.0000 0.0000 0.0000 0.0000 22.1972
#
#
#
# Elastic Compliance Matrix: (Units=1/GPa)
#
#
# Indices 1 2 3 4 5 6 
#
# 1 0.031720 -0.005496 -0.007987 0.000000 0.000000 0.000000
# 2 -0.005496 0.014516 -0.004034 0.000000 0.000000 0.000000
# 3 -0.007987 -0.004034 0.013212 0.000000 0.000000 0.000000
# 4 0.000000 0.000000 0.000000 0.047923 0.000000 0.000000
# 5 0.000000 0.000000 0.000000 0.000000 0.058435 0.000000
# 6 0.000000 0.000000 0.000000 0.000000 0.000000 0.045051
#
#
# Mechanical properties :
#
#
# Convention : Reuss Voigt Hill
#
# Bulk Modulus (GPa) = 40.95663 51.16723 46.06193
# Shear Modulus (GPa) = 19.68296 21.40190 20.54243
#
# Velocity S-wave (km/s) = 3.52811 3.67894 3.60432
# Velocity P-wave (km/s) = 6.51904 7.09961 6.81551
#
# Compressibility (1/GPa) = 0.02441607
#
# Stress axis : x y z
#
# Youngs Moduli (GPa) = 31.52593 68.89087 75.68812
#
# Poissons Ratio (x) = 0.37860 0.60449
# Poissons Ratio (y) = 0.17326 0.30529
# Poissons Ratio (z) = 0.25178 0.27788
#
# Static dielectric constant tensor:
#      x y z
#    x 2.652310 0.000000 0.000000 
#    y 0.000000 3.406860 0.000000 
#    z 0.000000 0.000000 3.071600 
# 
# 
# High freq. dielectric constant tensor:
#      x y z
#    x 1.556670 0.000000 0.000000 
#    y 0.000000 1.624820 0.000000 
#    z 0.000000 0.000000 1.591230 
# 
# From -- ./inp_files/48237.got.cif
#   From: 2010.06.25/outbox.cif.g09.slc.cpg/sg71_25_cif.got.tgz:48237.got - 2010.06.28 04:59:45.
