data_PCOD8292817
_publ_section_title
;
Structure prediction by ZEFSAII (Michael W. Deem and Ramdas Pophale) SiO2 
 PCOD8292817
Probable space group: I B A M
;
_chemical_formula_sum "Si O2"
_cell_formula_units_Z 112
_cell_length_a 16.989182
_cell_length_b 18.296910
_cell_length_c 19.812752
_cell_angle_alpha 90.000000
_cell_angle_beta 90.000000
_cell_angle_gamma 90.000000
_cell_volume 6158.784727
_symmetry_space_group_name_H-M "I B A M"
_symmetry_group_IT_number 72
_symmetry_cell_setting 'orthorhombic'
loop_
_space_group_symop_operation_xyz
x,y,z
-x,-y,z
x,-y,1/2-z
-x,y,1/2-z
-x,-y,-z
x,y,-z
-x,y,1/2+z
x,-y,1/2+z
1/2+x,1/2+y,1/2+z
1/2-x,1/2-y,1/2+z
1/2+x,1/2-y,-z
1/2-x,1/2+y,-z
1/2-x,1/2-y,1/2-z
1/2+x,1/2+y,1/2-z
1/2-x,1/2+y,z
1/2+x,1/2-y,z
loop_
_atom_site_type_symbol
_atom_site_label
_atom_site_fract_x
_atom_site_fract_y
_atom_site_fract_z
Si Si1 0.285559 0.196001 0.660932
Si Si2 0.427525 0.173353 0.573364
Si Si3 0.349176 0.643723 0.186137
Si Si4 0.695690 0.080014 0.278229
Si Si5 0.954613 0.350397 0.182900
Si Si6 0.105979 0.812512 0.827743
Si Si7 0.526838 0.659286 0.423935
O O1 0.336820 0.171232 0.596902
O O2 0.311845 0.275624 0.685243
O O3 0.304427 0.139908 0.719821
O O4 0.193695 0.196575 0.642271
O O5 0.431054 0.136225 0.500000
O O6 0.486572 0.129960 0.621987
O O7 0.457418 0.255665 0.569406
O O8 0.278785 0.584506 0.182311
O O9 0.394918 0.640211 0.258168
O O10 0.404739 0.624517 0.122926
O O11 0.623154 0.100179 0.327338
O O12 0.683041 0.000000 0.250000
O O13 0.933741 0.265109 0.187044
O O14 0.000000 0.373879 0.250000
O O15 0.055923 0.854465 0.885478
O O16 0.525749 0.624569 0.500000
#
# Coordination Sequence:
#
# PCOD8292817 Si02
#       7
#    16  16  16  16  16  16  16
#     4  10  17  32  52  73 101 135 172 212 264 304
#     4   9  18  30  47  74 107 139 173 212 254 307
#     4  10  17  33  53  74 102 138 168 216 264 309
#     4  11  21  32  51  80 102 127 176 220 257 305
#     4  11  17  31  50  74 103 135 168 213 258 305
#     4  10  16  27  53  77 101 131 172 211 260 314
#     4   9  18  29  47  79 108 132 167 216 266 310
#
# _framework density 18.185406
#
# number of rings (size 3 to 8) (size 9 to 14) (size 15 to 20)
#    0.000    2.000    4.286    3.000    0.000    0.857 
#    0.000    0.714    0.000    9.429    0.000    4.000 
#    0.000    0.000    0.000    0.000    0.000    0.000 
#
# Total GULP energy -694176.066821 kJ/mol
# GULP energy per Si atom -12396.001193 kJ/mol
# Density = 1.814402 g / cm^3
# Si number density = 18.185406 Si / 1000 Ang^3
#
#
#
# Elastic Constant Matrix: (Units=GPa)
#
#
# Indices 1 2 3 4 5 6 
#
# 1 121.2492 6.0740 76.1478 0.0000 0.0000 0.0000
# 2 6.0740 23.4569 4.1074 0.0000 0.0000 0.0000
# 3 76.1478 4.1074 145.9924 0.0000 0.0000 0.0000
# 4 0.0000 0.0000 0.0000 5.2140 0.0000 0.0000
# 5 0.0000 0.0000 0.0000 0.0000 9.8376 0.0000
# 6 0.0000 0.0000 0.0000 0.0000 0.0000 9.3226
#
#
#
# Elastic Compliance Matrix: (Units=1/GPa)
#
#
# Indices 1 2 3 4 5 6 
#
# 1 0.012366 -0.002083 -0.006391 0.000000 0.000000 0.000000
# 2 -0.002083 0.043193 -0.000129 0.000000 0.000000 0.000000
# 3 -0.006391 -0.000129 0.010187 0.000000 0.000000 0.000000
# 4 0.000000 0.000000 0.000000 0.191791 0.000000 0.000000
# 5 0.000000 0.000000 0.000000 0.000000 0.101651 0.000000
# 6 0.000000 0.000000 0.000000 0.000000 0.000000 0.107266
#
#
# Mechanical properties :
#
#
# Convention : Reuss Voigt Hill
#
# Bulk Modulus (GPa) = 20.60155 51.48409 36.04282
# Shear Modulus (GPa) = 10.00321 18.49946 14.25133
#
# Velocity S-wave (km/s) = 2.34790 3.19293 2.80245
# Velocity P-wave (km/s) = 4.32474 6.47805 5.50766
#
# Compressibility (1/GPa) = 0.04854003
#
# Stress axis : x y z
#
# Youngs Moduli (GPa) = 80.86917 23.15178 98.16579
#
# Poissons Ratio (x) = 0.04822 0.62739
# Poissons Ratio (y) = 0.16844 0.01264
# Poissons Ratio (z) = 0.51685 0.00298
#
# Static dielectric constant tensor:
#      x y z
#    x 3.870310 0.000000 0.000000 
#    y 0.000000 2.821950 0.000000 
#    z 0.000000 0.000000 3.611070 
# 
# 
# High freq. dielectric constant tensor:
#      x y z
#    x 1.727420 0.000000 0.000000 
#    y 0.000000 1.643450 0.000000 
#    z 0.000000 0.000000 1.691070 
# 
# From -- ./inp_files/39184.got.cif
#   From: 2010.03.12/outbox.cif.g09.slc.cpg/sg72_20_cif.got.tgz:39184.got - 2010.04.16 14:54:00.
