data_PCOD8292859
_publ_section_title
;
Structure prediction by ZEFSAII (Michael W. Deem and Ramdas Pophale) SiO2 
 PCOD8292859
Probable space group: I B A M
;
_chemical_formula_sum "Si O2"
_cell_formula_units_Z 96
_cell_length_a 22.960596
_cell_length_b 9.641891
_cell_length_c 18.198132
_cell_angle_alpha 90.000000
_cell_angle_beta 90.000000
_cell_angle_gamma 90.000000
_cell_volume 4028.767319
_symmetry_space_group_name_H-M "I B A M"
_symmetry_group_IT_number 72
_symmetry_cell_setting 'orthorhombic'
loop_
_space_group_symop_operation_xyz
x,y,z
-x,-y,z
x,-y,1/2-z
-x,y,1/2-z
-x,-y,-z
x,y,-z
-x,y,1/2+z
x,-y,1/2+z
1/2+x,1/2+y,1/2+z
1/2-x,1/2-y,1/2+z
1/2+x,1/2-y,-z
1/2-x,1/2+y,-z
1/2-x,1/2-y,1/2-z
1/2+x,1/2+y,1/2-z
1/2-x,1/2+y,z
1/2+x,1/2-y,z
loop_
_atom_site_type_symbol
_atom_site_label
_atom_site_fract_x
_atom_site_fract_y
_atom_site_fract_z
Si Si1 0.376240 0.777864 0.867604
Si Si2 0.436349 0.488444 0.416049
Si Si3 0.062133 0.661079 0.229503
Si Si4 0.762152 0.147900 0.413389
Si Si5 0.065970 0.551026 0.081627
Si Si6 0.677867 0.373919 0.587094
O O1 0.415551 0.669698 0.912414
O O2 0.389275 0.766574 0.780030
O O3 0.308666 0.749025 0.876002
O O4 0.389670 0.927110 0.902300
O O5 0.500000 0.500000 0.376654
O O6 0.444090 0.534891 0.500000
O O7 0.385607 0.585506 0.378603
O O8 0.060129 0.500000 0.250000
O O9 0.075291 0.673853 0.141701
O O10 0.000000 0.729441 0.250000
O O11 0.769924 0.161260 0.500000
O O12 0.699616 0.218097 0.390363
O O13 0.773230 0.989431 0.387519
O O14 0.000000 0.500000 0.088770
O O15 0.078589 0.611669 0.000000
O O16 0.671992 0.387054 0.500000
#
# Coordination Sequence:
#
# PCOD8292859 Si02
#       6
#    16  16  16  16  16  16
#     4  10  17  28  49  74 109 144 186 230 288 347
#     4   9  17  30  48  74 110 153 199 243 290 346
#     4   9  15  29  44  68 105 143 180 218 273 342
#     4   9  16  28  47  74 105 148 196 238 289 347
#     4  10  17  27  46  73 105 139 181 233 274 331
#     4   8  15  28  47  69 107 153 197 247 289 338
#
# _framework density 23.828627999999998
#
# number of rings (size 3 to 8) (size 9 to 14) (size 15 to 20)
#    0.000    2.833    3.333    2.500    0.000    0.000 
#    0.000    1.667    0.000    6.500    0.000   42.000 
#    0.000    0.667    0.000    0.000    0.000    0.000 
#
# Total GULP energy -594633.552154 kJ/mol
# GULP energy per Si atom -12388.199003 kJ/mol
# Density = 2.377439 g / cm^3
# Si number density = 23.828628 Si / 1000 Ang^3
#
#
#
# Elastic Constant Matrix: (Units=GPa)
#
#
# Indices 1 2 3 4 5 6 
#
# 1 94.0759 24.7603 3.2818 0.0000 0.0000 0.0000
# 2 24.7603 67.4139 -6.0988 0.0000 0.0000 0.0000
# 3 3.2818 -6.0988 106.0766 0.0000 0.0000 0.0000
# 4 0.0000 0.0000 0.0000 5.5270 0.0000 0.0000
# 5 0.0000 0.0000 0.0000 0.0000 16.2169 0.0000
# 6 0.0000 0.0000 0.0000 0.0000 0.0000 24.9779
#
#
#
# Elastic Compliance Matrix: (Units=1/GPa)
#
#
# Indices 1 2 3 4 5 6 
#
# 1 0.011807 -0.004393 -0.000618 0.000000 0.000000 0.000000
# 2 -0.004393 0.016545 0.001087 0.000000 0.000000 0.000000
# 3 -0.000618 0.001087 0.009509 0.000000 0.000000 0.000000
# 4 0.000000 0.000000 0.000000 0.180931 0.000000 0.000000
# 5 0.000000 0.000000 0.000000 0.000000 0.061664 0.000000
# 6 0.000000 0.000000 0.000000 0.000000 0.000000 0.040035
#
#
# Mechanical properties :
#
#
# Convention : Reuss Voigt Hill
#
# Bulk Modulus (GPa) = 33.31666 34.60589 33.96128
# Shear Modulus (GPa) = 14.77788 25.71923 20.24855
#
# Velocity S-wave (km/s) = 2.49303 3.28890 2.91822
# Velocity P-wave (km/s) = 4.72219 5.38301 5.06339
#
# Compressibility (1/GPa) = 0.03001502
#
# Stress axis : x y z
#
# Youngs Moduli (GPa) = 84.69276 60.43963 105.16612
#
# Poissons Ratio (x) = 0.26549 0.06498
# Poissons Ratio (y) = 0.37202 -0.11433
# Poissons Ratio (z) = 0.05233 -0.06571
#
# Static dielectric constant tensor:
#      x y z
#    x 4.502590 0.000000 0.000000 
#    y 0.000000 4.113010 0.000000 
#    z 0.000000 0.000000 4.332370 
# 
# 
# High freq. dielectric constant tensor:
#      x y z
#    x 1.945340 0.000000 0.000000 
#    y 0.000000 1.931780 0.000000 
#    z 0.000000 0.000000 1.901880 
# 
# From -- ./inp_files/39703.got.cif
#   From: 2010.03.12/outbox.cif.g09.slc.cpg/sg72_20_cif.got.tgz:39703.got - 2010.04.16 14:54:00.
