data_PCOD8292357
_publ_section_title
;
Structure prediction by ZEFSAII (Michael W. Deem and Ramdas Pophale) SiO2 
 PCOD8292357
Probable space group: I M M M
;
_chemical_formula_sum "Si O2"
_cell_formula_units_Z 88
_cell_length_a 8.821930
_cell_length_b 19.241143
_cell_length_c 28.308013
_cell_angle_alpha 90.000000
_cell_angle_beta 90.000000
_cell_angle_gamma 90.000000
_cell_volume 4805.115830
_symmetry_space_group_name_H-M "I M M M"
_symmetry_group_IT_number 71
_symmetry_cell_setting 'orthorhombic'
loop_
_space_group_symop_operation_xyz
x,y,z
-x,-y,z
x,-y,-z
-x,y,-z
-x,-y,-z
x,y,-z
-x,y,z
x,-y,z
1/2+x,1/2+y,1/2+z
1/2-x,1/2-y,1/2+z
1/2+x,1/2-y,1/2-z
1/2-x,1/2+y,1/2-z
1/2-x,1/2-y,1/2-z
1/2+x,1/2+y,1/2-z
1/2-x,1/2+y,1/2+z
1/2+x,1/2-y,1/2+z
loop_
_atom_site_type_symbol
_atom_site_label
_atom_site_fract_x
_atom_site_fract_y
_atom_site_fract_z
Si Si1 0.179423 0.844664 0.413364
Si Si2 0.835132 0.417973 0.275148
Si Si3 0.318191 0.921946 0.123344
Si Si4 0.670593 0.081958 0.500000
Si Si5 0.180180 0.305535 0.446911
Si Si6 0.681122 0.920641 0.327054
O O1 0.242554 0.894229 0.453638
O O2 0.233764 0.766192 0.423282
O O3 0.243753 0.867668 0.363143
O O4 0.000000 0.850750 0.413184
O O5 0.858471 0.500000 0.275486
O O6 0.752163 0.398247 0.324766
O O7 0.754561 0.398673 0.225299
O O8 0.000000 0.381625 0.275001
O O9 0.500000 0.919826 0.125812
O O10 0.254541 0.869482 0.083842
O O11 0.263718 0.000000 0.110404
O O12 0.500000 0.112119 0.500000
O O13 0.666830 0.000000 0.500000
O O14 0.246197 0.310841 0.500000
O O15 0.000000 0.308752 0.448675
O O16 0.500000 0.913923 0.328597
O O17 0.728343 0.000000 0.339204
#
# Coordination Sequence:
#
# PCOD8292357 Si02
#       6
#    16  16  16   8  16  16
#     4  11  21  33  47  67  99 133 159 187 234 292
#     4   7  11  22  41  65  91 118 151 195 242 278
#     4   8  13  23  43  69  93 121 159 197 234 281
#     4  11  23  37  53  71  90 117 162 212 243 267
#     4   9  17  29  42  60  94 133 159 187 238 290
#     4   9  17  30  48  69  94 123 159 204 242 272
#
# _framework density 18.313815000000002
#
# number of rings (size 3 to 8) (size 9 to 14) (size 15 to 20)
#    0.000    3.000    0.909    3.545    0.000    3.636 
#    0.000    2.727    0.000    0.000    0.000    1.273 
#    0.000    6.545    0.000    0.000    0.000    0.000 
#
# Total GULP energy -545093.539512 kJ/mol
# GULP energy per Si atom -12388.489534 kJ/mol
# Density = 1.827213 g / cm^3
# Si number density = 18.313815 Si / 1000 Ang^3
#
#
#
# Elastic Constant Matrix: (Units=GPa)
#
#
# Indices 1 2 3 4 5 6 
#
# 1 27.0936 20.8552 27.8316 0.0000 0.0000 0.0000
# 2 20.8552 104.8163 92.4092 0.0000 0.0000 0.0000
# 3 27.8316 92.4092 194.4303 0.0000 0.0000 0.0000
# 4 0.0000 0.0000 0.0000 15.1407 0.0000 0.0000
# 5 0.0000 0.0000 0.0000 0.0000 -4.3071 0.0000
# 6 0.0000 0.0000 0.0000 0.0000 0.0000 10.8065
#
#
#
# Elastic Compliance Matrix: (Units=1/GPa)
#
#
# Indices 1 2 3 4 5 6 
#
# 1 0.045138 -0.005654 -0.003774 0.000000 0.000000 0.000000
# 2 -0.005654 0.017130 -0.007332 0.000000 0.000000 0.000000
# 3 -0.003774 -0.007332 0.009168 0.000000 0.000000 0.000000
# 4 0.000000 0.000000 0.000000 0.066047 0.000000 0.000000
# 5 0.000000 0.000000 0.000000 0.000000 -0.232173 0.000000
# 6 0.000000 0.000000 0.000000 0.000000 0.000000 0.092537
#
#
# Mechanical properties :
#
#
# Convention : Reuss Voigt Hill
#
# Bulk Modulus (GPa) = 26.37412 67.61468 46.99440
# Shear Modulus (GPa) = 113.62425 16.67764 65.15094
#
# Velocity S-wave (km/s) = 7.88528 3.02099 5.97093
# Velocity P-wave (km/s) = 9.86590 7.01204 8.55876
#
# Compressibility (1/GPa) = 0.03791595
#
# Stress axis : x y z
#
# Youngs Moduli (GPa) = 22.15435 58.37842 109.07155
#
# Poissons Ratio (x) = 0.33005 0.41165
# Poissons Ratio (y) = 0.12525 0.79972
# Poissons Ratio (z) = 0.08361 0.42804
#
# Static dielectric constant tensor:
#      x y z
#    x 2.871770 0.000000 0.000000 
#    y 0.000000 3.308240 0.000000 
#    z 0.000000 0.000000 3.965780 
# 
# 
# High freq. dielectric constant tensor:
#      x y z
#    x 1.650300 0.000000 0.000000 
#    y 0.000000 1.689530 0.000000 
#    z 0.000000 0.000000 1.734960 
# 
# From -- ./inp_files/68000.got.cif
#   From: 2010.06.25/outbox.cif.g09.slc.cpg/sg71_34_cif.got.tgz:68000.got - 2010.06.28 04:59:45.
