data_PCOD8292435
_publ_section_title
;
Structure prediction by ZEFSAII (Michael W. Deem and Ramdas Pophale) SiO2 
 PCOD8292435
Probable space group: I M M M
;
_chemical_formula_sum "Si O2"
_cell_formula_units_Z 112
_cell_length_a 14.398841
_cell_length_b 17.591743
_cell_length_c 24.467231
_cell_angle_alpha 90.000000
_cell_angle_beta 90.000000
_cell_angle_gamma 90.000000
_cell_volume 6197.566993
_symmetry_space_group_name_H-M "I M M M"
_symmetry_group_IT_number 71
_symmetry_cell_setting 'orthorhombic'
loop_
_space_group_symop_operation_xyz
x,y,z
-x,-y,z
x,-y,-z
-x,y,-z
-x,-y,-z
x,y,-z
-x,y,z
x,-y,z
1/2+x,1/2+y,1/2+z
1/2-x,1/2-y,1/2+z
1/2+x,1/2-y,1/2-z
1/2-x,1/2+y,1/2-z
1/2-x,1/2-y,1/2-z
1/2+x,1/2+y,1/2-z
1/2-x,1/2+y,1/2+z
1/2+x,1/2-y,1/2+z
loop_
_atom_site_type_symbol
_atom_site_label
_atom_site_fract_x
_atom_site_fract_y
_atom_site_fract_z
Si Si1 0.786655 0.910680 0.749447
Si Si2 0.894000 0.813022 0.167021
Si Si3 0.394509 0.697983 0.173961
Si Si4 0.605602 0.825315 0.746335
Si Si5 0.102688 0.145421 0.559722
Si Si6 0.391628 0.229669 0.562254
Si Si7 0.293574 0.919355 0.437615
O O1 0.827566 0.875733 0.805743
O O2 0.834677 0.872179 0.696923
O O3 0.676219 0.895798 0.743871
O O4 0.805571 0.000000 0.748678
O O5 0.881748 0.731016 0.195294
O O6 0.868734 0.800249 0.102731
O O7 0.000000 0.841470 0.173145
O O8 0.500000 0.681014 0.192177
O O9 0.364355 0.778016 0.199579
O O10 0.383871 0.706302 0.108467
O O11 0.500000 0.856446 0.749752
O O12 0.112944 0.185957 0.500000
O O13 0.181526 0.081968 0.566037
O O14 0.000000 0.107561 0.564757
O O15 0.358874 0.249079 0.500000
O O16 0.500000 0.210929 0.563518
O O17 0.340161 0.155498 0.587944
O O18 0.327022 0.920772 0.500000
O O19 0.324507 0.000000 0.409809
#
# Coordination Sequence:
#
# PCOD8292435 Si02
#       7
#    16  16  16  16  16  16  16
#     4  11  22  33  52  77 100 129 162 206 256 297
#     4   9  18  34  55  75  99 130 164 206 249 291
#     4   9  18  33  53  74  98 130 167 207 244 288
#     4   9  19  35  53  72  97 132 167 200 245 295
#     4   9  18  31  47  70 100 132 165 200 240 284
#     4   9  18  32  51  74  98 130 170 205 241 290
#     4   9  18  29  42  64  95 133 170 202 239 282
#
# _framework density 18.071607
#
# number of rings (size 3 to 8) (size 9 to 14) (size 15 to 20)
#    0.000    2.714    0.000    3.000    4.000    2.571 
#    0.000    4.286    0.000    3.000    0.000    2.000 
#    0.000    0.000    0.000    6.857    0.000    0.000 
#
# Total GULP energy -693785.385681 kJ/mol
# GULP energy per Si atom -12389.024744 kJ/mol
# Density = 1.803048 g / cm^3
# Si number density = 18.071607 Si / 1000 Ang^3
#
#
#
# Elastic Constant Matrix: (Units=GPa)
#
#
# Indices 1 2 3 4 5 6 
#
# 1 78.0280 31.9392 19.0398 0.0000 0.0000 0.0000
# 2 31.9392 48.1176 22.0858 0.0000 0.0000 0.0000
# 3 19.0398 22.0858 101.0211 0.0000 0.0000 0.0000
# 4 0.0000 0.0000 0.0000 11.5125 0.0000 0.0000
# 5 0.0000 0.0000 0.0000 0.0000 15.8933 0.0000
# 6 0.0000 0.0000 0.0000 0.0000 0.0000 16.2979
#
#
#
# Elastic Compliance Matrix: (Units=1/GPa)
#
#
# Indices 1 2 3 4 5 6 
#
# 1 0.017663 -0.011333 -0.000851 0.000000 0.000000 0.000000
# 2 -0.011333 0.030373 -0.004504 0.000000 0.000000 0.000000
# 3 -0.000851 -0.004504 0.011044 0.000000 0.000000 0.000000
# 4 0.000000 0.000000 0.000000 0.086862 0.000000 0.000000
# 5 0.000000 0.000000 0.000000 0.000000 0.062920 0.000000
# 6 0.000000 0.000000 0.000000 0.000000 0.000000 0.061358
#
#
# Mechanical properties :
#
#
# Convention : Reuss Voigt Hill
#
# Bulk Modulus (GPa) = 38.90762 41.47738 40.19250
# Shear Modulus (GPa) = 16.01722 19.01418 17.51570
#
# Velocity S-wave (km/s) = 2.98034 3.24722 3.11664
# Velocity P-wave (km/s) = 5.78098 6.08775 5.93635
#
# Compressibility (1/GPa) = 0.02570191
#
# Stress axis : x y z
#
# Youngs Moduli (GPa) = 56.61650 32.92444 90.54628
#
# Poissons Ratio (x) = 0.37314 0.07707
# Poissons Ratio (y) = 0.64165 0.40784
# Poissons Ratio (z) = 0.04819 0.14830
#
# Static dielectric constant tensor:
#      x y z
#    x 3.510080 0.000000 0.000000 
#    y 0.000000 2.932210 0.000000 
#    z 0.000000 0.000000 3.609770 
# 
# 
# High freq. dielectric constant tensor:
#      x y z
#    x 1.714880 0.000000 0.000000 
#    y 0.000000 1.639490 0.000000 
#    z 0.000000 0.000000 1.701950 
# 
# From -- ./inp_files/65525.got.cif
#   From: 2010.06.25/outbox.cif.g09.slc.cpg/sg71_33_cif.got.tgz:65525.got - 2010.06.28 04:59:45.
