data_PCOD8292022
_publ_section_title
;
Structure prediction by ZEFSAII (Michael W. Deem and Ramdas Pophale) SiO2 
 PCOD8292022
Probable space group: I M M M
;
_chemical_formula_sum "Si O2"
_cell_formula_units_Z 80
_cell_length_a 18.839977
_cell_length_b 22.255436
_cell_length_c 11.145249
_cell_angle_alpha 90.000000
_cell_angle_beta 90.000000
_cell_angle_gamma 90.000000
_cell_volume 4673.112656
_symmetry_space_group_name_H-M "I M M M"
_symmetry_group_IT_number 71
_symmetry_cell_setting 'orthorhombic'
loop_
_space_group_symop_operation_xyz
x,y,z
-x,-y,z
x,-y,-z
-x,y,-z
-x,-y,-z
x,y,-z
-x,y,z
x,-y,z
1/2+x,1/2+y,1/2+z
1/2-x,1/2-y,1/2+z
1/2+x,1/2-y,1/2-z
1/2-x,1/2+y,1/2-z
1/2-x,1/2-y,1/2-z
1/2+x,1/2+y,1/2-z
1/2-x,1/2+y,1/2+z
1/2+x,1/2-y,1/2+z
loop_
_atom_site_type_symbol
_atom_site_label
_atom_site_fract_x
_atom_site_fract_y
_atom_site_fract_z
Si Si1 0.361557 0.740663 0.766658
Si Si2 0.613079 0.066105 0.000000
Si Si3 0.000000 0.239990 0.862551
Si Si4 0.500000 0.882801 0.361055
Si Si5 0.262886 0.831013 0.360789
Si Si6 0.352955 0.932732 0.263226
Si Si7 0.078433 0.301487 0.500000
O O1 0.431459 0.713437 0.704901
O O2 0.323892 0.783576 0.670840
O O3 0.310881 0.684490 0.795357
O O4 0.378176 0.780248 0.884067
O O5 0.660521 0.068958 0.120058
O O6 0.565599 0.126335 0.000000
O O7 0.572508 0.000000 0.000000
O O8 0.000000 0.311535 0.848995
O O9 0.000000 0.218984 0.000000
O O10 0.500000 0.902971 0.500000
O O11 0.430718 0.907161 0.294224
O O12 0.248091 0.828410 0.500000
O O13 0.289177 0.896889 0.324813
O O14 0.348684 0.000000 0.313737
O O15 0.000000 0.272010 0.500000
#
# Coordination Sequence:
#
# PCOD8292022 Si02
#       7
#    16   8   8   8  16  16   8
#     4  11  22  35  53  79 107 139 181 222 270 323
#     4  10  22  35  48  74 106 139 182 219 252 306
#     4  11  20  36  55  79 111 144 177 219 265 317
#     4  11  21  35  51  76 110 144 185 225 257 305
#     4  11  22  36  53  78 108 141 179 224 269 316
#     4  11  23  37  53  75 107 146 186 223 264 315
#     4  12  20  35  56  74 105 144 179 224 273 317
#
# _framework density 17.119211
#
# number of rings (size 3 to 8) (size 9 to 14) (size 15 to 20)
#    0.000    1.000    6.000    1.500    1.400    2.200 
#    1.800    0.000    0.000    0.000    0.000    0.700 
#    0.000    3.200    0.000    0.000    0.000    0.000 
#
# Total GULP energy -495936.881633 kJ/mol
# GULP energy per Si atom -12398.422041 kJ/mol
# Density = 1.708025 g / cm^3
# Si number density = 17.119211 Si / 1000 Ang^3
#
#
#
# Elastic Constant Matrix: (Units=GPa)
#
#
# Indices 1 2 3 4 5 6 
#
# 1 116.3826 42.7972 33.7123 0.0000 0.0000 0.0000
# 2 42.7972 64.1744 14.7501 0.0000 0.0000 0.0000
# 3 33.7123 14.7501 85.7816 0.0000 0.0000 0.0000
# 4 0.0000 0.0000 0.0000 19.9689 0.0000 0.0000
# 5 0.0000 0.0000 0.0000 0.0000 15.6625 0.0000
# 6 0.0000 0.0000 0.0000 0.0000 0.0000 17.6300
#
#
#
# Elastic Compliance Matrix: (Units=1/GPa)
#
#
# Indices 1 2 3 4 5 6 
#
# 1 0.012357 -0.007418 -0.003581 0.000000 0.000000 0.000000
# 2 -0.007418 0.020677 -0.000640 0.000000 0.000000 0.000000
# 3 -0.003581 -0.000640 0.013175 0.000000 0.000000 0.000000
# 4 0.000000 0.000000 0.000000 0.050078 0.000000 0.000000
# 5 0.000000 0.000000 0.000000 0.000000 0.063847 0.000000
# 6 0.000000 0.000000 0.000000 0.000000 0.000000 0.056721
#
#
# Mechanical properties :
#
#
# Convention : Reuss Voigt Hill
#
# Bulk Modulus (GPa) = 43.60922 49.87307 46.74115
# Shear Modulus (GPa) = 20.17948 22.32422 21.25185
#
# Velocity S-wave (km/s) = 3.43704 3.61507 3.52718
# Velocity P-wave (km/s) = 6.42496 6.82796 6.62952
#
# Compressibility (1/GPa) = 0.02293093
#
# Stress axis : x y z
#
# Youngs Moduli (GPa) = 80.92293 48.36385 75.90192
#
# Poissons Ratio (x) = 0.35876 0.27180
# Poissons Ratio (y) = 0.60028 0.04858
# Poissons Ratio (z) = 0.28978 0.03096
#
# Static dielectric constant tensor:
#      x y z
#    x 3.160120 0.000000 0.000000 
#    y 0.000000 3.121900 0.000000 
#    z 0.000000 0.000000 3.438090 
# 
# 
# High freq. dielectric constant tensor:
#      x y z
#    x 1.642160 0.000000 0.000000 
#    y 0.000000 1.629210 0.000000 
#    z 0.000000 0.000000 1.685530 
# 
# From -- ./inp_files/24176.got.cif
#   From: 2010.06.25/outbox.cif.g09.slc.cpg/sg71_13_cif.got.tgz:24176.got - 2010.06.28 04:59:45.
