data_PCOD8292363
_publ_section_title
;
Structure prediction by ZEFSAII (Michael W. Deem and Ramdas Pophale) SiO2 
 PCOD8292363
Probable space group: I M M M
;
_chemical_formula_sum "Si O2"
_cell_formula_units_Z 72
_cell_length_a 19.368102
_cell_length_b 8.961464
_cell_length_c 22.391160
_cell_angle_alpha 90.000000
_cell_angle_beta 90.000000
_cell_angle_gamma 90.000000
_cell_volume 3886.356365
_symmetry_space_group_name_H-M "I M M M"
_symmetry_group_IT_number 71
_symmetry_cell_setting 'orthorhombic'
loop_
_space_group_symop_operation_xyz
x,y,z
-x,-y,z
x,-y,-z
-x,y,-z
-x,-y,-z
x,y,-z
-x,y,z
x,-y,z
1/2+x,1/2+y,1/2+z
1/2-x,1/2-y,1/2+z
1/2+x,1/2-y,1/2-z
1/2-x,1/2+y,1/2-z
1/2-x,1/2-y,1/2-z
1/2+x,1/2+y,1/2-z
1/2-x,1/2+y,1/2+z
1/2+x,1/2-y,1/2+z
loop_
_atom_site_type_symbol
_atom_site_label
_atom_site_fract_x
_atom_site_fract_y
_atom_site_fract_z
Si Si1 0.420280 0.173417 0.786174
Si Si2 0.845938 0.823737 0.608287
Si Si3 0.696342 0.822580 0.432704
Si Si4 0.918535 0.668242 0.500000
Si Si5 0.076259 0.322597 0.150956
O O1 0.500000 0.203005 0.803067
O O2 0.370091 0.271318 0.826815
O O3 0.405695 0.225364 0.718444
O O4 0.402441 0.000000 0.795307
O O5 0.767341 0.771118 0.598031
O O6 0.894111 0.751627 0.558814
O O7 0.852816 0.000000 0.602917
O O8 0.692516 0.758608 0.500000
O O9 0.632759 0.755337 0.394466
O O10 0.691982 0.000000 0.434197
O O11 0.889416 0.500000 0.500000
O O12 0.000000 0.667870 0.500000
O O13 0.075860 0.500000 0.147853
O O14 0.000000 0.262525 0.133124
#
# Coordination Sequence:
#
# PCOD8292363 Si02
#       5
#    16  16  16   8  16
#     4   9  18  33  51  73 102 134 172 216 253 291
#     4  11  21  33  50  75 106 138 167 203 255 306
#     4   9  17  30  47  71 105 136 164 209 259 300
#     4  11  23  37  53  73  98 133 176 216 249 289
#     4   8  15  29  50  74 100 133 171 210 254 302
#
# _framework density 18.526350999999998
#
# number of rings (size 3 to 8) (size 9 to 14) (size 15 to 20)
#    0.000    2.556    1.111    3.000    0.000    5.333 
#    0.000    2.222    0.000    1.333    0.000    0.000 
#    0.000    0.889    0.000    0.000    0.000    0.000 
#
# Total GULP energy -446356.157312 kJ/mol
# GULP energy per Si atom -12398.782148 kJ/mol
# Density = 1.848418 g / cm^3
# Si number density = 18.526351 Si / 1000 Ang^3
#
#
#
# Elastic Constant Matrix: (Units=GPa)
#
#
# Indices 1 2 3 4 5 6 
#
# 1 140.4119 37.0964 96.8947 0.0000 0.0000 0.0000
# 2 37.0964 47.5340 33.4491 0.0000 0.0000 0.0000
# 3 96.8947 33.4491 138.2908 0.0000 0.0000 0.0000
# 4 0.0000 0.0000 0.0000 5.8261 0.0000 0.0000
# 5 0.0000 0.0000 0.0000 0.0000 31.8344 0.0000
# 6 0.0000 0.0000 0.0000 0.0000 0.0000 15.1403
#
#
#
# Elastic Compliance Matrix: (Units=1/GPa)
#
#
# Indices 1 2 3 4 5 6 
#
# 1 0.014751 -0.005109 -0.009100 0.000000 0.000000 0.000000
# 2 -0.005109 0.027122 -0.002981 0.000000 0.000000 0.000000
# 3 -0.009100 -0.002981 0.014328 0.000000 0.000000 0.000000
# 4 0.000000 0.000000 0.000000 0.171642 0.000000 0.000000
# 5 0.000000 0.000000 0.000000 0.000000 0.031413 0.000000
# 6 0.000000 0.000000 0.000000 0.000000 0.000000 0.066049
#
#
# Mechanical properties :
#
#
# Convention : Reuss Voigt Hill
#
# Bulk Modulus (GPa) = 45.82393 73.45746 59.64070
# Shear Modulus (GPa) = 13.62555 21.14659 17.38607
#
# Velocity S-wave (km/s) = 2.71489 3.38218 3.06674
# Velocity P-wave (km/s) = 5.88351 7.41542 6.69344
#
# Compressibility (1/GPa) = 0.02182266
#
# Stress axis : x y z
#
# Youngs Moduli (GPa) = 67.79101 36.87058 69.79319
#
# Poissons Ratio (x) = 0.18836 0.63511
# Poissons Ratio (y) = 0.34632 0.20803
# Poissons Ratio (z) = 0.61689 0.10990
#
# Static dielectric constant tensor:
#      x y z
#    x 3.671250 0.000000 0.000000 
#    y 0.000000 3.021720 0.000000 
#    z 0.000000 0.000000 3.668070 
# 
# 
# High freq. dielectric constant tensor:
#      x y z
#    x 1.725680 0.000000 0.000000 
#    y 0.000000 1.674010 0.000000 
#    z 0.000000 0.000000 1.728450 
# 
# From -- ./inp_files/7929.got.cif
#   From: 2010.06.25/outbox.cif.g09.slc.cpg/sg71_4_cif.got.tgz:7929.got - 2010.06.28 04:59:45.
