data_PCOD8292596
_publ_section_title
;
Structure prediction by ZEFSAII (Michael W. Deem and Ramdas Pophale) SiO2 
 PCOD8292596
Probable space group: I M M M
;
_chemical_formula_sum "Si O2"
_cell_formula_units_Z 72
_cell_length_a 10.230125
_cell_length_b 27.349038
_cell_length_c 13.678608
_cell_angle_alpha 90.000000
_cell_angle_beta 90.000000
_cell_angle_gamma 90.000000
_cell_volume 3827.056719
_symmetry_space_group_name_H-M "I M M M"
_symmetry_group_IT_number 71
_symmetry_cell_setting 'orthorhombic'
loop_
_space_group_symop_operation_xyz
x,y,z
-x,-y,z
x,-y,-z
-x,y,-z
-x,-y,-z
x,y,-z
-x,y,z
x,-y,z
1/2+x,1/2+y,1/2+z
1/2-x,1/2-y,1/2+z
1/2+x,1/2-y,1/2-z
1/2-x,1/2+y,1/2-z
1/2-x,1/2-y,1/2-z
1/2+x,1/2+y,1/2-z
1/2-x,1/2+y,1/2+z
1/2+x,1/2-y,1/2+z
loop_
_atom_site_type_symbol
_atom_site_label
_atom_site_fract_x
_atom_site_fract_y
_atom_site_fract_z
Si Si1 0.500000 0.245372 0.000000
Si Si2 0.766658 0.303456 0.000000
Si Si3 0.500000 0.700460 0.710483
Si Si4 0.846192 0.053496 0.000000
Si Si5 0.000000 0.772285 0.000000
Si Si6 0.500000 0.194908 0.795062
Si Si7 0.845856 0.943498 0.212325
Si Si8 0.253759 0.149297 0.295359
O O1 0.376477 0.280757 0.000000
O O2 0.500000 0.210452 0.907156
O O3 0.787805 0.337732 0.093603
O O4 0.870322 0.260096 0.000000
O O5 0.500000 0.691580 0.593693
O O6 0.500000 0.758597 0.723836
O O7 0.626810 0.678309 0.760370
O O8 0.806566 0.077937 0.103685
O O9 0.000000 0.046496 0.000000
O O10 0.781118 0.000000 0.000000
O O11 0.627374 0.162812 0.775085
O O12 0.771213 0.909099 0.289392
O O13 0.000000 0.938336 0.229375
O O14 0.802907 0.000000 0.225876
#
# Coordination Sequence:
#
# PCOD8292596 Si02
#       8
#     4   8   8   8   4   8  16  16
#     4  12  24  38  60  84 122 160 184 244 298 346
#     4  12  22  38  60  81 116 161 203 228 297 347
#     4  12  22  40  59  86 113 150 200 239 285 345
#     4   7  12  26  52  79 109 143 174 229 298 334
#     4  12  24  38  62  84 112 158 198 246 280 346
#     4  12  24  40  57  86 123 152 194 243 291 347
#     4   9  18  35  58  86 117 148 192 246 290 341
#     4  12  23  39  61  87 117 159 198 240 293 349
#
# _framework density 18.813414000000002
#
# number of rings (size 3 to 8) (size 9 to 14) (size 15 to 20)
#    0.000    1.222    5.556    3.333    0.000    1.778 
#    0.000    1.111    0.000    1.333    0.000    5.444 
#    0.000    0.000    0.000    0.000    0.000    0.000 
#
# Total GULP energy -446267.005833 kJ/mol
# GULP energy per Si atom -12396.305718 kJ/mol
# Density = 1.877059 g / cm^3
# Si number density = 18.813414 Si / 1000 Ang^3
#
#
#
# Elastic Constant Matrix: (Units=GPa)
#
#
# Indices 1 2 3 4 5 6 
#
# 1 79.4436 19.9070 -0.4721 0.0005 0.0000 0.0000
# 2 19.9070 89.4502 18.5986 0.0007 -0.0003 0.0001
# 3 -0.4721 18.5986 106.6448 0.0016 -0.0010 0.0006
# 4 0.0005 0.0007 0.0016 22.8337 -0.0003 0.0003
# 5 0.0000 -0.0003 -0.0010 -0.0003 26.3231 0.0000
# 6 0.0000 0.0001 0.0006 0.0003 0.0000 0.6566
#
#
#
# Elastic Compliance Matrix: (Units=1/GPa)
#
#
# Indices 1 2 3 4 5 6 
#
# 1 0.013368 -0.003100 0.000600 0.000000 0.000000 -0.000001
# 2 -0.003100 0.012319 -0.002162 0.000000 0.000000 0.000000
# 3 0.000600 -0.002162 0.009757 -0.000001 0.000000 -0.000008
# 4 0.000000 0.000000 -0.000001 0.043795 0.000001 -0.000021
# 5 0.000000 0.000000 0.000000 0.000001 0.037989 0.000002
# 6 -0.000001 0.000000 -0.000008 -0.000021 0.000002 1.523021
#
#
# Mechanical properties :
#
#
# Convention : Reuss Voigt Hill
#
# Bulk Modulus (GPa) = 38.28600 39.06728 38.67664
# Shear Modulus (GPa) = 3.01517 25.79636 14.40577
#
# Velocity S-wave (km/s) = 1.26734 3.70695 2.77016
# Velocity P-wave (km/s) = 4.74722 6.25561 5.55287
#
# Compressibility (1/GPa) = 0.02611921
#
# Stress axis : x y z
#
# Youngs Moduli (GPa) = 74.80647 81.17688 102.49429
#
# Poissons Ratio (x) = 0.25162 -0.06147
# Poissons Ratio (y) = 0.23188 0.22160
# Poissons Ratio (z) = -0.04487 0.17551
#
# Static dielectric constant tensor:
#      x y z
#    x 3.253010 0.000000 0.000000 
#    y 0.000000 3.393960 0.000000 
#    z 0.000000 0.000000 3.715650 
# 
# 
# High freq. dielectric constant tensor:
#      x y z
#    x 1.716500 0.000000 0.000000 
#    y 0.000000 1.717120 0.000000 
#    z 0.000000 0.000000 1.737980 
# 
# From -- ./inp_files/31537.got.cif
#   From: 2010.06.25/outbox.cif.g09.slc.cpg/sg71_16_cif.got.tgz:31537.got - 2010.06.28 04:59:45.
