data_PCOD8292179
_publ_section_title
;
Structure prediction by ZEFSAII (Michael W. Deem and Ramdas Pophale) SiO2 
 PCOD8292179
Probable space group: I M M M
;
_chemical_formula_sum "Si O2"
_cell_formula_units_Z 88
_cell_length_a 21.554844
_cell_length_b 11.403577
_cell_length_c 17.524802
_cell_angle_alpha 90.000000
_cell_angle_beta 90.000000
_cell_angle_gamma 90.000000
_cell_volume 4307.637047
_symmetry_space_group_name_H-M "I M M M"
_symmetry_group_IT_number 71
_symmetry_cell_setting 'orthorhombic'
loop_
_space_group_symop_operation_xyz
x,y,z
-x,-y,z
x,-y,-z
-x,y,-z
-x,-y,-z
x,y,-z
-x,y,z
x,-y,z
1/2+x,1/2+y,1/2+z
1/2-x,1/2-y,1/2+z
1/2+x,1/2-y,1/2-z
1/2-x,1/2+y,1/2-z
1/2-x,1/2-y,1/2-z
1/2+x,1/2+y,1/2-z
1/2-x,1/2+y,1/2+z
1/2+x,1/2-y,1/2+z
loop_
_atom_site_type_symbol
_atom_site_label
_atom_site_fract_x
_atom_site_fract_y
_atom_site_fract_z
Si Si1 0.927574 0.000000 0.683537
Si Si2 0.930487 0.633484 0.229656
Si Si3 0.631066 0.732171 0.140165
Si Si4 0.071294 0.638997 0.500000
Si Si5 0.574606 0.500000 0.358657
Si Si6 0.887693 0.751051 0.913383
Si Si7 0.256449 0.135176 0.588503
O O1 0.905301 0.110624 0.635481
O O2 0.903304 0.000000 0.770644
O O3 0.000000 0.000000 0.686778
O O4 0.908603 0.500000 0.229728
O O5 0.881663 0.706939 0.278771
O O6 0.932893 0.681624 0.143473
O O7 0.000000 0.646743 0.263890
O O8 0.607014 0.816399 0.074083
O O9 0.703764 0.704431 0.134830
O O10 0.074517 0.500000 0.500000
O O11 0.000000 0.682225 0.500000
O O12 0.500000 0.500000 0.367118
O O13 0.604945 0.610737 0.400433
O O14 0.818329 0.708133 0.895848
O O15 0.906431 0.719542 0.000000
O O16 0.238008 0.136225 0.500000
O O17 0.263514 0.000000 0.616676
#
# Coordination Sequence:
#
# PCOD8292179 Si02
#       7
#     8  16  16   8   8  16  16
#     4  11  22  38  66  98 133 169 215 274 332 391
#     4  11  24  42  64  94 131 169 216 274 333 393
#     4  12  22  41  65  96 129 177 220 269 330 391
#     4  11  24  41  63  95 133 176 225 278 331 384
#     4  11  23  44  68 100 138 167 208 272 335 390
#     4  11  24  43  67  96 126 171 215 267 329 395
#     4  10  22  43  65  92 133 172 219 274 323 382
#
# _framework density 20.428834999999999
#
# number of rings (size 3 to 8) (size 9 to 14) (size 15 to 20)
#    0.000    1.000    3.636    3.545    0.000    5.455 
#    3.273    1.818    0.000    0.000    0.000    0.000 
#    0.000    0.000    0.000    0.000    0.000    0.000 
#
# Total GULP energy -545763.447667 kJ/mol
# GULP energy per Si atom -12403.714720 kJ/mol
# Density = 2.038234 g / cm^3
# Si number density = 20.428835 Si / 1000 Ang^3
#
#
#
# Elastic Constant Matrix: (Units=GPa)
#
#
# Indices 1 2 3 4 5 6 
#
# 1 93.3318 56.5202 34.6012 0.0000 0.0000 0.0000
# 2 56.5202 150.6217 35.8451 0.0000 0.0000 0.0000
# 3 34.6012 35.8451 85.1505 0.0000 0.0000 0.0000
# 4 0.0000 0.0000 0.0000 36.0378 0.0000 0.0000
# 5 0.0000 0.0000 0.0000 0.0000 33.2968 0.0000
# 6 0.0000 0.0000 0.0000 0.0000 0.0000 65.5636
#
#
#
# Elastic Compliance Matrix: (Units=1/GPa)
#
#
# Indices 1 2 3 4 5 6 
#
# 1 0.015087 -0.004670 -0.004165 0.000000 0.000000 0.000000
# 2 -0.004670 0.008824 -0.001817 0.000000 0.000000 0.000000
# 3 -0.004165 -0.001817 0.014201 0.000000 0.000000 0.000000
# 4 0.000000 0.000000 0.000000 0.027749 0.000000 0.000000
# 5 0.000000 0.000000 0.000000 0.000000 0.030033 0.000000
# 6 0.000000 0.000000 0.000000 0.000000 0.000000 0.015252
#
#
# Mechanical properties :
#
#
# Convention : Reuss Voigt Hill
#
# Bulk Modulus (GPa) = 59.49348 64.78189 62.13768
# Shear Modulus (GPa) = 36.21846 40.45548 38.33697
#
# Velocity S-wave (km/s) = 4.21516 4.45490 4.33669
# Velocity P-wave (km/s) = 7.27156 7.63160 7.45376
#
# Compressibility (1/GPa) = 0.01680857
#
# Stress axis : x y z
#
# Youngs Moduli (GPa) = 66.28436 113.32799 70.41749
#
# Poissons Ratio (x) = 0.52925 0.29326
# Poissons Ratio (y) = 0.30955 0.12794
# Poissons Ratio (z) = 0.27604 0.20590
#
# Static dielectric constant tensor:
#      x y z
#    x 3.607180 0.000000 0.000000 
#    y 0.000000 3.846380 0.000000 
#    z 0.000000 0.000000 3.826330 
# 
# 
# High freq. dielectric constant tensor:
#      x y z
#    x 1.794530 0.000000 0.000000 
#    y 0.000000 1.814310 0.000000 
#    z 0.000000 0.000000 1.801130 
# 
# From -- ./inp_files/47129.got.cif
#   From: 2010.06.25/outbox.cif.g09.slc.cpg/sg71_24_cif.got.tgz:47129.got - 2010.06.28 04:59:45.
