data_PCOD8292647
_publ_section_title
;
Structure prediction by ZEFSAII (Michael W. Deem and Ramdas Pophale) SiO2 
 PCOD8292647
Probable space group: I M M M
;
_chemical_formula_sum "Si O2"
_cell_formula_units_Z 80
_cell_length_a 25.761023
_cell_length_b 19.886511
_cell_length_c 9.684351
_cell_angle_alpha 90.000000
_cell_angle_beta 90.000000
_cell_angle_gamma 90.000000
_cell_volume 4961.262679
_symmetry_space_group_name_H-M "I M M M"
_symmetry_group_IT_number 71
_symmetry_cell_setting 'orthorhombic'
loop_
_space_group_symop_operation_xyz
x,y,z
-x,-y,z
x,-y,-z
-x,y,-z
-x,-y,-z
x,y,-z
-x,y,z
x,-y,z
1/2+x,1/2+y,1/2+z
1/2-x,1/2-y,1/2+z
1/2+x,1/2-y,1/2-z
1/2-x,1/2+y,1/2-z
1/2-x,1/2-y,1/2-z
1/2+x,1/2+y,1/2-z
1/2-x,1/2+y,1/2+z
1/2+x,1/2-y,1/2+z
loop_
_atom_site_type_symbol
_atom_site_label
_atom_site_fract_x
_atom_site_fract_y
_atom_site_fract_z
Si Si1 0.941997 0.178176 0.835823
Si Si2 0.642099 0.575090 0.664499
Si Si3 0.243407 0.420137 0.346614
Si Si4 0.350571 0.078271 0.661068
Si Si5 0.442513 0.171335 0.664081
O O1 0.900803 0.125558 0.772012
O O2 0.928322 0.253485 0.784455
O O3 0.000000 0.158225 0.786586
O O4 0.939264 0.175887 0.000000
O O5 0.638814 0.572758 0.500000
O O6 0.631865 0.500000 0.723534
O O7 0.699438 0.601920 0.706770
O O8 0.232255 0.390871 0.500000
O O9 0.242752 0.500000 0.353638
O O10 0.199882 0.393925 0.240971
O O11 0.341164 0.092132 0.500000
O O12 0.400282 0.118460 0.719772
O O13 0.360713 0.000000 0.690662
O O14 0.443046 0.169755 0.500000
O O15 0.500000 0.151146 0.718763
#
# Coordination Sequence:
#
# PCOD8292647 Si02
#       5
#    16  16  16  16  16
#     4   8  13  21  33  50  74 101 124 150 188 228
#     4   8  13  21  34  52  73  99 129 154 179 219
#     4   8  14  25  39  54  76 104 126 148 186 229
#     4   9  16  25  39  58  76  96 127 163 189 214
#     4   8  14  24  36  51  73  98 121 150 193 234
#
# _framework density 16.124925999999999
#
# number of rings (size 3 to 8) (size 9 to 14) (size 15 to 20)
#    0.000    3.800    0.000    2.400    0.000    0.800 
#    0.000    5.000    0.000    0.600    0.000    2.800 
#    0.000    2.400    0.000    7.800    0.000    8.000 
#
# Total GULP energy -495616.838083 kJ/mol
# GULP energy per Si atom -12390.420952 kJ/mol
# Density = 1.608823 g / cm^3
# Si number density = 16.124926 Si / 1000 Ang^3
#
#
#
# Elastic Constant Matrix: (Units=GPa)
#
#
# Indices 1 2 3 4 5 6 
#
# 1 170.4493 82.8541 33.6810 0.0000 0.0000 0.0000
# 2 82.8541 77.3038 19.6870 0.0000 0.0000 0.0000
# 3 33.6810 19.6870 21.3023 0.0000 0.0000 0.0000
# 4 0.0000 0.0000 0.0000 6.2906 0.0000 0.0000
# 5 0.0000 0.0000 0.0000 0.0000 18.6391 0.0000
# 6 0.0000 0.0000 0.0000 0.0000 0.0000 19.1845
#
#
#
# Elastic Compliance Matrix: (Units=1/GPa)
#
#
# Indices 1 2 3 4 5 6 
#
# 1 0.013902 -0.012166 -0.010738 0.000000 0.000000 0.000000
# 2 -0.012166 0.027564 -0.006238 0.000000 0.000000 0.000000
# 3 -0.010738 -0.006238 0.069686 0.000000 0.000000 0.000000
# 4 0.000000 0.000000 0.000000 0.158968 0.000000 0.000000
# 5 0.000000 0.000000 0.000000 0.000000 0.053651 0.000000
# 6 0.000000 0.000000 0.000000 0.000000 0.000000 0.052126
#
#
# Mechanical properties :
#
#
# Convention : Reuss Voigt Hill
#
# Bulk Modulus (GPa) = 18.91489 60.16663 39.54076
# Shear Modulus (GPa) = 11.06677 17.67839 14.37258
#
# Velocity S-wave (km/s) = 2.62260 3.31469 2.98875
# Velocity P-wave (km/s) = 4.57454 7.21411 6.04027
#
# Compressibility (1/GPa) = 0.05286839
#
# Stress axis : x y z
#
# Youngs Moduli (GPa) = 71.92982 36.27880 14.35013
#
# Poissons Ratio (x) = 0.44137 0.15409
# Poissons Ratio (y) = 0.87510 0.08952
# Poissons Ratio (z) = 0.77235 0.22632
#
# Static dielectric constant tensor:
#      x y z
#    x 3.544990 0.000000 0.000000 
#    y 0.000000 3.106320 0.000000 
#    z 0.000000 0.000000 2.569030 
# 
# 
# High freq. dielectric constant tensor:
#      x y z
#    x 1.634240 0.000000 0.000000 
#    y 0.000000 1.602380 0.000000 
#    z 0.000000 0.000000 1.550920 
# 
# From -- ./inp_files/14531.got.cif
#   From: 2010.06.25/outbox.cif.g09.slc.cpg/sg71_8_cif.got.tgz:14531.got - 2010.06.28 04:59:45.
