data_PCOD8292096
_publ_section_title
;
Structure prediction by ZEFSAII (Michael W. Deem and Ramdas Pophale) SiO2 
 PCOD8292096
Probable space group: I M M M
;
_chemical_formula_sum "Si O2"
_cell_formula_units_Z 56
_cell_length_a 18.374755
_cell_length_b 10.007821
_cell_length_c 14.010843
_cell_angle_alpha 90.000000
_cell_angle_beta 90.000000
_cell_angle_gamma 90.000000
_cell_volume 2576.471558
_symmetry_space_group_name_H-M "I M M M"
_symmetry_group_IT_number 71
_symmetry_cell_setting 'orthorhombic'
loop_
_space_group_symop_operation_xyz
x,y,z
-x,-y,z
x,-y,-z
-x,y,-z
-x,-y,-z
x,y,-z
-x,y,z
x,-y,z
1/2+x,1/2+y,1/2+z
1/2-x,1/2-y,1/2+z
1/2+x,1/2-y,1/2-z
1/2-x,1/2+y,1/2-z
1/2-x,1/2-y,1/2-z
1/2+x,1/2+y,1/2-z
1/2-x,1/2+y,1/2+z
1/2+x,1/2-y,1/2+z
loop_
_atom_site_type_symbol
_atom_site_label
_atom_site_fract_x
_atom_site_fract_y
_atom_site_fract_z
Si Si1 0.916805 0.768912 0.788193
Si Si2 0.084950 0.500000 0.107023
Si Si3 0.216758 0.146044 0.892198
Si Si4 0.842102 0.842636 0.609835
O O1 0.892217 0.625785 0.829274
O O2 0.858202 0.868603 0.833501
O O3 0.908767 0.785583 0.673547
O O4 0.000000 0.803679 0.816480
O O5 0.000000 0.500000 0.090358
O O6 0.121766 0.500000 0.000000
O O7 0.270423 0.262496 0.855107
O O8 0.255168 0.000000 0.885098
O O9 0.194559 0.180247 0.000000
O O10 0.861043 0.810136 0.500000
O O11 0.828612 0.000000 0.625165
#
# Coordination Sequence:
#
# PCOD8292096 Si02
#       4
#    16   8  16  16
#     4  11  23  38  61  92 125 163 205 257 316 375
#     4   9  20  38  59  89 127 163 199 244 308 382
#     4  10  22  39  62  91 122 160 207 261 317 373
#     4  10  23  42  64  90 123 169 218 259 305 366
#
# _framework density 21.735151999999999
#
# number of rings (size 3 to 8) (size 9 to 14) (size 15 to 20)
#    0.000    1.857    0.000    2.571    4.000    4.571 
#    0.000    2.857    0.000    2.571    0.000    0.000 
#    0.000    0.000    0.000    0.000    0.000    0.000 
#
# Total GULP energy -347012.974667 kJ/mol
# GULP energy per Si atom -12393.320524 kJ/mol
# Density = 2.168568 g / cm^3
# Si number density = 21.735152 Si / 1000 Ang^3
#
#
#
# Elastic Constant Matrix: (Units=GPa)
#
#
# Indices 1 2 3 4 5 6 
#
# 1 80.4055 34.4873 26.4603 0.0000 0.0000 0.0000
# 2 34.4873 132.7979 51.4281 0.0000 0.0000 0.0000
# 3 26.4603 51.4281 107.9722 0.0000 0.0000 0.0000
# 4 0.0000 0.0000 0.0000 33.0195 0.0000 0.0000
# 5 0.0000 0.0000 0.0000 0.0000 29.9006 0.0000
# 6 0.0000 0.0000 0.0000 0.0000 0.0000 27.2798
#
#
#
# Elastic Compliance Matrix: (Units=1/GPa)
#
#
# Indices 1 2 3 4 5 6 
#
# 1 0.014389 -0.002907 -0.002141 0.000000 0.000000 0.000000
# 2 -0.002907 0.009821 -0.003965 0.000000 0.000000 0.000000
# 3 -0.002141 -0.003965 0.011675 0.000000 0.000000 0.000000
# 4 0.000000 0.000000 0.000000 0.030285 0.000000 0.000000
# 5 0.000000 0.000000 0.000000 0.000000 0.033444 0.000000
# 6 0.000000 0.000000 0.000000 0.000000 0.000000 0.036657
#
#
# Mechanical properties :
#
#
# Convention : Reuss Voigt Hill
#
# Bulk Modulus (GPa) = 56.00170 60.65858 58.33014
# Shear Modulus (GPa) = 31.20096 31.95996 31.58046
#
# Velocity S-wave (km/s) = 3.79292 3.83878 3.81592
# Velocity P-wave (km/s) = 6.70843 6.90050 6.80514
#
# Compressibility (1/GPa) = 0.01785660
#
# Stress axis : x y z
#
# Youngs Moduli (GPa) = 69.49903 101.82355 85.65229
#
# Poissons Ratio (x) = 0.29605 0.18341
# Poissons Ratio (y) = 0.20206 0.33963
# Poissons Ratio (z) = 0.14882 0.40376
#
# Static dielectric constant tensor:
#      x y z
#    x 3.567390 0.000000 0.000000 
#    y 0.000000 4.024100 0.000000 
#    z 0.000000 0.000000 4.182870 
# 
# 
# High freq. dielectric constant tensor:
#      x y z
#    x 1.824770 0.000000 0.000000 
#    y 0.000000 1.862030 0.000000 
#    z 0.000000 0.000000 1.867600 
# 
# From -- ./inp_files/5000.got.cif
#   From: 2010.06.25/outbox.cif.g09.slc.cpg/sg71_3_cif.got.tgz:5000.got - 2010.06.28 04:59:45.
