data_PCOD8292737
_publ_section_title
;
Structure prediction by ZEFSAII (Michael W. Deem and Ramdas Pophale) SiO2 
 PCOD8292737
Probable space group: I M M M
;
_chemical_formula_sum "Si O2"
_cell_formula_units_Z 88
_cell_length_a 9.749674
_cell_length_b 15.953728
_cell_length_c 31.635317
_cell_angle_alpha 90.000000
_cell_angle_beta 90.000000
_cell_angle_gamma 90.000000
_cell_volume 4920.672583
_symmetry_space_group_name_H-M "I M M M"
_symmetry_group_IT_number 71
_symmetry_cell_setting 'orthorhombic'
loop_
_space_group_symop_operation_xyz
x,y,z
-x,-y,z
x,-y,-z
-x,y,-z
-x,-y,-z
x,y,-z
-x,y,z
x,-y,z
1/2+x,1/2+y,1/2+z
1/2-x,1/2-y,1/2+z
1/2+x,1/2-y,1/2-z
1/2-x,1/2+y,1/2-z
1/2-x,1/2-y,1/2-z
1/2+x,1/2+y,1/2-z
1/2-x,1/2+y,1/2+z
1/2+x,1/2-y,1/2+z
loop_
_atom_site_type_symbol
_atom_site_label
_atom_site_fract_x
_atom_site_fract_y
_atom_site_fract_z
Si Si1 0.161790 0.678641 0.047338
Si Si2 0.156671 0.173513 0.804612
Si Si3 0.336784 0.336367 0.401106
Si Si4 0.337563 0.000000 0.670369
Si Si5 0.163341 0.000000 0.951444
Si Si6 0.335928 0.000000 0.423172
Si Si7 0.343675 0.141508 0.730975
O O1 0.222719 0.750566 0.078186
O O2 0.221997 0.585253 0.055526
O O3 0.000000 0.674252 0.054296
O O4 0.199638 0.706058 0.000000
O O5 0.211098 0.160230 0.852318
O O6 0.254200 0.123146 0.772766
O O7 0.169836 0.268743 0.790230
O O8 0.000000 0.141713 0.800645
O O9 0.500000 0.334235 0.403282
O O10 0.281645 0.417416 0.426813
O O11 0.274828 0.000000 0.623891
O O12 0.285608 0.918810 0.694954
O O13 0.500000 0.000000 0.666170
O O14 0.000000 0.000000 0.951434
O O15 0.217360 0.000000 0.000000
O O16 0.500000 0.000000 0.425423
O O17 0.500000 0.121151 0.743509
#
# Coordination Sequence:
#
# PCOD8292737 Si02
#       7
#    16  16  16   8   8   8  16
#     4   9  15  22  33  51  76 104 132 164 202 243
#     4   9  17  29  44  62  84 111 141 174 212 249
#     4   9  16  25  37  53  76 106 137 166 200 245
#     4   9  16  26  40  57  78 108 143 173 204 249
#     4   9  16  25  36  52  77 108 137 165 201 245
#     4   9  15  22  34  52  74 101 134 167 199 242
#     4   9  17  29  44  61  83 111 142 174 208 248
#
# _framework density 17.883734
#
# number of rings (size 3 to 8) (size 9 to 14) (size 15 to 20)
#    0.000    3.000    0.000    1.909    0.000    8.364 
#    0.000    1.364    0.000    0.000    0.000    0.000 
#    0.000    3.636    0.000    0.727    0.000   29.091 
#
# Total GULP energy -545273.255089 kJ/mol
# GULP energy per Si atom -12392.573979 kJ/mol
# Density = 1.784303 g / cm^3
# Si number density = 17.883734 Si / 1000 Ang^3
#
#
#
# Elastic Constant Matrix: (Units=GPa)
#
#
# Indices 1 2 3 4 5 6 
#
# 1 19.8966 8.6372 21.2683 0.0000 0.0000 0.0000
# 2 8.6372 86.4930 41.0397 0.0000 0.0000 0.0000
# 3 21.2683 41.0397 135.0587 0.0000 0.0000 0.0000
# 4 0.0000 0.0000 0.0000 40.2003 0.0000 0.0000
# 5 0.0000 0.0000 0.0000 0.0000 18.0461 0.0000
# 6 0.0000 0.0000 0.0000 0.0000 0.0000 7.3393
#
#
#
# Elastic Compliance Matrix: (Units=1/GPa)
#
#
# Indices 1 2 3 4 5 6 
#
# 1 0.060667 -0.001782 -0.009012 0.000000 0.000000 0.000000
# 2 -0.001782 0.013562 -0.003840 0.000000 0.000000 0.000000
# 3 -0.009012 -0.003840 0.009990 0.000000 0.000000 0.000000
# 4 0.000000 0.000000 0.000000 0.024875 0.000000 0.000000
# 5 0.000000 0.000000 0.000000 0.000000 0.055414 0.000000
# 6 0.000000 0.000000 0.000000 0.000000 0.000000 0.136253
#
#
# Mechanical properties :
#
#
# Convention : Reuss Voigt Hill
#
# Bulk Modulus (GPa) = 18.19840 42.59318 30.39579
# Shear Modulus (GPa) = 14.35354 24.48402 19.41878
#
# Velocity S-wave (km/s) = 2.83610 3.70410 3.29878
# Velocity P-wave (km/s) = 4.57413 6.49325 5.61627
#
# Compressibility (1/GPa) = 0.05494989
#
# Stress axis : x y z
#
# Youngs Moduli (GPa) = 16.48355 73.73665 100.09750
#
# Poissons Ratio (x) = 0.13141 0.90207
# Poissons Ratio (y) = 0.02938 0.38441
# Poissons Ratio (z) = 0.14855 0.28317
#
# Static dielectric constant tensor:
#      x y z
#    x 2.676540 0.000000 0.000000 
#    y 0.000000 3.483170 0.000000 
#    z 0.000000 0.000000 3.568420 
# 
# 
# High freq. dielectric constant tensor:
#      x y z
#    x 1.600050 0.000000 0.000000 
#    y 0.000000 1.703240 0.000000 
#    z 0.000000 0.000000 1.709790 
# 
# From -- ./inp_files/69225.got.cif
#   From: 2010.06.25/outbox.cif.g09.slc.cpg/sg71_35_cif.got.tgz:69225.got - 2010.06.28 04:59:45.
