data_PCOD8292833
_publ_section_title
;
Structure prediction by ZEFSAII (Michael W. Deem and Ramdas Pophale) SiO2 
 PCOD8292833
Probable space group: I B A M
;
_chemical_formula_sum "Si O2"
_cell_formula_units_Z 64
_cell_length_a 16.909612
_cell_length_b 13.192040
_cell_length_c 16.050831
_cell_angle_alpha 90.000000
_cell_angle_beta 90.000000
_cell_angle_gamma 90.000000
_cell_volume 3580.495433
_symmetry_space_group_name_H-M "I B A M"
_symmetry_group_IT_number 72
_symmetry_cell_setting 'orthorhombic'
loop_
_space_group_symop_operation_xyz
x,y,z
-x,-y,z
x,-y,1/2-z
-x,y,1/2-z
-x,-y,-z
x,y,-z
-x,y,1/2+z
x,-y,1/2+z
1/2+x,1/2+y,1/2+z
1/2-x,1/2-y,1/2+z
1/2+x,1/2-y,-z
1/2-x,1/2+y,-z
1/2-x,1/2-y,1/2-z
1/2+x,1/2+y,1/2-z
1/2-x,1/2+y,z
1/2+x,1/2-y,z
loop_
_atom_site_type_symbol
_atom_site_label
_atom_site_fract_x
_atom_site_fract_y
_atom_site_fract_z
Si Si1 0.095240 0.832740 0.000000
Si Si2 0.080808 0.555789 0.831670
Si Si3 0.341391 0.545118 0.000000
Si Si4 0.500000 0.764549 0.250000
Si Si5 0.336639 0.891724 0.500000
Si Si6 0.467292 0.394745 0.370036
O O1 0.139723 0.725690 0.000000
O O2 0.038563 0.844267 0.921288
O O3 0.161329 0.922302 0.000000
O O4 0.120291 0.500000 0.750000
O O5 0.133540 0.553634 0.915029
O O6 0.000000 0.500000 0.855324
O O7 0.059673 0.670267 0.806249
O O8 0.387886 0.584792 0.079958
O O9 0.256674 0.596499 0.000000
O O10 0.556479 0.689002 0.302152
O O11 0.500000 0.500000 0.331876
#
# Coordination Sequence:
#
# PCOD8292833 Si02
#       6
#     8  16   8   8   8  16
#     4   9  18  36  56  78 100 153 191 219 270 340
#     4   9  21  37  56  86 110 142 200 235 266 337
#     4   9  22  36  51  87 120 138 191 234 274 346
#     4  10  16  32  58  84 108 140 200 230 266 330
#     4  12  19  40  61  77 118 157 172 233 305 324
#     4   9  17  34  57  80 110 142 188 233 270 324
#
# _framework density 17.874621999999999
#
# number of rings (size 3 to 8) (size 9 to 14) (size 15 to 20)
#    0.000    2.750    2.500    2.250    0.000    0.000 
#    9.000    6.250    0.000    0.000    0.000    0.000 
#    0.000    0.000    0.000    0.000    0.000    0.000 
#
# Total GULP energy -396434.180884 kJ/mol
# GULP energy per Si atom -12388.568153 kJ/mol
# Density = 1.783394 g / cm^3
# Si number density = 17.874622 Si / 1000 Ang^3
#
#
#
# Elastic Constant Matrix: (Units=GPa)
#
#
# Indices 1 2 3 4 5 6 
#
# 1 102.6890 50.8009 44.6399 0.0000 0.0000 0.0000
# 2 50.8009 131.9345 58.4645 0.0000 0.0000 0.0000
# 3 44.6399 58.4645 115.5371 0.0000 0.0000 0.0000
# 4 0.0000 0.0000 0.0000 10.8879 0.0000 0.0000
# 5 0.0000 0.0000 0.0000 0.0000 12.4294 0.0000
# 6 0.0000 0.0000 0.0000 0.0000 0.0000 22.6419
#
#
#
# Elastic Compliance Matrix: (Units=1/GPa)
#
#
# Indices 1 2 3 4 5 6 
#
# 1 0.012876 -0.003549 -0.003179 0.000000 0.000000 0.000000
# 2 -0.003549 0.010749 -0.004068 0.000000 0.000000 0.000000
# 3 -0.003179 -0.004068 0.011942 0.000000 0.000000 0.000000
# 4 0.000000 0.000000 0.000000 0.091845 0.000000 0.000000
# 5 0.000000 0.000000 0.000000 0.000000 0.080454 0.000000
# 6 0.000000 0.000000 0.000000 0.000000 0.000000 0.044166
#
#
# Mechanical properties :
#
#
# Convention : Reuss Voigt Hill
#
# Bulk Modulus (GPa) = 71.55775 73.10791 72.33283
# Shear Modulus (GPa) = 17.96740 22.27552 20.12146
#
# Velocity S-wave (km/s) = 3.17391 3.53400 3.35879
# Velocity P-wave (km/s) = 7.31790 7.59219 7.45631
#
# Compressibility (1/GPa) = 0.01397473
#
# Stress axis : x y z
#
# Youngs Moduli (GPa) = 77.66503 93.03472 83.73915
#
# Poissons Ratio (x) = 0.33019 0.26620
# Poissons Ratio (y) = 0.27564 0.34063
# Poissons Ratio (z) = 0.24689 0.37845
#
# Static dielectric constant tensor:
#      x y z
#    x 2.834460 0.000000 0.000000 
#    y 0.000000 3.488550 0.000000 
#    z 0.000000 0.000000 3.672750 
# 
# 
# High freq. dielectric constant tensor:
#      x y z
#    x 1.644620 0.000000 0.000000 
#    y 0.000000 1.710340 0.000000 
#    z 0.000000 0.000000 1.702940 
# 
# From -- ./inp_files/28871.got.cif
#   From: 2010.03.12/outbox.cif.g09.slc.cpg/sg72_15_cif.got.tgz:28871.got - 2010.04.16 14:54:00.
