data_PCOD8292164
_publ_section_title
;
Structure prediction by ZEFSAII (Michael W. Deem and Ramdas Pophale) SiO2 
 PCOD8292164
Probable space group: I M M M
;
_chemical_formula_sum "Si O2"
_cell_formula_units_Z 104
_cell_length_a 9.179678
_cell_length_b 21.684711
_cell_length_c 26.790500
_cell_angle_alpha 90.000000
_cell_angle_beta 90.000000
_cell_angle_gamma 90.000000
_cell_volume 5332.881151
_symmetry_space_group_name_H-M "I M M M"
_symmetry_group_IT_number 71
_symmetry_cell_setting 'orthorhombic'
loop_
_space_group_symop_operation_xyz
x,y,z
-x,-y,z
x,-y,-z
-x,y,-z
-x,-y,-z
x,y,-z
-x,y,z
x,-y,z
1/2+x,1/2+y,1/2+z
1/2-x,1/2-y,1/2+z
1/2+x,1/2-y,1/2-z
1/2-x,1/2+y,1/2-z
1/2-x,1/2-y,1/2-z
1/2+x,1/2+y,1/2-z
1/2-x,1/2+y,1/2+z
1/2+x,1/2-y,1/2+z
loop_
_atom_site_type_symbol
_atom_site_label
_atom_site_fract_x
_atom_site_fract_y
_atom_site_fract_z
Si Si1 0.829455 0.733373 0.299547
Si Si2 0.166404 0.270789 0.109755
Si Si3 0.829404 0.432152 0.500000
Si Si4 0.665137 0.388941 0.306564
Si Si5 0.325443 0.500000 0.121335
Si Si6 0.828184 0.000000 0.737026
Si Si7 0.160080 0.130814 0.916468
Si Si8 0.669749 0.896531 0.557532
O O1 0.750000 0.750000 0.250000
O O2 0.771876 0.779051 0.342793
O O3 0.786543 0.663277 0.308475
O O4 0.000000 0.742051 0.294679
O O5 0.195859 0.203601 0.087061
O O6 0.200974 0.324897 0.070273
O O7 0.000000 0.275323 0.128547
O O8 0.758624 0.500000 0.500000
O O9 0.783115 0.396744 0.549218
O O10 0.000000 0.436442 0.500000
O O11 0.500000 0.367492 0.290843
O O12 0.724825 0.440625 0.268472
O O13 0.659782 0.408064 0.364681
O O14 0.500000 0.500000 0.118212
O O15 0.272007 0.500000 0.179601
O O16 0.264257 0.439484 0.093899
O O17 0.000000 0.000000 0.737271
O O18 0.000000 0.123855 0.940930
O O19 0.715160 0.907984 0.500000
O O20 0.500000 0.912693 0.565256
#
# Coordination Sequence:
#
# PCOD8292164 Si02
#       8
#    16  16   8  16   8   8  16  16
#     4  11  22  36  57  85 121 157 191 233 285 344
#     4   9  20  39  63  91 117 148 195 249 300 354
#     4  11  25  39  53  79 121 164 197 238 293 347
#     4   9  19  38  61  85 112 149 194 241 293 348
#     4  11  24  40  59  90 127 159 196 246 299 364
#     4   9  20  38  62  88 117 152 193 244 301 352
#     4   9  19  36  62  88 113 146 198 253 294 349
#     4  10  22  41  66  90 118 157 201 249 305 362
#
# _framework density 19.501653000000001
#
# number of rings (size 3 to 8) (size 9 to 14) (size 15 to 20)
#    0.000    2.231    0.000    3.000    4.308    4.923 
#    0.000    1.154    0.000    0.000    0.000    0.000 
#    0.000    0.000    0.000    0.000    0.000    0.000 
#
# Total GULP energy -644462.327474 kJ/mol
# GULP energy per Si atom -12393.506298 kJ/mol
# Density = 1.945727 g / cm^3
# Si number density = 19.501653 Si / 1000 Ang^3
#
#
#
# Elastic Constant Matrix: (Units=GPa)
#
#
# Indices 1 2 3 4 5 6 
#
# 1 94.7590 35.2171 50.4349 0.0000 0.0000 0.0000
# 2 35.2171 97.8417 61.1585 0.0000 0.0000 0.0000
# 3 50.4349 61.1585 136.5286 0.0000 0.0000 0.0000
# 4 0.0000 0.0000 0.0000 32.2855 0.0000 0.0000
# 5 0.0000 0.0000 0.0000 0.0000 33.1038 0.0000
# 6 0.0000 0.0000 0.0000 0.0000 0.0000 27.9953
#
#
#
# Elastic Compliance Matrix: (Units=1/GPa)
#
#
# Indices 1 2 3 4 5 6 
#
# 1 0.013538 -0.002426 -0.003914 0.000000 0.000000 0.000000
# 2 -0.002426 0.014630 -0.005657 0.000000 0.000000 0.000000
# 3 -0.003914 -0.005657 0.011305 0.000000 0.000000 0.000000
# 4 0.000000 0.000000 0.000000 0.030974 0.000000 0.000000
# 5 0.000000 0.000000 0.000000 0.000000 0.030208 0.000000
# 6 0.000000 0.000000 0.000000 0.000000 0.000000 0.035720
#
#
# Mechanical properties :
#
#
# Convention : Reuss Voigt Hill
#
# Bulk Modulus (GPa) = 64.61083 69.19446 66.90264
# Shear Modulus (GPa) = 30.20604 30.83150 30.51877
#
# Velocity S-wave (km/s) = 3.93987 3.98045 3.96021
# Velocity P-wave (km/s) = 7.34164 7.52886 7.43584
#
# Compressibility (1/GPa) = 0.01547728
#
# Stress axis : x y z
#
# Youngs Moduli (GPa) = 73.86545 68.35191 88.45880
#
# Poissons Ratio (x) = 0.16583 0.34625
# Poissons Ratio (y) = 0.17921 0.50045
# Poissons Ratio (z) = 0.28913 0.38669
#
# Static dielectric constant tensor:
#      x y z
#    x 3.499570 0.000000 0.000000 
#    y 0.000000 3.527000 0.000000 
#    z 0.000000 0.000000 3.653160 
# 
# 
# High freq. dielectric constant tensor:
#      x y z
#    x 1.745490 0.000000 0.000000 
#    y 0.000000 1.757610 0.000000 
#    z 0.000000 0.000000 1.768390 
# 
# From -- ./inp_files/63586.got.cif
#   From: 2010.06.25/outbox.cif.g09.slc.cpg/sg71_32_cif.got.tgz:63586.got - 2010.06.28 04:59:45.
