data_PCOD8292577
_publ_section_title
;
Structure prediction by ZEFSAII (Michael W. Deem and Ramdas Pophale) SiO2 
 PCOD8292577
Probable space group: I M M M
;
_chemical_formula_sum "Si O2"
_cell_formula_units_Z 48
_cell_length_a 22.174174
_cell_length_b 12.604760
_cell_length_c 8.882774
_cell_angle_alpha 90.000000
_cell_angle_beta 90.000000
_cell_angle_gamma 90.000000
_cell_volume 2482.736590
_symmetry_space_group_name_H-M "I M M M"
_symmetry_group_IT_number 71
_symmetry_cell_setting 'orthorhombic'
loop_
_space_group_symop_operation_xyz
x,y,z
-x,-y,z
x,-y,-z
-x,y,-z
-x,-y,-z
x,y,-z
-x,y,z
x,-y,z
1/2+x,1/2+y,1/2+z
1/2-x,1/2-y,1/2+z
1/2+x,1/2-y,1/2-z
1/2-x,1/2+y,1/2-z
1/2-x,1/2-y,1/2-z
1/2+x,1/2+y,1/2-z
1/2-x,1/2+y,1/2+z
1/2+x,1/2-y,1/2+z
loop_
_atom_site_type_symbol
_atom_site_label
_atom_site_fract_x
_atom_site_fract_y
_atom_site_fract_z
Si Si1 0.887235 0.500000 0.177778
Si Si2 0.251084 0.500000 0.821727
Si Si3 0.651229 0.617362 0.670029
Si Si4 0.930917 0.710920 0.673167
O O1 0.817869 0.500000 0.230259
O O2 0.920714 0.397714 0.239823
O O3 0.892476 0.500000 0.000000
O O4 0.283479 0.394697 0.752398
O O5 0.258361 0.500000 0.000000
O O6 0.660792 0.659956 0.500000
O O7 0.620440 0.500000 0.668150
O O8 0.609653 0.696486 0.760586
O O9 0.913824 0.693485 0.500000
O O10 0.000000 0.745792 0.692741
#
# Coordination Sequence:
#
# PCOD8292577 Si02
#       4
#     8   8  16  16
#     4  11  24  40  61  87 117 156 197 240 290 343
#     4   9  19  38  61  88 118 150 191 239 292 347
#     4   9  20  38  61  90 118 150 193 239 292 345
#     4  11  24  40  60  86 118 157 197 239 289 345
#
# _framework density 19.333504000000001
#
# number of rings (size 3 to 8) (size 9 to 14) (size 15 to 20)
#    1.000    1.000    0.000    3.000    0.000    9.333 
#    0.000    3.333    0.000    0.000    0.000    0.000 
#    0.000    0.000    0.000    0.000    0.000    0.000 
#
# Total GULP energy -297520.072046 kJ/mol
# GULP energy per Si atom -12396.669669 kJ/mol
# Density = 1.928950 g / cm^3
# Si number density = 19.333504 Si / 1000 Ang^3
#
#
#
# Elastic Constant Matrix: (Units=GPa)
#
#
# Indices 1 2 3 4 5 6 
#
# 1 62.0443 4.9036 44.7628 0.0000 0.0000 0.0000
# 2 4.9036 59.2764 21.9014 0.0000 0.0000 0.0000
# 3 44.7628 21.9014 108.7601 0.0000 0.0000 0.0000
# 4 0.0000 0.0000 0.0000 37.1393 0.0000 0.0000
# 5 0.0000 0.0000 0.0000 0.0000 31.0283 0.0000
# 6 0.0000 0.0000 0.0000 0.0000 0.0000 40.1003
#
#
#
# Elastic Compliance Matrix: (Units=1/GPa)
#
#
# Indices 1 2 3 4 5 6 
#
# 1 0.023088 0.001730 -0.009851 0.000000 0.000000 0.000000
# 2 0.001730 0.018356 -0.004408 0.000000 0.000000 0.000000
# 3 -0.009851 -0.004408 0.014136 0.000000 0.000000 0.000000
# 4 0.000000 0.000000 0.000000 0.026926 0.000000 0.000000
# 5 0.000000 0.000000 0.000000 0.000000 0.032229 0.000000
# 6 0.000000 0.000000 0.000000 0.000000 0.000000 0.024937
#
#
# Mechanical properties :
#
#
# Convention : Reuss Voigt Hill
#
# Bulk Modulus (GPa) = 32.76364 41.46847 37.11606
# Shear Modulus (GPa) = 28.58714 32.22113 30.40414
#
# Velocity S-wave (km/s) = 3.84947 4.08682 3.96992
# Velocity P-wave (km/s) = 6.06146 6.61552 6.34454
#
# Compressibility (1/GPa) = 0.03052163
#
# Stress axis : x y z
#
# Youngs Moduli (GPa) = 43.31320 54.47872 70.73894
#
# Poissons Ratio (x) = -0.09423 0.69682
# Poissons Ratio (y) = -0.07492 0.31184
# Poissons Ratio (z) = 0.42666 0.24016
#
# Static dielectric constant tensor:
#      x y z
#    x 3.501160 0.000000 0.000000 
#    y 0.000000 3.166900 0.000000 
#    z 0.000000 0.000000 3.685540 
# 
# 
# High freq. dielectric constant tensor:
#      x y z
#    x 1.748450 0.000000 0.000000 
#    y 0.000000 1.746940 0.000000 
#    z 0.000000 0.000000 1.772980 
# 
# From -- ./inp_files/11804.got.cif
#   From: 2010.06.25/outbox.cif.g09.slc.cpg/sg71_6_cif.got.tgz:11804.got - 2010.06.28 04:59:45.
