data_PCOD8292167
_publ_section_title
;
Structure prediction by ZEFSAII (Michael W. Deem and Ramdas Pophale) SiO2 
 PCOD8292167
Probable space group: I M M M
;
_chemical_formula_sum "Si O2"
_cell_formula_units_Z 72
_cell_length_a 23.412105
_cell_length_b 8.741036
_cell_length_c 17.517226
_cell_angle_alpha 90.000000
_cell_angle_beta 90.000000
_cell_angle_gamma 90.000000
_cell_volume 3584.831154
_symmetry_space_group_name_H-M "I M M M"
_symmetry_group_IT_number 71
_symmetry_cell_setting 'orthorhombic'
loop_
_space_group_symop_operation_xyz
x,y,z
-x,-y,z
x,-y,-z
-x,y,-z
-x,-y,-z
x,y,-z
-x,y,z
x,-y,z
1/2+x,1/2+y,1/2+z
1/2-x,1/2-y,1/2+z
1/2+x,1/2-y,1/2-z
1/2-x,1/2+y,1/2-z
1/2-x,1/2-y,1/2-z
1/2+x,1/2+y,1/2-z
1/2-x,1/2+y,1/2+z
1/2+x,1/2-y,1/2+z
loop_
_atom_site_type_symbol
_atom_site_label
_atom_site_fract_x
_atom_site_fract_y
_atom_site_fract_z
Si Si1 0.254901 0.319812 0.333249
Si Si2 0.567170 0.671513 0.500000
Si Si3 0.934164 0.320778 0.295680
Si Si4 0.852446 0.823045 0.588529
Si Si5 0.127328 0.319782 0.139580
O O1 0.257065 0.500000 0.324943
O O2 0.250000 0.250000 0.250000
O O3 0.201444 0.275178 0.384923
O O4 0.311898 0.259696 0.373579
O O5 0.593283 0.500000 0.500000
O O6 0.500000 0.662885 0.500000
O O7 0.585344 0.763437 0.574459
O O8 0.927389 0.500000 0.311720
O O9 0.909185 0.228199 0.366967
O O10 0.899264 0.271958 0.220627
O O11 0.000000 0.274755 0.284526
O O12 0.863982 0.791602 0.500000
O O13 0.839597 0.000000 0.605098
O O14 0.135443 0.500000 0.133537
#
# Coordination Sequence:
#
# PCOD8292167 Si02
#       5
#    16   8  16  16  16
#     4  12  24  41  66  95 127 163 208 259 318 381
#     4  11  25  43  63  93 133 175 218 265 318 379
#     4  10  22  41  66  94 124 164 213 262 317 380
#     4  11  25  43  64  93 129 169 214 263 319 378
#     4  11  23  41  66  95 127 168 215 265 321 380
#
# _framework density 20.084627999999999
#
# number of rings (size 3 to 8) (size 9 to 14) (size 15 to 20)
#    0.000    1.000    2.222    4.333    1.556    5.333 
#    0.000    2.222    0.000    0.000    0.000    0.000 
#    0.000    0.000    0.000    0.000    0.000    0.000 
#
# Total GULP energy -446668.877630 kJ/mol
# GULP energy per Si atom -12407.468823 kJ/mol
# Density = 2.003891 g / cm^3
# Si number density = 20.084628 Si / 1000 Ang^3
#
#
#
# Elastic Constant Matrix: (Units=GPa)
#
#
# Indices 1 2 3 4 5 6 
#
# 1 105.9569 44.1211 29.5767 0.0000 0.0000 0.0000
# 2 44.1211 123.0809 56.6342 0.0000 0.0000 0.0000
# 3 29.5767 56.6342 115.6398 0.0000 0.0000 0.0000
# 4 0.0000 0.0000 0.0000 34.2966 0.0000 0.0000
# 5 0.0000 0.0000 0.0000 0.0000 195.9507 0.0000
# 6 0.0000 0.0000 0.0000 0.0000 0.0000 36.5348
#
#
#
# Elastic Compliance Matrix: (Units=1/GPa)
#
#
# Indices 1 2 3 4 5 6 
#
# 1 0.011213 -0.003485 -0.001161 0.000000 0.000000 0.000000
# 2 -0.003485 0.011572 -0.004776 0.000000 0.000000 0.000000
# 3 -0.001161 -0.004776 0.011283 0.000000 0.000000 0.000000
# 4 0.000000 0.000000 0.000000 0.029157 0.000000 0.000000
# 5 0.000000 0.000000 0.000000 0.000000 0.005103 0.000000
# 6 0.000000 0.000000 0.000000 0.000000 0.000000 0.027371
#
#
# Mechanical properties :
#
#
# Convention : Reuss Voigt Hill
#
# Bulk Modulus (GPa) = 65.68578 67.26019 66.47299
# Shear Modulus (GPa) = 41.79934 67.64612 54.72273
#
# Velocity S-wave (km/s) = 4.56692 5.80979 5.22544
# Velocity P-wave (km/s) = 7.78361 8.86374 8.34118
#
# Compressibility (1/GPa) = 0.01522399
#
# Stress axis : x y z
#
# Youngs Moduli (GPa) = 89.18041 86.41805 88.62595
#
# Poissons Ratio (x) = 0.30120 0.10289
# Poissons Ratio (y) = 0.31083 0.42325
# Poissons Ratio (z) = 0.10354 0.41271
#
# Static dielectric constant tensor:
#      x y z
#    x 3.844770 0.000000 0.000000 
#    y 0.000000 3.831840 0.000000 
#    z 0.000000 0.000000 3.720610 
# 
# 
# High freq. dielectric constant tensor:
#      x y z
#    x 1.796580 0.000000 0.000000 
#    y 0.000000 1.795560 0.000000 
#    z 0.000000 0.000000 1.790320 
# 
# From -- ./inp_files/39949.got.cif
#   From: 2010.06.25/outbox.cif.g09.slc.cpg/sg71_20_cif.got.tgz:39949.got - 2010.06.28 04:59:45.
