data_PCOD8292877
_publ_section_title
;
Structure prediction by ZEFSAII (Michael W. Deem and Ramdas Pophale) SiO2 
 PCOD8292877
Probable space group: I B A M
;
_chemical_formula_sum "Si O2"
_cell_formula_units_Z 96
_cell_length_a 30.063908
_cell_length_b 19.775200
_cell_length_c 8.850045
_cell_angle_alpha 90.000000
_cell_angle_beta 90.000000
_cell_angle_gamma 90.000000
_cell_volume 5261.526926
_symmetry_space_group_name_H-M "I B A M"
_symmetry_group_IT_number 72
_symmetry_cell_setting 'orthorhombic'
loop_
_space_group_symop_operation_xyz
x,y,z
-x,-y,z
x,-y,1/2-z
-x,y,1/2-z
-x,-y,-z
x,y,-z
-x,y,1/2+z
x,-y,1/2+z
1/2+x,1/2+y,1/2+z
1/2-x,1/2-y,1/2+z
1/2+x,1/2-y,-z
1/2-x,1/2+y,-z
1/2-x,1/2-y,1/2-z
1/2+x,1/2+y,1/2-z
1/2-x,1/2+y,z
1/2+x,1/2-y,z
loop_
_atom_site_type_symbol
_atom_site_label
_atom_site_fract_x
_atom_site_fract_y
_atom_site_fract_z
Si Si1 0.047007 0.200581 0.675726
Si Si2 0.708853 0.288239 0.177878
Si Si3 0.339734 0.067510 0.177087
Si Si4 0.261676 0.432605 0.323008
Si Si5 0.370111 0.211330 0.825799
Si Si6 0.950828 0.066551 0.319408
O O1 0.039549 0.182724 0.500000
O O2 0.079391 0.264372 0.696823
O O3 0.070636 0.136445 0.759689
O O4 0.000000 0.220075 0.750000
O O5 0.750000 0.250000 0.250000
O O6 0.710219 0.367084 0.227010
O O7 0.662223 0.258278 0.229529
O O8 0.713911 0.281260 0.000000
O O9 0.289059 0.077532 0.233004
O O10 0.367289 0.133588 0.229428
O O11 0.360781 0.000000 0.250000
O O12 0.342331 0.057783 0.000000
O O13 0.282801 0.500000 0.250000
O O14 0.263212 0.442992 0.500000
O O15 0.354937 0.216642 0.000000
O O16 0.950857 0.063088 0.500000
O O17 0.000000 0.068245 0.250000
O O18 0.926285 0.000000 0.250000
#
# Coordination Sequence:
#
# PCOD8292877 Si02
#       6
#    16  16  16  16  16  16
#     4  10  20  35  55  77 105 139 176 221 273 319
#     4  11  21  34  53  78 108 140 175 216 259 311
#     4   9  17  32  51  75 105 133 171 214 256 306
#     4   9  18  32  50  73 104 139 176 213 254 303
#     4  10  21  37  55  78 108 140 174 218 268 316
#     4  10  17  28  48  73 101 130 169 214 258 310
#
# _framework density 18.245653000000001
#
# number of rings (size 3 to 8) (size 9 to 14) (size 15 to 20)
#    0.000    2.167    1.667    4.000    0.000    3.333 
#    0.000    0.833    0.000    2.500    0.000    3.500 
#    0.000    0.000    0.000    0.000    0.000    0.000 
#
# Total GULP energy -595062.116866 kJ/mol
# GULP energy per Si atom -12397.127435 kJ/mol
# Density = 1.820413 g / cm^3
# Si number density = 18.245653 Si / 1000 Ang^3
#
#
#
# Elastic Constant Matrix: (Units=GPa)
#
#
# Indices 1 2 3 4 5 6 
#
# 1 61.7083 55.0695 32.4058 0.0000 0.0000 0.0000
# 2 55.0695 184.5027 63.2309 0.0000 0.0000 0.0000
# 3 32.4058 63.2309 93.5887 0.0000 0.0000 0.0000
# 4 0.0000 0.0000 0.0000 32.0584 0.0000 0.0000
# 5 0.0000 0.0000 0.0000 0.0000 18.2319 0.0000
# 6 0.0000 0.0000 0.0000 0.0000 0.0000 25.3162
#
#
#
# Elastic Compliance Matrix: (Units=1/GPa)
#
#
# Indices 1 2 3 4 5 6 
#
# 1 0.023406 -0.005477 -0.004404 0.000000 0.000000 0.000000
# 2 -0.005477 0.008335 -0.003735 0.000000 0.000000 0.000000
# 3 -0.004404 -0.003735 0.014733 0.000000 0.000000 0.000000
# 4 0.000000 0.000000 0.000000 0.031193 0.000000 0.000000
# 5 0.000000 0.000000 0.000000 0.000000 0.054849 0.000000
# 6 0.000000 0.000000 0.000000 0.000000 0.000000 0.039500
#
#
# Mechanical properties :
#
#
# Convention : Reuss Voigt Hill
#
# Bulk Modulus (GPa) = 51.96874 71.24578 61.60726
# Shear Modulus (GPa) = 24.31186 27.72753 26.01970
#
# Velocity S-wave (km/s) = 3.65427 3.90254 3.78044
# Velocity P-wave (km/s) = 6.80805 7.70968 7.27285
#
# Compressibility (1/GPa) = 0.01924234
#
# Stress axis : x y z
#
# Youngs Moduli (GPa) = 42.72490 119.98278 67.87352
#
# Poissons Ratio (x) = 0.65710 0.29893
# Poissons Ratio (y) = 0.23399 0.25349
# Poissons Ratio (z) = 0.18817 0.44810
#
# Static dielectric constant tensor:
#      x y z
#    x 3.017960 0.000000 0.000000 
#    y 0.000000 3.981310 0.000000 
#    z 0.000000 0.000000 3.489510 
# 
# 
# High freq. dielectric constant tensor:
#      x y z
#    x 1.661390 0.000000 0.000000 
#    y 0.000000 1.723260 0.000000 
#    z 0.000000 0.000000 1.712200 
# 
# From -- ./inp_files/8041.got.cif
#   From: 2010.03.12/outbox.cif.g09.slc.cpg/sg72_5_cif.got.tgz:8041.got - 2010.04.16 14:54:00.
