data_PCOD8292445
_publ_section_title
;
Structure prediction by ZEFSAII (Michael W. Deem and Ramdas Pophale) SiO2 
 PCOD8292445
Probable space group: I M M M
;
_chemical_formula_sum "Si O2"
_cell_formula_units_Z 72
_cell_length_a 32.676226
_cell_length_b 8.778568
_cell_length_c 13.645783
_cell_angle_alpha 90.000000
_cell_angle_beta 90.000000
_cell_angle_gamma 90.000000
_cell_volume 3914.299293
_symmetry_space_group_name_H-M "I M M M"
_symmetry_group_IT_number 71
_symmetry_cell_setting 'orthorhombic'
loop_
_space_group_symop_operation_xyz
x,y,z
-x,-y,z
x,-y,-z
-x,y,-z
-x,-y,-z
x,y,-z
-x,y,z
x,-y,z
1/2+x,1/2+y,1/2+z
1/2-x,1/2-y,1/2+z
1/2+x,1/2-y,1/2-z
1/2-x,1/2+y,1/2-z
1/2-x,1/2-y,1/2-z
1/2+x,1/2+y,1/2-z
1/2-x,1/2+y,1/2+z
1/2+x,1/2-y,1/2+z
loop_
_atom_site_type_symbol
_atom_site_label
_atom_site_fract_x
_atom_site_fract_y
_atom_site_fract_z
Si Si1 0.293319 0.675853 0.228610
Si Si2 0.500000 0.183250 0.386851
Si Si3 0.079748 0.671206 0.782454
Si Si4 0.863142 0.680579 0.611463
Si Si5 0.159864 0.670162 0.889280
O O1 0.287422 0.500000 0.203825
O O2 0.250000 0.750000 0.250000
O O3 0.318602 0.751977 0.139258
O O4 0.318905 0.698630 0.327299
O O5 0.500000 0.242867 0.500000
O O6 0.538812 0.250104 0.325255
O O7 0.500000 0.000000 0.389528
O O8 0.067874 0.500000 0.753158
O O9 0.101077 0.745107 0.684594
O O10 0.111381 0.676016 0.872389
O O11 0.874028 0.726503 0.500000
O O12 0.859699 0.500000 0.624964
O O13 0.175774 0.500000 0.860207
O O14 0.170277 0.707319 0.000000
#
# Coordination Sequence:
#
# PCOD8292445 Si02
#       5
#    16   8  16  16  16
#     4  11  22  35  51  72  98 125 158 202 247 295
#     4   9  14  20  37  69 106 137 163 197 244 297
#     4   8  14  25  42  68 100 131 163 198 240 291
#     4   9  18  34  53  70  94 131 171 211 254 296
#     4   9  17  31  50  70  96 130 163 196 238 288
#
# _framework density 18.394096999999999
#
# number of rings (size 3 to 8) (size 9 to 14) (size 15 to 20)
#    0.000    2.778    0.000    4.000    0.000    4.444 
#    0.000    0.556    0.000    3.333    0.000   12.444 
#    0.000   28.444    0.000    0.000    0.000    0.000 
#
# Total GULP energy -445991.206226 kJ/mol
# GULP energy per Si atom -12388.644617 kJ/mol
# Density = 1.835223 g / cm^3
# Si number density = 18.394097 Si / 1000 Ang^3
#
#
#
# Elastic Constant Matrix: (Units=GPa)
#
#
# Indices 1 2 3 4 5 6 
#
# 1 125.1383 25.9833 54.7764 0.0000 0.0000 0.0000
# 2 25.9833 45.2492 21.0480 0.0000 0.0000 0.0000
# 3 54.7764 21.0480 126.0008 0.0000 0.0000 0.0000
# 4 0.0000 0.0000 0.0000 17.2680 0.0000 0.0000
# 5 0.0000 0.0000 0.0000 0.0000 20.1598 0.0000
# 6 0.0000 0.0000 0.0000 0.0000 0.0000 14.3587
#
#
#
# Elastic Compliance Matrix: (Units=1/GPa)
#
#
# Indices 1 2 3 4 5 6 
#
# 1 0.010578 -0.004267 -0.003886 0.000000 0.000000 0.000000
# 2 -0.004267 0.025683 -0.002435 0.000000 0.000000 0.000000
# 3 -0.003886 -0.002435 0.010033 0.000000 0.000000 0.000000
# 4 0.000000 0.000000 0.000000 0.057911 0.000000 0.000000
# 5 0.000000 0.000000 0.000000 0.000000 0.049604 0.000000
# 6 0.000000 0.000000 0.000000 0.000000 0.000000 0.069644
#
#
# Mechanical properties :
#
#
# Convention : Reuss Voigt Hill
#
# Bulk Modulus (GPa) = 39.81282 55.55596 47.68439
# Shear Modulus (GPa) = 19.76286 23.32934 21.54610
#
# Velocity S-wave (km/s) = 3.28138 3.56519 3.42623
# Velocity P-wave (km/s) = 6.00399 6.87140 6.45229
#
# Compressibility (1/GPa) = 0.02511754
#
# Stress axis : x y z
#
# Youngs Moduli (GPa) = 94.53573 38.93677 99.67521
#
# Poissons Ratio (x) = 0.16613 0.38732
# Poissons Ratio (y) = 0.40335 0.24275
# Poissons Ratio (z) = 0.36735 0.09483
#
# Static dielectric constant tensor:
#      x y z
#    x 3.623770 0.000000 0.000000 
#    y 0.000000 3.090770 0.000000 
#    z 0.000000 0.000000 3.500120 
# 
# 
# High freq. dielectric constant tensor:
#      x y z
#    x 1.711720 0.000000 0.000000 
#    y 0.000000 1.664930 0.000000 
#    z 0.000000 0.000000 1.715920 
# 
# From -- ./inp_files/6413.got.cif
#   From: 2010.06.25/outbox.cif.g09.slc.cpg/sg71_4_cif.got.tgz:6413.got - 2010.06.28 04:59:45.
