data_PCOD8292946
_publ_section_title
;
Structure prediction by ZEFSAII (Michael W. Deem and Ramdas Pophale) SiO2 
 PCOD8292946
Probable space group: I B A M
;
_chemical_formula_sum "Si O2"
_cell_formula_units_Z 96
_cell_length_a 28.390400
_cell_length_b 26.476264
_cell_length_c 8.968866
_cell_angle_alpha 90.000000
_cell_angle_beta 90.000000
_cell_angle_gamma 90.000000
_cell_volume 6741.642982
_symmetry_space_group_name_H-M "I B A M"
_symmetry_group_IT_number 72
_symmetry_cell_setting 'orthorhombic'
loop_
_space_group_symop_operation_xyz
x,y,z
-x,-y,z
x,-y,1/2-z
-x,y,1/2-z
-x,-y,-z
x,y,-z
-x,y,1/2+z
x,-y,1/2+z
1/2+x,1/2+y,1/2+z
1/2-x,1/2-y,1/2+z
1/2+x,1/2-y,-z
1/2-x,1/2+y,-z
1/2-x,1/2-y,1/2-z
1/2+x,1/2+y,1/2-z
1/2-x,1/2+y,z
1/2+x,1/2-y,z
loop_
_atom_site_type_symbol
_atom_site_label
_atom_site_fract_x
_atom_site_fract_y
_atom_site_fract_z
Si Si1 0.772987 0.797646 0.826668
Si Si2 0.046805 0.400466 0.325428
Si Si3 0.047043 0.715318 0.174667
Si Si4 0.700246 0.857888 0.675684
Si Si5 0.355190 0.053074 0.822469
Si Si6 0.861804 0.260337 0.669908
O O1 0.750000 0.750000 0.750000
O O2 0.752721 0.846967 0.742013
O O3 0.829411 0.789834 0.809439
O O4 0.758678 0.799550 0.000000
O O5 0.039390 0.404126 0.500000
O O6 0.054276 0.342670 0.274650
O O7 0.091950 0.432097 0.272635
O O8 0.000000 0.423460 0.250000
O O9 0.092437 0.746641 0.227761
O O10 0.000000 0.737597 0.250000
O O11 0.041592 0.721149 0.000000
O O12 0.703833 0.867374 0.500000
O O13 0.681478 0.907077 0.757903
O O14 0.666692 0.810744 0.715782
O O15 0.342209 0.000000 0.750000
O O16 0.350409 0.050989 0.000000
O O17 0.878619 0.265554 0.500000
#
# Coordination Sequence:
#
# PCOD8292946 Si02
#       6
#    16  16  16  16  16  16
#     4   9  17  28  43  64  86 107 131 163 203 247
#     4   9  19  32  45  59  75 100 133 173 218 259
#     4  10  18  28  42  60  81 108 138 170 209 250
#     4  10  19  31  46  63  82 106 133 169 211 252
#     4  11  22  35  47  62  80 104 137 174 218 262
#     4   9  17  28  43  63  84 106 133 165 203 245
#
# _framework density 14.239852000000001
#
# number of rings (size 3 to 8) (size 9 to 14) (size 15 to 20)
#    0.000    2.333    1.667    3.000    0.000    5.667 
#    0.000    1.667    0.000    0.000    0.000    0.000 
#    0.000    0.000    0.000    0.000    0.000    0.833 
#
# Total GULP energy -595090.304856 kJ/mol
# GULP energy per Si atom -12397.714684 kJ/mol
# Density = 1.420744 g / cm^3
# Si number density = 14.239852 Si / 1000 Ang^3
#
#
#
# Elastic Constant Matrix: (Units=GPa)
#
#
# Indices 1 2 3 4 5 6 
#
# 1 90.4913 49.6301 49.6183 0.0000 0.0000 0.0000
# 2 49.6301 57.2207 31.8989 0.0000 0.0000 0.0000
# 3 49.6183 31.8989 75.6597 0.0000 0.0000 0.0000
# 4 0.0000 0.0000 0.0000 19.3269 0.0000 0.0000
# 5 0.0000 0.0000 0.0000 0.0000 28.2054 0.0000
# 6 0.0000 0.0000 0.0000 0.0000 0.0000 17.7511
#
#
#
# Elastic Compliance Matrix: (Units=1/GPa)
#
#
# Indices 1 2 3 4 5 6 
#
# 1 0.025563 -0.016767 -0.009695 0.000000 0.000000 0.000000
# 2 -0.016767 0.033843 -0.003273 0.000000 0.000000 0.000000
# 3 -0.009695 -0.003273 0.020955 0.000000 0.000000 0.000000
# 4 0.000000 0.000000 0.000000 0.051741 0.000000 0.000000
# 5 0.000000 0.000000 0.000000 0.000000 0.035454 0.000000
# 6 0.000000 0.000000 0.000000 0.000000 0.000000 0.056335
#
#
# Mechanical properties :
#
#
# Convention : Reuss Voigt Hill
#
# Bulk Modulus (GPa) = 47.86649 53.96291 50.91470
# Shear Modulus (GPa) = 17.22208 19.20496 18.21352
#
# Velocity S-wave (km/s) = 3.48146 3.67642 3.58026
# Velocity P-wave (km/s) = 7.06032 7.48327 7.27487
#
# Compressibility (1/GPa) = 0.02089144
#
# Stress axis : x y z
#
# Youngs Moduli (GPa) = 39.11955 29.54785 47.72108
#
# Poissons Ratio (x) = 0.49543 0.46266
# Poissons Ratio (y) = 0.65591 0.15618
# Poissons Ratio (z) = 0.37927 0.09670
#
# Static dielectric constant tensor:
#      x y z
#    x 2.943380 0.000000 0.000000 
#    y 0.000000 2.544480 0.000000 
#    z 0.000000 0.000000 2.891420 
# 
# 
# High freq. dielectric constant tensor:
#      x y z
#    x 1.537110 0.000000 0.000000 
#    y 0.000000 1.491640 0.000000 
#    z 0.000000 0.000000 1.560690 
# 
# From -- ./inp_files/6976.got.cif
#   From: 2010.03.12/outbox.cif.g09.slc.cpg/sg72_4_cif.got.tgz:6976.got - 2010.04.16 14:54:00.
