data_PCOD8292331
_publ_section_title
;
Structure prediction by ZEFSAII (Michael W. Deem and Ramdas Pophale) SiO2 
 PCOD8292331
Probable space group: I M M M
;
_chemical_formula_sum "Si O2"
_cell_formula_units_Z 112
_cell_length_a 26.564435
_cell_length_b 14.502029
_cell_length_c 17.476505
_cell_angle_alpha 90.000000
_cell_angle_beta 90.000000
_cell_angle_gamma 90.000000
_cell_volume 6732.617446
_symmetry_space_group_name_H-M "I M M M"
_symmetry_group_IT_number 71
_symmetry_cell_setting 'orthorhombic'
loop_
_space_group_symop_operation_xyz
x,y,z
-x,-y,z
x,-y,-z
-x,y,-z
-x,-y,-z
x,y,-z
-x,y,z
x,-y,z
1/2+x,1/2+y,1/2+z
1/2-x,1/2-y,1/2+z
1/2+x,1/2-y,1/2-z
1/2-x,1/2+y,1/2-z
1/2-x,1/2-y,1/2-z
1/2+x,1/2+y,1/2-z
1/2-x,1/2+y,1/2+z
1/2+x,1/2-y,1/2+z
loop_
_atom_site_type_symbol
_atom_site_label
_atom_site_fract_x
_atom_site_fract_y
_atom_site_fract_z
Si Si1 0.442744 0.107016 0.270946
Si Si2 0.056305 0.707735 0.082542
Si Si3 0.158271 0.392963 0.693028
Si Si4 0.277245 0.232615 0.912622
Si Si5 0.092749 0.900054 0.913118
Si Si6 0.752587 0.394474 0.802886
Si Si7 0.198800 0.104531 0.851675
O O1 0.500000 0.142169 0.249545
O O2 0.419137 0.154435 0.346867
O O3 0.401376 0.127820 0.205559
O O4 0.445039 0.000000 0.288868
O O5 0.053658 0.817571 0.099324
O O6 0.000000 0.670682 0.076216
O O7 0.083632 0.688627 0.000000
O O8 0.165670 0.500000 0.667119
O O9 0.176943 0.322606 0.627830
O O10 0.190730 0.376722 0.770854
O O11 0.262868 0.329104 0.872668
O O12 0.227700 0.169250 0.911306
O O13 0.292734 0.253178 0.000000
O O14 0.139528 0.880026 0.857917
O O15 0.067981 0.000000 0.893200
O O16 0.112829 0.901953 0.000000
O O17 0.746684 0.500000 0.830675
O O18 0.714265 0.370142 0.734479
O O19 0.214288 0.000000 0.870933
#
# Coordination Sequence:
#
# PCOD8292331 Si02
#       7
#    16  16  16  16  16  16  16
#     4   9  18  32  50  70  92 123 160 198 240 283
#     4   9  18  29  42  63  90 122 157 193 233 276
#     4   9  18  33  52  71  94 123 159 200 238 281
#     4  11  21  30  47  72  96 126 155 191 237 280
#     4   9  17  27  41  63  90 120 152 187 227 269
#     4   9  19  33  47  67  94 128 160 187 226 275
#     4   9  17  30  47  66  89 119 156 192 225 269
#
# _framework density 16.635432000000002
#
# number of rings (size 3 to 8) (size 9 to 14) (size 15 to 20)
#    0.000    2.714    0.000    3.429    4.000    2.571 
#    0.000    2.857    0.000    3.000    0.000    2.000 
#    0.000    0.000    0.000    1.286    0.000    0.000 
#
# Total GULP energy -693806.981887 kJ/mol
# GULP energy per Si atom -12389.410391 kJ/mol
# Density = 1.659757 g / cm^3
# Si number density = 16.635432 Si / 1000 Ang^3
#
#
#
# Elastic Constant Matrix: (Units=GPa)
#
#
# Indices 1 2 3 4 5 6 
#
# 1 56.9574 24.7940 33.9756 0.0000 0.0000 0.0000
# 2 24.7940 67.3088 45.5508 0.0000 0.0000 0.0000
# 3 33.9756 45.5508 81.5557 0.0000 0.0000 0.0000
# 4 0.0000 0.0000 0.0000 18.6887 0.0000 0.0000
# 5 0.0000 0.0000 0.0000 0.0000 13.4376 0.0000
# 6 0.0000 0.0000 0.0000 0.0000 0.0000 20.0918
#
#
#
# Elastic Compliance Matrix: (Units=1/GPa)
#
#
# Indices 1 2 3 4 5 6 
#
# 1 0.023812 -0.003309 -0.008072 0.000000 0.000000 0.000000
# 2 -0.003309 0.024345 -0.012219 0.000000 0.000000 0.000000
# 3 -0.008072 -0.012219 0.022449 0.000000 0.000000 0.000000
# 4 0.000000 0.000000 0.000000 0.053508 0.000000 0.000000
# 5 0.000000 0.000000 0.000000 0.000000 0.074418 0.000000
# 6 0.000000 0.000000 0.000000 0.000000 0.000000 0.049772
#
#
# Mechanical properties :
#
#
# Convention : Reuss Voigt Hill
#
# Bulk Modulus (GPa) = 42.72276 46.05141 44.38709
# Shear Modulus (GPa) = 16.48507 17.21039 16.84773
#
# Velocity S-wave (km/s) = 3.15137 3.21995 3.18584
# Velocity P-wave (km/s) = 6.24332 6.44724 6.34610
#
# Compressibility (1/GPa) = 0.02340673
#
# Stress axis : x y z
#
# Youngs Moduli (GPa) = 41.99496 41.07681 44.54604
#
# Poissons Ratio (x) = 0.13592 0.35958
# Poissons Ratio (y) = 0.13896 0.54429
# Poissons Ratio (z) = 0.33898 0.50190
#
# Static dielectric constant tensor:
#      x y z
#    x 3.098010 0.000000 0.000000 
#    y 0.000000 3.232250 0.000000 
#    z 0.000000 0.000000 2.959610 
# 
# 
# High freq. dielectric constant tensor:
#      x y z
#    x 1.624200 0.000000 0.000000 
#    y 0.000000 1.650080 0.000000 
#    z 0.000000 0.000000 1.607190 
# 
# From -- ./inp_files/35397.got.cif
#   From: 2010.06.25/outbox.cif.g09.slc.cpg/sg71_18_cif.got.tgz:35397.got - 2010.06.28 04:59:45.
