data_PCOD8292679
_publ_section_title
;
Structure prediction by ZEFSAII (Michael W. Deem and Ramdas Pophale) SiO2 
 PCOD8292679
Probable space group: I M M M
;
_chemical_formula_sum "Si O2"
_cell_formula_units_Z 88
_cell_length_a 26.677206
_cell_length_b 9.528921
_cell_length_c 18.317391
_cell_angle_alpha 90.000000
_cell_angle_beta 90.000000
_cell_angle_gamma 90.000000
_cell_volume 4656.372168
_symmetry_space_group_name_H-M "I M M M"
_symmetry_group_IT_number 71
_symmetry_cell_setting 'orthorhombic'
loop_
_space_group_symop_operation_xyz
x,y,z
-x,-y,z
x,-y,-z
-x,y,-z
-x,-y,-z
x,y,-z
-x,y,z
x,-y,z
1/2+x,1/2+y,1/2+z
1/2-x,1/2-y,1/2+z
1/2+x,1/2-y,1/2-z
1/2-x,1/2+y,1/2-z
1/2-x,1/2-y,1/2-z
1/2+x,1/2+y,1/2-z
1/2-x,1/2+y,1/2+z
1/2+x,1/2-y,1/2+z
loop_
_atom_site_type_symbol
_atom_site_label
_atom_site_fract_x
_atom_site_fract_y
_atom_site_fract_z
Si Si1 0.712455 0.838434 0.201261
Si Si2 0.443567 0.664538 0.295186
Si Si3 0.941543 0.154299 0.629431
Si Si4 0.644992 0.158038 0.330623
Si Si5 0.244762 0.336958 0.914770
Si Si6 0.440036 0.156847 0.000000
O O1 0.750000 0.750000 0.250000
O O2 0.659840 0.832579 0.244486
O O3 0.711944 0.759379 0.122798
O O4 0.730132 0.000000 0.192102
O O5 0.500000 0.707814 0.318230
O O6 0.435846 0.500000 0.305834
O O7 0.433487 0.708373 0.211483
O O8 0.403450 0.745282 0.345395
O O9 0.918568 0.264414 0.571785
O O10 0.000000 0.139079 0.613228
O O11 0.916701 0.000000 0.618462
O O12 0.690499 0.207207 0.382709
O O13 0.629798 0.000000 0.351139
O O14 0.255423 0.500000 0.896841
O O15 0.245588 0.305570 0.000000
O O16 0.500000 0.151579 0.000000
O O17 0.417819 0.000000 0.000000
#
# Coordination Sequence:
#
# PCOD8292679 Si02
#       6
#    16  16  16  16  16   8
#     4   9  17  30  49  75 104 132 164 201 246 302
#     4   9  18  31  47  68  93 125 169 216 253 289
#     4   8  14  25  39  54  75 106 144 187 234 279
#     4   9  18  31  49  74 102 132 165 204 251 299
#     4   9  18  33  53  78 107 135 165 204 250 304
#     4   9  15  21  33  55  77  97 129 177 231 281
#
# _framework density 18.898831999999999
#
# number of rings (size 3 to 8) (size 9 to 14) (size 15 to 20)
#    0.000    3.182    0.000    3.000    0.000    6.182 
#    0.000    1.818    2.000    0.545    0.000    3.818 
#    0.000    0.000    0.000    0.000    0.000    0.000 
#
# Total GULP energy -545232.211126 kJ/mol
# GULP energy per Si atom -12391.641162 kJ/mol
# Density = 1.885582 g / cm^3
# Si number density = 18.898832 Si / 1000 Ang^3
#
#
#
# Elastic Constant Matrix: (Units=GPa)
#
#
# Indices 1 2 3 4 5 6 
#
# 1 34.2987 22.4791 5.5986 0.0000 0.0000 0.0000
# 2 22.4791 83.8840 25.6858 0.0000 0.0000 0.0000
# 3 5.5986 25.6858 65.7251 0.0000 0.0000 0.0000
# 4 0.0000 0.0000 0.0000 25.0683 0.0000 0.0000
# 5 0.0000 0.0000 0.0000 0.0000 14.7715 0.0000
# 6 0.0000 0.0000 0.0000 0.0000 0.0000 27.0711
#
#
#
# Elastic Compliance Matrix: (Units=1/GPa)
#
#
# Indices 1 2 3 4 5 6 
#
# 1 0.035403 -0.009728 0.000786 0.000000 0.000000 0.000000
# 2 -0.009728 0.016215 -0.005508 0.000000 0.000000 0.000000
# 3 0.000786 -0.005508 0.017301 0.000000 0.000000 0.000000
# 4 0.000000 0.000000 0.000000 0.039891 0.000000 0.000000
# 5 0.000000 0.000000 0.000000 0.000000 0.067698 0.000000
# 6 0.000000 0.000000 0.000000 0.000000 0.000000 0.036940
#
#
# Mechanical properties :
#
#
# Convention : Reuss Voigt Hill
#
# Bulk Modulus (GPa) = 24.98867 32.38165 28.68516
# Shear Modulus (GPa) = 19.55518 22.05846 20.80682
#
# Velocity S-wave (km/s) = 3.22021 3.42012 3.32167
# Velocity P-wave (km/s) = 5.20359 5.72431 5.47015
#
# Compressibility (1/GPa) = 0.04001814
#
# Stress axis : x y z
#
# Youngs Moduli (GPa) = 28.24621 61.67230 57.80162
#
# Poissons Ratio (x) = 0.59994 -0.04543
# Poissons Ratio (y) = 0.27478 0.31838
# Poissons Ratio (z) = -0.02220 0.33970
#
# Static dielectric constant tensor:
#      x y z
#    x 3.138890 0.000000 0.000000 
#    y 0.000000 3.644090 0.000000 
#    z 0.000000 0.000000 3.467080 
# 
# 
# High freq. dielectric constant tensor:
#      x y z
#    x 1.700250 0.000000 0.000000 
#    y 0.000000 1.737130 0.000000 
#    z 0.000000 0.000000 1.708650 
# 
# From -- ./inp_files/49210.got.cif
#   From: 2010.06.25/outbox.cif.g09.slc.cpg/sg71_25_cif.got.tgz:49210.got - 2010.06.28 04:59:45.
