data_PCOD8292343
_publ_section_title
;
Structure prediction by ZEFSAII (Michael W. Deem and Ramdas Pophale) SiO2 
 PCOD8292343
Probable space group: I M M M
;
_chemical_formula_sum "Si O2"
_cell_formula_units_Z 96
_cell_length_a 24.076083
_cell_length_b 24.373506
_cell_length_c 8.825598
_cell_angle_alpha 90.000000
_cell_angle_beta 90.000000
_cell_angle_gamma 90.000000
_cell_volume 5179.024652
_symmetry_space_group_name_H-M "I M M M"
_symmetry_group_IT_number 71
_symmetry_cell_setting 'orthorhombic'
loop_
_space_group_symop_operation_xyz
x,y,z
-x,-y,z
x,-y,-z
-x,y,-z
-x,-y,-z
x,y,-z
-x,y,z
x,-y,z
1/2+x,1/2+y,1/2+z
1/2-x,1/2-y,1/2+z
1/2+x,1/2-y,1/2-z
1/2-x,1/2+y,1/2-z
1/2-x,1/2-y,1/2-z
1/2+x,1/2+y,1/2-z
1/2-x,1/2+y,1/2+z
1/2+x,1/2-y,1/2+z
loop_
_atom_site_type_symbol
_atom_site_label
_atom_site_fract_x
_atom_site_fract_y
_atom_site_fract_z
Si Si1 0.636115 0.766681 0.678487
Si Si2 0.842164 0.439738 0.819217
Si Si3 0.060818 0.633127 0.179418
Si Si4 0.641331 0.345553 0.820660
Si Si5 0.063408 0.937130 0.178297
Si Si6 0.266614 0.843289 0.319901
O O1 0.635972 0.754983 0.500000
O O2 0.589884 0.810418 0.726965
O O3 0.616768 0.712140 0.765669
O O4 0.696869 0.790111 0.731138
O O5 0.831783 0.500000 0.750483
O O6 0.902327 0.418156 0.764268
O O7 0.795056 0.398778 0.757469
O O8 0.840338 0.441039 0.000000
O O9 0.000000 0.629425 0.255005
O O10 0.056029 0.631289 0.000000
O O11 0.606382 0.396717 0.759279
O O12 0.704317 0.344353 0.754982
O O13 0.640533 0.349557 0.000000
O O14 0.000000 0.923360 0.227578
O O15 0.077493 0.000000 0.223954
O O16 0.069737 0.929264 0.000000
O O17 0.266249 0.844152 0.500000
#
# Coordination Sequence:
#
# PCOD8292343 Si02
#       6
#    16  16  16  16  16  16
#     4   9  17  31  48  65  94 136 172 199 231 279
#     4   8  13  22  37  58  88 124 155 186 229 278
#     4   8  14  24  39  61  87 117 156 197 232 267
#     4  11  21  31  49  77 101 122 155 200 246 288
#     4   9  20  40  60  74  93 124 159 193 234 292
#     4   8  16  29  43  64  96 132 166 197 235 284
#
# _framework density 18.536308999999999
#
# number of rings (size 3 to 8) (size 9 to 14) (size 15 to 20)
#    0.000    3.167    0.000    3.500    0.000    2.333 
#    0.000    6.667    0.000    0.000    0.000    0.000 
#    0.000    6.000    0.000    6.000    0.000    6.667 
#
# Total GULP energy -594798.977960 kJ/mol
# GULP energy per Si atom -12391.645374 kJ/mol
# Density = 1.849412 g / cm^3
# Si number density = 18.536309 Si / 1000 Ang^3
#
#
#
# Elastic Constant Matrix: (Units=GPa)
#
#
# Indices 1 2 3 4 5 6 
#
# 1 67.2593 29.5935 15.6914 0.0000 0.0000 0.0000
# 2 29.5935 126.5448 24.9227 0.0000 0.0000 0.0000
# 3 15.6914 24.9227 25.9277 0.0000 0.0000 0.0000
# 4 0.0000 0.0000 0.0000 14.7864 0.0000 0.0000
# 5 0.0000 0.0000 0.0000 0.0000 17.6594 0.0000
# 6 0.0000 0.0000 0.0000 0.0000 0.0000 25.5065
#
#
#
# Elastic Compliance Matrix: (Units=1/GPa)
#
#
# Indices 1 2 3 4 5 6 
#
# 1 0.017950 -0.002539 -0.008423 0.000000 0.000000 0.000000
# 2 -0.002539 0.010107 -0.008179 0.000000 0.000000 0.000000
# 3 -0.008423 -0.008179 0.051528 0.000000 0.000000 0.000000
# 4 0.000000 0.000000 0.000000 0.067630 0.000000 0.000000
# 5 0.000000 0.000000 0.000000 0.000000 0.056627 0.000000
# 6 0.000000 0.000000 0.000000 0.000000 0.000000 0.039206
#
#
# Mechanical properties :
#
#
# Convention : Reuss Voigt Hill
#
# Bulk Modulus (GPa) = 24.21068 40.01632 32.11350
# Shear Modulus (GPa) = 16.94368 21.55874 19.25121
#
# Velocity S-wave (km/s) = 3.02666 3.41406 3.22618
# Velocity P-wave (km/s) = 5.03029 6.09721 5.58927
#
# Compressibility (1/GPa) = 0.04130409
#
# Stress axis : x y z
#
# Youngs Moduli (GPa) = 55.71053 98.94300 19.40704
#
# Poissons Ratio (x) = 0.25121 0.16346
# Poissons Ratio (y) = 0.14144 0.15872
# Poissons Ratio (z) = 0.46924 0.80921
#
# Static dielectric constant tensor:
#      x y z
#    x 3.845480 0.000000 0.000000 
#    y 0.000000 3.580950 0.000000 
#    z 0.000000 0.000000 2.819550 
# 
# 
# High freq. dielectric constant tensor:
#      x y z
#    x 1.723680 0.000000 0.000000 
#    y 0.000000 1.728310 0.000000 
#    z 0.000000 0.000000 1.663000 
# 
# From -- ./inp_files/12862.got.cif
#   From: 2010.06.25/outbox.cif.g09.slc.cpg/sg71_7_cif.got.tgz:12862.got - 2010.06.28 04:59:45.
