data_PCOD8292114
_publ_section_title
;
Structure prediction by ZEFSAII (Michael W. Deem and Ramdas Pophale) SiO2 
 PCOD8292114
Probable space group: I M M M
;
_chemical_formula_sum "Si O2"
_cell_formula_units_Z 72
_cell_length_a 14.332241
_cell_length_b 10.614003
_cell_length_c 26.043375
_cell_angle_alpha 90.000000
_cell_angle_beta 90.000000
_cell_angle_gamma 90.000000
_cell_volume 3961.781984
_symmetry_space_group_name_H-M "I M M M"
_symmetry_group_IT_number 71
_symmetry_cell_setting 'orthorhombic'
loop_
_space_group_symop_operation_xyz
x,y,z
-x,-y,z
x,-y,-z
-x,y,-z
-x,-y,-z
x,y,-z
-x,y,z
x,-y,z
1/2+x,1/2+y,1/2+z
1/2-x,1/2-y,1/2+z
1/2+x,1/2-y,1/2-z
1/2-x,1/2+y,1/2-z
1/2-x,1/2-y,1/2-z
1/2+x,1/2+y,1/2-z
1/2-x,1/2+y,1/2+z
1/2+x,1/2-y,1/2+z
loop_
_atom_site_type_symbol
_atom_site_label
_atom_site_fract_x
_atom_site_fract_y
_atom_site_fract_z
Si Si1 0.817359 0.751710 0.104517
Si Si2 0.604278 0.000000 0.559639
Si Si3 0.810843 0.748629 0.698272
Si Si4 0.225243 0.500000 0.559487
Si Si5 0.000000 0.856673 0.730620
Si Si6 0.109847 0.500000 0.343241
Si Si7 0.000000 0.149536 0.842834
O O1 0.837271 0.625748 0.072488
O O2 0.748133 0.705794 0.149450
O O3 0.780320 0.869222 0.070318
O O4 0.910844 0.801749 0.128527
O O5 0.500000 0.000000 0.585666
O O6 0.588824 0.000000 0.500000
O O7 0.750000 0.750000 0.750000
O O8 0.843112 0.609006 0.688493
O O9 0.905337 0.829758 0.699822
O O10 0.194386 0.500000 0.500000
O O11 0.134428 0.500000 0.596243
O O12 0.000000 0.788007 0.785953
O O13 0.000000 0.000000 0.744890
O O14 0.000000 0.500000 0.337068
O O15 0.000000 0.000000 0.842649
#
# Coordination Sequence:
#
# PCOD8292114 Si02
#       7
#    16   8  16   8   8   8   8
#     4  11  22  38  60  85 120 154 193 240 296 346
#     4  11  24  39  57  85 119 152 196 250 298 345
#     4  11  23  38  58  88 118 157 190 232 282 348
#     4  10  22  40  63  84 109 156 204 243 299 355
#     4  11  24  37  57  84 123 160 194 224 278 343
#     4  10  22  40  61  85 118 148 197 255 287 329
#     4  11  20  37  56  86 120 153 195 241 277 344
#
# _framework density 18.173641
#
# number of rings (size 3 to 8) (size 9 to 14) (size 15 to 20)
#    0.000    1.222    5.556    0.667    3.111    0.222 
#    0.000    2.778    0.000    0.000    0.000    0.778 
#    0.000    0.000    0.000    0.000    0.000    0.000 
#
# Total GULP energy -446122.451785 kJ/mol
# GULP energy per Si atom -12392.290327 kJ/mol
# Density = 1.813228 g / cm^3
# Si number density = 18.173641 Si / 1000 Ang^3
#
#
#
# Elastic Constant Matrix: (Units=GPa)
#
#
# Indices 1 2 3 4 5 6 
#
# 1 118.8559 28.4828 48.9588 0.0000 0.0000 0.0000
# 2 28.4828 104.7110 42.0903 0.0000 0.0000 0.0000
# 3 48.9588 42.0903 113.5486 0.0000 0.0000 0.0000
# 4 0.0000 0.0000 0.0000 27.2899 0.0000 0.0000
# 5 0.0000 0.0000 0.0000 0.0000 7.5878 0.0000
# 6 0.0000 0.0000 0.0000 0.0000 0.0000 24.5786
#
#
#
# Elastic Compliance Matrix: (Units=1/GPa)
#
#
# Indices 1 2 3 4 5 6 
#
# 1 0.010358 -0.001201 -0.004021 0.000000 0.000000 0.000000
# 2 -0.001201 0.011362 -0.003694 0.000000 0.000000 0.000000
# 3 -0.004021 -0.003694 0.011909 0.000000 0.000000 0.000000
# 4 0.000000 0.000000 0.000000 0.036644 0.000000 0.000000
# 5 0.000000 0.000000 0.000000 0.000000 0.131791 0.000000
# 6 0.000000 0.000000 0.000000 0.000000 0.000000 0.040686
#
#
# Mechanical properties :
#
#
# Convention : Reuss Voigt Hill
#
# Bulk Modulus (GPa) = 63.30001 64.01992 63.65996
# Shear Modulus (GPa) = 18.80793 26.39682 22.60237
#
# Velocity S-wave (km/s) = 3.22048 3.81527 3.53042
# Velocity P-wave (km/s) = 6.98104 7.39674 7.19189
#
# Compressibility (1/GPa) = 0.01579779
#
# Stress axis : x y z
#
# Youngs Moduli (GPa) = 96.54774 88.01622 83.96661
#
# Poissons Ratio (x) = 0.10573 0.33760
# Poissons Ratio (y) = 0.11598 0.31014
# Poissons Ratio (z) = 0.38818 0.32509
#
# Static dielectric constant tensor:
#      x y z
#    x 3.639350 0.000000 0.000000 
#    y 0.000000 3.610510 0.000000 
#    z 0.000000 0.000000 3.364550 
# 
# 
# High freq. dielectric constant tensor:
#      x y z
#    x 1.714130 0.000000 0.000000 
#    y 0.000000 1.712490 0.000000 
#    z 0.000000 0.000000 1.702220 
# 
# From -- ./inp_files/6254.got.cif
#   From: 2010.06.25/outbox.cif.g09.slc.cpg/sg71_4_cif.got.tgz:6254.got - 2010.06.28 04:59:45.
