data_PCOD8292488
_publ_section_title
;
Structure prediction by ZEFSAII (Michael W. Deem and Ramdas Pophale) SiO2 
 PCOD8292488
Probable space group: I M M M
;
_chemical_formula_sum "Si O2"
_cell_formula_units_Z 72
_cell_length_a 27.450356
_cell_length_b 8.691999
_cell_length_c 16.252612
_cell_angle_alpha 90.000000
_cell_angle_beta 90.000000
_cell_angle_gamma 90.000000
_cell_volume 3877.848306
_symmetry_space_group_name_H-M "I M M M"
_symmetry_group_IT_number 71
_symmetry_cell_setting 'orthorhombic'
loop_
_space_group_symop_operation_xyz
x,y,z
-x,-y,z
x,-y,-z
-x,y,-z
-x,-y,-z
x,y,-z
-x,y,z
x,-y,z
1/2+x,1/2+y,1/2+z
1/2-x,1/2-y,1/2+z
1/2+x,1/2-y,1/2-z
1/2-x,1/2+y,1/2-z
1/2-x,1/2-y,1/2-z
1/2+x,1/2+y,1/2-z
1/2-x,1/2+y,1/2+z
1/2+x,1/2-y,1/2+z
loop_
_atom_site_type_symbol
_atom_site_label
_atom_site_fract_x
_atom_site_fract_y
_atom_site_fract_z
Si Si1 0.803036 0.180138 0.254133
Si Si2 0.352469 0.820738 0.092622
Si Si3 0.444164 0.816876 0.500000
Si Si4 0.947202 0.680251 0.677298
Si Si5 0.109256 0.317160 0.164286
O O1 0.750000 0.250000 0.250000
O O2 0.822344 0.216819 0.345251
O O3 0.837000 0.249218 0.181544
O O4 0.800205 0.000000 0.240490
O O5 0.409954 0.782781 0.103340
O O6 0.342849 0.000000 0.113170
O O7 0.336810 0.780075 0.000000
O O8 0.500000 0.753494 0.500000
O O9 0.414220 0.756683 0.420718
O O10 0.446268 0.000000 0.500000
O O11 0.954166 0.500000 0.687056
O O12 0.925869 0.743510 0.763195
O O13 0.000000 0.757012 0.659419
O O14 0.114219 0.500000 0.163993
#
# Coordination Sequence:
#
# PCOD8292488 Si02
#       5
#    16  16   8  16  16
#     4  11  22  38  58  76  99 135 178 223 272 322
#     4   9  18  33  53  79 109 136 167 211 259 308
#     4   9  16  28  53  87 117 145 181 227 270 313
#     4   8  13  23  44  74 106 139 172 205 244 294
#     4   9  17  31  51  78 110 141 177 221 266 315
#
# _framework density 18.566997000000001
#
# number of rings (size 3 to 8) (size 9 to 14) (size 15 to 20)
#    0.000    2.778    0.000    4.000    0.000    3.556 
#    2.000    2.778    0.000   17.333    0.000    6.222 
#    0.000    0.000    0.000    0.000    0.000    0.000 
#
# Total GULP energy -446181.988813 kJ/mol
# GULP energy per Si atom -12393.944134 kJ/mol
# Density = 1.852474 g / cm^3
# Si number density = 18.566997 Si / 1000 Ang^3
#
#
#
# Elastic Constant Matrix: (Units=GPa)
#
#
# Indices 1 2 3 4 5 6 
#
# 1 153.7185 32.4363 46.2465 0.0000 0.0000 0.0000
# 2 32.4363 52.0139 21.9630 0.0000 0.0000 0.0000
# 3 46.2465 21.9630 104.6844 0.0000 0.0000 0.0000
# 4 0.0000 0.0000 0.0000 19.2842 0.0000 0.0000
# 5 0.0000 0.0000 0.0000 0.0000 17.1367 0.0000
# 6 0.0000 0.0000 0.0000 0.0000 0.0000 20.9051
#
#
#
# Elastic Compliance Matrix: (Units=1/GPa)
#
#
# Indices 1 2 3 4 5 6 
#
# 1 0.008171 -0.003918 -0.002788 0.000000 0.000000 0.000000
# 2 -0.003918 0.022973 -0.003089 0.000000 0.000000 0.000000
# 3 -0.002788 -0.003089 0.011432 0.000000 0.000000 0.000000
# 4 0.000000 0.000000 0.000000 0.051856 0.000000 0.000000
# 5 0.000000 0.000000 0.000000 0.000000 0.058354 0.000000
# 6 0.000000 0.000000 0.000000 0.000000 0.000000 0.047835
#
#
# Mechanical properties :
#
#
# Convention : Reuss Voigt Hill
#
# Bulk Modulus (GPa) = 43.50327 56.85647 50.17987
# Shear Modulus (GPa) = 21.94200 25.44994 23.69597
#
# Velocity S-wave (km/s) = 3.44142 3.70632 3.57633
# Velocity P-wave (km/s) = 6.26678 7.00033 6.64368
#
# Compressibility (1/GPa) = 0.02298678
#
# Stress axis : x y z
#
# Youngs Moduli (GPa) = 122.38610 43.52851 87.47347
#
# Poissons Ratio (x) = 0.17056 0.24384
# Poissons Ratio (y) = 0.47955 0.27019
# Poissons Ratio (z) = 0.34116 0.13445
#
# Static dielectric constant tensor:
#      x y z
#    x 3.468300 0.000000 0.000000 
#    y 0.000000 3.003340 0.000000 
#    z 0.000000 0.000000 2.689210 
# 
# 
# High freq. dielectric constant tensor:
#      x y z
#    x 1.728350 0.000000 0.000000 
#    y 0.000000 1.677290 0.000000 
#    z 0.000000 0.000000 1.717090 
# 
# From -- ./inp_files/16355.got.cif
#   From: 2010.06.25/outbox.cif.g09.slc.cpg/sg71_9_cif.got.tgz:16355.got - 2010.06.28 04:59:45.
