data_PCOD8292651
_publ_section_title
;
Structure prediction by ZEFSAII (Michael W. Deem and Ramdas Pophale) SiO2 
 PCOD8292651
Probable space group: I M M M
;
_chemical_formula_sum "Si O2"
_cell_formula_units_Z 88
_cell_length_a 15.021012
_cell_length_b 23.044361
_cell_length_c 19.111920
_cell_angle_alpha 90.000000
_cell_angle_beta 90.000000
_cell_angle_gamma 90.000000
_cell_volume 6615.583905
_symmetry_space_group_name_H-M "I M M M"
_symmetry_group_IT_number 71
_symmetry_cell_setting 'orthorhombic'
loop_
_space_group_symop_operation_xyz
x,y,z
-x,-y,z
x,-y,-z
-x,y,-z
-x,-y,-z
x,y,-z
-x,y,z
x,-y,z
1/2+x,1/2+y,1/2+z
1/2-x,1/2-y,1/2+z
1/2+x,1/2-y,1/2-z
1/2-x,1/2+y,1/2-z
1/2-x,1/2-y,1/2-z
1/2+x,1/2+y,1/2-z
1/2-x,1/2+y,1/2+z
1/2+x,1/2-y,1/2+z
loop_
_atom_site_type_symbol
_atom_site_label
_atom_site_fract_x
_atom_site_fract_y
_atom_site_fract_z
Si Si1 0.105806 0.218605 0.421896
Si Si2 0.105880 0.110139 0.336845
Si Si3 0.401270 0.846842 0.916867
Si Si4 0.101070 0.932449 0.810983
Si Si5 0.250971 0.066874 0.919119
Si Si6 0.606233 0.500000 0.921004
O O1 0.144284 0.207214 0.500000
O O2 0.144043 0.170252 0.368652
O O3 0.132790 0.282696 0.394338
O O4 0.000000 0.214831 0.425568
O O5 0.135415 0.103836 0.256100
O O6 0.144180 0.056938 0.382363
O O7 0.000000 0.108758 0.340793
O O8 0.500000 0.859690 0.885823
O O9 0.332502 0.895013 0.889177
O O10 0.407207 0.849020 0.000000
O O11 0.162076 0.916918 0.877034
O O12 0.000000 0.915684 0.831143
O O13 0.106821 0.000000 0.790781
O O14 0.277795 0.000000 0.908573
O O15 0.231140 0.080948 0.000000
O O16 0.500000 0.500000 0.919832
O O17 0.642428 0.500000 0.000000
#
# Coordination Sequence:
#
# PCOD8292651 Si02
#       6
#    16  16  16  16  16   8
#     4   8  13  21  34  51  71  95 118 139 167 206
#     4   9  14  21  32  48  70  96 122 144 168 200
#     4   8  14  25  39  54  72  91 111 141 181 219
#     4   9  16  26  37  49  70  98 123 147 177 206
#     4   9  17  27  39  54  68  86 118 155 185 214
#     4   9  14  18  28  48  71  93 120 149 167 189
#
# _framework density 13.301924
#
# number of rings (size 3 to 8) (size 9 to 14) (size 15 to 20)
#    0.000    3.364    0.909    1.636    0.000    2.909 
#    0.000    4.545    0.000    0.000    0.000    0.000 
#    0.000    0.000    0.000    0.000    0.000    3.818 
#
# Total GULP energy -545306.703587 kJ/mol
# GULP energy per Si atom -12393.334172 kJ/mol
# Density = 1.327165 g / cm^3
# Si number density = 13.301924 Si / 1000 Ang^3
#
#
#
# Elastic Constant Matrix: (Units=GPa)
#
#
# Indices 1 2 3 4 5 6 
#
# 1 48.6701 40.4288 33.8552 0.0000 0.0000 0.0000
# 2 40.4288 89.9315 46.5181 -0.0001 0.0000 0.0000
# 3 33.8552 46.5181 67.7684 -0.0003 0.0000 0.0000
# 4 0.0000 -0.0001 -0.0003 13.4566 0.0000 0.0000
# 5 0.0000 0.0000 0.0000 0.0000 7.5745 0.0000
# 6 0.0000 0.0000 0.0000 0.0000 0.0000 9.5400
#
#
#
# Elastic Compliance Matrix: (Units=1/GPa)
#
#
# Indices 1 2 3 4 5 6 
#
# 1 0.037506 -0.011116 -0.011107 0.000000 0.000000 0.000000
# 2 -0.011116 0.020536 -0.008543 0.000000 0.000000 0.000000
# 3 -0.011107 -0.008543 0.026169 0.000000 0.000000 0.000000
# 4 0.000000 0.000000 0.000000 0.074313 0.000000 0.000000
# 5 0.000000 0.000000 0.000000 0.000000 0.132021 0.000000
# 6 0.000000 0.000000 0.000000 0.000000 0.000000 0.104822
#
#
# Mechanical properties :
#
#
# Convention : Reuss Voigt Hill
#
# Bulk Modulus (GPa) = 44.09300 49.77493 46.93397
# Shear Modulus (GPa) = 10.76523 11.81874 11.29199
#
# Velocity S-wave (km/s) = 2.84790 2.98400 2.91675
# Velocity P-wave (km/s) = 6.63580 7.02659 6.83399
#
# Compressibility (1/GPa) = 0.02267934
#
# Stress axis : x y z
#
# Youngs Moduli (GPa) = 26.66243 48.69554 38.21310
#
# Poissons Ratio (x) = 0.54129 0.42442
# Poissons Ratio (y) = 0.29637 0.32646
# Poissons Ratio (z) = 0.29613 0.41602
#
# Static dielectric constant tensor:
#      x y z
#    x 2.392430 0.000000 0.000000 
#    y 0.000000 2.911420 0.000000 
#    z 0.000000 0.000000 2.608860 
# 
# 
# High freq. dielectric constant tensor:
#      x y z
#    x 1.452440 0.000000 0.000000 
#    y 0.000000 1.510130 0.000000 
#    z 0.000000 0.000000 1.491630 
# 
# From -- ./inp_files/36581.got.cif
#   From: 2010.06.25/outbox.cif.g09.slc.cpg/sg71_19_cif.got.tgz:36581.got - 2010.06.28 04:59:45.
