data_PCOD8292126
_publ_section_title
;
Structure prediction by ZEFSAII (Michael W. Deem and Ramdas Pophale) SiO2 
 PCOD8292126
Probable space group: I M M M
;
_chemical_formula_sum "Si O2"
_cell_formula_units_Z 120
_cell_length_a 17.221074
_cell_length_b 19.435364
_cell_length_c 17.679299
_cell_angle_alpha 90.000000
_cell_angle_beta 90.000000
_cell_angle_gamma 90.000000
_cell_volume 5917.223217
_symmetry_space_group_name_H-M "I M M M"
_symmetry_group_IT_number 71
_symmetry_cell_setting 'orthorhombic'
loop_
_space_group_symop_operation_xyz
x,y,z
-x,-y,z
x,-y,-z
-x,y,-z
-x,-y,-z
x,y,-z
-x,y,z
x,-y,z
1/2+x,1/2+y,1/2+z
1/2-x,1/2-y,1/2+z
1/2+x,1/2-y,1/2-z
1/2-x,1/2+y,1/2-z
1/2-x,1/2-y,1/2-z
1/2+x,1/2+y,1/2-z
1/2-x,1/2+y,1/2+z
1/2+x,1/2-y,1/2+z
loop_
_atom_site_type_symbol
_atom_site_label
_atom_site_fract_x
_atom_site_fract_y
_atom_site_fract_z
Si Si1 0.088058 0.706667 0.088314
Si Si2 0.684601 0.292607 0.705331
Si Si3 0.412567 0.722766 0.153848
Si Si4 0.914077 0.632028 0.586379
Si Si5 0.915583 0.000000 0.409893
Si Si6 0.847058 0.420951 0.842093
Si Si7 0.712666 0.923543 0.818776
Si Si8 0.690590 0.619786 0.914436
O O1 0.151439 0.753937 0.131160
O O2 0.088062 0.628325 0.121207
O O3 0.000000 0.734579 0.098514
O O4 0.111802 0.705661 0.000000
O O5 0.750000 0.250000 0.750000
O O6 0.612085 0.300847 0.762108
O O7 0.719109 0.366559 0.680371
O O8 0.500000 0.696352 0.137816
O O9 0.407630 0.804234 0.144022
O O10 0.351193 0.693097 0.093120
O O11 0.902934 0.656386 0.500000
O O12 0.844116 0.581245 0.608508
O O13 0.000000 0.597994 0.595658
O O14 0.870768 0.933739 0.380370
O O15 0.921268 0.000000 0.500000
O O16 0.000000 0.000000 0.372309
O O17 0.857010 0.500000 0.870766
O O18 0.846761 0.416608 0.751737
O O19 0.766033 0.386405 0.864606
O O20 0.751130 0.000000 0.818806
O O21 0.714070 0.603800 0.000000
#
# Coordination Sequence:
#
# PCOD8292126 Si02
#       8
#    16  16  16  16   8  16  16  16
#     4  11  25  43  65  94 126 164 211 262 318 377
#     4  12  21  42  66  93 120 162 207 259 311 365
#     4  11  21  35  59  89 121 158 200 250 305 365
#     4  10  22  40  62  91 125 158 197 247 305 367
#     4   9  18  30  44  70 115 165 204 241 295 361
#     4  11  22  39  62  90 126 168 211 252 303 370
#     4  11  24  41  62  90 125 162 205 253 307 370
#     4  11  20  32  51  80 119 161 205 252 301 357
#
# _framework density 20.279782000000001
#
# number of rings (size 3 to 8) (size 9 to 14) (size 15 to 20)
#    0.000    1.133    4.667    1.600    0.000    5.067 
#    0.000    2.667    0.000    1.200    0.000    0.933 
#    0.000    0.000    0.000    0.000    0.000    0.000 
#
# Total GULP energy -743795.367764 kJ/mol
# GULP energy per Si atom -12396.589463 kJ/mol
# Density = 2.023362 g / cm^3
# Si number density = 20.279782 Si / 1000 Ang^3
#
#
#
# Elastic Constant Matrix: (Units=GPa)
#
#
# Indices 1 2 3 4 5 6 
#
# 1 85.1098 37.0778 36.1200 0.0000 0.0000 0.0000
# 2 37.0778 113.6010 34.6068 0.0000 0.0000 0.0000
# 3 36.1200 34.6068 89.3739 0.0000 0.0000 0.0000
# 4 0.0000 0.0000 0.0000 34.8032 0.0000 0.0000
# 5 0.0000 0.0000 0.0000 0.0000 34.3371 0.0000
# 6 0.0000 0.0000 0.0000 0.0000 0.0000 31.1960
#
#
#
# Elastic Compliance Matrix: (Units=1/GPa)
#
#
# Indices 1 2 3 4 5 6 
#
# 1 0.015340 -0.003535 -0.004831 0.000000 0.000000 0.000000
# 2 -0.003535 0.010795 -0.002751 0.000000 0.000000 0.000000
# 3 -0.004831 -0.002751 0.014207 0.000000 0.000000 0.000000
# 4 0.000000 0.000000 0.000000 0.028733 0.000000 0.000000
# 5 0.000000 0.000000 0.000000 0.000000 0.029123 0.000000
# 6 0.000000 0.000000 0.000000 0.000000 0.000000 0.032055
#
#
# Mechanical properties :
#
#
# Convention : Reuss Voigt Hill
#
# Bulk Modulus (GPa) = 55.22694 55.96602 55.59648
# Shear Modulus (GPa) = 31.54142 32.08591 31.81367
#
# Velocity S-wave (km/s) = 3.94803 3.98196 3.96503
# Velocity P-wave (km/s) = 6.93355 6.98557 6.95961
#
# Compressibility (1/GPa) = 0.01810710
#
# Stress axis : x y z
#
# Youngs Moduli (GPa) = 65.19045 92.63859 70.39026
#
# Poissons Ratio (x) = 0.32749 0.34003
# Poissons Ratio (y) = 0.23045 0.19365
# Poissons Ratio (z) = 0.31491 0.25486
#
# Static dielectric constant tensor:
#      x y z
#    x 3.778200 0.000000 0.000000 
#    y 0.000000 3.695870 0.000000 
#    z 0.000000 0.000000 3.633320 
# 
# 
# High freq. dielectric constant tensor:
#      x y z
#    x 1.790090 0.000000 0.000000 
#    y 0.000000 1.784610 0.000000 
#    z 0.000000 0.000000 1.783080 
# 
# From -- ./inp_files/46463.got.cif
#   From: 2010.06.25/outbox.cif.g09.slc.cpg/sg71_24_cif.got.tgz:46463.got - 2010.06.28 04:59:45.
