data_PCOD8292364
_publ_section_title
;
Structure prediction by ZEFSAII (Michael W. Deem and Ramdas Pophale) SiO2 
 PCOD8292364
Probable space group: I M M M
;
_chemical_formula_sum "Si O2"
_cell_formula_units_Z 72
_cell_length_a 16.307504
_cell_length_b 17.101191
_cell_length_c 13.949077
_cell_angle_alpha 90.000000
_cell_angle_beta 90.000000
_cell_angle_gamma 90.000000
_cell_volume 3890.087078
_symmetry_space_group_name_H-M "I M M M"
_symmetry_group_IT_number 71
_symmetry_cell_setting 'orthorhombic'
loop_
_space_group_symop_operation_xyz
x,y,z
-x,-y,z
x,-y,-z
-x,y,-z
-x,-y,-z
x,y,-z
-x,y,z
x,-y,z
1/2+x,1/2+y,1/2+z
1/2-x,1/2-y,1/2+z
1/2+x,1/2-y,1/2-z
1/2-x,1/2+y,1/2-z
1/2-x,1/2-y,1/2-z
1/2+x,1/2+y,1/2-z
1/2-x,1/2+y,1/2+z
1/2+x,1/2-y,1/2+z
loop_
_atom_site_type_symbol
_atom_site_label
_atom_site_fract_x
_atom_site_fract_y
_atom_site_fract_z
Si Si1 0.249862 0.189611 0.889632
Si Si2 0.830177 0.148560 0.387807
Si Si3 0.186987 0.588174 0.223948
Si Si4 0.093673 0.715213 0.888962
Si Si5 0.000000 0.087958 0.614241
O O1 0.304763 0.263949 0.859824
O O2 0.282480 0.117805 0.827687
O O3 0.154665 0.211769 0.867467
O O4 0.262045 0.166457 0.000000
O O5 0.828276 0.134664 0.500000
O O6 0.766104 0.087485 0.344329
O O7 0.920480 0.132907 0.345759
O O8 0.153381 0.500000 0.234846
O O9 0.115358 0.641519 0.178474
O O10 0.000000 0.741191 0.869309
O O11 0.106118 0.689597 0.000000
O O12 0.000000 0.088030 0.500000
O O13 0.000000 0.000000 0.654089
#
# Coordination Sequence:
#
# PCOD8292364 Si02
#       5
#    16  16  16  16   8
#     4   9  19  37  54  72  99 136 185 221 251 300
#     4   9  17  31  51  73 101 133 164 206 257 311
#     4  11  21  33  50  76 108 138 172 214 261 311
#     4   9  18  34  58  83 105 133 170 216 269 320
#     4   9  16  26  44  74 106 128 150 189 252 318
#
# _framework density 18.508583000000002
#
# number of rings (size 3 to 8) (size 9 to 14) (size 15 to 20)
#    0.000    2.556    0.000    5.333    0.000    3.556 
#    8.000    1.111    0.000    0.000    0.000    4.667 
#    0.000    0.000    0.000    0.000    0.000    0.000 
#
# Total GULP energy -446312.891556 kJ/mol
# GULP energy per Si atom -12397.580321 kJ/mol
# Density = 1.846646 g / cm^3
# Si number density = 18.508583 Si / 1000 Ang^3
#
#
#
# Elastic Constant Matrix: (Units=GPa)
#
#
# Indices 1 2 3 4 5 6 
#
# 1 107.4375 3.0756 17.8993 0.0000 0.0000 0.0000
# 2 3.0756 55.0821 28.9564 0.0000 0.0000 0.0000
# 3 17.8993 28.9564 49.0617 0.0000 0.0000 0.0000
# 4 0.0000 0.0000 0.0000 21.6370 0.0000 0.0000
# 5 0.0000 0.0000 0.0000 0.0000 17.6370 0.0000
# 6 0.0000 0.0000 0.0000 0.0000 0.0000 12.5905
#
#
#
# Elastic Compliance Matrix: (Units=1/GPa)
#
#
# Indices 1 2 3 4 5 6 
#
# 1 0.010057 0.001982 -0.004839 0.000000 0.000000 0.000000
# 2 0.001982 0.026712 -0.016489 0.000000 0.000000 0.000000
# 3 -0.004839 -0.016489 0.031880 0.000000 0.000000 0.000000
# 4 0.000000 0.000000 0.000000 0.046217 0.000000 0.000000
# 5 0.000000 0.000000 0.000000 0.000000 0.056699 0.000000
# 6 0.000000 0.000000 0.000000 0.000000 0.000000 0.079425
#
#
# Mechanical properties :
#
#
# Convention : Reuss Voigt Hill
#
# Bulk Modulus (GPa) = 33.38030 34.60489 33.99260
# Shear Modulus (GPa) = 16.68513 21.14955 18.91734
#
# Velocity S-wave (km/s) = 3.00572 3.38404 3.20047
# Velocity P-wave (km/s) = 5.48817 5.83148 5.66243
#
# Compressibility (1/GPa) = 0.02995779
#
# Stress axis : x y z
#
# Youngs Moduli (GPa) = 99.43113 37.43612 31.36778
#
# Poissons Ratio (x) = -0.07421 0.15180
# Poissons Ratio (y) = -0.19711 0.51722
# Poissons Ratio (z) = 0.48117 0.61728
#
# Static dielectric constant tensor:
#      x y z
#    x 3.731910 0.000000 0.000000 
#    y 0.000000 3.087470 0.000000 
#    z 0.000000 0.000000 3.306880 
# 
# 
# High freq. dielectric constant tensor:
#      x y z
#    x 1.719480 0.000000 0.000000 
#    y 0.000000 1.687200 0.000000 
#    z 0.000000 0.000000 1.715060 
# 
# From -- ./inp_files/36065.got.cif
#   From: 2010.06.25/outbox.cif.g09.slc.cpg/sg71_19_cif.got.tgz:36065.got - 2010.06.28 04:59:45.
