data_PCOD8292618
_publ_section_title
;
Structure prediction by ZEFSAII (Michael W. Deem and Ramdas Pophale) SiO2 
 PCOD8292618
Probable space group: I M M M
;
_chemical_formula_sum "Si O2"
_cell_formula_units_Z 72
_cell_length_a 23.587259
_cell_length_b 10.009670
_cell_length_c 22.999483
_cell_angle_alpha 90.000000
_cell_angle_beta 90.000000
_cell_angle_gamma 90.000000
_cell_volume 5430.193548
_symmetry_space_group_name_H-M "I M M M"
_symmetry_group_IT_number 71
_symmetry_cell_setting 'orthorhombic'
loop_
_space_group_symop_operation_xyz
x,y,z
-x,-y,z
x,-y,-z
-x,y,-z
-x,-y,-z
x,y,-z
-x,y,z
x,-y,z
1/2+x,1/2+y,1/2+z
1/2-x,1/2-y,1/2+z
1/2+x,1/2-y,1/2-z
1/2-x,1/2+y,1/2-z
1/2-x,1/2-y,1/2-z
1/2+x,1/2+y,1/2-z
1/2-x,1/2+y,1/2+z
1/2+x,1/2-y,1/2+z
loop_
_atom_site_type_symbol
_atom_site_label
_atom_site_fract_x
_atom_site_fract_y
_atom_site_fract_z
Si Si1 0.000000 0.340548 0.066204
Si Si2 0.772693 0.340967 0.064352
Si Si3 0.831542 0.350955 0.761035
Si Si4 0.614477 0.158620 0.622737
Si Si5 0.211261 0.850631 0.324344
O O1 0.055338 0.282581 0.098999
O O2 0.000000 0.500000 0.067808
O O3 0.000000 0.289127 0.000000
O O4 0.776483 0.500000 0.064617
O O5 0.833883 0.282972 0.083970
O O6 0.723679 0.298028 0.110016
O O7 0.757789 0.286142 0.000000
O O8 0.846644 0.500000 0.738557
O O9 0.876923 0.302071 0.809462
O O10 0.832908 0.249343 0.706674
O O11 0.770247 0.353648 0.790403
O O12 0.614731 0.000000 0.617133
O O13 0.184937 0.000000 0.324959
#
# Coordination Sequence:
#
# PCOD8292618 Si02
#       5
#     8  16  16  16  16
#     4   9  14  18  26  42  65  89 110 135 164 188
#     4   8  12  18  28  42  61  83 105 130 159 188
#     4   8  13  21  31  43  61  82 102 127 158 186
#     4   8  13  19  27  41  61  85 110 133 159 189
#     4   8  13  20  31  46  60  77 104 131 152 182
#
# _framework density 13.259195999999999
#
# number of rings (size 3 to 8) (size 9 to 14) (size 15 to 20)
#    0.000    3.889    0.000    3.333    0.000    2.667 
#    0.000    0.000    0.000    0.667    0.000    0.778 
#    0.000    3.556    0.000    1.000    0.000   22.889 
#
# Total GULP energy -445987.975696 kJ/mol
# GULP energy per Si atom -12388.554880 kJ/mol
# Density = 1.322902 g / cm^3
# Si number density = 13.259196 Si / 1000 Ang^3
#
#
#
# Elastic Constant Matrix: (Units=GPa)
#
#
# Indices 1 2 3 4 5 6 
#
# 1 44.5257 18.2621 49.8643 0.0000 0.0000 0.0000
# 2 18.2621 32.0807 38.2900 0.0000 0.0000 0.0000
# 3 49.8643 38.2900 124.4379 0.0000 0.0000 0.0000
# 4 0.0000 0.0000 0.0000 15.5536 0.0000 0.0000
# 5 0.0000 0.0000 0.0000 0.0000 22.4594 0.0000
# 6 0.0000 0.0000 0.0000 0.0000 0.0000 7.0197
#
#
#
# Elastic Compliance Matrix: (Units=1/GPa)
#
#
# Indices 1 2 3 4 5 6 
#
# 1 0.041452 -0.005960 -0.014776 0.000000 0.000000 0.000000
# 2 -0.005960 0.050121 -0.013034 0.000000 0.000000 0.000000
# 3 -0.014776 -0.013034 0.017968 0.000000 0.000000 0.000000
# 4 0.000000 0.000000 0.000000 0.064294 0.000000 0.000000
# 5 0.000000 0.000000 0.000000 0.000000 0.044525 0.000000
# 6 0.000000 0.000000 0.000000 0.000000 0.000000 0.142457
#
#
# Mechanical properties :
#
#
# Convention : Reuss Voigt Hill
#
# Bulk Modulus (GPa) = 23.80991 45.98634 34.89813
# Shear Modulus (GPa) = 11.30308 15.31505 13.30907
#
# Velocity S-wave (km/s) = 2.92288 3.40229 3.17166
# Velocity P-wave (km/s) = 5.42100 7.08463 6.30790
#
# Compressibility (1/GPa) = 0.04199931
#
# Stress axis : x y z
#
# Youngs Moduli (GPa) = 24.12456 19.95169 55.65482
#
# Poissons Ratio (x) = 0.11891 0.82237
# Poissons Ratio (y) = 0.14379 0.72541
# Poissons Ratio (z) = 0.35647 0.26005
#
# Static dielectric constant tensor:
#      x y z
#    x 2.512720 0.000000 0.000000 
#    y 0.000000 2.409510 0.000000 
#    z 0.000000 0.000000 2.978600 
# 
# 
# High freq. dielectric constant tensor:
#      x y z
#    x 1.458340 0.000000 0.000000 
#    y 0.000000 1.456860 0.000000 
#    z 0.000000 0.000000 1.506800 
# 
# From -- ./inp_files/10647.got.cif
#   From: 2010.06.25/outbox.cif.g09.slc.cpg/sg71_6_cif.got.tgz:10647.got - 2010.06.28 04:59:45.
