data_PCOD8292550
_publ_section_title
;
Structure prediction by ZEFSAII (Michael W. Deem and Ramdas Pophale) SiO2 
 PCOD8292550
Probable space group: I M M M
;
_chemical_formula_sum "Si O2"
_cell_formula_units_Z 64
_cell_length_a 29.643014
_cell_length_b 12.619750
_cell_length_c 8.803552
_cell_angle_alpha 90.000000
_cell_angle_beta 90.000000
_cell_angle_gamma 90.000000
_cell_volume 3293.298107
_symmetry_space_group_name_H-M "I M M M"
_symmetry_group_IT_number 71
_symmetry_cell_setting 'orthorhombic'
loop_
_space_group_symop_operation_xyz
x,y,z
-x,-y,z
x,-y,-z
-x,y,-z
-x,-y,-z
x,y,-z
-x,y,z
x,-y,z
1/2+x,1/2+y,1/2+z
1/2-x,1/2-y,1/2+z
1/2+x,1/2-y,1/2-z
1/2-x,1/2+y,1/2-z
1/2-x,1/2-y,1/2-z
1/2+x,1/2+y,1/2-z
1/2-x,1/2+y,1/2+z
1/2+x,1/2-y,1/2+z
loop_
_atom_site_type_symbol
_atom_site_label
_atom_site_fract_x
_atom_site_fract_y
_atom_site_fract_z
Si Si1 0.500000 0.625510 0.180596
Si Si2 0.823858 0.268746 0.821239
Si Si3 0.575028 0.223610 0.681414
Si Si4 0.447404 0.000000 0.169548
Si Si5 0.752998 0.382104 0.669345
O O1 0.500000 0.500000 0.227089
O O2 0.543672 0.685726 0.246319
O O3 0.500000 0.637317 0.000000
O O4 0.874343 0.250067 0.761234
O O5 0.800354 0.376550 0.761652
O O6 0.789050 0.180815 0.756043
O O7 0.826702 0.270128 0.000000
O O8 0.569161 0.226691 0.500000
O O9 0.565282 0.104968 0.737391
O O10 0.500000 0.000000 0.146916
O O11 0.425050 0.000000 0.000000
O O12 0.762134 0.339239 0.500000
O O13 0.735319 0.500000 0.667492
#
# Coordination Sequence:
#
# PCOD8292550 Si02
#       5
#     8  16  16   8  16
#     4  11  25  44  63  86 119 155 193 241 290 347
#     4   9  20  36  54  81 114 145 183 235 284 332
#     4  11  23  39  62  90 118 153 197 244 294 348
#     4  11  23  39  61  87 120 158 192 240 298 351
#     4   9  18  34  55  79 109 148 189 228 276 336
#
# _framework density 19.433406999999999
#
# number of rings (size 3 to 8) (size 9 to 14) (size 15 to 20)
#    0.000    2.000    1.250    1.500    1.750    5.000 
#    0.000    2.500    0.000    0.000    0.000    0.000 
#    0.000    0.000    0.000    0.000    0.000    0.000 
#
# Total GULP energy -396479.073190 kJ/mol
# GULP energy per Si atom -12389.971037 kJ/mol
# Density = 1.938918 g / cm^3
# Si number density = 19.433407 Si / 1000 Ang^3
#
#
#
# Elastic Constant Matrix: (Units=GPa)
#
#
# Indices 1 2 3 4 5 6 
#
# 1 174.5179 68.4009 47.1605 0.0000 0.0000 0.0000
# 2 68.4009 131.8828 48.9635 0.0000 0.0000 0.0000
# 3 47.1605 48.9635 61.9149 0.0000 0.0000 0.0000
# 4 0.0000 0.0000 0.0000 36.5282 0.0000 0.0000
# 5 0.0000 0.0000 0.0000 0.0000 29.4959 0.0000
# 6 0.0000 0.0000 0.0000 0.0000 0.0000 16.8148
#
#
#
# Elastic Compliance Matrix: (Units=1/GPa)
#
#
# Indices 1 2 3 4 5 6 
#
# 1 0.007800 -0.002604 -0.003882 0.000000 0.000000 0.000000
# 2 -0.002604 0.011604 -0.007193 0.000000 0.000000 0.000000
# 3 -0.003882 -0.007193 0.024796 0.000000 0.000000 0.000000
# 4 0.000000 0.000000 0.000000 0.027376 0.000000 0.000000
# 5 0.000000 0.000000 0.000000 0.000000 0.033903 0.000000
# 6 0.000000 0.000000 0.000000 0.000000 0.000000 0.059471
#
#
# Mechanical properties :
#
#
# Convention : Reuss Voigt Hill
#
# Bulk Modulus (GPa) = 59.37458 77.48505 68.42981
# Shear Modulus (GPa) = 25.26264 30.15382 27.70823
#
# Velocity S-wave (km/s) = 3.60941 3.94337 3.78008
# Velocity P-wave (km/s) = 6.92745 7.79052 7.37163
#
# Compressibility (1/GPa) = 0.01684222
#
# Stress axis : x y z
#
# Youngs Moduli (GPa) = 128.21009 86.18038 40.32925
#
# Poissons Ratio (x) = 0.22443 0.15654
# Poissons Ratio (y) = 0.33389 0.29008
# Poissons Ratio (z) = 0.49765 0.61987
#
# Static dielectric constant tensor:
#      x y z
#    x 3.976380 0.000000 0.000000 
#    y 0.000000 3.589140 0.000000 
#    z 0.000000 0.000000 3.710840 
# 
# 
# High freq. dielectric constant tensor:
#      x y z
#    x 1.766290 0.000000 0.000000 
#    y 0.000000 1.754920 0.000000 
#    z 0.000000 0.000000 1.758660 
# 
# From -- ./inp_files/16185.got.cif
#   From: 2010.06.25/outbox.cif.g09.slc.cpg/sg71_9_cif.got.tgz:16185.got - 2010.06.28 04:59:45.
