data_PCOD8292529
_publ_section_title
;
Structure prediction by ZEFSAII (Michael W. Deem and Ramdas Pophale) SiO2 
 PCOD8292529
Probable space group: I M M M
;
_chemical_formula_sum "Si O2"
_cell_formula_units_Z 96
_cell_length_a 25.038847
_cell_length_b 23.155740
_cell_length_c 8.845618
_cell_angle_alpha 90.000000
_cell_angle_beta 90.000000
_cell_angle_gamma 90.000000
_cell_volume 5128.627672
_symmetry_space_group_name_H-M "I M M M"
_symmetry_group_IT_number 71
_symmetry_cell_setting 'orthorhombic'
loop_
_space_group_symop_operation_xyz
x,y,z
-x,-y,z
x,-y,-z
-x,y,-z
-x,-y,-z
x,y,-z
-x,y,z
x,-y,z
1/2+x,1/2+y,1/2+z
1/2-x,1/2-y,1/2+z
1/2+x,1/2-y,1/2-z
1/2-x,1/2+y,1/2-z
1/2-x,1/2-y,1/2-z
1/2+x,1/2+y,1/2-z
1/2-x,1/2+y,1/2+z
1/2+x,1/2-y,1/2+z
loop_
_atom_site_type_symbol
_atom_site_label
_atom_site_fract_x
_atom_site_fract_y
_atom_site_fract_z
Si Si1 0.755748 0.567268 0.325765
Si Si2 0.307782 0.749684 0.823922
Si Si3 0.651624 0.861022 0.677611
Si Si4 0.438353 0.066204 0.174597
Si Si5 0.657055 0.378148 0.825482
Si Si6 0.938958 0.066755 0.826192
O O1 0.763859 0.584465 0.500000
O O2 0.765766 0.500000 0.300228
O O3 0.797519 0.601624 0.224873
O O4 0.696270 0.583276 0.275660
O O5 0.250000 0.750000 0.750000
O O6 0.345881 0.798451 0.754282
O O7 0.335728 0.689088 0.790338
O O8 0.300489 0.761733 0.000000
O O9 0.653032 0.852360 0.500000
O O10 0.596883 0.892043 0.723328
O O11 0.500000 0.081980 0.202070
O O12 0.427373 0.000000 0.221303
O O13 0.422735 0.075170 0.000000
O O14 0.596795 0.394164 0.782636
O O15 0.668255 0.392071 0.000000
O O16 0.000000 0.083717 0.794176
O O17 0.929077 0.000000 0.787428
O O18 0.924156 0.078980 0.000000
#
# Coordination Sequence:
#
# PCOD8292529 Si02
#       6
#    16  16  16  16  16  16
#     4  11  23  37  56  82 114 152 189 230 285 347
#     4  11  23  40  60  82 112 154 197 239 288 345
#     4  12  24  37  57  86 117 151 192 239 289 342
#     4   9  19  38  63  88 116 153 194 236 288 349
#     4  11  23  37  57  86 115 145 188 239 291 341
#     4   9  19  37  60  85 115 153 193 230 276 339
#
# _framework density 18.718457000000001
#
# number of rings (size 3 to 8) (size 9 to 14) (size 15 to 20)
#    0.000    1.500    1.667    5.000    0.000    8.667 
#    0.000    2.500    0.000    1.000    0.000    0.000 
#    0.000    0.000    0.000    0.000    0.000    0.000 
#
# Total GULP energy -595471.742857 kJ/mol
# GULP energy per Si atom -12405.661310 kJ/mol
# Density = 1.867585 g / cm^3
# Si number density = 18.718457 Si / 1000 Ang^3
#
#
#
# Elastic Constant Matrix: (Units=GPa)
#
#
# Indices 1 2 3 4 5 6 
#
# 1 96.1325 43.0844 38.7205 0.0000 0.0000 0.0000
# 2 43.0844 83.6557 52.2110 0.0000 0.0000 0.0000
# 3 38.7205 52.2110 101.2631 0.0000 0.0000 0.0000
# 4 0.0000 0.0000 0.0000 31.1182 0.0000 0.0000
# 5 0.0000 0.0000 0.0000 0.0000 37.1890 0.0000
# 6 0.0000 0.0000 0.0000 0.0000 0.0000 23.9298
#
#
#
# Elastic Compliance Matrix: (Units=1/GPa)
#
#
# Indices 1 2 3 4 5 6 
#
# 1 0.013907 -0.005667 -0.002396 0.000000 0.000000 0.000000
# 2 -0.005667 0.019935 -0.008111 0.000000 0.000000 0.000000
# 3 -0.002396 -0.008111 0.014974 0.000000 0.000000 0.000000
# 4 0.000000 0.000000 0.000000 0.032136 0.000000 0.000000
# 5 0.000000 0.000000 0.000000 0.000000 0.026890 0.000000
# 6 0.000000 0.000000 0.000000 0.000000 0.000000 0.041789
#
#
# Mechanical properties :
#
#
# Convention : Reuss Voigt Hill
#
# Bulk Modulus (GPa) = 60.72781 61.00923 60.86852
# Shear Modulus (GPa) = 26.67126 28.24976 27.46051
#
# Velocity S-wave (km/s) = 3.77883 3.88905 3.83434
# Velocity P-wave (km/s) = 7.18001 7.26843 7.22436
#
# Compressibility (1/GPa) = 0.01646692
#
# Stress axis : x y z
#
# Youngs Moduli (GPa) = 71.90506 50.16308 66.78443
#
# Poissons Ratio (x) = 0.28429 0.16000
# Poissons Ratio (y) = 0.40751 0.54171
# Poissons Ratio (z) = 0.17227 0.40689
#
# Static dielectric constant tensor:
#      x y z
#    x 4.573500 0.000000 0.000000 
#    y 0.000000 3.266210 0.000000 
#    z 0.000000 0.000000 3.477790 
# 
# 
# High freq. dielectric constant tensor:
#      x y z
#    x 1.727980 0.000000 0.000000 
#    y 0.000000 1.728970 0.000000 
#    z 0.000000 0.000000 1.733920 
# 
# From -- ./inp_files/12803.got.cif
#   From: 2010.06.25/outbox.cif.g09.slc.cpg/sg71_7_cif.got.tgz:12803.got - 2010.06.28 04:59:45.
