data_PCOD8292906
_publ_section_title
;
Structure prediction by ZEFSAII (Michael W. Deem and Ramdas Pophale) SiO2 
 PCOD8292906
Probable space group: I B A M
;
_chemical_formula_sum "Si O2"
_cell_formula_units_Z 80
_cell_length_a 21.169818
_cell_length_b 12.140865
_cell_length_c 17.926567
_cell_angle_alpha 90.000000
_cell_angle_beta 90.000000
_cell_angle_gamma 90.000000
_cell_volume 4607.484501
_symmetry_space_group_name_H-M "I B A M"
_symmetry_group_IT_number 72
_symmetry_cell_setting 'orthorhombic'
loop_
_space_group_symop_operation_xyz
x,y,z
-x,-y,z
x,-y,1/2-z
-x,y,1/2-z
-x,-y,-z
x,y,-z
-x,y,1/2+z
x,-y,1/2+z
1/2+x,1/2+y,1/2+z
1/2-x,1/2-y,1/2+z
1/2+x,1/2-y,-z
1/2-x,1/2+y,-z
1/2-x,1/2-y,1/2-z
1/2+x,1/2+y,1/2-z
1/2-x,1/2+y,z
1/2+x,1/2-y,z
loop_
_atom_site_type_symbol
_atom_site_label
_atom_site_fract_x
_atom_site_fract_y
_atom_site_fract_z
Si Si1 0.069386 0.518890 0.837888
Si Si2 0.308496 0.550216 0.671741
Si Si3 0.672481 0.848849 0.661156
Si Si4 0.347271 0.213971 0.827194
Si Si5 0.775386 0.149980 0.414583
O O1 0.067801 0.500000 0.750000
O O2 0.118853 0.430634 0.870642
O O3 0.092440 0.643706 0.856218
O O4 0.000000 0.500000 0.873143
O O5 0.331799 0.500000 0.750000
O O6 0.235710 0.584214 0.677865
O O7 0.351067 0.657101 0.649753
O O8 0.315298 0.458998 0.606946
O O9 0.653893 0.789180 0.737802
O O10 0.681170 0.757145 0.597419
O O11 0.284972 0.157679 0.860860
O O12 0.753695 0.143068 0.500000
#
# Coordination Sequence:
#
# PCOD8292906 Si02
#       5
#    16  16  16  16  16
#     4   9  17  31  53  80 101 127 170 216 248 292
#     4  11  16  29  50  73 101 135 167 199 255 313
#     4  10  17  31  52  72 102 136 164 201 255 309
#     4  10  18  31  51  73 102 136 167 203 254 312
#     4  11  21  30  47  77 105 131 165 214 257 299
#
# _framework density 17.363053000000001
#
# number of rings (size 3 to 8) (size 9 to 14) (size 15 to 20)
#    0.000    1.800    6.000    1.800    0.000    3.200 
#    0.000    0.000    0.000    3.600    0.000    1.400 
#    0.000    0.000    0.000    0.000    0.000    0.000 
#
# Total GULP energy -495825.331814 kJ/mol
# GULP energy per Si atom -12395.633295 kJ/mol
# Density = 1.732353 g / cm^3
# Si number density = 17.363053 Si / 1000 Ang^3
#
#
#
# Elastic Constant Matrix: (Units=GPa)
#
#
# Indices 1 2 3 4 5 6 
#
# 1 84.8104 51.1923 1.1223 0.0000 0.0000 0.0000
# 2 51.1923 145.1423 25.0792 0.0000 0.0000 0.0000
# 3 1.1223 25.0792 50.7094 0.0000 0.0000 0.0000
# 4 0.0000 0.0000 0.0000 16.1657 0.0000 0.0000
# 5 0.0000 0.0000 0.0000 0.0000 3.8016 0.0000
# 6 0.0000 0.0000 0.0000 0.0000 0.0000 25.3627
#
#
#
# Elastic Compliance Matrix: (Units=1/GPa)
#
#
# Indices 1 2 3 4 5 6 
#
# 1 0.015275 -0.005827 0.002544 0.000000 0.000000 0.000000
# 2 -0.005827 0.009756 -0.004696 0.000000 0.000000 0.000000
# 3 0.002544 -0.004696 0.021987 0.000000 0.000000 0.000000
# 4 0.000000 0.000000 0.000000 0.061859 0.000000 0.000000
# 5 0.000000 0.000000 0.000000 0.000000 0.263048 0.000000
# 6 0.000000 0.000000 0.000000 0.000000 0.000000 0.039428
#
#
# Mechanical properties :
#
#
# Convention : Reuss Voigt Hill
#
# Bulk Modulus (GPa) = 32.19717 48.38332 40.29024
# Shear Modulus (GPa) = 11.42428 22.61723 17.02076
#
# Velocity S-wave (km/s) = 2.56787 3.61308 3.13435
# Velocity P-wave (km/s) = 5.23218 6.73290 6.02941
#
# Compressibility (1/GPa) = 0.03105863
#
# Stress axis : x y z
#
# Youngs Moduli (GPa) = 65.46844 102.49637 45.48242
#
# Poissons Ratio (x) = 0.59724 -0.11570
# Poissons Ratio (y) = 0.38148 0.21360
# Poissons Ratio (z) = -0.16654 0.48135
#
# Static dielectric constant tensor:
#      x y z
#    x 3.158090 0.000000 0.000000 
#    y 0.000000 3.608340 0.000000 
#    z 0.000000 0.000000 2.834220 
# 
# 
# High freq. dielectric constant tensor:
#      x y z
#    x 1.620350 0.000000 0.000000 
#    y 0.000000 1.693060 0.000000 
#    z 0.000000 0.000000 1.635900 
# 
# From -- ./inp_files/33332.got.cif
#   From: 2010.03.12/outbox.cif.g09.slc.cpg/sg72_17_cif.got.tgz:33332.got - 2010.04.16 14:54:00.
