data_PCOD8292750
_publ_section_title
;
Structure prediction by ZEFSAII (Michael W. Deem and Ramdas Pophale) SiO2 
 PCOD8292750
Probable space group: I M M M
;
_chemical_formula_sum "Si O2"
_cell_formula_units_Z 72
_cell_length_a 22.721433
_cell_length_b 9.207169
_cell_length_c 23.484266
_cell_angle_alpha 90.000000
_cell_angle_beta 90.000000
_cell_angle_gamma 90.000000
_cell_volume 4912.910175
_symmetry_space_group_name_H-M "I M M M"
_symmetry_group_IT_number 71
_symmetry_cell_setting 'orthorhombic'
loop_
_space_group_symop_operation_xyz
x,y,z
-x,-y,z
x,-y,-z
-x,y,-z
-x,-y,-z
x,y,-z
-x,y,z
x,-y,z
1/2+x,1/2+y,1/2+z
1/2-x,1/2-y,1/2+z
1/2+x,1/2-y,1/2-z
1/2-x,1/2+y,1/2-z
1/2-x,1/2-y,1/2-z
1/2+x,1/2+y,1/2-z
1/2-x,1/2+y,1/2+z
1/2+x,1/2-y,1/2+z
loop_
_atom_site_type_symbol
_atom_site_label
_atom_site_fract_x
_atom_site_fract_y
_atom_site_fract_z
Si Si1 0.432452 0.831423 0.771393
Si Si2 0.265988 0.335903 0.835622
Si Si3 0.167130 0.163904 0.783564
Si Si4 0.565939 0.827379 0.000000
Si Si5 0.131902 0.669748 0.387593
O O1 0.500000 0.784635 0.766086
O O2 0.395855 0.739950 0.725275
O O3 0.411533 0.796917 0.835295
O O4 0.422961 0.000000 0.757372
O O5 0.253861 0.500000 0.855987
O O6 0.204036 0.251433 0.831035
O O7 0.297705 0.334415 0.775118
O O8 0.306939 0.255664 0.881582
O O9 0.157305 0.000000 0.805197
O O10 0.600029 0.772319 0.055812
O O11 0.500000 0.762126 0.000000
O O12 0.562293 0.000000 0.000000
O O13 0.147111 0.500000 0.391217
#
# Coordination Sequence:
#
# PCOD8292750 Si02
#       5
#    16  16  16   8  16
#     4   9  16  25  37  54  77 104 131 158 190 229
#     4   9  16  26  39  54  72  94 122 157 197 237
#     4   9  16  25  38  55  73  94 122 156 192 231
#     4   9  16  26  41  59  77 101 136 173 202 227
#     4   9  16  26  40  56  74  99 133 169 199 227
#
# _framework density 14.655264000000001
#
# number of rings (size 3 to 8) (size 9 to 14) (size 15 to 20)
#    0.000    3.000    0.000    2.000    0.000    8.444 
#    0.000    0.556    0.000    2.667    0.000    0.000 
#    0.000    0.000    0.000    1.000    0.000   19.333 
#
# Total GULP energy -446360.240473 kJ/mol
# GULP energy per Si atom -12398.895569 kJ/mol
# Density = 1.462191 g / cm^3
# Si number density = 14.655264 Si / 1000 Ang^3
#
#
#
# Elastic Constant Matrix: (Units=GPa)
#
#
# Indices 1 2 3 4 5 6 
#
# 1 127.1711 66.0812 54.3331 0.0000 0.0000 0.0000
# 2 66.0812 88.6834 33.0543 0.0000 0.0000 0.0000
# 3 54.3331 33.0543 50.0712 0.0000 0.0000 0.0000
# 4 0.0000 0.0000 0.0000 12.7028 0.0000 0.0000
# 5 0.0000 0.0000 0.0000 0.0000 24.5914 0.0000
# 6 0.0000 0.0000 0.0000 0.0000 0.0000 25.9750
#
#
#
# Elastic Compliance Matrix: (Units=1/GPa)
#
#
# Indices 1 2 3 4 5 6 
#
# 1 0.018328 -0.008282 -0.014421 0.000000 0.000000 0.000000
# 2 -0.008282 0.018698 -0.003357 0.000000 0.000000 0.000000
# 3 -0.014421 -0.003357 0.037836 0.000000 0.000000 0.000000
# 4 0.000000 0.000000 0.000000 0.078723 0.000000 0.000000
# 5 0.000000 0.000000 0.000000 0.000000 0.040665 0.000000
# 6 0.000000 0.000000 0.000000 0.000000 0.000000 0.038499
#
#
# Mechanical properties :
#
#
# Convention : Reuss Voigt Hill
#
# Bulk Modulus (GPa) = 43.96924 63.65145 53.81034
# Shear Modulus (GPa) = 17.09701 20.15098 18.62400
#
# Velocity S-wave (km/s) = 3.41928 3.71212 3.56870
# Velocity P-wave (km/s) = 6.75693 7.86765 7.33335
#
# Compressibility (1/GPa) = 0.02274317
#
# Stress axis : x y z
#
# Youngs Moduli (GPa) = 54.56070 53.48043 26.42996
#
# Poissons Ratio (x) = 0.44293 0.38114
# Poissons Ratio (y) = 0.45187 0.08872
# Poissons Ratio (z) = 0.78681 0.17952
#
# Static dielectric constant tensor:
#      x y z
#    x 2.894880 0.000000 0.000000 
#    y 0.000000 2.883880 0.000000 
#    z 0.000000 0.000000 2.514880 
# 
# 
# High freq. dielectric constant tensor:
#      x y z
#    x 1.557150 0.000000 0.000000 
#    y 0.000000 1.560730 0.000000 
#    z 0.000000 0.000000 1.505770 
# 
# From -- ./inp_files/10097.got.cif
#   From: 2010.06.25/outbox.cif.g09.slc.cpg/sg71_6_cif.got.tgz:10097.got - 2010.06.28 04:59:45.
