data_PCOD8292547
_publ_section_title
;
Structure prediction by ZEFSAII (Michael W. Deem and Ramdas Pophale) SiO2 
 PCOD8292547
Probable space group: I M M M
;
_chemical_formula_sum "Si O2"
_cell_formula_units_Z 72
_cell_length_a 14.341942
_cell_length_b 8.707205
_cell_length_c 29.686570
_cell_angle_alpha 90.000000
_cell_angle_beta 90.000000
_cell_angle_gamma 90.000000
_cell_volume 3707.206289
_symmetry_space_group_name_H-M "I M M M"
_symmetry_group_IT_number 71
_symmetry_cell_setting 'orthorhombic'
loop_
_space_group_symop_operation_xyz
x,y,z
-x,-y,z
x,-y,-z
-x,y,-z
-x,-y,-z
x,y,-z
-x,y,z
x,-y,z
1/2+x,1/2+y,1/2+z
1/2-x,1/2-y,1/2+z
1/2+x,1/2-y,1/2-z
1/2-x,1/2+y,1/2-z
1/2-x,1/2-y,1/2-z
1/2+x,1/2+y,1/2-z
1/2-x,1/2+y,1/2+z
1/2+x,1/2-y,1/2+z
loop_
_atom_site_type_symbol
_atom_site_label
_atom_site_fract_x
_atom_site_fract_y
_atom_site_fract_z
Si Si1 0.000000 0.820834 0.333199
Si Si2 0.000000 0.678983 0.052180
Si Si3 0.500000 0.818755 0.265267
Si Si4 0.689829 0.321394 0.710496
Si Si5 0.180113 0.322411 0.372789
Si Si6 0.201658 0.319275 0.947133
O O1 0.909800 0.778865 0.362169
O O2 0.000000 0.729302 0.286662
O O3 0.000000 0.000000 0.322019
O O4 0.099328 0.742337 0.070786
O O5 0.000000 0.500000 0.061100
O O6 0.000000 0.715453 0.000000
O O7 0.589327 0.756704 0.291660
O O8 0.500000 0.000000 0.267217
O O9 0.677579 0.500000 0.720653
O O10 0.750000 0.250000 0.750000
O O11 0.739869 0.288870 0.663494
O O12 0.150718 0.500000 0.373081
O O13 0.218563 0.273860 0.421430
O O14 0.211968 0.500000 0.937362
O O15 0.213538 0.285868 0.000000
#
# Coordination Sequence:
#
# PCOD8292547 Si02
#       6
#     8   8   8  16  16  16
#     4  12  24  40  64  86 112 153 201 247 299 362
#     4   7  12  27  53  82 112 148 188 233 282 334
#     4  12  24  39  61  89 123 158 199 248 300 357
#     4  11  23  39  60  86 119 158 199 244 296 354
#     4  11  24  40  60  87 121 155 196 247 301 357
#     4   9  18  35  60  89 121 158 201 245 292 351
#
# _framework density 19.421633
#
# number of rings (size 3 to 8) (size 9 to 14) (size 15 to 20)
#    0.000    1.667    2.222    4.667    0.000    4.000 
#    0.000    3.333    0.000    5.333    0.000    0.000 
#    0.000    0.000    0.000    0.000    0.000    0.000 
#
# Total GULP energy -446337.158891 kJ/mol
# GULP energy per Si atom -12398.254414 kJ/mol
# Density = 1.937743 g / cm^3
# Si number density = 19.421633 Si / 1000 Ang^3
#
#
#
# Elastic Constant Matrix: (Units=GPa)
#
#
# Indices 1 2 3 4 5 6 
#
# 1 142.0318 58.9856 38.9585 0.0000 0.0000 0.0000
# 2 58.9856 105.5329 36.1953 0.0000 0.0000 0.0000
# 3 38.9585 36.1953 72.5564 0.0000 0.0000 0.0000
# 4 0.0000 0.0000 0.0000 30.5181 0.0000 0.0000
# 5 0.0000 0.0000 0.0000 0.0000 -14.2266 0.0000
# 6 0.0000 0.0000 0.0000 0.0000 0.0000 29.0386
#
#
#
# Elastic Compliance Matrix: (Units=1/GPa)
#
#
# Indices 1 2 3 4 5 6 
#
# 1 0.009687 -0.004380 -0.003016 0.000000 0.000000 0.000000
# 2 -0.004380 0.013412 -0.004339 0.000000 0.000000 0.000000
# 3 -0.003016 -0.004339 0.017567 0.000000 0.000000 0.000000
# 4 0.000000 0.000000 0.000000 0.032767 0.000000 0.000000
# 5 0.000000 0.000000 0.000000 0.000000 -0.070291 0.000000
# 6 0.000000 0.000000 0.000000 0.000000 0.000000 0.034437
#
#
# Mechanical properties :
#
#
# Convention : Reuss Voigt Hill
#
# Bulk Modulus (GPa) = 58.15619 65.37777 61.76698
# Shear Modulus (GPa) = 74.87200 21.46482 48.16841
#
# Velocity S-wave (km/s) = 6.21567 3.32806 4.98551
# Velocity P-wave (km/s) = 9.02894 6.96444 8.06304
#
# Compressibility (1/GPa) = 0.01719507
#
# Stress axis : x y z
#
# Youngs Moduli (GPa) = 103.23122 74.56084 56.92634
#
# Poissons Ratio (x) = 0.32656 0.17172
# Poissons Ratio (y) = 0.45213 0.24700
# Poissons Ratio (z) = 0.31139 0.32351
#
# Static dielectric constant tensor:
#      x y z
#    x 3.851490 0.000000 0.000000 
#    y 0.000000 3.488440 0.000000 
#    z 0.000000 0.000000 2.648530 
# 
# 
# High freq. dielectric constant tensor:
#      x y z
#    x 1.771610 0.000000 0.000000 
#    y 0.000000 1.752240 0.000000 
#    z 0.000000 0.000000 1.742040 
# 
# From -- ./inp_files/14343.got.cif
#   From: 2010.06.25/outbox.cif.g09.slc.cpg/sg71_8_cif.got.tgz:14343.got - 2010.06.28 04:59:45.
