data_PCOD8292428
_publ_section_title
;
Structure prediction by ZEFSAII (Michael W. Deem and Ramdas Pophale) SiO2 
 PCOD8292428
Probable space group: I M M M
;
_chemical_formula_sum "Si O2"
_cell_formula_units_Z 72
_cell_length_a 15.701597
_cell_length_b 20.943273
_cell_length_c 13.790685
_cell_angle_alpha 90.000000
_cell_angle_beta 90.000000
_cell_angle_gamma 90.000000
_cell_volume 4534.967918
_symmetry_space_group_name_H-M "I M M M"
_symmetry_group_IT_number 71
_symmetry_cell_setting 'orthorhombic'
loop_
_space_group_symop_operation_xyz
x,y,z
-x,-y,z
x,-y,-z
-x,y,-z
-x,-y,-z
x,y,-z
-x,y,z
x,-y,z
1/2+x,1/2+y,1/2+z
1/2-x,1/2-y,1/2+z
1/2+x,1/2-y,1/2-z
1/2-x,1/2+y,1/2-z
1/2-x,1/2-y,1/2-z
1/2+x,1/2+y,1/2-z
1/2-x,1/2+y,1/2+z
1/2+x,1/2-y,1/2+z
loop_
_atom_site_type_symbol
_atom_site_label
_atom_site_fract_x
_atom_site_fract_y
_atom_site_fract_z
Si Si1 0.184831 0.186458 0.106295
Si Si2 0.760553 0.332220 0.893217
Si Si3 0.500000 0.924513 0.889198
Si Si4 0.350056 0.150476 0.796192
Si Si5 0.904379 0.203730 0.294876
O O1 0.214675 0.258873 0.104572
O O2 0.266488 0.144677 0.136863
O O3 0.109129 0.180002 0.184035
O O4 0.152643 0.164476 0.000000
O O5 0.821539 0.366491 0.814505
O O6 0.661042 0.335016 0.862969
O O7 0.772326 0.363580 0.000000
O O8 0.583179 0.901168 0.832594
O O9 0.500000 0.000000 0.887945
O O10 0.500000 0.898574 0.000000
O O11 0.391013 0.220487 0.802582
O O12 0.000000 0.186664 0.327323
#
# Coordination Sequence:
#
# PCOD8292428 Si02
#       5
#    16  16   8  16  16
#     4   8  14  24  38  56  80 111 143 170 204 255
#     4   8  15  26  40  58  79 108 142 171 204 253
#     4  11  22  32  45  65  83 105 146 188 214 241
#     4   9  16  29  42  54  82 115 143 175 211 246
#     4   9  15  23  37  61  88 112 141 170 201 249
#
# _framework density 15.876628
#
# number of rings (size 3 to 8) (size 9 to 14) (size 15 to 20)
#    0.000    3.222    1.111    3.333    0.000    1.778 
#    0.000    0.556    0.000    1.333    0.000    0.000 
#    0.000   14.222    0.000   56.889    0.000    0.000 
#
# Total GULP energy -446073.072892 kJ/mol
# GULP energy per Si atom -12390.918691 kJ/mol
# Density = 1.584049 g / cm^3
# Si number density = 15.876628 Si / 1000 Ang^3
#
#
#
# Elastic Constant Matrix: (Units=GPa)
#
#
# Indices 1 2 3 4 5 6 
#
# 1 90.4431 18.3929 35.4943 0.0000 0.0000 0.0000
# 2 18.3929 25.4148 20.1963 0.0000 0.0000 0.0000
# 3 35.4943 20.1963 130.8047 0.0001 0.0000 0.0000
# 4 0.0000 0.0000 0.0001 11.4296 0.0000 0.0000
# 5 0.0000 0.0000 0.0000 0.0000 16.1700 0.0000
# 6 0.0000 0.0000 0.0000 0.0000 0.0000 13.1672
#
#
#
# Elastic Compliance Matrix: (Units=1/GPa)
#
#
# Indices 1 2 3 4 5 6 
#
# 1 0.013636 -0.007897 -0.002481 0.000000 0.000000 0.000000
# 2 -0.007897 0.049424 -0.005488 0.000000 0.000000 0.000000
# 3 -0.002481 -0.005488 0.009166 0.000000 0.000000 0.000000
# 4 0.000000 0.000000 0.000000 0.087492 0.000000 0.000000
# 5 0.000000 0.000000 0.000000 0.000000 0.061843 0.000000
# 6 0.000000 0.000000 0.000000 0.000000 0.000000 0.075946
#
#
# Mechanical properties :
#
#
# Convention : Reuss Voigt Hill
#
# Bulk Modulus (GPa) = 24.69556 43.86993 34.28275
# Shear Modulus (GPa) = 14.58846 19.65864 17.12355
#
# Velocity S-wave (km/s) = 3.03457 3.52264 3.28767
# Velocity P-wave (km/s) = 5.27888 6.65110 6.00432
#
# Compressibility (1/GPa) = 0.04049311
#
# Stress axis : x y z
#
# Youngs Moduli (GPa) = 73.33357 20.23320 109.10408
#
# Poissons Ratio (x) = 0.15979 0.27068
# Poissons Ratio (y) = 0.57913 0.59877
# Poissons Ratio (z) = 0.18194 0.11104
#
# Static dielectric constant tensor:
#      x y z
#    x 2.988510 0.000000 0.000000 
#    y 0.000000 2.335430 0.000000 
#    z 0.000000 0.000000 3.668080 
# 
# 
# High freq. dielectric constant tensor:
#      x y z
#    x 1.609210 0.000000 0.000000 
#    y 0.000000 1.526460 0.000000 
#    z 0.000000 0.000000 1.626540 
# 
# From -- ./inp_files/34053.got.cif
#   From: 2010.06.25/outbox.cif.g09.slc.cpg/sg71_18_cif.got.tgz:34053.got - 2010.06.28 04:59:45.
