data_PCOD8292160
_publ_section_title
;
Structure prediction by ZEFSAII (Michael W. Deem and Ramdas Pophale) SiO2 
 PCOD8292160
Probable space group: I M M M
;
_chemical_formula_sum "Si O2"
_cell_formula_units_Z 88
_cell_length_a 28.627420
_cell_length_b 19.185047
_cell_length_c 7.984789
_cell_angle_alpha 90.000000
_cell_angle_beta 90.000000
_cell_angle_gamma 90.000000
_cell_volume 4385.393024
_symmetry_space_group_name_H-M "I M M M"
_symmetry_group_IT_number 71
_symmetry_cell_setting 'orthorhombic'
loop_
_space_group_symop_operation_xyz
x,y,z
-x,-y,z
x,-y,-z
-x,y,-z
-x,-y,-z
x,y,-z
-x,y,z
x,-y,z
1/2+x,1/2+y,1/2+z
1/2-x,1/2-y,1/2+z
1/2+x,1/2-y,1/2-z
1/2-x,1/2+y,1/2-z
1/2-x,1/2-y,1/2-z
1/2+x,1/2+y,1/2-z
1/2-x,1/2+y,1/2+z
1/2+x,1/2-y,1/2+z
loop_
_atom_site_type_symbol
_atom_site_label
_atom_site_fract_x
_atom_site_fract_y
_atom_site_fract_z
Si Si1 0.874621 0.191684 0.189312
Si Si2 0.553293 0.579459 0.803742
Si Si3 0.604205 0.847387 0.302861
Si Si4 0.227203 0.820568 0.309423
Si Si5 0.445055 0.921321 0.000000
Si Si6 0.300616 0.923645 0.697051
O O1 0.912892 0.131484 0.207080
O O2 0.896883 0.265346 0.241978
O O3 0.828314 0.173739 0.292149
O O4 0.857422 0.196770 0.000000
O O5 0.500000 0.595170 0.750302
O O6 0.566222 0.500000 0.755916
O O7 0.559675 0.591478 0.000000
O O8 0.590669 0.860939 0.500000
O O9 0.655121 0.876186 0.259098
O O10 0.569149 0.883637 0.173415
O O11 0.240795 0.825814 0.500000
O O12 0.250000 0.750000 0.250000
O O13 0.254598 0.885801 0.225082
O O14 0.500000 0.922596 0.000000
O O15 0.424764 0.000000 0.000000
O O16 0.296729 0.933712 0.500000
O O17 0.305367 0.000000 0.781476
#
# Coordination Sequence:
#
# PCOD8292160 Si02
#       6
#    16  16  16  16   8  16
#     4  11  23  38  59  90 125 163 205 249 306 373
#     4   9  20  40  64  89 118 157 206 256 309 370
#     4  10  22  41  64  91 125 164 206 256 311 370
#     4  11  21  35  57  85 119 157 198 251 304 356
#     4  11  26  44  64  94 125 159 209 261 315 379
#     4   9  18  35  59  84 113 156 206 249 297 361
#
# _framework density 20.066617000000001
#
# number of rings (size 3 to 8) (size 9 to 14) (size 15 to 20)
#    0.000    1.909    1.818    2.182    2.545    3.636 
#    1.636    5.455    0.000    0.000    0.000    0.000 
#    0.000    0.000    0.000    0.000    0.000    0.000 
#
# Total GULP energy -545404.849187 kJ/mol
# GULP energy per Si atom -12395.564754 kJ/mol
# Density = 2.002094 g / cm^3
# Si number density = 20.066617 Si / 1000 Ang^3
#
#
#
# Elastic Constant Matrix: (Units=GPa)
#
#
# Indices 1 2 3 4 5 6 
#
# 1 99.6808 63.4638 25.7996 0.0000 0.0000 0.0000
# 2 63.4638 157.2414 30.8055 0.0000 0.0000 0.0000
# 3 25.7996 30.8055 59.6394 0.0000 0.0000 0.0000
# 4 0.0000 0.0000 0.0000 27.1159 0.0000 0.0000
# 5 0.0000 0.0000 0.0000 0.0000 29.3827 0.0000
# 6 0.0000 0.0000 0.0000 0.0000 0.0000 37.9961
#
#
#
# Elastic Compliance Matrix: (Units=1/GPa)
#
#
# Indices 1 2 3 4 5 6 
#
# 1 0.014138 -0.005015 -0.003525 0.000000 0.000000 0.000000
# 2 -0.005015 0.008855 -0.002404 0.000000 0.000000 0.000000
# 3 -0.003525 -0.002404 0.019534 0.000000 0.000000 0.000000
# 4 0.000000 0.000000 0.000000 0.036879 0.000000 0.000000
# 5 0.000000 0.000000 0.000000 0.000000 0.034034 0.000000
# 6 0.000000 0.000000 0.000000 0.000000 0.000000 0.026318
#
#
# Mechanical properties :
#
#
# Convention : Reuss Voigt Hill
#
# Bulk Modulus (GPa) = 48.45636 61.85549 55.15592
# Shear Modulus (GPa) = 29.66895 31.99845 30.83370
#
# Velocity S-wave (km/s) = 3.84933 3.99759 3.92416
# Velocity P-wave (km/s) = 6.62998 7.22493 6.93384
#
# Compressibility (1/GPa) = 0.02063712
#
# Stress axis : x y z
#
# Youngs Moduli (GPa) = 70.73337 112.93167 51.19209
#
# Poissons Ratio (x) = 0.56640 0.18046
# Poissons Ratio (y) = 0.35476 0.12308
# Poissons Ratio (z) = 0.24935 0.27151
#
# Static dielectric constant tensor:
#      x y z
#    x 3.588950 0.000000 0.000000 
#    y 0.000000 3.967240 0.000000 
#    z 0.000000 0.000000 3.641810 
# 
# 
# High freq. dielectric constant tensor:
#      x y z
#    x 1.778650 0.000000 0.000000 
#    y 0.000000 1.798200 0.000000 
#    z 0.000000 0.000000 1.773250 
# 
# From -- ./inp_files/16620.got.cif
#   From: 2010.06.25/outbox.cif.g09.slc.cpg/sg71_9_cif.got.tgz:16620.got - 2010.06.28 04:59:45.
