data_PCOD8292153
_publ_section_title
;
Structure prediction by ZEFSAII (Michael W. Deem and Ramdas Pophale) SiO2 
 PCOD8292153
Probable space group: I M M M
;
_chemical_formula_sum "Si O2"
_cell_formula_units_Z 112
_cell_length_a 14.816769
_cell_length_b 23.234547
_cell_length_c 15.604887
_cell_angle_alpha 90.000000
_cell_angle_beta 90.000000
_cell_angle_gamma 90.000000
_cell_volume 5372.152688
_symmetry_space_group_name_H-M "I M M M"
_symmetry_group_IT_number 71
_symmetry_cell_setting 'orthorhombic'
loop_
_space_group_symop_operation_xyz
x,y,z
-x,-y,z
x,-y,-z
-x,y,-z
-x,-y,-z
x,y,-z
-x,y,z
x,-y,z
1/2+x,1/2+y,1/2+z
1/2-x,1/2-y,1/2+z
1/2+x,1/2-y,1/2-z
1/2-x,1/2+y,1/2-z
1/2-x,1/2-y,1/2-z
1/2+x,1/2+y,1/2-z
1/2-x,1/2+y,1/2+z
1/2+x,1/2-y,1/2+z
loop_
_atom_site_type_symbol
_atom_site_label
_atom_site_fract_x
_atom_site_fract_y
_atom_site_fract_z
Si Si1 0.280027 0.431397 0.678685
Si Si2 0.096571 0.438203 0.901645
Si Si3 0.597662 0.067894 0.094668
Si Si4 0.396293 0.766116 0.274789
Si Si5 0.399664 0.710779 0.095181
Si Si6 0.743657 0.140034 0.334724
Si Si7 0.395862 0.662096 0.402822
O O1 0.299239 0.500000 0.674648
O O2 0.176245 0.414283 0.658941
O O3 0.294743 0.404278 0.771737
O O4 0.344010 0.398080 0.612196
O O5 0.121083 0.500000 0.857435
O O6 0.175492 0.393433 0.894146
O O7 0.000000 0.416280 0.862723
O O8 0.081617 0.449407 0.000000
O O9 0.500000 0.090635 0.128755
O O10 0.595061 0.000000 0.086400
O O11 0.616425 0.093782 0.000000
O O12 0.500000 0.784807 0.298492
O O13 0.389396 0.755605 0.172896
O O14 0.317695 0.811811 0.289672
O O15 0.369153 0.710255 0.332170
O O16 0.500000 0.682704 0.101567
O O17 0.322465 0.663297 0.104815
O O18 0.388272 0.739495 0.000000
O O19 0.374951 0.684235 0.500000
O O20 0.500000 0.646759 0.392603
#
# Coordination Sequence:
#
# PCOD8292153 Si02
#       7
#    16  16  16  16  16  16  16
#     4  11  23  36  56  87 125 164 208 252 300 366
#     4   9  19  36  57  85 123 163 204 253 309 372
#     4   8  15  30  50  72 105 151 199 243 284 335
#     4  10  22  42  64  93 126 157 203 261 319 380
#     4  10  22  41  64  87 117 159 203 252 308 364
#     4  12  22  37  61  92 121 160 204 256 315 373
#     4  10  22  41  64  90 123 161 203 257 318 373
#
# _framework density 20.848253
#
# number of rings (size 3 to 8) (size 9 to 14) (size 15 to 20)
#    0.000    2.000    1.429    3.000    0.000    3.429 
#    0.000    4.286    0.000    3.000    0.000    5.000 
#    0.000    0.000    0.000    0.000    0.000    0.000 
#
# Total GULP energy -693733.921312 kJ/mol
# GULP energy per Si atom -12388.105738 kJ/mol
# Density = 2.080080 g / cm^3
# Si number density = 20.848253 Si / 1000 Ang^3
#
#
#
# Elastic Constant Matrix: (Units=GPa)
#
#
# Indices 1 2 3 4 5 6 
#
# 1 111.0575 46.1034 30.9567 0.0000 0.0000 0.0000
# 2 46.1034 87.7484 35.9443 -0.0007 -0.0001 0.0000
# 3 30.9567 35.9443 107.1797 -0.0008 -0.0001 0.0000
# 4 0.0000 -0.0007 -0.0008 13.7053 -0.0001 0.0000
# 5 0.0000 -0.0001 -0.0001 -0.0001 28.0726 0.0000
# 6 0.0000 0.0000 0.0000 0.0000 0.0000 44.3238
#
#
#
# Elastic Compliance Matrix: (Units=1/GPa)
#
#
# Indices 1 2 3 4 5 6 
#
# 1 0.011729 -0.005535 -0.001531 0.000000 0.000000 0.000000
# 2 -0.005535 0.015823 -0.003708 0.000001 0.000000 0.000000
# 3 -0.001531 -0.003708 0.011016 0.000000 0.000000 0.000000
# 4 0.000000 0.000001 0.000000 0.072965 0.000000 0.000000
# 5 0.000000 0.000000 0.000000 0.000000 0.035622 0.000000
# 6 0.000000 0.000000 0.000000 0.000000 0.000000 0.022561
#
#
# Mechanical properties :
#
#
# Convention : Reuss Voigt Hill
#
# Bulk Modulus (GPa) = 58.75649 59.11047 58.93348
# Shear Modulus (GPa) = 25.38872 30.08575 27.73723
#
# Velocity S-wave (km/s) = 3.49347 3.80291 3.65147
# Velocity P-wave (km/s) = 6.67207 6.90631 6.79020
#
# Compressibility (1/GPa) = 0.01701940
#
# Stress axis : x y z
#
# Youngs Moduli (GPa) = 85.25853 63.19803 90.77770
#
# Poissons Ratio (x) = 0.34981 0.13902
# Poissons Ratio (y) = 0.47192 0.33659
# Poissons Ratio (z) = 0.13056 0.23433
#
# Static dielectric constant tensor:
#      x y z
#    x 4.138180 0.000000 0.000000 
#    y 0.000000 3.558330 0.000000 
#    z 0.000000 0.000000 3.835520 
# 
# 
# High freq. dielectric constant tensor:
#      x y z
#    x 1.829730 0.000000 0.000000 
#    y 0.000000 1.789690 0.000000 
#    z 0.000000 0.000000 1.819630 
# 
# From -- ./inp_files/35155.got.cif
#   From: 2010.06.25/outbox.cif.g09.slc.cpg/sg71_18_cif.got.tgz:35155.got - 2010.06.28 04:59:45.
