data_PCOD8292934
_publ_section_title
;
Structure prediction by ZEFSAII (Michael W. Deem and Ramdas Pophale) SiO2 
 PCOD8292934
Probable space group: I B A M
;
_chemical_formula_sum "Si O2"
_cell_formula_units_Z 80
_cell_length_a 29.030840
_cell_length_b 22.661870
_cell_length_c 8.980265
_cell_angle_alpha 90.000000
_cell_angle_beta 90.000000
_cell_angle_gamma 90.000000
_cell_volume 5908.054578
_symmetry_space_group_name_H-M "I B A M"
_symmetry_group_IT_number 72
_symmetry_cell_setting 'orthorhombic'
loop_
_space_group_symop_operation_xyz
x,y,z
-x,-y,z
x,-y,1/2-z
-x,y,1/2-z
-x,-y,-z
x,y,-z
-x,y,1/2+z
x,-y,1/2+z
1/2+x,1/2+y,1/2+z
1/2-x,1/2-y,1/2+z
1/2+x,1/2-y,-z
1/2-x,1/2+y,-z
1/2-x,1/2-y,1/2-z
1/2+x,1/2+y,1/2-z
1/2-x,1/2+y,z
1/2+x,1/2-y,z
loop_
_atom_site_type_symbol
_atom_site_label
_atom_site_fract_x
_atom_site_fract_y
_atom_site_fract_z
Si Si1 0.179924 0.761969 0.167194
Si Si2 0.773112 0.663967 0.167925
Si Si3 0.364370 0.363989 0.327258
Si Si4 0.952976 0.938233 0.823966
Si Si5 0.275460 0.437095 0.675472
O O1 0.185335 0.701267 0.258916
O O2 0.227460 0.797050 0.169789
O O3 0.140406 0.802705 0.239046
O O4 0.165127 0.745930 0.000000
O O5 0.764981 0.604851 0.262793
O O6 0.787013 0.646937 0.000000
O O7 0.359123 0.348866 0.500000
O O8 0.413781 0.390878 0.287711
O O9 0.325193 0.410731 0.279999
O O10 0.000000 0.914613 0.750000
O O11 0.938630 0.000000 0.750000
O O12 0.959474 0.947461 0.000000
O O13 0.270227 0.500000 0.750000
O O14 0.269686 0.443433 0.500000
#
# Coordination Sequence:
#
# PCOD8292934 Si02
#       5
#    16  16  16  16  16
#     4   9  16  25  39  56  71  90 117 149 183 218
#     4   9  16  26  38  52  72  95 118 146 181 218
#     4   9  18  29  40  54  72  94 121 155 191 227
#     4  10  19  30  42  55  72  95 123 155 193 232
#     4  10  18  27  38  53  73  96 124 155 187 221
#
# _framework density 13.540836000000001
#
# number of rings (size 3 to 8) (size 9 to 14) (size 15 to 20)
#    0.000    2.600    0.000    3.600    0.000    7.200 
#    0.000    0.000    0.000    0.000    0.000    0.000 
#    0.000    0.000    0.000    0.000    0.000    1.000 
#
# Total GULP energy -495980.078076 kJ/mol
# GULP energy per Si atom -12399.501952 kJ/mol
# Density = 1.351002 g / cm^3
# Si number density = 13.540836 Si / 1000 Ang^3
#
#
#
# Elastic Constant Matrix: (Units=GPa)
#
#
# Indices 1 2 3 4 5 6 
#
# 1 57.7627 47.1532 38.2555 0.0000 0.0000 0.0000
# 2 47.1532 85.9279 52.9202 0.0000 0.0000 0.0000
# 3 38.2555 52.9202 95.5347 0.0000 0.0000 0.0000
# 4 0.0000 0.0000 0.0000 27.6799 0.0000 0.0000
# 5 0.0000 0.0000 0.0000 0.0000 17.0897 0.0000
# 6 0.0000 0.0000 0.0000 0.0000 0.0000 22.3158
#
#
#
# Elastic Compliance Matrix: (Units=1/GPa)
#
#
# Indices 1 2 3 4 5 6 
#
# 1 0.032746 -0.015017 -0.004794 0.000000 0.000000 0.000000
# 2 -0.015017 0.024550 -0.007586 0.000000 0.000000 0.000000
# 3 -0.004794 -0.007586 0.016589 0.000000 0.000000 0.000000
# 4 0.000000 0.000000 0.000000 0.036127 0.000000 0.000000
# 5 0.000000 0.000000 0.000000 0.000000 0.058515 0.000000
# 6 0.000000 0.000000 0.000000 0.000000 0.000000 0.044811
#
#
# Mechanical properties :
#
#
# Convention : Reuss Voigt Hill
#
# Bulk Modulus (GPa) = 52.37971 57.32033 54.85002
# Shear Modulus (GPa) = 18.21515 20.14351 19.17933
#
# Velocity S-wave (km/s) = 3.67168 3.86114 3.76760
# Velocity P-wave (km/s) = 7.53271 7.89311 7.71502
#
# Compressibility (1/GPa) = 0.01909136
#
# Stress axis : x y z
#
# Youngs Moduli (GPa) = 30.53801 40.73301 60.27970
#
# Poissons Ratio (x) = 0.61168 0.28900
# Poissons Ratio (y) = 0.45858 0.45728
# Poissons Ratio (z) = 0.14641 0.30900
#
# Static dielectric constant tensor:
#      x y z
#    x 2.436140 0.000000 0.000000 
#    y 0.000000 2.632870 0.000000 
#    z 0.000000 0.000000 2.883510 
# 
# 
# High freq. dielectric constant tensor:
#      x y z
#    x 1.467940 0.000000 0.000000 
#    y 0.000000 1.501650 0.000000 
#    z 0.000000 0.000000 1.536650 
# 
# From -- ./inp_files/4984.got.cif
#   From: 2010.03.12/outbox.cif.g09.slc.cpg/sg72_3_cif.got.tgz:4984.got - 2010.04.16 14:54:00.
