data_PCOD8292000
_publ_section_title
;
Structure prediction by ZEFSAII (Michael W. Deem and Ramdas Pophale) SiO2 
 PCOD8292000
Probable space group: I M M M
;
_chemical_formula_sum "Si O2"
_cell_formula_units_Z 112
_cell_length_a 15.435832
_cell_length_b 15.718199
_cell_length_c 22.905766
_cell_angle_alpha 90.000000
_cell_angle_beta 90.000000
_cell_angle_gamma 90.000000
_cell_volume 5557.476639
_symmetry_space_group_name_H-M "I M M M"
_symmetry_group_IT_number 71
_symmetry_cell_setting 'orthorhombic'
loop_
_space_group_symop_operation_xyz
x,y,z
-x,-y,z
x,-y,-z
-x,y,-z
-x,-y,-z
x,y,-z
-x,y,z
x,-y,z
1/2+x,1/2+y,1/2+z
1/2-x,1/2-y,1/2+z
1/2+x,1/2-y,1/2-z
1/2-x,1/2+y,1/2-z
1/2-x,1/2-y,1/2-z
1/2+x,1/2+y,1/2-z
1/2-x,1/2+y,1/2+z
1/2+x,1/2-y,1/2+z
loop_
_atom_site_type_symbol
_atom_site_label
_atom_site_fract_x
_atom_site_fract_y
_atom_site_fract_z
Si Si1 0.849946 0.253950 0.257371
Si Si2 0.169975 0.135216 0.435806
Si Si3 0.595380 0.262203 0.373059
Si Si4 0.637980 0.906318 0.566930
Si Si5 0.231651 0.324732 0.567469
Si Si6 0.403052 0.409030 0.178250
Si Si7 0.599612 0.097836 0.155582
O O1 0.750000 0.250000 0.250000
O O2 0.898145 0.241078 0.196655
O O3 0.856217 0.170892 0.296277
O O4 0.882025 0.338903 0.290218
O O5 0.136921 0.111508 0.500000
O O6 0.259969 0.089178 0.421132
O O7 0.183293 0.235703 0.429830
O O8 0.098229 0.100873 0.391771
O O9 0.500000 0.301385 0.388240
O O10 0.594078 0.164315 0.393266
O O11 0.672151 0.317219 0.403218
O O12 0.620597 0.879960 0.500000
O O13 0.598934 0.000000 0.580552
O O14 0.242383 0.355472 0.500000
O O15 0.169143 0.388324 0.603334
O O16 0.500000 0.409259 0.200971
O O17 0.360156 0.500000 0.196461
O O18 0.500000 0.113251 0.134086
O O19 0.610276 0.000000 0.176770
#
# Coordination Sequence:
#
# PCOD8292000 Si02
#       7
#    16  16  16  16  16  16  16
#     4  12  23  43  66  89 127 169 211 263 317 377
#     4   9  17  32  56  83 116 161 206 248 300 362
#     4  11  22  37  61  90 124 170 217 263 317 379
#     4   9  18  33  53  82 122 162 204 255 306 365
#     4  10  21  40  64  92 126 168 215 264 321 382
#     4  11  23  37  56  85 121 160 202 249 301 365
#     4  11  24  43  69 100 133 167 210 269 330 389
#
# _framework density 20.153030999999999
#
# number of rings (size 3 to 8) (size 9 to 14) (size 15 to 20)
#    0.000    1.571    2.857    3.857    0.000    4.286 
#    0.000    3.571    0.000    0.429    0.000    1.000 
#    0.000    0.000    0.000    0.000    0.000    0.000 
#
# Total GULP energy -693906.048974 kJ/mol
# GULP energy per Si atom -12391.179446 kJ/mol
# Density = 2.010716 g / cm^3
# Si number density = 20.153031 Si / 1000 Ang^3
#
#
#
# Elastic Constant Matrix: (Units=GPa)
#
#
# Indices 1 2 3 4 5 6 
#
# 1 114.6076 46.3491 39.4518 0.0000 0.0000 0.0000
# 2 46.3491 111.7552 39.4118 0.0000 0.0000 0.0000
# 3 39.4518 39.4118 110.7046 0.0000 0.0000 0.0000
# 4 0.0000 0.0000 0.0000 -0.7426 0.0001 0.0000
# 5 0.0000 0.0000 0.0000 0.0001 1823.6043 0.0000
# 6 0.0000 0.0000 0.0000 0.0000 0.0000 17.1134
#
#
#
# Elastic Compliance Matrix: (Units=1/GPa)
#
#
# Indices 1 2 3 4 5 6 
#
# 1 0.011127 -0.003678 -0.002656 0.000000 0.000000 0.000000
# 2 -0.003678 0.011449 -0.002765 0.000000 0.000000 0.000000
# 3 -0.002656 -0.002765 0.010964 0.000000 0.000000 0.000000
# 4 0.000000 0.000000 0.000000 -1.346555 0.000000 0.000000
# 5 0.000000 0.000000 0.000000 0.000000 0.000548 0.000000
# 6 0.000000 0.000000 0.000000 0.000000 0.000000 0.058434
#
#
# Mechanical properties :
#
#
# Convention : Reuss Voigt Hill
#
# Bulk Modulus (GPa) = 65.18270 65.27696 65.22983
# Shear Modulus (GPa) = -4.06266 382.11866 189.02800
#
# Velocity S-wave (km/s) = -1.42137 13.78478 9.69536
# Velocity P-wave (km/s) = 5.45164 16.90625 12.56068
#
# Compressibility (1/GPa) = 0.01534149
#
# Stress axis : x y z
#
# Youngs Moduli (GPa) = 89.86974 87.34576 91.20822
#
# Poissons Ratio (x) = 0.32128 0.24224
# Poissons Ratio (y) = 0.33056 0.25219
# Poissons Ratio (z) = 0.23869 0.24151
#
# Static dielectric constant tensor:
#      x y z
#    x 3.677750 0.000000 0.000000 
#    y 0.000000 3.578010 0.000000 
#    z 0.000000 0.000000 3.707250 
# 
# 
# High freq. dielectric constant tensor:
#      x y z
#    x 1.788270 0.000000 0.000000 
#    y 0.000000 1.777820 0.000000 
#    z 0.000000 0.000000 1.785270 
# 
# From -- ./inp_files/59929.got.cif
#   From: 2010.06.25/outbox.cif.g09.slc.cpg/sg71_30_cif.got.tgz:59929.got - 2010.06.28 04:59:45.
