data_PCOD8292587
_publ_section_title
;
Structure prediction by ZEFSAII (Michael W. Deem and Ramdas Pophale) SiO2 
 PCOD8292587
Probable space group: I M M M
;
_chemical_formula_sum "Si O2"
_cell_formula_units_Z 112
_cell_length_a 14.206530
_cell_length_b 25.417146
_cell_length_c 15.635179
_cell_angle_alpha 90.000000
_cell_angle_beta 90.000000
_cell_angle_gamma 90.000000
_cell_volume 5645.698141
_symmetry_space_group_name_H-M "I M M M"
_symmetry_group_IT_number 71
_symmetry_cell_setting 'orthorhombic'
loop_
_space_group_symop_operation_xyz
x,y,z
-x,-y,z
x,-y,-z
-x,y,-z
-x,-y,-z
x,y,-z
-x,y,z
x,-y,z
1/2+x,1/2+y,1/2+z
1/2-x,1/2-y,1/2+z
1/2+x,1/2-y,1/2-z
1/2-x,1/2+y,1/2-z
1/2-x,1/2-y,1/2-z
1/2+x,1/2+y,1/2-z
1/2-x,1/2+y,1/2+z
1/2+x,1/2-y,1/2+z
loop_
_atom_site_type_symbol
_atom_site_label
_atom_site_fract_x
_atom_site_fract_y
_atom_site_fract_z
Si Si1 0.391284 0.562026 0.750000
Si Si2 0.104750 0.338444 0.851449
Si Si3 0.108920 0.780343 0.848019
Si Si4 0.391080 0.719656 0.151978
Si Si5 0.207096 0.880356 0.594585
Si Si6 0.207096 0.119644 0.094585
Si Si7 0.395250 0.838443 0.148547
O O1 0.500000 0.579763 0.749999
O O2 0.380326 0.500000 0.750000
O O3 0.342650 0.583601 0.835256
O O4 0.342649 0.583601 0.664744
O O5 0.127960 0.278768 0.880616
O O6 0.180257 0.378565 0.890820
O O7 0.108833 0.341080 0.749998
O O8 0.000000 0.354371 0.883334
O O9 0.141317 0.786894 0.749999
O O10 0.168954 0.820870 0.903279
O O11 0.000000 0.794714 0.857843
O O12 0.500000 0.705285 0.142154
O O13 0.331046 0.679129 0.096719
O O14 0.372040 0.778767 0.119381
O O15 0.187817 0.903879 0.500000
O O16 0.319743 0.121436 0.109177
O O17 0.187813 0.096123 0.000000
O O18 0.500000 0.854370 0.116662
#
# Coordination Sequence:
#
# PCOD8292587 Si02
#       7
#    16  16  16  16  16  16  16
#     4  11  26  48  68  85 111 145 186 246 308 353
#     4   9  18  34  57  86 124 167 202 232 272 330
#     4   9  17  31  53  83 122 164 201 235 274 331
#     4   9  17  31  53  83 122 164 201 235 274 331
#     4  12  23  36  61  91 118 154 197 239 290 350
#     4  12  23  36  61  91 118 154 197 239 290 350
#     4   9  18  34  57  86 124 167 202 232 272 330
#
# _framework density 19.838114000000001
#
# number of rings (size 3 to 8) (size 9 to 14) (size 15 to 20)
#    0.000    1.857    2.857    3.429    0.000    8.000 
#    0.000    4.286    0.000    1.714    0.000    2.000 
#    0.000    0.000    0.000    0.000    0.000    0.000 
#
# Total GULP energy -694339.492910 kJ/mol
# GULP energy per Si atom -12398.919516 kJ/mol
# Density = 1.979296 g / cm^3
# Si number density = 19.838114 Si / 1000 Ang^3
#
#
#
# Elastic Constant Matrix: (Units=GPa)
#
#
# Indices 1 2 3 4 5 6 
#
# 1 124.4993 54.6904 56.8249 -0.0001 0.0000 0.0000
# 2 54.6904 58.0967 40.5082 0.0007 -0.0002 -0.0001
# 3 56.8249 40.5082 124.1776 0.0003 -0.0001 -0.0001
# 4 -0.0001 0.0007 0.0003 2.4744 -0.0001 -0.0001
# 5 0.0000 -0.0002 -0.0001 -0.0001 3.7345 0.0001
# 6 0.0000 -0.0001 -0.0001 -0.0001 0.0001 25.1526
#
#
#
# Elastic Compliance Matrix: (Units=1/GPa)
#
#
# Indices 1 2 3 4 5 6 
#
# 1 0.014415 -0.011611 -0.002809 0.000004 -0.000001 0.000000
# 2 -0.011611 0.031633 -0.005006 -0.000008 0.000002 0.000000
# 3 -0.002809 -0.005006 0.010971 0.000000 0.000000 0.000000
# 4 0.000004 -0.000008 0.000000 0.404140 0.000014 0.000002
# 5 -0.000001 0.000002 0.000000 0.000014 0.267777 -0.000001
# 6 0.000000 0.000000 0.000000 0.000002 -0.000001 0.039757
#
#
# Mechanical properties :
#
#
# Convention : Reuss Voigt Hill
#
# Bulk Modulus (GPa) = 55.04157 67.86895 61.45526
# Shear Modulus (GPa) = 6.14552 16.58897 11.36725
#
# Velocity S-wave (km/s) = 1.76198 2.89488 2.39634
# Velocity P-wave (km/s) = 5.65199 6.74236 6.22111
#
# Compressibility (1/GPa) = 0.01816809
#
# Stress axis : x y z
#
# Youngs Moduli (GPa) = 69.37366 31.61210 91.14799
#
# Poissons Ratio (x) = 0.36706 0.25600
# Poissons Ratio (y) = 0.80551 0.45627
# Poissons Ratio (z) = 0.19484 0.15824
#
# Static dielectric constant tensor:
#      x y z
#    x 3.963220 0.000000 0.000000 
#    y 0.000000 3.209420 0.000000 
#    z 0.000000 0.000000 3.441280 
# 
# 
# High freq. dielectric constant tensor:
#      x y z
#    x 1.793250 0.000000 0.000000 
#    y 0.000000 1.721400 0.000000 
#    z 0.000000 0.000000 1.764980 
# 
# From -- ./inp_files/35124.got.cif
#   From: 2010.06.25/outbox.cif.g09.slc.cpg/sg71_18_cif.got.tgz:35124.got - 2010.06.28 04:59:45.
