data_PCOD8292110
_publ_section_title
;
Structure prediction by ZEFSAII (Michael W. Deem and Ramdas Pophale) SiO2 
 PCOD8292110
Probable space group: I M M M
;
_chemical_formula_sum "Si O2"
_cell_formula_units_Z 72
_cell_length_a 27.382206
_cell_length_b 14.587487
_cell_length_c 8.841118
_cell_angle_alpha 90.000000
_cell_angle_beta 90.000000
_cell_angle_gamma 90.000000
_cell_volume 3531.474726
_symmetry_space_group_name_H-M "I M M M"
_symmetry_group_IT_number 71
_symmetry_cell_setting 'orthorhombic'
loop_
_space_group_symop_operation_xyz
x,y,z
-x,-y,z
x,-y,-z
-x,y,-z
-x,-y,-z
x,y,-z
-x,y,z
x,-y,z
1/2+x,1/2+y,1/2+z
1/2-x,1/2-y,1/2+z
1/2+x,1/2-y,1/2-z
1/2-x,1/2+y,1/2-z
1/2-x,1/2-y,1/2-z
1/2+x,1/2+y,1/2-z
1/2-x,1/2+y,1/2+z
1/2+x,1/2-y,1/2+z
loop_
_atom_site_type_symbol
_atom_site_label
_atom_site_fract_x
_atom_site_fract_y
_atom_site_fract_z
Si Si1 0.000000 0.395283 0.819894
Si Si2 0.407926 0.220987 0.321233
Si Si3 0.872780 0.896429 0.677673
Si Si4 0.736647 0.346616 0.820542
Si Si5 0.328682 0.900123 0.171729
O O1 0.953084 0.339383 0.759287
O O2 0.000000 0.500000 0.756496
O O3 0.000000 0.398566 0.000000
O O4 0.408828 0.224844 0.500000
O O5 0.409409 0.324984 0.258898
O O6 0.358456 0.173916 0.266126
O O7 0.878342 0.882156 0.500000
O O8 0.817170 0.878277 0.728780
O O9 0.887473 0.000000 0.724613
O O10 0.750000 0.250000 0.750000
O O11 0.775834 0.415226 0.747452
O O12 0.741989 0.346090 0.000000
O O13 0.354532 0.000000 0.174671
O O14 0.323798 0.863359 0.000000
#
# Coordination Sequence:
#
# PCOD8292110 Si02
#       5
#     8  16  16  16  16
#     4   9  20  40  64  91 120 148 185 237 300 365
#     4  11  22  38  63  89 115 150 193 246 301 355
#     4  10  22  40  60  83 118 161 200 241 290 346
#     4  11  21  35  57  84 117 158 201 243 290 341
#     4  11  23  37  55  83 120 158 197 242 290 347
#
# _framework density 20.388083000000002
#
# number of rings (size 3 to 8) (size 9 to 14) (size 15 to 20)
#    0.000    1.444    2.222    3.333    0.000    4.889 
#    0.000    2.778    0.000    7.333    0.000    0.000 
#    0.000    0.000    0.000    0.000    0.000    0.000 
#
# Total GULP energy -446361.790772 kJ/mol
# GULP energy per Si atom -12398.938633 kJ/mol
# Density = 2.034168 g / cm^3
# Si number density = 20.388083 Si / 1000 Ang^3
#
#
#
# Elastic Constant Matrix: (Units=GPa)
#
#
# Indices 1 2 3 4 5 6 
#
# 1 94.2317 60.0938 31.1241 0.0000 0.0000 0.0000
# 2 60.0938 170.0288 47.3589 0.0000 0.0000 0.0000
# 3 31.1241 47.3589 63.1931 0.0000 0.0000 0.0000
# 4 0.0000 0.0000 0.0000 30.4751 0.0000 0.0000
# 5 0.0000 0.0000 0.0000 0.0000 20.8348 0.0000
# 6 0.0000 0.0000 0.0000 0.0000 0.0000 35.4738
#
#
#
# Elastic Compliance Matrix: (Units=1/GPa)
#
#
# Indices 1 2 3 4 5 6 
#
# 1 0.014524 -0.003969 -0.004179 0.000000 0.000000 0.000000
# 2 -0.003969 0.008518 -0.004428 0.000000 0.000000 0.000000
# 3 -0.004179 -0.004428 0.021201 0.000000 0.000000 0.000000
# 4 0.000000 0.000000 0.000000 0.032814 0.000000 0.000000
# 5 0.000000 0.000000 0.000000 0.000000 0.047997 0.000000
# 6 0.000000 0.000000 0.000000 0.000000 0.000000 0.028190
#
#
# Mechanical properties :
#
#
# Convention : Reuss Voigt Hill
#
# Bulk Modulus (GPa) = 52.38308 67.17859 59.78083
# Shear Modulus (GPa) = 27.06232 29.94852 28.50542
#
# Velocity S-wave (km/s) = 3.64725 3.83681 3.74323
# Velocity P-wave (km/s) = 6.59434 7.25601 6.93307
#
# Compressibility (1/GPa) = 0.01909013
#
# Stress axis : x y z
#
# Youngs Moduli (GPa) = 68.85365 117.40244 47.16674
#
# Poissons Ratio (x) = 0.46600 0.19709
# Poissons Ratio (y) = 0.27330 0.20888
# Poissons Ratio (z) = 0.28771 0.51992
#
# Static dielectric constant tensor:
#      x y z
#    x 3.745480 0.000000 0.000000 
#    y 0.000000 3.984830 0.000000 
#    z 0.000000 0.000000 3.606180 
# 
# 
# High freq. dielectric constant tensor:
#      x y z
#    x 1.775160 0.000000 0.000000 
#    y 0.000000 1.817880 0.000000 
#    z 0.000000 0.000000 1.787240 
# 
# From -- ./inp_files/6023.got.cif
#   From: 2010.06.25/outbox.cif.g09.slc.cpg/sg71_4_cif.got.tgz:6023.got - 2010.06.28 04:59:45.
