data_PCOD8292134
_publ_section_title
;
Structure prediction by ZEFSAII (Michael W. Deem and Ramdas Pophale) SiO2 
 PCOD8292134
Probable space group: I M M M
;
_chemical_formula_sum "Si O2"
_cell_formula_units_Z 72
_cell_length_a 8.933005
_cell_length_b 23.015924
_cell_length_c 17.599708
_cell_angle_alpha 90.000000
_cell_angle_beta 90.000000
_cell_angle_gamma 90.000000
_cell_volume 3618.523974
_symmetry_space_group_name_H-M "I M M M"
_symmetry_group_IT_number 71
_symmetry_cell_setting 'orthorhombic'
loop_
_space_group_symop_operation_xyz
x,y,z
-x,-y,z
x,-y,-z
-x,y,-z
-x,-y,-z
x,y,-z
-x,y,z
x,-y,z
1/2+x,1/2+y,1/2+z
1/2-x,1/2-y,1/2+z
1/2+x,1/2-y,1/2-z
1/2-x,1/2+y,1/2-z
1/2-x,1/2-y,1/2-z
1/2+x,1/2+y,1/2-z
1/2-x,1/2+y,1/2+z
1/2+x,1/2-y,1/2+z
loop_
_atom_site_type_symbol
_atom_site_label
_atom_site_fract_x
_atom_site_fract_y
_atom_site_fract_z
Si Si1 0.824210 0.372763 0.142210
Si Si2 0.174262 0.369207 0.588111
Si Si3 0.828960 0.751944 0.087643
Si Si4 0.174361 0.067276 0.781975
Si Si5 0.328959 0.568666 0.000000
O O1 0.786337 0.304470 0.136581
O O2 0.764313 0.394070 0.222518
O O3 0.000000 0.383755 0.136234
O O4 0.748063 0.408143 0.075263
O O5 0.212595 0.379269 0.500000
O O6 0.222994 0.304574 0.613399
O O7 0.266571 0.417211 0.634269
O O8 0.000000 0.376739 0.605341
O O9 0.000000 0.771117 0.101445
O O10 0.802354 0.735265 0.000000
O O11 0.000000 0.081858 0.775725
O O12 0.205719 0.000000 0.765510
O O13 0.315962 0.500000 0.000000
O O14 0.500000 0.589525 0.000000
#
# Coordination Sequence:
#
# PCOD8292134 Si02
#       5
#    16  16  16  16   8
#     4  11  22  38  61  89 120 159 203 249 298 347
#     4  10  22  40  64  93 119 150 195 246 302 360
#     4   9  18  36  60  88 122 156 195 242 293 353
#     4  11  25  43  61  85 119 159 202 247 300 360
#     4  11  23  37  55  83 121 165 208 247 292 351
#
# _framework density 19.897617
#
# number of rings (size 3 to 8) (size 9 to 14) (size 15 to 20)
#    0.000    1.667    1.111    3.000    0.000    9.778 
#    0.000    2.222    0.000    0.000    0.000    0.000 
#    0.000    0.000    0.000    0.000    0.000    0.000 
#
# Total GULP energy -446603.171946 kJ/mol
# GULP energy per Si atom -12405.643665 kJ/mol
# Density = 1.985233 g / cm^3
# Si number density = 19.897617 Si / 1000 Ang^3
#
#
#
# Elastic Constant Matrix: (Units=GPa)
#
#
# Indices 1 2 3 4 5 6 
#
# 1 86.7155 32.4890 29.5733 -0.0001 0.0000 0.0000
# 2 32.4890 51.0945 26.6760 0.0000 0.0000 0.0000
# 3 29.5733 26.6760 80.0655 0.0000 0.0001 0.0000
# 4 -0.0001 0.0000 0.0000 28.1397 0.0000 0.0000
# 5 0.0000 0.0000 0.0001 0.0000 32.4716 0.0000
# 6 0.0000 0.0000 0.0000 0.0000 0.0000 36.1482
#
#
#
# Elastic Compliance Matrix: (Units=1/GPa)
#
#
# Indices 1 2 3 4 5 6 
#
# 1 0.015710 -0.008426 -0.002996 0.000000 0.000000 0.000000
# 2 -0.008426 0.028212 -0.006287 0.000000 0.000000 0.000000
# 3 -0.002996 -0.006287 0.015691 0.000000 0.000000 0.000000
# 4 0.000000 0.000000 0.000000 0.035537 0.000000 0.000000
# 5 0.000000 0.000000 0.000000 0.000000 0.030796 0.000000
# 6 0.000000 0.000000 0.000000 0.000000 0.000000 0.027664
#
#
# Mechanical properties :
#
#
# Convention : Reuss Voigt Hill
#
# Bulk Modulus (GPa) = 41.32933 43.92800 42.62867
# Shear Modulus (GPa) = 25.36880 27.96106 26.66493
#
# Velocity S-wave (km/s) = 3.57454 3.75273 3.66472
# Velocity P-wave (km/s) = 6.15244 6.39549 6.27514
#
# Compressibility (1/GPa) = 0.02419589
#
# Stress axis : x y z
#
# Youngs Moduli (GPa) = 63.65238 35.44632 63.73067
#
# Poissons Ratio (x) = 0.29866 0.19091
# Poissons Ratio (y) = 0.53631 0.40070
# Poissons Ratio (z) = 0.19068 0.22286
#
# Static dielectric constant tensor:
#      x y z
#    x 3.719850 0.000000 0.000000 
#    y 0.000000 3.633750 0.000000 
#    z 0.000000 0.000000 3.702240 
# 
# 
# High freq. dielectric constant tensor:
#      x y z
#    x 1.786950 0.000000 0.000000 
#    y 0.000000 1.781190 0.000000 
#    z 0.000000 0.000000 1.776220 
# 
# From -- ./inp_files/10102.got.cif
#   From: 2010.06.25/outbox.cif.g09.slc.cpg/sg71_6_cif.got.tgz:10102.got - 2010.06.28 04:59:45.
