data_PCOD8292977
_publ_section_title
;
Structure prediction by ZEFSAII (Michael W. Deem and Ramdas Pophale) SiO2 
 PCOD8292977
Probable space group: I B A M
;
_chemical_formula_sum "Si O2"
_cell_formula_units_Z 128
_cell_length_a 29.174409
_cell_length_b 28.213689
_cell_length_c 9.642073
_cell_angle_alpha 90.000000
_cell_angle_beta 90.000000
_cell_angle_gamma 90.000000
_cell_volume 7936.560973
_symmetry_space_group_name_H-M "I B A M"
_symmetry_group_IT_number 72
_symmetry_cell_setting 'orthorhombic'
loop_
_space_group_symop_operation_xyz
x,y,z
-x,-y,z
x,-y,1/2-z
-x,y,1/2-z
-x,-y,-z
x,y,-z
-x,y,1/2+z
x,-y,1/2+z
1/2+x,1/2+y,1/2+z
1/2-x,1/2-y,1/2+z
1/2+x,1/2-y,-z
1/2-x,1/2+y,-z
1/2-x,1/2-y,1/2-z
1/2+x,1/2+y,1/2-z
1/2-x,1/2+y,z
1/2+x,1/2-y,z
loop_
_atom_site_type_symbol
_atom_site_label
_atom_site_fract_x
_atom_site_fract_y
_atom_site_fract_z
Si Si1 0.538335 0.175825 0.847503
Si Si2 0.721830 0.647089 0.339728
Si Si3 0.144274 0.458715 0.343151
Si Si4 0.195327 0.292870 0.655862
Si Si5 0.612527 0.857338 0.848019
Si Si6 0.460221 0.285819 0.346990
Si Si7 0.249813 0.954994 0.662975
Si Si8 0.643510 0.715280 0.338344
O O1 0.500000 0.151238 0.750000
O O2 0.586980 0.169858 0.774233
O O3 0.527946 0.230900 0.863330
O O4 0.538568 0.151951 0.000000
O O5 0.736002 0.643634 0.500000
O O6 0.756835 0.687318 0.278263
O O7 0.726025 0.593646 0.279959
O O8 0.669919 0.665347 0.318459
O O9 0.123051 0.500000 0.250000
O O10 0.140905 0.476091 0.500000
O O11 0.113285 0.412912 0.315978
O O12 0.196753 0.448417 0.303892
O O13 0.201925 0.271419 0.500000
O O14 0.164246 0.339463 0.647896
O O15 0.171197 0.254484 0.753189
O O16 0.589557 0.847796 0.000000
O O17 0.500000 0.309089 0.250000
O O18 0.462667 0.309736 0.500000
O O19 0.408747 0.291936 0.284000
O O20 0.239855 0.963662 0.500000
O O21 0.230404 0.000000 0.750000
O O22 0.642257 0.730946 0.500000
#
# Coordination Sequence:
#
# PCOD8292977 Si02
#       8
#    16  16  16  16  16  16  16  16
#     4  10  19  31  46  65  87 111 144 186 228 269
#     4   9  17  30  47  64  91 127 156 180 217 265
#     4   9  17  29  45  64  86 111 145 183 221 265
#     4  10  18  29  44  64  90 125 156 179 212 258
#     4  10  18  29  46  65  88 115 146 181 219 267
#     4   9  18  30  44  63  86 113 147 185 222 256
#     4   9  16  29  46  65  87 117 151 185 221 258
#     4  10  19  31  45  65  92 122 155 188 217 257
#
# _framework density 16.127893
#
# number of rings (size 3 to 8) (size 9 to 14) (size 15 to 20)
#    0.000    2.500    2.500    0.750    0.000    1.500 
#    0.000    1.250    0.000    0.375    0.000    2.625 
#    0.000    0.500    0.000    6.250    0.000    0.000 
#
# Total GULP energy -793138.524303 kJ/mol
# GULP energy per Si atom -12392.789442 kJ/mol
# Density = 1.609118 g / cm^3
# Si number density = 16.127893 Si / 1000 Ang^3
#
#
#
# Elastic Constant Matrix: (Units=GPa)
#
#
# Indices 1 2 3 4 5 6 
#
# 1 85.7185 22.1592 33.1841 0.0000 0.0000 0.0000
# 2 22.1592 47.1948 21.1167 0.0000 0.0000 0.0000
# 3 33.1841 21.1167 66.2725 0.0000 0.0000 0.0000
# 4 0.0000 0.0000 0.0000 15.9653 0.0000 0.0000
# 5 0.0000 0.0000 0.0000 0.0000 20.6813 0.0000
# 6 0.0000 0.0000 0.0000 0.0000 0.0000 11.5782
#
#
#
# Elastic Compliance Matrix: (Units=1/GPa)
#
#
# Indices 1 2 3 4 5 6 
#
# 1 0.015201 -0.004352 -0.006225 0.000000 0.000000 0.000000
# 2 -0.004352 0.025958 -0.006092 0.000000 0.000000 0.000000
# 3 -0.006225 -0.006092 0.020147 0.000000 0.000000 0.000000
# 4 0.000000 0.000000 0.000000 0.062636 0.000000 0.000000
# 5 0.000000 0.000000 0.000000 0.000000 0.048353 0.000000
# 6 0.000000 0.000000 0.000000 0.000000 0.000000 0.086369
#
#
# Mechanical properties :
#
#
# Convention : Reuss Voigt Hill
#
# Bulk Modulus (GPa) = 35.75437 39.12287 37.43862
# Shear Modulus (GPa) = 16.59344 17.82670 17.21007
#
# Velocity S-wave (km/s) = 3.21107 3.32826 3.27019
# Velocity P-wave (km/s) = 5.99712 6.25143 6.12559
#
# Compressibility (1/GPa) = 0.02796861
#
# Stress axis : x y z
#
# Youngs Moduli (GPa) = 65.78553 38.52391 49.63475
#
# Poissons Ratio (x) = 0.16766 0.30896
# Poissons Ratio (y) = 0.28630 0.30237
# Poissons Ratio (z) = 0.40950 0.23468
#
# Static dielectric constant tensor:
#      x y z
#    x 2.969660 0.000000 0.000000 
#    y 0.000000 2.875920 0.000000 
#    z 0.000000 0.000000 3.176770 
# 
# 
# High freq. dielectric constant tensor:
#      x y z
#    x 1.604870 0.000000 0.000000 
#    y 0.000000 1.585760 0.000000 
#    z 0.000000 0.000000 1.614910 
# 
# From -- ./inp_files/16469.got.cif
#   From: 2010.03.12/outbox.cif.g09.slc.cpg/sg72_9_cif.got.tgz:16469.got - 2010.04.16 14:54:00.
