data_PCOD8292850
_publ_section_title
;
Structure prediction by ZEFSAII (Michael W. Deem and Ramdas Pophale) SiO2 
 PCOD8292850
Probable space group: I B A M
;
_chemical_formula_sum "Si O2"
_cell_formula_units_Z 80
_cell_length_a 10.168199
_cell_length_b 25.435776
_cell_length_c 16.218937
_cell_angle_alpha 90.000000
_cell_angle_beta 90.000000
_cell_angle_gamma 90.000000
_cell_volume 4194.801510
_symmetry_space_group_name_H-M "I B A M"
_symmetry_group_IT_number 72
_symmetry_cell_setting 'orthorhombic'
loop_
_space_group_symop_operation_xyz
x,y,z
-x,-y,z
x,-y,1/2-z
-x,y,1/2-z
-x,-y,-z
x,y,-z
-x,y,1/2+z
x,-y,1/2+z
1/2+x,1/2+y,1/2+z
1/2-x,1/2-y,1/2+z
1/2+x,1/2-y,-z
1/2-x,1/2+y,-z
1/2-x,1/2-y,1/2-z
1/2+x,1/2+y,1/2-z
1/2-x,1/2+y,z
1/2+x,1/2-y,z
loop_
_atom_site_type_symbol
_atom_site_label
_atom_site_fract_x
_atom_site_fract_y
_atom_site_fract_z
Si Si1 0.320921 0.031105 0.092452
Si Si2 0.628211 0.732444 0.695421
Si Si3 0.552029 0.830675 0.404755
Si Si4 0.923494 0.564337 0.835632
Si Si5 0.748817 0.856399 0.095943
O O1 0.471886 0.051798 0.091727
O O2 0.237151 0.081994 0.123206
O O3 0.307770 0.979781 0.152810
O O4 0.278642 0.015638 0.000000
O O5 0.500000 0.726024 0.750000
O O6 0.750000 0.750000 0.750000
O O7 0.606614 0.775201 0.624326
O O8 0.651388 0.676721 0.651200
O O9 0.587626 0.837728 0.500000
O O10 0.626727 0.876340 0.351129
O O11 0.396964 0.834136 0.387051
O O12 0.000000 0.557372 0.750000
O O13 0.784625 0.850495 0.000000
#
# Coordination Sequence:
#
# PCOD8292850 Si02
#       5
#    16  16  16  16  16
#     4   9  16  28  46  72 109 147 180 219 277 339
#     4  12  23  38  56  83 116 150 193 244 292 343
#     4  10  20  35  55  79 117 155 191 234 289 355
#     4  10  17  26  46  80 115 145 178 232 291 335
#     4   9  19  35  55  79 113 153 190 232 285 348
#
# _framework density 19.071224000000001
#
# number of rings (size 3 to 8) (size 9 to 14) (size 15 to 20)
#    0.000    2.000    2.000    6.000    2.800    0.000 
#    0.000    0.000    0.000    0.000    0.000    2.800 
#    0.000    4.800    0.000    0.000    0.000    0.000 
#
# Total GULP energy -495646.060076 kJ/mol
# GULP energy per Si atom -12391.151502 kJ/mol
# Density = 1.902782 g / cm^3
# Si number density = 19.071224 Si / 1000 Ang^3
#
#
#
# Elastic Constant Matrix: (Units=GPa)
#
#
# Indices 1 2 3 4 5 6 
#
# 1 55.8134 36.9741 34.5124 0.0000 0.0000 0.0000
# 2 36.9741 172.2394 77.2072 -0.0001 0.0000 0.0000
# 3 34.5124 77.2072 104.5295 -0.0004 0.0002 0.0001
# 4 0.0000 -0.0001 -0.0004 31.2890 0.0001 0.0000
# 5 0.0000 0.0000 0.0002 0.0001 18.4332 0.0000
# 6 0.0000 0.0000 0.0001 0.0000 0.0000 27.9294
#
#
#
# Elastic Compliance Matrix: (Units=1/GPa)
#
#
# Indices 1 2 3 4 5 6 
#
# 1 0.023109 -0.002303 -0.005929 0.000000 0.000000 0.000000
# 2 -0.002303 0.008909 -0.005820 0.000000 0.000000 0.000000
# 3 -0.005929 -0.005820 0.015823 0.000000 0.000000 0.000000
# 4 0.000000 0.000000 0.000000 0.031960 0.000000 0.000000
# 5 0.000000 0.000000 0.000000 0.000000 0.054250 0.000000
# 6 0.000000 0.000000 0.000000 0.000000 0.000000 0.035805
#
#
# Mechanical properties :
#
#
# Convention : Reuss Voigt Hill
#
# Bulk Modulus (GPa) = 50.66606 69.99662 60.33134
# Shear Modulus (GPa) = 24.44540 27.78958 26.11749
#
# Velocity S-wave (km/s) = 3.58410 3.82140 3.70465
# Velocity P-wave (km/s) = 6.61454 7.50022 7.07126
#
# Compressibility (1/GPa) = 0.01973708
#
# Stress axis : x y z
#
# Youngs Moduli (GPa) = 43.27409 112.24457 63.19969
#
# Poissons Ratio (x) = 0.25851 0.37469
# Poissons Ratio (y) = 0.09966 0.36782
# Poissons Ratio (z) = 0.25655 0.65326
#
# Static dielectric constant tensor:
#      x y z
#    x 2.924000 0.000000 0.000000 
#    y 0.000000 4.069180 0.000000 
#    z 0.000000 0.000000 3.492820 
# 
# 
# High freq. dielectric constant tensor:
#      x y z
#    x 1.656120 0.000000 0.000000 
#    y 0.000000 1.766890 0.000000 
#    z 0.000000 0.000000 1.753740 
# 
# From -- ./inp_files/20168.got.cif
#   From: 2010.03.12/outbox.cif.g09.slc.cpg/sg72_11_cif.got.tgz:20168.got - 2010.04.16 14:54:00.
