data_PCOD8292935
_publ_section_title
;
Structure prediction by ZEFSAII (Michael W. Deem and Ramdas Pophale) SiO2 
 PCOD8292935
Probable space group: I B A M
;
_chemical_formula_sum "Si O2"
_cell_formula_units_Z 128
_cell_length_a 20.354304
_cell_length_b 26.812216
_cell_length_c 17.170381
_cell_angle_alpha 90.000000
_cell_angle_beta 90.000000
_cell_angle_gamma 90.000000
_cell_volume 9370.632329
_symmetry_space_group_name_H-M "I B A M"
_symmetry_group_IT_number 72
_symmetry_cell_setting 'orthorhombic'
loop_
_space_group_symop_operation_xyz
x,y,z
-x,-y,z
x,-y,1/2-z
-x,y,1/2-z
-x,-y,-z
x,y,-z
-x,y,1/2+z
x,-y,1/2+z
1/2+x,1/2+y,1/2+z
1/2-x,1/2-y,1/2+z
1/2+x,1/2-y,-z
1/2-x,1/2+y,-z
1/2-x,1/2-y,1/2-z
1/2+x,1/2+y,1/2-z
1/2-x,1/2+y,z
1/2+x,1/2-y,z
loop_
_atom_site_type_symbol
_atom_site_label
_atom_site_fract_x
_atom_site_fract_y
_atom_site_fract_z
Si Si1 0.930003 0.065647 0.349734
Si Si2 0.340377 0.644603 0.085511
Si Si3 0.730318 0.327843 0.227278
Si Si4 0.118822 0.118611 0.306897
Si Si5 0.570890 0.542903 0.907635
Si Si6 0.453601 0.280355 0.822514
Si Si7 0.850825 0.272646 0.269476
Si Si8 0.424413 0.258494 0.588463
O O1 0.879170 0.092818 0.407152
O O2 0.919167 0.089232 0.263513
O O3 0.004403 0.071581 0.380573
O O4 0.916196 0.006641 0.356976
O O5 0.276998 0.648364 0.141335
O O6 0.393698 0.687285 0.104936
O O7 0.310937 0.650225 0.000000
O O8 0.692585 0.365528 0.284650
O O9 0.806689 0.321757 0.251747
O O10 0.696576 0.274342 0.224709
O O11 0.126973 0.081636 0.380867
O O12 0.081298 0.167289 0.337877
O O13 0.570635 0.531788 0.000000
O O14 0.500000 0.289947 0.750000
O O15 0.401616 0.236642 0.801423
O O16 0.497290 0.262673 0.895887
O O17 0.889669 0.280089 0.351478
O O18 0.412933 0.240255 0.500000
#
# Coordination Sequence:
#
# PCOD8292935 Si02
#       8
#    16  16  16  16  16  16  16  16
#     4  10  18  28  38  49  68  96 127 156 190 227
#     4   9  15  24  38  53  69  91 123 159 188 213
#     4   8  15  26  39  51  66  91 123 152 182 217
#     4  10  18  27  39  52  68  94 125 155 185 221
#     4  11  20  27  35  51  73  94 121 159 197 221
#     4   9  15  24  38  54  70  89 115 146 182 218
#     4   8  14  26  39  51  68  91 118 149 181 217
#     4   9  16  24  37  56  74  93 118 149 183 219
#
# _framework density 13.659697
#
# number of rings (size 3 to 8) (size 9 to 14) (size 15 to 20)
#    0.000    2.750    0.000    6.000    0.000    2.500 
#    0.000    1.250    0.000    4.500    0.000    0.000 
#    0.000    0.000    0.000    0.000    0.000   90.000 
#
# Total GULP energy -792837.499719 kJ/mol
# GULP energy per Si atom -12388.085933 kJ/mol
# Density = 1.362861 g / cm^3
# Si number density = 13.659697 Si / 1000 Ang^3
#
#
#
# Elastic Constant Matrix: (Units=GPa)
#
#
# Indices 1 2 3 4 5 6 
#
# 1 65.5246 37.8197 40.7747 0.0000 0.0000 0.0000
# 2 37.8197 46.6333 30.0934 0.0000 0.0000 0.0000
# 3 40.7747 30.0934 67.9627 0.0000 0.0000 0.0000
# 4 0.0000 0.0000 0.0000 12.0567 0.0000 0.0000
# 5 0.0000 0.0000 0.0000 0.0000 12.6022 0.0000
# 6 0.0000 0.0000 0.0000 0.0000 0.0000 22.8265
#
#
#
# Elastic Compliance Matrix: (Units=1/GPa)
#
#
# Indices 1 2 3 4 5 6 
#
# 1 0.034091 -0.020230 -0.011496 0.000000 0.000000 0.000000
# 2 -0.020230 0.042027 -0.006472 0.000000 0.000000 0.000000
# 3 -0.011496 -0.006472 0.024477 0.000000 0.000000 0.000000
# 4 0.000000 0.000000 0.000000 0.082941 0.000000 0.000000
# 5 0.000000 0.000000 0.000000 0.000000 0.079351 0.000000
# 6 0.000000 0.000000 0.000000 0.000000 0.000000 0.043809
#
#
# Mechanical properties :
#
#
# Convention : Reuss Voigt Hill
#
# Bulk Modulus (GPa) = 41.32306 44.16626 42.74466
# Shear Modulus (GPa) = 12.78256 14.25926 13.52091
#
# Velocity S-wave (km/s) = 3.06238 3.23444 3.14958
# Velocity P-wave (km/s) = 6.54383 6.80825 6.67735
#
# Compressibility (1/GPa) = 0.02419956
#
# Stress axis : x y z
#
# Youngs Moduli (GPa) = 29.33309 23.79428 40.85497
#
# Poissons Ratio (x) = 0.48135 0.46966
# Poissons Ratio (y) = 0.59340 0.26443
# Poissons Ratio (z) = 0.33721 0.15400
#
# Static dielectric constant tensor:
#      x y z
#    x 2.757090 0.000000 0.000000 
#    y 0.000000 2.597020 0.000000 
#    z 0.000000 0.000000 2.821530 
# 
# 
# High freq. dielectric constant tensor:
#      x y z
#    x 1.487820 0.000000 0.000000 
#    y 0.000000 1.487210 0.000000 
#    z 0.000000 0.000000 1.523520 
# 
# From -- ./inp_files/32981.got.cif
#   From: 2010.03.12/outbox.cif.g09.slc.cpg/sg72_17_cif.got.tgz:32981.got - 2010.04.16 14:54:00.
