data_PCOD8292730
_publ_section_title
;
Structure prediction by ZEFSAII (Michael W. Deem and Ramdas Pophale) SiO2 
 PCOD8292730
Probable space group: I M M M
;
_chemical_formula_sum "Si O2"
_cell_formula_units_Z 72
_cell_length_a 23.711184
_cell_length_b 17.967270
_cell_length_c 9.559448
_cell_angle_alpha 90.000000
_cell_angle_beta 90.000000
_cell_angle_gamma 90.000000
_cell_volume 4072.566176
_symmetry_space_group_name_H-M "I M M M"
_symmetry_group_IT_number 71
_symmetry_cell_setting 'orthorhombic'
loop_
_space_group_symop_operation_xyz
x,y,z
-x,-y,z
x,-y,-z
-x,y,-z
-x,-y,-z
x,y,-z
-x,y,z
x,-y,z
1/2+x,1/2+y,1/2+z
1/2-x,1/2-y,1/2+z
1/2+x,1/2-y,1/2-z
1/2-x,1/2+y,1/2-z
1/2-x,1/2-y,1/2-z
1/2+x,1/2+y,1/2-z
1/2-x,1/2+y,1/2+z
1/2+x,1/2-y,1/2+z
loop_
_atom_site_type_symbol
_atom_site_label
_atom_site_fract_x
_atom_site_fract_y
_atom_site_fract_z
Si Si1 0.063484 0.500000 0.833008
Si Si2 0.854757 0.915072 0.836999
Si Si3 0.628043 0.143122 0.666197
Si Si4 0.246750 0.586502 0.838925
Si Si5 0.436669 0.713088 0.334069
O O1 0.093772 0.426801 0.772369
O O2 0.000000 0.500000 0.777193
O O3 0.065709 0.500000 0.000000
O O4 0.799542 0.889084 0.754110
O O5 0.907187 0.864167 0.789838
O O6 0.870986 0.000000 0.800950
O O7 0.841173 0.904718 0.000000
O O8 0.623978 0.142007 0.500000
O O9 0.693507 0.136030 0.710668
O O10 0.600365 0.218575 0.726694
O O11 0.231178 0.500000 0.816699
O O12 0.262019 0.601889 0.000000
O O13 0.440012 0.719667 0.500000
O O14 0.500000 0.714988 0.271105
#
# Coordination Sequence:
#
# PCOD8292730 Si02
#       5
#     8  16  16  16  16
#     4   9  14  20  34  58  89 121 146 171 212 264
#     4   9  18  31  46  65  89 117 150 186 221 260
#     4   9  15  24  39  62  90 118 145 176 217 264
#     4   9  16  28  46  67  92 118 145 179 219 263
#     4   9  17  28  42  62  88 116 147 185 225 262
#
# _framework density 17.679271
#
# number of rings (size 3 to 8) (size 9 to 14) (size 15 to 20)
#    0.000    3.000    1.111    0.667    0.000    4.000 
#    0.000    2.222    0.000    0.667    0.000    3.111 
#    0.000    3.556    0.000    0.000    0.000    0.000 
#
# Total GULP energy -446292.598058 kJ/mol
# GULP energy per Si atom -12397.016613 kJ/mol
# Density = 1.763903 g / cm^3
# Si number density = 17.679271 Si / 1000 Ang^3
#
#
#
# Elastic Constant Matrix: (Units=GPa)
#
#
# Indices 1 2 3 4 5 6 
#
# 1 156.6437 85.8869 29.5861 0.0000 0.0000 0.0000
# 2 85.8869 121.4517 19.1278 0.0000 0.0000 0.0000
# 3 29.5861 19.1278 19.6548 0.0000 0.0000 0.0000
# 4 0.0000 0.0000 0.0000 9.5850 0.0000 0.0000
# 5 0.0000 0.0000 0.0000 0.0000 19.9576 0.0000
# 6 0.0000 0.0000 0.0000 0.0000 0.0000 36.7664
#
#
#
# Elastic Compliance Matrix: (Units=1/GPa)
#
#
# Indices 1 2 3 4 5 6 
#
# 1 0.012436 -0.006905 -0.012001 0.000000 0.000000 0.000000
# 2 -0.006905 0.013557 -0.002801 0.000000 0.000000 0.000000
# 3 -0.012001 -0.002801 0.071668 0.000000 0.000000 0.000000
# 4 0.000000 0.000000 0.000000 0.104330 0.000000 0.000000
# 5 0.000000 0.000000 0.000000 0.000000 0.050106 0.000000
# 6 0.000000 0.000000 0.000000 0.000000 0.000000 0.027199
#
#
# Mechanical properties :
#
#
# Convention : Reuss Voigt Hill
#
# Bulk Modulus (GPa) = 18.43311 62.99464 40.71388
# Shear Modulus (GPa) = 14.67169 24.13841 19.40505
#
# Velocity S-wave (km/s) = 2.88389 3.69907 3.31662
# Velocity P-wave (km/s) = 4.64092 7.34530 6.14376
#
# Compressibility (1/GPa) = 0.05425020
#
# Stress axis : x y z
#
# Youngs Moduli (GPa) = 80.41009 73.76003 13.95315
#
# Poissons Ratio (x) = 0.50928 0.16745
# Poissons Ratio (y) = 0.55519 0.03908
# Poissons Ratio (z) = 0.96498 0.20658
#
# Static dielectric constant tensor:
#      x y z
#    x 3.457100 0.000000 0.000000 
#    y 0.000000 3.424800 0.000000 
#    z 0.000000 0.000000 2.687430 
# 
# 
# High freq. dielectric constant tensor:
#      x y z
#    x 1.694210 0.000000 0.000000 
#    y 0.000000 1.688210 0.000000 
#    z 0.000000 0.000000 1.610740 
# 
# From -- ./inp_files/7932.got.cif
#   From: 2010.06.25/outbox.cif.g09.slc.cpg/sg71_4_cif.got.tgz:7932.got - 2010.06.28 04:59:45.
