data_PCOD8292010
_publ_section_title
;
Structure prediction by ZEFSAII (Michael W. Deem and Ramdas Pophale) SiO2 
 PCOD8292010
Probable space group: I M M M
;
_chemical_formula_sum "Si O2"
_cell_formula_units_Z 44
_cell_length_a 11.528928
_cell_length_b 10.241948
_cell_length_c 20.349840
_cell_angle_alpha 90.000000
_cell_angle_beta 90.000000
_cell_angle_gamma 90.000000
_cell_volume 2402.882267
_symmetry_space_group_name_H-M "I M M M"
_symmetry_group_IT_number 71
_symmetry_cell_setting 'orthorhombic'
loop_
_space_group_symop_operation_xyz
x,y,z
-x,-y,z
x,-y,-z
-x,y,-z
-x,-y,-z
x,y,-z
-x,y,z
x,-y,z
1/2+x,1/2+y,1/2+z
1/2-x,1/2-y,1/2+z
1/2+x,1/2-y,1/2-z
1/2-x,1/2+y,1/2-z
1/2-x,1/2-y,1/2-z
1/2+x,1/2+y,1/2-z
1/2-x,1/2+y,1/2+z
1/2+x,1/2-y,1/2+z
loop_
_atom_site_type_symbol
_atom_site_label
_atom_site_fract_x
_atom_site_fract_y
_atom_site_fract_z
Si Si1 0.000000 0.500000 0.260967
Si Si2 0.130683 0.500000 0.864367
Si Si3 0.128689 0.000000 0.921873
Si Si4 0.742492 0.254766 0.923217
Si Si5 0.500000 0.147696 0.113686
O O1 0.114882 0.500000 0.214920
O O2 0.000000 0.370457 0.307066
O O3 0.205030 0.624487 0.884435
O O4 0.000000 0.500000 0.896832
O O5 0.193597 0.872940 0.895437
O O6 0.000000 0.000000 0.892585
O O7 0.128009 0.000000 0.000000
O O8 0.607194 0.234781 0.909809
O O9 0.765186 0.277797 0.000000
O O10 0.500000 0.000000 0.081348
#
# Coordination Sequence:
#
# PCOD8292010 Si02
#       5
#     4   8   8  16   8
#     4   8  22  44  60  84 118 178 204 242 296 350
#     4  10  23  41  58  90 125 166 200 246 306 367
#     4   9  17  29  50  83 114 152 198 235 290 360
#     4  11  21  35  62  90 123 158 193 258 317 360
#     4  10  21  41  60  88 118 161 206 252 289 357
#
# _framework density 18.311343999999998
#
# number of rings (size 3 to 8) (size 9 to 14) (size 15 to 20)
#    1.091    0.909    1.818    2.182    0.000    5.818 
#    0.000    1.818    0.000    0.000    0.000    0.000 
#    0.000    0.000    0.000    0.000    0.000    0.000 
#
# Total GULP energy -272689.406230 kJ/mol
# GULP energy per Si atom -12394.973010 kJ/mol
# Density = 1.826967 g / cm^3
# Si number density = 18.311344 Si / 1000 Ang^3
#
#
#
# Elastic Constant Matrix: (Units=GPa)
#
#
# Indices 1 2 3 4 5 6 
#
# 1 126.9706 47.0346 -5.2536 0.0000 0.0000 0.0000
# 2 47.0346 124.8758 14.7033 0.0000 0.0000 0.0000
# 3 -5.2536 14.7033 56.2264 0.0000 0.0000 0.0000
# 4 0.0000 0.0000 0.0000 12.1174 0.0000 0.0000
# 5 0.0000 0.0000 0.0000 0.0000 21.9318 0.0000
# 6 0.0000 0.0000 0.0000 0.0000 0.0000 42.0323
#
#
#
# Elastic Compliance Matrix: (Units=1/GPa)
#
#
# Indices 1 2 3 4 5 6 
#
# 1 0.009336 -0.003734 0.001849 0.000000 0.000000 0.000000
# 2 -0.003734 0.009756 -0.002900 0.000000 0.000000 0.000000
# 3 0.001849 -0.002900 0.018716 0.000000 0.000000 0.000000
# 4 0.000000 0.000000 0.000000 0.082526 0.000000 0.000000
# 5 0.000000 0.000000 0.000000 0.000000 0.045596 0.000000
# 6 0.000000 0.000000 0.000000 0.000000 0.000000 0.023791
#
#
# Mechanical properties :
#
#
# Convention : Reuss Voigt Hill
#
# Bulk Modulus (GPa) = 35.41432 46.78238 41.09835
# Shear Modulus (GPa) = 23.95744 31.98887 27.97315
#
# Velocity S-wave (km/s) = 3.62102 4.18418 3.91274
# Velocity P-wave (km/s) = 6.07161 6.99621 6.55024
#
# Compressibility (1/GPa) = 0.02823716
#
# Stress axis : x y z
#
# Youngs Moduli (GPa) = 107.11785 102.50316 53.42927
#
# Poissons Ratio (x) = 0.38274 -0.09877
# Poissons Ratio (y) = 0.39997 0.15495
# Poissons Ratio (z) = -0.19803 0.29726
#
# Static dielectric constant tensor:
#      x y z
#    x 3.440430 0.000000 0.000000 
#    y 0.000000 3.871860 0.000000 
#    z 0.000000 0.000000 3.105240 
# 
# 
# High freq. dielectric constant tensor:
#      x y z
#    x 1.720740 0.000000 0.000000 
#    y 0.000000 1.706340 0.000000 
#    z 0.000000 0.000000 1.682450 
# 
# From -- ./inp_files/26738.got.cif
#   From: 2010.06.25/outbox.cif.g09.slc.cpg/sg71_14_cif.got.tgz:26738.got - 2010.06.28 04:59:45.
