data_PCOD8292525
_publ_section_title
;
Structure prediction by ZEFSAII (Michael W. Deem and Ramdas Pophale) SiO2 
 PCOD8292525
Probable space group: I M M M
;
_chemical_formula_sum "Si O2"
_cell_formula_units_Z 104
_cell_length_a 23.978031
_cell_length_b 28.350701
_cell_length_c 9.020958
_cell_angle_alpha 90.000000
_cell_angle_beta 90.000000
_cell_angle_gamma 90.000000
_cell_volume 6132.393009
_symmetry_space_group_name_H-M "I M M M"
_symmetry_group_IT_number 71
_symmetry_cell_setting 'orthorhombic'
loop_
_space_group_symop_operation_xyz
x,y,z
-x,-y,z
x,-y,-z
-x,y,-z
-x,-y,-z
x,y,-z
-x,y,z
x,-y,z
1/2+x,1/2+y,1/2+z
1/2-x,1/2-y,1/2+z
1/2+x,1/2-y,1/2-z
1/2-x,1/2+y,1/2-z
1/2-x,1/2-y,1/2-z
1/2+x,1/2+y,1/2-z
1/2-x,1/2+y,1/2+z
1/2+x,1/2-y,1/2+z
loop_
_atom_site_type_symbol
_atom_site_label
_atom_site_fract_x
_atom_site_fract_y
_atom_site_fract_z
Si Si1 0.063255 0.867894 0.324796
Si Si2 0.564899 0.171278 0.673597
Si Si3 0.933996 0.500000 0.170020
Si Si4 0.144815 0.947798 0.323532
Si Si5 0.375806 0.913065 0.175113
Si Si6 0.066170 0.776120 0.836450
Si Si7 0.729850 0.055178 0.669467
O O1 0.065644 0.868095 0.500000
O O2 0.101327 0.909800 0.258309
O O3 0.087417 0.817483 0.271631
O O4 0.000000 0.875903 0.268057
O O5 0.575470 0.161097 0.500000
O O6 0.500000 0.164073 0.711163
O O7 0.600773 0.137202 0.775802
O O8 0.585406 0.224187 0.715991
O O9 0.911850 0.546480 0.248573
O O10 0.000000 0.500000 0.180141
O O11 0.913392 0.500000 0.000000
O O12 0.142676 0.948604 0.500000
O O13 0.207454 0.934493 0.273874
O O14 0.128828 0.000000 0.263521
O O15 0.311556 0.915973 0.225334
O O16 0.380023 0.918720 0.000000
O O17 0.000000 0.775352 0.841708
O O18 0.090038 0.786752 0.000000
O O19 0.722298 0.072001 0.500000
O O20 0.715851 0.000000 0.682533
#
# Coordination Sequence:
#
# PCOD8292525 Si02
#       7
#    16  16   8  16  16  16  16
#     4   9  16  26  45  75 106 130 153 190 241 286
#     4   9  18  33  51  69  91 124 164 198 232 286
#     4  11  23  37  51  67  93 131 166 191 226 287
#     4   8  15  28  47  72  98 128 167 200 227 274
#     4  12  23  32  47  72  99 122 151 202 254 288
#     4   8  15  29  48  68  92 125 163 196 227 277
#     4   9  17  32  52  66  84 124 173 206 230 276
#
# _framework density 16.959121
#
# number of rings (size 3 to 8) (size 9 to 14) (size 15 to 20)
#    0.000    2.692    0.769    3.923    0.000    3.692 
#    0.000    3.846    0.000    2.308    0.000    2.154 
#    0.000    0.000    0.000    0.000    0.000    0.000 
#
# Total GULP energy -644622.399700 kJ/mol
# GULP energy per Si atom -12396.584610 kJ/mol
# Density = 1.692052 g / cm^3
# Si number density = 16.959121 Si / 1000 Ang^3
#
#
#
# Elastic Constant Matrix: (Units=GPa)
#
#
# Indices 1 2 3 4 5 6 
#
# 1 83.1612 65.8752 39.9040 0.0000 0.0000 0.0000
# 2 65.8752 134.0891 49.6098 0.0000 0.0000 0.0000
# 3 39.9040 49.6098 69.4733 0.0000 0.0000 0.0000
# 4 0.0000 0.0000 0.0000 24.3080 0.0000 0.0000
# 5 0.0000 0.0000 0.0000 0.0000 11.5186 0.0000
# 6 0.0000 0.0000 0.0000 0.0000 0.0000 11.2581
#
#
#
# Elastic Compliance Matrix: (Units=1/GPa)
#
#
# Indices 1 2 3 4 5 6 
#
# 1 0.021702 -0.008222 -0.006594 0.000000 0.000000 0.000000
# 2 -0.008222 0.013251 -0.004739 0.000000 0.000000 0.000000
# 3 -0.006594 -0.004739 0.021566 0.000000 0.000000 0.000000
# 4 0.000000 0.000000 0.000000 0.041139 0.000000 0.000000
# 5 0.000000 0.000000 0.000000 0.000000 0.086816 0.000000
# 6 0.000000 0.000000 0.000000 0.000000 0.000000 0.088825
#
#
# Mechanical properties :
#
#
# Convention : Reuss Voigt Hill
#
# Bulk Modulus (GPa) = 57.44667 66.38908 61.91787
# Shear Modulus (GPa) = 15.71287 18.17260 16.94273
#
# Velocity S-wave (km/s) = 3.04717 3.27701 3.16418
# Velocity P-wave (km/s) = 6.80643 7.31778 7.06673
#
# Compressibility (1/GPa) = 0.01740745
#
# Stress axis : x y z
#
# Youngs Moduli (GPa) = 46.07900 75.46859 46.36994
#
# Poissons Ratio (x) = 0.62051 0.30575
# Poissons Ratio (y) = 0.37887 0.21977
# Poissons Ratio (z) = 0.30384 0.35768
#
# Static dielectric constant tensor:
#      x y z
#    x 3.165840 0.000000 0.000000 
#    y 0.000000 3.421760 0.000000 
#    z 0.000000 0.000000 3.013810 
# 
# 
# High freq. dielectric constant tensor:
#      x y z
#    x 1.635030 0.000000 0.000000 
#    y 0.000000 1.655240 0.000000 
#    z 0.000000 0.000000 1.633880 
# 
# From -- ./inp_files/15553.got.cif
#   From: 2010.06.25/outbox.cif.g09.slc.cpg/sg71_8_cif.got.tgz:15553.got - 2010.06.28 04:59:45.
