data_PCOD8292053
_publ_section_title
;
Structure prediction by ZEFSAII (Michael W. Deem and Ramdas Pophale) SiO2 
 PCOD8292053
Probable space group: I M M M
;
_chemical_formula_sum "Si O2"
_cell_formula_units_Z 80
_cell_length_a 14.741940
_cell_length_b 9.447623
_cell_length_c 29.109772
_cell_angle_alpha 90.000000
_cell_angle_beta 90.000000
_cell_angle_gamma 90.000000
_cell_volume 4054.301088
_symmetry_space_group_name_H-M "I M M M"
_symmetry_group_IT_number 71
_symmetry_cell_setting 'orthorhombic'
loop_
_space_group_symop_operation_xyz
x,y,z
-x,-y,z
x,-y,-z
-x,y,-z
-x,-y,-z
x,y,-z
-x,y,z
x,-y,z
1/2+x,1/2+y,1/2+z
1/2-x,1/2-y,1/2+z
1/2+x,1/2-y,1/2-z
1/2-x,1/2+y,1/2-z
1/2-x,1/2-y,1/2-z
1/2+x,1/2+y,1/2-z
1/2-x,1/2+y,1/2+z
1/2+x,1/2-y,1/2+z
loop_
_atom_site_type_symbol
_atom_site_label
_atom_site_fract_x
_atom_site_fract_y
_atom_site_fract_z
Si Si1 0.392526 0.343054 0.300482
Si Si2 0.604563 0.335594 0.870094
Si Si3 0.243289 0.837227 0.447998
Si Si4 0.607981 0.159495 0.217226
Si Si5 0.603401 0.666750 0.403178
O O1 0.500000 0.352105 0.296274
O O2 0.352111 0.500000 0.291600
O O3 0.352196 0.235240 0.262821
O O4 0.366922 0.289604 0.351464
O O5 0.500000 0.299913 0.880668
O O6 0.616501 0.500000 0.857309
O O7 0.660880 0.291578 0.915045
O O8 0.641924 0.243720 0.827543
O O9 0.210748 0.810042 0.500000
O O10 0.332888 0.746335 0.438892
O O11 0.269218 0.000000 0.439857
O O12 0.500000 0.160476 0.219089
O O13 0.645918 0.000000 0.215170
O O14 0.500000 0.713132 0.412776
O O15 0.614105 0.500000 0.409990
#
# Coordination Sequence:
#
# PCOD8292053 Si02
#       5
#    16  16  16  16  16
#     4   8  14  27  48  73 102 136 172 207 245 296
#     4   9  18  34  55  76 102 139 177 212 256 311
#     4  10  22  38  55  78 105 132 170 222 272 313
#     4   9  16  26  45  76 109 137 168 208 253 302
#     4   9  19  36  57  80 106 139 177 213 253 307
#
# _framework density 19.732132
#
# number of rings (size 3 to 8) (size 9 to 14) (size 15 to 20)
#    0.000    3.000    0.000    1.800    0.000    5.600 
#    0.000    7.000    0.000    0.000    0.000    4.200 
#    0.000    0.000    0.000    0.000    0.000    0.000 
#
# Total GULP energy -495962.213295 kJ/mol
# GULP energy per Si atom -12399.055332 kJ/mol
# Density = 1.968722 g / cm^3
# Si number density = 19.732132 Si / 1000 Ang^3
#
#
#
# Elastic Constant Matrix: (Units=GPa)
#
#
# Indices 1 2 3 4 5 6 
#
# 1 37.0995 9.8626 7.9278 0.0000 0.0000 0.0000
# 2 9.8626 69.0714 34.2320 0.0000 0.0000 0.0000
# 3 7.9278 34.2320 89.2768 0.0000 0.0000 0.0000
# 4 0.0000 0.0000 0.0000 30.3756 0.0000 0.0000
# 5 0.0000 0.0000 0.0000 0.0000 9.3199 0.0000
# 6 0.0000 0.0000 0.0000 0.0000 0.0000 15.3688
#
#
#
# Elastic Compliance Matrix: (Units=1/GPa)
#
#
# Indices 1 2 3 4 5 6 
#
# 1 0.028119 -0.003429 -0.001182 0.000000 0.000000 0.000000
# 2 -0.003429 0.018293 -0.006710 0.000000 0.000000 0.000000
# 3 -0.001182 -0.006710 0.013879 0.000000 0.000000 0.000000
# 4 0.000000 0.000000 0.000000 0.032921 0.000000 0.000000
# 5 0.000000 0.000000 0.000000 0.000000 0.107298 0.000000
# 6 0.000000 0.000000 0.000000 0.000000 0.000000 0.065067
#
#
# Mechanical properties :
#
#
# Convention : Reuss Voigt Hill
#
# Bulk Modulus (GPa) = 26.56144 33.27694 29.91919
# Shear Modulus (GPa) = 16.62414 20.57454 18.59934
#
# Velocity S-wave (km/s) = 2.90572 3.23258 3.07350
# Velocity P-wave (km/s) = 4.97472 5.55281 5.27169
#
# Compressibility (1/GPa) = 0.03764856
#
# Stress axis : x y z
#
# Youngs Moduli (GPa) = 35.56340 54.66658 72.05244
#
# Poissons Ratio (x) = 0.18746 0.08517
# Poissons Ratio (y) = 0.12195 0.48344
# Poissons Ratio (z) = 0.04204 0.36679
#
# Static dielectric constant tensor:
#      x y z
#    x 3.293430 0.000000 0.000000 
#    y 0.000000 3.638850 0.000000 
#    z 0.000000 0.000000 3.680630 
# 
# 
# High freq. dielectric constant tensor:
#      x y z
#    x 1.753370 0.000000 0.000000 
#    y 0.000000 1.762140 0.000000 
#    z 0.000000 0.000000 1.768770 
# 
# From -- ./inp_files/42236.got.cif
#   From: 2010.06.25/outbox.cif.g09.slc.cpg/sg71_22_cif.got.tgz:42236.got - 2010.06.28 04:59:45.
