data_PCOD8292831
_publ_section_title
;
Structure prediction by ZEFSAII (Michael W. Deem and Ramdas Pophale) SiO2 
 PCOD8292831
Probable space group: I B A M
;
_chemical_formula_sum "Si O2"
_cell_formula_units_Z 88
_cell_length_a 10.752377
_cell_length_b 20.125566
_cell_length_c 18.464066
_cell_angle_alpha 90.000000
_cell_angle_beta 90.000000
_cell_angle_gamma 90.000000
_cell_volume 3995.580916
_symmetry_space_group_name_H-M "I B A M"
_symmetry_group_IT_number 72
_symmetry_cell_setting 'orthorhombic'
loop_
_space_group_symop_operation_xyz
x,y,z
-x,-y,z
x,-y,1/2-z
-x,y,1/2-z
-x,-y,-z
x,y,-z
-x,y,1/2+z
x,-y,1/2+z
1/2+x,1/2+y,1/2+z
1/2-x,1/2-y,1/2+z
1/2+x,1/2-y,-z
1/2-x,1/2+y,-z
1/2-x,1/2-y,1/2-z
1/2+x,1/2+y,1/2-z
1/2-x,1/2+y,z
1/2+x,1/2-y,z
loop_
_atom_site_type_symbol
_atom_site_label
_atom_site_fract_x
_atom_site_fract_y
_atom_site_fract_z
Si Si1 0.148707 0.593094 0.500000
Si Si2 0.000000 0.723002 0.250000
Si Si3 0.592595 0.637851 0.000000
Si Si4 0.310393 0.000000 0.750000
Si Si5 0.845963 0.989172 0.000000
Si Si6 0.582622 0.335752 0.655359
Si Si7 0.361937 0.883699 0.157254
Si Si8 0.399243 0.555442 0.155376
O O1 0.258985 0.646981 0.500000
O O2 0.204218 0.517889 0.500000
O O3 0.077738 0.606822 0.576468
O O4 0.908325 0.767708 0.299668
O O5 0.917872 0.680339 0.195500
O O6 0.543604 0.675500 0.928852
O O7 0.563090 0.556071 0.000000
O O8 0.395253 0.950168 0.797517
O O9 0.227278 0.953444 0.698844
O O10 0.864783 0.943563 0.929573
O O11 0.711055 0.377866 0.655477
O O12 0.463530 0.377092 0.684320
O O13 0.500000 0.500000 0.173445
#
# Coordination Sequence:
#
# PCOD8292831 Si02
#       8
#     8   8   8   8   8  16  16  16
#     4   8  16  39  63  90 117 160 195 252 316 373
#     4  12  28  41  55  80 126 174 216 244 304 386
#     4   8  15  31  55  84 117 157 189 246 309 367
#     4  12  21  33  62  92 124 145 200 261 322 372
#     4  10  16  31  57  99 135 153 188 255 329 385
#     4  11  21  36  58  89 125 159 203 255 314 383
#     4  11  23  42  64  87 120 162 204 263 317 369
#     4  12  18  29  58  98 125 155 188 255 326 369
#
# _framework density 22.024331
#
# number of rings (size 3 to 8) (size 9 to 14) (size 15 to 20)
#    0.545    0.727    5.455    2.727    0.000    1.091 
#    0.000    0.000    0.000    7.636    0.000    0.000 
#    0.000    0.000    0.000    0.000    0.000    0.000 
#
# Total GULP energy -545212.259995 kJ/mol
# GULP energy per Si atom -12391.187727 kJ/mol
# Density = 2.197420 g / cm^3
# Si number density = 22.024331 Si / 1000 Ang^3
#
#
#
# Elastic Constant Matrix: (Units=GPa)
#
#
# Indices 1 2 3 4 5 6 
#
# 1 12.8277 13.2286 16.3988 0.0000 0.0000 0.0000
# 2 13.2286 100.6357 71.1563 0.0000 0.0000 0.0000
# 3 16.3988 71.1563 178.3759 0.0000 0.0000 0.0000
# 4 0.0000 0.0000 0.0000 37.9822 0.0000 0.0000
# 5 0.0000 0.0000 0.0000 0.0000 19.6828 0.0000
# 6 0.0000 0.0000 0.0000 0.0000 0.0000 27.5118
#
#
#
# Elastic Compliance Matrix: (Units=1/GPa)
#
#
# Indices 1 2 3 4 5 6 
#
# 1 0.093447 -0.008649 -0.005141 0.000000 0.000000 0.000000
# 2 -0.008649 0.014641 -0.005045 0.000000 0.000000 0.000000
# 3 -0.005141 -0.005045 0.008091 0.000000 0.000000 0.000000
# 4 0.000000 0.000000 0.000000 0.026328 0.000000 0.000000
# 5 0.000000 0.000000 0.000000 0.000000 0.050806 0.000000
# 6 0.000000 0.000000 0.000000 0.000000 0.000000 0.036348
#
#
# Mechanical properties :
#
#
# Convention : Reuss Voigt Hill
#
# Bulk Modulus (GPa) = 12.73723 54.82295 33.78009
# Shear Modulus (GPa) = 17.03565 29.77240 23.40403
#
# Velocity S-wave (km/s) = 2.78419 3.68067 3.26336
# Velocity P-wave (km/s) = 4.01640 6.55813 5.43785
#
# Compressibility (1/GPa) = 0.07850999
#
# Stress axis : x y z
#
# Youngs Moduli (GPa) = 10.70120 68.30060 123.58734
#
# Poissons Ratio (x) = 0.59071 0.63535
# Poissons Ratio (y) = 0.09255 0.62355
# Poissons Ratio (z) = 0.05501 0.34461
#
# Static dielectric constant tensor:
#      x y z
#    x 3.464580 0.000000 0.000000 
#    y 0.000000 3.593310 0.000000 
#    z 0.000000 0.000000 4.452800 
# 
# 
# High freq. dielectric constant tensor:
#      x y z
#    x 1.820470 0.000000 0.000000 
#    y 0.000000 1.825310 0.000000 
#    z 0.000000 0.000000 1.904570 
# 
# From -- ./inp_files/36940.got.cif
#   From: 2010.03.12/outbox.cif.g09.slc.cpg/sg72_19_cif.got.tgz:36940.got - 2010.04.16 14:54:00.
