data_PCOD8292794
_publ_section_title
;
Structure prediction by ZEFSAII (Michael W. Deem and Ramdas Pophale) SiO2 
 PCOD8292794
Probable space group: I M M M
;
_chemical_formula_sum "Si O2"
_cell_formula_units_Z 48
_cell_length_a 12.000000
_cell_length_b 30.000000
_cell_length_c 15.000000
_cell_angle_alpha 90.000000
_cell_angle_beta 90.000000
_cell_angle_gamma 90.000000
_cell_volume 5400.000000
_symmetry_space_group_name_H-M "I M M M"
_symmetry_group_IT_number 71
_symmetry_cell_setting 'orthorhombic'
loop_
_space_group_symop_operation_xyz
x,y,z
-x,-y,z
x,-y,-z
-x,y,-z
-x,-y,-z
x,y,-z
-x,y,z
x,-y,z
1/2+x,1/2+y,1/2+z
1/2-x,1/2-y,1/2+z
1/2+x,1/2-y,1/2-z
1/2-x,1/2+y,1/2-z
1/2-x,1/2-y,1/2-z
1/2+x,1/2+y,1/2-z
1/2-x,1/2+y,1/2+z
1/2+x,1/2-y,1/2+z
loop_
_atom_site_type_symbol
_atom_site_label
_atom_site_fract_x
_atom_site_fract_y
_atom_site_fract_z
Si Si1 0.783461 0.285133 0.605637
Si Si2 0.130103 0.620487 0.396687
Si Si3 0.869342 0.552245 0.758921
Si Si4 0.752778 0.883718 0.393815
Si Si5 0.000000 0.138380 0.604876
Si Si6 0.000000 0.762784 0.606994
Si Si7 0.626125 0.207334 0.394219
O O1 0.786517 0.283025 0.500000
O O2 0.789968 0.337668 0.633228
O O3 0.892605 0.261980 0.645871
O O4 0.679440 0.254658 0.640189
O O5 0.154143 0.607290 0.500000
O O6 0.158562 0.578174 0.333736
O O7 0.000000 0.634500 0.386775
O O8 0.833102 0.500000 0.750437
O O9 0.805794 0.575854 0.841057
O O10 0.000000 0.555349 0.779726
O O11 0.736426 0.891222 0.500000
O O12 0.884487 0.885888 0.366963
O O13 0.698887 0.835947 0.364512
O O14 0.000000 0.187564 0.646731
O O15 0.000000 0.143898 0.500000
O O16 0.000000 0.762690 0.500000
O O17 0.623674 0.208259 0.500000
O O18 0.500000 0.203344 0.356210
#
# Coordination Sequence:
#
# PCOD8292794 Si02
#       7
#    16  16  16  16   8   8  16
#     4   9  14  23  44  73 103 133 168 205 244 293
#     4   9  17  31  54  80 103 131 169 214 261 304
#     4  10  22  38  54  75 103 133 168 214 266 315
#     4  10  19  33  54  78 105 138 174 210 250 299
#     4   9  16  28  51  80 104 133 174 213 248 290
#     4   9  12  20  42  73 101 130 165 203 245 289
#     4   9  16  25  42  71 108 146 173 196 237 296
#
# _framework density 8.8888890000000007
#
# number of rings (size 3 to 8) (size 9 to 14) (size 15 to 20)
#    0.000    2.667    2.500    0.500    0.000    1.667 
#    0.000    3.750    1.833    1.500    0.000    0.000 
#    0.000    1.333    0.000    0.000    0.000    0.000 
#
# Total GULP energy -594725.829381 kJ/mol
# GULP energy per Si atom -12390.121445 kJ/mol
# Density = 0.886866 g / cm^3
# Si number density = 8.888889 Si / 1000 Ang^3
#
#
#
# Elastic Constant Matrix: (Units=GPa)
#
#
# Indices 1 2 3 4 5 6 
#
# 1 120.7278 60.2252 28.0822 0.0000 -0.0001 0.0000
# 2 60.2252 164.4912 47.2046 -0.0005 0.0001 0.0000
# 3 28.0822 47.2046 56.6464 -0.0047 0.0012 0.0002
# 4 0.0000 -0.0005 -0.0047 27.5650 0.0006 0.0001
# 5 -0.0001 0.0001 0.0012 0.0006 17.0111 -0.0001
# 6 0.0000 0.0000 0.0002 0.0001 -0.0001 31.3390
#
#
#
# Elastic Compliance Matrix: (Units=1/GPa)
#
#
# Indices 1 2 3 4 5 6 
#
# 1 0.010420 -0.003066 -0.002611 0.000000 0.000000 0.000000
# 2 -0.003066 0.008892 -0.005890 -0.000001 0.000000 0.000000
# 3 -0.002611 -0.005890 0.023856 0.000004 -0.000002 0.000000
# 4 0.000000 -0.000001 0.000004 0.036278 -0.000001 0.000000
# 5 0.000000 0.000000 -0.000002 -0.000001 0.058785 0.000000
# 6 0.000000 0.000000 0.000000 0.000000 0.000000 0.031909
#
#
# Mechanical properties :
#
#
# Convention : Reuss Voigt Hill
#
# Bulk Modulus (GPa) = 49.91387 68.09883 59.00635
# Shear Modulus (GPa) = 25.00606 28.93992 26.97299
#
# Velocity S-wave (km/s) = 3.75452 4.03906 3.89939
# Velocity P-wave (km/s) = 6.85075 7.75505 7.31688
#
# Compressibility (1/GPa) = 0.02003451
#
# Stress axis : x y z
#
# Youngs Moduli (GPa) = 95.97162 112.45882 41.91810
#
# Poissons Ratio (x) = 0.34477 0.10944
# Poissons Ratio (y) = 0.29423 0.24690
# Poissons Ratio (z) = 0.25056 0.66240
#
# Static dielectric constant tensor:
#      x y z
#    x 3.586110 0.000000 0.000000 
#    y 0.000000 3.471570 0.000000 
#    z 0.000000 0.000000 3.082400 
# 
# 
# High freq. dielectric constant tensor:
#      x y z
#    x 1.684570 0.000000 0.000000 
#    y 0.000000 1.687450 0.000000 
#    z 0.000000 0.000000 1.672150 
# 
# From -- ./inp_files/33203.got.cif
#   From: 2010.06.25/outbox.ucp.g09.slc.cvg/sg71_17_cif.got.tgz:33203.got - 2010.06.28 16:23:14.
