data_PCOD8292169
_publ_section_title
;
Structure prediction by ZEFSAII (Michael W. Deem and Ramdas Pophale) SiO2 
 PCOD8292169
Probable space group: I M M M
;
_chemical_formula_sum "Si O2"
_cell_formula_units_Z 104
_cell_length_a 19.324570
_cell_length_b 27.583371
_cell_length_c 9.356417
_cell_angle_alpha 90.000000
_cell_angle_beta 90.000000
_cell_angle_gamma 90.000000
_cell_volume 4987.314425
_symmetry_space_group_name_H-M "I M M M"
_symmetry_group_IT_number 71
_symmetry_cell_setting 'orthorhombic'
loop_
_space_group_symop_operation_xyz
x,y,z
-x,-y,z
x,-y,-z
-x,y,-z
-x,-y,-z
x,y,-z
-x,y,z
x,-y,z
1/2+x,1/2+y,1/2+z
1/2-x,1/2-y,1/2+z
1/2+x,1/2-y,1/2-z
1/2-x,1/2+y,1/2-z
1/2-x,1/2-y,1/2-z
1/2+x,1/2+y,1/2-z
1/2-x,1/2+y,1/2+z
1/2+x,1/2-y,1/2+z
loop_
_atom_site_type_symbol
_atom_site_label
_atom_site_fract_x
_atom_site_fract_y
_atom_site_fract_z
Si Si1 0.883618 0.904585 0.159530
Si Si2 0.077520 0.351525 0.665764
Si Si3 0.679205 0.234731 0.830500
Si Si4 0.500000 0.445314 0.847144
Si Si5 0.889391 0.445505 0.836437
Si Si6 0.772769 0.054911 0.339117
Si Si7 0.078651 0.794481 0.841982
O O1 0.931898 0.936811 0.256637
O O2 0.807311 0.907453 0.228675
O O3 0.914300 0.851561 0.157075
O O4 0.880491 0.925933 0.000000
O O5 0.089438 0.361858 0.500000
O O6 0.140507 0.315711 0.717607
O O7 0.076546 0.403307 0.743867
O O8 0.000000 0.328699 0.691030
O O9 0.750000 0.250000 0.750000
O O10 0.624779 0.275561 0.787282
O O11 0.693112 0.235203 0.000000
O O12 0.500000 0.500000 0.891228
O O13 0.500000 0.416145 0.000000
O O14 0.911497 0.500000 0.785346
O O15 0.808143 0.439505 0.821243
O O16 0.912825 0.438565 0.000000
O O17 0.795434 0.068345 0.500000
O O18 0.795581 0.000000 0.303375
O O19 0.000000 0.779947 0.810647
O O20 0.101017 0.774575 0.000000
#
# Coordination Sequence:
#
# PCOD8292169 Si02
#       7
#    16  16  16   8  16  16  16
#     4  11  22  36  55  82 115 153 200 253 310 367
#     4  10  23  43  65  92 129 168 207 256 313 375
#     4  11  25  44  67  96 127 162 208 259 313 375
#     4  11  23  37  53  77 113 157 207 257 306 367
#     4   9  20  39  63  93 128 164 206 254 304 366
#     4   9  19  36  55  79 115 156 200 252 306 362
#     4  10  22  42  63  87 123 161 201 254 312 370
#
# _framework density 20.852905
#
# number of rings (size 3 to 8) (size 9 to 14) (size 15 to 20)
#    0.000    1.923    0.769    3.000    2.154    7.692 
#    0.000    3.077    0.000    0.000    0.000    0.000 
#    0.000    0.000    0.000    0.000    0.000    0.000 
#
# Total GULP energy -644357.671141 kJ/mol
# GULP energy per Si atom -12391.493676 kJ/mol
# Density = 2.080544 g / cm^3
# Si number density = 20.852905 Si / 1000 Ang^3
#
#
#
# Elastic Constant Matrix: (Units=GPa)
#
#
# Indices 1 2 3 4 5 6 
#
# 1 106.0229 45.7110 54.0129 0.0000 0.0000 0.0000
# 2 45.7110 81.3245 44.6682 0.0000 0.0000 0.0000
# 3 54.0129 44.6682 111.8276 0.0000 0.0000 0.0000
# 4 0.0000 0.0000 0.0000 34.1264 0.0000 0.0000
# 5 0.0000 0.0000 0.0000 0.0000 31.8355 0.0000
# 6 0.0000 0.0000 0.0000 0.0000 0.0000 29.8715
#
#
#
# Elastic Compliance Matrix: (Units=1/GPa)
#
#
# Indices 1 2 3 4 5 6 
#
# 1 0.014133 -0.005373 -0.004680 0.000000 0.000000 0.000000
# 2 -0.005373 0.017795 -0.004513 0.000000 0.000000 0.000000
# 3 -0.004680 -0.004513 0.013005 0.000000 0.000000 0.000000
# 4 0.000000 0.000000 0.000000 0.029303 0.000000 0.000000
# 5 0.000000 0.000000 0.000000 0.000000 0.031412 0.000000
# 6 0.000000 0.000000 0.000000 0.000000 0.000000 0.033477
#
#
# Mechanical properties :
#
#
# Convention : Reuss Voigt Hill
#
# Bulk Modulus (GPa) = 63.28529 65.32879 64.30704
# Shear Modulus (GPa) = 28.81454 29.48553 29.15004
#
# Velocity S-wave (km/s) = 3.72129 3.76437 3.74289
# Velocity P-wave (km/s) = 6.99130 7.09157 7.04161
#
# Compressibility (1/GPa) = 0.01580146
#
# Stress axis : x y z
#
# Youngs Moduli (GPa) = 70.75792 56.19437 76.89177
#
# Poissons Ratio (x) = 0.30195 0.35984
# Poissons Ratio (y) = 0.38020 0.34700
# Poissons Ratio (z) = 0.33113 0.25360
#
# Static dielectric constant tensor:
#      x y z
#    x 3.964510 0.000000 0.000000 
#    y 0.000000 3.737690 0.000000 
#    z 0.000000 0.000000 3.921580 
# 
# 
# High freq. dielectric constant tensor:
#      x y z
#    x 1.828390 0.000000 0.000000 
#    y 0.000000 1.805050 0.000000 
#    z 0.000000 0.000000 1.818250 
# 
# From -- ./inp_files/11077.got.cif
#   From: 2010.06.25/outbox.cif.g09.slc.cpg/sg71_6_cif.got.tgz:11077.got - 2010.06.28 04:59:45.
