data_PCOD8292708
_publ_section_title
;
Structure prediction by ZEFSAII (Michael W. Deem and Ramdas Pophale) SiO2 
 PCOD8292708
Probable space group: I M M M
;
_chemical_formula_sum "Si O2"
_cell_formula_units_Z 80
_cell_length_a 14.579111
_cell_length_b 23.664744
_cell_length_c 14.579130
_cell_angle_alpha 90.000000
_cell_angle_beta 90.000000
_cell_angle_gamma 90.000000
_cell_volume 5029.959194
_symmetry_space_group_name_H-M "I M M M"
_symmetry_group_IT_number 71
_symmetry_cell_setting 'orthorhombic'
loop_
_space_group_symop_operation_xyz
x,y,z
-x,-y,z
x,-y,-z
-x,y,-z
-x,-y,-z
x,y,-z
-x,y,z
x,-y,z
1/2+x,1/2+y,1/2+z
1/2-x,1/2-y,1/2+z
1/2+x,1/2-y,1/2-z
1/2-x,1/2+y,1/2-z
1/2-x,1/2-y,1/2-z
1/2+x,1/2+y,1/2-z
1/2-x,1/2+y,1/2+z
1/2+x,1/2-y,1/2+z
loop_
_atom_site_type_symbol
_atom_site_label
_atom_site_fract_x
_atom_site_fract_y
_atom_site_fract_z
Si Si1 0.603963 0.250001 0.396037
Si Si2 0.750295 0.653825 0.893276
Si Si3 0.893277 0.153823 0.249706
Si Si4 0.250693 0.066983 0.750690
Si Si5 0.898079 0.432964 0.601921
O O1 0.619159 0.271088 0.500000
O O2 0.500000 0.228914 0.380843
O O3 0.669345 0.197913 0.373473
O O4 0.626524 0.302090 0.330656
O O5 0.657016 0.675565 0.842984
O O6 0.780024 0.593677 0.847820
O O7 0.730415 0.644870 0.000000
O O8 0.847819 0.093675 0.219979
O O9 0.000000 0.144867 0.269587
O O10 0.324744 0.088734 0.824744
O O11 0.242977 0.000000 0.742971
O O12 0.871663 0.410884 0.500000
O O13 0.898138 0.500000 0.601862
O O14 0.000000 0.410883 0.628336
#
# Coordination Sequence:
#
# PCOD8292708 Si02
#       5
#    16  16  16  16  16
#     4   9  17  32  54  76  97 123 158 206 266 322
#     4   9  19  33  50  72  98 131 170 210 252 295
#     4   9  19  33  50  72  98 131 170 210 252 295
#     4   9  19  31  47  73 101 134 171 207 246 296
#     4   8  14  27  47  68  92 124 160 199 246 296
#
# _framework density 15.904700999999999
#
# number of rings (size 3 to 8) (size 9 to 14) (size 15 to 20)
#    1.200    2.000    0.000    1.200    0.000    2.800 
#    0.000    0.000    0.000    1.200    0.000   11.200 
#    0.000    0.000    0.000    0.000    0.000    0.000 
#
# Total GULP energy -495536.978474 kJ/mol
# GULP energy per Si atom -12388.424462 kJ/mol
# Density = 1.586850 g / cm^3
# Si number density = 15.904701 Si / 1000 Ang^3
#
#
#
# Elastic Constant Matrix: (Units=GPa)
#
#
# Indices 1 2 3 4 5 6 
#
# 1 121.8234 57.5724 78.5280 -0.0001 0.0000 0.0000
# 2 57.5724 89.5321 57.5720 -0.0002 -0.0001 -0.0001
# 3 78.5280 57.5720 121.8208 -0.0007 -0.0001 -0.0001
# 4 -0.0001 -0.0002 -0.0007 27.5873 -0.0001 -0.0001
# 5 0.0000 -0.0001 -0.0001 -0.0001 30.7854 0.0000
# 6 0.0000 -0.0001 -0.0001 -0.0001 0.0000 27.5878
#
#
#
# Elastic Compliance Matrix: (Units=1/GPa)
#
#
# Indices 1 2 3 4 5 6 
#
# 1 0.015507 -0.005091 -0.007590 0.000000 0.000000 0.000000
# 2 -0.005091 0.017717 -0.005091 0.000000 0.000000 0.000000
# 3 -0.007590 -0.005091 0.015508 0.000000 0.000000 0.000000
# 4 0.000000 0.000000 0.000000 0.036249 0.000000 0.000000
# 5 0.000000 0.000000 0.000000 0.000000 0.032483 0.000000
# 6 0.000000 0.000000 0.000000 0.000000 0.000000 0.036248
#
#
# Mechanical properties :
#
#
# Convention : Reuss Voigt Hill
#
# Bulk Modulus (GPa) = 75.83312 80.05790 77.94551
# Shear Modulus (GPa) = 25.81963 26.49237 26.15600
#
# Velocity S-wave (km/s) = 4.03351 4.08572 4.05970
# Velocity P-wave (km/s) = 8.33519 8.52659 8.43144
#
# Compressibility (1/GPa) = 0.01318685
#
# Stress axis : x y z
#
# Youngs Moduli (GPa) = 64.48588 56.44447 64.48422
#
# Poissons Ratio (x) = 0.28735 0.48946
# Poissons Ratio (y) = 0.32829 0.32829
# Poissons Ratio (z) = 0.48947 0.28736
#
# Static dielectric constant tensor:
#      x y z
#    x 3.082750 0.000000 0.000000 
#    y 0.000000 2.705340 0.000000 
#    z 0.000000 0.000000 3.082750 
# 
# 
# High freq. dielectric constant tensor:
#      x y z
#    x 1.613790 0.000000 0.000000 
#    y 0.000000 1.586480 0.000000 
#    z 0.000000 0.000000 1.613790 
# 
# From -- ./inp_files/44791.got.cif
#   From: 2010.06.25/outbox.cif.g09.slc.cpg/sg71_23_cif.got.tgz:44791.got - 2010.06.28 04:59:45.
