data_PCOD8292790
_publ_section_title
;
Structure prediction by ZEFSAII (Michael W. Deem and Ramdas Pophale) SiO2 
 PCOD8292790
Probable space group: I M M M
;
_chemical_formula_sum "Si O2"
_cell_formula_units_Z 48
_cell_length_a 24.000000
_cell_length_b 27.000000
_cell_length_c 9.000000
_cell_angle_alpha 90.000000
_cell_angle_beta 90.000000
_cell_angle_gamma 90.000000
_cell_volume 5832.000000
_symmetry_space_group_name_H-M "I M M M"
_symmetry_group_IT_number 71
_symmetry_cell_setting 'orthorhombic'
loop_
_space_group_symop_operation_xyz
x,y,z
-x,-y,z
x,-y,-z
-x,y,-z
-x,-y,-z
x,y,-z
-x,y,z
x,-y,z
1/2+x,1/2+y,1/2+z
1/2-x,1/2-y,1/2+z
1/2+x,1/2-y,1/2-z
1/2-x,1/2+y,1/2-z
1/2-x,1/2-y,1/2-z
1/2+x,1/2+y,1/2-z
1/2-x,1/2+y,1/2+z
1/2+x,1/2-y,1/2+z
loop_
_atom_site_type_symbol
_atom_site_label
_atom_site_fract_x
_atom_site_fract_y
_atom_site_fract_z
Si Si1 0.779015 0.145137 0.325154
Si Si2 0.811968 0.704158 0.667417
Si Si3 0.607821 0.111639 0.169239
Si Si4 0.500000 0.847429 0.678332
Si Si5 0.380624 0.296107 0.824439
Si Si6 0.703006 0.056367 0.325617
Si Si7 0.500000 0.261779 0.178073
O O1 0.773738 0.148469 0.500000
O O2 0.742464 0.190511 0.262104
O O3 0.844785 0.154118 0.279787
O O4 0.754112 0.092179 0.270339
O O5 0.792079 0.715295 0.500000
O O6 0.856241 0.660679 0.670308
O O7 0.844096 0.750723 0.739309
O O8 0.553094 0.121083 0.267335
O O9 0.645386 0.068171 0.241172
O O10 0.591433 0.097044 0.000000
O O11 0.500000 0.843236 0.500000
O O12 0.500000 0.792511 0.749135
O O13 0.444936 0.292867 0.766987
O O14 0.384155 0.290908 0.000000
O O15 0.692291 0.064147 0.500000
O O16 0.720746 0.000000 0.289646
O O17 0.500000 0.254486 0.000000
#
# Coordination Sequence:
#
# PCOD8292790 Si02
#       7
#    16  16  16   8  16  16   8
#     4   9  17  28  44  67  90 117 153 189 230 280
#     4   9  16  27  43  64  90 120 149 184 230 271
#     4  10  19  32  50  69  92 123 160 197 230 271
#     4  12  22  32  47  69  96 127 163 192 224 275
#     4   9  16  27  44  65  90 121 158 191 222 267
#     4   9  18  33  50  69  95 121 148 193 248 289
#     4  10  18  32  48  63  92 132 164 196 228 260
#
# _framework density 8.2304530000000007
#
# number of rings (size 3 to 8) (size 9 to 14) (size 15 to 20)
#    0.000    2.500    1.667    1.750    0.000    1.000 
#    0.000    1.250    0.000    2.500    0.000    0.583 
#    0.000    4.667    0.000    0.000    0.000   15.583 
#
# Total GULP energy -594727.375468 kJ/mol
# GULP energy per Si atom -12390.153656 kJ/mol
# Density = 0.821172 g / cm^3
# Si number density = 8.230453 Si / 1000 Ang^3
#
#
#
# Elastic Constant Matrix: (Units=GPa)
#
#
# Indices 1 2 3 4 5 6 
#
# 1 147.3043 62.2321 30.4282 0.0000 0.0000 0.0000
# 2 62.2321 77.4344 19.2941 0.0000 0.0000 0.0000
# 3 30.4282 19.2941 51.1956 0.0000 0.0000 0.0000
# 4 0.0000 0.0000 0.0000 16.3471 0.0000 0.0000
# 5 0.0000 0.0000 0.0000 0.0000 20.5452 0.0000
# 6 0.0000 0.0000 0.0000 0.0000 0.0000 16.7747
#
#
#
# Elastic Compliance Matrix: (Units=1/GPa)
#
#
# Indices 1 2 3 4 5 6 
#
# 1 0.010812 -0.007823 -0.003478 0.000000 0.000000 0.000000
# 2 -0.007823 0.019912 -0.002855 0.000000 0.000000 0.000000
# 3 -0.003478 -0.002855 0.022676 0.000000 0.000000 0.000000
# 4 0.000000 0.000000 0.000000 0.061173 0.000000 0.000000
# 5 0.000000 0.000000 0.000000 0.000000 0.048673 0.000000
# 6 0.000000 0.000000 0.000000 0.000000 0.000000 0.059613
#
#
# Mechanical properties :
#
#
# Convention : Reuss Voigt Hill
#
# Bulk Modulus (GPa) = 39.85787 55.53811 47.69799
# Shear Modulus (GPa) = 19.26527 21.66540 20.46534
#
# Velocity S-wave (km/s) = 3.42477 3.63185 3.52983
# Velocity P-wave (km/s) = 6.31704 7.16936 6.75665
#
# Compressibility (1/GPa) = 0.02508915
#
# Stress axis : x y z
#
# Youngs Moduli (GPa) = 92.48992 50.21984 44.09942
#
# Poissons Ratio (x) = 0.39286 0.15338
# Poissons Ratio (y) = 0.72352 0.12590
# Poissons Ratio (z) = 0.32168 0.14338
#
# Static dielectric constant tensor:
#      x y z
#    x 3.524440 0.000000 0.000000 
#    y 0.000000 3.103710 0.000000 
#    z 0.000000 0.000000 3.119860 
# 
# 
# High freq. dielectric constant tensor:
#      x y z
#    x 1.641810 0.000000 0.000000 
#    y 0.000000 1.609490 0.000000 
#    z 0.000000 0.000000 1.621790 
# 
# From -- ./inp_files/13175.got.cif
#   From: 2010.06.25/outbox.ucp.g09.slc.cvg/sg71_7_cif.got.tgz:13175.got - 2010.06.28 16:23:14.
