data_PCOD8292754
_publ_section_title
;
Structure prediction by ZEFSAII (Michael W. Deem and Ramdas Pophale) SiO2 
 PCOD8292754
Probable space group: I M M M
;
_chemical_formula_sum "Si O2"
_cell_formula_units_Z 56
_cell_length_a 13.570448
_cell_length_b 28.983762
_cell_length_c 9.455217
_cell_angle_alpha 90.000000
_cell_angle_beta 90.000000
_cell_angle_gamma 90.000000
_cell_volume 3718.950866
_symmetry_space_group_name_H-M "I M M M"
_symmetry_group_IT_number 71
_symmetry_cell_setting 'orthorhombic'
loop_
_space_group_symop_operation_xyz
x,y,z
-x,-y,z
x,-y,-z
-x,y,-z
-x,-y,-z
x,y,-z
-x,y,z
x,-y,z
1/2+x,1/2+y,1/2+z
1/2-x,1/2-y,1/2+z
1/2+x,1/2-y,1/2-z
1/2-x,1/2+y,1/2-z
1/2-x,1/2-y,1/2-z
1/2+x,1/2+y,1/2-z
1/2-x,1/2+y,1/2+z
1/2+x,1/2-y,1/2+z
loop_
_atom_site_type_symbol
_atom_site_label
_atom_site_fract_x
_atom_site_fract_y
_atom_site_fract_z
Si Si1 0.385049 0.412835 0.663518
Si Si2 0.301914 0.684196 0.335369
Si Si3 0.382849 0.500000 0.839927
Si Si4 0.890329 0.264142 0.662453
O O1 0.366434 0.425433 0.500000
O O2 0.500000 0.403071 0.690965
O O3 0.323581 0.368021 0.711273
O O4 0.344539 0.454727 0.758466
O O5 0.325489 0.690465 0.500000
O O6 0.188154 0.695984 0.298175
O O7 0.374164 0.718417 0.253557
O O8 0.500000 0.500000 0.837870
O O9 0.341942 0.500000 0.000000
O O10 0.877417 0.249441 0.500000
O O11 0.000000 0.283557 0.692199
#
# Coordination Sequence:
#
# PCOD8292754 Si02
#       4
#    16  16   8  16
#     4   9  16  26  40  57  78 104 132 161 193 232
#     4   9  17  28  42  60  81 108 140 167 195 236
#     4   9  17  27  39  57  80 103 126 156 197 241
#     4   9  17  28  41  59  84 110 135 167 203 234
#
# _framework density 15.058009999999999
#
# number of rings (size 3 to 8) (size 9 to 14) (size 15 to 20)
#    0.000    3.000    0.000    1.286    0.000    4.571 
#    0.000    2.857    0.000    0.000    0.000    1.000 
#    0.000    8.000    0.000    0.000    0.000    0.000 
#
# Total GULP energy -347155.855239 kJ/mol
# GULP energy per Si atom -12398.423401 kJ/mol
# Density = 1.502374 g / cm^3
# Si number density = 15.058010 Si / 1000 Ang^3
#
#
#
# Elastic Constant Matrix: (Units=GPa)
#
#
# Indices 1 2 3 4 5 6 
#
# 1 71.5583 49.3777 29.5305 0.0002 -0.0001 -0.0001
# 2 49.3777 140.4252 61.7809 0.0005 0.0001 0.0000
# 3 29.5305 61.7809 62.4772 -0.0009 0.0009 0.0001
# 4 0.0002 0.0005 -0.0009 26.7444 0.0002 0.0000
# 5 -0.0001 0.0001 0.0009 0.0002 15.0594 0.0000
# 6 -0.0001 0.0000 0.0001 0.0000 0.0000 19.9277
#
#
#
# Elastic Compliance Matrix: (Units=1/GPa)
#
#
# Indices 1 2 3 4 5 6 
#
# 1 0.019059 -0.004847 -0.004215 0.000000 0.000000 0.000000
# 2 -0.004847 0.013838 -0.011393 -0.000001 0.000001 0.000000
# 3 -0.004215 -0.011393 0.029264 0.000001 -0.000002 0.000000
# 4 0.000000 -0.000001 0.000001 0.037391 -0.000001 0.000000
# 5 0.000000 0.000001 -0.000002 -0.000001 0.066404 0.000000
# 6 0.000000 0.000000 0.000000 0.000000 0.000000 0.050181
#
#
# Mechanical properties :
#
#
# Convention : Reuss Voigt Hill
#
# Bulk Modulus (GPa) = 47.05747 61.75986 54.40866
# Shear Modulus (GPa) = 18.93006 21.26441 20.09724
#
# Velocity S-wave (km/s) = 3.54947 3.76196 3.65726
# Velocity P-wave (km/s) = 6.93664 7.74425 7.35154
#
# Compressibility (1/GPa) = 0.02125061
#
# Stress axis : x y z
#
# Youngs Moduli (GPa) = 52.46912 72.26544 34.17182
#
# Poissons Ratio (x) = 0.35028 0.14404
# Poissons Ratio (y) = 0.25432 0.38931
# Poissons Ratio (z) = 0.22117 0.82329
#
# Static dielectric constant tensor:
#      x y z
#    x 2.829180 0.000000 0.000000 
#    y 0.000000 2.906150 0.000000 
#    z 0.000000 0.000000 2.982640 
# 
# 
# High freq. dielectric constant tensor:
#      x y z
#    x 1.548020 0.000000 0.000000 
#    y 0.000000 1.568630 0.000000 
#    z 0.000000 0.000000 1.581160 
# 
# From -- ./inp_files/5322.got.cif
#   From: 2010.06.25/outbox.cif.g09.slc.cpg/sg71_3_cif.got.tgz:5322.got - 2010.06.28 04:59:45.
