data_PCOD8292836
_publ_section_title
;
Structure prediction by ZEFSAII (Michael W. Deem and Ramdas Pophale) SiO2 
 PCOD8292836
Probable space group: I B A M
;
_chemical_formula_sum "Si O2"
_cell_formula_units_Z 104
_cell_length_a 12.354282
_cell_length_b 25.050053
_cell_length_c 17.387476
_cell_angle_alpha 90.000000
_cell_angle_beta 90.000000
_cell_angle_gamma 90.000000
_cell_volume 5380.996418
_symmetry_space_group_name_H-M "I B A M"
_symmetry_group_IT_number 72
_symmetry_cell_setting 'orthorhombic'
loop_
_space_group_symop_operation_xyz
x,y,z
-x,-y,z
x,-y,1/2-z
-x,y,1/2-z
-x,-y,-z
x,y,-z
-x,y,1/2+z
x,-y,1/2+z
1/2+x,1/2+y,1/2+z
1/2-x,1/2-y,1/2+z
1/2+x,1/2-y,-z
1/2-x,1/2+y,-z
1/2-x,1/2-y,1/2-z
1/2+x,1/2+y,1/2-z
1/2-x,1/2+y,z
1/2+x,1/2-y,z
loop_
_atom_site_type_symbol
_atom_site_label
_atom_site_fract_x
_atom_site_fract_y
_atom_site_fract_z
Si Si1 0.377460 0.842780 0.735057
Si Si2 0.402722 0.617554 0.147190
Si Si3 0.000000 0.793658 0.250000
Si Si4 0.702764 0.713845 0.162257
Si Si5 0.633847 0.603056 0.910391
Si Si6 0.244042 0.059437 0.731860
Si Si7 0.720763 0.180430 0.584146
O O1 0.500000 0.826216 0.750000
O O2 0.291965 0.801571 0.773811
O O3 0.348967 0.902260 0.764321
O O4 0.366026 0.842780 0.643299
O O5 0.427782 0.669268 0.196822
O O6 0.506665 0.592875 0.105282
O O7 0.347822 0.575596 0.205861
O O8 0.322322 0.640019 0.082201
O O9 0.908650 0.761160 0.298691
O O10 0.667900 0.663142 0.111511
O O11 0.753529 0.758847 0.107410
O O12 0.697607 0.562074 0.855268
O O13 0.660232 0.591725 0.000000
O O14 0.283363 0.000000 0.750000
O O15 0.667891 0.181375 0.500000
#
# Coordination Sequence:
#
# PCOD8292836 Si02
#       7
#    16  16   8  16  16  16  16
#     4  10  22  39  59  79 110 153 193 231 274 336
#     4  10  18  35  53  79 114 149 180 221 281 344
#     4  10  16  34  57  78 106 146 187 226 272 326
#     4  10  20  35  56  82 111 153 192 224 270 335
#     4  10  19  34  55  84 115 141 179 234 289 332
#     4  10  20  38  59  79 105 143 189 233 282 345
#     4  11  22  35  53  85 118 151 190 233 277 323
#
# _framework density 19.327276000000001
#
# number of rings (size 3 to 8) (size 9 to 14) (size 15 to 20)
#    0.000    1.846    6.154    1.385    1.077    2.769 
#    0.000   11.538    0.000    0.000    0.000    8.615 
#    0.000    0.000    0.000    0.000    0.000    0.000 
#
# Total GULP energy -644493.509336 kJ/mol
# GULP energy per Si atom -12394.105949 kJ/mol
# Density = 1.928329 g / cm^3
# Si number density = 19.327276 Si / 1000 Ang^3
#
#
#
# Elastic Constant Matrix: (Units=GPa)
#
#
# Indices 1 2 3 4 5 6 
#
# 1 101.3235 28.2229 36.9647 0.0000 0.0000 0.0000
# 2 28.2229 59.2355 31.2976 0.0000 0.0000 0.0000
# 3 36.9647 31.2976 136.1894 0.0000 0.0000 0.0000
# 4 0.0000 0.0000 0.0000 15.5323 0.0000 0.0000
# 5 0.0000 0.0000 0.0000 0.0000 15.6740 0.0000
# 6 0.0000 0.0000 0.0000 0.0000 0.0000 23.9842
#
#
#
# Elastic Compliance Matrix: (Units=1/GPa)
#
#
# Indices 1 2 3 4 5 6 
#
# 1 0.011931 -0.004523 -0.002199 0.000000 0.000000 0.000000
# 2 -0.004523 0.020929 -0.003582 0.000000 0.000000 0.000000
# 3 -0.002199 -0.003582 0.008763 0.000000 0.000000 0.000000
# 4 0.000000 0.000000 0.000000 0.064382 0.000000 0.000000
# 5 0.000000 0.000000 0.000000 0.000000 0.063800 0.000000
# 6 0.000000 0.000000 0.000000 0.000000 0.000000 0.041694
#
#
# Mechanical properties :
#
#
# Convention : Reuss Voigt Hill
#
# Bulk Modulus (GPa) = 47.58406 54.41322 50.99864
# Shear Modulus (GPa) = 20.91062 24.38898 22.64980
#
# Velocity S-wave (km/s) = 3.29283 3.55617 3.42703
# Velocity P-wave (km/s) = 6.25544 6.71390 6.48872
#
# Compressibility (1/GPa) = 0.02101544
#
# Stress axis : x y z
#
# Youngs Moduli (GPa) = 83.81217 47.77971 114.11880
#
# Poissons Ratio (x) = 0.21610 0.25095
# Poissons Ratio (y) = 0.37907 0.40879
# Poissons Ratio (z) = 0.18431 0.17115
#
# Static dielectric constant tensor:
#      x y z
#    x 3.517540 0.000000 0.000000 
#    y 0.000000 3.411880 0.000000 
#    z 0.000000 0.000000 3.385380 
# 
# 
# High freq. dielectric constant tensor:
#      x y z
#    x 1.739420 0.000000 0.000000 
#    y 0.000000 1.738100 0.000000 
#    z 0.000000 0.000000 1.745490 
# 
# From -- ./inp_files/29665.got.cif
#   From: 2010.03.12/outbox.cif.g09.slc.cpg/sg72_15_cif.got.tgz:29665.got - 2010.04.16 14:54:00.
