data_PCOD8292787
_publ_section_title
;
Structure prediction by ZEFSAII (Michael W. Deem and Ramdas Pophale) SiO2 
 PCOD8292787
Probable space group: I M M M
;
_chemical_formula_sum "Si O2"
_cell_formula_units_Z 80
_cell_length_a 26.549131
_cell_length_b 12.891321
_cell_length_c 13.863772
_cell_angle_alpha 90.000000
_cell_angle_beta 90.000000
_cell_angle_gamma 90.000000
_cell_volume 4744.922688
_symmetry_space_group_name_H-M "I M M M"
_symmetry_group_IT_number 71
_symmetry_cell_setting 'orthorhombic'
loop_
_space_group_symop_operation_xyz
x,y,z
-x,-y,z
x,-y,-z
-x,y,-z
-x,-y,-z
x,y,-z
-x,y,z
x,-y,z
1/2+x,1/2+y,1/2+z
1/2-x,1/2-y,1/2+z
1/2+x,1/2-y,1/2-z
1/2-x,1/2+y,1/2-z
1/2-x,1/2-y,1/2-z
1/2+x,1/2+y,1/2-z
1/2-x,1/2+y,1/2+z
1/2+x,1/2-y,1/2+z
loop_
_atom_site_type_symbol
_atom_site_label
_atom_site_fract_x
_atom_site_fract_y
_atom_site_fract_z
Si Si1 0.557197 0.500000 0.885315
Si Si2 0.704897 0.883077 0.705359
Si Si3 0.892073 0.208961 0.389647
Si Si4 0.780081 0.264010 0.391585
Si Si5 0.000000 0.377453 0.893082
Si Si6 0.908832 0.619821 0.760636
O O1 0.500000 0.500000 0.847698
O O2 0.584881 0.396954 0.845761
O O3 0.559980 0.500000 0.000000
O O4 0.733560 0.811643 0.629128
O O5 0.720371 0.858366 0.815941
O O6 0.645463 0.866477 0.689485
O O7 0.720978 0.000000 0.683935
O O8 0.908962 0.224345 0.500000
O O9 0.831809 0.199837 0.380003
O O10 0.913524 0.308683 0.333637
O O11 0.774911 0.308872 0.500000
O O12 0.950146 0.341198 0.836868
O O13 0.000000 0.500000 0.902476
O O14 0.000000 0.327175 0.000000
O O15 0.917463 0.500000 0.729217
#
# Coordination Sequence:
#
# PCOD8292787 Si02
#       6
#     8  16  16  16   8  16
#     4   9  18  30  44  66  96 128 160 187 215 269
#     4   9  18  31  47  69  97 124 157 197 237 285
#     4   9  18  31  48  71  99 126 155 191 233 283
#     4   9  18  31  47  70  96 125 158 195 239 283
#     4   9  18  32  49  68  93 122 155 194 235 277
#     4   9  18  32  49  71  95 122 156 195 240 287
#
# _framework density 16.860126999999999
#
# number of rings (size 3 to 8) (size 9 to 14) (size 15 to 20)
#    0.000    3.000    0.000    0.000    2.800    2.000 
#    0.000    6.000    0.000    1.800    0.000    1.400 
#    0.000    0.000    0.000    0.000    0.000    0.000 
#
# Total GULP energy -495936.652587 kJ/mol
# GULP energy per Si atom -12398.416315 kJ/mol
# Density = 1.682175 g / cm^3
# Si number density = 16.860127 Si / 1000 Ang^3
#
#
#
# Elastic Constant Matrix: (Units=GPa)
#
#
# Indices 1 2 3 4 5 6 
#
# 1 91.8031 38.1295 39.5917 0.0000 0.0000 0.0000
# 2 38.1295 74.0970 23.5830 0.0000 0.0000 0.0000
# 3 39.5917 23.5830 78.2969 0.0000 0.0000 0.0000
# 4 0.0000 0.0000 0.0000 15.2513 0.0000 0.0000
# 5 0.0000 0.0000 0.0000 0.0000 22.2831 0.0000
# 6 0.0000 0.0000 0.0000 0.0000 0.0000 23.7959
#
#
#
# Elastic Compliance Matrix: (Units=1/GPa)
#
#
# Indices 1 2 3 4 5 6 
#
# 1 0.016251 -0.006357 -0.006303 0.000000 0.000000 0.000000
# 2 -0.006357 0.017413 -0.002031 0.000000 0.000000 0.000000
# 3 -0.006303 -0.002031 0.016571 0.000000 0.000000 0.000000
# 4 0.000000 0.000000 0.000000 0.065568 0.000000 0.000000
# 5 0.000000 0.000000 0.000000 0.000000 0.044877 0.000000
# 6 0.000000 0.000000 0.000000 0.000000 0.000000 0.042024
#
#
# Mechanical properties :
#
#
# Convention : Reuss Voigt Hill
#
# Bulk Modulus (GPa) = 47.95077 49.64505 48.79791
# Shear Modulus (GPa) = 20.91728 21.79223 21.35475
#
# Velocity S-wave (km/s) = 3.52609 3.59908 3.56277
# Velocity P-wave (km/s) = 6.71415 6.83961 6.77717
#
# Compressibility (1/GPa) = 0.02085472
#
# Stress axis : x y z
#
# Youngs Moduli (GPa) = 61.53324 57.42783 60.34750
#
# Poissons Ratio (x) = 0.36505 0.38037
# Poissons Ratio (y) = 0.39115 0.12254
# Poissons Ratio (z) = 0.38785 0.11661
#
# Static dielectric constant tensor:
#      x y z
#    x 3.274130 0.000000 0.000000 
#    y 0.000000 3.084510 0.000000 
#    z 0.000000 0.000000 3.068120 
# 
# 
# High freq. dielectric constant tensor:
#      x y z
#    x 1.658860 0.000000 0.000000 
#    y 0.000000 1.634050 0.000000 
#    z 0.000000 0.000000 1.630530 
# 
# From -- ./inp_files/22195.got.cif
#   From: 2010.06.25/outbox.cif.g09.slc.cpg/sg71_12_cif.got.tgz:22195.got - 2010.06.28 04:59:45.
