data_PCOD8292904
_publ_section_title
;
Structure prediction by ZEFSAII (Michael W. Deem and Ramdas Pophale) SiO2 
 PCOD8292904
Probable space group: I B A M
;
_chemical_formula_sum "Si O2"
_cell_formula_units_Z 88
_cell_length_a 16.929741
_cell_length_b 22.894507
_cell_length_c 14.423541
_cell_angle_alpha 90.000000
_cell_angle_beta 90.000000
_cell_angle_gamma 90.000000
_cell_volume 5590.536709
_symmetry_space_group_name_H-M "I B A M"
_symmetry_group_IT_number 72
_symmetry_cell_setting 'orthorhombic'
loop_
_space_group_symop_operation_xyz
x,y,z
-x,-y,z
x,-y,1/2-z
-x,y,1/2-z
-x,-y,-z
x,y,-z
-x,y,1/2+z
x,-y,1/2+z
1/2+x,1/2+y,1/2+z
1/2-x,1/2-y,1/2+z
1/2+x,1/2-y,-z
1/2-x,1/2+y,-z
1/2-x,1/2-y,1/2-z
1/2+x,1/2+y,1/2-z
1/2-x,1/2+y,z
1/2+x,1/2-y,z
loop_
_atom_site_type_symbol
_atom_site_label
_atom_site_fract_x
_atom_site_fract_y
_atom_site_fract_z
Si Si1 0.470973 0.241313 0.350214
Si Si2 0.638488 0.064921 0.000000
Si Si3 0.264723 0.340690 0.000000
Si Si4 0.786111 0.249463 0.352350
Si Si5 0.385936 0.067132 0.000000
Si Si6 0.421210 0.716201 0.500000
Si Si7 0.488511 0.106088 0.641011
Si Si8 0.703277 0.818507 0.000000
O O1 0.500000 0.255329 0.250000
O O2 0.379457 0.255786 0.353764
O O3 0.520759 0.285742 0.412635
O O4 0.489135 0.174916 0.379574
O O5 0.724876 0.095522 0.000000
O O6 0.591609 0.081505 0.094548
O O7 0.654046 0.996076 0.000000
O O8 0.237167 0.308081 0.906765
O O9 0.361091 0.339499 0.000000
O O10 0.750000 0.250000 0.250000
O O11 0.752825 0.193456 0.406728
O O12 0.438254 0.074988 0.908231
O O13 0.316032 0.113621 0.000000
O O14 0.372959 0.776834 0.500000
O O15 0.500000 0.092380 0.750000
#
# Coordination Sequence:
#
# PCOD8292904 Si02
#       8
#    16   8   8  16   8   8  16   8
#     4  11  18  29  50  74  96 128 160 195 247 298
#     4  11  21  36  47  67 102 138 174 209 242 283
#     4  10  20  32  47  70  97 130 165 202 250 293
#     4  10  20  32  50  71 100 128 158 202 254 305
#     4  11  22  33  49  69 100 136 177 208 234 289
#     4  10  17  31  49  67 100 124 163 202 245 294
#     4  10  20  32  49  71 100 135 175 202 234 290
#     4  10  20  32  46  72  97 128 162 201 248 290
#
# _framework density 15.740886
#
# number of rings (size 3 to 8) (size 9 to 14) (size 15 to 20)
#    0.000    1.818    3.636    4.909    2.545    1.455 
#    0.000    0.000    0.000    0.000    0.000    2.545 
#    0.000    1.455    0.000    0.000    0.000    0.000 
#
# Total GULP energy -545383.401660 kJ/mol
# GULP energy per Si atom -12395.077310 kJ/mol
# Density = 1.570506 g / cm^3
# Si number density = 15.740886 Si / 1000 Ang^3
#
#
#
# Elastic Constant Matrix: (Units=GPa)
#
#
# Indices 1 2 3 4 5 6 
#
# 1 125.8880 46.3140 54.4801 0.0000 0.0000 0.0000
# 2 46.3140 85.7352 42.8551 0.0000 0.0000 0.0000
# 3 54.4801 42.8551 122.0616 0.0000 0.0000 0.0000
# 4 0.0000 0.0000 0.0000 13.6883 0.0000 0.0000
# 5 0.0000 0.0000 0.0000 0.0000 30.3802 0.0000
# 6 0.0000 0.0000 0.0000 0.0000 0.0000 21.7929
#
#
#
# Elastic Compliance Matrix: (Units=1/GPa)
#
#
# Indices 1 2 3 4 5 6 
#
# 1 0.010975 -0.004221 -0.003417 0.000000 0.000000 0.000000
# 2 -0.004221 0.015770 -0.003653 0.000000 0.000000 0.000000
# 3 -0.003417 -0.003653 0.011000 0.000000 0.000000 0.000000
# 4 0.000000 0.000000 0.000000 0.073055 0.000000 0.000000
# 5 0.000000 0.000000 0.000000 0.000000 0.032916 0.000000
# 6 0.000000 0.000000 0.000000 0.000000 0.000000 0.045886
#
#
# Mechanical properties :
#
#
# Convention : Reuss Voigt Hill
#
# Bulk Modulus (GPa) = 65.94425 68.99812 67.47119
# Shear Modulus (GPa) = 23.01628 25.84134 24.42881
#
# Velocity S-wave (km/s) = 3.82802 4.05615 3.94373
# Velocity P-wave (km/s) = 7.84365 8.11574 7.98086
#
# Compressibility (1/GPa) = 0.01516432
#
# Stress axis : x y z
#
# Youngs Moduli (GPa) = 91.11611 63.41241 90.90923
#
# Poissons Ratio (x) = 0.26766 0.31060
# Poissons Ratio (y) = 0.38459 0.33207
# Poissons Ratio (z) = 0.31131 0.23163
#
# Static dielectric constant tensor:
#      x y z
#    x 3.027240 0.000000 0.000000 
#    y 0.000000 2.744190 0.000000 
#    z 0.000000 0.000000 3.144090 
# 
# 
# High freq. dielectric constant tensor:
#      x y z
#    x 1.602570 0.000000 0.000000 
#    y 0.000000 1.560230 0.000000 
#    z 0.000000 0.000000 1.623400 
# 
# From -- ./inp_files/22230.got.cif
#   From: 2010.03.12/outbox.cif.g09.slc.cpg/sg72_12_cif.got.tgz:22230.got - 2010.04.16 14:54:00.
