data_PCOD8292695
_publ_section_title
;
Structure prediction by ZEFSAII (Michael W. Deem and Ramdas Pophale) SiO2 
 PCOD8292695
Probable space group: I M M M
;
_chemical_formula_sum "Si O2"
_cell_formula_units_Z 96
_cell_length_a 25.154154
_cell_length_b 9.409986
_cell_length_c 25.217664
_cell_angle_alpha 90.000000
_cell_angle_beta 90.000000
_cell_angle_gamma 90.000000
_cell_volume 5969.027045
_symmetry_space_group_name_H-M "I M M M"
_symmetry_group_IT_number 71
_symmetry_cell_setting 'orthorhombic'
loop_
_space_group_symop_operation_xyz
x,y,z
-x,-y,z
x,-y,-z
-x,y,-z
-x,-y,-z
x,y,-z
-x,y,z
x,-y,z
1/2+x,1/2+y,1/2+z
1/2-x,1/2-y,1/2+z
1/2+x,1/2-y,1/2-z
1/2-x,1/2+y,1/2-z
1/2-x,1/2-y,1/2-z
1/2+x,1/2+y,1/2-z
1/2-x,1/2+y,1/2+z
1/2+x,1/2-y,1/2+z
loop_
_atom_site_type_symbol
_atom_site_label
_atom_site_fract_x
_atom_site_fract_y
_atom_site_fract_z
Si Si1 0.755301 0.657558 0.936998
Si Si2 0.354189 0.665272 0.439686
Si Si3 0.938229 0.834017 0.650671
Si Si4 0.138747 0.169035 0.441149
Si Si5 0.561218 0.335240 0.646895
Si Si6 0.436854 0.839266 0.747796
O O1 0.764005 0.500000 0.913171
O O2 0.802388 0.757246 0.915564
O O3 0.697185 0.718805 0.920694
O O4 0.756994 0.651163 0.000000
O O5 0.366219 0.713351 0.500000
O O6 0.341424 0.500000 0.436837
O O7 0.405596 0.705576 0.405241
O O8 0.906150 0.778128 0.599483
O O9 0.916601 0.745497 0.700716
O O10 0.000000 0.804317 0.639441
O O11 0.927959 0.000000 0.662042
O O12 0.126230 0.230967 0.500000
O O13 0.139220 0.000000 0.444548
O O14 0.500000 0.299925 0.634092
O O15 0.568170 0.500000 0.662448
O O16 0.583457 0.241556 0.695413
O O17 0.500000 0.838910 0.747753
O O18 0.414429 0.000000 0.748501
#
# Coordination Sequence:
#
# PCOD8292695 Si02
#       6
#    16  16  16  16  16  16
#     4   8  14  26  43  60  81 113 148 175 201 240
#     4   9  17  28  43  65  90 112 136 170 210 250
#     4   9  16  26  43  66  89 113 141 174 212 252
#     4   8  14  25  42  65  90 114 142 175 209 247
#     4   9  17  29  45  64  86 112 140 170 207 252
#     4   9  17  29  44  61  83 112 145 178 209 245
#
# _framework density 16.083023000000001
#
# number of rings (size 3 to 8) (size 9 to 14) (size 15 to 20)
#    0.000    3.333    0.000    1.500    0.000    3.333 
#    0.000    4.167    0.000    2.500    0.000    7.000 
#    0.000    0.000    0.000    0.000    0.000    0.000 
#
# Total GULP energy -594964.333181 kJ/mol
# GULP energy per Si atom -12395.090275 kJ/mol
# Density = 1.604642 g / cm^3
# Si number density = 16.083023 Si / 1000 Ang^3
#
#
#
# Elastic Constant Matrix: (Units=GPa)
#
#
# Indices 1 2 3 4 5 6 
#
# 1 90.5378 40.3044 62.3730 0.0000 0.0000 0.0000
# 2 40.3044 59.6729 48.5909 0.0000 0.0000 0.0000
# 3 62.3730 48.5909 107.9663 0.0000 0.0000 0.0000
# 4 0.0000 0.0000 0.0000 15.0294 0.0000 0.0000
# 5 0.0000 0.0000 0.0000 0.0000 5.5917 0.0000
# 6 0.0000 0.0000 0.0000 0.0000 0.0000 19.0090
#
#
#
# Elastic Compliance Matrix: (Units=1/GPa)
#
#
# Indices 1 2 3 4 5 6 
#
# 1 0.019784 -0.006402 -0.008548 0.000000 0.000000 0.000000
# 2 -0.006402 0.028524 -0.009139 0.000000 0.000000 0.000000
# 3 -0.008548 -0.009139 0.018313 0.000000 0.000000 0.000000
# 4 0.000000 0.000000 0.000000 0.066536 0.000000 0.000000
# 5 0.000000 0.000000 0.000000 0.000000 0.178838 0.000000
# 6 0.000000 0.000000 0.000000 0.000000 0.000000 0.052607
#
#
# Mechanical properties :
#
#
# Convention : Reuss Voigt Hill
#
# Bulk Modulus (GPa) = 54.22006 62.30151 58.26079
# Shear Modulus (GPa) = 11.93526 15.05328 13.49427
#
# Velocity S-wave (km/s) = 2.72711 3.06269 2.89976
# Velocity P-wave (km/s) = 6.61075 7.16438 6.89312
#
# Compressibility (1/GPa) = 0.01844336
#
# Stress axis : x y z
#
# Youngs Moduli (GPa) = 50.54592 35.05872 54.60468
#
# Poissons Ratio (x) = 0.22444 0.46677
# Poissons Ratio (y) = 0.32359 0.49902
# Poissons Ratio (z) = 0.43207 0.32039
#
# Static dielectric constant tensor:
#      x y z
#    x 3.089220 0.000000 0.000000 
#    y 0.000000 3.034490 0.000000 
#    z 0.000000 0.000000 3.074900 
# 
# 
# High freq. dielectric constant tensor:
#      x y z
#    x 1.602350 0.000000 0.000000 
#    y 0.000000 1.602010 0.000000 
#    z 0.000000 0.000000 1.603190 
# 
# From -- ./inp_files/13113.got.cif
#   From: 2010.06.25/outbox.cif.g09.slc.cpg/sg71_7_cif.got.tgz:13113.got - 2010.06.28 04:59:45.
