data_PCOD8292710
_publ_section_title
;
Structure prediction by ZEFSAII (Michael W. Deem and Ramdas Pophale) SiO2 
 PCOD8292710
Probable space group: I M M M
;
_chemical_formula_sum "Si O2"
_cell_formula_units_Z 88
_cell_length_a 27.706149
_cell_length_b 9.313525
_cell_length_c 25.451529
_cell_angle_alpha 90.000000
_cell_angle_beta 90.000000
_cell_angle_gamma 90.000000
_cell_volume 6567.561190
_symmetry_space_group_name_H-M "I M M M"
_symmetry_group_IT_number 71
_symmetry_cell_setting 'orthorhombic'
loop_
_space_group_symop_operation_xyz
x,y,z
-x,-y,z
x,-y,-z
-x,y,-z
-x,-y,-z
x,y,-z
-x,y,z
x,-y,z
1/2+x,1/2+y,1/2+z
1/2-x,1/2-y,1/2+z
1/2+x,1/2-y,1/2-z
1/2-x,1/2+y,1/2-z
1/2-x,1/2-y,1/2-z
1/2+x,1/2+y,1/2-z
1/2-x,1/2+y,1/2+z
1/2+x,1/2-y,1/2+z
loop_
_atom_site_type_symbol
_atom_site_label
_atom_site_fract_x
_atom_site_fract_y
_atom_site_fract_z
Si Si1 0.445138 0.165761 0.249392
Si Si2 0.730843 0.169449 0.199215
Si Si3 0.641952 0.336299 0.781795
Si Si4 0.170402 0.158997 0.839605
Si Si5 0.916072 0.667149 0.866891
Si Si6 0.500000 0.828577 0.440730
O O1 0.500000 0.197455 0.232659
O O2 0.410748 0.263726 0.213091
O O3 0.439015 0.204836 0.310623
O O4 0.431445 0.000000 0.240153
O O5 0.750000 0.250000 0.250000
O O6 0.680276 0.244934 0.183011
O O7 0.772060 0.191000 0.154151
O O8 0.723124 0.000000 0.210987
O O9 0.639878 0.500000 0.802202
O O10 0.657992 0.327422 0.721661
O O11 0.137107 0.264562 0.873643
O O12 0.158714 0.000000 0.859924
O O13 0.908645 0.500000 0.874474
O O14 0.952186 0.728885 0.911157
O O15 0.500000 0.769270 0.500000
O O16 0.500000 0.000000 0.438939
#
# Coordination Sequence:
#
# PCOD8292710 Si02
#       6
#    16  16  16  16  16   8
#     4   9  15  23  34  46  61  81 107 135 161 190
#     4   9  15  23  33  45  62  80  98 119 148 185
#     4   9  16  23  31  45  63  81 102 124 152 186
#     4   8  15  24  33  46  62  78  95 119 152 187
#     4   9  15  24  37  50  61  76 101 128 157 196
#     4   9  16  26  39  53  67  81 101 133 169 203
#
# _framework density 13.399190000000001
#
# number of rings (size 3 to 8) (size 9 to 14) (size 15 to 20)
#    0.000    3.182    0.909    2.182    0.000    5.455 
#    0.000    0.455    0.000    1.091    0.000    0.000 
#    0.000    0.000    0.000    0.000    0.000    0.000 
#
# Total GULP energy -545173.767789 kJ/mol
# GULP energy per Si atom -12390.312904 kJ/mol
# Density = 1.336869 g / cm^3
# Si number density = 13.399190 Si / 1000 Ang^3
#
#
#
# Elastic Constant Matrix: (Units=GPa)
#
#
# Indices 1 2 3 4 5 6 
#
# 1 124.4308 59.0272 27.8856 0.0000 0.0000 0.0000
# 2 59.0272 72.7549 15.7289 0.0000 0.0000 0.0000
# 3 27.8856 15.7289 18.0808 0.0000 0.0000 0.0000
# 4 0.0000 0.0000 0.0000 5.5440 0.0000 0.0000
# 5 0.0000 0.0000 0.0000 0.0000 9.4506 0.0000
# 6 0.0000 0.0000 0.0000 0.0000 0.0000 27.1093
#
#
#
# Elastic Compliance Matrix: (Units=1/GPa)
#
#
# Indices 1 2 3 4 5 6 
#
# 1 0.016404 -0.009655 -0.016901 0.000000 0.000000 0.000000
# 2 -0.009655 0.022612 -0.004779 0.000000 0.000000 0.000000
# 3 -0.016901 -0.004779 0.085530 0.000000 0.000000 0.000000
# 4 0.000000 0.000000 0.000000 0.180376 0.000000 0.000000
# 5 0.000000 0.000000 0.000000 0.000000 0.105813 0.000000
# 6 0.000000 0.000000 0.000000 0.000000 0.000000 0.036888
#
#
# Mechanical properties :
#
#
# Convention : Reuss Voigt Hill
#
# Bulk Modulus (GPa) = 16.16133 46.72777 31.44455
# Shear Modulus (GPa) = 9.41763 15.92909 12.67336
#
# Velocity S-wave (km/s) = 2.65401 3.45165 3.07877
# Velocity P-wave (km/s) = 4.63458 7.12983 6.01306
#
# Compressibility (1/GPa) = 0.06187609
#
# Stress axis : x y z
#
# Youngs Moduli (GPa) = 60.95905 44.22517 11.69174
#
# Poissons Ratio (x) = 0.42701 0.19760
# Poissons Ratio (y) = 0.58858 0.05588
# Poissons Ratio (z) = 1.03025 0.21135
#
# Static dielectric constant tensor:
#      x y z
#    x 3.184920 0.000000 0.000000 
#    y 0.000000 2.729060 0.000000 
#    z 0.000000 0.000000 2.123200 
# 
# 
# High freq. dielectric constant tensor:
#      x y z
#    x 1.526670 0.000000 0.000000 
#    y 0.000000 1.514330 0.000000 
#    z 0.000000 0.000000 1.415680 
# 
# From -- ./inp_files/11366.got.cif
#   From: 2010.06.25/outbox.cif.g09.slc.cpg/sg71_6_cif.got.tgz:11366.got - 2010.06.28 04:59:45.
