data_PCOD8292402
_publ_section_title
;
Structure prediction by ZEFSAII (Michael W. Deem and Ramdas Pophale) SiO2 
 PCOD8292402
Probable space group: I M M M
;
_chemical_formula_sum "Si O2"
_cell_formula_units_Z 72
_cell_length_a 8.641109
_cell_length_b 23.782042
_cell_length_c 17.852753
_cell_angle_alpha 90.000000
_cell_angle_beta 90.000000
_cell_angle_gamma 90.000000
_cell_volume 3668.798177
_symmetry_space_group_name_H-M "I M M M"
_symmetry_group_IT_number 71
_symmetry_cell_setting 'orthorhombic'
loop_
_space_group_symop_operation_xyz
x,y,z
-x,-y,z
x,-y,-z
-x,y,-z
-x,-y,-z
x,y,-z
-x,y,z
x,-y,z
1/2+x,1/2+y,1/2+z
1/2-x,1/2-y,1/2+z
1/2+x,1/2-y,1/2-z
1/2-x,1/2+y,1/2-z
1/2-x,1/2-y,1/2-z
1/2+x,1/2+y,1/2-z
1/2-x,1/2+y,1/2+z
1/2+x,1/2-y,1/2+z
loop_
_atom_site_type_symbol
_atom_site_label
_atom_site_fract_x
_atom_site_fract_y
_atom_site_fract_z
Si Si1 0.815850 0.352489 0.416309
Si Si2 0.316959 0.875918 0.358829
Si Si3 0.325007 0.566364 0.000000
Si Si4 0.182996 0.757891 0.331840
Si Si5 0.184271 0.436766 0.291286
O O1 0.748755 0.360745 0.500000
O O2 0.757743 0.293015 0.383898
O O3 0.754070 0.403012 0.363806
O O4 0.000000 0.353411 0.417774
O O5 0.500000 0.868923 0.357070
O O6 0.267016 0.914131 0.427418
O O7 0.241065 0.815126 0.368946
O O8 0.255670 0.905189 0.282930
O O9 0.327237 0.500000 0.000000
O O10 0.500000 0.590479 0.000000
O O11 0.250000 0.750000 0.250000
O O12 0.000000 0.757870 0.326021
O O13 0.251938 0.500000 0.293700
O O14 0.000000 0.438474 0.290472
#
# Coordination Sequence:
#
# PCOD8292402 Si02
#       5
#    16  16   8  16  16
#     4   9  18  32  51  80 116 149 185 236 294 347
#     4  11  22  38  59  87 119 155 199 246 300 357
#     4  11  25  43  61  87 123 161 202 247 300 363
#     4  11  21  36  58  84 116 154 198 246 300 358
#     4   9  17  31  53  81 112 147 189 235 287 351
#
# _framework density 19.624953999999999
#
# number of rings (size 3 to 8) (size 9 to 14) (size 15 to 20)
#    0.000    1.889    2.222    2.333    1.556    2.222 
#    0.000    2.222    0.000    0.000    0.000    0.000 
#    0.000    1.778    0.000    0.000    0.000    0.000 
#
# Total GULP energy -446464.659014 kJ/mol
# GULP energy per Si atom -12401.796084 kJ/mol
# Density = 1.958029 g / cm^3
# Si number density = 19.624954 Si / 1000 Ang^3
#
#
#
# Elastic Constant Matrix: (Units=GPa)
#
#
# Indices 1 2 3 4 5 6 
#
# 1 40.4746 20.3351 18.2224 0.0000 0.0000 0.0000
# 2 20.3351 159.5089 70.3626 0.0001 0.0000 0.0000
# 3 18.2224 70.3626 172.7707 0.0003 0.0000 0.0000
# 4 0.0000 0.0001 0.0003 10.6624 0.0000 0.0000
# 5 0.0000 0.0000 0.0000 0.0000 22.3118 0.0000
# 6 0.0000 0.0000 0.0000 0.0000 0.0000 26.0133
#
#
#
# Elastic Compliance Matrix: (Units=1/GPa)
#
#
# Indices 1 2 3 4 5 6 
#
# 1 0.026825 -0.002647 -0.001751 0.000000 0.000000 0.000000
# 2 -0.002647 0.007903 -0.002940 0.000000 0.000000 0.000000
# 3 -0.001751 -0.002940 0.007170 0.000000 0.000000 0.000000
# 4 0.000000 0.000000 0.000000 0.093787 0.000000 0.000000
# 5 0.000000 0.000000 0.000000 0.000000 0.044819 0.000000
# 6 0.000000 0.000000 0.000000 0.000000 0.000000 0.038442
#
#
# Mechanical properties :
#
#
# Convention : Reuss Voigt Hill
#
# Bulk Modulus (GPa) = 36.73425 65.62159 51.17792
# Shear Modulus (GPa) = 20.60179 29.38645 24.99412
#
# Velocity S-wave (km/s) = 3.24354 3.87383 3.57261
# Velocity P-wave (km/s) = 5.72592 7.31568 6.56907
#
# Compressibility (1/GPa) = 0.02722255
#
# Stress axis : x y z
#
# Youngs Moduli (GPa) = 37.27814 126.52728 139.47263
#
# Poissons Ratio (x) = 0.33497 0.24424
# Poissons Ratio (y) = 0.09869 0.40998
# Poissons Ratio (z) = 0.06528 0.37193
#
# Static dielectric constant tensor:
#      x y z
#    x 3.266390 0.000000 0.000000 
#    y 0.000000 3.925900 0.000000 
#    z 0.000000 0.000000 3.592900 
# 
# 
# High freq. dielectric constant tensor:
#      x y z
#    x 1.726720 0.000000 0.000000 
#    y 0.000000 1.780680 0.000000 
#    z 0.000000 0.000000 1.776040 
# 
# From -- ./inp_files/12172.got.cif
#   From: 2010.06.25/outbox.cif.g09.slc.cpg/sg71_7_cif.got.tgz:12172.got - 2010.06.28 04:59:45.
