data_PCOD8292228
_publ_section_title
;
Structure prediction by ZEFSAII (Michael W. Deem and Ramdas Pophale) SiO2 
 PCOD8292228
Probable space group: I M M M
;
_chemical_formula_sum "Si O2"
_cell_formula_units_Z 44
_cell_length_a 12.124065
_cell_length_b 7.395093
_cell_length_c 26.313074
_cell_angle_alpha 90.000000
_cell_angle_beta 90.000000
_cell_angle_gamma 90.000000
_cell_volume 2359.193066
_symmetry_space_group_name_H-M "I M M M"
_symmetry_group_IT_number 71
_symmetry_cell_setting 'orthorhombic'
loop_
_space_group_symop_operation_xyz
x,y,z
-x,-y,z
x,-y,-z
-x,y,-z
-x,-y,-z
x,y,-z
-x,y,z
x,-y,z
1/2+x,1/2+y,1/2+z
1/2-x,1/2-y,1/2+z
1/2+x,1/2-y,1/2-z
1/2-x,1/2+y,1/2-z
1/2-x,1/2-y,1/2-z
1/2+x,1/2+y,1/2-z
1/2-x,1/2+y,1/2+z
1/2+x,1/2-y,1/2+z
loop_
_atom_site_type_symbol
_atom_site_label
_atom_site_fract_x
_atom_site_fract_y
_atom_site_fract_z
Si Si1 0.500000 0.789544 0.172233
Si Si2 0.500000 0.500000 0.742462
Si Si3 0.213644 0.208712 0.393478
Si Si4 0.377978 0.500000 0.355065
Si Si5 0.876969 0.785644 0.500000
O O1 0.500000 0.681282 0.224636
O O2 0.393717 0.735322 0.140413
O O3 0.500000 0.000000 0.185828
O O4 0.391004 0.500000 0.706428
O O5 0.315044 0.319983 0.371461
O O6 0.187919 0.280766 0.450171
O O7 0.248878 0.000000 0.393729
O O8 0.500000 0.500000 0.380631
O O9 0.000000 0.701593 0.500000
O O10 0.886940 0.000000 0.500000
#
# Coordination Sequence:
#
# PCOD8292228 Si02
#       5
#     8   4  16   8   8
#     4  12  22  39  65  99 125 156 203 265 330 381
#     4  10  26  46  60  88 124 172 222 258 316 360
#     4  11  21  40  67  94 133 161 200 263 319 381
#     4  10  26  46  58  89 123 172 232 252 298 369
#     4   9  18  33  63 102 131 157 192 250 336 389
#
# _framework density 18.650445000000001
#
# number of rings (size 3 to 8) (size 9 to 14) (size 15 to 20)
#    0.545    0.909    5.455    0.000    0.000    4.364 
#    0.000    3.636    0.000    3.273    0.000    0.000 
#    0.000    0.000    0.000    0.000    0.000    0.000 
#
# Total GULP energy -272796.137787 kJ/mol
# GULP energy per Si atom -12399.824445 kJ/mol
# Density = 1.860800 g / cm^3
# Si number density = 18.650445 Si / 1000 Ang^3
#
#
#
# Elastic Constant Matrix: (Units=GPa)
#
#
# Indices 1 2 3 4 5 6 
#
# 1 143.9557 50.3173 70.8162 0.0000 0.0000 0.0000
# 2 50.3173 124.0731 61.1238 0.0000 0.0000 0.0000
# 3 70.8162 61.1238 170.4945 0.0000 0.0000 0.0000
# 4 0.0000 0.0000 0.0000 -13.5492 0.0000 0.0000
# 5 0.0000 0.0000 0.0000 0.0000 0.8795 0.0000
# 6 0.0000 0.0000 0.0000 0.0000 0.0000 6.8962
#
#
#
# Elastic Compliance Matrix: (Units=1/GPa)
#
#
# Indices 1 2 3 4 5 6 
#
# 1 0.009220 -0.002250 -0.003023 0.000000 0.000000 0.000000
# 2 -0.002250 0.010338 -0.002772 0.000000 0.000000 0.000000
# 3 -0.003023 -0.002772 0.008115 0.000000 0.000000 0.000000
# 4 0.000000 0.000000 0.000000 -0.073805 0.000000 0.000000
# 5 0.000000 0.000000 0.000000 0.000000 1.136983 0.000000
# 6 0.000000 0.000000 0.000000 0.000000 0.000000 0.145007
#
#
# Mechanical properties :
#
#
# Convention : Reuss Voigt Hill
#
# Bulk Modulus (GPa) = 86.33180 89.22644 87.77912
# Shear Modulus (GPa) = 3.98150 15.92971 9.95561
#
# Velocity S-wave (km/s) = 1.46268 2.92570 2.31292
# Velocity P-wave (km/s) = 7.01730 7.70443 7.36888
#
# Compressibility (1/GPa) = 0.01158322
#
# Stress axis : x y z
#
# Youngs Moduli (GPa) = 108.45849 96.73404 123.23492
#
# Poissons Ratio (x) = 0.21764 0.37254
# Poissons Ratio (y) = 0.24402 0.34156
# Poissons Ratio (z) = 0.32787 0.26811
#
# Static dielectric constant tensor:
#      x y z
#    x 3.198460 0.000000 0.000000 
#    y 0.000000 3.484090 0.000000 
#    z 0.000000 0.000000 3.604990 
# 
# 
# High freq. dielectric constant tensor:
#      x y z
#    x 1.709790 0.000000 0.000000 
#    y 0.000000 1.735210 0.000000 
#    z 0.000000 0.000000 1.730570 
# 
# From -- ./inp_files/13887.got.cif
#   From: 2010.06.25/outbox.cif.g09.slc.cpg/sg71_7_cif.got.tgz:13887.got - 2010.06.28 04:59:45.
