data_PCOD8292545
_publ_section_title
;
Structure prediction by ZEFSAII (Michael W. Deem and Ramdas Pophale) SiO2 
 PCOD8292545
Probable space group: I M M M
;
_chemical_formula_sum "Si O2"
_cell_formula_units_Z 64
_cell_length_a 29.143249
_cell_length_b 8.525979
_cell_length_c 13.119141
_cell_angle_alpha 90.000000
_cell_angle_beta 90.000000
_cell_angle_gamma 90.000000
_cell_volume 3259.775004
_symmetry_space_group_name_H-M "I M M M"
_symmetry_group_IT_number 71
_symmetry_cell_setting 'orthorhombic'
loop_
_space_group_symop_operation_xyz
x,y,z
-x,-y,z
x,-y,-z
-x,y,-z
-x,-y,-z
x,y,-z
-x,y,z
x,-y,z
1/2+x,1/2+y,1/2+z
1/2-x,1/2-y,1/2+z
1/2+x,1/2-y,1/2-z
1/2-x,1/2+y,1/2-z
1/2-x,1/2-y,1/2-z
1/2+x,1/2+y,1/2-z
1/2-x,1/2+y,1/2+z
1/2+x,1/2-y,1/2+z
loop_
_atom_site_type_symbol
_atom_site_label
_atom_site_fract_x
_atom_site_fract_y
_atom_site_fract_z
Si Si1 0.250060 0.312034 0.500000
Si Si2 0.616829 0.317730 0.213086
Si Si3 0.707194 0.815930 0.306390
Si Si4 0.446022 0.819249 0.614368
Si Si5 0.643094 0.184566 0.000000
O O1 0.252873 0.500000 0.500000
O O2 0.281796 0.229667 0.418906
O O3 0.196609 0.256062 0.500000
O O4 0.613179 0.500000 0.192046
O O5 0.663299 0.275619 0.268615
O O6 0.576330 0.270219 0.290432
O O7 0.615618 0.238556 0.100927
O O8 0.750000 0.750000 0.250000
O O9 0.700002 0.000000 0.287134
O O10 0.431151 0.758841 0.500000
O O11 0.500000 0.797269 0.626149
O O12 0.431548 0.000000 0.623286
O O13 0.644267 0.000000 0.000000
#
# Coordination Sequence:
#
# PCOD8292545 Si02
#       5
#     8  16  16  16   8
#     4  11  23  39  59  84 116 159 208 258 309 359
#     4  12  25  40  62  92 127 163 205 255 308 367
#     4  12  24  39  59  85 120 163 207 253 302 360
#     4   9  20  42  70  96 124 159 201 250 306 367
#     4  11  23  41  64  86 120 165 211 257 305 365
#
# _framework density 19.633258000000001
#
# number of rings (size 3 to 8) (size 9 to 14) (size 15 to 20)
#    0.000    1.000    2.500    6.000    1.750    2.000 
#    0.000    1.875    0.000    3.750    0.000    0.000 
#    0.000    0.000    0.000    0.000    0.000    0.000 
#
# Total GULP energy -396438.540791 kJ/mol
# GULP energy per Si atom -12388.704400 kJ/mol
# Density = 1.958857 g / cm^3
# Si number density = 19.633258 Si / 1000 Ang^3
#
#
#
# Elastic Constant Matrix: (Units=GPa)
#
#
# Indices 1 2 3 4 5 6 
#
# 1 62.9559 24.9866 45.3793 0.0000 0.0000 0.0000
# 2 24.9866 82.1713 38.2941 0.0000 0.0000 0.0000
# 3 45.3793 38.2941 173.7512 0.0000 0.0000 0.0000
# 4 0.0000 0.0000 0.0000 34.1372 0.0000 0.0000
# 5 0.0000 0.0000 0.0000 0.0000 36.5308 0.0000
# 6 0.0000 0.0000 0.0000 0.0000 0.0000 29.1610
#
#
#
# Elastic Compliance Matrix: (Units=1/GPa)
#
#
# Indices 1 2 3 4 5 6 
#
# 1 0.020808 -0.004229 -0.004502 0.000000 0.000000 0.000000
# 2 -0.004229 0.014422 -0.002074 0.000000 0.000000 0.000000
# 3 -0.004502 -0.002074 0.007388 0.000000 0.000000 0.000000
# 4 0.000000 0.000000 0.000000 0.029294 0.000000 0.000000
# 5 0.000000 0.000000 0.000000 0.000000 0.027374 0.000000
# 6 0.000000 0.000000 0.000000 0.000000 0.000000 0.034292
#
#
# Mechanical properties :
#
#
# Convention : Reuss Voigt Hill
#
# Bulk Modulus (GPa) = 47.60202 59.57760 53.58981
# Shear Modulus (GPa) = 30.82758 33.98036 32.40397
#
# Velocity S-wave (km/s) = 3.96684 4.16475 4.06700
# Velocity P-wave (km/s) = 6.72899 7.31696 7.02913
#
# Compressibility (1/GPa) = 0.02100751
#
# Stress axis : x y z
#
# Youngs Moduli (GPa) = 48.05842 69.33731 135.34730
#
# Poissons Ratio (x) = 0.29323 0.60939
# Poissons Ratio (y) = 0.20324 0.28072
# Poissons Ratio (z) = 0.21638 0.14381
#
# Static dielectric constant tensor:
#      x y z
#    x 3.502140 0.000000 0.000000 
#    y 0.000000 3.638200 0.000000 
#    z 0.000000 0.000000 4.191230 
# 
# 
# High freq. dielectric constant tensor:
#      x y z
#    x 1.753410 0.000000 0.000000 
#    y 0.000000 1.769460 0.000000 
#    z 0.000000 0.000000 1.793470 
# 
# From -- ./inp_files/3757.got.cif
#   From: 2010.06.25/outbox.cif.g09.slc.cpg/sg71_2_cif.got.tgz:3757.got - 2010.06.28 04:59:45.
