data_PCOD8292383
_publ_section_title
;
Structure prediction by ZEFSAII (Michael W. Deem and Ramdas Pophale) SiO2 
 PCOD8292383
Probable space group: I M M M
;
_chemical_formula_sum "Si O2"
_cell_formula_units_Z 104
_cell_length_a 8.868579
_cell_length_b 22.644635
_cell_length_c 27.956165
_cell_angle_alpha 90.000000
_cell_angle_beta 90.000000
_cell_angle_gamma 90.000000
_cell_volume 5614.317368
_symmetry_space_group_name_H-M "I M M M"
_symmetry_group_IT_number 71
_symmetry_cell_setting 'orthorhombic'
loop_
_space_group_symop_operation_xyz
x,y,z
-x,-y,z
x,-y,-z
-x,y,-z
-x,-y,-z
x,y,-z
-x,y,z
x,-y,z
1/2+x,1/2+y,1/2+z
1/2-x,1/2-y,1/2+z
1/2+x,1/2-y,1/2-z
1/2-x,1/2+y,1/2-z
1/2-x,1/2-y,1/2-z
1/2+x,1/2+y,1/2-z
1/2-x,1/2+y,1/2+z
1/2+x,1/2-y,1/2+z
loop_
_atom_site_type_symbol
_atom_site_label
_atom_site_fract_x
_atom_site_fract_y
_atom_site_fract_z
Si Si1 0.168511 0.429754 0.898198
Si Si2 0.327571 0.758583 0.801053
Si Si3 0.678068 0.935856 0.500000
Si Si4 0.330000 0.627228 0.813518
Si Si5 0.678260 0.632779 0.646510
Si Si6 0.678998 0.566496 0.553327
Si Si7 0.174183 0.566897 0.728187
O O1 0.167432 0.500000 0.901701
O O2 0.219933 0.402906 0.950154
O O3 0.289398 0.409817 0.859938
O O4 0.000000 0.407499 0.884201
O O5 0.500000 0.777886 0.792593
O O6 0.250000 0.750000 0.750000
O O7 0.315721 0.695786 0.827508
O O8 0.250700 0.806081 0.835825
O O9 0.500000 0.945164 0.500000
O O10 0.757866 0.000000 0.500000
O O11 0.500000 0.611444 0.797686
O O12 0.219407 0.611505 0.770147
O O13 0.500000 0.640826 0.647821
O O14 0.735801 0.613399 0.593417
O O15 0.726594 0.580042 0.681651
O O16 0.733041 0.586466 0.500000
O O17 0.500000 0.564592 0.554998
O O18 0.739937 0.500000 0.564068
O O19 0.204600 0.500000 0.745100
O O20 0.000000 0.577280 0.715663
#
# Coordination Sequence:
#
# PCOD8292383 Si02
#       7
#    16  16   8  16  16  16  16
#     4   9  17  31  53  79 106 136 170 211 263 318
#     4  11  23  39  57  76 102 141 186 226 267 316
#     4   7  12  26  49  75 101 131 167 205 248 305
#     4  11  23  36  52  75 103 138 178 222 271 319
#     4  11  21  34  57  85 110 142 182 226 274 323
#     4   8  15  30  54  85 118 147 177 220 275 332
#     4  11  23  36  52  77 110 145 177 214 264 321
#
# _framework density 18.524069000000001
#
# number of rings (size 3 to 8) (size 9 to 14) (size 15 to 20)
#    0.000    2.077    1.538    4.154    0.000    5.846 
#    0.000    0.385    1.692    3.231    0.000    5.385 
#    0.000    0.000    0.000    0.000    0.000    0.000 
#
# Total GULP energy -644461.443959 kJ/mol
# GULP energy per Si atom -12393.489307 kJ/mol
# Density = 1.848191 g / cm^3
# Si number density = 18.524069 Si / 1000 Ang^3
#
#
#
# Elastic Constant Matrix: (Units=GPa)
#
#
# Indices 1 2 3 4 5 6 
#
# 1 72.5733 36.5913 37.8513 0.0000 0.0000 0.0000
# 2 36.5913 86.0850 49.9563 0.0000 0.0000 0.0000
# 3 37.8513 49.9563 147.3700 0.0000 0.0000 0.0000
# 4 0.0000 0.0000 0.0000 22.1598 0.0000 0.0000
# 5 0.0000 0.0000 0.0000 0.0000 23.1064 0.0000
# 6 0.0000 0.0000 0.0000 0.0000 0.0000 27.9583
#
#
#
# Elastic Compliance Matrix: (Units=1/GPa)
#
#
# Indices 1 2 3 4 5 6 
#
# 1 0.018286 -0.006283 -0.002567 0.000000 0.000000 0.000000
# 2 -0.006283 0.016620 -0.004020 0.000000 0.000000 0.000000
# 3 -0.002567 -0.004020 0.008808 0.000000 0.000000 0.000000
# 4 0.000000 0.000000 0.000000 0.045127 0.000000 0.000000
# 5 0.000000 0.000000 0.000000 0.000000 0.043278 0.000000
# 6 0.000000 0.000000 0.000000 0.000000 0.000000 0.035768
#
#
# Mechanical properties :
#
#
# Convention : Reuss Voigt Hill
#
# Bulk Modulus (GPa) = 55.63728 61.64736 58.64232
# Shear Modulus (GPa) = 25.04796 26.75353 25.90074
#
# Velocity S-wave (km/s) = 3.68120 3.80446 3.74334
# Velocity P-wave (km/s) = 6.94036 7.25606 7.09997
#
# Compressibility (1/GPa) = 0.01797356
#
# Stress axis : x y z
#
# Youngs Moduli (GPa) = 54.68728 60.16819 113.53707
#
# Poissons Ratio (x) = 0.37804 0.29142
# Poissons Ratio (y) = 0.34360 0.45644
# Poissons Ratio (z) = 0.14037 0.24189
#
# Static dielectric constant tensor:
#      x y z
#    x 3.298100 0.000000 0.000000 
#    y 0.000000 3.398460 0.000000 
#    z 0.000000 0.000000 3.777180 
# 
# 
# High freq. dielectric constant tensor:
#      x y z
#    x 1.704410 0.000000 0.000000 
#    y 0.000000 1.702740 0.000000 
#    z 0.000000 0.000000 1.723110 
# 
# From -- ./inp_files/63524.got.cif
#   From: 2010.06.25/outbox.cif.g09.slc.cpg/sg71_32_cif.got.tgz:63524.got - 2010.06.28 04:59:45.
