data_PCOD8292076
_publ_section_title
;
Structure prediction by ZEFSAII (Michael W. Deem and Ramdas Pophale) SiO2 
 PCOD8292076
Probable space group: I M M M
;
_chemical_formula_sum "Si O2"
_cell_formula_units_Z 96
_cell_length_a 24.359428
_cell_length_b 8.720014
_cell_length_c 22.344658
_cell_angle_alpha 90.000000
_cell_angle_beta 90.000000
_cell_angle_gamma 90.000000
_cell_volume 4746.330545
_symmetry_space_group_name_H-M "I M M M"
_symmetry_group_IT_number 71
_symmetry_cell_setting 'orthorhombic'
loop_
_space_group_symop_operation_xyz
x,y,z
-x,-y,z
x,-y,-z
-x,y,-z
-x,-y,-z
x,y,-z
-x,y,z
x,-y,z
1/2+x,1/2+y,1/2+z
1/2-x,1/2-y,1/2+z
1/2+x,1/2-y,1/2-z
1/2-x,1/2+y,1/2-z
1/2-x,1/2-y,1/2-z
1/2+x,1/2+y,1/2-z
1/2-x,1/2+y,1/2+z
1/2+x,1/2-y,1/2+z
loop_
_atom_site_type_symbol
_atom_site_label
_atom_site_fract_x
_atom_site_fract_y
_atom_site_fract_z
Si Si1 0.000000 0.820272 0.653780
Si Si2 0.699028 0.174748 0.110249
Si Si3 0.388477 0.180826 0.673361
Si Si4 0.500000 0.318173 0.710283
Si Si5 0.191353 0.323346 0.932236
Si Si6 0.307704 0.679434 0.766898
Si Si7 0.082331 0.674887 0.565724
O O1 0.000000 0.752322 0.721387
O O2 0.054465 0.771545 0.618238
O O3 0.000000 0.000000 0.659505
O O4 0.754575 0.222632 0.077254
O O5 0.683844 0.289499 0.163562
O O6 0.648147 0.189780 0.065316
O O7 0.705777 0.000000 0.133503
O O8 0.447610 0.259399 0.673567
O O9 0.356633 0.229838 0.612791
O O10 0.355419 0.237631 0.730811
O O11 0.396080 0.000000 0.677184
O O12 0.500000 0.500000 0.710693
O O13 0.206810 0.500000 0.919686
O O14 0.170133 0.299520 0.000000
O O15 0.309191 0.500000 0.752824
O O16 0.250000 0.750000 0.750000
O O17 0.062344 0.730602 0.500000
O O18 0.064361 0.500000 0.576156
#
# Coordination Sequence:
#
# PCOD8292076 Si02
#       7
#     8  16  16   8  16  16  16
#     4  11  24  40  59  85 113 150 200 253 304 355
#     4  11  22  37  60  90 123 162 206 251 303 363
#     4  11  23  41  65  93 124 160 204 251 306 370
#     4  11  25  44  65  90 122 159 202 255 312 369
#     4  10  22  40  62  89 123 161 200 248 308 370
#     4  12  23  37  59  90 126 162 202 252 307 364
#     4  10  22  39  58  83 118 160 203 246 293 352
#
# _framework density 20.226151000000002
#
# number of rings (size 3 to 8) (size 9 to 14) (size 15 to 20)
#    0.000    1.167    1.667    4.750    0.000    8.333 
#    0.000    0.417    0.000    2.500    0.000    0.000 
#    0.000    0.000    0.000    0.000    0.000    0.000 
#
# Total GULP energy -595324.960310 kJ/mol
# GULP energy per Si atom -12402.603340 kJ/mol
# Density = 2.018012 g / cm^3
# Si number density = 20.226151 Si / 1000 Ang^3
#
#
#
# Elastic Constant Matrix: (Units=GPa)
#
#
# Indices 1 2 3 4 5 6 
#
# 1 147.1140 38.7142 43.3069 0.0000 0.0000 0.0000
# 2 38.7142 69.8749 25.7916 0.0000 0.0000 0.0000
# 3 43.3069 25.7916 110.5648 0.0000 0.0000 0.0000
# 4 0.0000 0.0000 0.0000 27.0249 0.0000 0.0000
# 5 0.0000 0.0000 0.0000 0.0000 22.1652 0.0000
# 6 0.0000 0.0000 0.0000 0.0000 0.0000 36.4579
#
#
#
# Elastic Compliance Matrix: (Units=1/GPa)
#
#
# Indices 1 2 3 4 5 6 
#
# 1 0.008523 -0.003819 -0.002448 0.000000 0.000000 0.000000
# 2 -0.003819 0.017371 -0.002556 0.000000 0.000000 0.000000
# 3 -0.002448 -0.002556 0.010599 0.000000 0.000000 0.000000
# 4 0.000000 0.000000 0.000000 0.037003 0.000000 0.000000
# 5 0.000000 0.000000 0.000000 0.000000 0.045116 0.000000
# 6 0.000000 0.000000 0.000000 0.000000 0.000000 0.027429
#
#
# Mechanical properties :
#
#
# Convention : Reuss Voigt Hill
#
# Bulk Modulus (GPa) = 53.05645 60.35326 56.70486
# Shear Modulus (GPa) = 29.41728 31.77901 30.59814
#
# Velocity S-wave (km/s) = 3.81782 3.96812 3.89369
# Velocity P-wave (km/s) = 6.76187 7.13433 6.95059
#
# Compressibility (1/GPa) = 0.01884785
#
# Stress axis : x y z
#
# Youngs Moduli (GPa) = 117.33157 57.56848 94.34448
#
# Poissons Ratio (x) = 0.21984 0.23091
# Poissons Ratio (y) = 0.44805 0.24118
# Poissons Ratio (z) = 0.28717 0.14716
#
# Static dielectric constant tensor:
#      x y z
#    x 3.706350 0.000000 0.000000 
#    y 0.000000 3.369980 0.000000 
#    z 0.000000 0.000000 3.637270 
# 
# 
# High freq. dielectric constant tensor:
#      x y z
#    x 1.794400 0.000000 0.000000 
#    y 0.000000 1.791530 0.000000 
#    z 0.000000 0.000000 1.791980 
# 
# From -- ./inp_files/61555.got.cif
#   From: 2010.06.25/outbox.cif.g09.slc.cpg/sg71_31_cif.got.tgz:61555.got - 2010.06.28 04:59:45.
