data_PCOD8292932
_publ_section_title
;
Structure prediction by ZEFSAII (Michael W. Deem and Ramdas Pophale) SiO2 
 PCOD8292932
Probable space group: I B A M
;
_chemical_formula_sum "Si O2"
_cell_formula_units_Z 120
_cell_length_a 22.435969
_cell_length_b 22.513398
_cell_length_c 14.015370
_cell_angle_alpha 90.000000
_cell_angle_beta 90.000000
_cell_angle_gamma 90.000000
_cell_volume 7079.302134
_symmetry_space_group_name_H-M "I B A M"
_symmetry_group_IT_number 72
_symmetry_cell_setting 'orthorhombic'
loop_
_space_group_symop_operation_xyz
x,y,z
-x,-y,z
x,-y,1/2-z
-x,y,1/2-z
-x,-y,-z
x,y,-z
-x,y,1/2+z
x,-y,1/2+z
1/2+x,1/2+y,1/2+z
1/2-x,1/2-y,1/2+z
1/2+x,1/2-y,-z
1/2-x,1/2+y,-z
1/2-x,1/2-y,1/2-z
1/2+x,1/2+y,1/2-z
1/2-x,1/2+y,z
1/2+x,1/2-y,z
loop_
_atom_site_type_symbol
_atom_site_label
_atom_site_fract_x
_atom_site_fract_y
_atom_site_fract_z
Si Si1 0.856383 0.512194 0.891193
Si Si2 0.145269 0.355621 0.886734
Si Si3 0.727302 0.371457 0.709961
Si Si4 0.277576 0.170655 0.894881
Si Si5 0.565977 0.793208 0.235660
Si Si6 0.755044 0.500000 0.250000
Si Si7 0.402373 0.891632 0.608025
Si Si8 0.850771 0.215888 0.891823
O O1 0.879633 0.577787 0.862811
O O2 0.797326 0.489156 0.839934
O O3 0.907217 0.462413 0.871265
O O4 0.836882 0.512134 0.000000
O O5 0.212877 0.355525 0.848829
O O6 0.104007 0.307593 0.831874
O O7 0.143717 0.341542 0.000000
O O8 0.728415 0.340852 0.814226
O O9 0.715934 0.441658 0.727210
O O10 0.670900 0.346711 0.651773
O O11 0.335218 0.130665 0.871682
O O12 0.294566 0.239849 0.891529
O O13 0.251879 0.155021 0.000000
O O14 0.500000 0.767566 0.250000
O O15 0.555400 0.854592 0.177433
O O16 0.597291 0.742815 0.172950
O O17 0.421176 0.876991 0.500000
O O18 0.874284 0.206470 0.000000
#
# Coordination Sequence:
#
# PCOD8292932 Si02
#       8
#    16  16  16  16  16   8  16  16
#     4   9  16  28  45  67 100 138 170 200 246 298
#     4  10  20  31  46  72 104 135 169 215 258 293
#     4  11  18  32  50  76 108 132 164 200 248 305
#     4   9  16  27  47  70  97 132 166 197 231 285
#     4  11  22  36  51  67  92 130 176 223 262 297
#     4  10  18  26  46  74 106 136 160 194 244 294
#     4   9  15  29  49  67  90 130 174 205 237 292
#     4  10  21  36  53  74  99 134 171 203 250 308
#
# _framework density 16.950823
#
# number of rings (size 3 to 8) (size 9 to 14) (size 15 to 20)
#    0.000    2.133    4.000    2.800    0.000    1.600 
#    0.000    1.333    0.000    2.400    0.000    0.467 
#    0.000    1.067    0.000    0.000    0.000    0.000 
#
# Total GULP energy -743550.443162 kJ/mol
# GULP energy per Si atom -12392.507386 kJ/mol
# Density = 1.691224 g / cm^3
# Si number density = 16.950823 Si / 1000 Ang^3
#
#
#
# Elastic Constant Matrix: (Units=GPa)
#
#
# Indices 1 2 3 4 5 6 
#
# 1 56.5823 39.3691 40.3009 0.0000 0.0000 0.0000
# 2 39.3691 79.3157 41.1476 0.0000 0.0000 0.0000
# 3 40.3009 41.1476 108.6519 0.0000 0.0000 0.0000
# 4 0.0000 0.0000 0.0000 25.0277 0.0000 0.0000
# 5 0.0000 0.0000 0.0000 0.0000 6.5554 0.0000
# 6 0.0000 0.0000 0.0000 0.0000 0.0000 14.3489
#
#
#
# Elastic Compliance Matrix: (Units=1/GPa)
#
#
# Indices 1 2 3 4 5 6 
#
# 1 0.030754 -0.011633 -0.007002 0.000000 0.000000 0.000000
# 2 -0.011633 0.020091 -0.003294 0.000000 0.000000 0.000000
# 3 -0.007002 -0.003294 0.013048 0.000000 0.000000 0.000000
# 4 0.000000 0.000000 0.000000 0.039956 0.000000 0.000000
# 5 0.000000 0.000000 0.000000 0.000000 0.152546 0.000000
# 6 0.000000 0.000000 0.000000 0.000000 0.000000 0.069692
#
#
# Mechanical properties :
#
#
# Convention : Reuss Voigt Hill
#
# Bulk Modulus (GPa) = 49.90911 54.02058 51.96484
# Shear Modulus (GPa) = 13.27590 17.43522 15.35556
#
# Velocity S-wave (km/s) = 2.80161 3.21062 3.01306
# Velocity P-wave (km/s) = 6.32240 6.75887 6.54427
#
# Compressibility (1/GPa) = 0.02003642
#
# Stress axis : x y z
#
# Youngs Moduli (GPa) = 32.51567 49.77455 76.63894
#
# Poissons Ratio (x) = 0.57902 0.53662
# Poissons Ratio (y) = 0.37825 0.25243
# Poissons Ratio (z) = 0.22767 0.16394
#
# Static dielectric constant tensor:
#      x y z
#    x 2.567600 0.000000 0.000000 
#    y 0.000000 3.280490 0.000000 
#    z 0.000000 0.000000 3.488550 
# 
# 
# High freq. dielectric constant tensor:
#      x y z
#    x 1.575960 0.000000 0.000000 
#    y 0.000000 1.643920 0.000000 
#    z 0.000000 0.000000 1.680800 
# 
# From -- ./inp_files/24566.got.cif
#   From: 2010.03.12/outbox.cif.g09.slc.cpg/sg72_13_cif.got.tgz:24566.got - 2010.04.16 14:54:00.
