data_PCOD8292686
_publ_section_title
;
Structure prediction by ZEFSAII (Michael W. Deem and Ramdas Pophale) SiO2 
 PCOD8292686
Probable space group: I M M M
;
_chemical_formula_sum "Si O2"
_cell_formula_units_Z 72
_cell_length_a 12.389216
_cell_length_b 23.113533
_cell_length_c 17.461909
_cell_angle_alpha 90.000000
_cell_angle_beta 90.000000
_cell_angle_gamma 90.000000
_cell_volume 5000.366991
_symmetry_space_group_name_H-M "I M M M"
_symmetry_group_IT_number 71
_symmetry_cell_setting 'orthorhombic'
loop_
_space_group_symop_operation_xyz
x,y,z
-x,-y,z
x,-y,-z
-x,y,-z
-x,-y,-z
x,y,-z
-x,y,z
x,-y,z
1/2+x,1/2+y,1/2+z
1/2-x,1/2-y,1/2+z
1/2+x,1/2-y,1/2-z
1/2-x,1/2+y,1/2-z
1/2-x,1/2-y,1/2-z
1/2+x,1/2+y,1/2-z
1/2-x,1/2+y,1/2+z
1/2+x,1/2-y,1/2+z
loop_
_atom_site_type_symbol
_atom_site_label
_atom_site_fract_x
_atom_site_fract_y
_atom_site_fract_z
Si Si1 0.289933 0.624882 0.414951
Si Si2 0.129883 0.225922 0.000000
Si Si3 0.871329 0.357268 0.000000
Si Si4 0.628141 0.935935 0.635926
Si Si5 0.500000 0.565764 0.590770
Si Si6 0.126371 0.433234 0.691444
O O1 0.267957 0.598236 0.500000
O O2 0.320164 0.693284 0.424892
O O3 0.392301 0.594205 0.374685
O O4 0.186181 0.612596 0.363063
O O5 0.170838 0.291625 0.000000
O O6 0.000000 0.220522 0.000000
O O7 0.825507 0.389552 0.075416
O O8 0.000000 0.357940 0.000000
O O9 0.500000 0.937255 0.631550
O O10 0.663320 0.919237 0.721837
O O11 0.672025 0.000000 0.614896
O O12 0.500000 0.500000 0.615502
O O13 0.500000 0.576654 0.500000
O O14 0.154590 0.500000 0.670827
O O15 0.000000 0.422288 0.680712
#
# Coordination Sequence:
#
# PCOD8292686 Si02
#       6
#    16   8   8  16   8  16
#     4   9  16  27  38  54  82 113 139 170 196 230
#     4   9  16  29  39  57  80 108 140 175 203 225
#     4   9  15  24  45  61  76 104 136 166 207 254
#     4   8  14  25  40  62  85 103 126 164 209 251
#     4   9  14  22  38  56  72 101 139 173 205 230
#     4   9  17  27  39  58  87 112 132 163 202 242
#
# _framework density 14.398942999999999
#
# number of rings (size 3 to 8) (size 9 to 14) (size 15 to 20)
#    0.667    2.556    1.111    2.333    0.000    3.111 
#    0.000    2.222    0.000    0.000    0.000    0.000 
#    3.333    0.111    0.000    6.222    0.000    1.889 
#
# Total GULP energy -445977.850872 kJ/mol
# GULP energy per Si atom -12388.273635 kJ/mol
# Density = 1.436617 g / cm^3
# Si number density = 14.398943 Si / 1000 Ang^3
#
#
#
# Elastic Constant Matrix: (Units=GPa)
#
#
# Indices 1 2 3 4 5 6 
#
# 1 44.6864 35.4079 33.8176 0.0000 0.0000 0.0000
# 2 35.4079 115.9815 53.5659 0.0001 0.0000 0.0000
# 3 33.8176 53.5659 77.5187 0.0001 0.0000 0.0000
# 4 0.0000 0.0001 0.0001 15.4189 0.0000 0.0000
# 5 0.0000 0.0000 0.0000 0.0000 4.5843 0.0000
# 6 0.0000 0.0000 0.0000 0.0000 0.0000 13.0091
#
#
#
# Elastic Compliance Matrix: (Units=1/GPa)
#
#
# Indices 1 2 3 4 5 6 
#
# 1 0.035590 -0.005426 -0.011777 0.000000 0.000000 0.000000
# 2 -0.005426 0.013491 -0.006955 0.000000 0.000000 0.000000
# 3 -0.011777 -0.006955 0.022844 0.000000 0.000000 0.000000
# 4 0.000000 0.000000 0.000000 0.064856 0.000000 0.000000
# 5 0.000000 0.000000 0.000000 0.000000 0.218136 0.000000
# 6 0.000000 0.000000 0.000000 0.000000 0.000000 0.076869
#
#
# Mechanical properties :
#
#
# Convention : Reuss Voigt Hill
#
# Bulk Modulus (GPa) = 42.35726 53.75214 48.05470
# Shear Modulus (GPa) = 10.24651 14.29546 12.27099
#
# Velocity S-wave (km/s) = 2.67051 3.15431 2.92244
# Velocity P-wave (km/s) = 6.24416 7.11884 6.69580
#
# Compressibility (1/GPa) = 0.02360870
#
# Stress axis : x y z
#
# Youngs Moduli (GPa) = 28.09774 74.12463 43.77584
#
# Poissons Ratio (x) = 0.40222 0.51553
# Poissons Ratio (y) = 0.15246 0.30446
# Poissons Ratio (z) = 0.33090 0.51554
#
# Static dielectric constant tensor:
#      x y z
#    x 2.469200 0.000000 0.000000 
#    y 0.000000 2.842120 0.000000 
#    z 0.000000 0.000000 2.721550 
# 
# 
# High freq. dielectric constant tensor:
#      x y z
#    x 1.512030 0.000000 0.000000 
#    y 0.000000 1.542420 0.000000 
#    z 0.000000 0.000000 1.529920 
# 
# From -- ./inp_files/43454.got.cif
#   From: 2010.06.25/outbox.cif.g09.slc.cpg/sg71_22_cif.got.tgz:43454.got - 2010.06.28 04:59:45.
