data_PCOD8292116
_publ_section_title
;
Structure prediction by ZEFSAII (Michael W. Deem and Ramdas Pophale) SiO2 
 PCOD8292116
Probable space group: I M M M
;
_chemical_formula_sum "Si O2"
_cell_formula_units_Z 104
_cell_length_a 11.978482
_cell_length_b 26.175830
_cell_length_c 15.399838
_cell_angle_alpha 90.000000
_cell_angle_beta 90.000000
_cell_angle_gamma 90.000000
_cell_volume 4828.568516
_symmetry_space_group_name_H-M "I M M M"
_symmetry_group_IT_number 71
_symmetry_cell_setting 'orthorhombic'
loop_
_space_group_symop_operation_xyz
x,y,z
-x,-y,z
x,-y,-z
-x,y,-z
-x,-y,-z
x,y,-z
-x,y,z
x,-y,z
1/2+x,1/2+y,1/2+z
1/2-x,1/2-y,1/2+z
1/2+x,1/2-y,1/2-z
1/2-x,1/2+y,1/2-z
1/2-x,1/2-y,1/2-z
1/2+x,1/2+y,1/2-z
1/2-x,1/2+y,1/2+z
1/2+x,1/2-y,1/2+z
loop_
_atom_site_type_symbol
_atom_site_label
_atom_site_fract_x
_atom_site_fract_y
_atom_site_fract_z
Si Si1 0.000000 0.441548 0.684719
Si Si2 0.246579 0.637135 0.847218
Si Si3 0.000000 0.242925 0.894678
Si Si4 0.876308 0.224710 0.595425
Si Si5 0.623576 0.558089 0.245782
Si Si6 0.771593 0.190965 0.837855
Si Si7 0.000000 0.357141 0.835413
Si Si8 0.772874 0.585332 0.597033
O O1 0.891488 0.436894 0.625716
O O2 0.000000 0.500000 0.726517
O O3 0.000000 0.391718 0.748046
O O4 0.312836 0.670560 0.916947
O O5 0.302007 0.582432 0.830968
O O6 0.263682 0.668747 0.758299
O O7 0.118573 0.628564 0.879776
O O8 0.106822 0.209697 0.867759
O O9 0.000000 0.294966 0.836210
O O10 0.000000 0.254027 0.000000
O O11 0.880026 0.249770 0.500000
O O12 0.813701 0.262023 0.660952
O O13 0.000000 0.215304 0.632682
O O14 0.500000 0.583023 0.248162
O O15 0.615375 0.500000 0.218936
O O16 0.676636 0.564039 0.340599
O O17 0.729104 0.146906 0.902639
O O18 0.748473 0.565829 0.500000
#
# Coordination Sequence:
#
# PCOD8292116 Si02
#       8
#     8  16   8  16  16  16   8  16
#     4  12  25  44  64  89 124 163 218 270 322 370
#     4  11  24  39  63  88 119 159 210 251 302 367
#     4  12  26  42  63  94 129 168 208 257 318 372
#     4  11  24  39  61  90 125 160 195 248 305 363
#     4  10  22  40  61  86 117 156 203 258 314 369
#     4  11  24  39  60  87 126 167 205 249 294 367
#     4  12  24  41  66  91 119 169 212 266 308 367
#     4  11  24  39  60  89 124 164 206 255 307 371
#
# _framework density 21.538474000000001
#
# number of rings (size 3 to 8) (size 9 to 14) (size 15 to 20)
#    0.000    0.923    4.615    3.000    7.538    1.846 
#    0.000    0.769    0.000    0.692    0.000    4.308 
#    0.000    0.000    0.000    0.000    0.000    0.000 
#
# Total GULP energy -644286.165908 kJ/mol
# GULP energy per Si atom -12390.118575 kJ/mol
# Density = 2.148945 g / cm^3
# Si number density = 21.538474 Si / 1000 Ang^3
#
#
#
# Elastic Constant Matrix: (Units=GPa)
#
#
# Indices 1 2 3 4 5 6 
#
# 1 199.0269 45.8247 9.0277 0.0000 0.0000 0.0000
# 2 45.8247 111.1195 17.5576 -0.0001 0.0000 0.0000
# 3 9.0277 17.5576 41.9357 0.0005 -0.0004 -0.0001
# 4 0.0000 -0.0001 0.0005 14.8125 -0.0001 0.0000
# 5 0.0000 0.0000 -0.0004 -0.0001 20.0395 0.0000
# 6 0.0000 0.0000 -0.0001 0.0000 0.0000 36.0702
#
#
#
# Elastic Compliance Matrix: (Units=1/GPa)
#
#
# Indices 1 2 3 4 5 6 
#
# 1 0.005554 -0.002250 -0.000253 0.000000 0.000000 0.000000
# 2 -0.002250 0.010549 -0.003932 0.000000 0.000000 0.000000
# 3 -0.000253 -0.003932 0.025547 -0.000001 0.000001 0.000000
# 4 0.000000 0.000000 -0.000001 0.067510 0.000000 0.000000
# 5 0.000000 0.000000 0.000001 0.000000 0.049902 0.000000
# 6 0.000000 0.000000 0.000000 0.000000 0.000000 0.027724
#
#
# Mechanical properties :
#
#
# Convention : Reuss Voigt Hill
#
# Bulk Modulus (GPa) = 34.74903 55.21133 44.98018
# Shear Modulus (GPa) = 23.89490 32.82925 28.36208
#
# Velocity S-wave (km/s) = 3.33439 3.90835 3.63272
# Velocity P-wave (km/s) = 5.56711 6.78649 6.20682
#
# Compressibility (1/GPa) = 0.02877778
#
# Stress axis : x y z
#
# Youngs Moduli (GPa) = 180.04769 94.79883 39.14376
#
# Poissons Ratio (x) = 0.21334 0.00992
# Poissons Ratio (y) = 0.40518 0.15392
# Poissons Ratio (z) = 0.04563 0.37275
#
# Static dielectric constant tensor:
#      x y z
#    x 4.296360 0.000000 0.000000 
#    y 0.000000 4.219390 0.000000 
#    z 0.000000 0.000000 3.681200 
# 
# 
# High freq. dielectric constant tensor:
#      x y z
#    x 1.868610 0.000000 0.000000 
#    y 0.000000 1.849070 0.000000 
#    z 0.000000 0.000000 1.815740 
# 
# From -- ./inp_files/43815.got.cif
#   From: 2010.06.25/outbox.cif.g09.slc.cpg/sg71_22_cif.got.tgz:43815.got - 2010.06.28 04:59:45.
