data_PCOD8292889
_publ_section_title
;
Structure prediction by ZEFSAII (Michael W. Deem and Ramdas Pophale) SiO2 
 PCOD8292889
Probable space group: I B A M
;
_chemical_formula_sum "Si O2"
_cell_formula_units_Z 96
_cell_length_a 30.018337
_cell_length_b 19.691080
_cell_length_c 8.693027
_cell_angle_alpha 90.000000
_cell_angle_beta 90.000000
_cell_angle_gamma 90.000000
_cell_volume 5138.391541
_symmetry_space_group_name_H-M "I B A M"
_symmetry_group_IT_number 72
_symmetry_cell_setting 'orthorhombic'
loop_
_space_group_symop_operation_xyz
x,y,z
-x,-y,z
x,-y,1/2-z
-x,y,1/2-z
-x,-y,-z
x,y,-z
-x,y,1/2+z
x,-y,1/2+z
1/2+x,1/2+y,1/2+z
1/2-x,1/2-y,1/2+z
1/2+x,1/2-y,-z
1/2-x,1/2+y,-z
1/2-x,1/2-y,1/2-z
1/2+x,1/2+y,1/2-z
1/2-x,1/2+y,z
1/2+x,1/2-y,z
loop_
_atom_site_type_symbol
_atom_site_label
_atom_site_fract_x
_atom_site_fract_y
_atom_site_fract_z
Si Si1 0.162626 0.569092 0.819113
Si Si2 0.209949 0.207194 0.319423
Si Si3 0.451460 0.704596 0.181201
Si Si4 0.764157 0.929754 0.817896
Si Si5 0.049518 0.067502 0.682862
Si Si6 0.877616 0.290586 0.180389
O O1 0.142131 0.500000 0.750000
O O2 0.213220 0.579962 0.761434
O O3 0.132945 0.632642 0.766389
O O4 0.162746 0.562420 0.000000
O O5 0.217452 0.202918 0.500000
O O6 0.250000 0.250000 0.250000
O O7 0.207216 0.132066 0.248895
O O8 0.164034 0.243591 0.277266
O O9 0.500000 0.718919 0.250000
O O10 0.428424 0.637245 0.256610
O O11 0.420303 0.767978 0.222130
O O12 0.455737 0.694523 0.000000
O O13 0.783476 0.000000 0.750000
O O14 0.768419 0.930458 0.000000
O O15 0.049571 0.065209 0.500000
O O16 0.000000 0.068444 0.750000
O O17 0.074093 0.000000 0.750000
O O18 0.888607 0.286804 0.000000
#
# Coordination Sequence:
#
# PCOD8292889 Si02
#       6
#    16  16  16  16  16  16
#     4   9  18  33  53  79 110 143 180 225 271 322
#     4  11  21  35  55  80 113 149 184 227 275 326
#     4  11  22  37  57  82 109 143 185 230 281 334
#     4  10  19  34  53  79 111 150 191 230 276 328
#     4  10  17  29  50  76 105 137 174 220 267 318
#     4  10  21  38  56  80 113 147 184 229 278 326
#
# _framework density 18.682888999999999
#
# number of rings (size 3 to 8) (size 9 to 14) (size 15 to 20)
#    0.000    1.833    1.667    5.500    0.000    2.667 
#    0.000    0.833    0.000    4.500    0.000    3.500 
#    0.000    0.000    0.000    0.000    0.000    0.000 
#
# Total GULP energy -595223.354917 kJ/mol
# GULP energy per Si atom -12400.486561 kJ/mol
# Density = 1.864037 g / cm^3
# Si number density = 18.682889 Si / 1000 Ang^3
#
#
#
# Elastic Constant Matrix: (Units=GPa)
#
#
# Indices 1 2 3 4 5 6 
#
# 1 61.5751 51.6445 39.0416 0.0000 0.0000 0.0000
# 2 51.6445 172.1730 57.1237 0.0000 0.0000 0.0000
# 3 39.0416 57.1237 112.9689 0.0000 0.0000 0.0000
# 4 0.0000 0.0000 0.0000 37.9413 0.0000 0.0000
# 5 0.0000 0.0000 0.0000 0.0000 23.2901 0.0000
# 6 0.0000 0.0000 0.0000 0.0000 0.0000 19.3706
#
#
#
# Elastic Compliance Matrix: (Units=1/GPa)
#
#
# Indices 1 2 3 4 5 6 
#
# 1 0.024402 -0.005433 -0.005686 0.000000 0.000000 0.000000
# 2 -0.005433 0.008189 -0.002263 0.000000 0.000000 0.000000
# 3 -0.005686 -0.002263 0.011961 0.000000 0.000000 0.000000
# 4 0.000000 0.000000 0.000000 0.026357 0.000000 0.000000
# 5 0.000000 0.000000 0.000000 0.000000 0.042937 0.000000
# 6 0.000000 0.000000 0.000000 0.000000 0.000000 0.051625
#
#
# Mechanical properties :
#
#
# Convention : Reuss Voigt Hill
#
# Bulk Modulus (GPa) = 56.21745 71.37071 63.79408
# Shear Modulus (GPa) = 25.23160 29.38087 27.30624
#
# Velocity S-wave (km/s) = 3.67893 3.96991 3.82719
# Velocity P-wave (km/s) = 6.94274 7.70050 7.33142
#
# Compressibility (1/GPa) = 0.01778807
#
# Stress axis : x y z
#
# Youngs Moduli (GPa) = 40.97945 122.12038 83.60245
#
# Poissons Ratio (x) = 0.66350 0.47537
# Poissons Ratio (y) = 0.22265 0.18919
# Poissons Ratio (z) = 0.23301 0.27636
#
# Static dielectric constant tensor:
#      x y z
#    x 3.086670 0.000000 0.000000 
#    y 0.000000 3.912080 0.000000 
#    z 0.000000 0.000000 3.424350 
# 
# 
# High freq. dielectric constant tensor:
#      x y z
#    x 1.682960 0.000000 0.000000 
#    y 0.000000 1.741310 0.000000 
#    z 0.000000 0.000000 1.734300 
# 
# From -- ./inp_files/8079.got.cif
#   From: 2010.03.12/outbox.cif.g09.slc.cpg/sg72_5_cif.got.tgz:8079.got - 2010.04.16 14:54:00.
