data_PCOD8292144
_publ_section_title
;
Structure prediction by ZEFSAII (Michael W. Deem and Ramdas Pophale) SiO2 
 PCOD8292144
Probable space group: I M M M
;
_chemical_formula_sum "Si O2"
_cell_formula_units_Z 88
_cell_length_a 18.661020
_cell_length_b 24.348808
_cell_length_c 9.426200
_cell_angle_alpha 90.000000
_cell_angle_beta 90.000000
_cell_angle_gamma 90.000000
_cell_volume 4283.016363
_symmetry_space_group_name_H-M "I M M M"
_symmetry_group_IT_number 71
_symmetry_cell_setting 'orthorhombic'
loop_
_space_group_symop_operation_xyz
x,y,z
-x,-y,z
x,-y,-z
-x,y,-z
-x,-y,-z
x,y,-z
-x,y,z
x,-y,z
1/2+x,1/2+y,1/2+z
1/2-x,1/2-y,1/2+z
1/2+x,1/2-y,1/2-z
1/2-x,1/2+y,1/2-z
1/2-x,1/2-y,1/2-z
1/2+x,1/2+y,1/2-z
1/2-x,1/2+y,1/2+z
1/2+x,1/2-y,1/2+z
loop_
_atom_site_type_symbol
_atom_site_label
_atom_site_fract_x
_atom_site_fract_y
_atom_site_fract_z
Si Si1 0.864709 0.162618 0.336328
Si Si2 0.080692 0.261109 0.164689
Si Si3 0.703714 0.842612 0.338773
Si Si4 0.845743 0.436215 0.334996
Si Si5 0.584082 0.437264 0.337243
Si Si6 0.500000 0.940199 0.167131
O O1 0.888894 0.159675 0.500000
O O2 0.914677 0.205170 0.253381
O O3 0.782445 0.183767 0.324730
O O4 0.872796 0.102524 0.267537
O O5 0.141609 0.302757 0.222145
O O6 0.000000 0.285250 0.185621
O O7 0.095028 0.247230 0.000000
O O8 0.684964 0.857308 0.500000
O O9 0.708988 0.899494 0.252420
O O10 0.829897 0.428091 0.500000
O O11 0.838136 0.500000 0.293374
O O12 0.924957 0.411758 0.291319
O O13 0.604245 0.423613 0.500000
O O14 0.500000 0.428865 0.312812
O O15 0.606124 0.500000 0.302177
O O16 0.500000 0.000000 0.239666
O O17 0.500000 0.949140 0.000000
#
# Coordination Sequence:
#
# PCOD8292144 Si02
#       6
#    16  16  16  16  16   8
#     4  11  23  38  57  84 118 151 183 227 284 339
#     4  10  22  41  63  83 106 142 189 237 282 334
#     4  10  23  39  55  81 116 150 186 231 281 335
#     4   9  18  33  54  80 110 146 187 229 274 325
#     4   9  19  37  61  88 117 151 192 233 273 327
#     4   7  12  26  47  71 101 135 173 221 270 311
#
# _framework density 20.546267
#
# number of rings (size 3 to 8) (size 9 to 14) (size 15 to 20)
#    0.000    2.455    0.000    3.273    1.273    6.545 
#    0.000    4.545    0.000    1.636    0.000    0.000 
#    0.000    0.000    0.000    0.000    0.000    0.000 
#
# Total GULP energy -545356.340571 kJ/mol
# GULP energy per Si atom -12394.462286 kJ/mol
# Density = 2.049950 g / cm^3
# Si number density = 20.546267 Si / 1000 Ang^3
#
#
#
# Elastic Constant Matrix: (Units=GPa)
#
#
# Indices 1 2 3 4 5 6 
#
# 1 79.4391 30.9835 30.2794 0.0000 0.0000 0.0000
# 2 30.9835 91.2160 48.7025 0.0000 0.0000 0.0000
# 3 30.2794 48.7025 75.5120 0.0000 0.0000 0.0000
# 4 0.0000 0.0000 0.0000 32.3578 0.0000 0.0000
# 5 0.0000 0.0000 0.0000 0.0000 27.9128 0.0000
# 6 0.0000 0.0000 0.0000 0.0000 0.0000 30.4902
#
#
#
# Elastic Compliance Matrix: (Units=1/GPa)
#
#
# Indices 1 2 3 4 5 6 
#
# 1 0.015360 -0.002942 -0.004262 0.000000 0.000000 0.000000
# 2 -0.002942 0.017285 -0.009968 0.000000 0.000000 0.000000
# 3 -0.004262 -0.009968 0.021381 0.000000 0.000000 0.000000
# 4 0.000000 0.000000 0.000000 0.030904 0.000000 0.000000
# 5 0.000000 0.000000 0.000000 0.000000 0.035826 0.000000
# 6 0.000000 0.000000 0.000000 0.000000 0.000000 0.032797
#
#
# Mechanical properties :
#
#
# Convention : Reuss Voigt Hill
#
# Bulk Modulus (GPa) = 50.80836 51.78864 51.29850
# Shear Modulus (GPa) = 25.71251 27.23229 26.47240
#
# Velocity S-wave (km/s) = 3.54141 3.64457 3.59336
# Velocity P-wave (km/s) = 6.44241 6.55524 6.49907
#
# Compressibility (1/GPa) = 0.01968180
#
# Stress axis : x y z
#
# Youngs Moduli (GPa) = 65.10363 57.85506 46.77053
#
# Poissons Ratio (x) = 0.17021 0.19933
# Poissons Ratio (y) = 0.19153 0.46622
# Poissons Ratio (z) = 0.27746 0.57671
#
# Static dielectric constant tensor:
#      x y z
#    x 3.849050 0.000000 0.000000 
#    y 0.000000 3.500230 0.000000 
#    z 0.000000 0.000000 3.484710 
# 
# 
# High freq. dielectric constant tensor:
#      x y z
#    x 1.812320 0.000000 0.000000 
#    y 0.000000 1.790940 0.000000 
#    z 0.000000 0.000000 1.785010 
# 
# From -- ./inp_files/10472.got.cif
#   From: 2010.06.25/outbox.cif.g09.slc.cpg/sg71_6_cif.got.tgz:10472.got - 2010.06.28 04:59:45.
