data_PCOD8292574
_publ_section_title
;
Structure prediction by ZEFSAII (Michael W. Deem and Ramdas Pophale) SiO2 
 PCOD8292574
Probable space group: I M M M
;
_chemical_formula_sum "Si O2"
_cell_formula_units_Z 88
_cell_length_a 17.743713
_cell_length_b 26.838888
_cell_length_c 8.872107
_cell_angle_alpha 90.000000
_cell_angle_beta 90.000000
_cell_angle_gamma 90.000000
_cell_volume 4225.088334
_symmetry_space_group_name_H-M "I M M M"
_symmetry_group_IT_number 71
_symmetry_cell_setting 'orthorhombic'
loop_
_space_group_symop_operation_xyz
x,y,z
-x,-y,z
x,-y,-z
-x,y,-z
-x,-y,-z
x,y,-z
-x,y,z
x,-y,z
1/2+x,1/2+y,1/2+z
1/2-x,1/2-y,1/2+z
1/2+x,1/2-y,1/2-z
1/2-x,1/2+y,1/2-z
1/2-x,1/2-y,1/2-z
1/2+x,1/2+y,1/2-z
1/2-x,1/2+y,1/2+z
1/2+x,1/2-y,1/2+z
loop_
_atom_site_type_symbol
_atom_site_label
_atom_site_fract_x
_atom_site_fract_y
_atom_site_fract_z
Si Si1 0.142874 0.386570 0.322195
Si Si2 0.414103 0.588143 0.324295
Si Si3 0.772218 0.055982 0.331292
Si Si4 0.411882 0.300541 0.664072
Si Si5 0.000000 0.558252 0.820794
Si Si6 0.678230 0.775448 0.825542
O O1 0.127347 0.388543 0.500000
O O2 0.220396 0.413966 0.283968
O O3 0.073557 0.413233 0.239312
O O4 0.154350 0.329804 0.263936
O O5 0.409043 0.574299 0.500000
O O6 0.500000 0.580387 0.267528
O O7 0.358240 0.554114 0.227666
O O8 0.383778 0.644224 0.294999
O O9 0.768677 0.079015 0.500000
O O10 0.741329 0.000000 0.336053
O O11 0.378159 0.284688 0.500000
O O12 0.500000 0.303676 0.649809
O O13 0.390876 0.261402 0.792692
O O14 0.000000 0.500000 0.768814
O O15 0.000000 0.561452 0.000000
O O16 0.750000 0.750000 0.750000
O O17 0.695248 0.779818 0.000000
#
# Coordination Sequence:
#
# PCOD8292574 Si02
#       6
#    16  16  16  16   8  16
#     4  11  25  43  64  91 124 162 207 257 310 374
#     4   9  19  37  60  87 120 158 202 248 295 357
#     4  11  24  40  59  86 119 154 199 254 308 364
#     4   9  19  36  58  84 115 151 190 232 282 340
#     4  11  25  45  69  97 127 161 209 269 328 385
#     4  11  24  39  58  87 122 157 198 246 294 354
#
# _framework density 20.827964999999999
#
# number of rings (size 3 to 8) (size 9 to 14) (size 15 to 20)
#    0.000    1.727    0.000    4.636    1.273   13.455 
#    0.000    3.636    0.000    0.000    0.000    0.000 
#    0.000    0.000    0.000    0.000    0.000    0.000 
#
# Total GULP energy -545516.681718 kJ/mol
# GULP energy per Si atom -12398.106403 kJ/mol
# Density = 2.078056 g / cm^3
# Si number density = 20.827965 Si / 1000 Ang^3
#
#
#
# Elastic Constant Matrix: (Units=GPa)
#
#
# Indices 1 2 3 4 5 6 
#
# 1 90.7549 40.5686 31.3018 0.0000 0.0000 0.0000
# 2 40.5686 111.8588 40.2370 0.0000 0.0000 0.0000
# 3 31.3018 40.2370 68.0816 0.0000 -0.0001 0.0000
# 4 0.0000 0.0000 0.0000 31.1648 0.0000 0.0000
# 5 0.0000 0.0000 -0.0001 0.0000 37.1371 0.0000
# 6 0.0000 0.0000 0.0000 0.0000 0.0000 37.4795
#
#
#
# Elastic Compliance Matrix: (Units=1/GPa)
#
#
# Indices 1 2 3 4 5 6 
#
# 1 0.014118 -0.003537 -0.004400 0.000000 0.000000 0.000000
# 2 -0.003537 0.012240 -0.005608 0.000000 0.000000 0.000000
# 3 -0.004400 -0.005608 0.020025 0.000000 0.000000 0.000000
# 4 0.000000 0.000000 0.000000 0.032087 0.000000 0.000000
# 5 0.000000 0.000000 0.000000 0.000000 0.026927 0.000000
# 6 0.000000 0.000000 0.000000 0.000000 0.000000 0.026681
#
#
# Mechanical properties :
#
#
# Convention : Reuss Voigt Hill
#
# Bulk Modulus (GPa) = 51.83301 54.99001 53.41151
# Shear Modulus (GPa) = 30.19324 31.72880 30.96102
#
# Velocity S-wave (km/s) = 3.81156 3.90728 3.85971
# Velocity P-wave (km/s) = 6.65664 6.84215 6.75004
#
# Compressibility (1/GPa) = 0.01929272
#
# Stress axis : x y z
#
# Youngs Moduli (GPa) = 70.83372 81.70038 49.93634
#
# Poissons Ratio (x) = 0.28900 0.21973
# Poissons Ratio (y) = 0.25056 0.28002
# Poissons Ratio (z) = 0.31169 0.45814
#
# Static dielectric constant tensor:
#      x y z
#    x 3.856870 0.000000 0.000000 
#    y 0.000000 4.705370 0.000000 
#    z 0.000000 0.000000 3.388180 
# 
# 
# High freq. dielectric constant tensor:
#      x y z
#    x 1.823580 0.000000 0.000000 
#    y 0.000000 1.822900 0.000000 
#    z 0.000000 0.000000 1.810950 
# 
# From -- ./inp_files/8872.got.cif
#   From: 2010.06.25/outbox.cif.g09.slc.cpg/sg71_5_cif.got.tgz:8872.got - 2010.06.28 04:59:45.
