data_PCOD8292274
_publ_section_title
;
Structure prediction by ZEFSAII (Michael W. Deem and Ramdas Pophale) SiO2 
 PCOD8292274
Probable space group: I M M M
;
_chemical_formula_sum "Si O2"
_cell_formula_units_Z 96
_cell_length_a 24.056336
_cell_length_b 17.473829
_cell_length_c 14.268242
_cell_angle_alpha 90.000000
_cell_angle_beta 90.000000
_cell_angle_gamma 90.000000
_cell_volume 5997.745438
_symmetry_space_group_name_H-M "I M M M"
_symmetry_group_IT_number 71
_symmetry_cell_setting 'orthorhombic'
loop_
_space_group_symop_operation_xyz
x,y,z
-x,-y,z
x,-y,-z
-x,y,-z
-x,-y,-z
x,y,-z
-x,y,z
x,-y,z
1/2+x,1/2+y,1/2+z
1/2-x,1/2-y,1/2+z
1/2+x,1/2-y,1/2-z
1/2-x,1/2+y,1/2-z
1/2-x,1/2-y,1/2-z
1/2+x,1/2+y,1/2-z
1/2-x,1/2+y,1/2+z
1/2+x,1/2-y,1/2+z
loop_
_atom_site_type_symbol
_atom_site_label
_atom_site_fract_x
_atom_site_fract_y
_atom_site_fract_z
Si Si1 0.167608 0.180161 0.108149
Si Si2 0.061435 0.909492 0.395152
Si Si3 0.732193 0.166992 0.608653
Si Si4 0.560557 0.227761 0.388917
Si Si5 0.169669 0.089777 0.285050
Si Si6 0.877139 0.415902 0.888256
O O1 0.214699 0.244612 0.125397
O O2 0.107330 0.211795 0.139364
O O3 0.176722 0.106709 0.174264
O O4 0.168128 0.153385 0.000000
O O5 0.075456 0.878645 0.500000
O O6 0.108837 0.884217 0.321814
O O7 0.000000 0.878986 0.363890
O O8 0.059607 0.000000 0.398505
O O9 0.743557 0.152390 0.500000
O O10 0.787595 0.145052 0.662653
O O11 0.683306 0.111865 0.645705
O O12 0.558575 0.223227 0.500000
O O13 0.500000 0.251128 0.348258
O O14 0.576567 0.143231 0.350399
O O15 0.181291 0.000000 0.303839
O O16 0.889651 0.500000 0.846879
O O17 0.877554 0.416825 0.000000
#
# Coordination Sequence:
#
# PCOD8292274 Si02
#       6
#    16  16  16  16  16  16
#     4   9  19  33  44  57  84 118 145 175 212 250
#     4   8  15  28  43  61  87 111 131 167 220 265
#     4   9  17  30  46  63  85 111 139 171 212 263
#     4   8  14  25  40  55  73 105 144 171 196 236
#     4  11  20  28  45  68  84 106 143 181 217 260
#     4   8  13  21  35  58  86 107 123 157 207 248
#
# _framework density 16.006012999999999
#
# number of rings (size 3 to 8) (size 9 to 14) (size 15 to 20)
#    0.000    3.167    0.000    4.000    0.000    3.000 
#    0.000    1.667    0.000    0.000    0.000    4.667 
#    0.000    0.000    0.000    0.000    0.000    0.000 
#
# Total GULP energy -594698.773901 kJ/mol
# GULP energy per Si atom -12389.557790 kJ/mol
# Density = 1.596958 g / cm^3
# Si number density = 16.006013 Si / 1000 Ang^3
#
#
#
# Elastic Constant Matrix: (Units=GPa)
#
#
# Indices 1 2 3 4 5 6 
#
# 1 99.0481 19.9399 33.2069 0.0000 0.0000 0.0000
# 2 19.9399 31.2457 23.1926 0.0000 0.0000 0.0000
# 3 33.2069 23.1926 63.0578 0.0000 0.0000 0.0000
# 4 0.0000 0.0000 0.0000 18.4804 0.0000 0.0000
# 5 0.0000 0.0000 0.0000 0.0000 12.4184 0.0000
# 6 0.0000 0.0000 0.0000 0.0000 0.0000 10.6844
#
#
#
# Elastic Compliance Matrix: (Units=1/GPa)
#
#
# Indices 1 2 3 4 5 6 
#
# 1 0.012669 -0.004309 -0.005087 0.000000 0.000000 0.000000
# 2 -0.004309 0.045488 -0.014461 0.000000 0.000000 0.000000
# 3 -0.005087 -0.014461 0.023856 0.000000 0.000000 0.000000
# 4 0.000000 0.000000 0.000000 0.054111 0.000000 0.000000
# 5 0.000000 0.000000 0.000000 0.000000 0.080526 0.000000
# 6 0.000000 0.000000 0.000000 0.000000 0.000000 0.093594
#
#
# Mechanical properties :
#
#
# Convention : Reuss Voigt Hill
#
# Bulk Modulus (GPa) = 29.15536 38.44784 33.80160
# Shear Modulus (GPa) = 13.53574 16.11746 14.82660
#
# Velocity S-wave (km/s) = 2.91119 3.17671 3.04684
# Velocity P-wave (km/s) = 5.43643 6.12604 5.79151
#
# Compressibility (1/GPa) = 0.03429901
#
# Stress axis : x y z
#
# Youngs Moduli (GPa) = 78.93295 21.98358 41.91805
#
# Poissons Ratio (x) = 0.09473 0.21323
# Poissons Ratio (y) = 0.34014 0.60619
# Poissons Ratio (z) = 0.40151 0.31791
#
# Static dielectric constant tensor:
#      x y z
#    x 3.420800 0.000000 0.000000 
#    y 0.000000 2.866120 0.000000 
#    z 0.000000 0.000000 2.713410 
# 
# 
# High freq. dielectric constant tensor:
#      x y z
#    x 1.622960 0.000000 0.000000 
#    y 0.000000 1.592150 0.000000 
#    z 0.000000 0.000000 1.575440 
# 
# From -- ./inp_files/28808.got.cif
#   From: 2010.06.25/outbox.cif.g09.slc.cpg/sg71_15_cif.got.tgz:28808.got - 2010.06.28 04:59:45.
