data_PCOD8292657
_publ_section_title
;
Structure prediction by ZEFSAII (Michael W. Deem and Ramdas Pophale) SiO2 
 PCOD8292657
Probable space group: I M M M
;
_chemical_formula_sum "Si O2"
_cell_formula_units_Z 80
_cell_length_a 27.048473
_cell_length_b 9.721370
_cell_length_c 18.427838
_cell_angle_alpha 90.000000
_cell_angle_beta 90.000000
_cell_angle_gamma 90.000000
_cell_volume 4845.567089
_symmetry_space_group_name_H-M "I M M M"
_symmetry_group_IT_number 71
_symmetry_cell_setting 'orthorhombic'
loop_
_space_group_symop_operation_xyz
x,y,z
-x,-y,z
x,-y,-z
-x,y,-z
-x,-y,-z
x,y,-z
-x,y,z
x,-y,z
1/2+x,1/2+y,1/2+z
1/2-x,1/2-y,1/2+z
1/2+x,1/2-y,1/2-z
1/2-x,1/2+y,1/2-z
1/2-x,1/2-y,1/2-z
1/2+x,1/2+y,1/2-z
1/2-x,1/2+y,1/2+z
1/2+x,1/2-y,1/2+z
loop_
_atom_site_type_symbol
_atom_site_label
_atom_site_fract_x
_atom_site_fract_y
_atom_site_fract_z
Si Si1 0.849042 0.836219 0.080206
Si Si2 0.556435 0.158251 0.916236
Si Si3 0.395985 0.342547 0.800816
Si Si4 0.794155 0.841592 0.221539
Si Si5 0.554286 0.336514 0.654545
O O1 0.809782 0.788029 0.140986
O O2 0.904049 0.779186 0.099353
O O3 0.851198 0.000000 0.082228
O O4 0.833791 0.782328 0.000000
O O5 0.500000 0.203320 0.901046
O O6 0.594231 0.249714 0.870599
O O7 0.563983 0.000000 0.894483
O O8 0.569671 0.181048 0.000000
O O9 0.406940 0.500000 0.821567
O O10 0.339509 0.324660 0.776528
O O11 0.431938 0.292666 0.736263
O O12 0.750000 0.750000 0.250000
O O13 0.776997 0.000000 0.217922
O O14 0.500000 0.276630 0.634535
O O15 0.553786 0.500000 0.650075
#
# Coordination Sequence:
#
# PCOD8292657 Si02
#       5
#    16  16  16  16  16
#     4   8  14  25  41  62  88 115 142 173 210 254
#     4   9  18  31  45  64  92 122 151 186 227 270
#     4   9  17  29  45  65  89 117 150 186 223 267
#     4   9  18  32  49  68  89 115 149 188 227 266
#     4   8  13  21  36  61  90 116 141 170 205 249
#
# _framework density 16.509934999999999
#
# number of rings (size 3 to 8) (size 9 to 14) (size 15 to 20)
#    0.000    3.400    0.000    3.600    0.000    2.800 
#    0.000    4.000    0.000    4.200    0.000    0.000 
#    0.000    0.000    0.000   21.200    0.000   16.000 
#
# Total GULP energy -495728.818959 kJ/mol
# GULP energy per Si atom -12393.220474 kJ/mol
# Density = 1.647236 g / cm^3
# Si number density = 16.509935 Si / 1000 Ang^3
#
#
#
# Elastic Constant Matrix: (Units=GPa)
#
#
# Indices 1 2 3 4 5 6 
#
# 1 100.3301 35.5407 60.5992 0.0000 0.0000 0.0000
# 2 35.5407 45.1857 45.5704 0.0000 0.0000 0.0000
# 3 60.5992 45.5704 117.8988 0.0000 0.0000 0.0000
# 4 0.0000 0.0000 0.0000 17.2713 0.0000 0.0000
# 5 0.0000 0.0000 0.0000 0.0000 18.3721 0.0000
# 6 0.0000 0.0000 0.0000 0.0000 0.0000 26.4690
#
#
#
# Elastic Compliance Matrix: (Units=1/GPa)
#
#
# Indices 1 2 3 4 5 6 
#
# 1 0.015660 -0.006883 -0.005389 0.000000 0.000000 0.000000
# 2 -0.006883 0.039294 -0.011650 0.000000 0.000000 0.000000
# 3 -0.005389 -0.011650 0.015755 0.000000 0.000000 0.000000
# 4 0.000000 0.000000 0.000000 0.057900 0.000000 0.000000
# 5 0.000000 0.000000 0.000000 0.000000 0.054430 0.000000
# 6 0.000000 0.000000 0.000000 0.000000 0.000000 0.037780
#
#
# Mechanical properties :
#
#
# Convention : Reuss Voigt Hill
#
# Bulk Modulus (GPa) = 43.73468 60.75947 52.24707
# Shear Modulus (GPa) = 18.09730 20.53609 19.31669
#
# Velocity S-wave (km/s) = 3.31440 3.53067 3.42424
# Velocity P-wave (km/s) = 6.41829 7.31454 6.88102
#
# Compressibility (1/GPa) = 0.02286515
#
# Stress axis : x y z
#
# Youngs Moduli (GPa) = 63.85674 25.44920 63.47264
#
# Poissons Ratio (x) = 0.17516 0.34205
# Poissons Ratio (y) = 0.43950 0.73948
# Poissons Ratio (z) = 0.34412 0.29649
#
# Static dielectric constant tensor:
#      x y z
#    x 3.085810 0.000000 0.000000 
#    y 0.000000 2.679060 0.000000 
#    z 0.000000 0.000000 3.222820 
# 
# 
# High freq. dielectric constant tensor:
#      x y z
#    x 1.629540 0.000000 0.000000 
#    y 0.000000 1.589700 0.000000 
#    z 0.000000 0.000000 1.637380 
# 
# From -- ./inp_files/8261.got.cif
#   From: 2010.06.25/outbox.cif.g09.slc.cpg/sg71_5_cif.got.tgz:8261.got - 2010.06.28 04:59:45.
