data_PCOD8292825
_publ_section_title
;
Structure prediction by ZEFSAII (Michael W. Deem and Ramdas Pophale) SiO2 
 PCOD8292825
Probable space group: I B A M
;
_chemical_formula_sum "Si O2"
_cell_formula_units_Z 92
_cell_length_a 20.105001
_cell_length_b 9.301780
_cell_length_c 26.178854
_cell_angle_alpha 90.000000
_cell_angle_beta 90.000000
_cell_angle_gamma 90.000000
_cell_volume 4895.767598
_symmetry_space_group_name_H-M "I B A M"
_symmetry_group_IT_number 72
_symmetry_cell_setting 'orthorhombic'
loop_
_space_group_symop_operation_xyz
x,y,z
-x,-y,z
x,-y,1/2-z
-x,y,1/2-z
-x,-y,-z
x,y,-z
-x,y,1/2+z
x,-y,1/2+z
1/2+x,1/2+y,1/2+z
1/2-x,1/2-y,1/2+z
1/2+x,1/2-y,-z
1/2-x,1/2+y,-z
1/2-x,1/2-y,1/2-z
1/2+x,1/2+y,1/2-z
1/2-x,1/2+y,z
1/2+x,1/2-y,z
loop_
_atom_site_type_symbol
_atom_site_label
_atom_site_fract_x
_atom_site_fract_y
_atom_site_fract_z
Si Si1 0.931836 0.635649 0.342140
Si Si2 0.932785 0.666880 0.110017
Si Si3 0.683280 0.370556 0.890920
Si Si4 0.898190 0.588649 0.000000
Si Si5 0.196112 0.825692 0.500000
Si Si6 0.154704 0.283715 0.500000
Si Si7 0.500000 0.000000 0.250000
Si Si8 0.819380 0.192200 0.111202
O O1 0.910786 0.486962 0.368366
O O2 0.869320 0.740612 0.347070
O O3 0.994397 0.710199 0.370407
O O4 0.952554 0.603137 0.283744
O O5 0.879663 0.783355 0.131500
O O6 0.936398 0.651799 0.048902
O O7 0.665612 0.399355 0.950227
O O8 0.749831 0.276188 0.885615
O O9 0.691830 0.529848 0.868053
O O10 0.822771 0.654205 0.000000
O O11 0.897489 0.415609 0.000000
O O12 0.273630 0.855004 0.500000
O O13 0.148945 0.195630 0.446448
#
# Coordination Sequence:
#
# PCOD8292825 Si02
#       8
#    16  16  16   8   8   8   4  16
#     4  10  20  37  60  81  99 137 176 221 276 327
#     4   9  19  33  52  77 108 145 179 215 263 310
#     4  10  20  33  50  78 116 148 184 221 253 309
#     4  10  16  30  45  72 111 144 181 223 251 312
#     4   8  19  26  44  68 109 159 183 209 251 293
#     4  10  19  25  46  74 112 145 188 218 245 308
#     4   8  20  40  64  80 104 128 176 224 272 346
#     4  11  21  31  53  79 111 149 183 220 263 304
#
# _framework density 18.791740999999998
#
# number of rings (size 3 to 8) (size 9 to 14) (size 15 to 20)
#    0.000    2.435    1.739    1.565   12.174    2.783 
#    0.000    0.000    0.000   21.913    0.000    0.000 
#    0.000    0.000    0.000    0.000    0.000    0.000 
#
# Total GULP energy -569919.709650 kJ/mol
# GULP energy per Si atom -12389.558905 kJ/mol
# Density = 1.874897 g / cm^3
# Si number density = 18.791741 Si / 1000 Ang^3
#
#
#
# Elastic Constant Matrix: (Units=GPa)
#
#
# Indices 1 2 3 4 5 6 
#
# 1 101.2578 56.6984 32.6706 0.0000 0.0000 0.0000
# 2 56.6984 124.4222 23.1595 0.0000 0.0000 0.0000
# 3 32.6706 23.1595 84.8635 0.0000 0.0000 0.0000
# 4 0.0000 0.0000 0.0000 5.8491 0.0000 0.0000
# 5 0.0000 0.0000 0.0000 0.0000 12.0533 0.0000
# 6 0.0000 0.0000 0.0000 0.0000 0.0000 36.3816
#
#
#
# Elastic Compliance Matrix: (Units=1/GPa)
#
#
# Indices 1 2 3 4 5 6 
#
# 1 0.014420 -0.005834 -0.003959 0.000000 0.000000 0.000000
# 2 -0.005834 0.010828 -0.000709 0.000000 0.000000 0.000000
# 3 -0.003959 -0.000709 0.013501 0.000000 0.000000 0.000000
# 4 0.000000 0.000000 0.000000 0.170967 0.000000 0.000000
# 5 0.000000 0.000000 0.000000 0.000000 0.082965 0.000000
# 6 0.000000 0.000000 0.000000 0.000000 0.000000 0.027486
#
#
# Mechanical properties :
#
#
# Convention : Reuss Voigt Hill
#
# Bulk Modulus (GPa) = 56.35563 59.51117 57.93340
# Shear Modulus (GPa) = 14.40561 24.05780 19.23171
#
# Velocity S-wave (km/s) = 2.77174 3.58192 3.20255
# Velocity P-wave (km/s) = 6.34808 6.98887 6.67617
#
# Compressibility (1/GPa) = 0.01774446
#
# Stress axis : x y z
#
# Youngs Moduli (GPa) = 69.34812 92.35588 74.06696
#
# Poissons Ratio (x) = 0.53882 0.29325
# Poissons Ratio (y) = 0.40459 0.05250
# Poissons Ratio (z) = 0.27457 0.06547
#
# Static dielectric constant tensor:
#      x y z
#    x 3.385280 0.000000 0.000000 
#    y 0.000000 3.386490 0.000000 
#    z 0.000000 0.000000 3.253320 
# 
# 
# High freq. dielectric constant tensor:
#      x y z
#    x 1.723790 0.000000 0.000000 
#    y 0.000000 1.721100 0.000000 
#    z 0.000000 0.000000 1.690980 
# 
# From -- ./inp_files/42344.got.cif
#   From: 2010.03.12/outbox.cif.g09.slc.cpg/sg72_22_cif.got.tgz:42344.got - 2010.04.16 14:54:00.
