data_PCOD8292803
_publ_section_title
;
Structure prediction by ZEFSAII (Michael W. Deem and Ramdas Pophale) SiO2 
 PCOD8292803
Probable space group: I M M M
;
_chemical_formula_sum "Si O2"
_cell_formula_units_Z 36
_cell_length_a 27.000000
_cell_length_b 15.000000
_cell_length_c 9.000000
_cell_angle_alpha 90.000000
_cell_angle_beta 90.000000
_cell_angle_gamma 90.000000
_cell_volume 3645.000000
_symmetry_space_group_name_H-M "I M M M"
_symmetry_group_IT_number 71
_symmetry_cell_setting 'orthorhombic'
loop_
_space_group_symop_operation_xyz
x,y,z
-x,-y,z
x,-y,-z
-x,y,-z
-x,-y,-z
x,y,-z
-x,y,z
x,-y,z
1/2+x,1/2+y,1/2+z
1/2-x,1/2-y,1/2+z
1/2+x,1/2-y,1/2-z
1/2-x,1/2+y,1/2-z
1/2-x,1/2-y,1/2-z
1/2+x,1/2+y,1/2-z
1/2-x,1/2+y,1/2+z
1/2+x,1/2-y,1/2+z
loop_
_atom_site_type_symbol
_atom_site_label
_atom_site_fract_x
_atom_site_fract_y
_atom_site_fract_z
Si Si1 0.357838 0.902731 0.167852
Si Si2 0.942714 0.666065 0.173651
Si Si3 0.803225 0.749460 0.822834
Si Si4 0.106567 0.832747 0.322140
Si Si5 0.441269 0.500000 0.328299
O O1 0.412106 0.911714 0.243819
O O2 0.325306 0.846210 0.281180
O O3 0.333949 0.000000 0.156754
O O4 0.360295 0.860834 0.000000
O O5 0.928079 0.753700 0.264560
O O6 0.000000 0.643920 0.190909
O O7 0.928263 0.676771 0.000000
O O8 0.750000 0.750000 0.750000
O O9 0.838167 0.824414 0.747397
O O10 0.800351 0.763148 0.000000
O O11 0.109434 0.835846 0.500000
O O12 0.080778 0.918334 0.258822
O O13 0.500000 0.500000 0.315908
O O14 0.424550 0.500000 0.500000
#
# Coordination Sequence:
#
# PCOD8292803 Si02
#       5
#    16  16  16  16   8
#     4  10  21  37  57  83 114 146 185 231 280 333
#     4  10  20  34  54  80 112 152 193 231 278 335
#     4  11  22  40  64  86 113 148 189 235 289 346
#     4  11  22  37  58  85 116 150 194 241 289 346
#     4  11  23  39  59  85 121 161 199 243 296 351
#
# _framework density 9.8765429999999999
#
# number of rings (size 3 to 8) (size 9 to 14) (size 15 to 20)
#    0.000    1.444    0.000    9.000    0.000    7.556 
#    2.000    2.222    0.000    0.000    0.000    0.000 
#    0.000    0.000    0.000    0.000    0.000    0.000 
#
# Total GULP energy -446107.235806 kJ/mol
# GULP energy per Si atom -12391.867661 kJ/mol
# Density = 0.985406 g / cm^3
# Si number density = 9.876543 Si / 1000 Ang^3
#
#
#
# Elastic Constant Matrix: (Units=GPa)
#
#
# Indices 1 2 3 4 5 6 
#
# 1 96.1126 23.4906 47.4656 0.0000 0.0000 0.0000
# 2 23.4906 73.4578 39.5718 0.0000 0.0000 0.0000
# 3 47.4656 39.5718 200.7003 0.0000 0.0000 0.0000
# 4 0.0000 0.0000 0.0000 28.3300 0.0000 0.0000
# 5 0.0000 0.0000 0.0000 0.0000 41.5976 0.0000
# 6 0.0000 0.0000 0.0000 0.0000 0.0000 9.9217
#
#
#
# Elastic Compliance Matrix: (Units=1/GPa)
#
#
# Indices 1 2 3 4 5 6 
#
# 1 0.012218 -0.002630 -0.002371 0.000000 0.000000 0.000000
# 2 -0.002630 0.015797 -0.002493 0.000000 0.000000 0.000000
# 3 -0.002371 -0.002493 0.006035 0.000000 0.000000 0.000000
# 4 0.000000 0.000000 0.000000 0.035298 0.000000 0.000000
# 5 0.000000 0.000000 0.000000 0.000000 0.024040 0.000000
# 6 0.000000 0.000000 0.000000 0.000000 0.000000 0.100789
#
#
# Mechanical properties :
#
#
# Convention : Reuss Voigt Hill
#
# Bulk Modulus (GPa) = 52.45838 65.70296 59.08067
# Shear Modulus (GPa) = 23.19977 33.28602 28.24290
#
# Velocity S-wave (km/s) = 3.43080 4.10946 3.78537
# Velocity P-wave (km/s) = 6.50450 7.47336 7.00570
#
# Compressibility (1/GPa) = 0.01906273
#
# Stress axis : x y z
#
# Youngs Moduli (GPa) = 81.84519 63.30283 165.70556
#
# Poissons Ratio (x) = 0.16648 0.39290
# Poissons Ratio (y) = 0.21524 0.41306
# Poissons Ratio (z) = 0.19406 0.15780
#
# Static dielectric constant tensor:
#      x y z
#    x 4.048530 0.000000 0.000000 
#    y 0.000000 3.434900 0.000000 
#    z 0.000000 0.000000 4.041870 
# 
# 
# High freq. dielectric constant tensor:
#      x y z
#    x 1.768950 0.000000 0.000000 
#    y 0.000000 1.755260 0.000000 
#    z 0.000000 0.000000 1.804710 
# 
# From -- ./inp_files/6494.got.cif
#   From: 2010.06.25/outbox.ucp.g09.slc.cvg/sg71_4_cif.got.tgz:6494.got - 2010.06.28 16:23:14.
