data_PCOD8292722
_publ_section_title
;
Structure prediction by ZEFSAII (Michael W. Deem and Ramdas Pophale) SiO2 
 PCOD8292722
Probable space group: I M M M
;
_chemical_formula_sum "Si O2"
_cell_formula_units_Z 80
_cell_length_a 18.532807
_cell_length_b 32.896257
_cell_length_c 7.662004
_cell_angle_alpha 90.000000
_cell_angle_beta 90.000000
_cell_angle_gamma 90.000000
_cell_volume 4671.217221
_symmetry_space_group_name_H-M "I M M M"
_symmetry_group_IT_number 71
_symmetry_cell_setting 'orthorhombic'
loop_
_space_group_symop_operation_xyz
x,y,z
-x,-y,z
x,-y,-z
-x,y,-z
-x,-y,-z
x,y,-z
-x,y,z
x,-y,z
1/2+x,1/2+y,1/2+z
1/2-x,1/2-y,1/2+z
1/2+x,1/2-y,1/2-z
1/2-x,1/2+y,1/2-z
1/2-x,1/2-y,1/2-z
1/2+x,1/2+y,1/2-z
1/2-x,1/2+y,1/2+z
1/2+x,1/2-y,1/2+z
loop_
_atom_site_type_symbol
_atom_site_label
_atom_site_fract_x
_atom_site_fract_y
_atom_site_fract_z
Si Si1 0.085342 0.244613 0.500000
Si Si2 0.669340 0.604735 0.700681
Si Si3 0.914338 0.336003 0.500000
Si Si4 0.584336 0.685728 0.698414
Si Si5 0.168568 0.954720 0.500000
Si Si6 0.166062 0.600356 0.310394
Si Si7 0.659985 0.045216 0.500000
O O1 0.116653 0.290229 0.500000
O O2 0.111841 0.221377 0.326079
O O3 0.000000 0.247562 0.500000
O O4 0.655819 0.591887 0.500000
O O5 0.625618 0.644885 0.749577
O O6 0.641982 0.568463 0.825716
O O7 0.753200 0.614043 0.740539
O O8 0.883589 0.359099 0.327174
O O9 0.000000 0.337703 0.500000
O O10 0.601439 0.699082 0.500000
O O11 0.500000 0.677058 0.725388
O O12 0.254442 0.957955 0.500000
O O13 0.134893 0.000000 0.500000
O O14 0.167949 0.577893 0.500000
O O15 0.132503 0.569504 0.170166
O O16 0.625887 0.000000 0.500000
#
# Coordination Sequence:
#
# PCOD8292722 Si02
#       7
#     8  16   8  16   8  16   8
#     4   9  17  31  47  66  92 121 155 193 222 261
#     4   9  16  29  48  66  94 122 149 193 231 265
#     4   9  18  35  52  65  91 125 153 181 224 282
#     4   9  17  29  48  70  91 120 159 192 226 266
#     4   9  17  27  44  72  95 120 157 191 224 268
#     4   8  17  31  48  68  93 121 150 184 226 271
#     4   9  16  29  50  74  93 116 154 191 223 266
#
# _framework density 17.126156999999999
#
# number of rings (size 3 to 8) (size 9 to 14) (size 15 to 20)
#    0.600    2.600    0.000    0.600    0.000    0.800 
#    1.800    5.500    0.000    3.000    0.000    2.800 
#    0.000    0.000    0.000    0.000    0.000    0.000 
#
# Total GULP energy -495707.662072 kJ/mol
# GULP energy per Si atom -12392.691552 kJ/mol
# Density = 1.708718 g / cm^3
# Si number density = 17.126157 Si / 1000 Ang^3
#
#
#
# Elastic Constant Matrix: (Units=GPa)
#
#
# Indices 1 2 3 4 5 6 
#
# 1 36.5680 38.5854 26.1771 -0.0010 -0.0043 0.0007
# 2 38.5854 173.5323 93.9254 -0.0037 0.0008 -0.0004
# 3 26.1771 93.9254 120.4318 -0.0356 0.0130 -0.0003
# 4 -0.0010 -0.0037 -0.0356 29.5832 0.0020 -0.0018
# 5 -0.0043 0.0008 0.0130 0.0020 15.5146 -0.0016
# 6 0.0007 -0.0004 -0.0003 -0.0018 -0.0016 14.4322
#
#
#
# Elastic Compliance Matrix: (Units=1/GPa)
#
#
# Indices 1 2 3 4 5 6 
#
# 1 0.036250 -0.006568 -0.002757 -0.000003 0.000013 -0.000002
# 2 -0.006568 0.011162 -0.007278 -0.000008 0.000004 0.000001
# 3 -0.002757 -0.007278 0.014579 0.000017 -0.000013 0.000000
# 4 -0.000003 -0.000008 0.000017 0.033803 -0.000004 0.000004
# 5 0.000013 0.000004 -0.000013 -0.000004 0.064455 0.000007
# 6 -0.000002 0.000001 0.000000 0.000004 0.000007 0.069289
#
#
# Mechanical properties :
#
#
# Convention : Reuss Voigt Hill
#
# Bulk Modulus (GPa) = 34.73960 71.98976 53.36468
# Shear Modulus (GPa) = 18.35941 23.36230 20.86086
#
# Velocity S-wave (km/s) = 3.27771 3.69742 3.49387
# Velocity P-wave (km/s) = 5.88668 7.76879 6.89228
#
# Compressibility (1/GPa) = 0.02878560
#
# Stress axis : x y z
#
# Youngs Moduli (GPa) = 27.58595 89.58772 68.59330
#
# Poissons Ratio (x) = 0.58843 0.18910
# Poissons Ratio (y) = 0.18119 0.49921
# Poissons Ratio (z) = 0.07605 0.65200
#
# Static dielectric constant tensor:
#      x y z
#    x 2.859050 0.000000 -0.000010 
#    y 0.000000 3.293790 -0.000040 
#    z -0.000010 -0.000040 3.313580 
# 
# 
# High freq. dielectric constant tensor:
#      x y z
#    x 1.625010 0.000000 0.000000 
#    y 0.000000 1.652160 0.000000 
#    z 0.000000 0.000000 1.667190 
# 
# From -- ./inp_files/10346.got.cif
#   From: 2010.06.25/outbox.cif.g09.slc.cpg/sg71_6_cif.got.tgz:10346.got - 2010.06.28 04:59:45.
