data_PCOD8292642
_publ_section_title
;
Structure prediction by ZEFSAII (Michael W. Deem and Ramdas Pophale) SiO2 
 PCOD8292642
Probable space group: I M M M
;
_chemical_formula_sum "Si O2"
_cell_formula_units_Z 88
_cell_length_a 9.489947
_cell_length_b 37.568884
_cell_length_c 13.485895
_cell_angle_alpha 90.000000
_cell_angle_beta 90.000000
_cell_angle_gamma 90.000000
_cell_volume 4808.081884
_symmetry_space_group_name_H-M "I M M M"
_symmetry_group_IT_number 71
_symmetry_cell_setting 'orthorhombic'
loop_
_space_group_symop_operation_xyz
x,y,z
-x,-y,z
x,-y,-z
-x,y,-z
-x,-y,-z
x,y,-z
-x,y,z
x,-y,z
1/2+x,1/2+y,1/2+z
1/2-x,1/2-y,1/2+z
1/2+x,1/2-y,1/2-z
1/2-x,1/2+y,1/2-z
1/2-x,1/2-y,1/2-z
1/2+x,1/2+y,1/2-z
1/2-x,1/2+y,1/2+z
1/2+x,1/2-y,1/2+z
loop_
_atom_site_type_symbol
_atom_site_label
_atom_site_fract_x
_atom_site_fract_y
_atom_site_fract_z
Si Si1 0.668821 0.919190 0.803815
Si Si2 0.837916 0.340663 0.289870
Si Si3 0.167384 0.540286 0.890020
Si Si4 0.167641 0.459701 0.500000
Si Si5 0.159800 0.730397 0.383100
Si Si6 0.161512 0.295852 0.109748
O O1 0.500000 0.919006 0.800693
O O2 0.731630 0.879005 0.811784
O O3 0.727946 0.936261 0.701239
O O4 0.723876 0.940425 0.900378
O O5 0.772516 0.307661 0.351786
O O6 0.818813 0.331595 0.173630
O O7 0.000000 0.343791 0.321011
O O8 0.221187 0.500000 0.874542
O O9 0.000000 0.541071 0.885965
O O10 0.216638 0.554050 0.000000
O O11 0.224945 0.500000 0.500000
O O12 0.000000 0.459288 0.500000
O O13 0.161693 0.732648 0.500000
O O14 0.251578 0.763277 0.341272
O O15 0.000000 0.733480 0.340901
O O16 0.000000 0.283481 0.108591
O O17 0.216074 0.305203 0.000000
#
# Coordination Sequence:
#
# PCOD8292642 Si02
#       6
#    16  16  16   8  16  16
#     4   9  16  23  33  49  69  95 128 166 208 244
#     4   9  17  26  37  54  75 100 130 170 210 243
#     4   8  13  21  32  45  63  89 123 161 196 235
#     4   9  16  24  34  48  70 100 133 169 205 247
#     4   9  17  28  43  60  79 105 139 174 206 246
#     4   9  17  29  43  59  80 106 138 173 209 248
#
# _framework density 18.302517999999999
#
# number of rings (size 3 to 8) (size 9 to 14) (size 15 to 20)
#    0.000    3.182    0.000    1.636    1.273    2.909 
#    0.000    3.636    0.000    0.000    0.000    0.000 
#    0.000    0.000    0.000    0.000    0.000   18.182 
#
# Total GULP energy -545138.096314 kJ/mol
# GULP energy per Si atom -12389.502189 kJ/mol
# Density = 1.826086 g / cm^3
# Si number density = 18.302518 Si / 1000 Ang^3
#
#
#
# Elastic Constant Matrix: (Units=GPa)
#
#
# Indices 1 2 3 4 5 6 
#
# 1 15.0912 17.1227 6.3780 0.0001 0.0000 0.0000
# 2 17.1227 147.9510 57.1237 0.0000 0.0002 0.0001
# 3 6.3780 57.1237 102.9684 0.0000 0.0005 0.0003
# 4 0.0001 0.0000 0.0000 27.5679 0.0004 0.0002
# 5 0.0000 0.0002 0.0005 0.0004 5.5179 -0.0001
# 6 0.0000 0.0001 0.0003 0.0002 -0.0001 8.4639
#
#
#
# Elastic Compliance Matrix: (Units=1/GPa)
#
#
# Indices 1 2 3 4 5 6 
#
# 1 0.076284 -0.008913 0.000220 0.000000 0.000000 0.000000
# 2 -0.008913 0.009643 -0.004797 0.000000 0.000000 0.000000
# 3 0.000220 -0.004797 0.012360 0.000000 -0.000001 0.000000
# 4 0.000000 0.000000 0.000000 0.036274 -0.000003 -0.000001
# 5 0.000000 0.000000 -0.000001 -0.000003 0.181230 0.000003
# 6 0.000000 0.000000 0.000000 -0.000001 0.000003 0.118148
#
#
# Mechanical properties :
#
#
# Convention : Reuss Voigt Hill
#
# Bulk Modulus (GPa) = 14.02440 47.47327 30.74883
# Shear Modulus (GPa) = 10.31589 20.66902 15.49246
#
# Velocity S-wave (km/s) = 2.37667 3.36415 2.91256
# Velocity P-wave (km/s) = 3.90008 6.40971 5.30542
#
# Compressibility (1/GPa) = 0.07130431
#
# Stress axis : x y z
#
# Youngs Moduli (GPa) = 13.10890 103.70390 80.90889
#
# Poissons Ratio (x) = 0.92435 -0.01777
# Poissons Ratio (y) = 0.11684 0.38816
# Poissons Ratio (z) = -0.00288 0.49751
#
# Static dielectric constant tensor:
#      x y z
#    x 2.744020 0.000000 0.000000 
#    y 0.000000 3.587150 0.000000 
#    z 0.000000 0.000000 3.707710 
# 
# 
# High freq. dielectric constant tensor:
#      x y z
#    x 1.615550 0.000000 0.000000 
#    y 0.000000 1.711530 0.000000 
#    z 0.000000 0.000000 1.731980 
# 
# From -- ./inp_files/33131.got.cif
#   From: 2010.06.25/outbox.cif.g09.slc.cpg/sg71_17_cif.got.tgz:33131.got - 2010.06.28 04:59:45.
