data_PCOD8292908
_publ_section_title
;
Structure prediction by ZEFSAII (Michael W. Deem and Ramdas Pophale) SiO2 
 PCOD8292908
Probable space group: I B A M
;
_chemical_formula_sum "Si O2"
_cell_formula_units_Z 72
_cell_length_a 22.653608
_cell_length_b 9.255048
_cell_length_c 18.304326
_cell_angle_alpha 90.000000
_cell_angle_beta 90.000000
_cell_angle_gamma 90.000000
_cell_volume 3837.689188
_symmetry_space_group_name_H-M "I B A M"
_symmetry_group_IT_number 72
_symmetry_cell_setting 'orthorhombic'
loop_
_space_group_symop_operation_xyz
x,y,z
-x,-y,z
x,-y,1/2-z
-x,y,1/2-z
-x,-y,-z
x,y,-z
-x,y,1/2+z
x,-y,1/2+z
1/2+x,1/2+y,1/2+z
1/2-x,1/2-y,1/2+z
1/2+x,1/2-y,-z
1/2-x,1/2+y,-z
1/2-x,1/2-y,1/2-z
1/2+x,1/2+y,1/2-z
1/2-x,1/2+y,z
1/2+x,1/2-y,z
loop_
_atom_site_type_symbol
_atom_site_label
_atom_site_fract_x
_atom_site_fract_y
_atom_site_fract_z
Si Si1 0.225754 0.699074 0.826307
Si Si2 0.557898 0.594584 0.583019
Si Si3 0.638973 0.000000 0.750000
Si Si4 0.174414 0.003556 0.338003
Si Si5 0.033960 0.646667 0.681113
O O1 0.250000 0.750000 0.750000
O O2 0.176659 0.577422 0.812725
O O3 0.198098 0.839387 0.866652
O O4 0.280379 0.620340 0.868022
O O5 0.500000 0.500000 0.589234
O O6 0.579599 0.610663 0.500000
O O7 0.609799 0.522978 0.629988
O O8 0.538206 0.750615 0.612030
O O9 0.600374 0.116982 0.792932
O O10 0.170767 0.000000 0.250000
O O11 0.000000 0.500000 0.658335
O O12 0.000000 0.719815 0.750000
#
# Coordination Sequence:
#
# PCOD8292908 Si02
#       5
#    16  16   8  16  16
#     4  10  17  31  55  90 120 143 188 242 298 336
#     4  11  26  42  57  84 123 159 196 243 301 362
#     4  10  17  32  58  94 121 142 190 252 294 342
#     4  10  21  34  61  88 114 154 195 247 289 346
#     4   9  21  36  61  92 117 150 200 247 287 350
#
# _framework density 18.761289999999999
#
# number of rings (size 3 to 8) (size 9 to 14) (size 15 to 20)
#    0.000    2.222    3.333    2.667    9.333    0.444 
#    0.000    1.111    0.000    0.000    0.000    0.000 
#    0.000    0.000    0.000    0.000    0.000    0.000 
#
# Total GULP energy -446195.003704 kJ/mol
# GULP energy per Si atom -12394.305658 kJ/mol
# Density = 1.871859 g / cm^3
# Si number density = 18.761290 Si / 1000 Ang^3
#
#
#
# Elastic Constant Matrix: (Units=GPa)
#
#
# Indices 1 2 3 4 5 6 
#
# 1 116.8132 40.6946 36.1216 0.0000 0.0000 0.0000
# 2 40.6946 98.7441 40.8319 0.0000 0.0000 0.0000
# 3 36.1216 40.8319 61.6592 0.0000 0.0000 0.0000
# 4 0.0000 0.0000 0.0000 6.6499 0.0000 0.0000
# 5 0.0000 0.0000 0.0000 0.0000 13.6625 0.0000
# 6 0.0000 0.0000 0.0000 0.0000 0.0000 23.6430
#
#
#
# Elastic Compliance Matrix: (Units=1/GPa)
#
#
# Indices 1 2 3 4 5 6 
#
# 1 0.010902 -0.002550 -0.004698 0.000000 0.000000 0.000000
# 2 -0.002550 0.014543 -0.008136 0.000000 0.000000 0.000000
# 3 -0.004698 -0.008136 0.024358 0.000000 0.000000 0.000000
# 4 0.000000 0.000000 0.000000 0.150378 0.000000 0.000000
# 5 0.000000 0.000000 0.000000 0.000000 0.073193 0.000000
# 6 0.000000 0.000000 0.000000 0.000000 0.000000 0.042296
#
#
# Mechanical properties :
#
#
# Convention : Reuss Voigt Hill
#
# Bulk Modulus (GPa) = 52.53767 56.94585 54.74176
# Shear Modulus (GPa) = 14.17301 19.42898 16.80099
#
# Velocity S-wave (km/s) = 2.75151 3.22155 2.99576
# Velocity P-wave (km/s) = 6.17725 6.65256 6.41931
#
# Compressibility (1/GPa) = 0.01903396
#
# Stress axis : x y z
#
# Youngs Moduli (GPa) = 91.72812 68.76274 41.05365
#
# Poissons Ratio (x) = 0.17537 0.19286
# Poissons Ratio (y) = 0.23393 0.33403
# Poissons Ratio (z) = 0.43091 0.55949
#
# Static dielectric constant tensor:
#      x y z
#    x 3.569340 0.000000 0.000000 
#    y 0.000000 3.770100 0.000000 
#    z 0.000000 0.000000 2.995040 
# 
# 
# High freq. dielectric constant tensor:
#      x y z
#    x 1.753960 0.000000 0.000000 
#    y 0.000000 1.742050 0.000000 
#    z 0.000000 0.000000 1.665420 
# 
# From -- ./inp_files/40074.got.cif
#   From: 2010.03.12/outbox.cif.g09.slc.cpg/sg72_21_cif.got.tgz:40074.got - 2010.04.16 14:54:00.
