data_PCOD8292884
_publ_section_title
;
Structure prediction by ZEFSAII (Michael W. Deem and Ramdas Pophale) SiO2 
 PCOD8292884
Probable space group: I B A M
;
_chemical_formula_sum "Si O2"
_cell_formula_units_Z 96
_cell_length_a 26.400034
_cell_length_b 28.947231
_cell_length_c 8.627477
_cell_angle_alpha 90.000000
_cell_angle_beta 90.000000
_cell_angle_gamma 90.000000
_cell_volume 6593.185930
_symmetry_space_group_name_H-M "I B A M"
_symmetry_group_IT_number 72
_symmetry_cell_setting 'orthorhombic'
loop_
_space_group_symop_operation_xyz
x,y,z
-x,-y,z
x,-y,1/2-z
-x,y,1/2-z
-x,-y,-z
x,y,-z
-x,y,1/2+z
x,-y,1/2+z
1/2+x,1/2+y,1/2+z
1/2-x,1/2-y,1/2+z
1/2+x,1/2-y,-z
1/2-x,1/2+y,-z
1/2-x,1/2-y,1/2-z
1/2+x,1/2+y,1/2-z
1/2-x,1/2+y,z
1/2+x,1/2-y,z
loop_
_atom_site_type_symbol
_atom_site_label
_atom_site_fract_x
_atom_site_fract_y
_atom_site_fract_z
Si Si1 0.701281 0.775773 0.316307
Si Si2 0.285537 0.546564 0.181914
Si Si3 0.445541 0.643000 0.184432
Si Si4 0.146968 0.196494 0.683714
Si Si5 0.756015 0.854456 0.816874
Si Si6 0.100044 0.952915 0.682932
O O1 0.698702 0.772762 0.500000
O O2 0.750000 0.750000 0.250000
O O3 0.652934 0.749836 0.241753
O O4 0.707651 0.829056 0.261981
O O5 0.260210 0.500000 0.250000
O O6 0.252810 0.591464 0.229239
O O7 0.342657 0.552406 0.247186
O O8 0.287668 0.541446 0.000000
O O9 0.500000 0.656232 0.250000
O O10 0.407098 0.679293 0.258828
O O11 0.431816 0.591161 0.240380
O O12 0.443733 0.647419 0.000000
O O13 0.151240 0.194132 0.500000
O O14 0.190503 0.165006 0.758263
O O15 0.753943 0.847050 0.000000
O O16 0.099372 0.955738 0.500000
O O17 0.075483 0.000000 0.750000
#
# Coordination Sequence:
#
# PCOD8292884 Si02
#       6
#    16  16  16  16  16  16
#     4  10  18  28  43  64  85 106 131 164 204 248
#     4   9  17  28  42  60  82 110 138 171 210 249
#     4  11  22  36  48  62  81 104 136 175 218 261
#     4  11  20  31  46  63  81 106 134 168 211 254
#     4  10  17  29  45  63  86 109 135 170 207 247
#     4   9  18  32  46  59  77 102 134 174 218 258
#
# _framework density 14.560487999999999
#
# number of rings (size 3 to 8) (size 9 to 14) (size 15 to 20)
#    0.000    2.000    1.667    6.000    0.000    3.000 
#    0.000    1.667    0.000    0.000    0.000    0.000 
#    0.000    0.000    0.000    0.000    0.000    0.833 
#
# Total GULP energy -595028.562467 kJ/mol
# GULP energy per Si atom -12396.428385 kJ/mol
# Density = 1.452735 g / cm^3
# Si number density = 14.560488 Si / 1000 Ang^3
#
#
#
# Elastic Constant Matrix: (Units=GPa)
#
#
# Indices 1 2 3 4 5 6 
#
# 1 53.0546 51.3979 17.7071 0.0000 0.0000 0.0000
# 2 51.3979 108.2547 28.1438 0.0000 0.0000 0.0000
# 3 17.7071 28.1438 56.0803 0.0000 0.0000 0.0000
# 4 0.0000 0.0000 0.0000 25.7562 0.0000 0.0000
# 5 0.0000 0.0000 0.0000 0.0000 18.1838 0.0000
# 6 0.0000 0.0000 0.0000 0.0000 0.0000 21.4089
#
#
#
# Elastic Compliance Matrix: (Units=1/GPa)
#
#
# Indices 1 2 3 4 5 6 
#
# 1 0.035380 -0.015979 -0.003152 0.000000 0.000000 0.000000
# 2 -0.015979 0.017840 -0.003908 0.000000 0.000000 0.000000
# 3 -0.003152 -0.003908 0.020788 0.000000 0.000000 0.000000
# 4 0.000000 0.000000 0.000000 0.038826 0.000000 0.000000
# 5 0.000000 0.000000 0.000000 0.000000 0.054994 0.000000
# 6 0.000000 0.000000 0.000000 0.000000 0.000000 0.046709
#
#
# Mechanical properties :
#
#
# Convention : Reuss Voigt Hill
#
# Bulk Modulus (GPa) = 35.80275 45.76525 40.78400
# Shear Modulus (GPa) = 18.52368 21.07915 19.80142
#
# Velocity S-wave (km/s) = 3.57064 3.80899 3.69174
# Velocity P-wave (km/s) = 6.45304 7.13049 6.80020
#
# Compressibility (1/GPa) = 0.02793082
#
# Stress axis : x y z
#
# Youngs Moduli (GPa) = 28.26438 56.05443 48.10469
#
# Poissons Ratio (x) = 0.89567 0.15164
# Poissons Ratio (y) = 0.45162 0.18798
# Poissons Ratio (z) = 0.08910 0.21905
#
# Static dielectric constant tensor:
#      x y z
#    x 2.649700 0.000000 0.000000 
#    y 0.000000 3.343540 0.000000 
#    z 0.000000 0.000000 2.882910 
# 
# 
# High freq. dielectric constant tensor:
#      x y z
#    x 1.499840 0.000000 0.000000 
#    y 0.000000 1.557190 0.000000 
#    z 0.000000 0.000000 1.571930 
# 
# From -- ./inp_files/8473.got.cif
#   From: 2010.03.12/outbox.cif.g09.slc.cpg/sg72_5_cif.got.tgz:8473.got - 2010.04.16 14:54:00.
