data_PCOD8292744
_publ_section_title
;
Structure prediction by ZEFSAII (Michael W. Deem and Ramdas Pophale) SiO2 
 PCOD8292744
Probable space group: I M M M
;
_chemical_formula_sum "Si O2"
_cell_formula_units_Z 104
_cell_length_a 21.157366
_cell_length_b 9.751646
_cell_length_c 28.278635
_cell_angle_alpha 90.000000
_cell_angle_beta 90.000000
_cell_angle_gamma 90.000000
_cell_volume 5834.423753
_symmetry_space_group_name_H-M "I M M M"
_symmetry_group_IT_number 71
_symmetry_cell_setting 'orthorhombic'
loop_
_space_group_symop_operation_xyz
x,y,z
-x,-y,z
x,-y,-z
-x,y,-z
-x,-y,-z
x,y,-z
-x,y,z
x,-y,z
1/2+x,1/2+y,1/2+z
1/2-x,1/2-y,1/2+z
1/2+x,1/2-y,1/2-z
1/2-x,1/2+y,1/2-z
1/2-x,1/2-y,1/2-z
1/2+x,1/2+y,1/2-z
1/2-x,1/2+y,1/2+z
1/2+x,1/2-y,1/2+z
loop_
_atom_site_type_symbol
_atom_site_label
_atom_site_fract_x
_atom_site_fract_y
_atom_site_fract_z
Si Si1 0.337968 0.341613 0.690575
Si Si2 0.340837 0.845024 0.447134
Si Si3 0.069300 0.163153 0.729649
Si Si4 0.895834 0.837413 0.626716
Si Si5 0.000000 0.163535 0.446027
Si Si6 0.928624 0.845027 0.897318
Si Si7 0.246947 0.839433 0.635385
O O1 0.316072 0.500000 0.695691
O O2 0.372664 0.284391 0.737785
O O3 0.390011 0.324599 0.650334
O O4 0.277053 0.247311 0.678798
O O5 0.315214 0.823171 0.500000
O O6 0.401370 0.750030 0.438636
O O7 0.284108 0.806117 0.412445
O O8 0.363289 0.000000 0.438431
O O9 0.077129 0.218660 0.676333
O O10 0.000000 0.212256 0.748036
O O11 0.071964 0.000000 0.730920
O O12 0.937801 0.782685 0.582515
O O13 0.823486 0.788157 0.623578
O O14 0.899589 0.000000 0.626335
O O15 0.000000 0.221766 0.500000
O O16 0.000000 0.000000 0.447825
O O17 0.000000 0.801381 0.886379
O O18 0.924355 0.000000 0.915788
O O19 0.248710 0.000000 0.649452
#
# Coordination Sequence:
#
# PCOD8292744 Si02
#       7
#    16  16  16  16   8  16  16
#     4   9  17  29  46  68  91 121 158 190 223 269
#     4   9  18  31  44  59  83 117 153 184 220 272
#     4   9  15  25  44  67  92 120 153 193 232 272
#     4   9  16  27  43  66  94 122 153 189 232 278
#     4   9  16  26  42  68 101 129 155 195 244 287
#     4   9  17  29  44  63  87 112 145 190 232 266
#     4   9  18  31  46  65  93 124 152 188 232 277
#
# _framework density 17.825239
#
# number of rings (size 3 to 8) (size 9 to 14) (size 15 to 20)
#    0.000    3.000    0.769    0.462    0.000    4.000 
#    0.000    4.615    0.000    1.385    0.000    0.538 
#    0.000    0.615    0.000    0.000    0.000    0.000 
#
# Total GULP energy -644487.713812 kJ/mol
# GULP energy per Si atom -12393.994496 kJ/mol
# Density = 1.778467 g / cm^3
# Si number density = 17.825239 Si / 1000 Ang^3
#
#
#
# Elastic Constant Matrix: (Units=GPa)
#
#
# Indices 1 2 3 4 5 6 
#
# 1 139.5818 37.0756 54.8665 0.0000 0.0000 0.0000
# 2 37.0756 33.1747 26.5172 0.0000 0.0000 0.0000
# 3 54.8665 26.5172 113.1820 0.0000 0.0000 0.0000
# 4 0.0000 0.0000 0.0000 14.2625 0.0000 0.0000
# 5 0.0000 0.0000 0.0000 0.0000 23.4110 0.0000
# 6 0.0000 0.0000 0.0000 0.0000 0.0000 19.1310
#
#
#
# Elastic Compliance Matrix: (Units=1/GPa)
#
#
# Indices 1 2 3 4 5 6 
#
# 1 0.010962 -0.009847 -0.003007 0.000000 0.000000 0.000000
# 2 -0.009847 0.045935 -0.005988 0.000000 0.000000 0.000000
# 3 -0.003007 -0.005988 0.011696 0.000000 0.000000 0.000000
# 4 0.000000 0.000000 0.000000 0.070114 0.000000 0.000000
# 5 0.000000 0.000000 0.000000 0.000000 0.042715 0.000000
# 6 0.000000 0.000000 0.000000 0.000000 0.000000 0.052271
#
#
# Mechanical properties :
#
#
# Convention : Reuss Voigt Hill
#
# Bulk Modulus (GPa) = 32.35416 58.09524 45.22470
# Shear Modulus (GPa) = 17.75057 22.52619 20.13838
#
# Velocity S-wave (km/s) = 3.15907 3.55875 3.36485
# Velocity P-wave (km/s) = 5.61217 7.03907 6.36573
#
# Compressibility (1/GPa) = 0.03090793
#
# Stress axis : x y z
#
# Youngs Moduli (GPa) = 91.22581 21.76967 85.49992
#
# Poissons Ratio (x) = 0.21438 0.25708
# Poissons Ratio (y) = 0.89834 0.51201
# Poissons Ratio (z) = 0.27429 0.13037
#
# Static dielectric constant tensor:
#      x y z
#    x 3.476870 0.000000 0.000000 
#    y 0.000000 2.983090 0.000000 
#    z 0.000000 0.000000 3.460010 
# 
# 
# High freq. dielectric constant tensor:
#      x y z
#    x 1.695930 0.000000 0.000000 
#    y 0.000000 1.635640 0.000000 
#    z 0.000000 0.000000 1.691710 
# 
# From -- ./inp_files/30200.got.cif
#   From: 2010.06.25/outbox.cif.g09.slc.cpg/sg71_16_cif.got.tgz:30200.got - 2010.06.28 04:59:45.
