data_PCOD8292546
_publ_section_title
;
Structure prediction by ZEFSAII (Michael W. Deem and Ramdas Pophale) SiO2 
 PCOD8292546
Probable space group: I M M M
;
_chemical_formula_sum "Si O2"
_cell_formula_units_Z 64
_cell_length_a 25.860734
_cell_length_b 8.532678
_cell_length_c 14.791699
_cell_angle_alpha 90.000000
_cell_angle_beta 90.000000
_cell_angle_gamma 90.000000
_cell_volume 3263.955768
_symmetry_space_group_name_H-M "I M M M"
_symmetry_group_IT_number 71
_symmetry_cell_setting 'orthorhombic'
loop_
_space_group_symop_operation_xyz
x,y,z
-x,-y,z
x,-y,-z
-x,y,-z
-x,-y,-z
x,y,-z
-x,y,z
x,-y,z
1/2+x,1/2+y,1/2+z
1/2-x,1/2-y,1/2+z
1/2+x,1/2-y,1/2-z
1/2-x,1/2+y,1/2-z
1/2-x,1/2-y,1/2-z
1/2+x,1/2+y,1/2-z
1/2-x,1/2+y,1/2+z
1/2+x,1/2-y,1/2+z
loop_
_atom_site_type_symbol
_atom_site_label
_atom_site_fract_x
_atom_site_fract_y
_atom_site_fract_z
Si Si1 0.000000 0.184875 0.397331
Si Si2 0.859764 0.315389 0.861611
Si Si3 0.106862 0.315527 0.664504
Si Si4 0.670039 0.683164 0.000000
Si Si5 0.718153 0.682458 0.500000
Si Si6 0.443789 0.184227 0.500000
O O1 0.050385 0.240907 0.343877
O O2 0.000000 0.252670 0.500000
O O3 0.000000 0.000000 0.400918
O O4 0.849127 0.500000 0.873249
O O5 0.865824 0.264509 0.757940
O O6 0.812848 0.223230 0.908541
O O7 0.912746 0.264727 0.910794
O O8 0.099395 0.500000 0.660306
O O9 0.144942 0.259332 0.587419
O O10 0.657975 0.500000 0.000000
O O11 0.730581 0.714285 0.000000
O O12 0.732573 0.500000 0.500000
O O13 0.500000 0.267150 0.500000
O O14 0.451387 0.000000 0.500000
#
# Coordination Sequence:
#
# PCOD8292546 Si02
#       6
#     8  16  16   8   8   8
#     4  11  23  39  59  86 126 169 200 242 305 357
#     4   9  20  38  60  88 121 156 197 247 302 352
#     4  11  23  39  63  92 121 157 206 252 297 357
#     4  12  25  42  63  86 119 158 200 251 308 359
#     4  11  23  41  65  89 119 157 199 247 300 358
#     4   8  14  28  54  83 114 149 190 234 283 348
#
# _framework density 19.608108999999999
#
# number of rings (size 3 to 8) (size 9 to 14) (size 15 to 20)
#    0.000    1.750    1.250    4.125    1.750    3.500 
#    0.000    0.000    0.000    1.500    0.000    0.000 
#    0.000    0.000    0.000    0.000    0.000    0.000 
#
# Total GULP energy -396855.637471 kJ/mol
# GULP energy per Si atom -12401.738671 kJ/mol
# Density = 1.956348 g / cm^3
# Si number density = 19.608109 Si / 1000 Ang^3
#
#
#
# Elastic Constant Matrix: (Units=GPa)
#
#
# Indices 1 2 3 4 5 6 
#
# 1 127.4589 8.6653 52.1510 0.0000 0.0000 0.0000
# 2 8.6653 49.8212 29.7934 0.0000 0.0000 0.0000
# 3 52.1510 29.7934 161.1697 0.0000 0.0000 0.0000
# 4 0.0000 0.0000 0.0000 21.1291 0.0000 0.0000
# 5 0.0000 0.0000 0.0000 0.0000 38.5948 0.0000
# 6 0.0000 0.0000 0.0000 0.0000 0.0000 33.3923
#
#
#
# Elastic Compliance Matrix: (Units=1/GPa)
#
#
# Indices 1 2 3 4 5 6 
#
# 1 0.009045 0.000199 -0.002963 0.000000 0.000000 0.000000
# 2 0.000199 0.022571 -0.004237 0.000000 0.000000 0.000000
# 3 -0.002963 -0.004237 0.007947 0.000000 0.000000 0.000000
# 4 0.000000 0.000000 0.000000 0.047328 0.000000 0.000000
# 5 0.000000 0.000000 0.000000 0.000000 0.025910 0.000000
# 6 0.000000 0.000000 0.000000 0.000000 0.000000 0.029947
#
#
# Mechanical properties :
#
#
# Convention : Reuss Voigt Hill
#
# Bulk Modulus (GPa) = 39.12394 57.74105 48.43250
# Shear Modulus (GPa) = 30.25354 35.14591 32.69973
#
# Velocity S-wave (km/s) = 3.93225 4.23829 4.08813
# Velocity P-wave (km/s) = 6.37284 7.31179 6.85840
#
# Compressibility (1/GPa) = 0.02555979
#
# Stress axis : x y z
#
# Youngs Moduli (GPa) = 110.56253 44.30510 125.83760
#
# Poissons Ratio (x) = -0.00882 0.37291
# Poissons Ratio (y) = -0.02201 0.53315
# Poissons Ratio (z) = 0.32765 0.18771
#
# Static dielectric constant tensor:
#      x y z
#    x 3.733180 0.000000 0.000000 
#    y 0.000000 3.458480 0.000000 
#    z 0.000000 0.000000 3.787290 
# 
# 
# High freq. dielectric constant tensor:
#      x y z
#    x 1.772580 0.000000 0.000000 
#    y 0.000000 1.755350 0.000000 
#    z 0.000000 0.000000 1.772320 
# 
# From -- ./inp_files/38795.got.cif
#   From: 2010.06.25/outbox.cif.g09.slc.cpg/sg71_20_cif.got.tgz:38795.got - 2010.06.28 04:59:45.
