data_PCOD8292501
_publ_section_title
;
Structure prediction by ZEFSAII (Michael W. Deem and Ramdas Pophale) SiO2 
 PCOD8292501
Probable space group: I M M M
;
_chemical_formula_sum "Si O2"
_cell_formula_units_Z 64
_cell_length_a 35.065616
_cell_length_b 8.305724
_cell_length_c 10.288222
_cell_angle_alpha 90.000000
_cell_angle_beta 90.000000
_cell_angle_gamma 90.000000
_cell_volume 2996.396595
_symmetry_space_group_name_H-M "I M M M"
_symmetry_group_IT_number 71
_symmetry_cell_setting 'orthorhombic'
loop_
_space_group_symop_operation_xyz
x,y,z
-x,-y,z
x,-y,-z
-x,y,-z
-x,-y,-z
x,y,-z
-x,y,z
x,-y,z
1/2+x,1/2+y,1/2+z
1/2-x,1/2-y,1/2+z
1/2+x,1/2-y,1/2-z
1/2-x,1/2+y,1/2-z
1/2-x,1/2-y,1/2-z
1/2+x,1/2+y,1/2-z
1/2-x,1/2+y,1/2+z
1/2+x,1/2-y,1/2+z
loop_
_atom_site_type_symbol
_atom_site_label
_atom_site_fract_x
_atom_site_fract_y
_atom_site_fract_z
Si Si1 0.791486 0.817314 0.500000
Si Si2 0.542872 0.308706 0.000000
Si Si3 0.709953 0.314287 0.500000
Si Si4 0.586550 0.311748 0.254707
Si Si5 0.045040 0.683371 0.000000
Si Si6 0.330471 0.185162 0.247580
O O1 0.755596 0.698289 0.500000
O O2 0.817375 0.791292 0.626184
O O3 0.776515 0.000000 0.500000
O O4 0.565472 0.246485 0.126066
O O5 0.540498 0.500000 0.000000
O O6 0.500000 0.236470 0.000000
O O7 0.697606 0.500000 0.500000
O O8 0.693955 0.228475 0.626813
O O9 0.595766 0.500000 0.243897
O O10 0.559181 0.278621 0.374768
O O11 0.625401 0.215744 0.276378
O O12 0.060307 0.500000 0.000000
O O13 0.000000 0.687759 0.000000
O O14 0.323665 0.000000 0.212960
#
# Coordination Sequence:
#
# PCOD8292501 Si02
#       6
#     8   8   8  16   8  16
#     4  12  25  44  67  95 128 165 209 256 309 370
#     4   9  19  36  60  90 121 153 196 251 306 361
#     4  12  25  44  67  94 126 164 209 258 313 372
#     4  11  22  39  64  92 122 160 206 257 312 371
#     4  11  24  41  60  87 125 166 208 257 312 371
#     4  12  25  43  65  93 128 167 209 257 313 372
#
# _framework density 21.358986999999999
#
# number of rings (size 3 to 8) (size 9 to 14) (size 15 to 20)
#    0.000    0.750    0.000    8.625    0.000    3.000 
#    0.000    1.875    0.000    4.500    0.000    0.000 
#    0.000    0.000    0.000    0.000    0.000    0.000 
#
# Total GULP energy -397095.388059 kJ/mol
# GULP energy per Si atom -12409.230877 kJ/mol
# Density = 2.131037 g / cm^3
# Si number density = 21.358987 Si / 1000 Ang^3
#
#
#
# Elastic Constant Matrix: (Units=GPa)
#
#
# Indices 1 2 3 4 5 6 
#
# 1 107.0768 14.5057 34.9165 0.0000 0.0000 0.0000
# 2 14.5057 88.9057 19.0426 0.0000 0.0000 0.0000
# 3 34.9165 19.0426 162.3377 0.0000 0.0000 0.0000
# 4 0.0000 0.0000 0.0000 27.6791 0.0000 0.0000
# 5 0.0000 0.0000 0.0000 0.0000 40.1705 0.0000
# 6 0.0000 0.0000 0.0000 0.0000 0.0000 26.3346
#
#
#
# Elastic Compliance Matrix: (Units=1/GPa)
#
#
# Indices 1 2 3 4 5 6 
#
# 1 0.010171 -0.001222 -0.002044 0.000000 0.000000 0.000000
# 2 -0.001222 0.011684 -0.001108 0.000000 0.000000 0.000000
# 3 -0.002044 -0.001108 0.006730 0.000000 0.000000 0.000000
# 4 0.000000 0.000000 0.000000 0.036128 0.000000 0.000000
# 5 0.000000 0.000000 0.000000 0.000000 0.024894 0.000000
# 6 0.000000 0.000000 0.000000 0.000000 0.000000 0.037973
#
#
# Mechanical properties :
#
#
# Convention : Reuss Voigt Hill
#
# Bulk Modulus (GPa) = 50.40927 55.02777 52.71852
# Shear Modulus (GPa) = 34.97953 38.16054 36.57003
#
# Velocity S-wave (km/s) = 4.05124 4.23144 4.14232
# Velocity P-wave (km/s) = 6.74800 7.04930 6.90030
#
# Compressibility (1/GPa) = 0.01983762
#
# Stress axis : x y z
#
# Youngs Moduli (GPa) = 98.31648 85.58359 148.59567
#
# Poissons Ratio (x) = 0.10455 0.30379
# Poissons Ratio (y) = 0.12011 0.16462
# Poissons Ratio (z) = 0.20100 0.09482
#
# Static dielectric constant tensor:
#      x y z
#    x 3.903540 0.000000 0.000000 
#    y 0.000000 3.800920 0.000000 
#    z 0.000000 0.000000 3.908110 
# 
# 
# High freq. dielectric constant tensor:
#      x y z
#    x 1.852040 0.000000 0.000000 
#    y 0.000000 1.837500 0.000000 
#    z 0.000000 0.000000 1.855680 
# 
# From -- ./inp_files/29506.got.cif
#   From: 2010.06.25/outbox.cif.g09.slc.cpg/sg71_15_cif.got.tgz:29506.got - 2010.06.28 04:59:45.
