data_PCOD8292757
_publ_section_title
;
Structure prediction by ZEFSAII (Michael W. Deem and Ramdas Pophale) SiO2 
 PCOD8292757
Probable space group: I M M M
;
_chemical_formula_sum "Si O2"
_cell_formula_units_Z 104
_cell_length_a 20.853523
_cell_length_b 15.094955
_cell_length_c 20.785168
_cell_angle_alpha 90.000000
_cell_angle_beta 90.000000
_cell_angle_gamma 90.000000
_cell_volume 6542.817357
_symmetry_space_group_name_H-M "I M M M"
_symmetry_group_IT_number 71
_symmetry_cell_setting 'orthorhombic'
loop_
_space_group_symop_operation_xyz
x,y,z
-x,-y,z
x,-y,-z
-x,y,-z
-x,-y,-z
x,y,-z
-x,y,z
x,-y,z
1/2+x,1/2+y,1/2+z
1/2-x,1/2-y,1/2+z
1/2+x,1/2-y,1/2-z
1/2-x,1/2+y,1/2-z
1/2-x,1/2-y,1/2-z
1/2+x,1/2+y,1/2-z
1/2-x,1/2+y,1/2+z
1/2+x,1/2-y,1/2+z
loop_
_atom_site_type_symbol
_atom_site_label
_atom_site_fract_x
_atom_site_fract_y
_atom_site_fract_z
Si Si1 0.424678 0.397465 0.822466
Si Si2 0.764968 0.738519 0.144925
Si Si3 0.110676 0.401883 0.657494
Si Si4 0.763158 0.596523 0.573557
Si Si5 0.682095 0.397769 0.925976
Si Si6 0.000000 0.605789 0.570084
Si Si7 0.852436 0.254409 0.741764
O O1 0.500000 0.376959 0.834776
O O2 0.415624 0.500000 0.801256
O O3 0.383905 0.377491 0.887359
O O4 0.395753 0.334510 0.766046
O O5 0.780037 0.822981 0.099049
O O6 0.743897 0.655289 0.101224
O O7 0.831129 0.728081 0.184592
O O8 0.708782 0.752212 0.195789
O O9 0.090176 0.500000 0.680005
O O10 0.176629 0.404646 0.619981
O O11 0.108313 0.341177 0.720729
O O12 0.061587 0.359039 0.607384
O O13 0.784309 0.613619 0.500000
O O14 0.728316 0.500000 0.579034
O O15 0.701041 0.500000 0.919312
O O16 0.669717 0.370917 0.000000
O O17 0.000000 0.500000 0.564844
O O18 0.000000 0.649616 0.500000
#
# Coordination Sequence:
#
# PCOD8292757 Si02
#       7
#    16  16  16  16  16   8  16
#     4   9  18  31  46  63  87 121 157 191 223 257
#     4   9  17  29  42  60  84 115 148 188 226 261
#     4   9  17  27  40  59  84 114 145 175 209 251
#     4   9  16  26  41  60  83 109 137 173 217 262
#     4   9  17  29  46  67  91 119 151 187 226 268
#     4   9  16  26  40  58  83 115 146 173 203 241
#     4   9  18  29  43  59  83 115 153 190 222 259
#
# _framework density 15.895293000000001
#
# number of rings (size 3 to 8) (size 9 to 14) (size 15 to 20)
#    0.000    3.000    0.000    0.923    1.077    3.385 
#    0.000    8.462    0.000    0.000    0.000    0.000 
#    0.000    2.462    0.000   10.154    0.000    0.923 
#
# Total GULP energy -644209.937408 kJ/mol
# GULP energy per Si atom -12388.652642 kJ/mol
# Density = 1.585911 g / cm^3
# Si number density = 15.895293 Si / 1000 Ang^3
#
#
#
# Elastic Constant Matrix: (Units=GPa)
#
#
# Indices 1 2 3 4 5 6 
#
# 1 55.4801 42.9352 45.8075 0.0000 0.0000 0.0000
# 2 42.9352 98.3621 54.3977 0.0000 0.0000 0.0000
# 3 45.8075 54.3977 67.7927 0.0000 0.0000 0.0000
# 4 0.0000 0.0000 0.0000 24.4953 0.0000 0.0000
# 5 0.0000 0.0000 0.0000 0.0000 25.7703 0.0000
# 6 0.0000 0.0000 0.0000 0.0000 0.0000 16.9260
#
#
#
# Elastic Compliance Matrix: (Units=1/GPa)
#
#
# Indices 1 2 3 4 5 6 
#
# 1 0.041964 -0.004739 -0.024552 0.000000 0.000000 0.000000
# 2 -0.004739 0.018812 -0.011893 0.000000 0.000000 0.000000
# 3 -0.024552 -0.011893 0.040884 0.000000 0.000000 0.000000
# 4 0.000000 0.000000 0.000000 0.040824 0.000000 0.000000
# 5 0.000000 0.000000 0.000000 0.000000 0.038804 0.000000
# 6 0.000000 0.000000 0.000000 0.000000 0.000000 0.059081
#
#
# Mechanical properties :
#
#
# Convention : Reuss Voigt Hill
#
# Bulk Modulus (GPa) = 51.83676 56.43507 54.13592
# Shear Modulus (GPa) = 15.18980 18.67128 16.93054
#
# Velocity S-wave (km/s) = 3.09466 3.43102 3.26717
# Velocity P-wave (km/s) = 6.74177 7.16081 6.95445
#
# Compressibility (1/GPa) = 0.01929133
#
# Stress axis : x y z
#
# Youngs Moduli (GPa) = 23.83022 53.15629 24.45949
#
# Poissons Ratio (x) = 0.25191 0.60053
# Poissons Ratio (y) = 0.11293 0.29090
# Poissons Ratio (z) = 0.58508 0.63220
#
# Static dielectric constant tensor:
#      x y z
#    x 2.815670 0.000000 0.000000 
#    y 0.000000 3.412120 0.000000 
#    z 0.000000 0.000000 3.063890 
# 
# 
# High freq. dielectric constant tensor:
#      x y z
#    x 1.564730 0.000000 0.000000 
#    y 0.000000 1.624580 0.000000 
#    z 0.000000 0.000000 1.589150 
# 
# From -- ./inp_files/61373.got.cif
#   From: 2010.06.25/outbox.cif.g09.slc.cpg/sg71_31_cif.got.tgz:61373.got - 2010.06.28 04:59:45.
