data_PCOD8292592
_publ_section_title
;
Structure prediction by ZEFSAII (Michael W. Deem and Ramdas Pophale) SiO2 
 PCOD8292592
Probable space group: I M M M
;
_chemical_formula_sum "Si O2"
_cell_formula_units_Z 84
_cell_length_a 14.990811
_cell_length_b 15.493316
_cell_length_c 20.547334
_cell_angle_alpha 90.000000
_cell_angle_beta 90.000000
_cell_angle_gamma 90.000000
_cell_volume 4772.269795
_symmetry_space_group_name_H-M "I M M M"
_symmetry_group_IT_number 71
_symmetry_cell_setting 'orthorhombic'
loop_
_space_group_symop_operation_xyz
x,y,z
-x,-y,z
x,-y,-z
-x,y,-z
-x,-y,-z
x,y,-z
-x,y,z
x,-y,z
1/2+x,1/2+y,1/2+z
1/2-x,1/2-y,1/2+z
1/2+x,1/2-y,1/2-z
1/2-x,1/2+y,1/2-z
1/2-x,1/2-y,1/2-z
1/2+x,1/2+y,1/2-z
1/2-x,1/2+y,1/2+z
1/2+x,1/2-y,1/2+z
loop_
_atom_site_type_symbol
_atom_site_label
_atom_site_fract_x
_atom_site_fract_y
_atom_site_fract_z
Si Si1 0.847656 0.152585 0.823332
Si Si2 0.770591 0.096378 0.310652
Si Si3 0.595557 0.500000 0.596242
Si Si4 0.241076 0.500000 0.500000
Si Si5 0.326957 0.231152 0.130778
Si Si6 0.402878 0.825307 0.265453
Si Si7 0.103805 0.658586 0.500000
O O1 0.806994 0.103235 0.761960
O O2 0.909413 0.086170 0.861152
O O3 0.770513 0.188046 0.871346
O O4 0.906613 0.231734 0.798740
O O5 0.818002 0.165593 0.357923
O O6 0.664980 0.114263 0.304791
O O7 0.786664 0.000000 0.338376
O O8 0.500000 0.500000 0.556856
O O9 0.690157 0.500000 0.559752
O O10 0.174236 0.580558 0.500000
O O11 0.379380 0.186031 0.189664
O O12 0.379251 0.216651 0.063702
O O13 0.500000 0.868586 0.270461
O O14 0.000000 0.627269 0.500000
#
# Coordination Sequence:
#
# PCOD8292592 Si02
#       7
#    16  16   8   4  16  16   8
#     4   9  17  32  51  74 108 140 168 213 263 313
#     4   9  17  31  54  76 104 140 168 214 282 309
#     4  12  21  33  55  80 107 144 176 212 260 313
#     4  12  26  40  52  76 120 130 182 232 248 300
#     4   9  19  34  52  73 106 143 175 218 260 311
#     4   9  17  30  49  79 108 134 174 216 258 321
#     4  12  23  39  60  76 100 148 183 211 263 312
#
# _framework density 17.601687999999999
#
# number of rings (size 3 to 8) (size 9 to 14) (size 15 to 20)
#    0.000    2.286    2.857    3.714    0.000    0.381 
#    0.000    0.476    0.000    0.571    0.000    0.000 
#    0.000    3.429    0.000    0.000    0.000    0.000 
#
# Total GULP energy -520421.518769 kJ/mol
# GULP energy per Si atom -12390.988542 kJ/mol
# Density = 1.756163 g / cm^3
# Si number density = 17.601688 Si / 1000 Ang^3
#
#
#
# Elastic Constant Matrix: (Units=GPa)
#
#
# Indices 1 2 3 4 5 6 
#
# 1 113.3088 21.1605 24.9254 0.0000 0.0000 0.0000
# 2 21.1605 99.8504 25.2837 0.0000 0.0000 0.0000
# 3 24.9254 25.2837 76.9159 0.0000 0.0000 0.0000
# 4 0.0000 0.0000 0.0000 19.2035 0.0000 0.0000
# 5 0.0000 0.0000 0.0000 0.0000 -3.9141 0.0000
# 6 0.0000 0.0000 0.0000 0.0000 0.0000 13.5534
#
#
#
# Elastic Compliance Matrix: (Units=1/GPa)
#
#
# Indices 1 2 3 4 5 6 
#
# 1 0.009672 -0.001370 -0.002684 0.000000 0.000000 0.000000
# 2 -0.001370 0.011118 -0.003211 0.000000 0.000000 0.000000
# 3 -0.002684 -0.003211 0.014926 0.000000 0.000000 0.000000
# 4 0.000000 0.000000 0.000000 0.052074 0.000000 0.000000
# 5 0.000000 0.000000 0.000000 0.000000 -0.255489 0.000000
# 6 0.000000 0.000000 0.000000 0.000000 0.000000 0.073782
#
#
# Mechanical properties :
#
#
# Convention : Reuss Voigt Hill
#
# Bulk Modulus (GPa) = 47.19880 48.09048 47.64464
# Shear Modulus (GPa) = -69.13280 20.34892 -24.39194
#
# Velocity S-wave (km/s) = -6.27387 3.40380 -3.72664
# Velocity P-wave (km/s) = 5.06052 6.54436 2.93426
#
# Compressibility (1/GPa) = 0.02118698
#
# Stress axis : x y z
#
# Youngs Moduli (GPa) = 103.39456 89.94130 66.99532
#
# Poissons Ratio (x) = 0.12322 0.17981
# Poissons Ratio (y) = 0.14166 0.21511
# Poissons Ratio (z) = 0.27750 0.28879
#
# Static dielectric constant tensor:
#      x y z
#    x 3.263050 0.000000 0.000000 
#    y 0.000000 3.214070 0.000000 
#    z 0.000000 0.000000 3.007910 
# 
# 
# High freq. dielectric constant tensor:
#      x y z
#    x 1.688230 0.000000 0.000000 
#    y 0.000000 1.673900 0.000000 
#    z 0.000000 0.000000 1.650440 
# 
# From -- ./inp_files/39151.got.cif
#   From: 2010.06.25/outbox.cif.g09.slc.cpg/sg71_20_cif.got.tgz:39151.got - 2010.06.28 04:59:45.
