data_PCOD8292621
_publ_section_title
;
Structure prediction by ZEFSAII (Michael W. Deem and Ramdas Pophale) SiO2 
 PCOD8292621
Probable space group: I M M M
;
_chemical_formula_sum "Si O2"
_cell_formula_units_Z 88
_cell_length_a 33.923709
_cell_length_b 23.199718
_cell_length_c 9.612268
_cell_angle_alpha 90.000000
_cell_angle_beta 90.000000
_cell_angle_gamma 90.000000
_cell_volume 7565.051797
_symmetry_space_group_name_H-M "I M M M"
_symmetry_group_IT_number 71
_symmetry_cell_setting 'orthorhombic'
loop_
_space_group_symop_operation_xyz
x,y,z
-x,-y,z
x,-y,-z
-x,y,-z
-x,-y,-z
x,y,-z
-x,y,z
x,-y,z
1/2+x,1/2+y,1/2+z
1/2-x,1/2-y,1/2+z
1/2+x,1/2-y,1/2-z
1/2-x,1/2+y,1/2-z
1/2-x,1/2-y,1/2-z
1/2+x,1/2+y,1/2-z
1/2-x,1/2+y,1/2+z
1/2+x,1/2-y,1/2+z
loop_
_atom_site_type_symbol
_atom_site_label
_atom_site_fract_x
_atom_site_fract_y
_atom_site_fract_z
Si Si1 0.500000 0.931566 0.158187
Si Si2 0.692263 0.237455 0.654636
Si Si3 0.426279 0.932207 0.661248
Si Si4 0.231991 0.436090 0.166072
Si Si5 0.224684 0.826835 0.345255
Si Si6 0.154231 0.376377 0.165359
O O1 0.538188 0.909770 0.242390
O O2 0.500000 0.000000 0.155548
O O3 0.500000 0.907169 0.000000
O O4 0.680174 0.257387 0.500000
O O5 0.734826 0.208153 0.650899
O O6 0.692539 0.294365 0.750378
O O7 0.661132 0.190064 0.712928
O O8 0.435542 0.917475 0.500000
O O9 0.387718 0.899267 0.718327
O O10 0.418989 0.000000 0.678462
O O11 0.242048 0.500000 0.222605
O O12 0.265801 0.390907 0.214842
O O13 0.189221 0.416863 0.225104
O O14 0.230402 0.435088 0.000000
O O15 0.206720 0.830777 0.500000
O O16 0.155891 0.379347 0.000000
#
# Coordination Sequence:
#
# PCOD8292621 Si02
#       6
#     8  16  16  16  16  16
#     4   9  17  27  35  43  59  81  99 115 142 183
#     4   8  13  21  31  42  57  76  95 116 146 179
#     4   9  15  23  36  50  60  72  95 126 154 179
#     4   8  12  18  29  45  62  77  95 123 157 184
#     4   8  13  20  30  43  57  74  97 121 143 173
#     4   8  13  20  31  47  62  74  93 124 157 184
#
# _framework density 11.632438
#
# number of rings (size 3 to 8) (size 9 to 14) (size 15 to 20)
#    0.000    3.727    0.000    3.000    0.000    3.273 
#    0.000    0.909    0.000    1.636    0.000    0.000 
#    0.000    0.000    0.000    0.000    0.000    0.000 
#
# Total GULP energy -545142.775190 kJ/mol
# GULP energy per Si atom -12389.608527 kJ/mol
# Density = 1.160596 g / cm^3
# Si number density = 11.632438 Si / 1000 Ang^3
#
#
#
# Elastic Constant Matrix: (Units=GPa)
#
#
# Indices 1 2 3 4 5 6 
#
# 1 49.8073 40.7863 24.9688 0.0000 0.0000 0.0000
# 2 40.7863 82.2657 29.9218 0.0000 0.0000 0.0000
# 3 24.9688 29.9218 41.0851 0.0000 0.0000 0.0000
# 4 0.0000 0.0000 0.0000 13.1748 0.0000 0.0000
# 5 0.0000 0.0000 0.0000 0.0000 10.3291 0.0000
# 6 0.0000 0.0000 0.0000 0.0000 0.0000 15.3447
#
#
#
# Elastic Compliance Matrix: (Units=1/GPa)
#
#
# Indices 1 2 3 4 5 6 
#
# 1 0.038189 -0.014273 -0.012814 0.000000 0.000000 0.000000
# 2 -0.014273 0.021870 -0.007254 0.000000 0.000000 0.000000
# 3 -0.012814 -0.007254 0.037410 0.000000 0.000000 0.000000
# 4 0.000000 0.000000 0.000000 0.075903 0.000000 0.000000
# 5 0.000000 0.000000 0.000000 0.000000 0.096814 0.000000
# 6 0.000000 0.000000 0.000000 0.000000 0.000000 0.065169
#
#
# Mechanical properties :
#
#
# Convention : Reuss Voigt Hill
#
# Bulk Modulus (GPa) = 34.73656 40.50131 37.61894
# Shear Modulus (GPa) = 12.08803 12.93513 12.51158
#
# Velocity S-wave (km/s) = 3.22711 3.33827 3.28316
# Velocity P-wave (km/s) = 6.61908 7.05350 6.83974
#
# Compressibility (1/GPa) = 0.02878811
#
# Stress axis : x y z
#
# Youngs Moduli (GPa) = 26.18557 45.72374 26.73073
#
# Poissons Ratio (x) = 0.65261 0.34253
# Poissons Ratio (y) = 0.37374 0.19390
# Poissons Ratio (z) = 0.33554 0.33167
#
# Static dielectric constant tensor:
#      x y z
#    x 2.331930 0.000000 0.000000 
#    y 0.000000 2.562260 0.000000 
#    z 0.000000 0.000000 2.373530 
# 
# 
# High freq. dielectric constant tensor:
#      x y z
#    x 1.403360 0.000000 0.000000 
#    y 0.000000 1.422430 0.000000 
#    z 0.000000 0.000000 1.419460 
# 
# From -- ./inp_files/17152.got.cif
#   From: 2010.06.25/outbox.cif.g09.slc.cpg/sg71_9_cif.got.tgz:17152.got - 2010.06.28 04:59:45.
