data_PCOD8292940
_publ_section_title
;
Structure prediction by ZEFSAII (Michael W. Deem and Ramdas Pophale) SiO2 
 PCOD8292940
Probable space group: I B A M
;
_chemical_formula_sum "Si O2"
_cell_formula_units_Z 96
_cell_length_a 21.157188
_cell_length_b 9.277422
_cell_length_c 27.490525
_cell_angle_alpha 90.000000
_cell_angle_beta 90.000000
_cell_angle_gamma 90.000000
_cell_volume 5395.954646
_symmetry_space_group_name_H-M "I B A M"
_symmetry_group_IT_number 72
_symmetry_cell_setting 'orthorhombic'
loop_
_space_group_symop_operation_xyz
x,y,z
-x,-y,z
x,-y,1/2-z
-x,y,1/2-z
-x,-y,-z
x,y,-z
-x,y,1/2+z
x,-y,1/2+z
1/2+x,1/2+y,1/2+z
1/2-x,1/2-y,1/2+z
1/2+x,1/2-y,-z
1/2-x,1/2+y,-z
1/2-x,1/2-y,1/2-z
1/2+x,1/2+y,1/2-z
1/2-x,1/2+y,z
1/2+x,1/2-y,z
loop_
_atom_site_type_symbol
_atom_site_label
_atom_site_fract_x
_atom_site_fract_y
_atom_site_fract_z
Si Si1 0.221093 0.876054 0.683982
Si Si2 0.320954 0.676978 0.712216
Si Si3 0.974547 0.220784 0.000000
Si Si4 0.123777 0.858694 0.601913
Si Si5 0.604102 0.547308 0.500000
Si Si6 0.992529 0.335632 0.600491
Si Si7 0.054887 0.095826 0.336941
O O1 0.293381 0.817323 0.684164
O O2 0.184620 0.803587 0.729794
O O3 0.185777 0.830313 0.634382
O O4 0.222308 0.047032 0.691514
O O5 0.394107 0.644995 0.702650
O O6 0.036250 0.122483 0.000000
O O7 0.975049 0.320526 0.952302
O O8 0.910721 0.123858 0.000000
O O9 0.144174 0.903425 0.547241
O O10 0.080828 0.714620 0.600399
O O11 0.084173 0.994615 0.621472
O O12 0.000000 0.500000 0.617355
O O13 0.029413 0.240740 0.639549
O O14 0.000000 0.000000 0.311148
#
# Coordination Sequence:
#
# PCOD8292940 Si02
#       7
#    16  16   8  16   8  16  16
#     4   9  18  33  52  73  94 124 171 210 254 302
#     4   9  18  33  53  74  96 128 170 217 256 305
#     4   9  15  26  44  67  95 130 168 203 244 301
#     4   9  17  30  48  69  94 131 166 201 249 305
#     4   9  14  26  50  67  91 130 169 201 239 306
#     4  10  18  27  43  71 102 129 164 211 256 295
#     4   9  17  31  49  70  99 133 169 205 257 314
#
# _framework density 17.791105000000002
#
# number of rings (size 3 to 8) (size 9 to 14) (size 15 to 20)
#    0.000    2.833    1.667    0.250    0.000    1.333 
#    0.000   14.167    0.000    6.000    0.000    0.000 
#    0.000    0.000    0.000    0.000    0.000    0.000 
#
# Total GULP energy -594952.565877 kJ/mol
# GULP energy per Si atom -12394.845122 kJ/mol
# Density = 1.775061 g / cm^3
# Si number density = 17.791105 Si / 1000 Ang^3
#
#
#
# Elastic Constant Matrix: (Units=GPa)
#
#
# Indices 1 2 3 4 5 6 
#
# 1 76.9077 26.6870 41.6172 0.0000 0.0000 0.0000
# 2 26.6870 82.6102 18.1713 0.0000 0.0000 0.0000
# 3 41.6172 18.1713 91.7828 0.0000 0.0000 0.0000
# 4 0.0000 0.0000 0.0000 16.3594 0.0000 0.0000
# 5 0.0000 0.0000 0.0000 0.0000 21.1327 0.0000
# 6 0.0000 0.0000 0.0000 0.0000 0.0000 25.8210
#
#
#
# Elastic Compliance Matrix: (Units=1/GPa)
#
#
# Indices 1 2 3 4 5 6 
#
# 1 0.018612 -0.004345 -0.007579 0.000000 0.000000 0.000000
# 2 -0.004345 0.013671 -0.000736 0.000000 0.000000 0.000000
# 3 -0.007579 -0.000736 0.014477 0.000000 0.000000 0.000000
# 4 0.000000 0.000000 0.000000 0.061127 0.000000 0.000000
# 5 0.000000 0.000000 0.000000 0.000000 0.047320 0.000000
# 6 0.000000 0.000000 0.000000 0.000000 0.000000 0.038728
#
#
# Mechanical properties :
#
#
# Convention : Reuss Voigt Hill
#
# Bulk Modulus (GPa) = 46.64379 47.13910 46.89145
# Shear Modulus (GPa) = 22.08463 23.65098 22.86780
#
# Velocity S-wave (km/s) = 3.52707 3.65001 3.58907
# Velocity P-wave (km/s) = 6.54686 6.65709 6.60220
#
# Compressibility (1/GPa) = 0.02143908
#
# Stress axis : x y z
#
# Youngs Moduli (GPa) = 53.73009 73.14894 69.07271
#
# Poissons Ratio (x) = 0.31786 0.52349
# Poissons Ratio (y) = 0.23348 0.05085
# Poissons Ratio (z) = 0.40721 0.05386
#
# Static dielectric constant tensor:
#      x y z
#    x 3.063970 0.000000 0.000000 
#    y 0.000000 3.234820 0.000000 
#    z 0.000000 0.000000 3.305010 
# 
# 
# High freq. dielectric constant tensor:
#      x y z
#    x 1.651880 0.000000 0.000000 
#    y 0.000000 1.680330 0.000000 
#    z 0.000000 0.000000 1.685360 
# 
# From -- ./inp_files/47529.got.cif
#   From: 2010.03.12/outbox.cif.g09.slc.cpg/sg72_24_cif.got.tgz:47529.got - 2010.04.16 14:54:00.
