data_PCOD8292332
_publ_section_title
;
Structure prediction by ZEFSAII (Michael W. Deem and Ramdas Pophale) SiO2 
 PCOD8292332
Probable space group: I M M M
;
_chemical_formula_sum "Si O2"
_cell_formula_units_Z 104
_cell_length_a 17.585043
_cell_length_b 22.696311
_cell_length_c 15.092092
_cell_angle_alpha 90.000000
_cell_angle_beta 90.000000
_cell_angle_gamma 90.000000
_cell_volume 6023.489427
_symmetry_space_group_name_H-M "I M M M"
_symmetry_group_IT_number 71
_symmetry_cell_setting 'orthorhombic'
loop_
_space_group_symop_operation_xyz
x,y,z
-x,-y,z
x,-y,-z
-x,y,-z
-x,-y,-z
x,y,-z
-x,y,z
x,-y,z
1/2+x,1/2+y,1/2+z
1/2-x,1/2-y,1/2+z
1/2+x,1/2-y,1/2-z
1/2-x,1/2+y,1/2-z
1/2-x,1/2-y,1/2-z
1/2+x,1/2+y,1/2-z
1/2-x,1/2+y,1/2+z
1/2+x,1/2-y,1/2+z
loop_
_atom_site_type_symbol
_atom_site_label
_atom_site_fract_x
_atom_site_fract_y
_atom_site_fract_z
Si Si1 0.266237 0.933667 0.324878
Si Si2 0.298552 0.318718 0.099223
Si Si3 0.645602 0.567003 0.312826
Si Si4 0.413915 0.431049 0.500000
Si Si5 0.914502 0.180671 0.745786
Si Si6 0.414569 0.889089 0.397634
Si Si7 0.639154 0.761616 0.399783
O O1 0.224256 0.887131 0.388165
O O2 0.232785 0.926181 0.224059
O O3 0.357076 0.922214 0.330391
O O4 0.249004 0.000000 0.358190
O O5 0.364387 0.296649 0.164159
O O6 0.226772 0.277198 0.117572
O O7 0.329004 0.311199 0.000000
O O8 0.616688 0.500000 0.299723
O O9 0.636974 0.587039 0.415018
O O10 0.591912 0.609903 0.255250
O O11 0.426280 0.500000 0.500000
O O12 0.500000 0.402545 0.500000
O O13 0.885576 0.209317 0.836369
O O14 0.000000 0.199258 0.725239
O O15 0.391654 0.902744 0.500000
O O16 0.500000 0.911364 0.377736
O O17 0.411745 0.819171 0.381398
O O18 0.626572 0.739148 0.500000
#
# Coordination Sequence:
#
# PCOD8292332 Si02
#       7
#    16  16  16   8  16  16  16
#     4   9  17  30  48  69  93 124 161 191 222 277
#     4   9  19  35  50  65  93 129 159 192 230 271
#     4   9  19  33  46  65  95 127 156 188 232 283
#     4   9  16  28  46  64  87 119 149 185 237 279
#     4  11  21  30  48  74  95 121 157 195 233 277
#     4   9  17  29  46  71 101 125 147 188 242 282
#     4   9  18  33  51  70  93 121 155 192 234 285
#
# _framework density 17.265740000000001
#
# number of rings (size 3 to 8) (size 9 to 14) (size 15 to 20)
#    0.000    2.692    0.000    2.769    1.077    3.692 
#    0.000    0.769    0.000    0.000    0.000    4.846 
#    0.000    3.077    0.000    0.000    0.000    0.000 
#
# Total GULP energy -644445.896045 kJ/mol
# GULP energy per Si atom -12393.190309 kJ/mol
# Density = 1.722644 g / cm^3
# Si number density = 17.265740 Si / 1000 Ang^3
#
#
#
# Elastic Constant Matrix: (Units=GPa)
#
#
# Indices 1 2 3 4 5 6 
#
# 1 120.4287 30.8539 71.8892 0.0000 0.0000 0.0000
# 2 30.8539 43.9577 7.6261 0.0000 0.0000 0.0000
# 3 71.8892 7.6261 69.9649 0.0000 0.0000 0.0000
# 4 0.0000 0.0000 0.0000 22.3942 0.0000 0.0000
# 5 0.0000 0.0000 0.0000 0.0000 24.7504 0.0000
# 6 0.0000 0.0000 0.0000 0.0000 0.0000 14.6001
#
#
#
# Elastic Compliance Matrix: (Units=1/GPa)
#
#
# Indices 1 2 3 4 5 6 
#
# 1 0.029174 -0.015571 -0.028279 0.000000 0.000000 0.000000
# 2 -0.015571 0.031498 0.012566 0.000000 0.000000 0.000000
# 3 -0.028279 0.012566 0.041980 0.000000 0.000000 0.000000
# 4 0.000000 0.000000 0.000000 0.044654 0.000000 0.000000
# 5 0.000000 0.000000 0.000000 0.000000 0.040403 0.000000
# 6 0.000000 0.000000 0.000000 0.000000 0.000000 0.068493
#
#
# Mechanical properties :
#
#
# Convention : Reuss Voigt Hill
#
# Bulk Modulus (GPa) = 24.94752 50.56552 37.75652
# Shear Modulus (GPa) = 15.05419 20.61441 17.83430
#
# Velocity S-wave (km/s) = 2.95602 3.45911 3.21741
# Velocity P-wave (km/s) = 5.11187 6.73083 5.97643
#
# Compressibility (1/GPa) = 0.04008414
#
# Stress axis : x y z
#
# Youngs Moduli (GPa) = 34.27696 31.74761 23.82076
#
# Poissons Ratio (x) = 0.49435 0.67363
# Poissons Ratio (y) = 0.53373 -0.29933
# Poissons Ratio (z) = 0.96933 -0.39894
#
# Static dielectric constant tensor:
#      x y z
#    x 3.252000 0.000000 0.000000 
#    y 0.000000 3.132020 0.000000 
#    z 0.000000 0.000000 3.239450 
# 
# 
# High freq. dielectric constant tensor:
#      x y z
#    x 1.656570 0.000000 0.000000 
#    y 0.000000 1.662980 0.000000 
#    z 0.000000 0.000000 1.649990 
# 
# From -- ./inp_files/36898.got.cif
#   From: 2010.06.25/outbox.cif.g09.slc.cpg/sg71_19_cif.got.tgz:36898.got - 2010.06.28 04:59:45.
