data_PCOD8292247
_publ_section_title
;
Structure prediction by ZEFSAII (Michael W. Deem and Ramdas Pophale) SiO2 
 PCOD8292247
Probable space group: I M M M
;
_chemical_formula_sum "Si O2"
_cell_formula_units_Z 88
_cell_length_a 13.988862
_cell_length_b 13.783805
_cell_length_c 27.401511
_cell_angle_alpha 90.000000
_cell_angle_beta 90.000000
_cell_angle_gamma 90.000000
_cell_volume 5283.552390
_symmetry_space_group_name_H-M "I M M M"
_symmetry_group_IT_number 71
_symmetry_cell_setting 'orthorhombic'
loop_
_space_group_symop_operation_xyz
x,y,z
-x,-y,z
x,-y,-z
-x,y,-z
-x,-y,-z
x,y,-z
-x,y,z
x,-y,z
1/2+x,1/2+y,1/2+z
1/2-x,1/2-y,1/2+z
1/2+x,1/2-y,1/2-z
1/2-x,1/2+y,1/2-z
1/2-x,1/2-y,1/2-z
1/2+x,1/2+y,1/2-z
1/2-x,1/2+y,1/2+z
1/2+x,1/2-y,1/2+z
loop_
_atom_site_type_symbol
_atom_site_label
_atom_site_fract_x
_atom_site_fract_y
_atom_site_fract_z
Si Si1 0.500000 0.613005 0.944001
Si Si2 0.283745 0.211762 0.645681
Si Si3 0.389576 0.714282 0.786812
Si Si4 0.707513 0.614963 0.057078
Si Si5 0.887583 0.394532 0.225898
Si Si6 0.389014 0.611694 0.313358
O O1 0.500000 0.500000 0.935261
O O2 0.398141 0.651367 0.924105
O O3 0.500000 0.639219 0.000000
O O4 0.177892 0.193405 0.667635
O O5 0.281297 0.178908 0.589030
O O6 0.354940 0.139038 0.672749
O O7 0.322687 0.321784 0.651585
O O8 0.500000 0.712942 0.804146
O O9 0.355098 0.819240 0.767171
O O10 0.372275 0.636654 0.743652
O O11 0.721032 0.500000 0.066386
O O12 0.724176 0.638079 0.000000
O O13 0.844521 0.500000 0.238857
O O14 0.000000 0.397973 0.223911
O O15 0.500000 0.631530 0.326291
O O16 0.361347 0.500000 0.322488
#
# Coordination Sequence:
#
# PCOD8292247 Si02
#       6
#     8  16  16  16  16  16
#     4   7  12  26  44  60  85 121 151 173 210 266
#     4  11  19  27  48  71  91 120 158 193 226 270
#     4   9  19  30  41  67  99 123 151 187 224 269
#     4   9  18  31  46  67  95 123 151 186 228 273
#     4   9  17  30  46  64  91 123 151 183 226 276
#     4   9  18  33  49  66  93 126 157 191 231 272
#
# _framework density 16.655460999999999
#
# number of rings (size 3 to 8) (size 9 to 14) (size 15 to 20)
#    0.000    2.818    0.000    5.455    1.273    3.636 
#    0.000    0.000    0.000    2.727    0.000    7.636 
#    0.000    2.182    0.000    0.000    0.000    0.000 
#
# Total GULP energy -545125.149648 kJ/mol
# GULP energy per Si atom -12389.207947 kJ/mol
# Density = 1.661755 g / cm^3
# Si number density = 16.655461 Si / 1000 Ang^3
#
#
#
# Elastic Constant Matrix: (Units=GPa)
#
#
# Indices 1 2 3 4 5 6 
#
# 1 19.3232 22.3219 17.7313 0.0000 0.0000 0.0000
# 2 22.3219 91.7918 31.4032 0.0000 0.0000 0.0000
# 3 17.7313 31.4032 70.6066 0.0000 0.0000 0.0000
# 4 0.0000 0.0000 0.0000 14.6036 0.0000 0.0000
# 5 0.0000 0.0000 0.0000 0.0000 21.2151 0.0000
# 6 0.0000 0.0000 0.0000 0.0000 0.0000 20.4304
#
#
#
# Elastic Compliance Matrix: (Units=1/GPa)
#
#
# Indices 1 2 3 4 5 6 
#
# 1 0.082016 -0.015213 -0.013830 0.000000 0.000000 0.000000
# 2 -0.015213 0.015671 -0.003150 0.000000 0.000000 0.000000
# 3 -0.013830 -0.003150 0.019037 0.000000 0.000000 0.000000
# 4 0.000000 0.000000 0.000000 0.068476 0.000000 0.000000
# 5 0.000000 0.000000 0.000000 0.000000 0.047136 0.000000
# 6 0.000000 0.000000 0.000000 0.000000 0.000000 0.048947
#
#
# Mechanical properties :
#
#
# Convention : Reuss Voigt Hill
#
# Bulk Modulus (GPa) = 19.10642 36.07050 27.58846
# Shear Modulus (GPa) = 13.76970 18.60083 16.18526
#
# Velocity S-wave (km/s) = 2.87842 3.34548 3.12070
# Velocity P-wave (km/s) = 4.74801 6.05201 5.43923
#
# Compressibility (1/GPa) = 0.05233844
#
# Stress axis : x y z
#
# Youngs Moduli (GPa) = 12.19269 63.81104 52.52938
#
# Poissons Ratio (x) = 0.97077 0.72650
# Poissons Ratio (y) = 0.18549 0.16544
# Poissons Ratio (z) = 0.16863 0.20098
#
# Static dielectric constant tensor:
#      x y z
#    x 3.305870 0.000000 0.000000 
#    y 0.000000 4.375870 0.000000 
#    z 0.000000 0.000000 2.772270 
# 
# 
# High freq. dielectric constant tensor:
#      x y z
#    x 1.652780 0.000000 0.000000 
#    y 0.000000 1.628480 0.000000 
#    z 0.000000 0.000000 1.603500 
# 
# From -- ./inp_files/39135.got.cif
#   From: 2010.06.25/outbox.cif.g09.slc.cpg/sg71_20_cif.got.tgz:39135.got - 2010.06.28 04:59:45.
