data_PCOD8292156
_publ_section_title
;
Structure prediction by ZEFSAII (Michael W. Deem and Ramdas Pophale) SiO2 
 PCOD8292156
Probable space group: I M M M
;
_chemical_formula_sum "Si O2"
_cell_formula_units_Z 120
_cell_length_a 18.433788
_cell_length_b 18.114068
_cell_length_c 18.040444
_cell_angle_alpha 90.000000
_cell_angle_beta 90.000000
_cell_angle_gamma 90.000000
_cell_volume 6023.900700
_symmetry_space_group_name_H-M "I M M M"
_symmetry_group_IT_number 71
_symmetry_cell_setting 'orthorhombic'
loop_
_space_group_symop_operation_xyz
x,y,z
-x,-y,z
x,-y,-z
-x,y,-z
-x,-y,-z
x,y,-z
-x,y,z
x,-y,z
1/2+x,1/2+y,1/2+z
1/2-x,1/2-y,1/2+z
1/2+x,1/2-y,1/2-z
1/2-x,1/2+y,1/2-z
1/2-x,1/2-y,1/2-z
1/2+x,1/2+y,1/2-z
1/2-x,1/2+y,1/2+z
1/2+x,1/2-y,1/2+z
loop_
_atom_site_type_symbol
_atom_site_label
_atom_site_fract_x
_atom_site_fract_y
_atom_site_fract_z
Si Si1 0.580750 0.080755 0.193194
Si Si2 0.714750 0.414751 0.417134
Si Si3 0.914173 0.918197 0.500000
Si Si4 0.414634 0.322616 0.860670
Si Si5 0.082615 0.415191 0.086804
Si Si6 0.827118 0.160322 0.775441
Si Si7 0.323290 0.830337 0.700530
Si Si8 0.138296 0.326106 0.417342
O O1 0.500000 0.076747 0.224387
O O2 0.623964 0.143601 0.234977
O O3 0.582593 0.109642 0.108547
O O4 0.617076 0.000000 0.200245
O O5 0.679548 0.403743 0.500000
O O6 0.738879 0.500000 0.408646
O O7 0.663438 0.393177 0.347455
O O8 0.781693 0.359071 0.409341
O O9 0.888190 0.877395 0.425463
O O10 0.000000 0.923322 0.500000
O O11 0.879720 0.000000 0.500000
O O12 0.500000 0.306184 0.866121
O O13 0.395336 0.354538 0.779218
O O14 0.368562 0.247560 0.868487
O O15 0.091334 0.500000 0.112966
O O16 0.145524 0.366965 0.125415
O O17 0.000000 0.388840 0.106131
O O18 0.096199 0.407946 0.000000
O O19 0.756806 0.142851 0.724177
O O20 0.825898 0.242706 0.808197
O O21 0.117252 0.303949 0.500000
#
# Coordination Sequence:
#
# PCOD8292156 Si02
#       8
#    16  16   8  16  16  16  16  16
#     4  11  22  34  54  86 125 166 202 243 298 362
#     4  10  22  41  64  90 122 159 201 251 308 372
#     4   9  20  40  62  84 115 157 202 248 305 366
#     4  11  22  39  63  91 123 160 203 259 315 365
#     4   9  19  37  61  89 124 165 201 238 295 366
#     4  11  23  38  59  86 115 157 207 258 308 358
#     4  11  21  36  54  82 120 160 205 249 293 354
#     4  11  20  34  59  89 122 163 202 238 291 360
#
# _framework density 19.920646999999999
#
# number of rings (size 3 to 8) (size 9 to 14) (size 15 to 20)
#    0.000    1.533    3.333    2.800    0.000    4.800 
#    1.200    0.667    0.000    0.400    0.000    0.933 
#    0.000    0.000    0.000    0.000    0.000    0.000 
#
# Total GULP energy -743567.547466 kJ/mol
# GULP energy per Si atom -12392.792458 kJ/mol
# Density = 1.987531 g / cm^3
# Si number density = 19.920647 Si / 1000 Ang^3
#
#
#
# Elastic Constant Matrix: (Units=GPa)
#
#
# Indices 1 2 3 4 5 6 
#
# 1 44.7191 31.4735 34.2546 0.0000 0.0000 0.0000
# 2 31.4735 108.4710 57.4423 0.0000 0.0000 0.0000
# 3 34.2546 57.4423 136.1943 0.0000 0.0000 0.0000
# 4 0.0000 0.0000 0.0000 34.5433 0.0000 0.0000
# 5 0.0000 0.0000 0.0000 0.0000 30.1154 0.0000
# 6 0.0000 0.0000 0.0000 0.0000 0.0000 29.6950
#
#
#
# Elastic Compliance Matrix: (Units=1/GPa)
#
#
# Indices 1 2 3 4 5 6 
#
# 1 0.030616 -0.006188 -0.005091 0.000000 0.000000 0.000000
# 2 -0.006188 0.013121 -0.003978 0.000000 0.000000 0.000000
# 3 -0.005091 -0.003978 0.010300 0.000000 0.000000 0.000000
# 4 0.000000 0.000000 0.000000 0.028949 0.000000 0.000000
# 5 0.000000 0.000000 0.000000 0.000000 0.033206 0.000000
# 6 0.000000 0.000000 0.000000 0.000000 0.000000 0.033676
#
#
# Mechanical properties :
#
#
# Convention : Reuss Voigt Hill
#
# Bulk Modulus (GPa) = 42.50697 59.52502 51.01600
# Shear Modulus (GPa) = 26.56446 29.95169 28.25807
#
# Velocity S-wave (km/s) = 3.65569 3.88177 3.77043
# Velocity P-wave (km/s) = 6.26125 7.07367 6.67982
#
# Compressibility (1/GPa) = 0.02352555
#
# Stress axis : x y z
#
# Youngs Moduli (GPa) = 32.66264 76.21446 97.08306
#
# Poissons Ratio (x) = 0.47159 0.49421
# Poissons Ratio (y) = 0.20210 0.38617
# Poissons Ratio (z) = 0.16627 0.30316
#
# Static dielectric constant tensor:
#      x y z
#    x 3.495500 0.000000 0.000000 
#    y 0.000000 3.740220 0.000000 
#    z 0.000000 0.000000 3.988830 
# 
# 
# High freq. dielectric constant tensor:
#      x y z
#    x 1.740310 0.000000 0.000000 
#    y 0.000000 1.776260 0.000000 
#    z 0.000000 0.000000 1.794530 
# 
# From -- ./inp_files/54342.got.cif
#   From: 2010.06.25/outbox.cif.g09.slc.cpg/sg71_28_cif.got.tgz:54342.got - 2010.06.28 04:59:45.
