data_PCOD8292197
_publ_section_title
;
Structure prediction by ZEFSAII (Michael W. Deem and Ramdas Pophale) SiO2 
 PCOD8292197
Probable space group: I M M M
;
_chemical_formula_sum "Si O2"
_cell_formula_units_Z 104
_cell_length_a 21.594460
_cell_length_b 27.567817
_cell_length_c 8.768823
_cell_angle_alpha 90.000000
_cell_angle_beta 90.000000
_cell_angle_gamma 90.000000
_cell_volume 5220.186623
_symmetry_space_group_name_H-M "I M M M"
_symmetry_group_IT_number 71
_symmetry_cell_setting 'orthorhombic'
loop_
_space_group_symop_operation_xyz
x,y,z
-x,-y,z
x,-y,-z
-x,y,-z
-x,-y,-z
x,y,-z
-x,y,z
x,-y,z
1/2+x,1/2+y,1/2+z
1/2-x,1/2-y,1/2+z
1/2+x,1/2-y,1/2-z
1/2-x,1/2+y,1/2-z
1/2-x,1/2-y,1/2-z
1/2+x,1/2+y,1/2-z
1/2-x,1/2+y,1/2+z
1/2+x,1/2-y,1/2+z
loop_
_atom_site_type_symbol
_atom_site_label
_atom_site_fract_x
_atom_site_fract_y
_atom_site_fract_z
Si Si1 0.877373 0.444273 0.323951
Si Si2 0.827029 0.831219 0.823255
Si Si3 0.500000 0.095329 0.679895
Si Si4 0.073168 0.000000 0.333600
Si Si5 0.071742 0.104839 0.680477
Si Si6 0.377027 0.228050 0.677255
Si Si7 0.500000 0.798834 0.178495
Si Si8 0.202572 0.635644 0.821125
O O1 0.889753 0.432437 0.500000
O O2 0.858650 0.500000 0.298685
O O3 0.820400 0.412320 0.264313
O O4 0.939730 0.433229 0.233168
O O5 0.891038 0.856044 0.776398
O O6 0.833724 0.774144 0.788136
O O7 0.772898 0.853732 0.722469
O O8 0.812632 0.840479 0.000000
O O9 0.500000 0.097728 0.500000
O O10 0.500000 0.149761 0.739191
O O11 0.091652 0.948940 0.254357
O O12 0.104488 0.000000 0.500000
O O13 0.000000 0.000000 0.355482
O O14 0.085588 0.108547 0.500000
O O15 0.000000 0.115097 0.713098
O O16 0.394925 0.225552 0.500000
O O17 0.439772 0.231823 0.774199
O O18 0.339894 0.180585 0.730201
O O19 0.500000 0.807627 0.000000
O O20 0.198147 0.626545 0.000000
#
# Coordination Sequence:
#
# PCOD8292197 Si02
#       8
#    16  16   8   8  16  16   8  16
#     4  11  24  42  65  95 130 166 210 265 318 367
#     4  11  24  40  60  88 124 162 199 248 311 367
#     4  12  23  39  64  95 132 170 213 257 309 374
#     4   7  12  28  55  81 107 143 183 232 287 336
#     4   9  18  35  59  86 115 148 195 249 298 354
#     4  10  23  42  63  88 122 162 202 252 308 369
#     4  12  24  37  63  96 126 164 207 260 317 368
#     4  11  23  42  66  88 117 162 212 255 303 369
#
# _framework density 19.922658999999999
#
# number of rings (size 3 to 8) (size 9 to 14) (size 15 to 20)
#    0.000    1.615    1.538    4.385    1.077    4.308 
#    1.385    0.385    0.000    1.385    0.000    0.000 
#    0.000    0.000    0.000    0.000    0.000    0.000 
#
# Total GULP energy -644879.065205 kJ/mol
# GULP energy per Si atom -12401.520485 kJ/mol
# Density = 1.987731 g / cm^3
# Si number density = 19.922659 Si / 1000 Ang^3
#
#
#
# Elastic Constant Matrix: (Units=GPa)
#
#
# Indices 1 2 3 4 5 6 
#
# 1 99.1425 42.8774 37.3732 0.0000 0.0000 0.0000
# 2 42.8774 112.2117 48.0657 0.0000 0.0000 0.0000
# 3 37.3732 48.0657 90.4598 0.0000 0.0000 0.0000
# 4 0.0000 0.0000 0.0000 28.7235 0.0000 0.0000
# 5 0.0000 0.0000 0.0000 0.0000 27.4737 0.0000
# 6 0.0000 0.0000 0.0000 0.0000 0.0000 1.8539
#
#
#
# Elastic Compliance Matrix: (Units=1/GPa)
#
#
# Indices 1 2 3 4 5 6 
#
# 1 0.012889 -0.003423 -0.003506 0.000000 0.000000 0.000000
# 2 -0.003423 0.012447 -0.005199 0.000000 0.000000 0.000000
# 3 -0.003506 -0.005199 0.015266 0.000000 0.000000 0.000000
# 4 0.000000 0.000000 0.000000 0.034815 0.000000 0.000000
# 5 0.000000 0.000000 0.000000 0.000000 0.036398 0.000000
# 6 0.000000 0.000000 0.000000 0.000000 0.000000 0.539396
#
#
# Mechanical properties :
#
#
# Convention : Reuss Voigt Hill
#
# Bulk Modulus (GPa) = 61.18350 62.04961 61.61655
# Shear Modulus (GPa) = 7.34305 23.17675 15.25990
#
# Velocity S-wave (km/s) = 1.92192 3.41447 2.77060
# Velocity P-wave (km/s) = 5.97513 6.83796 6.42106
#
# Compressibility (1/GPa) = 0.01634428
#
# Stress axis : x y z
#
# Youngs Moduli (GPa) = 77.58824 80.34147 65.50578
#
# Poissons Ratio (x) = 0.27501 0.22967
# Poissons Ratio (y) = 0.26559 0.34059
# Poissons Ratio (z) = 0.27203 0.41773
#
# Static dielectric constant tensor:
#      x y z
#    x 3.522540 0.000000 0.000000 
#    y 0.000000 3.883430 0.000000 
#    z 0.000000 0.000000 3.567500 
# 
# 
# High freq. dielectric constant tensor:
#      x y z
#    x 1.770930 0.000000 0.000000 
#    y 0.000000 1.790400 0.000000 
#    z 0.000000 0.000000 1.771400 
# 
# From -- ./inp_files/11201.got.cif
#   From: 2010.06.25/outbox.cif.g09.slc.cpg/sg71_6_cif.got.tgz:11201.got - 2010.06.28 04:59:45.
