data_PCOD8292520
_publ_section_title
;
Structure prediction by ZEFSAII (Michael W. Deem and Ramdas Pophale) SiO2 
 PCOD8292520
Probable space group: I M M M
;
_chemical_formula_sum "Si O2"
_cell_formula_units_Z 88
_cell_length_a 22.559328
_cell_length_b 13.574429
_cell_length_c 14.363974
_cell_angle_alpha 90.000000
_cell_angle_beta 90.000000
_cell_angle_gamma 90.000000
_cell_volume 4398.679704
_symmetry_space_group_name_H-M "I M M M"
_symmetry_group_IT_number 71
_symmetry_cell_setting 'orthorhombic'
loop_
_space_group_symop_operation_xyz
x,y,z
-x,-y,z
x,-y,-z
-x,y,-z
-x,-y,-z
x,y,-z
-x,y,z
x,-y,z
1/2+x,1/2+y,1/2+z
1/2-x,1/2-y,1/2+z
1/2+x,1/2-y,1/2-z
1/2-x,1/2+y,1/2-z
1/2-x,1/2-y,1/2-z
1/2+x,1/2+y,1/2-z
1/2-x,1/2+y,1/2+z
1/2+x,1/2-y,1/2+z
loop_
_atom_site_type_symbol
_atom_site_label
_atom_site_fract_x
_atom_site_fract_y
_atom_site_fract_z
Si Si1 0.314041 0.616246 0.748231
Si Si2 0.375982 0.887923 0.743325
Si Si3 0.281298 0.116824 0.895354
Si Si4 0.931318 0.889979 0.000000
Si Si5 0.933101 0.800583 0.195196
Si Si6 0.772998 0.614674 0.101494
O O1 0.306967 0.500000 0.748778
O O2 0.278472 0.657059 0.656742
O O3 0.382990 0.644536 0.755384
O O4 0.281732 0.661214 0.839892
O O5 0.340589 0.856865 0.836672
O O6 0.430967 0.815096 0.722502
O O7 0.333928 0.870057 0.655468
O O8 0.399521 0.000000 0.749086
O O9 0.276888 0.000000 0.899662
O O10 0.285155 0.160936 0.000000
O O11 0.914472 0.824815 0.089285
O O12 0.000000 0.911289 0.000000
O O13 0.900169 0.000000 0.000000
O O14 0.000000 0.838573 0.216837
O O15 0.760755 0.500000 0.089421
O O16 0.776192 0.665816 0.000000
#
# Coordination Sequence:
#
# PCOD8292520 Si02
#       6
#    16  16  16   8  16  16
#     4   9  18  32  52  79 106 134 171 216 269 324
#     4   9  19  35  54  78 108 141 179 223 268 315
#     4   8  15  30  54  83 110 136 171 221 279 329
#     4   9  20  38  55  73 101 137 176 218 262 307
#     4  11  23  36  51  75 105 141 184 218 255 315
#     4   8  15  30  53  79 106 135 169 214 270 327
#
# _framework density 20.006003
#
# number of rings (size 3 to 8) (size 9 to 14) (size 15 to 20)
#    0.000    3.000    0.000    2.727    2.545    4.364 
#    0.000    2.727    0.000    3.818    0.000    5.091 
#    0.000    0.000    0.000    0.000    0.000    0.000 
#
# Total GULP energy -545112.434199 kJ/mol
# GULP energy per Si atom -12388.918959 kJ/mol
# Density = 1.996047 g / cm^3
# Si number density = 20.006003 Si / 1000 Ang^3
#
#
#
# Elastic Constant Matrix: (Units=GPa)
#
#
# Indices 1 2 3 4 5 6 
#
# 1 79.9251 4.5582 39.6173 0.0000 0.0000 0.0000
# 2 4.5582 46.4364 12.4247 0.0000 0.0000 0.0000
# 3 39.6173 12.4247 140.9114 0.0000 0.0000 0.0000
# 4 0.0000 0.0000 0.0000 15.0575 0.0000 0.0000
# 5 0.0000 0.0000 0.0000 0.0000 19.0511 0.0000
# 6 0.0000 0.0000 0.0000 0.0000 0.0000 31.0344
#
#
#
# Elastic Compliance Matrix: (Units=1/GPa)
#
#
# Indices 1 2 3 4 5 6 
#
# 1 0.014543 -0.000342 -0.004059 0.000000 0.000000 0.000000
# 2 -0.000342 0.022063 -0.001849 0.000000 0.000000 0.000000
# 3 -0.004059 -0.001849 0.008401 0.000000 0.000000 0.000000
# 4 0.000000 0.000000 0.000000 0.066412 0.000000 0.000000
# 5 0.000000 0.000000 0.000000 0.000000 0.052491 0.000000
# 6 0.000000 0.000000 0.000000 0.000000 0.000000 0.032222
#
#
# Mechanical properties :
#
#
# Convention : Reuss Voigt Hill
#
# Bulk Modulus (GPa) = 30.76187 42.27480 36.51833
# Shear Modulus (GPa) = 22.78247 27.07345 24.92796
#
# Velocity S-wave (km/s) = 3.37824 3.68267 3.53374
# Velocity P-wave (km/s) = 5.53411 6.26575 5.91126
#
# Compressibility (1/GPa) = 0.03250778
#
# Stress axis : x y z
#
# Youngs Moduli (GPa) = 68.76170 45.32441 119.03620
#
# Poissons Ratio (x) = 0.01548 0.48312
# Poissons Ratio (y) = 0.02349 0.22014
# Poissons Ratio (z) = 0.27908 0.08382
#
# Static dielectric constant tensor:
#      x y z
#    x 3.288130 0.000000 0.000000 
#    y 0.000000 3.666750 0.000000 
#    z 0.000000 0.000000 29.758800 
# 
# 
# High freq. dielectric constant tensor:
#      x y z
#    x 1.747360 0.000000 0.000000 
#    y 0.000000 1.791840 0.000000 
#    z 0.000000 0.000000 1.771230 
# 
# From -- ./inp_files/34414.got.cif
#   From: 2010.06.25/outbox.cif.g09.slc.cpg/sg71_18_cif.got.tgz:34414.got - 2010.06.28 04:59:45.
