data_PCOD8292159
_publ_section_title
;
Structure prediction by ZEFSAII (Michael W. Deem and Ramdas Pophale) SiO2 
 PCOD8292159
Probable space group: I M M M
;
_chemical_formula_sum "Si O2"
_cell_formula_units_Z 64
_cell_length_a 32.613879
_cell_length_b 9.009698
_cell_length_c 10.729130
_cell_angle_alpha 90.000000
_cell_angle_beta 90.000000
_cell_angle_gamma 90.000000
_cell_volume 3152.660438
_symmetry_space_group_name_H-M "I M M M"
_symmetry_group_IT_number 71
_symmetry_cell_setting 'orthorhombic'
loop_
_space_group_symop_operation_xyz
x,y,z
-x,-y,z
x,-y,-z
-x,y,-z
-x,-y,-z
x,y,-z
-x,y,z
x,-y,z
1/2+x,1/2+y,1/2+z
1/2-x,1/2-y,1/2+z
1/2+x,1/2-y,1/2-z
1/2-x,1/2+y,1/2-z
1/2-x,1/2-y,1/2-z
1/2+x,1/2+y,1/2-z
1/2-x,1/2+y,1/2+z
1/2+x,1/2-y,1/2+z
loop_
_atom_site_type_symbol
_atom_site_label
_atom_site_fract_x
_atom_site_fract_y
_atom_site_fract_z
Si Si1 0.791561 0.674409 0.000000
Si Si2 0.803650 0.173590 0.500000
Si Si3 0.427125 0.329189 0.757090
Si Si4 0.333721 0.671525 0.732829
Si Si5 0.000000 0.661199 0.858944
Si Si6 0.047733 0.674067 0.500000
O O1 0.743896 0.714666 0.000000
O O2 0.810165 0.739855 0.873657
O O3 0.799594 0.500000 0.000000
O O4 0.823693 0.237081 0.371537
O O5 0.812302 0.000000 0.500000
O O6 0.438863 0.500000 0.778021
O O7 0.381745 0.312257 0.701951
O O8 0.459565 0.255819 0.665188
O O9 0.428771 0.243114 0.885323
O O10 0.319850 0.500000 0.725918
O O11 0.000000 0.500000 0.785146
O O12 0.000000 0.617825 0.000000
O O13 0.053579 0.500000 0.500000
O O14 0.000000 0.720405 0.500000
#
# Coordination Sequence:
#
# PCOD8292159 Si02
#       6
#     8   8  16  16   8   8
#     4  11  23  38  62  95 126 162 203 247 304 371
#     4   9  19  40  66  91 123 160 204 252 303 366
#     4  11  23  39  63  90 117 156 207 251 293 353
#     4  10  22  41  64  91 124 162 204 255 308 358
#     4  11  25  42  59  82 119 163 199 247 310 357
#     4  11  22  37  59  87 119 154 192 241 308 359
#
# _framework density 20.300315000000001
#
# number of rings (size 3 to 8) (size 9 to 14) (size 15 to 20)
#    0.000    1.500    1.250    3.375    1.750    5.500 
#    0.000    1.875    0.000    0.000    0.000    0.000 
#    0.000    0.000    0.000    0.000    0.000    0.000 
#
# Total GULP energy -396766.766869 kJ/mol
# GULP energy per Si atom -12398.961465 kJ/mol
# Density = 2.025411 g / cm^3
# Si number density = 20.300315 Si / 1000 Ang^3
#
#
#
# Elastic Constant Matrix: (Units=GPa)
#
#
# Indices 1 2 3 4 5 6 
#
# 1 113.4696 56.4042 52.1841 0.0000 0.0000 0.0000
# 2 56.4042 100.8849 42.2964 0.0000 0.0000 0.0000
# 3 52.1841 42.2964 130.6326 0.0000 0.0000 0.0000
# 4 0.0000 0.0000 0.0000 31.0752 0.0000 0.0000
# 5 0.0000 0.0000 0.0000 0.0000 -92.6376 0.0000
# 6 0.0000 0.0000 0.0000 0.0000 0.0000 28.6004
#
#
#
# Elastic Compliance Matrix: (Units=1/GPa)
#
#
# Indices 1 2 3 4 5 6 
#
# 1 0.013383 -0.006064 -0.003383 0.000000 0.000000 0.000000
# 2 -0.006064 0.014217 -0.002181 0.000000 0.000000 0.000000
# 3 -0.003383 -0.002181 0.009712 0.000000 0.000000 0.000000
# 4 0.000000 0.000000 0.000000 0.032180 0.000000 0.000000
# 5 0.000000 0.000000 0.000000 0.000000 -0.010795 0.000000
# 6 0.000000 0.000000 0.000000 0.000000 0.000000 0.034965
#
#
# Mechanical properties :
#
#
# Convention : Reuss Voigt Hill
#
# Bulk Modulus (GPa) = 71.13748 71.86183 71.49965
# Shear Modulus (GPa) = 41.11731 6.34775 23.73253
#
# Velocity S-wave (km/s) = 4.50538 1.77023 3.42288
# Velocity P-wave (km/s) = 7.88564 6.29718 7.13575
#
# Compressibility (1/GPa) = 0.01405729
#
# Stress axis : x y z
#
# Youngs Moduli (GPa) = 74.72148 70.33817 102.96096
#
# Poissons Ratio (x) = 0.42654 0.34828
# Poissons Ratio (y) = 0.45313 0.22453
# Poissons Ratio (z) = 0.25276 0.15339
#
# Static dielectric constant tensor:
#      x y z
#    x 3.865750 0.000000 0.000000 
#    y 0.000000 3.678640 0.000000 
#    z 0.000000 0.000000 3.658170 
# 
# 
# High freq. dielectric constant tensor:
#      x y z
#    x 1.802250 0.000000 0.000000 
#    y 0.000000 1.789600 0.000000 
#    z 0.000000 0.000000 1.804120 
# 
# From -- ./inp_files/29485.got.cif
#   From: 2010.06.25/outbox.cif.g09.slc.cpg/sg71_15_cif.got.tgz:29485.got - 2010.06.28 04:59:45.
