data_PCOD8292758
_publ_section_title
;
Structure prediction by ZEFSAII (Michael W. Deem and Ramdas Pophale) SiO2 
 PCOD8292758
Probable space group: I M M M
;
_chemical_formula_sum "Si O2"
_cell_formula_units_Z 104
_cell_length_a 20.190033
_cell_length_b 32.005802
_cell_length_c 9.722878
_cell_angle_alpha 90.000000
_cell_angle_beta 90.000000
_cell_angle_gamma 90.000000
_cell_volume 6282.906249
_symmetry_space_group_name_H-M "I M M M"
_symmetry_group_IT_number 71
_symmetry_cell_setting 'orthorhombic'
loop_
_space_group_symop_operation_xyz
x,y,z
-x,-y,z
x,-y,-z
-x,y,-z
-x,-y,-z
x,y,-z
-x,y,z
x,-y,z
1/2+x,1/2+y,1/2+z
1/2-x,1/2-y,1/2+z
1/2+x,1/2-y,1/2-z
1/2-x,1/2+y,1/2-z
1/2-x,1/2-y,1/2-z
1/2+x,1/2+y,1/2-z
1/2-x,1/2+y,1/2+z
1/2+x,1/2-y,1/2+z
loop_
_atom_site_type_symbol
_atom_site_label
_atom_site_fract_x
_atom_site_fract_y
_atom_site_fract_z
Si Si1 0.072544 0.000000 0.335763
Si Si2 0.178842 0.625747 0.340133
Si Si3 0.924273 0.695589 0.657705
Si Si4 0.673319 0.349919 0.658547
Si Si5 0.803171 0.452149 0.843793
Si Si6 0.075694 0.224950 0.840958
Si Si7 0.153965 0.075421 0.655382
O O1 0.105919 0.958557 0.278693
O O2 0.077500 0.000000 0.500000
O O3 0.000000 0.000000 0.275955
O O4 0.175508 0.613556 0.500000
O O5 0.120686 0.656898 0.295931
O O6 0.247882 0.650147 0.307165
O O7 0.165695 0.582866 0.256219
O O8 0.909522 0.708003 0.500000
O O9 0.906678 0.734946 0.751071
O O10 0.000000 0.681638 0.678057
O O11 0.661791 0.361109 0.500000
O O12 0.633406 0.307974 0.696635
O O13 0.640796 0.384880 0.751544
O O14 0.819642 0.500000 0.796503
O O15 0.725357 0.445365 0.837674
O O16 0.828980 0.445338 0.000000
O O17 0.000000 0.209051 0.808932
O O18 0.080885 0.237677 0.000000
O O19 0.135784 0.088186 0.500000
#
# Coordination Sequence:
#
# PCOD8292758 Si02
#       7
#     8  16  16  16  16  16  16
#     4   9  16  26  41  61  85 115 152 191 228 264
#     4   9  18  31  47  70  95 118 148 186 229 271
#     4   9  18  33  51  69  91 118 148 185 227 272
#     4   9  18  31  45  65  93 120 148 187 228 266
#     4   9  16  28  47  68  91 119 150 185 223 266
#     4   9  18  32  48  65  89 124 158 184 220 270
#     4   9  16  28  44  62  86 117 151 188 227 264
#
# _framework density 16.552849999999999
#
# number of rings (size 3 to 8) (size 9 to 14) (size 15 to 20)
#    0.000    3.000    0.769    0.000    0.000    2.769 
#    0.000    0.385    0.000    0.923    0.000    3.231 
#    0.000    0.000    0.000    0.000    0.000    0.000 
#
# Total GULP energy -644433.109096 kJ/mol
# GULP energy per Si atom -12392.944406 kJ/mol
# Density = 1.651517 g / cm^3
# Si number density = 16.552850 Si / 1000 Ang^3
#
#
#
# Elastic Constant Matrix: (Units=GPa)
#
#
# Indices 1 2 3 4 5 6 
#
# 1 72.5883 72.9624 40.9135 0.0002 0.0002 0.0001
# 2 72.9624 154.0178 75.7437 0.0005 0.0003 0.0006
# 3 40.9135 75.7437 64.9241 0.0025 0.0013 0.0099
# 4 0.0002 0.0005 0.0025 29.8271 0.0006 0.0042
# 5 0.0002 0.0003 0.0013 0.0006 17.0696 0.0036
# 6 0.0001 0.0006 0.0099 0.0042 0.0036 -67.2631
#
#
#
# Elastic Compliance Matrix: (Units=1/GPa)
#
#
# Indices 1 2 3 4 5 6 
#
# 1 0.026947 -0.010356 -0.004899 0.000000 0.000000 -0.000001
# 2 -0.010356 0.019212 -0.015887 0.000001 0.000001 -0.000002
# 3 -0.004899 -0.015887 0.037025 -0.000003 -0.000002 0.000005
# 4 0.000000 0.000001 -0.000003 0.033527 -0.000001 0.000002
# 5 0.000000 0.000001 -0.000002 -0.000001 0.058584 0.000003
# 6 -0.000001 -0.000002 0.000005 0.000002 0.000003 -0.014867
#
#
# Mechanical properties :
#
#
# Convention : Reuss Voigt Hill
#
# Bulk Modulus (GPa) = 47.85070 74.52995 61.19033
# Shear Modulus (GPa) = 21.76939 2.72078 12.24509
#
# Velocity S-wave (km/s) = 3.63043 1.28346 2.72280
# Velocity P-wave (km/s) = 6.82231 6.87892 6.85067
#
# Compressibility (1/GPa) = 0.02089833
#
# Stress axis : x y z
#
# Youngs Moduli (GPa) = 37.10922 52.05078 27.00862
#
# Poissons Ratio (x) = 0.53905 0.13233
# Poissons Ratio (y) = 0.38431 0.42910
# Poissons Ratio (z) = 0.18182 0.82695
#
# Static dielectric constant tensor:
#      x y z
#    x 3.088660 0.000000 0.000000 
#    y 0.000000 3.107110 0.000000 
#    z 0.000000 0.000000 3.135420 
# 
# 
# High freq. dielectric constant tensor:
#      x y z
#    x 1.624420 0.000000 0.000000 
#    y 0.000000 1.634590 0.000000 
#    z 0.000000 0.000000 1.631350 
# 
# From -- ./inp_files/13614.got.cif
#   From: 2010.06.25/outbox.cif.g09.slc.cpg/sg71_7_cif.got.tgz:13614.got - 2010.06.28 04:59:45.
