data_PCOD8292487
_publ_section_title
;
Structure prediction by ZEFSAII (Michael W. Deem and Ramdas Pophale) SiO2 
 PCOD8292487
Probable space group: I M M M
;
_chemical_formula_sum "Si O2"
_cell_formula_units_Z 88
_cell_length_a 21.253258
_cell_length_b 21.844991
_cell_length_c 9.450248
_cell_angle_alpha 90.000000
_cell_angle_beta 90.000000
_cell_angle_gamma 90.000000
_cell_volume 4387.534962
_symmetry_space_group_name_H-M "I M M M"
_symmetry_group_IT_number 71
_symmetry_cell_setting 'orthorhombic'
loop_
_space_group_symop_operation_xyz
x,y,z
-x,-y,z
x,-y,-z
-x,y,-z
-x,-y,-z
x,y,-z
-x,y,z
x,-y,z
1/2+x,1/2+y,1/2+z
1/2-x,1/2-y,1/2+z
1/2+x,1/2-y,1/2-z
1/2-x,1/2+y,1/2-z
1/2-x,1/2-y,1/2-z
1/2+x,1/2+y,1/2-z
1/2-x,1/2+y,1/2+z
1/2+x,1/2-y,1/2+z
loop_
_atom_site_type_symbol
_atom_site_label
_atom_site_fract_x
_atom_site_fract_y
_atom_site_fract_z
Si Si1 0.000000 0.572900 0.831001
Si Si2 0.357092 0.629098 0.757712
Si Si3 0.575010 0.571569 0.500000
Si Si4 0.314505 0.755337 0.164379
Si Si5 0.265953 0.068832 0.662378
Si Si6 0.931869 0.070818 0.500000
Si Si7 0.377453 0.885241 0.831690
O O1 0.941732 0.604397 0.752148
O O2 0.000000 0.500000 0.805685
O O3 0.000000 0.587252 0.000000
O O4 0.394721 0.610871 0.621648
O O5 0.362026 0.701231 0.788946
O O6 0.283329 0.612199 0.756673
O O7 0.390556 0.587553 0.869589
O O8 0.595423 0.500000 0.500000
O O9 0.500000 0.576568 0.500000
O O10 0.250000 0.750000 0.250000
O O11 0.352724 0.816810 0.195988
O O12 0.296865 0.749516 0.000000
O O13 0.278020 0.091337 0.500000
O O14 0.328580 0.069111 0.756848
O O15 0.239748 0.000000 0.659480
O O16 0.000000 0.104554 0.500000
O O17 0.945202 0.000000 0.500000
O O18 0.384587 0.899140 0.000000
#
# Coordination Sequence:
#
# PCOD8292487 Si02
#       7
#     8  16   8  16  16   8  16
#     4  11  25  49  75 101 135 177 226 279 338 407
#     4  12  23  42  64  96 132 174 226 276 334 394
#     4  11  26  46  65  94 138 179 222 279 341 399
#     4  11  24  43  66  96 137 177 222 277 332 399
#     4  11  22  37  62  97 130 163 219 281 336 400
#     4  11  22  40  67  96 128 173 224 273 335 399
#     4  11  25  43  66 100 134 178 221 271 342 400
#
# _framework density 20.056819000000001
#
# number of rings (size 3 to 8) (size 9 to 14) (size 15 to 20)
#    0.000    0.818    3.636    3.545    2.545    5.455 
#    3.273    0.000    0.000    0.000    0.000    0.000 
#    0.000    0.000    0.000    0.000    0.000    0.000 
#
# Total GULP energy -545422.393167 kJ/mol
# GULP energy per Si atom -12395.963481 kJ/mol
# Density = 2.001117 g / cm^3
# Si number density = 20.056819 Si / 1000 Ang^3
#
#
#
# Elastic Constant Matrix: (Units=GPa)
#
#
# Indices 1 2 3 4 5 6 
#
# 1 128.9935 34.7281 59.1971 0.0000 0.0000 0.0000
# 2 34.7281 113.4784 48.6518 0.0000 0.0000 0.0000
# 3 59.1971 48.6518 155.1504 0.0000 0.0000 0.0000
# 4 0.0000 0.0000 0.0000 35.0809 0.0000 0.0000
# 5 0.0000 0.0000 0.0000 0.0000 84.5013 0.0000
# 6 0.0000 0.0000 0.0000 0.0000 0.0000 -2.8188
#
#
#
# Elastic Compliance Matrix: (Units=1/GPa)
#
#
# Indices 1 2 3 4 5 6 
#
# 1 0.009639 -0.001586 -0.003180 0.000000 0.000000 0.000000
# 2 -0.001586 0.010442 -0.002669 0.000000 0.000000 0.000000
# 3 -0.003180 -0.002669 0.008496 0.000000 0.000000 0.000000
# 4 0.000000 0.000000 0.000000 0.028506 0.000000 0.000000
# 5 0.000000 0.000000 0.000000 0.000000 0.011834 0.000000
# 6 0.000000 0.000000 0.000000 0.000000 0.000000 -0.354764
#
#
# Mechanical properties :
#
#
# Convention : Reuss Voigt Hill
#
# Bulk Modulus (GPa) = 72.96476 75.86406 74.41441
# Shear Modulus (GPa) = -18.76825 40.35569 10.79372
#
# Velocity S-wave (km/s) = -3.06233 4.49047 2.32234
# Velocity P-wave (km/s) = 4.89430 8.04938 6.66133
#
# Compressibility (1/GPa) = 0.01370525
#
# Stress axis : x y z
#
# Youngs Moduli (GPa) = 103.74665 95.76640 117.70583
#
# Poissons Ratio (x) = 0.15192 0.37433
# Poissons Ratio (y) = 0.16458 0.31417
# Poissons Ratio (z) = 0.32994 0.25561
#
# Static dielectric constant tensor:
#      x y z
#    x 4.001960 0.000000 0.000000 
#    y 0.000000 3.795060 0.000000 
#    z 0.000000 0.000000 3.811100 
# 
# 
# High freq. dielectric constant tensor:
#      x y z
#    x 1.787900 0.000000 0.000000 
#    y 0.000000 1.790640 0.000000 
#    z 0.000000 0.000000 1.797480 
# 
# From -- ./inp_files/10570.got.cif
#   From: 2010.06.25/outbox.cif.g09.slc.cpg/sg71_6_cif.got.tgz:10570.got - 2010.06.28 04:59:45.
