data_PCOD8292801
_publ_section_title
;
Structure prediction by ZEFSAII (Michael W. Deem and Ramdas Pophale) SiO2 
 PCOD8292801
Probable space group: I M M M
;
_chemical_formula_sum "Si O2"
_cell_formula_units_Z 36
_cell_length_a 15.000000
_cell_length_b 30.000000
_cell_length_c 9.000000
_cell_angle_alpha 90.000000
_cell_angle_beta 90.000000
_cell_angle_gamma 90.000000
_cell_volume 4050.000000
_symmetry_space_group_name_H-M "I M M M"
_symmetry_group_IT_number 71
_symmetry_cell_setting 'orthorhombic'
loop_
_space_group_symop_operation_xyz
x,y,z
-x,-y,z
x,-y,-z
-x,y,-z
-x,-y,-z
x,y,-z
-x,y,z
x,-y,z
1/2+x,1/2+y,1/2+z
1/2-x,1/2-y,1/2+z
1/2+x,1/2-y,1/2-z
1/2-x,1/2+y,1/2-z
1/2-x,1/2-y,1/2-z
1/2+x,1/2+y,1/2-z
1/2-x,1/2+y,1/2+z
1/2+x,1/2-y,1/2+z
loop_
_atom_site_type_symbol
_atom_site_label
_atom_site_fract_x
_atom_site_fract_y
_atom_site_fract_z
Si Si1 0.600003 0.272124 0.325548
Si Si2 0.105412 0.087933 0.171465
Si Si3 0.105369 0.000000 0.666764
Si Si4 0.275770 0.659352 0.823225
Si Si5 0.400811 0.822341 0.173950
O O1 0.623677 0.274207 0.500000
O O2 0.500000 0.292756 0.299568
O O3 0.679002 0.295158 0.233292
O O4 0.599595 0.222115 0.269823
O O5 0.138272 0.041206 0.235918
O O6 0.153453 0.122741 0.276043
O O7 0.000000 0.094266 0.186977
O O8 0.134873 0.092951 0.000000
O O9 0.147185 0.000000 0.500000
O O10 0.000000 0.000000 0.651540
O O11 0.180343 0.648860 0.743664
O O12 0.262812 0.660273 0.000000
O O13 0.500000 0.844749 0.192656
O O14 0.382625 0.813079 0.000000
#
# Coordination Sequence:
#
# PCOD8292801 Si02
#       5
#    16  16   8  16  16
#     4  10  20  34  51  71  98 131 166 205 248 295
#     4  10  20  34  52  75 104 136 168 201 239 287
#     4   9  17  31  51  75 104 135 164 195 237 291
#     4  12  23  33  49  73 101 131 165 207 250 293
#     4  10  21  37  54  70  92 126 168 211 253 297
#
# _framework density 8.8888890000000007
#
# number of rings (size 3 to 8) (size 9 to 14) (size 15 to 20)
#    0.000    1.667    0.000    5.667    0.000    8.000 
#    0.000    0.000    0.000    0.000    0.000    0.778 
#    0.000    6.222    0.000    0.000    0.000    0.000 
#
# Total GULP energy -446173.411963 kJ/mol
# GULP energy per Si atom -12393.705888 kJ/mol
# Density = 0.886866 g / cm^3
# Si number density = 8.888889 Si / 1000 Ang^3
#
#
#
# Elastic Constant Matrix: (Units=GPa)
#
#
# Indices 1 2 3 4 5 6 
#
# 1 84.3079 8.6129 44.9270 0.0031 -0.0005 -0.0078
# 2 8.6129 43.9961 16.6445 0.0048 -0.0008 0.0011
# 3 44.9270 16.6445 135.3745 0.0268 -0.0072 0.1785
# 4 0.0031 0.0048 0.0268 35.5623 -0.0033 0.1311
# 5 -0.0005 -0.0008 -0.0072 -0.0033 33.1017 0.0775
# 6 -0.0078 0.0011 0.1785 0.1311 0.0775 -126.0261
#
#
#
# Elastic Compliance Matrix: (Units=1/GPa)
#
#
# Indices 1 2 3 4 5 6 
#
# 1 0.014457 -0.001065 -0.004667 0.000002 -0.000001 -0.000008
# 2 -0.001065 0.023916 -0.002587 -0.000001 0.000000 -0.000003
# 3 -0.004667 -0.002587 0.009254 -0.000006 0.000002 0.000013
# 4 0.000002 -0.000001 -0.000006 0.028120 0.000003 0.000029
# 5 -0.000001 0.000000 0.000002 0.000003 0.030210 0.000019
# 6 -0.000008 -0.000003 0.000013 0.000029 0.000019 -0.007935
#
#
# Mechanical properties :
#
#
# Convention : Reuss Voigt Hill
#
# Bulk Modulus (GPa) = 32.26876 44.89415 38.58145
# Shear Modulus (GPa) = 40.00333 1.42718 20.71526
#
# Velocity S-wave (km/s) = 4.74876 0.89696 3.41725
# Velocity P-wave (km/s) = 6.94681 5.13619 6.10896
#
# Compressibility (1/GPa) = 0.03098973
#
# Stress axis : x y z
#
# Youngs Moduli (GPa) = 69.17048 41.81218 108.06308
#
# Poissons Ratio (x) = 0.04451 0.50433
# Poissons Ratio (y) = 0.07364 0.27959
# Poissons Ratio (z) = 0.32282 0.10818
#
# Static dielectric constant tensor:
#      x y z
#    x 3.758150 0.000570 0.000000 
#    y 0.000570 -35.942000 -0.000610 
#    z 0.000000 -0.000610 3.577160 
# 
# 
# High freq. dielectric constant tensor:
#      x y z
#    x 1.688910 0.000000 0.000000 
#    y 0.000000 1.648170 0.000000 
#    z 0.000000 0.000000 1.718050 
# 
# From -- ./inp_files/6033.got.cif
#   From: 2010.06.25/outbox.ucp.g09.slc.cvg/sg71_4_cif.got.tgz:6033.got - 2010.06.28 16:23:14.
