data_PCOD8292891
_publ_section_title
;
Structure prediction by ZEFSAII (Michael W. Deem and Ramdas Pophale) SiO2 
 PCOD8292891
Probable space group: I B A M
;
_chemical_formula_sum "Si O2"
_cell_formula_units_Z 128
_cell_length_a 20.866816
_cell_length_b 23.464263
_cell_length_c 17.016500
_cell_angle_alpha 90.000000
_cell_angle_beta 90.000000
_cell_angle_gamma 90.000000
_cell_volume 8331.694600
_symmetry_space_group_name_H-M "I B A M"
_symmetry_group_IT_number 72
_symmetry_cell_setting 'orthorhombic'
loop_
_space_group_symop_operation_xyz
x,y,z
-x,-y,z
x,-y,1/2-z
-x,y,1/2-z
-x,-y,-z
x,y,-z
-x,y,1/2+z
x,-y,1/2+z
1/2+x,1/2+y,1/2+z
1/2-x,1/2-y,1/2+z
1/2+x,1/2-y,-z
1/2-x,1/2+y,-z
1/2-x,1/2-y,1/2-z
1/2+x,1/2+y,1/2-z
1/2-x,1/2+y,z
1/2+x,1/2-y,z
loop_
_atom_site_type_symbol
_atom_site_label
_atom_site_fract_x
_atom_site_fract_y
_atom_site_fract_z
Si Si1 0.429382 0.745257 0.779292
Si Si2 0.170355 0.047833 0.309349
Si Si3 0.115727 0.124172 0.821096
Si Si4 0.739371 0.362174 0.592764
Si Si5 0.220950 0.182561 0.912763
Si Si6 0.568967 0.520661 0.592316
Si Si7 0.137650 0.296939 0.085609
Si Si8 0.196354 0.247075 0.681601
O O1 0.500000 0.759333 0.750000
O O2 0.426349 0.680555 0.809609
O O3 0.417362 0.790574 0.849481
O O4 0.375210 0.754690 0.713522
O O5 0.128317 0.093493 0.261380
O O6 0.224828 0.078945 0.361136
O O7 0.200196 0.000000 0.250000
O O8 0.123093 0.017754 0.369474
O O9 0.185285 0.136518 0.859040
O O10 0.075346 0.085910 0.880948
O O11 0.721202 0.366127 0.500000
O O12 0.815214 0.350092 0.603000
O O13 0.698346 0.312073 0.633748
O O14 0.180726 0.240533 0.913578
O O15 0.289803 0.199085 0.875660
O O16 0.230376 0.157490 0.000000
O O17 0.500000 0.500000 0.621384
O O18 0.576681 0.515956 0.500000
O O19 0.105220 0.304402 0.000000
O O20 0.250000 0.250000 0.750000
#
# Coordination Sequence:
#
# PCOD8292891 Si02
#       8
#    16  16  16  16  16  16  16  16
#     4  11  21  30  47  73  99 127 161 199 243 292
#     4  10  20  31  45  67  90 120 159 211 247 270
#     4  10  19  31  49  64  89 126 167 201 243 281
#     4  10  17  29  51  71  89 124 165 203 243 286
#     4   9  16  28  48  70  88 115 157 200 238 286
#     4  10  22  35  45  60  90 132 170 208 246 282
#     4   8  16  30  47  68  93 122 154 191 241 297
#     4  11  16  30  47  69  95 122 161 199 239 288
#
# _framework density 15.363021
#
# number of rings (size 3 to 8) (size 9 to 14) (size 15 to 20)
#    0.000    2.125    5.000    1.875    1.750    2.250 
#    0.000    1.250    0.000    0.000    0.000    0.000 
#    0.000    0.500    0.000    2.750    1.000    0.000 
#
# Total GULP energy -793294.400384 kJ/mol
# GULP energy per Si atom -12395.225006 kJ/mol
# Density = 1.532805 g / cm^3
# Si number density = 15.363021 Si / 1000 Ang^3
#
#
#
# Elastic Constant Matrix: (Units=GPa)
#
#
# Indices 1 2 3 4 5 6 
#
# 1 95.5939 38.5515 50.1985 0.0000 0.0000 0.0000
# 2 38.5515 57.9922 33.1174 0.0000 0.0000 0.0000
# 3 50.1985 33.1174 92.0837 0.0000 0.0000 0.0000
# 4 0.0000 0.0000 0.0000 24.4684 0.0000 0.0000
# 5 0.0000 0.0000 0.0000 0.0000 24.2614 0.0000
# 6 0.0000 0.0000 0.0000 0.0000 0.0000 19.9019
#
#
#
# Elastic Compliance Matrix: (Units=1/GPa)
#
#
# Indices 1 2 3 4 5 6 
#
# 1 0.016917 -0.007525 -0.006516 0.000000 0.000000 0.000000
# 2 -0.007525 0.025048 -0.004906 0.000000 0.000000 0.000000
# 3 -0.006516 -0.004906 0.016176 0.000000 0.000000 0.000000
# 4 0.000000 0.000000 0.000000 0.040869 0.000000 0.000000
# 5 0.000000 0.000000 0.000000 0.000000 0.041218 0.000000
# 6 0.000000 0.000000 0.000000 0.000000 0.000000 0.050247
#
#
# Mechanical properties :
#
#
# Convention : Reuss Voigt Hill
#
# Bulk Modulus (GPa) = 49.38969 54.37831 51.88400
# Shear Modulus (GPa) = 21.26590 21.97983 21.62287
#
# Velocity S-wave (km/s) = 3.72456 3.78656 3.75569
# Velocity P-wave (km/s) = 7.12142 7.38849 7.25618
#
# Compressibility (1/GPa) = 0.02024714
#
# Stress axis : x y z
#
# Youngs Moduli (GPa) = 59.11095 39.92355 61.81900
#
# Poissons Ratio (x) = 0.30043 0.40281
# Poissons Ratio (y) = 0.44482 0.30329
# Poissons Ratio (z) = 0.38516 0.19587
#
# Static dielectric constant tensor:
#      x y z
#    x 2.730250 0.000000 0.000000 
#    y 0.000000 2.932050 0.000000 
#    z 0.000000 0.000000 3.378800 
# 
# 
# High freq. dielectric constant tensor:
#      x y z
#    x 1.551000 0.000000 0.000000 
#    y 0.000000 1.566950 0.000000 
#    z 0.000000 0.000000 1.612030 
# 
# From -- ./inp_files/33001.got.cif
#   From: 2010.03.12/outbox.cif.g09.slc.cpg/sg72_17_cif.got.tgz:33001.got - 2010.04.16 14:54:00.
