data_PCOD8292464
_publ_section_title
;
Structure prediction by ZEFSAII (Michael W. Deem and Ramdas Pophale) SiO2 
 PCOD8292464
Probable space group: I M M M
;
_chemical_formula_sum "Si O2"
_cell_formula_units_Z 96
_cell_length_a 20.447183
_cell_length_b 8.634707
_cell_length_c 27.830303
_cell_angle_alpha 90.000000
_cell_angle_beta 90.000000
_cell_angle_gamma 90.000000
_cell_volume 4913.591230
_symmetry_space_group_name_H-M "I M M M"
_symmetry_group_IT_number 71
_symmetry_cell_setting 'orthorhombic'
loop_
_space_group_symop_operation_xyz
x,y,z
-x,-y,z
x,-y,-z
-x,y,-z
-x,-y,-z
x,y,-z
-x,y,z
x,-y,z
1/2+x,1/2+y,1/2+z
1/2-x,1/2-y,1/2+z
1/2+x,1/2-y,1/2-z
1/2-x,1/2+y,1/2-z
1/2-x,1/2-y,1/2-z
1/2+x,1/2+y,1/2-z
1/2-x,1/2+y,1/2+z
1/2+x,1/2-y,1/2+z
loop_
_atom_site_type_symbol
_atom_site_label
_atom_site_fract_x
_atom_site_fract_y
_atom_site_fract_z
Si Si1 0.075658 0.319954 0.389682
Si Si2 0.808371 0.820329 0.444211
Si Si3 0.427656 0.316145 0.553691
Si Si4 0.807358 0.817812 0.115322
Si Si5 0.928208 0.683948 0.718780
Si Si6 0.691280 0.182810 0.280047
O O1 0.093060 0.500000 0.396284
O O2 0.119268 0.218947 0.425504
O O3 0.091065 0.265272 0.335214
O O4 0.000000 0.289253 0.402234
O O5 0.804381 0.777126 0.500000
O O6 0.755809 0.716895 0.416463
O O7 0.793287 0.000000 0.435236
O O8 0.414965 0.251098 0.500000
O O9 0.500000 0.263520 0.571481
O O10 0.423620 0.500000 0.552191
O O11 0.372171 0.251019 0.589061
O O12 0.801890 0.732047 0.165418
O O13 0.812052 0.000000 0.124400
O O14 0.931003 0.500000 0.719984
O O15 0.875946 0.748858 0.756978
O O16 0.000000 0.750689 0.732304
O O17 0.750000 0.250000 0.250000
O O18 0.693127 0.000000 0.275996
#
# Coordination Sequence:
#
# PCOD8292464 Si02
#       6
#    16  16  16  16  16  16
#     4   9  18  35  60  86 110 140 182 228 272 325
#     4  11  24  39  55  78 110 146 185 232 280 326
#     4   8  15  30  53  80 108 139 178 224 272 322
#     4  11  22  36  56  81 110 145 184 227 275 329
#     4   8  16  33  56  80 106 139 178 218 262 314
#     4  11  22  36  56  81 110 144 182 226 273 324
#
# _framework density 19.537645000000001
#
# number of rings (size 3 to 8) (size 9 to 14) (size 15 to 20)
#    0.000    2.333    0.000    4.500    0.000    4.667 
#    0.000    2.500    0.000    5.000    0.000    5.833 
#    0.000    0.000    0.000    0.000    0.000    0.000 
#
# Total GULP energy -595185.445370 kJ/mol
# GULP energy per Si atom -12399.696779 kJ/mol
# Density = 1.949318 g / cm^3
# Si number density = 19.537645 Si / 1000 Ang^3
#
#
#
# Elastic Constant Matrix: (Units=GPa)
#
#
# Indices 1 2 3 4 5 6 
#
# 1 141.3536 25.9565 78.6531 0.0000 0.0000 0.0000
# 2 25.9565 38.2966 23.4825 0.0000 0.0000 0.0000
# 3 78.6531 23.4825 130.5467 0.0000 0.0000 0.0000
# 4 0.0000 0.0000 0.0000 25.1416 0.0000 0.0000
# 5 0.0000 0.0000 0.0000 0.0000 43.6913 0.0000
# 6 0.0000 0.0000 0.0000 0.0000 0.0000 20.0712
#
#
#
# Elastic Compliance Matrix: (Units=1/GPa)
#
#
# Indices 1 2 3 4 5 6 
#
# 1 0.011127 -0.003856 -0.006010 0.000000 0.000000 0.000000
# 2 -0.003856 0.030686 -0.003196 0.000000 0.000000 0.000000
# 3 -0.006010 -0.003196 0.011856 0.000000 0.000000 0.000000
# 4 0.000000 0.000000 0.000000 0.039775 0.000000 0.000000
# 5 0.000000 0.000000 0.000000 0.000000 0.022888 0.000000
# 6 0.000000 0.000000 0.000000 0.000000 0.000000 0.049823
#
#
# Mechanical properties :
#
#
# Convention : Reuss Voigt Hill
#
# Bulk Modulus (GPa) = 36.30677 62.93126 49.61902
# Shear Modulus (GPa) = 24.81883 29.92114 27.36998
#
# Velocity S-wave (km/s) = 3.56801 3.91763 3.74690
# Velocity P-wave (km/s) = 5.96637 7.26251 6.64611
#
# Compressibility (1/GPa) = 0.02754307
#
# Stress axis : x y z
#
# Youngs Moduli (GPa) = 89.87340 32.58863 84.34491
#
# Poissons Ratio (x) = 0.12567 0.50692
# Poissons Ratio (y) = 0.34657 0.26959
# Poissons Ratio (z) = 0.54015 0.10416
#
# Static dielectric constant tensor:
#      x y z
#    x 3.892070 0.000000 0.000000 
#    y 0.000000 3.224190 0.000000 
#    z 0.000000 0.000000 3.637340 
# 
# 
# High freq. dielectric constant tensor:
#      x y z
#    x 1.778710 0.000000 0.000000 
#    y 0.000000 1.730340 0.000000 
#    z 0.000000 0.000000 1.763680 
# 
# From -- ./inp_files/63201.got.cif
#   From: 2010.06.25/outbox.cif.g09.slc.cpg/sg71_32_cif.got.tgz:63201.got - 2010.06.28 04:59:45.
