data_PCOD8292753
_publ_section_title
;
Structure prediction by ZEFSAII (Michael W. Deem and Ramdas Pophale) SiO2 
 PCOD8292753
Probable space group: I M M M
;
_chemical_formula_sum "Si O2"
_cell_formula_units_Z 88
_cell_length_a 20.625534
_cell_length_b 9.326587
_cell_length_c 32.083688
_cell_angle_alpha 90.000000
_cell_angle_beta 90.000000
_cell_angle_gamma 90.000000
_cell_volume 6171.805505
_symmetry_space_group_name_H-M "I M M M"
_symmetry_group_IT_number 71
_symmetry_cell_setting 'orthorhombic'
loop_
_space_group_symop_operation_xyz
x,y,z
-x,-y,z
x,-y,-z
-x,y,-z
-x,-y,-z
x,y,-z
-x,y,z
x,-y,z
1/2+x,1/2+y,1/2+z
1/2-x,1/2-y,1/2+z
1/2+x,1/2-y,1/2-z
1/2-x,1/2+y,1/2-z
1/2-x,1/2-y,1/2-z
1/2+x,1/2+y,1/2-z
1/2-x,1/2+y,1/2+z
1/2+x,1/2-y,1/2+z
loop_
_atom_site_type_symbol
_atom_site_label
_atom_site_fract_x
_atom_site_fract_y
_atom_site_fract_z
Si Si1 0.573517 0.665019 0.688454
Si Si2 0.651304 0.162215 0.751053
Si Si3 0.876555 0.835128 0.046987
Si Si4 0.229046 0.838132 0.311728
Si Si5 0.000000 0.340683 0.049348
Si Si6 0.809944 0.836225 0.871381
O O1 0.500000 0.700142 0.674457
O O2 0.580900 0.500000 0.702124
O O3 0.591137 0.761285 0.728474
O O4 0.621020 0.700360 0.650055
O O5 0.712596 0.163583 0.720763
O O6 0.668831 0.248814 0.793107
O O7 0.631877 0.000000 0.762884
O O8 0.817117 0.809969 0.078921
O O9 0.936118 0.741934 0.064000
O O10 0.899221 0.000000 0.048249
O O11 0.854872 0.791778 0.000000
O O12 0.252860 0.765054 0.354599
O O13 0.206366 0.000000 0.321238
O O14 0.000000 0.500000 0.068899
O O15 0.000000 0.347572 0.000000
O O16 0.790461 0.000000 0.861537
#
# Coordination Sequence:
#
# PCOD8292753 Si02
#       6
#    16  16  16  16   8  16
#     4   9  17  27  38  53  74  99 125 153 188 226
#     4   9  16  26  40  55  72  93 118 148 183 221
#     4   9  17  28  41  54  69  93 125 158 192 231
#     4   9  16  26  40  56  73  91 117 149 185 224
#     4   9  17  27  37  49  65  87 117 153 191 229
#     4   9  17  27  40  55  73  95 124 159 193 226
#
# _framework density 14.258388
#
# number of rings (size 3 to 8) (size 9 to 14) (size 15 to 20)
#    0.000    3.000    0.000    1.364    1.273    6.545 
#    0.000    0.000    0.000    0.000    0.000    0.000 
#    0.000    0.000    0.000    0.000    0.000    0.909 
#
# Total GULP energy -545446.165125 kJ/mol
# GULP energy per Si atom -12396.503753 kJ/mol
# Density = 1.422594 g / cm^3
# Si number density = 14.258388 Si / 1000 Ang^3
#
#
#
# Elastic Constant Matrix: (Units=GPa)
#
#
# Indices 1 2 3 4 5 6 
#
# 1 19.0751 14.8887 21.2743 0.0000 0.0000 0.0000
# 2 14.8887 82.2361 38.3955 0.0000 0.0000 0.0000
# 3 21.2743 38.3955 72.0733 0.0000 0.0000 0.0000
# 4 0.0000 0.0000 0.0000 17.3058 0.0000 0.0000
# 5 0.0000 0.0000 0.0000 0.0000 18.5595 0.0000
# 6 0.0000 0.0000 0.0000 0.0000 0.0000 18.1615
#
#
#
# Elastic Compliance Matrix: (Units=1/GPa)
#
#
# Indices 1 2 3 4 5 6 
#
# 1 0.079423 -0.004570 -0.021009 0.000000 0.000000 0.000000
# 2 -0.004570 0.016449 -0.007414 0.000000 0.000000 0.000000
# 3 -0.021009 -0.007414 0.024026 0.000000 0.000000 0.000000
# 4 0.000000 0.000000 0.000000 0.057784 0.000000 0.000000
# 5 0.000000 0.000000 0.000000 0.000000 0.053881 0.000000
# 6 0.000000 0.000000 0.000000 0.000000 0.000000 0.055062
#
#
# Mechanical properties :
#
#
# Convention : Reuss Voigt Hill
#
# Bulk Modulus (GPa) = 18.54900 35.83347 27.19124
# Shear Modulus (GPa) = 13.49234 17.39375 15.44305
#
# Velocity S-wave (km/s) = 3.07949 3.49649 3.29460
# Velocity P-wave (km/s) = 5.06772 6.44101 5.79519
#
# Compressibility (1/GPa) = 0.05391125
#
# Stress axis : x y z
#
# Youngs Moduli (GPa) = 12.59085 60.79391 41.62227
#
# Poissons Ratio (x) = 0.27785 0.87444
# Poissons Ratio (y) = 0.05755 0.30858
# Poissons Ratio (z) = 0.26452 0.45071
#
# Static dielectric constant tensor:
#      x y z
#    x 2.445920 0.000000 0.000000 
#    y 0.000000 3.002530 0.000000 
#    z 0.000000 0.000000 2.703100 
# 
# 
# High freq. dielectric constant tensor:
#      x y z
#    x 1.490680 0.000000 0.000000 
#    y 0.000000 1.557380 0.000000 
#    z 0.000000 0.000000 1.522130 
# 
# From -- ./inp_files/13534.got.cif
#   From: 2010.06.25/outbox.cif.g09.slc.cpg/sg71_7_cif.got.tgz:13534.got - 2010.06.28 04:59:45.
