data_PCOD8292778
_publ_section_title
;
Structure prediction by ZEFSAII (Michael W. Deem and Ramdas Pophale) SiO2 
 PCOD8292778
Probable space group: I M M M
;
_chemical_formula_sum "Si O2"
_cell_formula_units_Z 72
_cell_length_a 13.831968
_cell_length_b 7.722887
_cell_length_c 33.805308
_cell_angle_alpha 90.000000
_cell_angle_beta 90.000000
_cell_angle_gamma 90.000000
_cell_volume 3611.175149
_symmetry_space_group_name_H-M "I M M M"
_symmetry_group_IT_number 71
_symmetry_cell_setting 'orthorhombic'
loop_
_space_group_symop_operation_xyz
x,y,z
-x,-y,z
x,-y,-z
-x,y,-z
-x,-y,-z
x,y,-z
-x,y,z
x,-y,z
1/2+x,1/2+y,1/2+z
1/2-x,1/2-y,1/2+z
1/2+x,1/2-y,1/2-z
1/2-x,1/2+y,1/2-z
1/2-x,1/2-y,1/2-z
1/2+x,1/2+y,1/2-z
1/2-x,1/2+y,1/2+z
1/2+x,1/2-y,1/2+z
loop_
_atom_site_type_symbol
_atom_site_label
_atom_site_fract_x
_atom_site_fract_y
_atom_site_fract_z
Si Si1 0.606560 0.500000 0.953263
Si Si2 0.753850 0.698278 0.545724
Si Si3 0.607869 0.205384 0.233738
Si Si4 0.607310 0.703780 0.387716
Si Si5 0.209123 0.198882 0.811087
O O1 0.500000 0.500000 0.933777
O O2 0.660988 0.325147 0.939802
O O3 0.597183 0.500000 0.000000
O O4 0.726997 0.729927 0.500000
O O5 0.787633 0.500000 0.553025
O O6 0.658878 0.744909 0.570792
O O7 0.500000 0.262925 0.220621
O O8 0.687682 0.280920 0.202850
O O9 0.629072 0.281136 0.277022
O O10 0.616741 0.000000 0.236516
O O11 0.500000 0.786472 0.388838
O O12 0.598358 0.500000 0.380897
O O13 0.668893 0.786773 0.351337
O O14 0.228526 0.000000 0.820321
#
# Coordination Sequence:
#
# PCOD8292778 Si02
#       5
#     8  16  16  16  16
#     4   9  18  34  55  77 103 135 172 216 261 305
#     4   9  18  33  53  78 107 138 174 215 256 304
#     4   9  17  29  45  67  95 125 159 200 249 300
#     4   9  17  30  49  73 100 131 168 209 254 305
#     4   9  17  30  48  69  94 125 163 205 245 295
#
# _framework density 19.938109000000001
#
# number of rings (size 3 to 8) (size 9 to 14) (size 15 to 20)
#    0.000    3.000    0.000    0.667    0.000    2.222 
#    2.000    6.111    0.000    6.000    0.000    0.000 
#    0.000    0.000    0.000    0.000    0.000    0.000 
#
# Total GULP energy -446171.507105 kJ/mol
# GULP energy per Si atom -12393.652975 kJ/mol
# Density = 1.989273 g / cm^3
# Si number density = 19.938109 Si / 1000 Ang^3
#
#
#
# Elastic Constant Matrix: (Units=GPa)
#
#
# Indices 1 2 3 4 5 6 
#
# 1 188.3340 36.1469 80.2948 0.0000 0.0000 0.0000
# 2 36.1469 50.4379 24.5351 0.0000 0.0000 0.0000
# 3 80.2948 24.5351 112.2406 0.0000 0.0000 0.0000
# 4 0.0000 0.0000 0.0000 14.4536 0.0000 0.0000
# 5 0.0000 0.0000 0.0000 0.0000 27.4899 0.0000
# 6 0.0000 0.0000 0.0000 0.0000 0.0000 19.7400
#
#
#
# Elastic Compliance Matrix: (Units=1/GPa)
#
#
# Indices 1 2 3 4 5 6 
#
# 1 0.008115 -0.003348 -0.005074 0.000000 0.000000 0.000000
# 2 -0.003348 0.023567 -0.002756 0.000000 0.000000 0.000000
# 3 -0.005074 -0.002756 0.013142 0.000000 0.000000 0.000000
# 4 0.000000 0.000000 0.000000 0.069187 0.000000 0.000000
# 5 0.000000 0.000000 0.000000 0.000000 0.036377 0.000000
# 6 0.000000 0.000000 0.000000 0.000000 0.000000 0.050659
#
#
# Mechanical properties :
#
#
# Convention : Reuss Voigt Hill
#
# Bulk Modulus (GPa) = 44.50910 70.32958 57.41934
# Shear Modulus (GPa) = 21.65516 26.33906 23.99711
#
# Velocity S-wave (km/s) = 3.29921 3.63856 3.47303
# Velocity P-wave (km/s) = 6.07331 7.28029 6.70402
#
# Compressibility (1/GPa) = 0.02246731
#
# Stress axis : x y z
#
# Youngs Moduli (GPa) = 123.22137 42.43298 76.09368
#
# Poissons Ratio (x) = 0.14206 0.38609
# Poissons Ratio (y) = 0.41254 0.20975
# Poissons Ratio (z) = 0.62520 0.11696
#
# Static dielectric constant tensor:
#      x y z
#    x 3.979300 0.000000 0.000000 
#    y 0.000000 3.426000 0.000000 
#    z 0.000000 0.000000 3.553870 
# 
# 
# High freq. dielectric constant tensor:
#      x y z
#    x 1.778880 0.000000 0.000000 
#    y 0.000000 1.758100 0.000000 
#    z 0.000000 0.000000 1.759760 
# 
# From -- ./inp_files/67849.got.cif
#   From: 2010.06.25/outbox.cif.g09.slc.cpg/sg71_34_cif.got.tgz:67849.got - 2010.06.28 04:59:45.
