data_PCOD8292748
_publ_section_title
;
Structure prediction by ZEFSAII (Michael W. Deem and Ramdas Pophale) SiO2 
 PCOD8292748
Probable space group: I M M M
;
_chemical_formula_sum "Si O2"
_cell_formula_units_Z 104
_cell_length_a 22.114684
_cell_length_b 9.578396
_cell_length_c 28.189716
_cell_angle_alpha 90.000000
_cell_angle_beta 90.000000
_cell_angle_gamma 90.000000
_cell_volume 5971.235872
_symmetry_space_group_name_H-M "I M M M"
_symmetry_group_IT_number 71
_symmetry_cell_setting 'orthorhombic'
loop_
_space_group_symop_operation_xyz
x,y,z
-x,-y,z
x,-y,-z
-x,y,-z
-x,-y,-z
x,y,-z
-x,y,z
x,-y,z
1/2+x,1/2+y,1/2+z
1/2-x,1/2-y,1/2+z
1/2+x,1/2-y,1/2-z
1/2-x,1/2+y,1/2-z
1/2-x,1/2-y,1/2-z
1/2+x,1/2+y,1/2-z
1/2-x,1/2+y,1/2+z
1/2+x,1/2-y,1/2+z
loop_
_atom_site_type_symbol
_atom_site_label
_atom_site_fract_x
_atom_site_fract_y
_atom_site_fract_z
Si Si1 0.429742 0.344735 0.231655
Si Si2 0.570886 0.839564 0.317185
Si Si3 0.500000 0.666001 0.945593
Si Si4 0.142814 0.662879 0.090193
Si Si5 0.282136 0.845646 0.000000
Si Si6 0.138985 0.158047 0.000000
Si Si7 0.403108 0.339984 0.129476
Si Si8 0.719120 0.342669 0.084615
O O1 0.500000 0.356772 0.241619
O O2 0.400088 0.500000 0.234063
O O3 0.402210 0.248291 0.273155
O O4 0.419356 0.271270 0.180275
O O5 0.500000 0.815505 0.325399
O O6 0.604894 0.789573 0.364441
O O7 0.585630 0.000000 0.306268
O O8 0.500000 0.500000 0.950253
O O9 0.441032 0.720504 0.915615
O O10 0.500000 0.727483 0.000000
O O11 0.132551 0.500000 0.077633
O O12 0.118586 0.756095 0.046497
O O13 0.213384 0.693028 0.102161
O O14 0.304989 0.763096 0.954632
O O15 0.210439 0.850858 0.000000
O O16 0.310441 0.000000 0.000000
O O17 0.111607 0.000000 0.000000
O O18 0.423651 0.500000 0.133369
O O19 0.330558 0.325195 0.125594
O O20 0.717964 0.500000 0.063811
#
# Coordination Sequence:
#
# PCOD8292748 Si02
#       8
#    16  16   8  16   8   8  16  16
#     4   9  16  29  48  68  90 117 151 192 233 272
#     4   9  18  32  50  69  89 117 155 191 225 270
#     4   9  16  24  38  66 100 124 146 187 234 269
#     4   9  17  31  48  68  94 121 151 189 226 265
#     4   9  17  29  43  63  91 123 155 186 219 262
#     4   9  17  29  48  70  94 123 152 180 219 272
#     4   9  16  27  43  67  95 120 150 189 233 273
#     4   9  17  28  46  68  89 117 153 189 225 268
#
# _framework density 17.416829
#
# number of rings (size 3 to 8) (size 9 to 14) (size 15 to 20)
#    0.000    3.000    0.769    0.462    1.077    2.462 
#    0.000    1.923    0.000    2.308    0.000    0.538 
#    0.000    0.000    0.000    0.000    0.000    0.000 
#
# Total GULP energy -644358.906207 kJ/mol
# GULP energy per Si atom -12391.517427 kJ/mol
# Density = 1.737719 g / cm^3
# Si number density = 17.416829 Si / 1000 Ang^3
#
#
#
# Elastic Constant Matrix: (Units=GPa)
#
#
# Indices 1 2 3 4 5 6 
#
# 1 49.2110 21.7912 47.0440 0.0000 0.0000 0.0000
# 2 21.7912 67.5946 59.8105 0.0000 0.0000 0.0000
# 3 47.0440 59.8105 167.2293 0.0000 0.0000 0.0000
# 4 0.0000 0.0000 0.0000 25.8097 0.0000 0.0000
# 5 0.0000 0.0000 0.0000 0.0000 23.4144 0.0000
# 6 0.0000 0.0000 0.0000 0.0000 0.0000 10.8912
#
#
#
# Elastic Compliance Matrix: (Units=1/GPa)
#
#
# Indices 1 2 3 4 5 6 
#
# 1 0.028214 -0.003032 -0.006853 0.000000 0.000000 0.000000
# 2 -0.003032 0.021970 -0.007004 0.000000 0.000000 0.000000
# 3 -0.006853 -0.007004 0.010413 0.000000 0.000000 0.000000
# 4 0.000000 0.000000 0.000000 0.038745 0.000000 0.000000
# 5 0.000000 0.000000 0.000000 0.000000 0.042709 0.000000
# 6 0.000000 0.000000 0.000000 0.000000 0.000000 0.091817
#
#
# Mechanical properties :
#
#
# Convention : Reuss Voigt Hill
#
# Bulk Modulus (GPa) = 37.28869 60.14735 48.71802
# Shear Modulus (GPa) = 18.07762 22.38235 20.22999
#
# Velocity S-wave (km/s) = 3.22520 3.58872 3.41180
# Velocity P-wave (km/s) = 5.94351 7.19589 6.59948
#
# Compressibility (1/GPa) = 0.02681778
#
# Stress axis : x y z
#
# Youngs Moduli (GPa) = 35.44315 45.51764 96.03630
#
# Poissons Ratio (x) = 0.13802 0.65809
# Poissons Ratio (y) = 0.10747 0.67269
# Poissons Ratio (z) = 0.24288 0.31883
#
# Static dielectric constant tensor:
#      x y z
#    x 3.021400 0.000000 0.000000 
#    y 0.000000 3.262570 0.000000 
#    z 0.000000 0.000000 3.338770 
# 
# 
# High freq. dielectric constant tensor:
#      x y z
#    x 1.650770 0.000000 0.000000 
#    y 0.000000 1.644700 0.000000 
#    z 0.000000 0.000000 1.673320 
# 
# From -- ./inp_files/66904.got.cif
#   From: 2010.06.25/outbox.cif.g09.slc.cpg/sg71_34_cif.got.tgz:66904.got - 2010.06.28 04:59:45.
