data_PCOD8292980
_publ_section_title
;
Structure prediction by ZEFSAII (Michael W. Deem and Ramdas Pophale) SiO2 
 PCOD8292980
Probable space group: I B A M
;
_chemical_formula_sum "Si O2"
_cell_formula_units_Z 80
_cell_length_a 27.043933
_cell_length_b 18.665879
_cell_length_c 8.999871
_cell_angle_alpha 90.000000
_cell_angle_beta 90.000000
_cell_angle_gamma 90.000000
_cell_volume 4543.123911
_symmetry_space_group_name_H-M "I B A M"
_symmetry_group_IT_number 72
_symmetry_cell_setting 'orthorhombic'
loop_
_space_group_symop_operation_xyz
x,y,z
-x,-y,z
x,-y,1/2-z
-x,y,1/2-z
-x,-y,-z
x,y,-z
-x,y,1/2+z
x,-y,1/2+z
1/2+x,1/2+y,1/2+z
1/2-x,1/2-y,1/2+z
1/2+x,1/2-y,-z
1/2-x,1/2+y,-z
1/2-x,1/2-y,1/2-z
1/2+x,1/2+y,1/2-z
1/2-x,1/2+y,z
1/2+x,1/2-y,z
loop_
_atom_site_type_symbol
_atom_site_label
_atom_site_fract_x
_atom_site_fract_y
_atom_site_fract_z
Si Si1 0.652345 0.426801 0.174477
Si Si2 0.446803 0.070714 0.322303
Si Si3 0.101153 0.716527 0.324244
Si Si4 0.449637 0.642508 0.175257
Si Si5 0.201671 0.781013 0.675378
O O1 0.670000 0.500000 0.250000
O O2 0.596307 0.407551 0.223760
O O3 0.690271 0.363410 0.220964
O O4 0.654147 0.437883 0.000000
O O5 0.500000 0.081314 0.250000
O O6 0.451020 0.063600 0.500000
O O7 0.414129 0.137887 0.270869
O O8 0.421908 0.000000 0.250000
O O9 0.101826 0.722484 0.500000
O O10 0.062428 0.776690 0.267664
O O11 0.156115 0.732759 0.265514
O O12 0.500000 0.614677 0.250000
O O13 0.457159 0.640046 0.000000
O O14 0.207873 0.774716 0.500000
O O15 0.250000 0.750000 0.750000
#
# Coordination Sequence:
#
# PCOD8292980 Si02
#       5
#    16  16  16  16  16
#     4   9  19  34  51  71  99 129 158 192 234 281
#     4  10  18  29  45  66  93 126 157 190 231 277
#     4   8  16  31  49  66  91 124 156 191 235 280
#     4   9  17  30  47  69  95 126 160 193 227 271
#     4   9  18  35  55  74  94 121 157 198 241 285
#
# _framework density 17.609027999999999
#
# number of rings (size 3 to 8) (size 9 to 14) (size 15 to 20)
#    0.000    3.000    0.000    4.200    0.000    2.000 
#    0.000    9.000    0.000    4.800    0.000    0.000 
#    0.000    0.000    0.000    0.000    0.000    0.000 
#
# Total GULP energy -495762.038840 kJ/mol
# GULP energy per Si atom -12394.050971 kJ/mol
# Density = 1.756895 g / cm^3
# Si number density = 17.609028 Si / 1000 Ang^3
#
#
#
# Elastic Constant Matrix: (Units=GPa)
#
#
# Indices 1 2 3 4 5 6 
#
# 1 104.4020 59.8971 30.1101 0.0000 0.0000 0.0000
# 2 59.8971 152.7023 42.5625 0.0000 0.0000 0.0000
# 3 30.1101 42.5625 41.8999 0.0000 0.0000 0.0000
# 4 0.0000 0.0000 0.0000 27.2704 0.0000 0.0000
# 5 0.0000 0.0000 0.0000 0.0000 29.3084 0.0000
# 6 0.0000 0.0000 0.0000 0.0000 0.0000 21.1641
#
#
#
# Elastic Compliance Matrix: (Units=1/GPa)
#
#
# Indices 1 2 3 4 5 6 
#
# 1 0.013348 -0.003574 -0.005962 0.000000 0.000000 0.000000
# 2 -0.003574 0.010092 -0.007683 0.000000 0.000000 0.000000
# 3 -0.005962 -0.007683 0.035955 0.000000 0.000000 0.000000
# 4 0.000000 0.000000 0.000000 0.036670 0.000000 0.000000
# 5 0.000000 0.000000 0.000000 0.000000 0.034120 0.000000
# 6 0.000000 0.000000 0.000000 0.000000 0.000000 0.047250
#
#
# Mechanical properties :
#
#
# Convention : Reuss Voigt Hill
#
# Bulk Modulus (GPa) = 40.06798 62.68261 51.37529
# Shear Modulus (GPa) = 22.70736 26.64423 24.67579
#
# Velocity S-wave (km/s) = 3.59490 3.89408 3.74748
# Velocity P-wave (km/s) = 6.32730 7.47614 6.92558
#
# Compressibility (1/GPa) = 0.02495759
#
# Stress axis : x y z
#
# Youngs Moduli (GPa) = 74.91599 99.08640 27.81221
#
# Poissons Ratio (x) = 0.35415 0.16581
# Poissons Ratio (y) = 0.26776 0.21369
# Poissons Ratio (z) = 0.44663 0.76131
#
# Static dielectric constant tensor:
#      x y z
#    x 3.254210 0.000000 0.000000 
#    y 0.000000 3.777540 0.000000 
#    z 0.000000 0.000000 2.994700 
# 
# 
# High freq. dielectric constant tensor:
#      x y z
#    x 1.666380 0.000000 0.000000 
#    y 0.000000 1.689270 0.000000 
#    z 0.000000 0.000000 1.660720 
# 
# From -- ./inp_files/4998.got.cif
#   From: 2010.03.12/outbox.cif.g09.slc.cpg/sg72_3_cif.got.tgz:4998.got - 2010.04.16 14:54:00.
