data_PCOD8292579
_publ_section_title
;
Structure prediction by ZEFSAII (Michael W. Deem and Ramdas Pophale) SiO2 
 PCOD8292579
Probable space group: I M M M
;
_chemical_formula_sum "Si O2"
_cell_formula_units_Z 64
_cell_length_a 8.647875
_cell_length_b 23.742815
_cell_length_c 15.417884
_cell_angle_alpha 90.000000
_cell_angle_beta 90.000000
_cell_angle_gamma 90.000000
_cell_volume 3165.675433
_symmetry_space_group_name_H-M "I M M M"
_symmetry_group_IT_number 71
_symmetry_cell_setting 'orthorhombic'
loop_
_space_group_symop_operation_xyz
x,y,z
-x,-y,z
x,-y,-z
-x,y,-z
-x,-y,-z
x,y,-z
-x,y,z
x,-y,z
1/2+x,1/2+y,1/2+z
1/2-x,1/2-y,1/2+z
1/2+x,1/2-y,1/2-z
1/2-x,1/2+y,1/2-z
1/2-x,1/2-y,1/2-z
1/2+x,1/2+y,1/2-z
1/2-x,1/2+y,1/2+z
1/2+x,1/2-y,1/2+z
loop_
_atom_site_type_symbol
_atom_site_label
_atom_site_fract_x
_atom_site_fract_y
_atom_site_fract_z
Si Si1 0.819010 0.500000 0.673508
Si Si2 0.322404 0.500000 0.858032
Si Si3 0.317679 0.774309 0.837397
Si Si4 0.320438 0.613342 0.398742
Si Si5 0.822208 0.908273 0.500000
Si Si6 0.819521 0.289188 0.000000
O O1 0.789215 0.500000 0.776036
O O2 0.744182 0.553437 0.628165
O O3 0.000000 0.500000 0.655697
O O4 0.500000 0.500000 0.826747
O O5 0.287808 0.444688 0.914495
O O6 0.500000 0.769735 0.835354
O O7 0.250000 0.750000 0.750000
O O8 0.269161 0.839191 0.845364
O O9 0.254577 0.737573 0.915676
O O10 0.292061 0.623691 0.500000
O O11 0.500000 0.616460 0.374725
O O12 0.707832 0.855820 0.500000
O O13 0.000000 0.887875 0.500000
O O14 0.000000 0.275639 0.000000
#
# Coordination Sequence:
#
# PCOD8292579 Si02
#       6
#     8   8  16  16   8   8
#     4  12  26  40  63  96 132 169 216 266 323 387
#     4   9  20  41  65  91 126 166 217 269 323 381
#     4  12  26  45  70  99 134 175 222 274 332 395
#     4  11  24  45  70  95 128 168 216 270 328 388
#     4   9  20  40  66  92 123 169 217 267 324 381
#     4  12  25  43  67  99 137 176 219 271 330 394
#
# _framework density 20.216854999999999
#
# number of rings (size 3 to 8) (size 9 to 14) (size 15 to 20)
#    0.000    1.000    1.250    6.375    3.500    4.000 
#    0.000    1.250    0.000    0.000    0.000    0.000 
#    0.000    0.000    0.000    0.000    0.000    0.000 
#
# Total GULP energy -397025.724514 kJ/mol
# GULP energy per Si atom -12407.053891 kJ/mol
# Density = 2.017084 g / cm^3
# Si number density = 20.216855 Si / 1000 Ang^3
#
#
#
# Elastic Constant Matrix: (Units=GPa)
#
#
# Indices 1 2 3 4 5 6 
#
# 1 168.8320 69.9388 82.5818 0.0000 0.0000 0.0000
# 2 69.9388 156.3218 55.0336 0.0000 0.0000 0.0000
# 3 82.5818 55.0336 119.9276 0.0001 0.0000 0.0000
# 4 0.0000 0.0000 0.0001 39.8331 0.0000 0.0000
# 5 0.0000 0.0000 0.0000 0.0000 34.2517 0.0000
# 6 0.0000 0.0000 0.0000 0.0000 0.0000 37.8791
#
#
#
# Elastic Compliance Matrix: (Units=1/GPa)
#
#
# Indices 1 2 3 4 5 6 
#
# 1 0.009603 -0.002348 -0.005535 0.000000 0.000000 0.000000
# 2 -0.002348 0.008204 -0.002148 0.000000 0.000000 0.000000
# 3 -0.005535 -0.002148 0.013136 0.000000 0.000000 0.000000
# 4 0.000000 0.000000 0.000000 0.025105 0.000000 0.000000
# 5 0.000000 0.000000 0.000000 0.000000 0.029196 0.000000
# 6 0.000000 0.000000 0.000000 0.000000 0.000000 0.026400
#
#
# Mechanical properties :
#
#
# Convention : Reuss Voigt Hill
#
# Bulk Modulus (GPa) = 91.90828 95.57666 93.74247
# Shear Modulus (GPa) = 36.94635 38.22792 37.58713
#
# Velocity S-wave (km/s) = 4.27957 4.35316 4.31652
# Velocity P-wave (km/s) = 8.36538 8.52320 8.44466
#
# Compressibility (1/GPa) = 0.01088041
#
# Stress axis : x y z
#
# Youngs Moduli (GPa) = 104.13276 121.89733 76.12882
#
# Poissons Ratio (x) = 0.28618 0.42140
# Poissons Ratio (y) = 0.24448 0.16352
# Poissons Ratio (z) = 0.57641 0.26183
#
# Static dielectric constant tensor:
#      x y z
#    x 3.809770 0.000000 0.000000 
#    y 0.000000 3.853830 0.000000 
#    z 0.000000 0.000000 3.732580 
# 
# 
# High freq. dielectric constant tensor:
#      x y z
#    x 1.799800 0.000000 0.000000 
#    y 0.000000 1.807850 0.000000 
#    z 0.000000 0.000000 1.801420 
# 
# From -- ./inp_files/31240.got.cif
#   From: 2010.06.25/outbox.cif.g09.slc.cpg/sg71_16_cif.got.tgz:31240.got - 2010.06.28 04:59:45.
