data_PCOD8292086
_publ_section_title
;
Structure prediction by ZEFSAII (Michael W. Deem and Ramdas Pophale) SiO2 
 PCOD8292086
Probable space group: I M M M
;
_chemical_formula_sum "Si O2"
_cell_formula_units_Z 64
_cell_length_a 8.652249
_cell_length_b 15.086164
_cell_length_c 24.413826
_cell_angle_alpha 90.000000
_cell_angle_beta 90.000000
_cell_angle_gamma 90.000000
_cell_volume 3186.718334
_symmetry_space_group_name_H-M "I M M M"
_symmetry_group_IT_number 71
_symmetry_cell_setting 'orthorhombic'
loop_
_space_group_symop_operation_xyz
x,y,z
-x,-y,z
x,-y,-z
-x,y,-z
-x,-y,-z
x,y,-z
-x,y,z
x,-y,z
1/2+x,1/2+y,1/2+z
1/2-x,1/2-y,1/2+z
1/2+x,1/2-y,1/2-z
1/2-x,1/2+y,1/2-z
1/2-x,1/2-y,1/2-z
1/2+x,1/2+y,1/2-z
1/2-x,1/2+y,1/2+z
1/2+x,1/2-y,1/2+z
loop_
_atom_site_type_symbol
_atom_site_label
_atom_site_fract_x
_atom_site_fract_y
_atom_site_fract_z
Si Si1 0.681248 0.500000 0.815432
Si Si2 0.183839 0.344353 0.616548
Si Si3 0.168058 0.642503 0.500000
Si Si4 0.829525 0.147921 0.500000
Si Si5 0.682551 0.152915 0.613579
Si Si6 0.818876 0.500000 0.698001
O O1 0.500000 0.500000 0.826715
O O2 0.756140 0.587731 0.840139
O O3 0.713761 0.500000 0.751059
O O4 0.250442 0.382501 0.557745
O O5 0.259206 0.250348 0.630083
O O6 0.226340 0.412920 0.663723
O O7 0.000000 0.330912 0.610515
O O8 0.153723 0.747708 0.500000
O O9 0.000000 0.596709 0.500000
O O10 0.739584 0.117950 0.554483
O O11 0.000000 0.103895 0.500000
O O12 0.500000 0.152634 0.613480
O O13 0.000000 0.500000 0.712979
#
# Coordination Sequence:
#
# PCOD8292086 Si02
#       6
#     8  16   8   8  16   8
#     4  12  26  43  60  79 109 152 200 246 292 344
#     4   9  18  35  59  87 120 156 191 232 287 345
#     4   7  12  26  52  84 115 146 181 220 267 333
#     4   9  17  34  59  88 120 152 187 226 279 347
#     4  11  22  38  61  89 119 150 188 237 290 343
#     4  10  22  39  59  85 116 152 200 248 285 336
#
# _framework density 20.083355000000001
#
# number of rings (size 3 to 8) (size 9 to 14) (size 15 to 20)
#    0.000    2.250    0.000    5.250    0.000    3.000 
#    0.000    5.000    0.000    0.000    0.000    6.125 
#    0.000    0.000    0.000    0.000    0.000    0.000 
#
# Total GULP energy -396629.309402 kJ/mol
# GULP energy per Si atom -12394.665919 kJ/mol
# Density = 2.003764 g / cm^3
# Si number density = 20.083355 Si / 1000 Ang^3
#
#
#
# Elastic Constant Matrix: (Units=GPa)
#
#
# Indices 1 2 3 4 5 6 
#
# 1 118.0154 50.7649 52.7649 0.0000 0.0000 0.0000
# 2 50.7649 109.0724 69.6560 0.0000 0.0000 0.0000
# 3 52.7649 69.6560 155.8079 0.0000 0.0000 0.0000
# 4 0.0000 0.0000 0.0000 49.1592 0.0000 0.0000
# 5 0.0000 0.0000 0.0000 0.0000 32.1711 0.0000
# 6 0.0000 0.0000 0.0000 0.0000 0.0000 19.2837
#
#
#
# Elastic Compliance Matrix: (Units=1/GPa)
#
#
# Indices 1 2 3 4 5 6 
#
# 1 0.011029 -0.003846 -0.002016 0.000000 0.000000 0.000000
# 2 -0.003846 0.014173 -0.005034 0.000000 0.000000 0.000000
# 3 -0.002016 -0.005034 0.009351 0.000000 0.000000 0.000000
# 4 0.000000 0.000000 0.000000 0.020342 0.000000 0.000000
# 5 0.000000 0.000000 0.000000 0.000000 0.031084 0.000000
# 6 0.000000 0.000000 0.000000 0.000000 0.000000 0.051857
#
#
# Mechanical properties :
#
#
# Convention : Reuss Voigt Hill
#
# Bulk Modulus (GPa) = 78.35495 81.02968 79.69231
# Shear Modulus (GPa) = 30.50999 34.10348 32.30673
#
# Velocity S-wave (km/s) = 3.90188 4.12527 4.01513
# Velocity P-wave (km/s) = 7.70708 7.94511 7.82700
#
# Compressibility (1/GPa) = 0.01276244
#
# Stress axis : x y z
#
# Youngs Moduli (GPa) = 90.66991 70.55744 106.93870
#
# Poissons Ratio (x) = 0.27136 0.21555
# Poissons Ratio (y) = 0.34871 0.53830
# Poissons Ratio (z) = 0.18276 0.35517
#
# Static dielectric constant tensor:
#      x y z
#    x 3.491290 0.000000 0.000000 
#    y 0.000000 3.527170 0.000000 
#    z 0.000000 0.000000 3.947860 
# 
# 
# High freq. dielectric constant tensor:
#      x y z
#    x 1.765260 0.000000 0.000000 
#    y 0.000000 1.778940 0.000000 
#    z 0.000000 0.000000 1.795340 
# 
# From -- ./inp_files/31219.got.cif
#   From: 2010.06.25/outbox.cif.g09.slc.cpg/sg71_16_cif.got.tgz:31219.got - 2010.06.28 04:59:45.
