data_PCOD8292083
_publ_section_title
;
Structure prediction by ZEFSAII (Michael W. Deem and Ramdas Pophale) SiO2 
 PCOD8292083
Probable space group: I M M M
;
_chemical_formula_sum "Si O2"
_cell_formula_units_Z 72
_cell_length_a 8.911972
_cell_length_b 29.938698
_cell_length_c 14.253734
_cell_angle_alpha 90.000000
_cell_angle_beta 90.000000
_cell_angle_gamma 90.000000
_cell_volume 3803.079225
_symmetry_space_group_name_H-M "I M M M"
_symmetry_group_IT_number 71
_symmetry_cell_setting 'orthorhombic'
loop_
_space_group_symop_operation_xyz
x,y,z
-x,-y,z
x,-y,-z
-x,y,-z
-x,-y,-z
x,y,-z
-x,y,z
x,-y,z
1/2+x,1/2+y,1/2+z
1/2-x,1/2-y,1/2+z
1/2+x,1/2-y,1/2-z
1/2-x,1/2+y,1/2-z
1/2-x,1/2-y,1/2-z
1/2+x,1/2+y,1/2-z
1/2-x,1/2+y,1/2+z
1/2+x,1/2-y,1/2+z
loop_
_atom_site_type_symbol
_atom_site_label
_atom_site_fract_x
_atom_site_fract_y
_atom_site_fract_z
Si Si1 0.831948 0.053131 0.000000
Si Si2 0.175410 0.631369 0.188777
Si Si3 0.829987 0.755738 0.000000
Si Si4 0.673657 0.050122 0.814298
Si Si5 0.822497 0.838318 0.500000
Si Si6 0.174608 0.791627 0.200356
O O1 0.754439 0.070941 0.094532
O O2 0.000000 0.071620 0.000000
O O3 0.823176 0.000000 0.000000
O O4 0.204600 0.580958 0.224019
O O5 0.257449 0.636905 0.090334
O O6 0.242799 0.663949 0.266882
O O7 0.000000 0.641960 0.176151
O O8 0.719299 0.713755 0.000000
O O9 0.801643 0.787056 0.910769
O O10 0.000000 0.736753 0.000000
O O11 0.500000 0.049235 0.840027
O O12 0.731662 0.000000 0.790573
O O13 0.000000 0.842734 0.500000
O O14 0.250000 0.750000 0.250000
O O15 0.000000 0.793735 0.228333
#
# Coordination Sequence:
#
# PCOD8292083 Si02
#       6
#     8  16   8  16   8  16
#     4   9  17  30  53  84 116 150 184 228 288 342
#     4  11  23  39  60  85 116 151 192 243 292 343
#     4  10  22  39  59  81 115 154 191 236 286 337
#     4   9  19  37  60  85 115 155 199 239 282 338
#     4  12  24  38  60  84 110 150 195 237 287 355
#     4  11  22  37  58  85 116 152 191 235 284 339
#
# _framework density 18.932027999999999
#
# number of rings (size 3 to 8) (size 9 to 14) (size 15 to 20)
#    0.000    1.667    2.222    2.667    0.000    4.889 
#    0.000    2.778    0.000    3.333    0.000    0.000 
#    0.000    0.000    0.000    0.000    0.000    0.000 
#
# Total GULP energy -446487.892801 kJ/mol
# GULP energy per Si atom -12402.441467 kJ/mol
# Density = 1.888894 g / cm^3
# Si number density = 18.932028 Si / 1000 Ang^3
#
#
#
# Elastic Constant Matrix: (Units=GPa)
#
#
# Indices 1 2 3 4 5 6 
#
# 1 131.8328 53.9839 75.1956 0.0002 -0.0001 0.0000
# 2 53.9839 94.6280 60.9239 0.0000 0.0001 0.0000
# 3 75.1956 60.9239 158.5434 0.0016 0.0000 0.0001
# 4 0.0002 0.0000 0.0016 18.7026 0.0003 0.0001
# 5 -0.0001 0.0001 0.0000 0.0003 29.4848 0.0001
# 6 0.0000 0.0000 0.0001 0.0001 0.0001 25.2333
#
#
#
# Elastic Compliance Matrix: (Units=1/GPa)
#
#
# Indices 1 2 3 4 5 6 
#
# 1 0.011451 -0.004034 -0.003881 0.000000 0.000000 0.000000
# 2 -0.004034 0.015463 -0.004029 0.000000 0.000000 0.000000
# 3 -0.003881 -0.004029 0.009696 -0.000001 0.000000 0.000000
# 4 0.000000 0.000000 -0.000001 0.053469 -0.000001 0.000000
# 5 0.000000 0.000000 0.000000 -0.000001 0.033916 0.000000
# 6 0.000000 0.000000 0.000000 0.000000 0.000000 0.039630
#
#
# Mechanical properties :
#
#
# Convention : Reuss Voigt Hill
#
# Bulk Modulus (GPa) = 78.59891 85.02344 81.81118
# Shear Modulus (GPa) = 26.07532 27.67750 26.87641
#
# Velocity S-wave (km/s) = 3.71524 3.82768 3.77188
# Velocity P-wave (km/s) = 7.74665 8.03382 7.89154
#
# Compressibility (1/GPa) = 0.01272282
#
# Stress axis : x y z
#
# Youngs Moduli (GPa) = 87.33007 64.67155 103.13316
#
# Poissons Ratio (x) = 0.26088 0.40025
# Poissons Ratio (y) = 0.35228 0.41549
# Poissons Ratio (z) = 0.33892 0.26054
#
# Static dielectric constant tensor:
#      x y z
#    x 3.658510 -0.000100 0.000000 
#    y -0.000100 -32.723870 0.000320 
#    z 0.000000 0.000320 3.658640 
# 
# 
# High freq. dielectric constant tensor:
#      x y z
#    x 1.746140 0.000000 0.000000 
#    y 0.000000 1.722120 0.000000 
#    z 0.000000 0.000000 1.742970 
# 
# From -- ./inp_files/14380.got.cif
#   From: 2010.06.25/outbox.cif.g09.slc.cpg/sg71_8_cif.got.tgz:14380.got - 2010.06.28 04:59:45.
