data_PCOD8292812
_publ_section_title
;
Structure prediction by ZEFSAII (Michael W. Deem and Ramdas Pophale) SiO2 
 PCOD8292812
Probable space group: I B A M
;
_chemical_formula_sum "Si O2"
_cell_formula_units_Z 108
_cell_length_a 14.247348
_cell_length_b 21.185014
_cell_length_c 22.754792
_cell_angle_alpha 90.000000
_cell_angle_beta 90.000000
_cell_angle_gamma 90.000000
_cell_volume 6868.084941
_symmetry_space_group_name_H-M "I B A M"
_symmetry_group_IT_number 72
_symmetry_cell_setting 'orthorhombic'
loop_
_space_group_symop_operation_xyz
x,y,z
-x,-y,z
x,-y,1/2-z
-x,y,1/2-z
-x,-y,-z
x,y,-z
-x,y,1/2+z
x,-y,1/2+z
1/2+x,1/2+y,1/2+z
1/2-x,1/2-y,1/2+z
1/2+x,1/2-y,-z
1/2-x,1/2+y,-z
1/2-x,1/2-y,1/2-z
1/2+x,1/2+y,1/2-z
1/2-x,1/2+y,z
1/2+x,1/2-y,z
loop_
_atom_site_type_symbol
_atom_site_label
_atom_site_fract_x
_atom_site_fract_y
_atom_site_fract_z
Si Si1 0.584080 0.686651 0.432847
Si Si2 0.000000 0.000000 0.250000
Si Si3 0.377628 0.599943 0.679546
Si Si4 0.963440 0.068043 0.934627
Si Si5 0.000000 0.671256 0.750000
Si Si6 0.437481 0.266401 0.152537
Si Si7 0.201022 0.653692 0.729893
Si Si8 0.262728 0.276329 0.341039
O O1 0.602817 0.708113 0.500000
O O2 0.553779 0.613616 0.429786
O O3 0.499760 0.727933 0.405845
O O4 0.676367 0.695893 0.393901
O O5 0.066263 0.044539 0.288587
O O6 0.380166 0.587486 0.609501
O O7 0.427234 0.668074 0.689764
O O8 0.268397 0.601692 0.699592
O O9 0.920173 0.069754 0.000000
O O10 0.000000 0.000000 0.916838
O O11 0.982946 0.714896 0.694069
O O12 0.906357 0.628558 0.761374
O O13 0.335479 0.244656 0.130689
O O14 0.248347 0.669314 0.792486
O O15 0.189229 0.716638 0.690632
#
# Coordination Sequence:
#
# PCOD8292812 Si02
#       8
#    16   4  16  16   8  16  16  16
#     4  10  19  29  45  66  95 127 157 196 233 276
#     4  12  22  28  46  74 100 124 142 206 248 260
#     4  10  20  29  44  73  94 121 153 196 237 280
#     4   9  18  33  47  63  92 131 163 188 233 285
#     4  10  15  30  50  64  88 128 149 188 228 284
#     4   9  18  29  47  66  94 124 156 187 230 289
#     4   9  18  28  46  68  92 117 158 192 232 286
#     4   9  17  29  44  67  90 125 153 189 231 283
#
# _framework density 15.724907999999999
#
# number of rings (size 3 to 8) (size 9 to 14) (size 15 to 20)
#    0.000    2.519    2.222    1.333    4.148    0.593 
#    0.000    2.222    0.000    0.444    0.000    0.000 
#    0.000    0.000    0.000   15.704    0.000    0.000 
#
# Total GULP energy -669230.145273 kJ/mol
# GULP energy per Si atom -12393.150838 kJ/mol
# Density = 1.568912 g / cm^3
# Si number density = 15.724908 Si / 1000 Ang^3
#
#
#
# Elastic Constant Matrix: (Units=GPa)
#
#
# Indices 1 2 3 4 5 6 
#
# 1 133.5454 37.1202 64.4606 0.0000 0.0000 0.0000
# 2 37.1202 48.9537 29.8852 0.0000 0.0000 0.0000
# 3 64.4606 29.8852 101.4885 0.0000 0.0000 0.0000
# 4 0.0000 0.0000 0.0000 18.7545 0.0000 0.0000
# 5 0.0000 0.0000 0.0000 0.0000 30.2397 0.0000
# 6 0.0000 0.0000 0.0000 0.0000 0.0000 17.8176
#
#
#
# Elastic Compliance Matrix: (Units=1/GPa)
#
#
# Indices 1 2 3 4 5 6 
#
# 1 0.011847 -0.005352 -0.005949 0.000000 0.000000 0.000000
# 2 -0.005352 0.027322 -0.004646 0.000000 0.000000 0.000000
# 3 -0.005949 -0.004646 0.015000 0.000000 0.000000 0.000000
# 4 0.000000 0.000000 0.000000 0.053321 0.000000 0.000000
# 5 0.000000 0.000000 0.000000 0.000000 0.033069 0.000000
# 6 0.000000 0.000000 0.000000 0.000000 0.000000 0.056124
#
#
# Mechanical properties :
#
#
# Convention : Reuss Voigt Hill
#
# Bulk Modulus (GPa) = 44.89267 60.76886 52.83077
# Shear Modulus (GPa) = 21.18628 23.53045 22.35837
#
# Velocity S-wave (km/s) = 3.67455 3.87250 3.77483
# Velocity P-wave (km/s) = 6.82743 7.66315 7.25733
#
# Compressibility (1/GPa) = 0.02227535
#
# Stress axis : x y z
#
# Youngs Moduli (GPa) = 84.40937 36.60053 66.66701
#
# Poissons Ratio (x) = 0.19587 0.39659
# Poissons Ratio (y) = 0.45173 0.30976
# Poissons Ratio (z) = 0.50213 0.17006
#
# Static dielectric constant tensor:
#      x y z
#    x 3.131160 0.000000 0.000000 
#    y 0.000000 2.792770 0.000000 
#    z 0.000000 0.000000 3.050070 
# 
# 
# High freq. dielectric constant tensor:
#      x y z
#    x 1.599690 0.000000 0.000000 
#    y 0.000000 1.570070 0.000000 
#    z 0.000000 0.000000 1.604040 
# 
# From -- ./inp_files/38479.got.cif
#   From: 2010.03.12/outbox.cif.g09.slc.cpg/sg72_20_cif.got.tgz:38479.got - 2010.04.16 14:54:00.
