data_PCOD8292339
_publ_section_title
;
Structure prediction by ZEFSAII (Michael W. Deem and Ramdas Pophale) SiO2 
 PCOD8292339
Probable space group: I M M M
;
_chemical_formula_sum "Si O2"
_cell_formula_units_Z 104
_cell_length_a 13.056540
_cell_length_b 18.814712
_cell_length_c 26.679109
_cell_angle_alpha 90.000000
_cell_angle_beta 90.000000
_cell_angle_gamma 90.000000
_cell_volume 6553.857584
_symmetry_space_group_name_H-M "I M M M"
_symmetry_group_IT_number 71
_symmetry_cell_setting 'orthorhombic'
loop_
_space_group_symop_operation_xyz
x,y,z
-x,-y,z
x,-y,-z
-x,y,-z
-x,-y,-z
x,y,-z
-x,y,z
x,-y,z
1/2+x,1/2+y,1/2+z
1/2-x,1/2-y,1/2+z
1/2+x,1/2-y,1/2-z
1/2-x,1/2+y,1/2-z
1/2-x,1/2-y,1/2-z
1/2+x,1/2+y,1/2-z
1/2-x,1/2+y,1/2+z
1/2+x,1/2-y,1/2+z
loop_
_atom_site_type_symbol
_atom_site_label
_atom_site_fract_x
_atom_site_fract_y
_atom_site_fract_z
Si Si1 0.790135 0.079812 0.278688
Si Si2 0.807222 0.720507 0.328079
Si Si3 0.118660 0.420597 0.298906
Si Si4 0.384535 0.080830 0.440789
Si Si5 0.887315 0.791764 0.231603
Si Si6 0.000000 0.916209 0.441601
Si Si7 0.697995 0.354860 0.887096
O O1 0.677715 0.088283 0.253970
O O2 0.870131 0.126699 0.247638
O O3 0.784741 0.103935 0.335646
O O4 0.831169 0.000000 0.276014
O O5 0.839068 0.638308 0.338898
O O6 0.875806 0.742730 0.280516
O O7 0.688822 0.730319 0.312743
O O8 0.824302 0.771103 0.376148
O O9 0.138032 0.500000 0.321159
O O10 0.000000 0.408360 0.287506
O O11 0.377838 0.086967 0.500000
O O12 0.500000 0.100410 0.422876
O O13 0.302135 0.135420 0.418311
O O14 0.357928 0.000000 0.424169
O O15 0.000000 0.782931 0.209303
O O16 0.898705 0.884428 0.416859
O O17 0.000000 0.896404 0.500000
O O18 0.000000 0.000000 0.433047
#
# Coordination Sequence:
#
# PCOD8292339 Si02
#       7
#    16  16  16  16  16   8  16
#     4   9  18  28  40  66  91 117 164 198 219 260
#     4   9  19  29  42  66  88 112 155 193 222 272
#     4   9  17  30  47  63  90 127 154 189 235 273
#     4   9  18  33  51  68  89 119 152 188 232 279
#     4   9  17  29  42  57  87 126 148 181 236 269
#     4  11  24  38  50  66  93 127 155 187 234 282
#     4  11  21  31  47  69  91 123 154 196 235 270
#
# _framework density 15.868517000000001
#
# number of rings (size 3 to 8) (size 9 to 14) (size 15 to 20)
#    0.000    2.538    0.000    3.692    5.385    2.769 
#    0.000    1.538    0.000    0.000    0.000    0.000 
#    0.000    3.077    0.000    1.692    0.000    0.000 
#
# Total GULP energy -644552.314875 kJ/mol
# GULP energy per Si atom -12395.236825 kJ/mol
# Density = 1.583240 g / cm^3
# Si number density = 15.868517 Si / 1000 Ang^3
#
#
#
# Elastic Constant Matrix: (Units=GPa)
#
#
# Indices 1 2 3 4 5 6 
#
# 1 119.1943 42.1379 35.0901 0.0000 0.0000 0.0000
# 2 42.1379 113.3301 37.3431 0.0000 0.0000 0.0000
# 3 35.0901 37.3431 52.2727 0.0000 0.0000 0.0000
# 4 0.0000 0.0000 0.0000 21.8769 0.0000 0.0000
# 5 0.0000 0.0000 0.0000 0.0000 14.5786 0.0000
# 6 0.0000 0.0000 0.0000 0.0000 0.0000 17.5191
#
#
#
# Elastic Compliance Matrix: (Units=1/GPa)
#
#
# Indices 1 2 3 4 5 6 
#
# 1 0.010837 -0.002135 -0.005750 0.000000 0.000000 0.000000
# 2 -0.002135 0.011961 -0.007112 0.000000 0.000000 0.000000
# 3 -0.005750 -0.007112 0.028071 0.000000 0.000000 0.000000
# 4 0.000000 0.000000 0.000000 0.045710 0.000000 0.000000
# 5 0.000000 0.000000 0.000000 0.000000 0.068594 0.000000
# 6 0.000000 0.000000 0.000000 0.000000 0.000000 0.057081
#
#
# Mechanical properties :
#
#
# Convention : Reuss Voigt Hill
#
# Bulk Modulus (GPa) = 47.90135 57.10436 52.50286
# Shear Modulus (GPa) = 19.28980 22.14331 20.71656
#
# Velocity S-wave (km/s) = 3.49033 3.73959 3.61711
# Velocity P-wave (km/s) = 6.81874 7.39663 7.11355
#
# Compressibility (1/GPa) = 0.02087624
#
# Stress axis : x y z
#
# Youngs Moduli (GPa) = 92.27604 83.60591 35.62440
#
# Poissons Ratio (x) = 0.17848 0.20483
# Poissons Ratio (y) = 0.19699 0.25335
# Poissons Ratio (z) = 0.53056 0.59458
#
# Static dielectric constant tensor:
#      x y z
#    x 3.113620 0.000000 0.000000 
#    y 0.000000 3.339080 0.000000 
#    z 0.000000 0.000000 2.690180 
# 
# 
# High freq. dielectric constant tensor:
#      x y z
#    x 1.621990 0.000000 0.000000 
#    y 0.000000 1.613720 0.000000 
#    z 0.000000 0.000000 1.559270 
# 
# From -- ./inp_files/69521.got.cif
#   From: 2010.06.25/outbox.cif.g09.slc.cpg/sg71_35_cif.got.tgz:69521.got - 2010.06.28 04:59:45.
