data_PCOD8292196
_publ_section_title
;
Structure prediction by ZEFSAII (Michael W. Deem and Ramdas Pophale) SiO2 
 PCOD8292196
Probable space group: I M M M
;
_chemical_formula_sum "Si O2"
_cell_formula_units_Z 72
_cell_length_a 8.782724
_cell_length_b 22.448352
_cell_length_c 18.897501
_cell_angle_alpha 90.000000
_cell_angle_beta 90.000000
_cell_angle_gamma 90.000000
_cell_volume 3725.787453
_symmetry_space_group_name_H-M "I M M M"
_symmetry_group_IT_number 71
_symmetry_cell_setting 'orthorhombic'
loop_
_space_group_symop_operation_xyz
x,y,z
-x,-y,z
x,-y,-z
-x,y,-z
-x,-y,-z
x,y,-z
-x,y,z
x,-y,z
1/2+x,1/2+y,1/2+z
1/2-x,1/2-y,1/2+z
1/2+x,1/2-y,1/2-z
1/2-x,1/2+y,1/2-z
1/2-x,1/2-y,1/2-z
1/2+x,1/2+y,1/2-z
1/2-x,1/2+y,1/2+z
1/2+x,1/2-y,1/2+z
loop_
_atom_site_type_symbol
_atom_site_label
_atom_site_fract_x
_atom_site_fract_y
_atom_site_fract_z
Si Si1 0.680000 0.889030 0.329120
Si Si2 0.322980 0.846013 0.081531
Si Si3 0.678378 0.733763 0.824687
Si Si4 0.822887 0.930994 0.813452
Si Si5 0.181191 0.500000 0.920243
O O1 0.500000 0.883191 0.333700
O O2 0.753973 0.827622 0.355067
O O3 0.725112 0.901664 0.248608
O O4 0.742109 0.941637 0.379613
O O5 0.500000 0.861288 0.091963
O O6 0.280074 0.784113 0.118763
O O7 0.223480 0.899378 0.113715
O O8 0.278412 0.839822 0.000000
O O9 0.500000 0.726512 0.813776
O O10 0.750000 0.750000 0.750000
O O11 0.000000 0.921047 0.797349
O O12 0.781445 0.000000 0.820481
O O13 0.000000 0.500000 0.920372
O O14 0.245932 0.500000 0.000000
#
# Coordination Sequence:
#
# PCOD8292196 Si02
#       5
#    16  16  16  16   8
#     4  11  21  36  61  89 118 157 201 244 293 350
#     4  10  23  42  62  86 119 158 198 243 296 354
#     4  11  22  37  60  89 120 154 198 245 293 350
#     4  11  23  38  60  89 120 154 197 247 297 351
#     4   9  20  38  59  87 122 157 198 247 295 348
#
# _framework density 19.324774000000001
#
# number of rings (size 3 to 8) (size 9 to 14) (size 15 to 20)
#    0.000    1.444    3.333    2.000    0.000    4.000 
#    0.000    2.222    0.000    4.667    0.000    0.000 
#    0.000    0.000    0.000    0.000    0.000    0.000 
#
# Total GULP energy -446609.004799 kJ/mol
# GULP energy per Si atom -12405.805689 kJ/mol
# Density = 1.928079 g / cm^3
# Si number density = 19.324774 Si / 1000 Ang^3
#
#
#
# Elastic Constant Matrix: (Units=GPa)
#
#
# Indices 1 2 3 4 5 6 
#
# 1 62.4003 36.4041 19.1725 0.0000 0.0000 0.0000
# 2 36.4041 123.6357 32.6478 0.0000 0.0000 0.0000
# 3 19.1725 32.6478 108.3145 0.0000 0.0000 0.0000
# 4 0.0000 0.0000 0.0000 34.9451 0.0000 0.0000
# 5 0.0000 0.0000 0.0000 0.0000 18.8522 0.0000
# 6 0.0000 0.0000 0.0000 0.0000 0.0000 37.1376
#
#
#
# Elastic Compliance Matrix: (Units=1/GPa)
#
#
# Indices 1 2 3 4 5 6 
#
# 1 0.019699 -0.005301 -0.001889 0.000000 0.000000 0.000000
# 2 -0.005301 0.010214 -0.002140 0.000000 0.000000 0.000000
# 3 -0.001889 -0.002140 0.010212 0.000000 0.000000 0.000000
# 4 0.000000 0.000000 0.000000 0.028616 0.000000 0.000000
# 5 0.000000 0.000000 0.000000 0.000000 0.053044 0.000000
# 6 0.000000 0.000000 0.000000 0.000000 0.000000 0.026927
#
#
# Mechanical properties :
#
#
# Convention : Reuss Voigt Hill
#
# Bulk Modulus (GPa) = 46.59047 52.31105 49.45076
# Shear Modulus (GPa) = 28.64857 31.92870 30.28864
#
# Velocity S-wave (km/s) = 3.85447 4.06916 3.96327
# Velocity P-wave (km/s) = 6.63105 7.01467 6.82555
#
# Compressibility (1/GPa) = 0.02146362
#
# Stress axis : x y z
#
# Youngs Moduli (GPa) = 50.76459 97.90024 97.92510
#
# Poissons Ratio (x) = 0.51901 0.18497
# Poissons Ratio (y) = 0.26913 0.20960
# Poissons Ratio (z) = 0.09589 0.20955
#
# Static dielectric constant tensor:
#      x y z
#    x 3.452800 0.000000 0.000000 
#    y 0.000000 3.912770 0.000000 
#    z 0.000000 0.000000 3.537530 
# 
# 
# High freq. dielectric constant tensor:
#      x y z
#    x 1.748240 0.000000 0.000000 
#    y 0.000000 1.770750 0.000000 
#    z 0.000000 0.000000 1.746980 
# 
# From -- ./inp_files/7877.got.cif
#   From: 2010.06.25/outbox.cif.g09.slc.cpg/sg71_4_cif.got.tgz:7877.got - 2010.06.28 04:59:45.
