data_PCOD8292694
_publ_section_title
;
Structure prediction by ZEFSAII (Michael W. Deem and Ramdas Pophale) SiO2 
 PCOD8292694
Probable space group: I M M M
;
_chemical_formula_sum "Si O2"
_cell_formula_units_Z 104
_cell_length_a 18.299600
_cell_length_b 36.019812
_cell_length_c 9.805982
_cell_angle_alpha 90.000000
_cell_angle_beta 90.000000
_cell_angle_gamma 90.000000
_cell_volume 6463.594911
_symmetry_space_group_name_H-M "I M M M"
_symmetry_group_IT_number 71
_symmetry_cell_setting 'orthorhombic'
loop_
_space_group_symop_operation_xyz
x,y,z
-x,-y,z
x,-y,-z
-x,y,-z
-x,-y,-z
x,y,-z
-x,y,z
x,-y,z
1/2+x,1/2+y,1/2+z
1/2-x,1/2-y,1/2+z
1/2+x,1/2-y,1/2-z
1/2-x,1/2+y,1/2-z
1/2-x,1/2-y,1/2-z
1/2+x,1/2+y,1/2-z
1/2-x,1/2+y,1/2+z
1/2+x,1/2-y,1/2+z
loop_
_atom_site_type_symbol
_atom_site_label
_atom_site_fract_x
_atom_site_fract_y
_atom_site_fract_z
Si Si1 0.357628 0.416122 0.342409
Si Si2 0.580793 0.174966 0.338093
Si Si3 0.793116 0.457230 0.342962
Si Si4 0.000000 0.041326 0.837868
Si Si5 0.699953 0.358952 0.850815
Si Si6 0.853171 0.399505 0.848369
Si Si7 0.276170 0.216001 0.660235
O O1 0.365951 0.405405 0.500000
O O2 0.288610 0.442656 0.317417
O O3 0.428150 0.437562 0.285870
O O4 0.352711 0.377310 0.261106
O O5 0.587252 0.173262 0.500000
O O6 0.500000 0.188155 0.289908
O O7 0.594236 0.132659 0.286670
O O8 0.642987 0.203527 0.286747
O O9 0.815447 0.452029 0.500000
O O10 0.795798 0.500000 0.298607
O O11 0.852001 0.434770 0.252477
O O12 0.000000 0.000000 0.775320
O O13 0.000000 0.038957 0.000000
O O14 0.773579 0.382161 0.858158
O O15 0.718332 0.316725 0.811080
O O16 0.662036 0.360074 0.000000
O O17 0.878482 0.412375 0.000000
O O18 0.277955 0.226497 0.500000
O O19 0.250000 0.250000 0.750000
#
# Coordination Sequence:
#
# PCOD8292694 Si02
#       7
#    16  16  16   8  16  16  16
#     4   9  16  26  42  61  80 107 146 185 219 260
#     4   8  14  27  48  70  90 112 141 177 217 256
#     4   9  16  25  38  58  84 111 139 174 217 261
#     4   9  16  26  41  61  85 111 143 189 237 269
#     4   8  15  28  43  60  84 111 138 170 213 258
#     4   8  14  25  42  63  82 104 137 175 209 246
#     4   9  17  29  48  72  94 117 144 176 216 261
#
# _framework density 16.090116999999999
#
# number of rings (size 3 to 8) (size 9 to 14) (size 15 to 20)
#    0.000    3.462    0.000    2.308    0.000    2.769 
#    0.000    2.692    1.692    4.154    0.000    3.231 
#    0.000    0.000    0.000    0.000    0.000    0.000 
#
# Total GULP energy -644419.881474 kJ/mol
# GULP energy per Si atom -12392.690028 kJ/mol
# Density = 1.605350 g / cm^3
# Si number density = 16.090117 Si / 1000 Ang^3
#
#
#
# Elastic Constant Matrix: (Units=GPa)
#
#
# Indices 1 2 3 4 5 6 
#
# 1 78.1281 50.8277 32.6564 0.0006 -0.0013 0.0004
# 2 50.8277 130.8832 62.6300 0.0079 -0.0019 0.0028
# 3 32.6564 62.6300 61.1440 0.0431 0.0113 -0.0230
# 4 0.0006 0.0079 0.0431 30.3603 0.0087 -0.0011
# 5 -0.0013 -0.0019 0.0113 0.0087 14.4985 0.0009
# 6 0.0004 0.0028 -0.0230 -0.0011 0.0009 20.4762
#
#
#
# Elastic Compliance Matrix: (Units=1/GPa)
#
#
# Indices 1 2 3 4 5 6 
#
# 1 0.017806 -0.004637 -0.004760 0.000008 0.000005 -0.000005
# 2 -0.004637 0.016193 -0.014110 0.000016 0.000013 -0.000018
# 3 -0.004760 -0.014110 0.033350 -0.000044 -0.000028 0.000039
# 4 0.000008 0.000016 -0.000044 0.032938 -0.000020 0.000002
# 5 0.000005 0.000013 -0.000028 -0.000020 0.068973 -0.000003
# 6 -0.000005 -0.000018 0.000039 0.000002 -0.000003 0.048837
#
#
# Mechanical properties :
#
#
# Convention : Reuss Voigt Hill
#
# Bulk Modulus (GPa) = 49.17730 62.48705 55.83217
# Shear Modulus (GPa) = 18.38981 21.33643 19.86312
#
# Velocity S-wave (km/s) = 3.38439 3.64546 3.51735
# Velocity P-wave (km/s) = 6.77511 7.52590 7.16035
#
# Compressibility (1/GPa) = 0.02033459
#
# Stress axis : x y z
#
# Youngs Moduli (GPa) = 56.16132 61.75496 29.98468
#
# Poissons Ratio (x) = 0.28635 0.14274
# Poissons Ratio (y) = 0.26041 0.42309
# Poissons Ratio (z) = 0.26735 0.87137
#
# Static dielectric constant tensor:
#      x y z
#    x 3.022420 0.000030 -0.000080 
#    y 0.000030 3.086150 -0.000020 
#    z -0.000080 -0.000020 3.056870 
# 
# 
# High freq. dielectric constant tensor:
#      x y z
#    x 1.594890 0.000000 0.000000 
#    y 0.000000 1.612630 0.000000 
#    z 0.000000 0.000000 1.596730 
# 
# From -- ./inp_files/24536.got.cif
#   From: 2010.06.25/outbox.cif.g09.slc.cpg/sg71_13_cif.got.tgz:24536.got - 2010.06.28 04:59:45.
