data_PCOD8292673
_publ_section_title
;
Structure prediction by ZEFSAII (Michael W. Deem and Ramdas Pophale) SiO2 
 PCOD8292673
Probable space group: I M M M
;
_chemical_formula_sum "Si O2"
_cell_formula_units_Z 88
_cell_length_a 34.794655
_cell_length_b 9.409111
_cell_length_c 15.419269
_cell_angle_alpha 90.000000
_cell_angle_beta 90.000000
_cell_angle_gamma 90.000000
_cell_volume 5048.064691
_symmetry_space_group_name_H-M "I M M M"
_symmetry_group_IT_number 71
_symmetry_cell_setting 'orthorhombic'
loop_
_space_group_symop_operation_xyz
x,y,z
-x,-y,z
x,-y,-z
-x,y,-z
-x,-y,-z
x,y,-z
-x,y,z
x,-y,z
1/2+x,1/2+y,1/2+z
1/2-x,1/2-y,1/2+z
1/2+x,1/2-y,1/2-z
1/2-x,1/2+y,1/2-z
1/2-x,1/2-y,1/2-z
1/2+x,1/2+y,1/2-z
1/2-x,1/2+y,1/2+z
1/2+x,1/2-y,1/2+z
loop_
_atom_site_type_symbol
_atom_site_label
_atom_site_fract_x
_atom_site_fract_y
_atom_site_fract_z
Si Si1 0.380813 0.333395 0.749336
Si Si2 0.956649 0.834461 0.833903
Si Si3 0.671067 0.667809 0.901614
Si Si4 0.256677 0.842996 0.102677
Si Si5 0.045390 0.658820 0.000000
Si Si6 0.171879 0.169470 0.096751
O O1 0.373644 0.500000 0.746281
O O2 0.426540 0.299443 0.743424
O O3 0.363846 0.276762 0.840487
O O4 0.358541 0.267698 0.666044
O O5 0.000000 0.792388 0.804665
O O6 0.954983 0.000000 0.860011
O O7 0.941619 0.745208 0.915591
O O8 0.676586 0.500000 0.896609
O O9 0.710279 0.736300 0.864918
O O10 0.661666 0.716275 0.000000
O O11 0.214549 0.783966 0.128857
O O12 0.263969 0.000000 0.142583
O O13 0.257905 0.853819 0.000000
O O14 0.063346 0.500000 0.000000
O O15 0.000000 0.648511 0.000000
O O16 0.170617 0.000000 0.092327
O O17 0.162566 0.230139 0.000000
#
# Coordination Sequence:
#
# PCOD8292673 Si02
#       6
#    16  16  16  16   8  16
#     4   9  17  27  42  65  88 113 145 181 220 258
#     4   9  17  29  46  67  88 112 148 188 216 245
#     4   9  17  29  44  62  85 113 145 181 222 265
#     4   8  14  26  43  61  81 108 143 180 214 252
#     4   9  17  29  45  65  91 121 145 167 207 263
#     4   8  14  24  39  61  86 111 141 175 211 255
#
# _framework density 17.432423
#
# number of rings (size 3 to 8) (size 9 to 14) (size 15 to 20)
#    0.000    3.364    0.000    1.364    1.273    1.818 
#    0.000    0.909    0.000    1.636    0.000    3.818 
#    0.000    0.000    0.000    9.091    0.000    9.455 
#
# Total GULP energy -545152.980786 kJ/mol
# GULP energy per Si atom -12389.840472 kJ/mol
# Density = 1.739275 g / cm^3
# Si number density = 17.432423 Si / 1000 Ang^3
#
#
#
# Elastic Constant Matrix: (Units=GPa)
#
#
# Indices 1 2 3 4 5 6 
#
# 1 125.7524 21.5459 61.6280 0.0000 0.0000 0.0000
# 2 21.5459 30.3310 14.1702 0.0000 0.0000 0.0000
# 3 61.6280 14.1702 83.0583 0.0000 0.0000 0.0000
# 4 0.0000 0.0000 0.0000 8.6944 0.0000 0.0000
# 5 0.0000 0.0000 0.0000 0.0000 28.8343 0.0000
# 6 0.0000 0.0000 0.0000 0.0000 0.0000 17.0065
#
#
#
# Elastic Compliance Matrix: (Units=1/GPa)
#
#
# Indices 1 2 3 4 5 6 
#
# 1 0.013216 -0.005223 -0.008915 0.000000 0.000000 0.000000
# 2 -0.005223 0.037889 -0.002589 0.000000 0.000000 0.000000
# 3 -0.008915 -0.002589 0.019096 0.000000 0.000000 0.000000
# 4 0.000000 0.000000 0.000000 0.115016 0.000000 0.000000
# 5 0.000000 0.000000 0.000000 0.000000 0.034681 0.000000
# 6 0.000000 0.000000 0.000000 0.000000 0.000000 0.058801
#
#
# Mechanical properties :
#
#
# Convention : Reuss Voigt Hill
#
# Bulk Modulus (GPa) = 27.21244 48.20333 37.70789
# Shear Modulus (GPa) = 15.41295 20.36021 17.88658
#
# Velocity S-wave (km/s) = 2.97670 3.42124 3.20668
# Velocity P-wave (km/s) = 5.24008 6.58165 5.94880
#
# Compressibility (1/GPa) = 0.03674789
#
# Stress axis : x y z
#
# Youngs Moduli (GPa) = 75.66533 26.39272 52.36649
#
# Poissons Ratio (x) = 0.13785 0.46685
# Poissons Ratio (y) = 0.39521 0.13555
# Poissons Ratio (z) = 0.67456 0.06832
#
# Static dielectric constant tensor:
#      x y z
#    x 3.430560 0.000000 0.000000 
#    y 0.000000 3.078480 0.000000 
#    z 0.000000 0.000000 3.283360 
# 
# 
# High freq. dielectric constant tensor:
#      x y z
#    x 1.673070 0.000000 0.000000 
#    y 0.000000 1.630420 0.000000 
#    z 0.000000 0.000000 1.650220 
# 
# From -- ./inp_files/49204.got.cif
#   From: 2010.06.25/outbox.cif.g09.slc.cpg/sg71_25_cif.got.tgz:49204.got - 2010.06.28 04:59:45.
