data_PCOD8292491
_publ_section_title
;
Structure prediction by ZEFSAII (Michael W. Deem and Ramdas Pophale) SiO2 
 PCOD8292491
Probable space group: I M M M
;
_chemical_formula_sum "Si O2"
_cell_formula_units_Z 88
_cell_length_a 24.081566
_cell_length_b 16.146430
_cell_length_c 11.481531
_cell_angle_alpha 90.000000
_cell_angle_beta 90.000000
_cell_angle_gamma 90.000000
_cell_volume 4464.378851
_symmetry_space_group_name_H-M "I M M M"
_symmetry_group_IT_number 71
_symmetry_cell_setting 'orthorhombic'
loop_
_space_group_symop_operation_xyz
x,y,z
-x,-y,z
x,-y,-z
-x,y,-z
-x,-y,-z
x,y,-z
-x,y,z
x,-y,z
1/2+x,1/2+y,1/2+z
1/2-x,1/2-y,1/2+z
1/2+x,1/2-y,1/2-z
1/2-x,1/2+y,1/2-z
1/2-x,1/2-y,1/2-z
1/2+x,1/2+y,1/2-z
1/2-x,1/2+y,1/2+z
1/2+x,1/2-y,1/2+z
loop_
_atom_site_type_symbol
_atom_site_label
_atom_site_fract_x
_atom_site_fract_y
_atom_site_fract_z
Si Si1 0.065585 0.500000 0.362660
Si Si2 0.243555 0.908293 0.132301
Si Si3 0.846246 0.180041 0.272959
Si Si4 0.144758 0.369123 0.253238
Si Si5 0.699062 0.401932 0.000000
Si Si6 0.436402 0.595064 0.630754
Si Si7 0.674089 0.098148 0.500000
O O1 0.078137 0.500000 0.500000
O O2 0.092022 0.417560 0.305636
O O3 0.000000 0.500000 0.336847
O O4 0.202335 0.838249 0.179823
O O5 0.299098 0.914608 0.208186
O O6 0.215464 0.000000 0.139720
O O7 0.258934 0.885265 0.000000
O O8 0.852213 0.276378 0.302228
O O9 0.833456 0.130650 0.389047
O O10 0.904655 0.151461 0.222000
O O11 0.141671 0.367750 0.112882
O O12 0.697606 0.500000 0.000000
O O13 0.762407 0.369472 0.000000
O O14 0.413005 0.608554 0.500000
O O15 0.500000 0.622490 0.635691
O O16 0.429445 0.500000 0.667238
O O17 0.672085 0.000000 0.500000
#
# Coordination Sequence:
#
# PCOD8292491 Si02
#       7
#     8  16  16  16   8  16   8
#     4  11  26  51  77  93 123 174 228 281 332 379
#     4  11  22  38  63  94 130 170 216 265 321 390
#     4  12  25  36  62  95 132 164 213 271 320 394
#     4  12  25  41  65  95 128 169 215 268 332 388
#     4  11  24  40  59  91 137 180 211 246 331 411
#     4   9  19  39  64  86 116 161 208 257 317 379
#     4  11  22  42  62  87 132 179 206 252 334 402
#
# _framework density 19.711587999999999
#
# number of rings (size 3 to 8) (size 9 to 14) (size 15 to 20)
#    0.000    1.000    3.636    3.818    5.091    2.182 
#    0.000    1.364    0.000    1.636    0.000    0.000 
#    0.000    0.000    0.000    0.000    0.000    0.000 
#
# Total GULP energy -545795.552714 kJ/mol
# GULP energy per Si atom -12404.444380 kJ/mol
# Density = 1.966672 g / cm^3
# Si number density = 19.711588 Si / 1000 Ang^3
#
#
#
# Elastic Constant Matrix: (Units=GPa)
#
#
# Indices 1 2 3 4 5 6 
#
# 1 99.8267 42.3791 43.6098 0.0000 0.0000 0.0000
# 2 42.3791 112.1271 35.1706 0.0000 0.0000 0.0000
# 3 43.6098 35.1706 131.1642 0.0000 0.0000 0.0000
# 4 0.0000 0.0000 0.0000 22.1098 0.0000 0.0000
# 5 0.0000 0.0000 0.0000 0.0000 39.4907 0.0000
# 6 0.0000 0.0000 0.0000 0.0000 0.0000 20.9742
#
#
#
# Elastic Compliance Matrix: (Units=1/GPa)
#
#
# Indices 1 2 3 4 5 6 
#
# 1 0.013131 -0.003923 -0.003314 0.000000 0.000000 0.000000
# 2 -0.003923 0.010910 -0.001621 0.000000 0.000000 0.000000
# 3 -0.003314 -0.001621 0.009160 0.000000 0.000000 0.000000
# 4 0.000000 0.000000 0.000000 0.045229 0.000000 0.000000
# 5 0.000000 0.000000 0.000000 0.000000 0.025322 0.000000
# 6 0.000000 0.000000 0.000000 0.000000 0.000000 0.047678
#
#
# Mechanical properties :
#
#
# Convention : Reuss Voigt Hill
#
# Bulk Modulus (GPa) = 64.57944 65.04854 64.81399
# Shear Modulus (GPa) = 28.68503 31.31217 29.99860
#
# Velocity S-wave (km/s) = 3.81890 3.98994 3.90536
# Velocity P-wave (km/s) = 7.23039 7.36872 7.29988
#
# Compressibility (1/GPa) = 0.01548480
#
# Stress axis : x y z
#
# Youngs Moduli (GPa) = 76.15844 91.66126 109.16558
#
# Poissons Ratio (x) = 0.35962 0.36174
# Poissons Ratio (y) = 0.29880 0.17695
# Poissons Ratio (z) = 0.25236 0.14857
#
# Static dielectric constant tensor:
#      x y z
#    x 3.467480 0.000000 0.000000 
#    y 0.000000 3.533070 0.000000 
#    z 0.000000 0.000000 3.798240 
# 
# 
# High freq. dielectric constant tensor:
#      x y z
#    x 1.752100 0.000000 0.000000 
#    y 0.000000 1.770700 0.000000 
#    z 0.000000 0.000000 1.778970 
# 
# From -- ./inp_files/27231.got.cif
#   From: 2010.06.25/outbox.cif.g09.slc.cpg/sg71_14_cif.got.tgz:27231.got - 2010.06.28 04:59:45.
