data_PCOD8292726
_publ_section_title
;
Structure prediction by ZEFSAII (Michael W. Deem and Ramdas Pophale) SiO2 
 PCOD8292726
Probable space group: I M M M
;
_chemical_formula_sum "Si O2"
_cell_formula_units_Z 96
_cell_length_a 22.286921
_cell_length_b 9.509644
_cell_length_c 27.018798
_cell_angle_alpha 90.000000
_cell_angle_beta 90.000000
_cell_angle_gamma 90.000000
_cell_volume 5726.382544
_symmetry_space_group_name_H-M "I M M M"
_symmetry_group_IT_number 71
_symmetry_cell_setting 'orthorhombic'
loop_
_space_group_symop_operation_xyz
x,y,z
-x,-y,z
x,-y,-z
-x,y,-z
-x,-y,-z
x,y,-z
-x,y,z
x,-y,z
1/2+x,1/2+y,1/2+z
1/2-x,1/2-y,1/2+z
1/2+x,1/2-y,1/2-z
1/2-x,1/2+y,1/2-z
1/2-x,1/2-y,1/2-z
1/2+x,1/2+y,1/2-z
1/2-x,1/2+y,1/2+z
1/2+x,1/2-y,1/2+z
loop_
_atom_site_type_symbol
_atom_site_label
_atom_site_fract_x
_atom_site_fract_y
_atom_site_fract_z
Si Si1 0.732802 0.332373 0.556535
Si Si2 0.639861 0.832808 0.906819
Si Si3 0.930756 0.664480 0.688482
Si Si4 0.384297 0.666902 0.388239
Si Si5 0.000000 0.832131 0.944245
Si Si6 0.567064 0.167924 0.000000
Si Si7 0.430408 0.338085 0.715949
O O1 0.731606 0.275592 0.500000
O O2 0.731623 0.500000 0.555252
O O3 0.792186 0.279084 0.585240
O O4 0.676303 0.271865 0.587281
O O5 0.611780 0.778092 0.855401
O O6 0.600145 0.772742 0.951631
O O7 0.637360 0.000000 0.907495
O O8 0.921151 0.500000 0.697751
O O9 0.910682 0.744418 0.737816
O O10 0.000000 0.696891 0.674863
O O11 0.384764 0.500000 0.392951
O O12 0.440969 0.729222 0.417785
O O13 0.389860 0.709874 0.330639
O O14 0.000000 0.000000 0.941845
O O15 0.000000 0.776761 0.000000
O O16 0.500000 0.227448 0.000000
O O17 0.567640 0.000000 0.000000
O O18 0.500000 0.314786 0.701884
O O19 0.418626 0.500000 0.729612
#
# Coordination Sequence:
#
# PCOD8292726 Si02
#       7
#    16  16  16  16   8   8  16
#     4   9  15  23  35  54  83 116 139 162 209 266
#     4   9  15  24  36  55  83 110 136 169 210 256
#     4   9  17  28  43  63  86 111 142 179 217 251
#     4   9  15  23  36  55  80 110 142 172 207 251
#     4   9  14  20  32  54  81 105 133 174 215 250
#     4   9  14  20  34  54  77 104 134 168 210 256
#     4   9  16  28  44  61  84 114 145 177 213 252
#
# _framework density 16.764510999999999
#
# number of rings (size 3 to 8) (size 9 to 14) (size 15 to 20)
#    0.000    3.000    1.667    1.000    0.000    4.000 
#    0.000    0.833    0.000    0.000    0.000    0.583 
#    0.000    8.000    0.000    0.000    0.000    0.000 
#
# Total GULP energy -595001.794941 kJ/mol
# GULP energy per Si atom -12395.870728 kJ/mol
# Density = 1.672635 g / cm^3
# Si number density = 16.764511 Si / 1000 Ang^3
#
#
#
# Elastic Constant Matrix: (Units=GPa)
#
#
# Indices 1 2 3 4 5 6 
#
# 1 148.6760 15.7431 95.4291 0.0000 0.0000 0.0000
# 2 15.7431 13.9667 28.2034 0.0000 0.0000 0.0000
# 3 95.4291 28.2034 171.7438 0.0000 0.0000 0.0000
# 4 0.0000 0.0000 0.0000 18.1104 0.0000 0.0000
# 5 0.0000 0.0000 0.0000 0.0000 33.0419 0.0000
# 6 0.0000 0.0000 0.0000 0.0000 0.0000 6.3087
#
#
#
# Elastic Compliance Matrix: (Units=1/GPa)
#
#
# Indices 1 2 3 4 5 6 
#
# 1 0.010455 -0.000081 -0.005796 0.000000 0.000000 0.000000
# 2 -0.000081 0.107123 -0.017547 0.000000 0.000000 0.000000
# 3 -0.005796 -0.017547 0.011925 0.000000 0.000000 0.000000
# 4 0.000000 0.000000 0.000000 0.055217 0.000000 0.000000
# 5 0.000000 0.000000 0.000000 0.000000 0.030265 0.000000
# 6 0.000000 0.000000 0.000000 0.000000 0.000000 0.158512
#
#
# Mechanical properties :
#
#
# Convention : Reuss Voigt Hill
#
# Bulk Modulus (GPa) = 12.09839 68.12642 40.11241
# Shear Modulus (GPa) = 11.16336 24.49290 17.82813
#
# Velocity S-wave (km/s) = 2.58329 3.82645 3.26459
# Velocity P-wave (km/s) = 4.01624 7.76194 6.17972
#
# Compressibility (1/GPa) = 0.08265561
#
# Stress axis : x y z
#
# Youngs Moduli (GPa) = 95.65039 9.33509 83.86024
#
# Poissons Ratio (x) = 0.00075 0.48605
# Poissons Ratio (y) = 0.00771 1.47147
# Poissons Ratio (z) = 0.55438 0.16380
#
# Static dielectric constant tensor:
#      x y z
#    x 3.342460 0.000000 0.000000 
#    y 0.000000 2.446120 0.000000 
#    z 0.000000 0.000000 3.309830 
# 
# 
# High freq. dielectric constant tensor:
#      x y z
#    x 1.647130 0.000000 0.000000 
#    y 0.000000 1.563740 0.000000 
#    z 0.000000 0.000000 1.659430 
# 
# From -- ./inp_files/52145.got.cif
#   From: 2010.06.25/outbox.cif.g09.slc.cpg/sg71_27_cif.got.tgz:52145.got - 2010.06.28 04:59:45.
