data_PCOD8292774
_publ_section_title
;
Structure prediction by ZEFSAII (Michael W. Deem and Ramdas Pophale) SiO2 
 PCOD8292774
Probable space group: I M M M
;
_chemical_formula_sum "Si O2"
_cell_formula_units_Z 96
_cell_length_a 17.257166
_cell_length_b 9.413130
_cell_length_c 32.795716
_cell_angle_alpha 90.000000
_cell_angle_beta 90.000000
_cell_angle_gamma 90.000000
_cell_volume 5327.465551
_symmetry_space_group_name_H-M "I M M M"
_symmetry_group_IT_number 71
_symmetry_cell_setting 'orthorhombic'
loop_
_space_group_symop_operation_xyz
x,y,z
-x,-y,z
x,-y,-z
-x,y,-z
-x,-y,-z
x,y,-z
-x,y,z
x,-y,z
1/2+x,1/2+y,1/2+z
1/2-x,1/2-y,1/2+z
1/2+x,1/2-y,1/2-z
1/2-x,1/2+y,1/2-z
1/2-x,1/2-y,1/2-z
1/2+x,1/2+y,1/2-z
1/2-x,1/2+y,1/2+z
1/2+x,1/2-y,1/2+z
loop_
_atom_site_type_symbol
_atom_site_label
_atom_site_fract_x
_atom_site_fract_y
_atom_site_fract_z
Si Si1 0.000000 0.831301 0.820679
Si Si2 0.500000 0.669201 0.412087
Si Si3 0.844043 0.838995 0.047898
Si Si4 0.086836 0.831844 0.380129
Si Si5 0.302230 0.334505 0.808006
Si Si6 0.806117 0.166404 0.453426
Si Si7 0.158384 0.834675 0.784132
O O1 0.000000 0.773148 0.866361
O O2 0.075713 0.774043 0.797889
O O3 0.000000 0.000000 0.820077
O O4 0.500000 0.500000 0.415492
O O5 0.422129 0.727838 0.433208
O O6 0.770962 0.745789 0.061623
O O7 0.830230 0.000000 0.063334
O O8 0.854880 0.834536 0.000000
O O9 0.138869 0.775743 0.342429
O O10 0.124310 0.786950 0.423475
O O11 0.000000 0.766467 0.377570
O O12 0.081282 0.000000 0.376979
O O13 0.284126 0.500000 0.814985
O O14 0.222264 0.248737 0.810369
O O15 0.339036 0.305530 0.763943
O O16 0.828531 0.207991 0.500000
O O17 0.789228 0.000000 0.449781
O O18 0.169326 0.000000 0.794320
#
# Coordination Sequence:
#
# PCOD8292774 Si02
#       7
#     8   8  16  16  16  16  16
#     4   9  18  29  45  72  98 124 159 194 229 271
#     4   9  17  28  44  68  96 124 158 197 228 265
#     4   9  17  30  49  70  92 123 160 194 230 273
#     4   9  18  31  50  74  95 120 156 196 234 276
#     4   9  18  32  51  72  95 123 158 196 235 278
#     4   9  18  32  49  70  96 123 152 191 238 283
#     4   9  18  32  50  71  96 127 159 193 233 277
#
# _framework density 18.019825000000001
#
# number of rings (size 3 to 8) (size 9 to 14) (size 15 to 20)
#    0.000    3.000    0.000    0.250    3.500    1.333 
#    0.000    2.500    0.000    5.000    0.000    2.333 
#    0.000    0.000    0.000    0.000    0.000    0.000 
#
# Total GULP energy -595103.156261 kJ/mol
# GULP energy per Si atom -12397.982422 kJ/mol
# Density = 1.797881 g / cm^3
# Si number density = 18.019825 Si / 1000 Ang^3
#
#
#
# Elastic Constant Matrix: (Units=GPa)
#
#
# Indices 1 2 3 4 5 6 
#
# 1 190.5247 41.6849 85.5210 0.0000 0.0000 0.0000
# 2 41.6849 29.8991 25.1576 0.0000 0.0000 0.0000
# 3 85.5210 25.1576 95.1832 0.0000 0.0000 0.0000
# 4 0.0000 0.0000 0.0000 15.5279 0.0000 0.0000
# 5 0.0000 0.0000 0.0000 0.0000 35.0943 0.0000
# 6 0.0000 0.0000 0.0000 0.0000 0.0000 25.9063
#
#
#
# Elastic Compliance Matrix: (Units=1/GPa)
#
#
# Indices 1 2 3 4 5 6 
#
# 1 0.010201 -0.008372 -0.006953 0.000000 0.000000 0.000000
# 2 -0.008372 0.049882 -0.005662 0.000000 0.000000 0.000000
# 3 -0.006953 -0.005662 0.018250 0.000000 0.000000 0.000000
# 4 0.000000 0.000000 0.000000 0.064400 0.000000 0.000000
# 5 0.000000 0.000000 0.000000 0.000000 0.028495 0.000000
# 6 0.000000 0.000000 0.000000 0.000000 0.000000 0.038601
#
#
# Mechanical properties :
#
#
# Convention : Reuss Voigt Hill
#
# Bulk Modulus (GPa) = 27.50335 68.92603 48.21469
# Shear Modulus (GPa) = 18.94489 26.18858 22.56673
#
# Velocity S-wave (km/s) = 3.24595 3.81638 3.54266
# Velocity P-wave (km/s) = 5.41703 7.59953 6.59913
#
# Compressibility (1/GPa) = 0.03635921
#
# Stress axis : x y z
#
# Youngs Moduli (GPa) = 98.02515 20.04713 54.79532
#
# Poissons Ratio (x) = 0.16784 0.38099
# Poissons Ratio (y) = 0.82070 0.31024
# Poissons Ratio (z) = 0.68157 0.11350
#
# Static dielectric constant tensor:
#      x y z
#    x 3.579110 0.000000 0.000000 
#    y 0.000000 3.014520 0.000000 
#    z 0.000000 0.000000 3.414170 
# 
# 
# High freq. dielectric constant tensor:
#      x y z
#    x 1.705480 0.000000 0.000000 
#    y 0.000000 1.651960 0.000000 
#    z 0.000000 0.000000 1.705950 
# 
# From -- ./inp_files/69892.got.cif
#   From: 2010.06.25/outbox.cif.g09.slc.cpg/sg71_35_cif.got.tgz:69892.got - 2010.06.28 04:59:45.
