data_PCOD8292792
_publ_section_title
;
Structure prediction by ZEFSAII (Michael W. Deem and Ramdas Pophale) SiO2 
 PCOD8292792
Probable space group: I M M M
;
_chemical_formula_sum "Si O2"
_cell_formula_units_Z 44
_cell_length_a 27.000000
_cell_length_b 12.000000
_cell_length_c 15.000000
_cell_angle_alpha 90.000000
_cell_angle_beta 90.000000
_cell_angle_gamma 90.000000
_cell_volume 4860.000000
_symmetry_space_group_name_H-M "I M M M"
_symmetry_group_IT_number 71
_symmetry_cell_setting 'orthorhombic'
loop_
_space_group_symop_operation_xyz
x,y,z
-x,-y,z
x,-y,-z
-x,y,-z
-x,-y,-z
x,y,-z
-x,y,z
x,-y,z
1/2+x,1/2+y,1/2+z
1/2-x,1/2-y,1/2+z
1/2+x,1/2-y,1/2-z
1/2-x,1/2+y,1/2-z
1/2-x,1/2-y,1/2-z
1/2+x,1/2+y,1/2-z
1/2-x,1/2+y,1/2+z
1/2+x,1/2-y,1/2+z
loop_
_atom_site_type_symbol
_atom_site_label
_atom_site_fract_x
_atom_site_fract_y
_atom_site_fract_z
Si Si1 0.808438 0.250904 0.840548
Si Si2 0.102517 0.625929 0.899084
Si Si3 0.500000 0.868296 0.860534
Si Si4 0.228146 0.873180 0.000000
Si Si5 0.500000 0.867398 0.663363
Si Si6 0.286135 0.375424 0.833858
Si Si7 0.675532 0.723597 0.000000
Si Si8 0.079351 0.368552 0.500000
O O1 0.862967 0.300337 0.837601
O O2 0.804268 0.152238 0.912378
O O3 0.769895 0.349354 0.865470
O O4 0.800066 0.209787 0.742026
O O5 0.103975 0.500000 0.863154
O O6 0.047488 0.675379 0.890607
O O7 0.121309 0.632900 0.000000
O O8 0.500000 0.815156 0.762429
O O9 0.549078 0.830860 0.912680
O O10 0.500000 0.000000 0.855134
O O11 0.277888 0.804082 0.000000
O O12 0.243920 0.000000 0.000000
O O13 0.500000 0.000000 0.666727
O O14 0.289957 0.500000 0.798057
O O15 0.324060 0.356801 0.914626
O O16 0.629194 0.802186 0.000000
O O17 0.090153 0.500000 0.500000
#
# Coordination Sequence:
#
# PCOD8292792 Si02
#       8
#    16  16   8   8   8  16   8   8
#     4  10  20  34  53  77 101 137 177 201 252 308
#     4  10  19  32  51  77 108 135 162 203 252 309
#     4   8  16  30  48  70 101 135 163 201 256 305
#     4  10  19  34  51  75 106 133 167 212 250 294
#     4   9  18  30  48  75 103 132 163 202 253 305
#     4  10  21  36  51  73 106 137 172 217 249 293
#     4  10  21  32  52  78 101 138 174 205 255 304
#     4   9  17  31  48  73 106 134 164 204 251 306
#
# _framework density 9.0534979999999994
#
# number of rings (size 3 to 8) (size 9 to 14) (size 15 to 20)
#    0.000    2.364    0.909    2.455    2.545    1.091 
#    0.000    1.818    0.000    0.000    0.000   10.818 
#    0.000    0.000    0.000    0.000    0.000    0.000 
#
# Total GULP energy -545409.023331 kJ/mol
# GULP energy per Si atom -12395.659621 kJ/mol
# Density = 0.903289 g / cm^3
# Si number density = 9.053498 Si / 1000 Ang^3
#
#
#
# Elastic Constant Matrix: (Units=GPa)
#
#
# Indices 1 2 3 4 5 6 
#
# 1 101.3133 37.2493 24.2108 0.0000 0.0000 0.0000
# 2 37.2493 56.3933 14.7224 0.0000 0.0000 0.0000
# 3 24.2108 14.7224 70.9071 0.0000 0.0000 0.0000
# 4 0.0000 0.0000 0.0000 42.1396 0.0000 0.0000
# 5 0.0000 0.0000 0.0000 0.0000 19.6896 0.0000
# 6 0.0000 0.0000 0.0000 0.0000 0.0000 14.3660
#
#
#
# Elastic Compliance Matrix: (Units=1/GPa)
#
#
# Indices 1 2 3 4 5 6 
#
# 1 0.013591 -0.008211 -0.002936 0.000000 0.000000 0.000000
# 2 -0.008211 0.023709 -0.002119 0.000000 0.000000 0.000000
# 3 -0.002936 -0.002119 0.015545 0.000000 0.000000 0.000000
# 4 0.000000 0.000000 0.000000 0.023731 0.000000 0.000000
# 5 0.000000 0.000000 0.000000 0.000000 0.050788 0.000000
# 6 0.000000 0.000000 0.000000 0.000000 0.000000 0.069609
#
#
# Mechanical properties :
#
#
# Convention : Reuss Voigt Hill
#
# Bulk Modulus (GPa) = 38.00241 42.33094 40.16668
# Shear Modulus (GPa) = 21.52619 25.40113 23.46366
#
# Velocity S-wave (km/s) = 3.45169 3.74951 3.60367
# Velocity P-wave (km/s) = 6.07608 6.49416 6.28859
#
# Compressibility (1/GPa) = 0.02631412
#
# Stress axis : x y z
#
# Youngs Moduli (GPa) = 73.58001 42.17775 64.32788
#
# Poissons Ratio (x) = 0.34630 0.18885
# Poissons Ratio (y) = 0.60413 0.13633
# Poissons Ratio (z) = 0.21601 0.08939
#
# Static dielectric constant tensor:
#      x y z
#    x 3.251800 0.000000 0.000000 
#    y 0.000000 2.855760 0.000000 
#    z 0.000000 0.000000 3.507950 
# 
# 
# High freq. dielectric constant tensor:
#      x y z
#    x 1.683960 0.000000 0.000000 
#    y 0.000000 1.650150 0.000000 
#    z 0.000000 0.000000 1.703250 
# 
# From -- ./inp_files/40230.got.cif
#   From: 2010.06.25/outbox.ucp.g09.slc.cvg/sg71_21_cif.got.tgz:40230.got - 2010.06.28 16:23:14.
