data_PCOD8292154
_publ_section_title
;
Structure prediction by ZEFSAII (Michael W. Deem and Ramdas Pophale) SiO2 
 PCOD8292154
Probable space group: I M M M
;
_chemical_formula_sum "Si O2"
_cell_formula_units_Z 88
_cell_length_a 27.325918
_cell_length_b 19.222862
_cell_length_c 8.580566
_cell_angle_alpha 90.000000
_cell_angle_beta 90.000000
_cell_angle_gamma 90.000000
_cell_volume 4507.219879
_symmetry_space_group_name_H-M "I M M M"
_symmetry_group_IT_number 71
_symmetry_cell_setting 'orthorhombic'
loop_
_space_group_symop_operation_xyz
x,y,z
-x,-y,z
x,-y,-z
-x,y,-z
-x,-y,-z
x,y,-z
-x,y,z
x,-y,z
1/2+x,1/2+y,1/2+z
1/2-x,1/2-y,1/2+z
1/2+x,1/2-y,1/2-z
1/2-x,1/2+y,1/2-z
1/2-x,1/2-y,1/2-z
1/2+x,1/2+y,1/2-z
1/2-x,1/2+y,1/2+z
1/2+x,1/2-y,1/2+z
loop_
_atom_site_type_symbol
_atom_site_label
_atom_site_fract_x
_atom_site_fract_y
_atom_site_fract_z
Si Si1 0.000000 0.079458 0.815823
Si Si2 0.095534 0.152688 0.681739
Si Si3 0.445333 0.076149 0.314788
Si Si4 0.187259 0.919570 0.179007
Si Si5 0.273704 0.181776 0.182890
Si Si6 0.877805 0.697986 0.815749
O O1 0.951832 0.120227 0.762843
O O2 0.000000 0.000000 0.749996
O O3 0.000000 0.077337 0.000000
O O4 0.084995 0.154066 0.500000
O O5 0.142937 0.105994 0.714669
O O6 0.106274 0.230136 0.739150
O O7 0.444999 0.079334 0.500000
O O8 0.500000 0.087437 0.251124
O O9 0.412545 0.137862 0.246996
O O10 0.425912 0.000000 0.260225
O O11 0.237913 0.882044 0.222366
O O12 0.196306 0.000000 0.211035
O O13 0.172978 0.904094 0.000000
O O14 0.250000 0.250000 0.250000
O O15 0.324263 0.171579 0.271464
O O16 0.283314 0.189689 0.000000
O O17 0.881753 0.707272 0.000000
#
# Coordination Sequence:
#
# PCOD8292154 Si02
#       6
#     8  16  16  16  16  16
#     4  11  25  45  67  89 120 161 202 247 301 362
#     4  12  25  40  61  91 125 160 200 250 301 354
#     4   8  16  33  57  86 118 153 197 247 294 343
#     4  10  22  41  64  88 117 158 204 247 300 365
#     4  11  22  38  60  85 118 157 197 245 299 356
#     4  11  22  36  60  90 122 161 203 249 299 359
#
# _framework density 19.524229999999999
#
# number of rings (size 3 to 8) (size 9 to 14) (size 15 to 20)
#    0.000    1.545    1.818    4.091    1.273    4.727 
#    0.000    0.000    0.000    1.636    0.000    5.091 
#    0.000    0.000    0.000    0.000    0.000    0.000 
#
# Total GULP energy -545627.286249 kJ/mol
# GULP energy per Si atom -12400.620142 kJ/mol
# Density = 1.947979 g / cm^3
# Si number density = 19.524230 Si / 1000 Ang^3
#
#
#
# Elastic Constant Matrix: (Units=GPa)
#
#
# Indices 1 2 3 4 5 6 
#
# 1 134.6272 82.4984 23.8954 0.0000 0.0000 0.0000
# 2 82.4984 153.2864 26.2333 0.0000 0.0000 0.0000
# 3 23.8954 26.2333 59.0266 0.0000 0.0000 0.0000
# 4 0.0000 0.0000 0.0000 12.2327 0.0000 0.0000
# 5 0.0000 0.0000 0.0000 0.0000 34.1263 0.0000
# 6 0.0000 0.0000 0.0000 0.0000 0.0000 42.8756
#
#
#
# Elastic Compliance Matrix: (Units=1/GPa)
#
#
# Indices 1 2 3 4 5 6 
#
# 1 0.011303 -0.005736 -0.002026 0.000000 0.000000 0.000000
# 2 -0.005736 0.009972 -0.002110 0.000000 0.000000 0.000000
# 3 -0.002026 -0.002110 0.018699 0.000000 0.000000 0.000000
# 4 0.000000 0.000000 0.000000 0.081748 0.000000 0.000000
# 5 0.000000 0.000000 0.000000 0.000000 0.029303 0.000000
# 6 0.000000 0.000000 0.000000 0.000000 0.000000 0.023323
#
#
# Mechanical properties :
#
#
# Convention : Reuss Voigt Hill
#
# Bulk Modulus (GPa) = 49.43222 68.02157 58.72690
# Shear Modulus (GPa) = 24.89590 32.13446 28.51518
#
# Velocity S-wave (km/s) = 3.57477 4.06134 3.82580
# Velocity P-wave (km/s) = 6.51245 7.54373 7.04698
#
# Compressibility (1/GPa) = 0.02022972
#
# Stress axis : x y z
#
# Youngs Moduli (GPa) = 88.47409 100.27997 53.47765
#
# Poissons Ratio (x) = 0.57524 0.10836
# Poissons Ratio (y) = 0.50752 0.11282
# Poissons Ratio (z) = 0.17927 0.21156
#
# Static dielectric constant tensor:
#      x y z
#    x 3.690860 0.000000 0.000000 
#    y 0.000000 3.836140 0.000000 
#    z 0.000000 0.000000 3.529770 
# 
# 
# High freq. dielectric constant tensor:
#      x y z
#    x 1.771690 0.000000 0.000000 
#    y 0.000000 1.776820 0.000000 
#    z 0.000000 0.000000 1.749210 
# 
# From -- ./inp_files/12562.got.cif
#   From: 2010.06.25/outbox.cif.g09.slc.cpg/sg71_7_cif.got.tgz:12562.got - 2010.06.28 04:59:45.
