data_PCOD8292548
_publ_section_title
;
Structure prediction by ZEFSAII (Michael W. Deem and Ramdas Pophale) SiO2 
 PCOD8292548
Probable space group: I M M M
;
_chemical_formula_sum "Si O2"
_cell_formula_units_Z 72
_cell_length_a 8.269250
_cell_length_b 16.718855
_cell_length_c 25.553994
_cell_angle_alpha 90.000000
_cell_angle_beta 90.000000
_cell_angle_gamma 90.000000
_cell_volume 3532.900788
_symmetry_space_group_name_H-M "I M M M"
_symmetry_group_IT_number 71
_symmetry_cell_setting 'orthorhombic'
loop_
_space_group_symop_operation_xyz
x,y,z
-x,-y,z
x,-y,-z
-x,y,-z
-x,-y,-z
x,y,-z
-x,y,z
x,-y,z
1/2+x,1/2+y,1/2+z
1/2-x,1/2-y,1/2+z
1/2+x,1/2-y,1/2-z
1/2-x,1/2+y,1/2-z
1/2-x,1/2-y,1/2-z
1/2+x,1/2+y,1/2-z
1/2-x,1/2+y,1/2+z
1/2+x,1/2-y,1/2+z
loop_
_atom_site_type_symbol
_atom_site_label
_atom_site_fract_x
_atom_site_fract_y
_atom_site_fract_z
Si Si1 0.308763 0.328318 0.783111
Si Si2 0.192942 0.644925 0.441853
Si Si3 0.191634 0.500000 0.741273
Si Si4 0.192781 0.500000 0.375821
Si Si5 0.692678 0.589563 0.000000
Si Si6 0.807638 0.187817 0.598868
O O1 0.500000 0.323062 0.782454
O O2 0.250000 0.250000 0.750000
O O3 0.255580 0.416193 0.764096
O O4 0.240662 0.326945 0.842654
O O5 0.261397 0.632749 0.500000
O O6 0.264102 0.576554 0.405076
O O7 0.258324 0.726516 0.418125
O O8 0.000000 0.643953 0.442884
O O9 0.257142 0.500000 0.682575
O O10 0.000000 0.500000 0.745930
O O11 0.000000 0.500000 0.377187
O O12 0.759579 0.627971 0.945941
O O13 0.756450 0.500000 0.000000
O O14 0.500000 0.596436 0.000000
O O15 0.000000 0.183649 0.599846
#
# Coordination Sequence:
#
# PCOD8292548 Si02
#       6
#    16  16   8   8   8  16
#     4  11  23  39  60  87 120 156 197 241 291 348
#     4   9  14  23  40  67 103 137 166 208 277 341
#     4  11  23  40  59  83 117 154 199 246 292 343
#     4   9  17  27  44  69 103 141 174 218 273 328
#     4   9  16  26  44  71 105 139 172 222 293 344
#     4   9  17  29  47  74 109 142 176 229 288 339
#
# _framework density 20.379853000000001
#
# number of rings (size 3 to 8) (size 9 to 14) (size 15 to 20)
#    0.000    2.333    1.111    2.667    1.556    4.889 
#    0.000    0.000    0.000    0.000    0.000    3.889 
#    0.000    5.333    0.000    0.000    0.000    0.000 
#
# Total GULP energy -446001.276798 kJ/mol
# GULP energy per Si atom -12388.924355 kJ/mol
# Density = 2.033347 g / cm^3
# Si number density = 20.379853 Si / 1000 Ang^3
#
#
#
# Elastic Constant Matrix: (Units=GPa)
#
#
# Indices 1 2 3 4 5 6 
#
# 1 29.9742 13.0184 17.0387 0.0000 0.0000 0.0000
# 2 13.0184 203.2813 111.1049 0.0000 0.0000 0.0000
# 3 17.0387 111.1049 226.3537 0.0000 0.0000 0.0000
# 4 0.0000 0.0000 0.0000 49.1073 0.0000 0.0000
# 5 0.0000 0.0000 0.0000 0.0000 19.5459 0.0000
# 6 0.0000 0.0000 0.0000 0.0000 0.0000 16.2339
#
#
#
# Elastic Compliance Matrix: (Units=1/GPa)
#
#
# Indices 1 2 3 4 5 6 
#
# 1 0.035031 -0.001096 -0.002099 0.000000 0.000000 0.000000
# 2 -0.001096 0.006757 -0.003234 0.000000 0.000000 0.000000
# 3 -0.002099 -0.003234 0.006163 0.000000 0.000000 0.000000
# 4 0.000000 0.000000 0.000000 0.020364 0.000000 0.000000
# 5 0.000000 0.000000 0.000000 0.000000 0.051162 0.000000
# 6 0.000000 0.000000 0.000000 0.000000 0.000000 0.061600
#
#
# Mechanical properties :
#
#
# Convention : Reuss Voigt Hill
#
# Bulk Modulus (GPa) = 28.49567 82.43702 55.46635
# Shear Modulus (GPa) = 24.31515 38.20723 31.26119
#
# Velocity S-wave (km/s) = 3.45787 4.33454 3.92079
# Velocity P-wave (km/s) = 5.47313 8.09871 6.91174
#
# Compressibility (1/GPa) = 0.03509305
#
# Stress axis : x y z
#
# Youngs Moduli (GPa) = 28.54594 147.99067 162.24932
#
# Poissons Ratio (x) = 0.16225 0.34054
# Poissons Ratio (y) = 0.03130 0.52475
# Poissons Ratio (z) = 0.05991 0.47863
#
# Static dielectric constant tensor:
#      x y z
#    x 3.043390 0.000000 0.000000 
#    y 0.000000 4.160040 0.000000 
#    z 0.000000 0.000000 4.171690 
# 
# 
# High freq. dielectric constant tensor:
#      x y z
#    x 1.733470 0.000000 0.000000 
#    y 0.000000 1.815650 0.000000 
#    z 0.000000 0.000000 1.819760 
# 
# From -- ./inp_files/62880.got.cif
#   From: 2010.06.25/outbox.cif.g09.slc.cpg/sg71_32_cif.got.tgz:62880.got - 2010.06.28 04:59:45.
