data_PCOD8292007
_publ_section_title
;
Structure prediction by ZEFSAII (Michael W. Deem and Ramdas Pophale) SiO2 
 PCOD8292007
Probable space group: I M M M
;
_chemical_formula_sum "Si O2"
_cell_formula_units_Z 90
_cell_length_a 11.325503
_cell_length_b 21.769566
_cell_length_c 18.098336
_cell_angle_alpha 90.000000
_cell_angle_beta 90.000000
_cell_angle_gamma 90.000000
_cell_volume 4462.167998
_symmetry_space_group_name_H-M "I M M M"
_symmetry_group_IT_number 71
_symmetry_cell_setting 'orthorhombic'
loop_
_space_group_symop_operation_xyz
x,y,z
-x,-y,z
x,-y,-z
-x,y,-z
-x,-y,-z
x,y,-z
-x,y,z
x,-y,z
1/2+x,1/2+y,1/2+z
1/2-x,1/2-y,1/2+z
1/2+x,1/2-y,1/2-z
1/2-x,1/2+y,1/2-z
1/2-x,1/2-y,1/2-z
1/2+x,1/2+y,1/2-z
1/2-x,1/2+y,1/2+z
1/2+x,1/2-y,1/2+z
loop_
_atom_site_type_symbol
_atom_site_label
_atom_site_fract_x
_atom_site_fract_y
_atom_site_fract_z
Si Si1 0.000000 0.749222 0.587305
Si Si2 0.246769 0.783661 0.085136
Si Si3 0.000000 0.500000 0.500000
Si Si4 0.362311 0.606894 0.333921
Si Si5 0.239276 0.500000 0.420473
Si Si6 0.713805 0.429431 0.175529
Si Si7 0.865901 0.653480 0.916506
Si Si8 0.000000 0.112831 0.412736
O O1 0.883870 0.710595 0.610747
O O2 0.000000 0.817958 0.621001
O O3 0.000000 0.757306 0.500000
O O4 0.163757 0.825097 0.135992
O O5 0.214288 0.712872 0.095966
O O6 0.230458 0.804290 0.000000
O O7 0.902384 0.500000 0.433358
O O8 0.500000 0.590305 0.345124
O O9 0.278182 0.560353 0.376875
O O10 0.330255 0.605672 0.248087
O O11 0.305473 0.500000 0.500000
O O12 0.740733 0.500000 0.194552
O O13 0.831457 0.398575 0.142481
O O14 0.614001 0.424159 0.113525
O O15 0.000000 0.672841 0.902317
O O16 0.848267 0.628485 0.000000
O O17 0.000000 0.114074 0.500000
#
# Coordination Sequence:
#
# PCOD8292007 Si02
#       8
#     8  16   2  16   8  16  16   8
#     4   9  18  38  66  98 130 164 218 276 337 390
#     4  10  21  40  67  98 128 171 218 276 331 401
#     4   8  24  48  70 100 124 172 242 278 314 392
#     4  12  25  42  65  98 137 175 219 274 339 399
#     4  10  23  46  70  93 128 175 225 274 324 384
#     4  12  25  42  63  95 134 175 219 275 336 396
#     4  10  22  43  67  94 131 170 219 277 330 399
#     4  11  21  40  70  96 126 170 223 278 330 397
#
# _framework density 20.169568000000002
#
# number of rings (size 3 to 8) (size 9 to 14) (size 15 to 20)
#    0.267    1.067    3.556    2.133    0.000    6.044 
#    4.800    0.889    0.000    0.000    0.000    0.000 
#    0.000    0.000    0.000    0.000    0.000    0.000 
#
# Total GULP energy -557555.807109 kJ/mol
# GULP energy per Si atom -12390.129047 kJ/mol
# Density = 2.012366 g / cm^3
# Si number density = 20.169568 Si / 1000 Ang^3
#
#
#
# Elastic Constant Matrix: (Units=GPa)
#
#
# Indices 1 2 3 4 5 6 
#
# 1 133.9890 26.2829 47.9301 0.0000 0.0000 0.0003
# 2 26.2829 74.4122 38.3329 0.0000 0.0000 0.0080
# 3 47.9301 38.3329 99.1481 0.0000 0.0000 0.0191
# 4 0.0000 0.0000 0.0000 27.5844 0.0000 0.0143
# 5 0.0000 0.0000 0.0000 0.0000 29.9935 0.0021
# 6 0.0003 0.0080 0.0191 0.0143 0.0021**********
#
#
#
# Elastic Compliance Matrix: (Units=1/GPa)
#
#
# Indices 1 2 3 4 5 6 
#
# 1 0.009107 -0.001185 -0.003944 0.000000 0.000000 0.000000
# 2 -0.001185 0.016935 -0.005975 0.000000 0.000000 0.000000
# 3 -0.003944 -0.005975 0.014303 0.000000 0.000000 0.000000
# 4 0.000000 0.000000 0.000000 0.036252 0.000000 0.000000
# 5 0.000000 0.000000 0.000000 0.000000 0.033341 0.000000
# 6 0.000000 0.000000 0.000000 0.000000 0.000000 -0.000095
#
#
# Mechanical properties :
#
#
# Convention : Reuss Voigt Hill
#
# Bulk Modulus (GPa) = 55.13650 59.18235 57.15943
# Shear Modulus (GPa) = 36.20682 -2089.63869 -1026.71593
#
# Velocity S-wave (km/s) = 4.24148 -32.22242 -22.58644
# Velocity P-wave (km/s) = 7.16818 36.80996 25.53028
#
# Compressibility (1/GPa) = 0.01813680
#
# Stress axis : x y z
#
# Youngs Moduli (GPa) = 109.81024 59.04956 69.91708
#
# Poissons Ratio (x) = 0.06995 0.27577
# Poissons Ratio (y) = 0.13009 0.41774
# Poissons Ratio (z) = 0.43313 0.35281
#
# Static dielectric constant tensor:
#      x y z
#    x 3.928460 0.000000 0.000000 
#    y 0.000000 3.558910 0.000000 
#    z 0.000000 0.000000 3.638220 
# 
# 
# High freq. dielectric constant tensor:
#      x y z
#    x 1.798230 0.000000 0.000000 
#    y 0.000000 1.774280 0.000000 
#    z 0.000000 0.000000 1.783190 
# 
# From -- ./inp_files/43421.got.cif
#   From: 2010.06.25/outbox.cif.g09.slc.cpg/sg71_22_cif.got.tgz:43421.got - 2010.06.28 04:59:45.
