data_PCOD8292057
_publ_section_title
;
Structure prediction by ZEFSAII (Michael W. Deem and Ramdas Pophale) SiO2 
 PCOD8292057
Probable space group: I M M M
;
_chemical_formula_sum "Si O2"
_cell_formula_units_Z 104
_cell_length_a 27.251013
_cell_length_b 21.881727
_cell_length_c 8.625829
_cell_angle_alpha 90.000000
_cell_angle_beta 90.000000
_cell_angle_gamma 90.000000
_cell_volume 5143.575164
_symmetry_space_group_name_H-M "I M M M"
_symmetry_group_IT_number 71
_symmetry_cell_setting 'orthorhombic'
loop_
_space_group_symop_operation_xyz
x,y,z
-x,-y,z
x,-y,-z
-x,y,-z
-x,-y,-z
x,y,-z
-x,y,z
x,-y,z
1/2+x,1/2+y,1/2+z
1/2-x,1/2-y,1/2+z
1/2+x,1/2-y,1/2-z
1/2-x,1/2+y,1/2-z
1/2-x,1/2-y,1/2-z
1/2+x,1/2+y,1/2-z
1/2-x,1/2+y,1/2+z
1/2+x,1/2-y,1/2+z
loop_
_atom_site_type_symbol
_atom_site_label
_atom_site_fract_x
_atom_site_fract_y
_atom_site_fract_z
Si Si1 0.442361 0.130074 0.678489
Si Si2 0.732042 0.569806 0.684396
Si Si3 0.879559 0.273637 0.321256
Si Si4 0.445005 0.336178 0.818394
Si Si5 0.621371 0.570907 0.327085
Si Si6 0.057999 0.500000 0.170154
Si Si7 0.221525 0.307809 0.818930
O O1 0.423980 0.139371 0.500000
O O2 0.500000 0.138691 0.681746
O O3 0.420462 0.175073 0.804219
O O4 0.425782 0.063593 0.748057
O O5 0.735171 0.572083 0.500000
O O6 0.747655 0.500000 0.738201
O O7 0.676157 0.582870 0.739178
O O8 0.764986 0.624987 0.751520
O O9 0.862912 0.266644 0.500000
O O10 0.905715 0.212934 0.254098
O O11 0.834888 0.293536 0.213641
O O12 0.500000 0.330076 0.744751
O O13 0.421020 0.401123 0.779976
O O14 0.450210 0.327405 0.000000
O O15 0.617286 0.598601 0.500000
O O16 0.610319 0.500000 0.330915
O O17 0.000000 0.500000 0.153069
O O18 0.081489 0.500000 0.000000
O O19 0.250000 0.250000 0.750000
O O20 0.232176 0.310400 0.000000
#
# Coordination Sequence:
#
# PCOD8292057 Si02
#       7
#    16  16  16  16  16   8  16
#     4   9  17  32  55  81 109 144 186 231 281 336
#     4   9  19  39  65  91 121 156 196 245 299 355
#     4  11  23  39  57  80 111 149 193 240 292 343
#     4  10  22  38  55  79 113 152 193 238 285 334
#     4   9  19  36  59  87 116 147 184 227 278 339
#     4   7  12  26  49  75 103 137 177 221 267 317
#     4  12  25  41  62  88 118 152 195 245 300 361
#
# _framework density 20.219398999999999
#
# number of rings (size 3 to 8) (size 9 to 14) (size 15 to 20)
#    0.000    2.231    0.000    5.077    0.000    6.462 
#    1.385    3.462    0.000    1.385    0.000    0.000 
#    0.000    0.000    0.000    0.000    0.000    0.000 
#
# Total GULP energy -644224.976517 kJ/mol
# GULP energy per Si atom -12388.941856 kJ/mol
# Density = 2.017338 g / cm^3
# Si number density = 20.219399 Si / 1000 Ang^3
#
#
#
# Elastic Constant Matrix: (Units=GPa)
#
#
# Indices 1 2 3 4 5 6 
#
# 1 95.8358 59.3234 27.2560 0.0000 0.0000 0.0000
# 2 59.3234 119.2754 31.1978 0.0000 0.0000 0.0000
# 3 27.2560 31.1978 46.3894 0.0000 0.0000 0.0000
# 4 0.0000 0.0000 0.0000 29.5655 0.0000 0.0000
# 5 0.0000 0.0000 0.0000 0.0000 28.9665 0.0000
# 6 0.0000 0.0000 0.0000 0.0000 0.0000 32.6808
#
#
#
# Elastic Compliance Matrix: (Units=1/GPa)
#
#
# Indices 1 2 3 4 5 6 
#
# 1 0.015942 -0.006649 -0.004896 0.000000 0.000000 0.000000
# 2 -0.006649 0.012946 -0.004800 0.000000 0.000000 0.000000
# 3 -0.004896 -0.004800 0.027661 0.000000 0.000000 0.000000
# 4 0.000000 0.000000 0.000000 0.033823 0.000000 0.000000
# 5 0.000000 0.000000 0.000000 0.000000 0.034523 0.000000
# 6 0.000000 0.000000 0.000000 0.000000 0.000000 0.030599
#
#
# Mechanical properties :
#
#
# Convention : Reuss Voigt Hill
#
# Bulk Modulus (GPa) = 41.90933 55.22834 48.56884
# Shear Modulus (GPa) = 25.49228 27.82409 26.65819
#
# Velocity S-wave (km/s) = 3.55460 3.71362 3.63498
# Velocity P-wave (km/s) = 6.13345 6.76475 6.45682
#
# Compressibility (1/GPa) = 0.02386103
#
# Stress axis : x y z
#
# Youngs Moduli (GPa) = 62.72553 77.24180 36.15161
#
# Poissons Ratio (x) = 0.51356 0.17698
# Poissons Ratio (y) = 0.41704 0.17354
# Poissons Ratio (z) = 0.30708 0.37078
#
# Static dielectric constant tensor:
#      x y z
#    x 3.277690 0.000000 0.000000 
#    y 0.000000 4.107270 0.000000 
#    z 0.000000 0.000000 3.496010 
# 
# 
# High freq. dielectric constant tensor:
#      x y z
#    x 1.781410 0.000000 0.000000 
#    y 0.000000 1.808580 0.000000 
#    z 0.000000 0.000000 1.765530 
# 
# From -- ./inp_files/14974.got.cif
#   From: 2010.06.25/outbox.cif.g09.slc.cpg/sg71_8_cif.got.tgz:14974.got - 2010.06.28 04:59:45.
