data_PCOD8292864
_publ_section_title
;
Structure prediction by ZEFSAII (Michael W. Deem and Ramdas Pophale) SiO2 
 PCOD8292864
Probable space group: I B A M
;
_chemical_formula_sum "Si O2"
_cell_formula_units_Z 96
_cell_length_a 29.053748
_cell_length_b 26.356217
_cell_length_c 8.745007
_cell_angle_alpha 90.000000
_cell_angle_beta 90.000000
_cell_angle_gamma 90.000000
_cell_volume 6696.461887
_symmetry_space_group_name_H-M "I B A M"
_symmetry_group_IT_number 72
_symmetry_cell_setting 'orthorhombic'
loop_
_space_group_symop_operation_xyz
x,y,z
-x,-y,z
x,-y,1/2-z
-x,y,1/2-z
-x,-y,-z
x,y,-z
-x,y,1/2+z
x,-y,1/2+z
1/2+x,1/2+y,1/2+z
1/2-x,1/2-y,1/2+z
1/2+x,1/2-y,-z
1/2-x,1/2+y,-z
1/2-x,1/2-y,1/2-z
1/2+x,1/2+y,1/2-z
1/2-x,1/2+y,z
1/2+x,1/2-y,z
loop_
_atom_site_type_symbol
_atom_site_label
_atom_site_fract_x
_atom_site_fract_y
_atom_site_fract_z
Si Si1 0.047457 0.716785 0.819399
Si Si2 0.310378 0.852527 0.319944
Si Si3 0.224606 0.796094 0.323445
Si Si4 0.137820 0.743343 0.319770
Si Si5 0.953404 0.392863 0.320703
Si Si6 0.859239 0.554210 0.820957
O O1 0.089400 0.752411 0.765002
O O2 0.057405 0.660262 0.759846
O O3 0.000000 0.738287 0.750000
O O4 0.043733 0.716551 0.000000
O O5 0.320968 0.848784 0.500000
O O6 0.254831 0.846395 0.286152
O O7 0.339312 0.809191 0.234927
O O8 0.324121 0.907009 0.256906
O O9 0.226280 0.784482 0.500000
O O10 0.250000 0.750000 0.250000
O O11 0.170530 0.792148 0.275260
O O12 0.128778 0.739163 0.500000
O O13 0.960081 0.383085 0.500000
O O14 0.911939 0.431008 0.285572
O O15 0.000000 0.416837 0.250000
O O16 0.848863 0.500000 0.750000
O O17 0.849362 0.553317 0.000000
#
# Coordination Sequence:
#
# PCOD8292864 Si02
#       6
#    16  16  16  16  16  16
#     4  11  20  29  43  61  82 109 139 170 207 247
#     4  10  18  30  46  63  82 105 133 167 207 248
#     4   8  16  27  42  63  84 105 129 160 199 243
#     4  10  17  28  44  63  86 108 133 165 202 243
#     4  10  20  33  47  60  76  99 132 171 216 257
#     4  11  23  35  47  61  79 104 135 174 217 258
#
# _framework density 14.335927999999999
#
# number of rings (size 3 to 8) (size 9 to 14) (size 15 to 20)
#    0.000    2.000    1.667    4.500    0.000    3.667 
#    0.000    1.667    0.000    0.000    0.000    0.000 
#    0.000    0.000    0.000    0.000    0.000    0.833 
#
# Total GULP energy -594778.704327 kJ/mol
# GULP energy per Si atom -12391.223007 kJ/mol
# Density = 1.430330 g / cm^3
# Si number density = 14.335928 Si / 1000 Ang^3
#
#
#
# Elastic Constant Matrix: (Units=GPa)
#
#
# Indices 1 2 3 4 5 6 
#
# 1 116.4773 49.9588 47.0753 0.0000 0.0000 0.0000
# 2 49.9588 44.8472 24.2515 0.0000 0.0000 0.0000
# 3 47.0753 24.2515 79.1340 0.0000 0.0000 0.0000
# 4 0.0000 0.0000 0.0000 14.6504 0.0000 0.0000
# 5 0.0000 0.0000 0.0000 0.0000 22.6390 0.0000
# 6 0.0000 0.0000 0.0000 0.0000 0.0000 20.8810
#
#
#
# Elastic Compliance Matrix: (Units=1/GPa)
#
#
# Indices 1 2 3 4 5 6 
#
# 1 0.018272 -0.017352 -0.005552 0.000000 0.000000 0.000000
# 2 -0.017352 0.043206 -0.002919 0.000000 0.000000 0.000000
# 3 -0.005552 -0.002919 0.016834 0.000000 0.000000 0.000000
# 4 0.000000 0.000000 0.000000 0.068257 0.000000 0.000000
# 5 0.000000 0.000000 0.000000 0.000000 0.044171 0.000000
# 6 0.000000 0.000000 0.000000 0.000000 0.000000 0.047891
#
#
# Mechanical properties :
#
#
# Convention : Reuss Voigt Hill
#
# Bulk Modulus (GPa) = 37.49984 53.66997 45.58490
# Shear Modulus (GPa) = 16.71321 19.57895 18.14608
#
# Velocity S-wave (km/s) = 3.41812 3.69958 3.56163
# Velocity P-wave (km/s) = 6.46474 7.46779 6.98429
#
# Compressibility (1/GPa) = 0.02666678
#
# Stress axis : x y z
#
# Youngs Moduli (GPa) = 54.72941 23.14492 59.40423
#
# Poissons Ratio (x) = 0.40161 0.32980
# Poissons Ratio (y) = 0.94967 0.17337
# Poissons Ratio (z) = 0.30384 0.06755
#
# Static dielectric constant tensor:
#      x y z
#    x 3.661750 0.000000 0.000000 
#    y 0.000000 2.536690 0.000000 
#    z 0.000000 0.000000 2.949860 
# 
# 
# High freq. dielectric constant tensor:
#      x y z
#    x 1.553880 0.000000 0.000000 
#    y 0.000000 1.487350 0.000000 
#    z 0.000000 0.000000 1.569670 
# 
# From -- ./inp_files/8461.got.cif
#   From: 2010.03.12/outbox.cif.g09.slc.cpg/sg72_5_cif.got.tgz:8461.got - 2010.04.16 14:54:00.
