data_PCOD8292408
_publ_section_title
;
Structure prediction by ZEFSAII (Michael W. Deem and Ramdas Pophale) SiO2 
 PCOD8292408
Probable space group: I M M M
;
_chemical_formula_sum "Si O2"
_cell_formula_units_Z 56
_cell_length_a 26.160895
_cell_length_b 7.549431
_cell_length_c 14.199519
_cell_angle_alpha 90.000000
_cell_angle_beta 90.000000
_cell_angle_gamma 90.000000
_cell_volume 2804.403181
_symmetry_space_group_name_H-M "I M M M"
_symmetry_group_IT_number 71
_symmetry_cell_setting 'orthorhombic'
loop_
_space_group_symop_operation_xyz
x,y,z
-x,-y,z
x,-y,-z
-x,y,-z
-x,-y,-z
x,y,-z
-x,y,z
x,-y,z
1/2+x,1/2+y,1/2+z
1/2-x,1/2-y,1/2+z
1/2+x,1/2-y,1/2-z
1/2-x,1/2+y,1/2-z
1/2-x,1/2-y,1/2-z
1/2+x,1/2+y,1/2-z
1/2-x,1/2+y,1/2+z
1/2+x,1/2-y,1/2+z
loop_
_atom_site_type_symbol
_atom_site_label
_atom_site_fract_x
_atom_site_fract_y
_atom_site_fract_z
Si Si1 0.122771 0.702049 0.206299
Si Si2 0.835814 0.209928 0.394249
Si Si3 0.439611 0.500000 0.391515
Si Si4 0.722555 0.790329 0.395634
O O1 0.112874 0.500000 0.173351
O O2 0.123330 0.711392 0.320223
O O3 0.079279 0.823527 0.161366
O O4 0.178024 0.778136 0.173156
O O5 0.850004 0.274106 0.500000
O O6 0.778802 0.280892 0.366873
O O7 0.837654 0.000000 0.389806
O O8 0.500000 0.500000 0.385232
O O9 0.421100 0.500000 0.500000
O O10 0.709036 0.721267 0.500000
O O11 0.724376 0.000000 0.395083
#
# Coordination Sequence:
#
# PCOD8292408 Si02
#       4
#    16  16   8  16
#     4  11  21  36  61  87 117 154 195 242 293 347
#     4   9  17  32  54  83 124 166 197 231 276 337
#     4  11  26  46  65  87 113 145 194 250 302 355
#     4   8  15  28  49  81 120 159 196 231 276 340
#
# _framework density 19.968596999999999
#
# number of rings (size 3 to 8) (size 9 to 14) (size 15 to 20)
#    0.000    2.429    1.429    3.429    0.000    2.857 
#    2.571    1.429    0.000    1.714    0.000    2.000 
#    0.000    0.000    0.000    0.000    0.000    0.000 
#
# Total GULP energy -347053.828434 kJ/mol
# GULP energy per Si atom -12394.779587 kJ/mol
# Density = 1.992315 g / cm^3
# Si number density = 19.968597 Si / 1000 Ang^3
#
#
#
# Elastic Constant Matrix: (Units=GPa)
#
#
# Indices 1 2 3 4 5 6 
#
# 1 68.5360 32.5552 56.0490 0.0000 0.0000 0.0000
# 2 32.5552 79.8153 31.5305 0.0000 0.0000 0.0000
# 3 56.0490 31.5305 122.6161 0.0000 0.0000 0.0000
# 4 0.0000 0.0000 0.0000 17.4926 0.0000 0.0000
# 5 0.0000 0.0000 0.0000 0.0000 26.8413 0.0000
# 6 0.0000 0.0000 0.0000 0.0000 0.0000 21.9837
#
#
#
# Elastic Compliance Matrix: (Units=1/GPa)
#
#
# Indices 1 2 3 4 5 6 
#
# 1 0.026092 -0.006601 -0.010230 0.000000 0.000000 0.000000
# 2 -0.006601 0.015616 -0.000998 0.000000 0.000000 0.000000
# 3 -0.010230 -0.000998 0.013088 0.000000 0.000000 0.000000
# 4 0.000000 0.000000 0.000000 0.057167 0.000000 0.000000
# 5 0.000000 0.000000 0.000000 0.000000 0.037256 0.000000
# 6 0.000000 0.000000 0.000000 0.000000 0.000000 0.045488
#
#
# Mechanical properties :
#
#
# Convention : Reuss Voigt Hill
#
# Bulk Modulus (GPa) = 52.25098 56.80407 54.52753
# Shear Modulus (GPa) = 21.11979 23.31905 22.21942
#
# Velocity S-wave (km/s) = 3.25568 3.42100 3.33936
# Velocity P-wave (km/s) = 6.35264 6.64174 6.49880
#
# Compressibility (1/GPa) = 0.01913840
#
# Stress axis : x y z
#
# Youngs Moduli (GPa) = 38.32537 64.03775 76.40481
#
# Poissons Ratio (x) = 0.42274 0.78158
# Poissons Ratio (y) = 0.25300 0.07625
# Poissons Ratio (z) = 0.39205 0.06391
#
# Static dielectric constant tensor:
#      x y z
#    x 3.303430 0.000000 0.000000 
#    y 0.000000 3.340520 0.000000 
#    z 0.000000 0.000000 3.945970 
# 
# 
# High freq. dielectric constant tensor:
#      x y z
#    x 1.723890 0.000000 0.000000 
#    y 0.000000 1.769930 0.000000 
#    z 0.000000 0.000000 1.794620 
# 
# From -- ./inp_files/11892.got.cif
#   From: 2010.06.25/outbox.cif.g09.slc.cpg/sg71_6_cif.got.tgz:11892.got - 2010.06.28 04:59:45.
