data_PCOD8292311
_publ_section_title
;
Structure prediction by ZEFSAII (Michael W. Deem and Ramdas Pophale) SiO2 
 PCOD8292311
Probable space group: I M M M
;
_chemical_formula_sum "Si O2"
_cell_formula_units_Z 88
_cell_length_a 19.248865
_cell_length_b 16.131332
_cell_length_c 13.859532
_cell_angle_alpha 90.000000
_cell_angle_beta 90.000000
_cell_angle_gamma 90.000000
_cell_volume 4303.520952
_symmetry_space_group_name_H-M "I M M M"
_symmetry_group_IT_number 71
_symmetry_cell_setting 'orthorhombic'
loop_
_space_group_symop_operation_xyz
x,y,z
-x,-y,z
x,-y,-z
-x,y,-z
-x,-y,-z
x,y,-z
-x,y,z
x,-y,z
1/2+x,1/2+y,1/2+z
1/2-x,1/2-y,1/2+z
1/2+x,1/2-y,1/2-z
1/2-x,1/2+y,1/2-z
1/2-x,1/2-y,1/2-z
1/2+x,1/2+y,1/2-z
1/2-x,1/2+y,1/2+z
1/2+x,1/2-y,1/2+z
loop_
_atom_site_type_symbol
_atom_site_label
_atom_site_fract_x
_atom_site_fract_y
_atom_site_fract_z
Si Si1 0.000000 0.906631 0.864410
Si Si2 0.000000 0.401647 0.387536
Si Si3 0.851355 0.839938 0.393294
Si Si4 0.728537 0.593132 0.278619
Si Si5 0.630109 0.178557 0.218178
Si Si6 0.871124 0.205446 0.892870
Si Si7 0.000000 0.092962 0.637294
O O1 0.932528 0.860370 0.902270
O O2 0.000000 0.907545 0.750784
O O3 0.000000 0.000000 0.905368
O O4 0.933448 0.367214 0.332061
O O5 0.000000 0.500000 0.380540
O O6 0.000000 0.373415 0.500000
O O7 0.818798 0.846731 0.500000
O O8 0.812071 0.903689 0.323293
O O9 0.839996 0.747769 0.353726
O O10 0.933063 0.858645 0.399852
O O11 0.721253 0.500000 0.319157
O O12 0.809206 0.612929 0.261646
O O13 0.696910 0.657896 0.354622
O O14 0.607851 0.220161 0.320267
O O15 0.855844 0.241422 0.000000
O O16 0.000000 0.000000 0.595306
#
# Coordination Sequence:
#
# PCOD8292311 Si02
#       7
#     8   8  16  16  16  16   8
#     4  11  20  35  57  84 120 156 196 241 294 354
#     4  11  24  43  69  97 121 152 199 254 312 367
#     4  11  22  37  60  90 123 161 203 246 299 364
#     4  11  24  40  59  86 121 159 200 252 308 361
#     4  11  23  42  63  87 121 158 200 254 309 359
#     4  11  23  39  61  88 120 163 208 245 292 358
#     4  11  20  34  57  86 123 158 191 236 292 355
#
# _framework density 20.448371000000002
#
# number of rings (size 3 to 8) (size 9 to 14) (size 15 to 20)
#    0.000    1.000    3.636    6.000    0.000    7.273 
#    0.000    0.000    0.000    2.182    0.000    0.000 
#    0.000    0.000    0.000    0.000    0.000    0.000 
#
# Total GULP energy -545664.180245 kJ/mol
# GULP energy per Si atom -12401.458642 kJ/mol
# Density = 2.040183 g / cm^3
# Si number density = 20.448371 Si / 1000 Ang^3
#
#
#
# Elastic Constant Matrix: (Units=GPa)
#
#
# Indices 1 2 3 4 5 6 
#
# 1 124.9013 33.4854 38.4440 0.0000 0.0000 0.0000
# 2 33.4854 90.0680 38.4718 0.0000 0.0000 0.0000
# 3 38.4440 38.4718 172.5031 0.0000 0.0000 0.0000
# 4 0.0000 0.0000 0.0000 -37.2871 0.0000 0.0000
# 5 0.0000 0.0000 0.0000 0.0000 -41.1012 0.0000
# 6 0.0000 0.0000 0.0000 0.0000 0.0000 31.3400
#
#
#
# Elastic Compliance Matrix: (Units=1/GPa)
#
#
# Indices 1 2 3 4 5 6 
#
# 1 0.009198 -0.002812 -0.001423 0.000000 0.000000 0.000000
# 2 -0.002812 0.013131 -0.002302 0.000000 0.000000 0.000000
# 3 -0.001423 -0.002302 0.006627 0.000000 0.000000 0.000000
# 4 0.000000 0.000000 0.000000 -0.026819 0.000000 0.000000
# 5 0.000000 0.000000 0.000000 0.000000 -0.024330 0.000000
# 6 0.000000 0.000000 0.000000 0.000000 0.000000 0.031908
#
#
# Mechanical properties :
#
#
# Convention : Reuss Voigt Hill
#
# Bulk Modulus (GPa) = 62.95758 67.58610 65.27184
# Shear Modulus (GPa) = 178.03880 9.06175 93.55028
#
# Velocity S-wave (km/s) = 9.34112 2.10740 6.77118
# Velocity P-wave (km/s) = 12.13249 6.24863 9.64994
#
# Compressibility (1/GPa) = 0.01588371
#
# Stress axis : x y z
#
# Youngs Moduli (GPa) = 108.71804 76.15346 150.88770
#
# Poissons Ratio (x) = 0.21414 0.21468
# Poissons Ratio (y) = 0.30571 0.34733
# Poissons Ratio (z) = 0.15468 0.17530
#
# Static dielectric constant tensor:
#      x y z
#    x 3.528060 0.000000 0.000000 
#    y 0.000000 3.703950 0.000000 
#    z 0.000000 0.000000 3.883860 
# 
# 
# High freq. dielectric constant tensor:
#      x y z
#    x 1.801390 0.000000 0.000000 
#    y 0.000000 1.790260 0.000000 
#    z 0.000000 0.000000 1.807330 
# 
# From -- ./inp_files/36418.got.cif
#   From: 2010.06.25/outbox.cif.g09.slc.cpg/sg71_19_cif.got.tgz:36418.got - 2010.06.28 04:59:45.
