data_PCOD8292375
_publ_section_title
;
Structure prediction by ZEFSAII (Michael W. Deem and Ramdas Pophale) SiO2 
 PCOD8292375
Probable space group: I M M M
;
_chemical_formula_sum "Si O2"
_cell_formula_units_Z 72
_cell_length_a 15.704553
_cell_length_b 29.311447
_cell_length_c 8.700296
_cell_angle_alpha 90.000000
_cell_angle_beta 90.000000
_cell_angle_gamma 90.000000
_cell_volume 4004.947860
_symmetry_space_group_name_H-M "I M M M"
_symmetry_group_IT_number 71
_symmetry_cell_setting 'orthorhombic'
loop_
_space_group_symop_operation_xyz
x,y,z
-x,-y,z
x,-y,-z
-x,y,-z
-x,-y,-z
x,y,-z
-x,y,z
x,-y,z
1/2+x,1/2+y,1/2+z
1/2-x,1/2-y,1/2+z
1/2+x,1/2-y,1/2-z
1/2-x,1/2+y,1/2-z
1/2-x,1/2-y,1/2-z
1/2+x,1/2+y,1/2-z
1/2-x,1/2+y,1/2+z
1/2+x,1/2-y,1/2+z
loop_
_atom_site_type_symbol
_atom_site_label
_atom_site_fract_x
_atom_site_fract_y
_atom_site_fract_z
Si Si1 0.318711 0.381070 0.815076
Si Si2 0.672386 0.051489 0.318412
Si Si3 0.500000 0.612608 0.832507
Si Si4 0.322313 0.717981 0.317446
Si Si5 0.500000 0.945784 0.827308
Si Si6 0.500000 0.720692 0.170837
O O1 0.248469 0.416836 0.758438
O O2 0.410382 0.400705 0.752021
O O3 0.299862 0.332606 0.740065
O O4 0.321345 0.375534 0.000000
O O5 0.667677 0.051636 0.500000
O O6 0.584399 0.072681 0.256055
O O7 0.687366 0.000000 0.256698
O O8 0.500000 0.666831 0.846268
O O9 0.500000 0.589431 0.000000
O O10 0.320956 0.719452 0.500000
O O11 0.250000 0.750000 0.250000
O O12 0.414732 0.735798 0.260794
O O13 0.500000 0.000000 0.818358
O O14 0.500000 0.927353 0.000000
O O15 0.500000 0.742864 0.000000
#
# Coordination Sequence:
#
# PCOD8292375 Si02
#       6
#    16  16   8  16   8   8
#     4   9  17  31  50  72  99 131 166 203 244 290
#     4   9  17  30  49  72  98 129 165 203 243 290
#     4   7  12  25  46  68  92 124 157 190 230 279
#     4  11  21  34  53  77 103 133 169 207 250 298
#     4   9  17  29  46  67  92 125 164 204 248 297
#     4   9  17  33  54  75 100 131 167 206 248 297
#
# _framework density 17.977762999999999
#
# number of rings (size 3 to 8) (size 9 to 14) (size 15 to 20)
#    0.000    2.778    0.000    4.000    0.000    2.222 
#    0.000    1.667    0.000    7.333    0.000    0.000 
#    0.000    8.889    0.000    0.000    0.000    0.000 
#
# Total GULP energy -446102.659322 kJ/mol
# GULP energy per Si atom -12391.740537 kJ/mol
# Density = 1.793684 g / cm^3
# Si number density = 17.977763 Si / 1000 Ang^3
#
#
#
# Elastic Constant Matrix: (Units=GPa)
#
#
# Indices 1 2 3 4 5 6 
#
# 1 213.1890 78.9991 51.6797 -0.0007 0.0001 -0.0002
# 2 78.9991 66.5263 31.0520 0.0016 -0.0002 0.0002
# 3 51.6797 31.0520 76.2733 -0.0045 0.0001 -0.0010
# 4 -0.0007 0.0016 -0.0045 18.7039 0.0000 0.0001
# 5 0.0001 -0.0002 0.0001 0.0000 23.3349 0.0005
# 6 -0.0002 0.0002 -0.0010 0.0001 0.0005 33.4013
#
#
#
# Elastic Compliance Matrix: (Units=1/GPa)
#
#
# Indices 1 2 3 4 5 6 
#
# 1 0.008633 -0.009286 -0.002069 0.000001 0.000000 0.000000
# 2 -0.009286 0.028547 -0.005330 -0.000004 0.000000 0.000000
# 3 -0.002069 -0.005330 0.016682 0.000004 0.000000 0.000001
# 4 0.000001 -0.000004 0.000004 0.053465 0.000000 0.000000
# 5 0.000000 0.000000 0.000000 0.000000 0.042854 -0.000001
# 6 0.000000 0.000000 0.000001 0.000000 -0.000001 0.029939
#
#
# Mechanical properties :
#
#
# Convention : Reuss Voigt Hill
#
# Bulk Modulus (GPa) = 48.79871 75.49447 62.14659
# Shear Modulus (GPa) = 22.69411 28.03853 25.36632
#
# Velocity S-wave (km/s) = 3.55680 3.95349 3.76038
# Velocity P-wave (km/s) = 6.63857 7.93250 7.31420
#
# Compressibility (1/GPa) = 0.02049235
#
# Stress axis : x y z
#
# Youngs Moduli (GPa) = 115.83028 35.03037 59.94306
#
# Poissons Ratio (x) = 0.32530 0.12402
# Poissons Ratio (y) = 1.07562 0.31949
# Poissons Ratio (z) = 0.23966 0.18671
#
# Static dielectric constant tensor:
#      x y z
#    x -0.430370 -0.001130 -0.000500 
#    y -0.001130 3.040340 -0.000010 
#    z -0.000500 -0.000010 3.241860 
# 
# 
# High freq. dielectric constant tensor:
#      x y z
#    x 1.721310 0.000000 0.000000 
#    y 0.000000 1.651890 0.000000 
#    z 0.000000 0.000000 1.684020 
# 
# From -- ./inp_files/6546.got.cif
#   From: 2010.06.25/outbox.cif.g09.slc.cpg/sg71_4_cif.got.tgz:6546.got - 2010.06.28 04:59:45.
