data_PCOD8292953
_publ_section_title
;
Structure prediction by ZEFSAII (Michael W. Deem and Ramdas Pophale) SiO2 
 PCOD8292953
Probable space group: I B A M
;
_chemical_formula_sum "Si O2"
_cell_formula_units_Z 112
_cell_length_a 17.228441
_cell_length_b 21.433209
_cell_length_c 17.677875
_cell_angle_alpha 90.000000
_cell_angle_beta 90.000000
_cell_angle_gamma 90.000000
_cell_volume 6527.745853
_symmetry_space_group_name_H-M "I B A M"
_symmetry_group_IT_number 72
_symmetry_cell_setting 'orthorhombic'
loop_
_space_group_symop_operation_xyz
x,y,z
-x,-y,z
x,-y,1/2-z
-x,y,1/2-z
-x,-y,-z
x,y,-z
-x,y,1/2+z
x,-y,1/2+z
1/2+x,1/2+y,1/2+z
1/2-x,1/2-y,1/2+z
1/2+x,1/2-y,-z
1/2-x,1/2+y,-z
1/2-x,1/2-y,1/2-z
1/2+x,1/2+y,1/2-z
1/2-x,1/2+y,z
1/2+x,1/2-y,z
loop_
_atom_site_type_symbol
_atom_site_label
_atom_site_fract_x
_atom_site_fract_y
_atom_site_fract_z
Si Si1 0.250931 0.179729 0.336609
Si Si2 0.396106 0.282478 0.086789
Si Si3 0.710647 0.324102 0.173777
Si Si4 0.647920 0.858489 0.088144
Si Si5 0.098519 0.661899 0.588524
Si Si6 0.043673 0.784737 0.669764
Si Si7 0.485263 0.927172 0.664236
O O1 0.165829 0.174126 0.371585
O O2 0.275595 0.251233 0.334452
O O3 0.245700 0.150932 0.252816
O O4 0.313511 0.143119 0.388008
O O5 0.388093 0.209295 0.108509
O O6 0.480627 0.308335 0.109176
O O7 0.380542 0.292194 0.000000
O O8 0.759868 0.359945 0.109048
O O9 0.616806 0.333068 0.169975
O O10 0.601994 0.909372 0.138170
O O11 0.639163 0.874219 0.000000
O O12 0.093952 0.680799 0.500000
O O13 0.071677 0.717153 0.643275
O O14 0.043886 0.603441 0.604315
O O15 0.000000 0.779578 0.750000
O O16 0.500000 0.903680 0.750000
O O17 0.500000 0.000000 0.658508
#
# Coordination Sequence:
#
# PCOD8292953 Si02
#       7
#    16  16  16  16  16  16  16
#     4   9  17  29  44  64  90 126 164 199 237 284
#     4  10  18  28  44  67  96 127 162 202 240 285
#     4   9  18  29  45  65  90 127 164 197 237 286
#     4  10  20  33  48  67  94 128 163 203 247 287
#     4  11  21  31  47  68  94 128 164 204 245 285
#     4  11  19  29  46  69  97 130 167 197 238 289
#     4  11  23  37  53  71  92 125 168 206 244 288
#
# _framework density 17.157530999999999
#
# number of rings (size 3 to 8) (size 9 to 14) (size 15 to 20)
#    0.000    1.857    2.857    2.571    2.000    5.143 
#    0.000    0.000    0.000    0.000    0.000    0.000 
#    0.000    1.143    0.857    4.000    1.143    0.000 
#
# Total GULP energy -694091.269644 kJ/mol
# GULP energy per Si atom -12394.486958 kJ/mol
# Density = 1.711848 g / cm^3
# Si number density = 17.157531 Si / 1000 Ang^3
#
#
#
# Elastic Constant Matrix: (Units=GPa)
#
#
# Indices 1 2 3 4 5 6 
#
# 1 139.4313 23.1527 41.4023 0.0000 0.0000 0.0000
# 2 23.1527 24.2575 21.8500 0.0000 0.0000 0.0000
# 3 41.4023 21.8500 83.0634 -0.0001 0.0000 0.0000
# 4 0.0000 0.0000 -0.0001 13.5105 0.0000 0.0000
# 5 0.0000 0.0000 0.0000 0.0000 32.2701 0.0000
# 6 0.0000 0.0000 0.0000 0.0000 0.0000 11.6800
#
#
#
# Elastic Compliance Matrix: (Units=1/GPa)
#
#
# Indices 1 2 3 4 5 6 
#
# 1 0.009036 -0.005986 -0.002929 0.000000 0.000000 0.000000
# 2 -0.005986 0.057991 -0.012271 0.000000 0.000000 0.000000
# 3 -0.002929 -0.012271 0.016727 0.000000 0.000000 0.000000
# 4 0.000000 0.000000 0.000000 0.074016 0.000000 0.000000
# 5 0.000000 0.000000 0.000000 0.000000 0.030988 0.000000
# 6 0.000000 0.000000 0.000000 0.000000 0.000000 0.085616
#
#
# Mechanical properties :
#
#
# Convention : Reuss Voigt Hill
#
# Bulk Modulus (GPa) = 24.16542 46.61803 35.39172
# Shear Modulus (GPa) = 15.12675 22.18195 18.65435
#
# Velocity S-wave (km/s) = 2.97246 3.59951 3.30091
# Velocity P-wave (km/s) = 5.08878 6.67120 5.93298
#
# Compressibility (1/GPa) = 0.04138145
#
# Stress axis : x y z
#
# Youngs Moduli (GPa) = 110.67197 17.24412 59.78365
#
# Poissons Ratio (x) = 0.10322 0.17512
# Poissons Ratio (y) = 0.66245 0.73361
# Poissons Ratio (z) = 0.32418 0.21160
#
# Static dielectric constant tensor:
#      x y z
#    x 3.780200 0.000000 0.000000 
#    y 0.000000 2.568740 0.000000 
#    z 0.000000 0.000000 3.358940 
# 
# 
# High freq. dielectric constant tensor:
#      x y z
#    x 1.683150 0.000000 0.000000 
#    y 0.000000 1.572150 0.000000 
#    z 0.000000 0.000000 1.680690 
# 
# From -- ./inp_files/31903.got.cif
#   From: 2010.03.12/outbox.cif.g09.slc.cpg/sg72_16_cif.got.tgz:31903.got - 2010.04.16 14:54:00.
