data_PCOD8292047
_publ_section_title
;
Structure prediction by ZEFSAII (Michael W. Deem and Ramdas Pophale) SiO2 
 PCOD8292047
Probable space group: I M M M
;
_chemical_formula_sum "Si O2"
_cell_formula_units_Z 72
_cell_length_a 8.949898
_cell_length_b 14.442029
_cell_length_c 35.408780
_cell_angle_alpha 90.000000
_cell_angle_beta 90.000000
_cell_angle_gamma 90.000000
_cell_volume 4576.750757
_symmetry_space_group_name_H-M "I M M M"
_symmetry_group_IT_number 71
_symmetry_cell_setting 'orthorhombic'
loop_
_space_group_symop_operation_xyz
x,y,z
-x,-y,z
x,-y,-z
-x,y,-z
-x,-y,-z
x,y,-z
-x,y,z
x,-y,z
1/2+x,1/2+y,1/2+z
1/2-x,1/2-y,1/2+z
1/2+x,1/2-y,1/2-z
1/2-x,1/2+y,1/2-z
1/2-x,1/2-y,1/2-z
1/2+x,1/2+y,1/2-z
1/2-x,1/2+y,1/2+z
1/2+x,1/2-y,1/2+z
loop_
_atom_site_type_symbol
_atom_site_label
_atom_site_fract_x
_atom_site_fract_y
_atom_site_fract_z
Si Si1 0.332417 0.000000 0.263145
Si Si2 0.327644 0.796487 0.713568
Si Si3 0.173820 0.394554 0.574563
Si Si4 0.675622 0.177943 0.845710
Si Si5 0.674150 0.500000 0.311476
Si Si6 0.831708 0.110019 0.000000
O O1 0.312723 0.907418 0.287729
O O2 0.199674 0.000000 0.233103
O O3 0.500000 0.000000 0.244819
O O4 0.500000 0.764646 0.714122
O O5 0.250000 0.750000 0.750000
O O6 0.250930 0.765791 0.674319
O O7 0.228289 0.500000 0.583695
O O8 0.210233 0.326479 0.609536
O O9 0.254564 0.351913 0.537928
O O10 0.000000 0.396334 0.565523
O O11 0.500000 0.179138 0.837745
O O12 0.745432 0.088458 0.827426
O O13 0.500000 0.500000 0.321415
O O14 0.000000 0.145742 0.000000
O O15 0.818363 0.000000 0.000000
#
# Coordination Sequence:
#
# PCOD8292047 Si02
#       6
#     8  16  16  16   8   8
#     4  10  22  38  52  64  93 128 159 200 246 290
#     4  11  22  35  51  71  93 125 162 201 244 287
#     4   9  17  30  46  63  89 128 161 186 228 285
#     4  11  21  34  49  69  97 127 162 204 242 281
#     4  12  22  30  48  71  93 124 163 203 241 286
#     4   9  17  27  41  65  93 120 153 196 233 265
#
# _framework density 15.731685000000001
#
# number of rings (size 3 to 8) (size 9 to 14) (size 15 to 20)
#    0.000    1.667    3.333    2.667    0.000    4.000 
#    0.000    0.000    0.000    0.000    0.000    0.000 
#    0.000    0.889    0.000   10.000    0.000    4.444 
#
# Total GULP energy -446301.851954 kJ/mol
# GULP energy per Si atom -12397.273665 kJ/mol
# Density = 1.569588 g / cm^3
# Si number density = 15.731685 Si / 1000 Ang^3
#
#
#
# Elastic Constant Matrix: (Units=GPa)
#
#
# Indices 1 2 3 4 5 6 
#
# 1 96.5442 38.6800 67.7670 0.0000 0.0000 0.0000
# 2 38.6800 79.2034 44.1939 0.0000 0.0000 0.0000
# 3 67.7670 44.1939 127.8174 0.0000 0.0000 0.0000
# 4 0.0000 0.0000 0.0000 21.9319 0.0000 0.0000
# 5 0.0000 0.0000 0.0000 0.0000 27.8201 0.0000
# 6 0.0000 0.0000 0.0000 0.0000 0.0000 22.9080
#
#
#
# Elastic Compliance Matrix: (Units=1/GPa)
#
#
# Indices 1 2 3 4 5 6 
#
# 1 0.017551 -0.004187 -0.007858 0.000000 0.000000 0.000000
# 2 -0.004187 0.016643 -0.003535 0.000000 0.000000 0.000000
# 3 -0.007858 -0.003535 0.013212 0.000000 0.000000 0.000000
# 4 0.000000 0.000000 0.000000 0.045596 0.000000 0.000000
# 5 0.000000 0.000000 0.000000 0.000000 0.035945 0.000000
# 6 0.000000 0.000000 0.000000 0.000000 0.000000 0.043653
#
#
# Mechanical properties :
#
#
# Convention : Reuss Voigt Hill
#
# Bulk Modulus (GPa) = 61.54855 67.20517 64.37686
# Shear Modulus (GPa) = 23.90372 24.72695 24.31533
#
# Velocity S-wave (km/s) = 3.90226 3.96889 3.93571
# Velocity P-wave (km/s) = 7.71443 7.98844 7.85263
#
# Compressibility (1/GPa) = 0.01624734
#
# Stress axis : x y z
#
# Youngs Moduli (GPa) = 56.97741 60.08685 75.69034
#
# Poissons Ratio (x) = 0.25157 0.59474
# Poissons Ratio (y) = 0.23855 0.26753
# Poissons Ratio (z) = 0.44770 0.21238
#
# Static dielectric constant tensor:
#      x y z
#    x 3.162750 0.000000 0.000000 
#    y 0.000000 2.786980 0.000000 
#    z 0.000000 0.000000 3.126030 
# 
# 
# High freq. dielectric constant tensor:
#      x y z
#    x 1.620030 0.000000 0.000000 
#    y 0.000000 1.563540 0.000000 
#    z 0.000000 0.000000 1.597430 
# 
# From -- ./inp_files/6524.got.cif
#   From: 2010.06.25/outbox.cif.g09.slc.cpg/sg71_4_cif.got.tgz:6524.got - 2010.06.28 04:59:45.
