data_PCOD8292992
_publ_section_title
;
Structure prediction by ZEFSAII (Michael W. Deem and Ramdas Pophale) SiO2 
 PCOD8292992
Probable space group: I B A M
;
_chemical_formula_sum "Si O2"
_cell_formula_units_Z 116
_cell_length_a 24.884455
_cell_length_b 8.683280
_cell_length_c 28.788513
_cell_angle_alpha 90.000000
_cell_angle_beta 90.000000
_cell_angle_gamma 90.000000
_cell_volume 6220.584188
_symmetry_space_group_name_H-M "I B A M"
_symmetry_group_IT_number 72
_symmetry_cell_setting 'orthorhombic'
loop_
_space_group_symop_operation_xyz
x,y,z
-x,-y,z
x,-y,1/2-z
-x,y,1/2-z
-x,-y,-z
x,y,-z
-x,y,1/2+z
x,-y,1/2+z
1/2+x,1/2+y,1/2+z
1/2-x,1/2-y,1/2+z
1/2+x,1/2-y,-z
1/2-x,1/2+y,-z
1/2-x,1/2-y,1/2-z
1/2+x,1/2+y,1/2-z
1/2-x,1/2+y,z
1/2+x,1/2-y,z
loop_
_atom_site_type_symbol
_atom_site_label
_atom_site_fract_x
_atom_site_fract_y
_atom_site_fract_z
Si Si1 0.480805 0.758796 0.688101
Si Si2 0.614402 0.849151 0.604041
Si Si3 0.207836 0.189715 0.944957
Si Si4 0.414991 0.846749 0.447021
Si Si5 0.000000 0.000000 0.250000
Si Si6 0.488807 0.670932 0.912847
Si Si7 0.683973 0.350270 0.554387
Si Si8 0.083855 0.453752 0.200394
O O1 0.462321 0.613208 0.719414
O O2 0.492389 0.683353 0.639397
O O3 0.533271 0.841711 0.711153
O O4 0.434726 0.883150 0.679399
O O5 0.672061 0.813662 0.582606
O O6 0.574204 0.713985 0.586624
O O7 0.619613 0.869548 0.660574
O O8 0.589641 0.004760 0.584542
O O9 0.269162 0.230207 0.932204
O O10 0.195103 0.019971 0.924636
O O11 0.197044 0.206585 0.000000
O O12 0.400835 0.890130 0.500000
O O13 0.475853 0.784979 0.444599
O O14 0.372756 0.717960 0.428213
O O15 0.500000 0.500000 0.932022
O O16 0.683070 0.375869 0.500000
O O17 0.112329 0.500000 0.250000
#
# Coordination Sequence:
#
# PCOD8292992 Si02
#       8
#    16  16  16  16   4  16  16  16
#     4  10  18  29  48  71  99 131 175 216 265 306
#     4  11  22  33  52  77 105 144 180 214 267 319
#     4  10  19  35  56  81 107 132 174 224 269 314
#     4  11  22  36  52  73 104 143 182 215 258 315
#     4  12  16  26  52  76  90 134 176 224 276 298
#     4  11  22  34  47  72 111 143 175 217 257 318
#     4   9  19  35  57  81 105 134 173 226 271 307
#     4  10  18  33  48  69 101 139 171 216 261 314
#
# _framework density 18.647766000000001
#
# number of rings (size 3 to 8) (size 9 to 14) (size 15 to 20)
#    0.000    1.655    3.448    2.897    0.000    4.138 
#    0.000    0.000    0.000    0.000    0.000    3.862 
#    0.000    0.000    0.000    0.000    0.000    0.000 
#
# Total GULP energy -718812.190178 kJ/mol
# GULP energy per Si atom -12393.313624 kJ/mol
# Density = 1.860532 g / cm^3
# Si number density = 18.647766 Si / 1000 Ang^3
#
#
#
# Elastic Constant Matrix: (Units=GPa)
#
#
# Indices 1 2 3 4 5 6 
#
# 1 48.9176 -3.0421 16.2103 0.0000 0.0000 0.0000
# 2 -3.0421 81.7498 13.8557 0.0000 0.0000 0.0000
# 3 16.2103 13.8557 63.3422 0.0000 0.0000 0.0000
# 4 0.0000 0.0000 0.0000 26.6249 0.0000 0.0000
# 5 0.0000 0.0000 0.0000 0.0000 11.2777 0.0000
# 6 0.0000 0.0000 0.0000 0.0000 0.0000 25.5955
#
#
#
# Elastic Compliance Matrix: (Units=1/GPa)
#
#
# Indices 1 2 3 4 5 6 
#
# 1 0.022615 0.001893 -0.006202 0.000000 0.000000 0.000000
# 2 0.001893 0.012862 -0.003298 0.000000 0.000000 0.000000
# 3 -0.006202 -0.003298 0.018096 0.000000 0.000000 0.000000
# 4 0.000000 0.000000 0.000000 0.037559 0.000000 0.000000
# 5 0.000000 0.000000 0.000000 0.000000 0.088671 0.000000
# 6 0.000000 0.000000 0.000000 0.000000 0.000000 0.039069
#
#
# Mechanical properties :
#
#
# Convention : Reuss Voigt Hill
#
# Bulk Modulus (GPa) = 26.06926 27.56193 26.81560
# Shear Modulus (GPa) = 20.25341 23.83199 22.04270
#
# Velocity S-wave (km/s) = 3.29918 3.57880 3.44183
# Velocity P-wave (km/s) = 5.34069 5.64708 5.49602
#
# Compressibility (1/GPa) = 0.03835935
#
# Stress axis : x y z
#
# Youngs Moduli (GPa) = 44.21777 77.74950 55.26168
#
# Poissons Ratio (x) = -0.14715 0.34271
# Poissons Ratio (y) = -0.08369 0.18224
# Poissons Ratio (z) = 0.27422 0.25640
#
# Static dielectric constant tensor:
#      x y z
#    x 3.204490 0.000000 0.000000 
#    y 0.000000 3.657860 0.000000 
#    z 0.000000 0.000000 3.382530 
# 
# 
# High freq. dielectric constant tensor:
#      x y z
#    x 1.677590 0.000000 0.000000 
#    y 0.000000 1.743040 0.000000 
#    z 0.000000 0.000000 1.711240 
# 
# From -- ./inp_files/52452.got.cif
#   From: 2010.03.12/outbox.cif.g09.slc.cpg/sg72_27_cif.got.tgz:52452.got - 2010.04.16 14:54:00.
