data_PCOD8292616
_publ_section_title
;
Structure prediction by ZEFSAII (Michael W. Deem and Ramdas Pophale) SiO2 
 PCOD8292616
Probable space group: I M M M
;
_chemical_formula_sum "Si O2"
_cell_formula_units_Z 104
_cell_length_a 24.833000
_cell_length_b 25.741527
_cell_length_c 13.942838
_cell_angle_alpha 90.000000
_cell_angle_beta 90.000000
_cell_angle_gamma 90.000000
_cell_volume 8912.810561
_symmetry_space_group_name_H-M "I M M M"
_symmetry_group_IT_number 71
_symmetry_cell_setting 'orthorhombic'
loop_
_space_group_symop_operation_xyz
x,y,z
-x,-y,z
x,-y,-z
-x,y,-z
-x,-y,-z
x,y,-z
-x,y,z
x,-y,z
1/2+x,1/2+y,1/2+z
1/2-x,1/2-y,1/2+z
1/2+x,1/2-y,1/2-z
1/2-x,1/2+y,1/2-z
1/2-x,1/2-y,1/2-z
1/2+x,1/2+y,1/2-z
1/2-x,1/2+y,1/2+z
1/2+x,1/2-y,1/2+z
loop_
_atom_site_type_symbol
_atom_site_label
_atom_site_fract_x
_atom_site_fract_y
_atom_site_fract_z
Si Si1 0.788065 0.343370 0.290892
Si Si2 0.939406 0.000000 0.885909
Si Si3 0.256351 0.058644 0.110788
Si Si4 0.818465 0.754854 0.605994
Si Si5 0.135498 0.091965 0.888084
Si Si6 0.665363 0.691633 0.291505
Si Si7 0.695600 0.789948 0.394209
O O1 0.793462 0.402793 0.325905
O O2 0.822450 0.304938 0.359083
O O3 0.726306 0.327244 0.298565
O O4 0.809150 0.337637 0.181225
O O5 0.909164 0.948287 0.849661
O O6 0.000000 0.000000 0.845140
O O7 0.938300 0.000000 0.000000
O O8 0.193336 0.066436 0.131416
O O9 0.272268 0.000000 0.138599
O O10 0.268674 0.070247 0.000000
O O11 0.844580 0.760320 0.500000
O O12 0.849185 0.792418 0.681722
O O13 0.756539 0.770788 0.602967
O O14 0.127191 0.145247 0.828347
O O15 0.128081 0.104875 0.000000
O O16 0.658407 0.742016 0.359461
O O17 0.676792 0.808375 0.500000
#
# Coordination Sequence:
#
# PCOD8292616 Si02
#       7
#    16   8  16  16  16  16  16
#     4   8  13  18  25  37  52  70  89 107 130 159
#     4   9  16  24  32  42  57  75  91 109 142 186
#     4   9  14  19  27  38  51  68  91 117 142 164
#     4   8  12  18  26  38  55  70  83 101 128 160
#     4   9  14  21  30  41  55  68  84 109 139 170
#     4   8  13  18  27  41  53  67  85 104 129 162
#     4   8  12  18  26  37  52  70  88 103 124 157
#
# _framework density 11.668597999999999
#
# number of rings (size 3 to 8) (size 9 to 14) (size 15 to 20)
#    0.000    3.615    0.769    2.769    0.000    3.692 
#    0.000    0.000    0.000    0.462    0.000    0.538 
#    0.000    1.231    0.000    0.000    0.000    0.000 
#
# Total GULP energy -644233.356673 kJ/mol
# GULP energy per Si atom -12389.103013 kJ/mol
# Density = 1.164204 g / cm^3
# Si number density = 11.668598 Si / 1000 Ang^3
#
#
#
# Elastic Constant Matrix: (Units=GPa)
#
#
# Indices 1 2 3 4 5 6 
#
# 1 16.7244 22.9966 13.9074 0.0000 0.0000 0.0000
# 2 22.9966 101.3682 53.6458 0.0000 0.0000 0.0000
# 3 13.9074 53.6458 92.0752 0.0000 0.0000 0.0000
# 4 0.0000 0.0000 0.0000 20.1852 0.0000 0.0000
# 5 0.0000 0.0000 0.0000 0.0000 4.0495 0.0000
# 6 0.0000 0.0000 0.0000 0.0000 0.0000 7.2907
#
#
#
# Elastic Compliance Matrix: (Units=1/GPa)
#
#
# Indices 1 2 3 4 5 6 
#
# 1 0.087261 -0.018537 -0.002380 0.000000 0.000000 0.000000
# 2 -0.018537 0.018200 -0.007804 0.000000 0.000000 0.000000
# 3 -0.002380 -0.007804 0.015767 0.000000 0.000000 0.000000
# 4 0.000000 0.000000 0.000000 0.049541 0.000000 0.000000
# 5 0.000000 0.000000 0.000000 0.000000 0.246941 0.000000
# 6 0.000000 0.000000 0.000000 0.000000 0.000000 0.137162
#
#
# Mechanical properties :
#
#
# Convention : Reuss Voigt Hill
#
# Bulk Modulus (GPa) = 15.67735 43.47415 29.57575
# Shear Modulus (GPa) = 7.89170 14.27960 11.08565
#
# Velocity S-wave (km/s) = 2.60344 3.50203 3.08562
# Velocity P-wave (km/s) = 4.74361 7.32738 6.17221
#
# Compressibility (1/GPa) = 0.06378628
#
# Stress axis : x y z
#
# Youngs Moduli (GPa) = 11.45990 54.94371 63.42265
#
# Poissons Ratio (x) = 1.01847 0.15096
# Poissons Ratio (y) = 0.21243 0.49497
# Poissons Ratio (z) = 0.02728 0.42880
#
# Static dielectric constant tensor:
#      x y z
#    x 1.937180 0.000000 0.000000 
#    y 0.000000 2.558320 0.000000 
#    z 0.000000 0.000000 2.632870 
# 
# 
# High freq. dielectric constant tensor:
#      x y z
#    x 1.364960 0.000000 0.000000 
#    y 0.000000 1.440050 0.000000 
#    z 0.000000 0.000000 1.437930 
# 
# From -- ./inp_files/39608.got.cif
#   From: 2010.06.25/outbox.cif.g09.slc.cpg/sg71_20_cif.got.tgz:39608.got - 2010.06.28 04:59:45.
