data_PCOD8292217
_publ_section_title
;
Structure prediction by ZEFSAII (Michael W. Deem and Ramdas Pophale) SiO2 
 PCOD8292217
Probable space group: I M M M
;
_chemical_formula_sum "Si O2"
_cell_formula_units_Z 72
_cell_length_a 11.663860
_cell_length_b 17.207164
_cell_length_c 17.836142
_cell_angle_alpha 90.000000
_cell_angle_beta 90.000000
_cell_angle_gamma 90.000000
_cell_volume 3579.748514
_symmetry_space_group_name_H-M "I M M M"
_symmetry_group_IT_number 71
_symmetry_cell_setting 'orthorhombic'
loop_
_space_group_symop_operation_xyz
x,y,z
-x,-y,z
x,-y,-z
-x,y,-z
-x,-y,-z
x,y,-z
-x,y,z
x,-y,z
1/2+x,1/2+y,1/2+z
1/2-x,1/2-y,1/2+z
1/2+x,1/2-y,1/2-z
1/2-x,1/2+y,1/2-z
1/2-x,1/2-y,1/2-z
1/2+x,1/2+y,1/2-z
1/2-x,1/2+y,1/2+z
1/2+x,1/2-y,1/2+z
loop_
_atom_site_type_symbol
_atom_site_label
_atom_site_fract_x
_atom_site_fract_y
_atom_site_fract_z
Si Si1 0.785989 0.139954 0.319737
Si Si2 0.633923 0.500000 0.087393
Si Si3 0.500000 0.347404 0.581377
Si Si4 0.865273 0.590407 0.690524
Si Si5 0.251764 0.708611 0.586116
Si Si6 0.000000 0.911572 0.766025
O O1 0.800097 0.074680 0.382364
O O2 0.671758 0.127865 0.270302
O O3 0.790309 0.221536 0.361637
O O4 0.890182 0.135735 0.261292
O O5 0.500000 0.500000 0.110519
O O6 0.649222 0.500000 0.000000
O O7 0.500000 0.389095 0.500000
O O8 0.610770 0.292577 0.589100
O O9 0.500000 0.413954 0.644038
O O10 0.829390 0.500000 0.689906
O O11 0.802613 0.630022 0.619779
O O12 0.000000 0.602080 0.681699
O O13 0.209380 0.718771 0.500000
O O14 0.000000 0.000000 0.736029
#
# Coordination Sequence:
#
# PCOD8292217 Si02
#       6
#    16   8   8  16  16   8
#     4  12  22  41  65  94 131 167 213 266 317 377
#     4  11  22  38  63  97 135 170 210 265 324 378
#     4  10  24  43  64  95 128 165 213 270 322 378
#     4  11  25  43  67  96 126 168 218 262 316 382
#     4  11  26  43  65  94 129 170 214 263 324 383
#     4  12  22  39  68 100 122 164 220 265 323 378
#
# _framework density 20.113143999999998
#
# number of rings (size 3 to 8) (size 9 to 14) (size 15 to 20)
#    0.000    0.778    5.556    1.333    3.111    1.111 
#    0.000    3.333    0.000    0.667    0.000    0.000 
#    0.000    0.000    0.000    0.000    0.000    0.000 
#
# Total GULP energy -446468.374942 kJ/mol
# GULP energy per Si atom -12401.899304 kJ/mol
# Density = 2.006737 g / cm^3
# Si number density = 20.113144 Si / 1000 Ang^3
#
#
#
# Elastic Constant Matrix: (Units=GPa)
#
#
# Indices 1 2 3 4 5 6 
#
# 1 94.9891 33.0255 45.1911 0.0000 0.0000 0.0000
# 2 33.0255 107.1210 64.4405 0.0000 0.0000 0.0000
# 3 45.1911 64.4405 172.0942 0.0000 0.0000 0.0000
# 4 0.0000 0.0000 0.0000 -12.3245 0.0000 0.0000
# 5 0.0000 0.0000 0.0000 0.0000 29.2390 0.0000
# 6 0.0000 0.0000 0.0000 0.0000 0.0000 14.9945
#
#
#
# Elastic Compliance Matrix: (Units=1/GPa)
#
#
# Indices 1 2 3 4 5 6 
#
# 1 0.012500 -0.002426 -0.002374 0.000000 0.000000 0.000000
# 2 -0.002426 0.012520 -0.004051 0.000000 0.000000 0.000000
# 3 -0.002374 -0.004051 0.007951 0.000000 0.000000 0.000000
# 4 0.000000 0.000000 0.000000 -0.081139 0.000000 0.000000
# 5 0.000000 0.000000 0.000000 0.000000 0.034201 0.000000
# 6 0.000000 0.000000 0.000000 0.000000 0.000000 0.066691
#
#
# Mechanical properties :
#
#
# Convention : Reuss Voigt Hill
#
# Bulk Modulus (GPa) = 65.48965 73.27983 69.38474
# Shear Modulus (GPa) = 66.21045 21.81827 44.01436
#
# Velocity S-wave (km/s) = 5.74373 3.29717 4.68304
# Velocity P-wave (km/s) = 8.75320 7.14199 7.98832
#
# Compressibility (1/GPa) = 0.01526959
#
# Stress axis : x y z
#
# Youngs Moduli (GPa) = 79.99737 79.87142 125.76708
#
# Poissons Ratio (x) = 0.19374 0.29861
# Poissons Ratio (y) = 0.19404 0.50951
# Poissons Ratio (z) = 0.18994 0.32357
#
# Static dielectric constant tensor:
#      x y z
#    x 3.702410 0.000000 0.000000 
#    y 0.000000 3.538030 0.000000 
#    z 0.000000 0.000000 3.867890 
# 
# 
# High freq. dielectric constant tensor:
#      x y z
#    x 1.786450 0.000000 0.000000 
#    y 0.000000 1.778420 0.000000 
#    z 0.000000 0.000000 1.807150 
# 
# From -- ./inp_files/51687.got.cif
#   From: 2010.06.25/outbox.cif.g09.slc.cpg/sg71_26_cif.got.tgz:51687.got - 2010.06.28 04:59:45.
