data_PCOD8292688
_publ_section_title
;
Structure prediction by ZEFSAII (Michael W. Deem and Ramdas Pophale) SiO2 
 PCOD8292688
Probable space group: I M M M
;
_chemical_formula_sum "Si O2"
_cell_formula_units_Z 104
_cell_length_a 15.208658
_cell_length_b 12.652544
_cell_length_c 34.072413
_cell_angle_alpha 90.000000
_cell_angle_beta 90.000000
_cell_angle_gamma 90.000000
_cell_volume 6556.493598
_symmetry_space_group_name_H-M "I M M M"
_symmetry_group_IT_number 71
_symmetry_cell_setting 'orthorhombic'
loop_
_space_group_symop_operation_xyz
x,y,z
-x,-y,z
x,-y,-z
-x,y,-z
-x,-y,-z
x,y,-z
-x,y,z
x,-y,z
1/2+x,1/2+y,1/2+z
1/2-x,1/2-y,1/2+z
1/2+x,1/2-y,1/2-z
1/2-x,1/2+y,1/2-z
1/2-x,1/2-y,1/2-z
1/2+x,1/2+y,1/2-z
1/2-x,1/2+y,1/2+z
1/2+x,1/2-y,1/2+z
loop_
_atom_site_type_symbol
_atom_site_label
_atom_site_fract_x
_atom_site_fract_y
_atom_site_fract_z
Si Si1 0.102674 0.200885 0.094669
Si Si2 0.596054 0.622177 0.236885
Si Si3 0.241747 0.621518 0.094092
Si Si4 0.104365 0.000000 0.044830
Si Si5 0.403642 0.625543 0.955864
Si Si6 0.749129 0.120092 0.684429
Si Si7 0.900577 0.220500 0.183054
O O1 0.156421 0.307423 0.084570
O O2 0.119497 0.169852 0.140326
O O3 0.000000 0.224386 0.086588
O O4 0.137481 0.104647 0.067687
O O5 0.500000 0.673228 0.227352
O O6 0.592131 0.500000 0.226513
O O7 0.671406 0.673448 0.209440
O O8 0.616937 0.634227 0.283192
O O9 0.219028 0.500000 0.082516
O O10 0.324382 0.669574 0.070423
O O11 0.272682 0.628217 0.138855
O O12 0.000000 0.000000 0.045094
O O13 0.140255 0.000000 0.000000
O O14 0.500000 0.664841 0.940843
O O15 0.401868 0.500000 0.954452
O O16 0.388503 0.666212 0.000000
O O17 0.658920 0.179331 0.693121
O O18 0.734031 0.000000 0.697912
O O19 0.000000 0.262879 0.183681
#
# Coordination Sequence:
#
# PCOD8292688 Si02
#       7
#    16  16  16   8  16  16  16
#     4   9  18  30  45  65  87 114 148 182 218 261
#     4   9  17  27  41  61  83 109 142 180 219 254
#     4   9  17  28  43  65  92 119 144 173 214 264
#     4   9  18  32  48  64  85 113 145 185 226 260
#     4   8  14  25  41  61  84 110 140 172 205 243
#     4   9  17  28  40  58  86 114 140 170 209 258
#     4   9  17  28  43  61  81 109 143 180 214 248
#
# _framework density 15.862137000000001
#
# number of rings (size 3 to 8) (size 9 to 14) (size 15 to 20)
#    0.000    3.154    0.000    0.923    1.077    1.846 
#    0.000    6.154    0.000    0.000    0.000    4.846 
#    0.000    1.846    0.000    0.000    0.000    0.000 
#
# Total GULP energy -644407.642668 kJ/mol
# GULP energy per Si atom -12392.454667 kJ/mol
# Density = 1.582603 g / cm^3
# Si number density = 15.862137 Si / 1000 Ang^3
#
#
#
# Elastic Constant Matrix: (Units=GPa)
#
#
# Indices 1 2 3 4 5 6 
#
# 1 95.6182 38.5222 54.8343 0.0000 0.0000 0.0000
# 2 38.5222 55.7762 37.3005 0.0000 0.0000 0.0000
# 3 54.8343 37.3005 79.9243 0.0000 0.0000 0.0000
# 4 0.0000 0.0000 0.0000 19.2850 0.0000 0.0000
# 5 0.0000 0.0000 0.0000 0.0000 26.3397 0.0000
# 6 0.0000 0.0000 0.0000 0.0000 0.0000 14.4274
#
#
#
# Elastic Compliance Matrix: (Units=1/GPa)
#
#
# Indices 1 2 3 4 5 6 
#
# 1 0.018643 -0.006283 -0.009858 0.000000 0.000000 0.000000
# 2 -0.006283 0.028181 -0.008841 0.000000 0.000000 0.000000
# 3 -0.009858 -0.008841 0.023402 0.000000 0.000000 0.000000
# 4 0.000000 0.000000 0.000000 0.051854 0.000000 0.000000
# 5 0.000000 0.000000 0.000000 0.000000 0.037965 0.000000
# 6 0.000000 0.000000 0.000000 0.000000 0.000000 0.069313
#
#
# Mechanical properties :
#
#
# Convention : Reuss Voigt Hill
#
# Bulk Modulus (GPa) = 49.35787 54.73699 52.04743
# Shear Modulus (GPa) = 17.47788 18.72119 18.09953
#
# Velocity S-wave (km/s) = 3.32303 3.43920 3.38161
# Velocity P-wave (km/s) = 6.77552 7.09603 6.93763
#
# Compressibility (1/GPa) = 0.02026019
#
# Stress axis : x y z
#
# Youngs Moduli (GPa) = 53.63941 35.48505 42.73228
#
# Poissons Ratio (x) = 0.22296 0.42126
# Poissons Ratio (y) = 0.33703 0.37780
# Poissons Ratio (z) = 0.52879 0.31373
#
# Static dielectric constant tensor:
#      x y z
#    x 3.237180 0.000000 0.000000 
#    y 0.000000 2.754130 0.000000 
#    z 0.000000 0.000000 3.180030 
# 
# 
# High freq. dielectric constant tensor:
#      x y z
#    x 1.607610 0.000000 0.000000 
#    y 0.000000 1.570320 0.000000 
#    z 0.000000 0.000000 1.613500 
# 
# From -- ./inp_files/70522.got.cif
#   From: 2010.06.25/outbox.cif.g09.slc.cpg/sg71_36_cif.got.tgz:70522.got - 2010.06.28 04:59:45.
