data_PCOD8292912
_publ_section_title
;
Structure prediction by ZEFSAII (Michael W. Deem and Ramdas Pophale) SiO2 
 PCOD8292912
Probable space group: I B A M
;
_chemical_formula_sum "Si O2"
_cell_formula_units_Z 88
_cell_length_a 5.050681
_cell_length_b 38.440344
_cell_length_c 25.023457
_cell_angle_alpha 90.000000
_cell_angle_beta 90.000000
_cell_angle_gamma 90.000000
_cell_volume 4858.302051
_symmetry_space_group_name_H-M "I B A M"
_symmetry_group_IT_number 72
_symmetry_cell_setting 'orthorhombic'
loop_
_space_group_symop_operation_xyz
x,y,z
-x,-y,z
x,-y,1/2-z
-x,y,1/2-z
-x,-y,-z
x,y,-z
-x,y,1/2+z
x,-y,1/2+z
1/2+x,1/2+y,1/2+z
1/2-x,1/2-y,1/2+z
1/2+x,1/2-y,-z
1/2-x,1/2+y,-z
1/2-x,1/2-y,1/2-z
1/2+x,1/2+y,1/2-z
1/2-x,1/2+y,z
1/2+x,1/2-y,z
loop_
_atom_site_type_symbol
_atom_site_label
_atom_site_fract_x
_atom_site_fract_y
_atom_site_fract_z
Si Si1 0.089626 0.581494 0.918240
Si Si2 0.104849 0.152280 0.331414
Si Si3 0.014552 0.768012 0.811390
Si Si4 0.911614 0.123578 0.942020
Si Si5 0.741760 0.024453 0.500000
Si Si6 0.596717 0.890747 0.805507
O O1 0.285840 0.611583 0.937290
O O2 0.081758 0.580475 0.853104
O O3 0.792146 0.590818 0.937322
O O4 0.208933 0.546822 0.945412
O O5 0.032988 0.190743 0.314666
O O6 0.127670 0.151591 0.395718
O O7 0.394434 0.141521 0.311464
O O8 0.891271 0.125586 0.305733
O O9 0.255349 0.747699 0.839970
O O10 0.000000 0.756625 0.750000
O O11 0.872357 0.141220 0.000000
O O12 0.500000 0.000000 0.500000
O O13 0.000000 0.000000 0.500000
O O14 0.500000 0.909130 0.750000
#
# Coordination Sequence:
#
# PCOD8292912 Si02
#       6
#    16  16  16  16   8  16
#     4  10  20  33  51  77 104 131 165 203 251 298
#     4  10  20  30  49  75  97 129 169 207 255 309
#     4  10  19  30  44  62  92 130 163 204 250 300
#     4  10  17  32  53  72 101 128 159 212 256 297
#     4  12  22  34  54  78 110 138 166 206 240 290
#     4  10  19  32  52  76 102 129 161 213 261 300
#
# _framework density 18.113323000000001
#
# number of rings (size 3 to 8) (size 9 to 14) (size 15 to 20)
#    0.000    1.818    1.818    3.818    0.000    1.455 
#    0.000    0.000    0.000    1.636    0.000    1.273 
#    0.000    0.000    0.000    0.000    0.000    0.000 
#
# Total GULP energy -545081.814306 kJ/mol
# GULP energy per Si atom -12388.223052 kJ/mol
# Density = 1.807210 g / cm^3
# Si number density = 18.113323 Si / 1000 Ang^3
#
#
#
# Elastic Constant Matrix: (Units=GPa)
#
#
# Indices 1 2 3 4 5 6 
#
# 1 105.0871 21.7986 27.0280 0.0000 0.0000 0.0000
# 2 21.7986 59.1825 23.1978 0.0000 0.0000 0.0000
# 3 27.0280 23.1978 118.7836 0.0000 0.0000 0.0000
# 4 0.0000 0.0000 0.0000 24.1258 0.0000 0.0000
# 5 0.0000 0.0000 0.0000 0.0000 19.1388 0.0000
# 6 0.0000 0.0000 0.0000 0.0000 0.0000 29.1720
#
#
#
# Elastic Compliance Matrix: (Units=1/GPa)
#
#
# Indices 1 2 3 4 5 6 
#
# 1 0.010645 -0.003218 -0.001794 0.000000 0.000000 0.000000
# 2 -0.003218 0.019270 -0.003031 0.000000 0.000000 0.000000
# 3 -0.001794 -0.003031 0.009419 0.000000 0.000000 0.000000
# 4 0.000000 0.000000 0.000000 0.041449 0.000000 0.000000
# 5 0.000000 0.000000 0.000000 0.000000 0.052250 0.000000
# 6 0.000000 0.000000 0.000000 0.000000 0.000000 0.034279
#
#
# Mechanical properties :
#
#
# Convention : Reuss Voigt Hill
#
# Bulk Modulus (GPa) = 43.01349 47.45578 45.23463
# Shear Modulus (GPa) = 26.15784 28.55589 27.35687
#
# Velocity S-wave (km/s) = 3.80428 3.97484 3.89050
# Velocity P-wave (km/s) = 6.56469 6.87910 6.72374
#
# Compressibility (1/GPa) = 0.02324852
#
# Stress axis : x y z
#
# Youngs Moduli (GPa) = 93.94349 51.89359 106.17076
#
# Poissons Ratio (x) = 0.16698 0.19044
# Poissons Ratio (y) = 0.30228 0.32183
# Poissons Ratio (z) = 0.16851 0.15730
#
# Static dielectric constant tensor:
#      x y z
#    x 3.788310 0.000000 0.000000 
#    y 0.000000 2.862730 0.000000 
#    z 0.000000 0.000000 3.601870 
# 
# 
# High freq. dielectric constant tensor:
#      x y z
#    x 1.734560 0.000000 0.000000 
#    y 0.000000 1.646290 0.000000 
#    z 0.000000 0.000000 1.699650 
# 
# From -- ./inp_files/46776.got.cif
#   From: 2010.03.12/outbox.cif.g09.slc.cpg/sg72_24_cif.got.tgz:46776.got - 2010.04.16 14:54:00.
