data_PCOD8292259
_publ_section_title
;
Structure prediction by ZEFSAII (Michael W. Deem and Ramdas Pophale) SiO2 
 PCOD8292259
Probable space group: I M M M
;
_chemical_formula_sum "Si O2"
_cell_formula_units_Z 88
_cell_length_a 19.826089
_cell_length_b 12.907318
_cell_length_c 18.689139
_cell_angle_alpha 90.000000
_cell_angle_beta 90.000000
_cell_angle_gamma 90.000000
_cell_volume 4782.581235
_symmetry_space_group_name_H-M "I M M M"
_symmetry_group_IT_number 71
_symmetry_cell_setting 'orthorhombic'
loop_
_space_group_symop_operation_xyz
x,y,z
-x,-y,z
x,-y,-z
-x,y,-z
-x,-y,-z
x,y,-z
-x,y,z
x,-y,z
1/2+x,1/2+y,1/2+z
1/2-x,1/2-y,1/2+z
1/2+x,1/2-y,1/2-z
1/2-x,1/2+y,1/2-z
1/2-x,1/2-y,1/2-z
1/2+x,1/2+y,1/2-z
1/2-x,1/2+y,1/2+z
1/2+x,1/2-y,1/2+z
loop_
_atom_site_type_symbol
_atom_site_label
_atom_site_fract_x
_atom_site_fract_y
_atom_site_fract_z
Si Si1 0.192504 0.115976 0.416549
Si Si2 0.844361 0.322781 0.081043
Si Si3 0.923403 0.619397 0.214289
Si Si4 0.578569 0.000000 0.077947
Si Si5 0.282533 0.384785 0.581114
Si Si6 0.650211 0.817592 0.153403
O O1 0.179587 0.133563 0.500000
O O2 0.271227 0.131438 0.398873
O O3 0.146643 0.199377 0.374689
O O4 0.171194 0.000000 0.392958
O O5 0.901100 0.369751 0.131998
O O6 0.842407 0.197865 0.091274
O O7 0.863882 0.353241 0.000000
O O8 0.920238 0.500000 0.237830
O O9 0.870448 0.684089 0.262912
O O10 0.000000 0.660964 0.222494
O O11 0.596971 0.893407 0.116657
O O12 0.500000 0.000000 0.069932
O O13 0.613869 0.000000 0.000000
O O14 0.252966 0.371644 0.500000
O O15 0.311883 0.500000 0.592765
O O16 0.224188 0.364442 0.639129
#
# Coordination Sequence:
#
# PCOD8292259 Si02
#       6
#    16  16  16   8  16  16
#     4   9  18  33  55  83 112 141 172 214 266 317
#     4   9  19  35  55  78 103 136 177 220 269 325
#     4  11  23  37  52  72 103 140 177 224 273 310
#     4  11  20  30  50  76 103 139 178 212 249 300
#     4   9  16  29  53  83 111 134 162 211 270 320
#     4  11  19  32  51  77 110 141 171 215 259 317
#
# _framework density 18.400105
#
# number of rings (size 3 to 8) (size 9 to 14) (size 15 to 20)
#    0.000    2.091    1.818    3.818    0.000    4.364 
#    0.000    3.636    0.000    3.818    0.000    8.909 
#    0.000    0.000    0.000    0.000    0.000    0.000 
#
# Total GULP energy -545447.930692 kJ/mol
# GULP energy per Si atom -12396.543879 kJ/mol
# Density = 1.835823 g / cm^3
# Si number density = 18.400105 Si / 1000 Ang^3
#
#
#
# Elastic Constant Matrix: (Units=GPa)
#
#
# Indices 1 2 3 4 5 6 
#
# 1 48.8343 21.7087 34.6577 0.0000 0.0000 0.0000
# 2 21.7087 135.8169 30.4907 0.0000 0.0000 0.0000
# 3 34.6577 30.4907 91.2201 0.0000 0.0000 0.0000
# 4 0.0000 0.0000 0.0000 26.8594 0.0000 0.0000
# 5 0.0000 0.0000 0.0000 0.0000 16.8313 0.0000
# 6 0.0000 0.0000 0.0000 0.0000 0.0000 19.3680
#
#
#
# Elastic Compliance Matrix: (Units=1/GPa)
#
#
# Indices 1 2 3 4 5 6 
#
# 1 0.028694 -0.002312 -0.010129 0.000000 0.000000 0.000000
# 2 -0.002312 0.008147 -0.001844 0.000000 0.000000 0.000000
# 3 -0.010129 -0.001844 0.015427 0.000000 0.000000 0.000000
# 4 0.000000 0.000000 0.000000 0.037231 0.000000 0.000000
# 5 0.000000 0.000000 0.000000 0.000000 0.059413 0.000000
# 6 0.000000 0.000000 0.000000 0.000000 0.000000 0.051632
#
#
# Mechanical properties :
#
#
# Convention : Reuss Voigt Hill
#
# Bulk Modulus (GPa) = 42.20081 49.95395 46.07738
# Shear Modulus (GPa) = 21.09583 25.21267 23.15425
#
# Velocity S-wave (km/s) = 3.38968 3.70570 3.55121
# Velocity P-wave (km/s) = 6.18909 6.74665 6.47387
#
# Compressibility (1/GPa) = 0.02369623
#
# Stress axis : x y z
#
# Youngs Moduli (GPa) = 34.85069 122.75141 64.82013
#
# Poissons Ratio (x) = 0.28386 0.65655
# Poissons Ratio (y) = 0.08059 0.11956
# Poissons Ratio (z) = 0.35300 0.22641
#
# Static dielectric constant tensor:
#      x y z
#    x 2.981290 0.000000 0.000000 
#    y 0.000000 3.688430 0.000000 
#    z 0.000000 0.000000 3.425530 
# 
# 
# High freq. dielectric constant tensor:
#      x y z
#    x 1.668710 0.000000 0.000000 
#    y 0.000000 1.719750 0.000000 
#    z 0.000000 0.000000 1.712210 
# 
# From -- ./inp_files/47122.got.cif
#   From: 2010.06.25/outbox.cif.g09.slc.cpg/sg71_24_cif.got.tgz:47122.got - 2010.06.28 04:59:45.
