data_PCOD8292598
_publ_section_title
;
Structure prediction by ZEFSAII (Michael W. Deem and Ramdas Pophale) SiO2 
 PCOD8292598
Probable space group: I M M M
;
_chemical_formula_sum "Si O2"
_cell_formula_units_Z 88
_cell_length_a 8.846282
_cell_length_b 19.608435
_cell_length_c 29.912887
_cell_angle_alpha 90.000000
_cell_angle_beta 90.000000
_cell_angle_gamma 90.000000
_cell_volume 5188.741595
_symmetry_space_group_name_H-M "I M M M"
_symmetry_group_IT_number 71
_symmetry_cell_setting 'orthorhombic'
loop_
_space_group_symop_operation_xyz
x,y,z
-x,-y,z
x,-y,-z
-x,y,-z
-x,-y,-z
x,y,-z
-x,y,z
x,-y,z
1/2+x,1/2+y,1/2+z
1/2-x,1/2-y,1/2+z
1/2+x,1/2-y,1/2-z
1/2-x,1/2+y,1/2-z
1/2-x,1/2-y,1/2-z
1/2+x,1/2+y,1/2-z
1/2-x,1/2+y,1/2+z
1/2+x,1/2-y,1/2+z
loop_
_atom_site_type_symbol
_atom_site_label
_atom_site_fract_x
_atom_site_fract_y
_atom_site_fract_z
Si Si1 0.822869 0.850705 0.551364
Si Si2 0.169547 0.924063 0.332928
Si Si3 0.175369 0.296147 0.867731
Si Si4 0.677088 0.500000 0.049085
Si Si5 0.329683 0.424679 0.272969
Si Si6 0.322717 0.788580 0.208061
O O1 0.769422 0.844954 0.500000
O O2 0.734461 0.794844 0.580972
O O3 0.781285 0.926884 0.571942
O O4 0.000000 0.836260 0.554930
O O5 0.295455 0.871637 0.348969
O O6 0.177616 0.925925 0.280013
O O7 0.000000 0.901021 0.348032
O O8 0.201942 0.000000 0.352547
O O9 0.264895 0.241261 0.838614
O O10 0.000000 0.278289 0.865918
O O11 0.500000 0.500000 0.041370
O O12 0.753887 0.500000 0.000000
O O13 0.500000 0.406671 0.288486
O O14 0.283494 0.500000 0.291035
O O15 0.215571 0.368645 0.292223
O O16 0.500000 0.777423 0.211715
O O17 0.250000 0.750000 0.250000
#
# Coordination Sequence:
#
# PCOD8292598 Si02
#       6
#    16  16  16   8  16  16
#     4   9  18  34  53  71  93 126 169 212 255 304
#     4   9  18  32  49  68  94 131 172 211 251 299
#     4  12  24  34  48  72 101 134 169 210 259 304
#     4   7  12  26  49  71  89 119 163 207 253 301
#     4   9  18  34  55  76 100 132 167 205 252 302
#     4  12  23  36  53  74 102 134 172 212 252 298
#
# _framework density 16.959796000000001
#
# number of rings (size 3 to 8) (size 9 to 14) (size 15 to 20)
#    0.000    2.091    1.818    5.455    1.273    1.091 
#    0.000    1.818    0.000    1.636    0.000    0.000 
#    0.000    0.727    0.000    7.636    0.000    3.273 
#
# Total GULP energy -545335.817841 kJ/mol
# GULP energy per Si atom -12393.995860 kJ/mol
# Density = 1.692119 g / cm^3
# Si number density = 16.959796 Si / 1000 Ang^3
#
#
#
# Elastic Constant Matrix: (Units=GPa)
#
#
# Indices 1 2 3 4 5 6 
#
# 1 102.0748 40.2432 36.2419 0.0000 0.0000 0.0000
# 2 40.2432 84.6810 36.6922 0.0000 0.0000 0.0000
# 3 36.2419 36.6922 67.0196 0.0000 0.0000 0.0000
# 4 0.0000 0.0000 0.0000 27.8866 0.0000 0.0000
# 5 0.0000 0.0000 0.0000 0.0000 22.9797 0.0000
# 6 0.0000 0.0000 0.0000 0.0000 0.0000 25.8566
#
#
#
# Elastic Compliance Matrix: (Units=1/GPa)
#
#
# Indices 1 2 3 4 5 6 
#
# 1 0.013152 -0.004154 -0.004838 0.000000 0.000000 0.000000
# 2 -0.004154 0.016794 -0.006948 0.000000 0.000000 0.000000
# 3 -0.004838 -0.006948 0.021341 0.000000 0.000000 0.000000
# 4 0.000000 0.000000 0.000000 0.035859 0.000000 0.000000
# 5 0.000000 0.000000 0.000000 0.000000 0.043517 0.000000
# 6 0.000000 0.000000 0.000000 0.000000 0.000000 0.038675
#
#
# Mechanical properties :
#
#
# Convention : Reuss Voigt Hill
#
# Bulk Modulus (GPa) = 51.52757 53.34779 52.43768
# Shear Modulus (GPa) = 24.07468 24.71778 24.39623
#
# Velocity S-wave (km/s) = 3.77173 3.82178 3.79684
# Velocity P-wave (km/s) = 7.02966 7.14131 7.08571
#
# Compressibility (1/GPa) = 0.01940709
#
# Stress axis : x y z
#
# Youngs Moduli (GPa) = 76.03273 59.54613 46.85795
#
# Poissons Ratio (x) = 0.24736 0.22670
# Poissons Ratio (y) = 0.31585 0.32556
# Poissons Ratio (z) = 0.36785 0.41372
#
# Static dielectric constant tensor:
#      x y z
#    x 3.032550 0.000000 0.000000 
#    y 0.000000 3.359680 0.000000 
#    z 0.000000 0.000000 3.178970 
# 
# 
# High freq. dielectric constant tensor:
#      x y z
#    x 1.639110 0.000000 0.000000 
#    y 0.000000 1.631810 0.000000 
#    z 0.000000 0.000000 1.642260 
# 
# From -- ./inp_files/68163.got.cif
#   From: 2010.06.25/outbox.cif.g09.slc.cpg/sg71_35_cif.got.tgz:68163.got - 2010.06.28 04:59:45.
