data_PCOD8292593
_publ_section_title
;
Structure prediction by ZEFSAII (Michael W. Deem and Ramdas Pophale) SiO2 
 PCOD8292593
Probable space group: I M M M
;
_chemical_formula_sum "Si O2"
_cell_formula_units_Z 48
_cell_length_a 18.767536
_cell_length_b 16.326020
_cell_length_c 9.285937
_cell_angle_alpha 90.000000
_cell_angle_beta 90.000000
_cell_angle_gamma 90.000000
_cell_volume 2845.203372
_symmetry_space_group_name_H-M "I M M M"
_symmetry_group_IT_number 71
_symmetry_cell_setting 'orthorhombic'
loop_
_space_group_symop_operation_xyz
x,y,z
-x,-y,z
x,-y,-z
-x,y,-z
-x,-y,-z
x,y,-z
-x,y,z
x,-y,z
1/2+x,1/2+y,1/2+z
1/2-x,1/2-y,1/2+z
1/2+x,1/2-y,1/2-z
1/2-x,1/2+y,1/2-z
1/2-x,1/2-y,1/2-z
1/2+x,1/2+y,1/2-z
1/2-x,1/2+y,1/2+z
1/2+x,1/2-y,1/2+z
loop_
_atom_site_type_symbol
_atom_site_label
_atom_site_fract_x
_atom_site_fract_y
_atom_site_fract_z
Si Si1 0.000000 0.303008 0.170949
Si Si2 0.607002 0.909149 0.161678
Si Si3 0.500000 0.366803 0.830660
Si Si4 0.742047 0.000000 0.836451
Si Si5 0.113376 0.000000 0.667664
O O1 0.928821 0.348937 0.224039
O O2 0.000000 0.212425 0.232608
O O3 0.000000 0.300355 0.000000
O O4 0.692304 0.919149 0.191295
O O5 0.572198 0.000000 0.173579
O O6 0.594124 0.874585 0.000000
O O7 0.569797 0.419012 0.788492
O O8 0.500000 0.344746 0.000000
O O9 0.809494 0.000000 0.736223
O O10 0.769230 0.000000 0.000000
O O11 0.126018 0.000000 0.500000
#
# Coordination Sequence:
#
# PCOD8292593 Si02
#       5
#     8  16   8   8   8
#     4  12  22  30  47  80 108 129 168 215 248 281
#     4   8  17  33  52  73 101 141 170 191 244 310
#     4   9  20  37  55  73  98 134 167 202 253 310
#     4   8  17  32  54  78 100 132 167 200 248 304
#     4   9  18  36  59  77  93 124 172 213 250 296
#
# _framework density 16.8705
#
# number of rings (size 3 to 8) (size 9 to 14) (size 15 to 20)
#    1.000    2.000    0.000    3.000    0.000    5.333 
#    0.000    3.333    0.000    0.000    0.000    0.000 
#    0.000    0.000    0.000    0.000    0.000    0.000 
#
# Total GULP energy -297314.057916 kJ/mol
# GULP energy per Si atom -12388.085747 kJ/mol
# Density = 1.683210 g / cm^3
# Si number density = 16.870500 Si / 1000 Ang^3
#
#
#
# Elastic Constant Matrix: (Units=GPa)
#
#
# Indices 1 2 3 4 5 6 
#
# 1 122.6813 56.8593 55.3845 0.0000 0.0000 0.0000
# 2 56.8593 104.8291 72.1800 0.0000 0.0000 0.0000
# 3 55.3845 72.1800 101.9322 0.0000 0.0000 0.0000
# 4 0.0000 0.0000 0.0000 23.6185 0.0000 0.0000
# 5 0.0000 0.0000 0.0000 0.0000 34.4456 0.0000
# 6 0.0000 0.0000 0.0000 0.0000 0.0000 -156.1214
#
#
#
# Elastic Compliance Matrix: (Units=1/GPa)
#
#
# Indices 1 2 3 4 5 6 
#
# 1 0.011521 -0.003784 -0.003581 0.000000 0.000000 0.000000
# 2 -0.003784 0.019859 -0.012006 0.000000 0.000000 0.000000
# 3 -0.003581 -0.012006 0.020258 0.000000 0.000000 0.000000
# 4 0.000000 0.000000 0.000000 0.042340 0.000000 0.000000
# 5 0.000000 0.000000 0.000000 0.000000 0.029031 0.000000
# 6 0.000000 0.000000 0.000000 0.000000 0.000000 -0.006405
#
#
# Mechanical properties :
#
#
# Convention : Reuss Voigt Hill
#
# Bulk Modulus (GPa) = 77.54190 77.58781 77.56486
# Shear Modulus (GPa) = 31.31966 -9.94356 10.68805
#
# Velocity S-wave (km/s) = 4.31336 -2.43040 2.51974
# Velocity P-wave (km/s) = 8.41840 6.18177 7.38525
#
# Compressibility (1/GPa) = 0.01289625
#
# Stress axis : x y z
#
# Youngs Moduli (GPa) = 86.79519 50.35616 49.36313
#
# Poissons Ratio (x) = 0.19053 0.17676
# Poissons Ratio (y) = 0.32840 0.59267
# Poissons Ratio (z) = 0.31080 0.60460
#
# Static dielectric constant tensor:
#      x y z
#    x 3.101330 0.000000 0.000000 
#    y 0.000000 2.955190 0.000000 
#    z 0.000000 0.000000 2.969090 
# 
# 
# High freq. dielectric constant tensor:
#      x y z
#    x 1.649020 0.000000 0.000000 
#    y 0.000000 1.629500 0.000000 
#    z 0.000000 0.000000 1.643430 
# 
# From -- ./inp_files/9436.got.cif
#   From: 2010.06.25/outbox.cif.g09.slc.cpg/sg71_5_cif.got.tgz:9436.got - 2010.06.28 04:59:45.
