data_PCOD8292104
_publ_section_title
;
Structure prediction by ZEFSAII (Michael W. Deem and Ramdas Pophale) SiO2 
 PCOD8292104
Probable space group: I M M M
;
_chemical_formula_sum "Si O2"
_cell_formula_units_Z 72
_cell_length_a 29.931229
_cell_length_b 8.069461
_cell_length_c 14.886101
_cell_angle_alpha 90.000000
_cell_angle_beta 90.000000
_cell_angle_gamma 90.000000
_cell_volume 3595.423378
_symmetry_space_group_name_H-M "I M M M"
_symmetry_group_IT_number 71
_symmetry_cell_setting 'orthorhombic'
loop_
_space_group_symop_operation_xyz
x,y,z
-x,-y,z
x,-y,-z
-x,y,-z
-x,-y,-z
x,y,-z
-x,y,z
x,-y,z
1/2+x,1/2+y,1/2+z
1/2-x,1/2-y,1/2+z
1/2+x,1/2-y,1/2-z
1/2-x,1/2+y,1/2-z
1/2-x,1/2-y,1/2-z
1/2+x,1/2+y,1/2-z
1/2-x,1/2+y,1/2+z
1/2+x,1/2-y,1/2+z
loop_
_atom_site_type_symbol
_atom_site_label
_atom_site_fract_x
_atom_site_fract_y
_atom_site_fract_z
Si Si1 0.051303 0.687591 0.215404
Si Si2 0.634312 0.186484 0.172867
Si Si3 0.947338 0.000000 0.901379
Si Si4 0.792935 0.803535 0.805918
Si Si5 0.324234 0.316703 0.000000
Si Si6 0.729010 0.311555 0.500000
O O1 0.056872 0.500000 0.174667
O O2 0.081958 0.705600 0.303680
O O3 0.067769 0.829701 0.146668
O O4 0.000000 0.718144 0.244198
O O5 0.662561 0.233905 0.260845
O O6 0.645130 0.299470 0.087886
O O7 0.646070 0.000000 0.145093
O O8 0.000000 0.000000 0.910229
O O9 0.925009 0.000000 0.000000
O O10 0.750000 0.750000 0.750000
O O11 0.789592 0.729467 0.907749
O O12 0.794833 0.000000 0.808498
O O13 0.282901 0.191896 0.000000
O O14 0.303632 0.500000 0.000000
O O15 0.713580 0.500000 0.500000
#
# Coordination Sequence:
#
# PCOD8292104 Si02
#       6
#    16  16   8  16   8   8
#     4   9  20  39  62  88 122 163 205 251 304 360
#     4  11  23  40  61  86 119 158 198 247 303 358
#     4   9  18  34  60  89 117 157 201 248 304 357
#     4  11  22  37  59  85 117 155 196 242 294 352
#     4  12  24  36  61  89 114 150 198 249 298 363
#     4  10  22  40  58  81 118 159 196 242 298 351
#
# _framework density 20.025458
#
# number of rings (size 3 to 8) (size 9 to 14) (size 15 to 20)
#    0.000    1.667    2.222    2.333    3.111    1.333 
#    2.000    2.778    0.000    3.333    0.000    0.000 
#    0.000    0.000    0.000    0.000    0.000    0.000 
#
# Total GULP energy -446285.628438 kJ/mol
# GULP energy per Si atom -12396.823012 kJ/mol
# Density = 1.997988 g / cm^3
# Si number density = 20.025458 Si / 1000 Ang^3
#
#
#
# Elastic Constant Matrix: (Units=GPa)
#
#
# Indices 1 2 3 4 5 6 
#
# 1 85.1652 17.1641 46.3920 0.0000 0.0000 0.0000
# 2 17.1641 85.0607 28.9189 0.0000 0.0000 0.0000
# 3 46.3920 28.9189 151.2627 0.0000 0.0000 0.0000
# 4 0.0000 0.0000 0.0000 27.6222 0.0000 0.0000
# 5 0.0000 0.0000 0.0000 0.0000 22.0068 0.0000
# 6 0.0000 0.0000 0.0000 0.0000 0.0000 25.1986
#
#
#
# Elastic Compliance Matrix: (Units=1/GPa)
#
#
# Indices 1 2 3 4 5 6 
#
# 1 0.014271 -0.001488 -0.004092 0.000000 0.000000 0.000000
# 2 -0.001488 0.012729 -0.001977 0.000000 0.000000 0.000000
# 3 -0.004092 -0.001977 0.008244 0.000000 0.000000 0.000000
# 4 0.000000 0.000000 0.000000 0.036203 0.000000 0.000000
# 5 0.000000 0.000000 0.000000 0.000000 0.045441 0.000000
# 6 0.000000 0.000000 0.000000 0.000000 0.000000 0.039685
#
#
# Mechanical properties :
#
#
# Convention : Reuss Voigt Hill
#
# Bulk Modulus (GPa) = 49.68105 56.27096 52.97601
# Shear Modulus (GPa) = 28.02736 30.23308 29.13022
#
# Velocity S-wave (km/s) = 3.74516 3.88974 3.81814
# Velocity P-wave (km/s) = 6.60034 6.95228 6.77859
#
# Compressibility (1/GPa) = 0.02012840
#
# Stress axis : x y z
#
# Youngs Moduli (GPa) = 70.07171 78.56194 121.29863
#
# Poissons Ratio (x) = 0.11693 0.49640
# Poissons Ratio (y) = 0.10429 0.23981
# Poissons Ratio (z) = 0.28676 0.15532
#
# Static dielectric constant tensor:
#      x y z
#    x 3.527410 0.000000 0.000000 
#    y 0.000000 3.804750 0.000000 
#    z 0.000000 0.000000 3.836370 
# 
# 
# High freq. dielectric constant tensor:
#      x y z
#    x 1.770810 0.000000 0.000000 
#    y 0.000000 1.791950 0.000000 
#    z 0.000000 0.000000 1.774790 
# 
# From -- ./inp_files/6230.got.cif
#   From: 2010.06.25/outbox.cif.g09.slc.cpg/sg71_4_cif.got.tgz:6230.got - 2010.06.28 04:59:45.
