data_PCOD8292996
_publ_section_title
;
Structure prediction by ZEFSAII (Michael W. Deem and Ramdas Pophale) SiO2 
 PCOD8292996
Probable space group: I B A M
;
_chemical_formula_sum "Si O2"
_cell_formula_units_Z 128
_cell_length_a 18.426326
_cell_length_b 22.658152
_cell_length_c 18.885009
_cell_angle_alpha 90.000000
_cell_angle_beta 90.000000
_cell_angle_gamma 90.000000
_cell_volume 7884.613921
_symmetry_space_group_name_H-M "I B A M"
_symmetry_group_IT_number 72
_symmetry_cell_setting 'orthorhombic'
loop_
_space_group_symop_operation_xyz
x,y,z
-x,-y,z
x,-y,1/2-z
-x,y,1/2-z
-x,-y,-z
x,y,-z
-x,y,1/2+z
x,-y,1/2+z
1/2+x,1/2+y,1/2+z
1/2-x,1/2-y,1/2+z
1/2+x,1/2-y,-z
1/2-x,1/2+y,-z
1/2-x,1/2-y,1/2-z
1/2+x,1/2+y,1/2-z
1/2-x,1/2+y,z
1/2+x,1/2-y,z
loop_
_atom_site_type_symbol
_atom_site_label
_atom_site_fract_x
_atom_site_fract_y
_atom_site_fract_z
Si Si1 0.236480 0.170800 0.316853
Si Si2 0.622936 0.277901 0.418081
Si Si3 0.636415 0.060767 0.658909
Si Si4 0.826116 0.215021 0.323590
Si Si5 0.992809 0.377121 0.333982
Si Si6 0.790505 0.337265 0.918970
Si Si7 0.512048 0.743595 0.333040
Si Si8 0.845675 0.430420 0.675282
O O1 0.187064 0.183146 0.384846
O O2 0.187775 0.173596 0.245320
O O3 0.301453 0.218039 0.305853
O O4 0.271791 0.107013 0.332646
O O5 0.614631 0.295328 0.500000
O O6 0.643844 0.209039 0.408514
O O7 0.548509 0.292640 0.376669
O O8 0.556060 0.081185 0.632770
O O9 0.695135 0.103995 0.625245
O O10 0.637901 0.064459 0.742543
O O11 0.659393 0.994335 0.637387
O O12 0.783662 0.190789 0.391111
O O13 0.909467 0.215761 0.347698
O O14 0.997081 0.310197 0.361162
O O15 0.000000 0.378324 0.250000
O O16 0.915033 0.399882 0.360980
O O17 0.779612 0.354554 0.000000
O O18 0.500000 0.739151 0.250000
#
# Coordination Sequence:
#
# PCOD8292996 Si02
#       8
#    16  16  16  16  16  16  16  16
#     4  10  18  31  49  74 103 133 172 218 257 300
#     4  10  21  34  50  72 105 140 166 203 263 320
#     4  10  18  30  48  72 105 136 173 212 254 294
#     4  10  19  29  51  74 100 134 173 215 257 302
#     4   9  17  26  44  73 105 134 172 209 246 291
#     4  10  20  34  49  70 102 140 172 206 255 312
#     4  11  18  29  51  79 102 135 170 207 255 309
#     4  10  18  29  49  76 100 134 175 220 251 292
#
# _framework density 16.23415
#
# number of rings (size 3 to 8) (size 9 to 14) (size 15 to 20)
#    0.000    2.000    5.000    0.375    0.000    2.000 
#    0.000    0.625    0.000    3.000    0.000    0.875 
#    0.000    2.000    0.000    0.000    0.000    0.000 
#
# Total GULP energy -793378.709679 kJ/mol
# GULP energy per Si atom -12396.542339 kJ/mol
# Density = 1.619720 g / cm^3
# Si number density = 16.234150 Si / 1000 Ang^3
#
#
#
# Elastic Constant Matrix: (Units=GPa)
#
#
# Indices 1 2 3 4 5 6 
#
# 1 113.3611 45.5940 28.4581 0.0000 0.0000 0.0000
# 2 45.5940 71.5137 9.1636 0.0000 0.0000 0.0000
# 3 28.4581 9.1636 43.8160 -0.0001 0.0000 0.0000
# 4 0.0000 0.0000 -0.0001 13.1424 0.0000 0.0000
# 5 0.0000 0.0000 0.0000 0.0000 18.4905 0.0000
# 6 0.0000 0.0000 0.0000 0.0000 0.0000 22.7172
#
#
#
# Elastic Compliance Matrix: (Units=1/GPa)
#
#
# Indices 1 2 3 4 5 6 
#
# 1 0.013832 -0.007878 -0.007336 0.000000 0.000000 0.000000
# 2 -0.007878 0.018856 0.001174 0.000000 0.000000 0.000000
# 3 -0.007336 0.001174 0.027342 0.000000 0.000000 0.000000
# 4 0.000000 0.000000 0.000000 0.076090 0.000000 0.000000
# 5 0.000000 0.000000 0.000000 0.000000 0.054082 0.000000
# 6 0.000000 0.000000 0.000000 0.000000 0.000000 0.044020
#
#
# Mechanical properties :
#
#
# Convention : Reuss Voigt Hill
#
# Bulk Modulus (GPa) = 31.30105 43.90247 37.60176
# Shear Modulus (GPa) = 18.31827 20.56836 19.44332
#
# Velocity S-wave (km/s) = 3.36278 3.56333 3.46451
# Velocity P-wave (km/s) = 5.86520 6.63564 6.26228
#
# Compressibility (1/GPa) = 0.03194781
#
# Stress axis : x y z
#
# Youngs Moduli (GPa) = 72.29772 53.03375 36.57396
#
# Poissons Ratio (x) = 0.41782 0.26830
# Poissons Ratio (y) = 0.56960 -0.04292
# Poissons Ratio (z) = 0.53037 -0.06224
#
# Static dielectric constant tensor:
#      x y z
#    x 3.109230 0.000000 0.000000 
#    y 0.000000 3.004490 0.000000 
#    z 0.000000 0.000000 2.805290 
# 
# 
# High freq. dielectric constant tensor:
#      x y z
#    x 1.622730 0.000000 0.000000 
#    y 0.000000 1.596670 0.000000 
#    z 0.000000 0.000000 1.600500 
# 
# From -- ./inp_files/39360.got.cif
#   From: 2010.03.12/outbox.cif.g09.slc.cpg/sg72_20_cif.got.tgz:39360.got - 2010.04.16 14:54:00.
