data_PCOD8292237
_publ_section_title
;
Structure prediction by ZEFSAII (Michael W. Deem and Ramdas Pophale) SiO2 
 PCOD8292237
Probable space group: I M M M
;
_chemical_formula_sum "Si O2"
_cell_formula_units_Z 104
_cell_length_a 13.508033
_cell_length_b 20.727443
_cell_length_c 23.734615
_cell_angle_alpha 90.000000
_cell_angle_beta 90.000000
_cell_angle_gamma 90.000000
_cell_volume 6645.383271
_symmetry_space_group_name_H-M "I M M M"
_symmetry_group_IT_number 71
_symmetry_cell_setting 'orthorhombic'
loop_
_space_group_symop_operation_xyz
x,y,z
-x,-y,z
x,-y,-z
-x,y,-z
-x,-y,-z
x,y,-z
-x,y,z
x,-y,z
1/2+x,1/2+y,1/2+z
1/2-x,1/2-y,1/2+z
1/2+x,1/2-y,1/2-z
1/2-x,1/2+y,1/2-z
1/2-x,1/2-y,1/2-z
1/2+x,1/2+y,1/2-z
1/2-x,1/2+y,1/2+z
1/2+x,1/2-y,1/2+z
loop_
_atom_site_type_symbol
_atom_site_label
_atom_site_fract_x
_atom_site_fract_y
_atom_site_fract_z
Si Si1 0.386911 0.314250 0.065557
Si Si2 0.297597 0.874286 0.619017
Si Si3 0.389802 0.753661 0.564389
Si Si4 0.299135 0.822462 0.935604
Si Si5 0.111529 0.500000 0.066343
Si Si6 0.615439 0.926277 0.854392
Si Si7 0.113469 0.424372 0.773706
O O1 0.500000 0.331253 0.080350
O O2 0.316752 0.358770 0.104255
O O3 0.367916 0.238998 0.078609
O O4 0.362867 0.328025 0.000000
O O5 0.367513 0.815151 0.602458
O O6 0.330154 0.937426 0.585945
O O7 0.311822 0.885301 0.685873
O O8 0.377089 0.776783 0.500000
O O9 0.500000 0.728240 0.577011
O O10 0.315007 0.695301 0.576632
O O11 0.323190 0.882029 0.896120
O O12 0.315533 0.844131 0.000000
O O13 0.000000 0.500000 0.091862
O O14 0.106426 0.500000 0.000000
O O15 0.500000 0.916669 0.866205
O O16 0.641063 0.906833 0.790347
O O17 0.646258 0.000000 0.865623
O O18 0.127384 0.500000 0.784920
O O19 0.000000 0.404738 0.786372
#
# Coordination Sequence:
#
# PCOD8292237 Si02
#       7
#    16  16  16  16   8  16  16
#     4   9  18  32  47  64  92 127 159 189 225 273
#     4  11  18  28  46  66  89 122 158 189 226 270
#     4   9  17  29  45  67  96 124 149 182 226 274
#     4   9  17  30  50  72  92 119 150 183 228 278
#     4  11  20  26  39  67  95 113 143 197 240 263
#     4   9  18  31  48  71  96 118 145 185 231 279
#     4   9  17  30  46  65  91 123 152 182 230 283
#
# _framework density 15.649962
#
# number of rings (size 3 to 8) (size 9 to 14) (size 15 to 20)
#    0.000    2.538    0.769    5.077    0.000    2.462 
#    0.000    4.231    0.000    4.615    0.000    4.308 
#    0.000    0.000    0.000    0.000    0.000    0.000 
#
# Total GULP energy -644739.129307 kJ/mol
# GULP energy per Si atom -12398.829410 kJ/mol
# Density = 1.561434 g / cm^3
# Si number density = 15.649962 Si / 1000 Ang^3
#
#
#
# Elastic Constant Matrix: (Units=GPa)
#
#
# Indices 1 2 3 4 5 6 
#
# 1 116.9785 52.8477 55.7494 0.0000 0.0000 0.0000
# 2 52.8477 83.9611 64.0420 0.0000 0.0000 0.0000
# 3 55.7494 64.0420 100.5422 0.0000 0.0000 0.0000
# 4 0.0000 0.0000 0.0000 37.1022 0.0000 0.0000
# 5 0.0000 0.0000 0.0000 0.0000 24.3322 0.0000
# 6 0.0000 0.0000 0.0000 0.0000 0.0000 22.5413
#
#
#
# Elastic Compliance Matrix: (Units=1/GPa)
#
#
# Indices 1 2 3 4 5 6 
#
# 1 0.012642 -0.005077 -0.003776 0.000000 0.000000 0.000000
# 2 -0.005077 0.025204 -0.013239 0.000000 0.000000 0.000000
# 3 -0.003776 -0.013239 0.020472 0.000000 0.000000 0.000000
# 4 0.000000 0.000000 0.000000 0.026953 0.000000 0.000000
# 5 0.000000 0.000000 0.000000 0.000000 0.041098 0.000000
# 6 0.000000 0.000000 0.000000 0.000000 0.000000 0.044363
#
#
# Mechanical properties :
#
#
# Convention : Reuss Voigt Hill
#
# Bulk Modulus (GPa) = 70.74817 71.86223 71.30520
# Shear Modulus (GPa) = 22.76588 25.38464 24.07526
#
# Velocity S-wave (km/s) = 3.81818 4.03181 3.92645
# Velocity P-wave (km/s) = 8.04629 8.22752 8.13741
#
# Compressibility (1/GPa) = 0.01413464
#
# Stress axis : x y z
#
# Youngs Moduli (GPa) = 79.10317 39.67604 48.84614
#
# Poissons Ratio (x) = 0.20144 0.18443
# Poissons Ratio (y) = 0.40162 0.64667
# Poissons Ratio (z) = 0.29867 0.52527
#
# Static dielectric constant tensor:
#      x y z
#    x 3.009570 0.000000 0.000000 
#    y 0.000000 2.647240 0.000000 
#    z 0.000000 0.000000 2.959270 
# 
# 
# High freq. dielectric constant tensor:
#      x y z
#    x 1.592150 0.000000 0.000000 
#    y 0.000000 1.585160 0.000000 
#    z 0.000000 0.000000 1.595180 
# 
# From -- ./inp_files/39585.got.cif
#   From: 2010.06.25/outbox.cif.g09.slc.cpg/sg71_20_cif.got.tgz:39585.got - 2010.06.28 04:59:45.
