data_PCOD8292712
_publ_section_title
;
Structure prediction by ZEFSAII (Michael W. Deem and Ramdas Pophale) SiO2 
 PCOD8292712
Probable space group: I M M M
;
_chemical_formula_sum "Si O2"
_cell_formula_units_Z 104
_cell_length_a 9.328893
_cell_length_b 36.241023
_cell_length_c 24.250250
_cell_angle_alpha 90.000000
_cell_angle_beta 90.000000
_cell_angle_gamma 90.000000
_cell_volume 8198.733697
_symmetry_space_group_name_H-M "I M M M"
_symmetry_group_IT_number 71
_symmetry_cell_setting 'orthorhombic'
loop_
_space_group_symop_operation_xyz
x,y,z
-x,-y,z
x,-y,-z
-x,y,-z
-x,-y,-z
x,y,-z
-x,y,z
x,-y,z
1/2+x,1/2+y,1/2+z
1/2-x,1/2-y,1/2+z
1/2+x,1/2-y,1/2-z
1/2-x,1/2+y,1/2-z
1/2-x,1/2-y,1/2-z
1/2+x,1/2+y,1/2-z
1/2-x,1/2+y,1/2+z
1/2+x,1/2-y,1/2+z
loop_
_atom_site_type_symbol
_atom_site_label
_atom_site_fract_x
_atom_site_fract_y
_atom_site_fract_z
Si Si1 0.664551 0.041572 0.604803
Si Si2 0.159433 0.043713 0.500000
Si Si3 0.336973 0.665557 0.231945
Si Si4 0.665095 0.886055 0.338514
Si Si5 0.167498 0.334254 0.061624
Si Si6 0.841451 0.780966 0.627567
Si Si7 0.330931 0.222494 0.790255
O O1 0.500000 0.042503 0.585121
O O2 0.757843 0.056813 0.554262
O O3 0.688436 0.069850 0.655348
O O4 0.708342 0.000000 0.623248
O O5 0.000000 0.060810 0.500000
O O6 0.153686 0.000000 0.500000
O O7 0.500000 0.657830 0.250964
O O8 0.263247 0.627465 0.212061
O O9 0.330488 0.693678 0.181514
O O10 0.245092 0.682511 0.283102
O O11 0.500000 0.876488 0.325169
O O12 0.711313 0.866740 0.396274
O O13 0.233264 0.295052 0.080982
O O14 0.000000 0.327936 0.060984
O O15 0.222871 0.344323 0.000000
O O16 0.810247 0.738782 0.647592
O O17 0.000000 0.783586 0.602102
O O18 0.500000 0.220194 0.775172
O O19 0.250000 0.250000 0.750000
#
# Coordination Sequence:
#
# PCOD8292712 Si02
#       7
#    16   8  16  16  16  16  16
#     4   9  17  28  41  53  63  80 107 137 169 206
#     4   9  17  27  37  49  63  77  97 129 167 203
#     4   9  16  25  36  51  69  84 102 126 157 198
#     4   9  17  27  39  50  65  85 106 135 169 205
#     4   9  17  26  35  47  63  84 109 135 163 197
#     4   8  15  25  35  48  64  82 103 127 153 187
#     4   9  15  23  36  52  68  84 104 127 155 189
#
# _framework density 12.684885
#
# number of rings (size 3 to 8) (size 9 to 14) (size 15 to 20)
#    0.000    3.154    0.000    2.077    1.077    6.154 
#    0.000    0.000    0.000    0.000    0.000    0.000 
#    0.000    0.000    0.000    0.000    0.000    0.000 
#
# Total GULP energy -644305.116294 kJ/mol
# GULP energy per Si atom -12390.483006 kJ/mol
# Density = 1.265601 g / cm^3
# Si number density = 12.684885 Si / 1000 Ang^3
#
#
#
# Elastic Constant Matrix: (Units=GPa)
#
#
# Indices 1 2 3 4 5 6 
#
# 1 58.7872 31.4836 12.9237 0.0000 0.0000 0.0000
# 2 31.4836 64.2114 23.2831 0.0000 0.0000 0.0000
# 3 12.9237 23.2831 16.7327 0.0001 0.0000 0.0000
# 4 0.0000 0.0000 0.0001 17.5211 0.0000 0.0000
# 5 0.0000 0.0000 0.0000 0.0000 14.7173 0.0000
# 6 0.0000 0.0000 0.0000 0.0000 0.0000 14.8199
#
#
#
# Elastic Compliance Matrix: (Units=1/GPa)
#
#
# Indices 1 2 3 4 5 6 
#
# 1 0.023215 -0.009852 -0.004222 0.000000 0.000000 0.000000
# 2 -0.009852 0.035614 -0.041947 0.000000 0.000000 0.000000
# 3 -0.004222 -0.041947 0.121392 -0.000001 0.000000 0.000000
# 4 0.000000 0.000000 -0.000001 0.057074 0.000000 0.000000
# 5 0.000000 0.000000 0.000000 0.000000 0.067947 0.000000
# 6 0.000000 0.000000 0.000000 0.000000 0.000000 0.067477
#
#
# Mechanical properties :
#
#
# Convention : Reuss Voigt Hill
#
# Bulk Modulus (GPa) = 14.66705 30.56802 22.61753
# Shear Modulus (GPa) = 9.85248 14.21438 12.03343
#
# Velocity S-wave (km/s) = 2.78998 3.35113 3.08335
# Velocity P-wave (km/s) = 4.68683 6.25490 5.52676
#
# Compressibility (1/GPa) = 0.06818006
#
# Stress axis : x y z
#
# Youngs Moduli (GPa) = 43.07621 28.07892 8.23776
#
# Poissons Ratio (x) = 0.27662 0.03478
# Poissons Ratio (y) = 0.42437 0.34555
# Poissons Ratio (z) = 0.18186 1.17782
#
# Static dielectric constant tensor:
#      x y z
#    x 2.742310 0.000000 0.000000 
#    y 0.000000 2.651150 0.000000 
#    z 0.000000 0.000000 2.426420 
# 
# 
# High freq. dielectric constant tensor:
#      x y z
#    x 1.494670 0.000000 0.000000 
#    y 0.000000 1.460260 0.000000 
#    z 0.000000 0.000000 1.426280 
# 
# From -- ./inp_files/68572.got.cif
#   From: 2010.06.25/outbox.cif.g09.slc.cpg/sg71_35_cif.got.tgz:68572.got - 2010.06.28 04:59:45.
