data_PCOD8292374
_publ_section_title
;
Structure prediction by ZEFSAII (Michael W. Deem and Ramdas Pophale) SiO2 
 PCOD8292374
Probable space group: I M M M
;
_chemical_formula_sum "Si O2"
_cell_formula_units_Z 96
_cell_length_a 25.524894
_cell_length_b 8.727198
_cell_length_c 23.702308
_cell_angle_alpha 90.000000
_cell_angle_beta 90.000000
_cell_angle_gamma 90.000000
_cell_volume 5279.945184
_symmetry_space_group_name_H-M "I M M M"
_symmetry_group_IT_number 71
_symmetry_cell_setting 'orthorhombic'
loop_
_space_group_symop_operation_xyz
x,y,z
-x,-y,z
x,-y,-z
-x,y,-z
-x,-y,-z
x,y,-z
-x,y,z
x,-y,z
1/2+x,1/2+y,1/2+z
1/2-x,1/2-y,1/2+z
1/2+x,1/2-y,1/2-z
1/2-x,1/2+y,1/2-z
1/2-x,1/2-y,1/2-z
1/2+x,1/2+y,1/2-z
1/2-x,1/2+y,1/2+z
1/2+x,1/2-y,1/2+z
loop_
_atom_site_type_symbol
_atom_site_label
_atom_site_fract_x
_atom_site_fract_y
_atom_site_fract_z
Si Si1 0.439466 0.178296 0.564241
Si Si2 0.850313 0.180334 0.864930
Si Si3 0.654479 0.181899 0.132863
Si Si4 0.307761 0.818983 0.746885
Si Si5 0.747485 0.317602 0.436984
Si Si6 0.057903 0.682344 0.436586
O O1 0.426049 0.227509 0.500000
O O2 0.500000 0.213073 0.577147
O O3 0.405985 0.275764 0.608488
O O4 0.427119 0.000000 0.572754
O O5 0.842077 0.260181 0.804985
O O6 0.805249 0.239713 0.906944
O O7 0.847272 0.000000 0.855479
O O8 0.660237 0.232695 0.197567
O O9 0.703112 0.248668 0.097175
O O10 0.600595 0.249856 0.107043
O O11 0.654659 0.000000 0.127524
O O12 0.250000 0.750000 0.750000
O O13 0.301545 0.000000 0.743802
O O14 0.748624 0.249712 0.500000
O O15 0.748980 0.500000 0.438452
O O16 0.071785 0.737298 0.500000
O O17 0.058565 0.500000 0.434886
O O18 0.000000 0.742167 0.419312
#
# Coordination Sequence:
#
# PCOD8292374 Si02
#       6
#    16  16  16  16  16  16
#     4   9  19  37  59  82 110 143 176 215 270 329
#     4  11  21  34  52  78 107 139 181 222 263 317
#     4   9  16  27  43  65  95 130 170 209 254 308
#     4  11  21  35  52  72 100 140 182 221 268 320
#     4   9  16  26  43  69  98 126 161 210 264 315
#     4   8  13  22  39  65  96 127 156 192 245 304
#
# _framework density 18.182006000000001
#
# number of rings (size 3 to 8) (size 9 to 14) (size 15 to 20)
#    0.000    2.500    1.667    3.000    0.000    3.333 
#    0.000    1.667    0.000    3.000    0.000    0.000 
#    0.000    0.000    0.000    7.333    0.000    6.667 
#
# Total GULP energy -595102.595719 kJ/mol
# GULP energy per Si atom -12397.970744 kJ/mol
# Density = 1.814062 g / cm^3
# Si number density = 18.182006 Si / 1000 Ang^3
#
#
#
# Elastic Constant Matrix: (Units=GPa)
#
#
# Indices 1 2 3 4 5 6 
#
# 1 135.6045 26.1512 86.6267 0.0000 0.0000 0.0000
# 2 26.1512 34.7946 33.6645 0.0000 0.0000 0.0000
# 3 86.6267 33.6645 169.0413 0.0000 0.0000 0.0000
# 4 0.0000 0.0000 0.0000 21.4875 0.0000 0.0000
# 5 0.0000 0.0000 0.0000 0.0000 32.0337 0.0000
# 6 0.0000 0.0000 0.0000 0.0000 0.0000 20.9051
#
#
#
# Elastic Compliance Matrix: (Units=1/GPa)
#
#
# Indices 1 2 3 4 5 6 
#
# 1 0.011313 -0.003584 -0.005084 0.000000 0.000000 0.000000
# 2 -0.003584 0.036735 -0.005479 0.000000 0.000000 0.000000
# 3 -0.005084 -0.005479 0.009612 0.000000 0.000000 0.000000
# 4 0.000000 0.000000 0.000000 0.046539 0.000000 0.000000
# 5 0.000000 0.000000 0.000000 0.000000 0.031217 0.000000
# 6 0.000000 0.000000 0.000000 0.000000 0.000000 0.047835
#
#
# Mechanical properties :
#
#
# Convention : Reuss Voigt Hill
#
# Bulk Modulus (GPa) = 34.05259 70.25836 52.15548
# Shear Modulus (GPa) = 22.59028 27.75178 25.17103
#
# Velocity S-wave (km/s) = 3.52867 3.91107 3.72478
# Velocity P-wave (km/s) = 5.94739 7.68901 6.87358
#
# Compressibility (1/GPa) = 0.02936634
#
# Stress axis : x y z
#
# Youngs Moduli (GPa) = 88.39227 27.22197 104.03579
#
# Poissons Ratio (x) = 0.09757 0.52889
# Poissons Ratio (y) = 0.31682 0.57001
# Poissons Ratio (z) = 0.44937 0.14915
#
# Static dielectric constant tensor:
#      x y z
#    x 3.556580 0.000000 0.000000 
#    y 0.000000 2.899760 0.000000 
#    z 0.000000 0.000000 3.569160 
# 
# 
# High freq. dielectric constant tensor:
#      x y z
#    x 1.709340 0.000000 0.000000 
#    y 0.000000 1.658460 0.000000 
#    z 0.000000 0.000000 1.710420 
# 
# From -- ./inp_files/10876.got.cif
#   From: 2010.06.25/outbox.cif.g09.slc.cpg/sg71_6_cif.got.tgz:10876.got - 2010.06.28 04:59:45.
