data_PCOD8292782
_publ_section_title
;
Structure prediction by ZEFSAII (Michael W. Deem and Ramdas Pophale) SiO2 
 PCOD8292782
Probable space group: I M M M
;
_chemical_formula_sum "Si O2"
_cell_formula_units_Z 80
_cell_length_a 22.323943
_cell_length_b 21.838219
_cell_length_c 9.404646
_cell_angle_alpha 90.000000
_cell_angle_beta 90.000000
_cell_angle_gamma 90.000000
_cell_volume 4584.907463
_symmetry_space_group_name_H-M "I M M M"
_symmetry_group_IT_number 71
_symmetry_cell_setting 'orthorhombic'
loop_
_space_group_symop_operation_xyz
x,y,z
-x,-y,z
x,-y,-z
-x,y,-z
-x,-y,-z
x,y,-z
-x,y,z
x,-y,z
1/2+x,1/2+y,1/2+z
1/2-x,1/2-y,1/2+z
1/2+x,1/2-y,1/2-z
1/2-x,1/2+y,1/2-z
1/2-x,1/2-y,1/2-z
1/2+x,1/2+y,1/2-z
1/2-x,1/2+y,1/2+z
1/2+x,1/2-y,1/2+z
loop_
_atom_site_type_symbol
_atom_site_label
_atom_site_fract_x
_atom_site_fract_y
_atom_site_fract_z
Si Si1 0.114043 0.570844 0.835014
Si Si2 0.823894 0.800129 0.164014
Si Si3 0.286800 0.833761 0.665474
Si Si4 0.500000 0.927267 0.839577
Si Si5 0.068251 0.116516 0.164547
Si Si6 0.571085 0.500000 0.160188
O O1 0.127944 0.500000 0.802855
O O2 0.172160 0.609182 0.789692
O O3 0.058675 0.596054 0.742895
O O4 0.097817 0.581162 0.000000
O O5 0.775447 0.839174 0.251353
O O6 0.821513 0.728786 0.207060
O O7 0.890460 0.824742 0.197800
O O8 0.807565 0.809247 0.000000
O O9 0.271403 0.835559 0.500000
O O10 0.500000 0.000000 0.839517
O O11 0.500000 0.901168 0.000000
O O12 0.093341 0.060245 0.257479
O O13 0.000000 0.133911 0.205561
O O14 0.072249 0.096949 0.000000
O O15 0.500000 0.500000 0.158702
O O16 0.597199 0.500000 0.000000
#
# Coordination Sequence:
#
# PCOD8292782 Si02
#       6
#    16  16  16   8  16   8
#     4   9  17  31  50  72  99 129 163 200 240 288
#     4   9  18  33  51  71  95 128 167 202 242 288
#     4   9  18  33  51  71  96 131 168 201 241 287
#     4   9  17  29  47  71  99 129 159 194 241 288
#     4   9  17  31  50  71  97 127 161 201 242 288
#     4   9  17  29  47  71  97 125 155 190 239 292
#
# _framework density 17.448553
#
# number of rings (size 3 to 8) (size 9 to 14) (size 15 to 20)
#    0.000    3.000    0.000    0.600    0.000    4.000 
#    3.600    0.000    0.000    0.000    0.000    0.000 
#    0.000    0.000    0.000    0.000    0.000    0.000 
#
# Total GULP energy -495985.795578 kJ/mol
# GULP energy per Si atom -12399.644889 kJ/mol
# Density = 1.740884 g / cm^3
# Si number density = 17.448553 Si / 1000 Ang^3
#
#
#
# Elastic Constant Matrix: (Units=GPa)
#
#
# Indices 1 2 3 4 5 6 
#
# 1 114.0846 57.9847 50.9850 0.0000 0.0000 0.0000
# 2 57.9847 73.9004 37.1674 0.0000 0.0000 0.0000
# 3 50.9850 37.1674 68.6026 0.0000 0.0000 0.0000
# 4 0.0000 0.0000 0.0000 19.7281 0.0000 0.0000
# 5 0.0000 0.0000 0.0000 0.0000 29.6769 0.0000
# 6 0.0000 0.0000 0.0000 0.0000 0.0000 28.5314
#
#
#
# Elastic Compliance Matrix: (Units=1/GPa)
#
#
# Indices 1 2 3 4 5 6 
#
# 1 0.016936 -0.009564 -0.007405 0.000000 0.000000 0.000000
# 2 -0.009564 0.024001 -0.005895 0.000000 0.000000 0.000000
# 3 -0.007405 -0.005895 0.023274 0.000000 0.000000 0.000000
# 4 0.000000 0.000000 0.000000 0.050689 0.000000 0.000000
# 5 0.000000 0.000000 0.000000 0.000000 0.033696 0.000000
# 6 0.000000 0.000000 0.000000 0.000000 0.000000 0.035049
#
#
# Mechanical properties :
#
#
# Convention : Reuss Voigt Hill
#
# Bulk Modulus (GPa) = 54.10633 60.98464 57.54549
# Shear Modulus (GPa) = 21.22831 22.95064 22.08948
#
# Velocity S-wave (km/s) = 3.49180 3.63069 3.56192
# Velocity P-wave (km/s) = 6.87992 7.25278 7.06881
#
# Compressibility (1/GPa) = 0.01848212
#
# Stress axis : x y z
#
# Youngs Moduli (GPa) = 59.04653 41.66488 42.96663
#
# Poissons Ratio (x) = 0.39849 0.31816
# Poissons Ratio (y) = 0.56473 0.25330
# Poissons Ratio (z) = 0.43723 0.24562
#
# Static dielectric constant tensor:
#      x y z
#    x 3.181570 0.000000 0.000000 
#    y 0.000000 3.177990 0.000000 
#    z 0.000000 0.000000 3.332270 
# 
# 
# High freq. dielectric constant tensor:
#      x y z
#    x 1.664280 0.000000 0.000000 
#    y 0.000000 1.659510 0.000000 
#    z 0.000000 0.000000 1.673630 
# 
# From -- ./inp_files/10298.got.cif
#   From: 2010.06.25/outbox.cif.g09.slc.cpg/sg71_6_cif.got.tgz:10298.got - 2010.06.28 04:59:45.
