data_PCOD8292368
_publ_section_title
;
Structure prediction by ZEFSAII (Michael W. Deem and Ramdas Pophale) SiO2 
 PCOD8292368
Probable space group: I M M M
;
_chemical_formula_sum "Si O2"
_cell_formula_units_Z 88
_cell_length_a 21.498178
_cell_length_b 16.910084
_cell_length_c 13.107786
_cell_angle_alpha 90.000000
_cell_angle_beta 90.000000
_cell_angle_gamma 90.000000
_cell_volume 4765.152037
_symmetry_space_group_name_H-M "I M M M"
_symmetry_group_IT_number 71
_symmetry_cell_setting 'orthorhombic'
loop_
_space_group_symop_operation_xyz
x,y,z
-x,-y,z
x,-y,-z
-x,y,-z
-x,-y,-z
x,y,-z
-x,y,z
x,-y,z
1/2+x,1/2+y,1/2+z
1/2-x,1/2-y,1/2+z
1/2+x,1/2-y,1/2-z
1/2-x,1/2+y,1/2-z
1/2-x,1/2-y,1/2-z
1/2+x,1/2+y,1/2-z
1/2-x,1/2+y,1/2+z
1/2+x,1/2-y,1/2+z
loop_
_atom_site_type_symbol
_atom_site_label
_atom_site_fract_x
_atom_site_fract_y
_atom_site_fract_z
Si Si1 0.256784 0.409184 0.813320
Si Si2 0.632862 0.159027 0.380088
Si Si3 0.321397 0.408632 0.388021
Si Si4 0.931067 0.500000 0.878975
Si Si5 0.571330 0.312714 0.696413
Si Si6 0.393023 0.590176 0.114821
O O1 0.232480 0.500000 0.817974
O O2 0.206456 0.348634 0.858991
O O3 0.271775 0.381520 0.697012
O O4 0.318725 0.400512 0.879953
O O5 0.620933 0.175901 0.500000
O O6 0.601817 0.226029 0.310408
O O7 0.603044 0.078036 0.340028
O O8 0.293601 0.390097 0.500000
O O9 0.335561 0.500000 0.371177
O O10 0.388347 0.367657 0.377927
O O11 0.000000 0.500000 0.833011
O O12 0.931882 0.500000 0.000000
O O13 0.500000 0.309530 0.658960
O O14 0.573630 0.347135 0.811249
O O15 0.411368 0.500000 0.145481
O O16 0.415038 0.608530 0.000000
#
# Coordination Sequence:
#
# PCOD8292368 Si02
#       6
#    16  16  16   8  16  16
#     4   9  17  33  56  81 107 135 177 224 272 323
#     4  11  21  33  53  79 107 142 180 222 270 318
#     4   9  19  35  54  77 107 141 174 215 265 323
#     4   9  18  32  50  74 103 139 182 219 257 309
#     4  11  23  36  50  75 110 144 179 219 262 313
#     4   9  19  36  59  84 109 138 174 221 270 317
#
# _framework density 18.467407000000001
#
# number of rings (size 3 to 8) (size 9 to 14) (size 15 to 20)
#    0.000    2.273    0.909    3.273    0.000    7.636 
#    0.000    4.545    0.000    0.000    0.000    0.000 
#    0.000    2.909    0.000    0.000    0.000    0.000 
#
# Total GULP energy -545453.986947 kJ/mol
# GULP energy per Si atom -12396.681522 kJ/mol
# Density = 1.842537 g / cm^3
# Si number density = 18.467407 Si / 1000 Ang^3
#
#
#
# Elastic Constant Matrix: (Units=GPa)
#
#
# Indices 1 2 3 4 5 6 
#
# 1 79.2406 35.0691 5.3498 0.0000 0.0000 0.0000
# 2 35.0691 99.4359 38.1464 0.0000 0.0000 0.0000
# 3 5.3498 38.1464 88.8780 0.0000 0.0000 0.0000
# 4 0.0000 0.0000 0.0000 24.5144 0.0000 0.0000
# 5 0.0000 0.0000 0.0000 0.0000 12.5657 0.0000
# 6 0.0000 0.0000 0.0000 0.0000 0.0000 21.9998
#
#
#
# Elastic Compliance Matrix: (Units=1/GPa)
#
#
# Indices 1 2 3 4 5 6 
#
# 1 0.015154 -0.005979 0.001654 0.000000 0.000000 0.000000
# 2 -0.005979 0.014398 -0.005820 0.000000 0.000000 0.000000
# 3 0.001654 -0.005820 0.013650 0.000000 0.000000 0.000000
# 4 0.000000 0.000000 0.000000 0.040792 0.000000 0.000000
# 5 0.000000 0.000000 0.000000 0.000000 0.079581 0.000000
# 6 0.000000 0.000000 0.000000 0.000000 0.000000 0.045455
#
#
# Mechanical properties :
#
#
# Convention : Reuss Voigt Hill
#
# Bulk Modulus (GPa) = 43.64461 47.18724 45.41593
# Shear Modulus (GPa) = 21.10079 24.41526 22.75803
#
# Velocity S-wave (km/s) = 3.38390 3.63998 3.51427
# Velocity P-wave (km/s) = 6.24118 6.57822 6.41192
#
# Compressibility (1/GPa) = 0.02291234
#
# Stress axis : x y z
#
# Youngs Moduli (GPa) = 65.98792 69.45371 73.26199
#
# Poissons Ratio (x) = 0.41528 -0.12118
# Poissons Ratio (y) = 0.39455 0.42637
# Poissons Ratio (z) = -0.10915 0.40420
#
# Static dielectric constant tensor:
#      x y z
#    x 3.290750 0.000000 0.000000 
#    y 0.000000 3.427370 0.000000 
#    z 0.000000 0.000000 3.457020 
# 
# 
# High freq. dielectric constant tensor:
#      x y z
#    x 1.707950 0.000000 0.000000 
#    y 0.000000 1.712480 0.000000 
#    z 0.000000 0.000000 1.702770 
# 
# From -- ./inp_files/37991.got.cif
#   From: 2010.06.25/outbox.cif.g09.slc.cpg/sg71_19_cif.got.tgz:37991.got - 2010.06.28 04:59:45.
