data_PCOD8292338
_publ_section_title
;
Structure prediction by ZEFSAII (Michael W. Deem and Ramdas Pophale) SiO2 
 PCOD8292338
Probable space group: I M M M
;
_chemical_formula_sum "Si O2"
_cell_formula_units_Z 104
_cell_length_a 26.635075
_cell_length_b 9.079446
_cell_length_c 23.924103
_cell_angle_alpha 90.000000
_cell_angle_beta 90.000000
_cell_angle_gamma 90.000000
_cell_volume 5785.607102
_symmetry_space_group_name_H-M "I M M M"
_symmetry_group_IT_number 71
_symmetry_cell_setting 'orthorhombic'
loop_
_space_group_symop_operation_xyz
x,y,z
-x,-y,z
x,-y,-z
-x,y,-z
-x,-y,-z
x,y,-z
-x,y,z
x,-y,z
1/2+x,1/2+y,1/2+z
1/2-x,1/2-y,1/2+z
1/2+x,1/2-y,1/2-z
1/2-x,1/2+y,1/2-z
1/2-x,1/2-y,1/2-z
1/2+x,1/2+y,1/2-z
1/2-x,1/2+y,1/2+z
1/2+x,1/2-y,1/2+z
loop_
_atom_site_type_symbol
_atom_site_label
_atom_site_fract_x
_atom_site_fract_y
_atom_site_fract_z
Si Si1 0.827289 0.825718 0.151095
Si Si2 0.365788 0.824261 0.937322
Si Si3 0.108092 0.331686 0.933554
Si Si4 0.285385 0.825757 0.851121
Si Si5 0.056103 0.325177 0.652776
Si Si6 0.863074 0.326582 0.258757
Si Si7 0.000000 0.673802 0.060812
O O1 0.851186 0.776974 0.092573
O O2 0.770667 0.760645 0.151962
O O3 0.860594 0.758625 0.200632
O O4 0.827455 0.000000 0.156223
O O5 0.315225 0.767912 0.906054
O O6 0.414342 0.768504 0.902390
O O7 0.365931 0.000000 0.939162
O O8 0.367517 0.758210 0.000000
O O9 0.120306 0.500000 0.916667
O O10 0.052652 0.284308 0.909183
O O11 0.109252 0.313088 0.000000
O O12 0.315144 0.778030 0.795596
O O13 0.283130 0.000000 0.854730
O O14 0.053358 0.500000 0.650344
O O15 0.086226 0.278754 0.708689
O O16 0.000000 0.256734 0.653962
O O17 0.862868 0.500000 0.246972
O O18 0.000000 0.500000 0.051884
O O19 0.000000 0.750297 0.000000
#
# Coordination Sequence:
#
# PCOD8292338 Si02
#       7
#    16  16  16  16  16  16   8
#     4  11  21  31  46  71  98 122 155 197 241 285
#     4   8  13  22  38  62  93 126 155 185 229 283
#     4   9  18  34  54  73  93 119 153 190 229 278
#     4   8  16  29  44  63  90 127 164 196 231 277
#     4   8  14  25  42  65  91 119 154 195 235 275
#     4   9  17  32  50  65  88 125 167 202 233 274
#     4   7  12  28  53  71  83 109 149 185 214 257
#
# _framework density 17.975643000000002
#
# number of rings (size 3 to 8) (size 9 to 14) (size 15 to 20)
#    0.000    3.308    0.000    3.692    0.000    1.231 
#    1.385    4.231    0.000    1.385    0.000    0.000 
#    0.000    5.538    0.000    5.538    0.000    6.154 
#
# Total GULP energy -644329.524526 kJ/mol
# GULP energy per Si atom -12390.952395 kJ/mol
# Density = 1.793473 g / cm^3
# Si number density = 17.975643 Si / 1000 Ang^3
#
#
#
# Elastic Constant Matrix: (Units=GPa)
#
#
# Indices 1 2 3 4 5 6 
#
# 1 121.9838 23.9099 57.5801 0.0000 0.0000 0.0000
# 2 23.9099 28.2202 23.3229 0.0000 0.0000 0.0000
# 3 57.5801 23.3229 97.7536 0.0000 0.0000 0.0000
# 4 0.0000 0.0000 0.0000 16.8211 0.0000 0.0000
# 5 0.0000 0.0000 0.0000 0.0000 19.0073 0.0000
# 6 0.0000 0.0000 0.0000 0.0000 0.0000 17.9931
#
#
#
# Elastic Compliance Matrix: (Units=1/GPa)
#
#
# Indices 1 2 3 4 5 6 
#
# 1 0.011976 -0.005377 -0.005771 0.000000 0.000000 0.000000
# 2 -0.005377 0.046553 -0.007940 0.000000 0.000000 0.000000
# 3 -0.005771 -0.007940 0.015524 0.000000 0.000000 0.000000
# 4 0.000000 0.000000 0.000000 0.059449 0.000000 0.000000
# 5 0.000000 0.000000 0.000000 0.000000 0.052611 0.000000
# 6 0.000000 0.000000 0.000000 0.000000 0.000000 0.055577
#
#
# Mechanical properties :
#
#
# Convention : Reuss Voigt Hill
#
# Bulk Modulus (GPa) = 27.87333 50.84258 39.35795
# Shear Modulus (GPa) = 17.13350 20.30727 18.72038
#
# Velocity S-wave (km/s) = 3.09066 3.36476 3.23062
# Velocity P-wave (km/s) = 5.31753 6.59098 5.98820
#
# Compressibility (1/GPa) = 0.03587660
#
# Stress axis : x y z
#
# Youngs Moduli (GPa) = 83.50018 21.48072 64.41770
#
# Poissons Ratio (x) = 0.11550 0.37178
# Poissons Ratio (y) = 0.44898 0.51147
# Poissons Ratio (z) = 0.48191 0.17055
#
# Static dielectric constant tensor:
#      x y z
#    x 3.886480 0.000000 0.000000 
#    y 0.000000 2.732330 0.000000 
#    z 0.000000 0.000000 3.302310 
# 
# 
# High freq. dielectric constant tensor:
#      x y z
#    x 1.707890 0.000000 0.000000 
#    y 0.000000 1.633280 0.000000 
#    z 0.000000 0.000000 1.691100 
# 
# From -- ./inp_files/61954.got.cif
#   From: 2010.06.25/outbox.cif.g09.slc.cpg/sg71_31_cif.got.tgz:61954.got - 2010.06.28 04:59:45.
