data_PCOD8292721
_publ_section_title
;
Structure prediction by ZEFSAII (Michael W. Deem and Ramdas Pophale) SiO2 
 PCOD8292721
Probable space group: I M M M
;
_chemical_formula_sum "Si O2"
_cell_formula_units_Z 80
_cell_length_a 9.483352
_cell_length_b 22.694869
_cell_length_c 22.456757
_cell_angle_alpha 90.000000
_cell_angle_beta 90.000000
_cell_angle_gamma 90.000000
_cell_volume 4833.220298
_symmetry_space_group_name_H-M "I M M M"
_symmetry_group_IT_number 71
_symmetry_cell_setting 'orthorhombic'
loop_
_space_group_symop_operation_xyz
x,y,z
-x,-y,z
x,-y,-z
-x,y,-z
-x,-y,-z
x,y,-z
-x,y,z
x,-y,z
1/2+x,1/2+y,1/2+z
1/2-x,1/2-y,1/2+z
1/2+x,1/2-y,1/2-z
1/2-x,1/2+y,1/2-z
1/2-x,1/2-y,1/2-z
1/2+x,1/2+y,1/2-z
1/2-x,1/2+y,1/2+z
1/2+x,1/2-y,1/2+z
loop_
_atom_site_type_symbol
_atom_site_label
_atom_site_fract_x
_atom_site_fract_y
_atom_site_fract_z
Si Si1 0.836411 0.682262 0.294916
Si Si2 0.844344 0.000000 0.069403
Si Si3 0.339333 0.500000 0.929511
Si Si4 0.335468 0.214960 0.337875
Si Si5 0.664637 0.114350 0.430609
Si Si6 0.157221 0.563865 0.352182
O O1 0.751050 0.724074 0.340684
O O2 0.794689 0.687963 0.226059
O O3 0.793654 0.615191 0.308602
O O4 0.000000 0.695991 0.305100
O O5 0.762274 0.058924 0.091319
O O6 0.000000 0.000000 0.097428
O O7 0.851462 0.000000 0.000000
O O8 0.500000 0.500000 0.904214
O O9 0.255910 0.558448 0.908355
O O10 0.342632 0.500000 0.000000
O O11 0.500000 0.229650 0.343039
O O12 0.289970 0.170543 0.390668
O O13 0.694160 0.129278 0.500000
O O14 0.500000 0.099228 0.420645
O O15 0.161251 0.500000 0.318112
O O16 0.000000 0.576993 0.376284
#
# Coordination Sequence:
#
# PCOD8292721 Si02
#       6
#    16   8   8  16  16  16
#     4   9  17  32  50  69  93 123 159 194 234 277
#     4   9  17  29  46  69  94 120 150 187 234 280
#     4   9  17  29  46  67  92 122 153 189 232 271
#     4   9  18  31  49  71  94 125 159 193 232 275
#     4   9  17  31  49  69  95 126 159 191 228 278
#     4   8  16  30  48  67  90 122 155 192 232 275
#
# _framework density 16.552111
#
# number of rings (size 3 to 8) (size 9 to 14) (size 15 to 20)
#    0.600    2.600    0.000    0.300    0.000    3.600 
#    1.800    1.000    0.000    4.800    0.000    0.000 
#    0.000    0.000    0.000    0.000    0.000    0.000 
#
# Total GULP energy -495569.218129 kJ/mol
# GULP energy per Si atom -12389.230453 kJ/mol
# Density = 1.651444 g / cm^3
# Si number density = 16.552111 Si / 1000 Ang^3
#
#
#
# Elastic Constant Matrix: (Units=GPa)
#
#
# Indices 1 2 3 4 5 6 
#
# 1 72.6750 55.1329 35.8503 0.0000 0.0000 0.0000
# 2 55.1329 127.7749 51.2023 0.0000 0.0000 0.0000
# 3 35.8503 51.2023 60.7304 0.0000 0.0000 0.0000
# 4 0.0000 0.0000 0.0000 26.7809 0.0000 0.0000
# 5 0.0000 0.0000 0.0000 0.0000 19.4060 0.0000
# 6 0.0000 0.0000 0.0000 0.0000 0.0000 5.3658
#
#
#
# Elastic Compliance Matrix: (Units=1/GPa)
#
#
# Indices 1 2 3 4 5 6 
#
# 1 0.022635 -0.006664 -0.007744 0.000000 0.000000 0.000000
# 2 -0.006664 0.013781 -0.007685 0.000000 0.000000 0.000000
# 3 -0.007744 -0.007685 0.027517 0.000000 0.000000 0.000000
# 4 0.000000 0.000000 0.000000 0.037340 0.000000 0.000000
# 5 0.000000 0.000000 0.000000 0.000000 0.051530 0.000000
# 6 0.000000 0.000000 0.000000 0.000000 0.000000 0.186367
#
#
# Mechanical properties :
#
#
# Convention : Reuss Voigt Hill
#
# Bulk Modulus (GPa) = 50.63839 60.61681 55.62760
# Shear Modulus (GPa) = 12.82251 18.24351 15.53301
#
# Velocity S-wave (km/s) = 2.78632 3.32352 3.06671
# Velocity P-wave (km/s) = 6.40400 7.17140 6.79854
#
# Compressibility (1/GPa) = 0.01974786
#
# Stress axis : x y z
#
# Youngs Moduli (GPa) = 44.17939 72.56263 36.34090
#
# Poissons Ratio (x) = 0.48352 0.28142
# Poissons Ratio (y) = 0.29439 0.27930
# Poissons Ratio (z) = 0.34212 0.55768
#
# Static dielectric constant tensor:
#      x y z
#    x 3.295160 0.000000 0.000000 
#    y 0.000000 3.183570 0.000000 
#    z 0.000000 0.000000 2.869180 
# 
# 
# High freq. dielectric constant tensor:
#      x y z
#    x 1.641230 0.000000 0.000000 
#    y 0.000000 1.633920 0.000000 
#    z 0.000000 0.000000 1.607000 
# 
# From -- ./inp_files/57700.got.cif
#   From: 2010.06.25/outbox.cif.g09.slc.cpg/sg71_29_cif.got.tgz:57700.got - 2010.06.28 04:59:45.
