data_PCOD8292768
_publ_section_title
;
Structure prediction by ZEFSAII (Michael W. Deem and Ramdas Pophale) SiO2 
 PCOD8292768
Probable space group: I M M M
;
_chemical_formula_sum "Si O2"
_cell_formula_units_Z 56
_cell_length_a 13.724944
_cell_length_b 32.763487
_cell_length_c 7.673598
_cell_angle_alpha 90.000000
_cell_angle_beta 90.000000
_cell_angle_gamma 90.000000
_cell_volume 3450.640714
_symmetry_space_group_name_H-M "I M M M"
_symmetry_group_IT_number 71
_symmetry_cell_setting 'orthorhombic'
loop_
_space_group_symop_operation_xyz
x,y,z
-x,-y,z
x,-y,-z
-x,y,-z
-x,-y,-z
x,y,-z
-x,y,z
x,-y,z
1/2+x,1/2+y,1/2+z
1/2-x,1/2-y,1/2+z
1/2+x,1/2-y,1/2-z
1/2-x,1/2+y,1/2-z
1/2-x,1/2-y,1/2-z
1/2+x,1/2+y,1/2-z
1/2-x,1/2+y,1/2+z
1/2+x,1/2-y,1/2+z
loop_
_atom_site_type_symbol
_atom_site_label
_atom_site_fract_x
_atom_site_fract_y
_atom_site_fract_z
Si Si1 0.608608 0.769659 0.293359
Si Si2 0.115319 0.045362 0.500000
Si Si3 0.794122 0.188266 0.799081
Si Si4 0.885279 0.894558 0.200520
O O1 0.608543 0.767761 0.500000
O O2 0.500000 0.777546 0.220713
O O3 0.678274 0.806544 0.231403
O O4 0.649254 0.726905 0.214037
O O5 0.149172 0.068347 0.323759
O O6 0.000000 0.042202 0.500000
O O7 0.161667 0.000000 0.500000
O O8 0.831250 0.145479 0.721940
O O9 0.821187 0.186989 0.000000
O O10 0.000000 0.886574 0.215905
O O11 0.856144 0.904562 0.000000
#
# Coordination Sequence:
#
# PCOD8292768 Si02
#       4
#    16   8  16  16
#     4   9  17  28  41  58  84 116 147 183 221 254
#     4   9  18  30  44  66  91 115 147 183 220 266
#     4   9  17  28  42  60  83 114 150 183 215 255
#     4   9  17  29  45  64  88 118 148 180 217 260
#
# _framework density 16.228870000000001
#
# number of rings (size 3 to 8) (size 9 to 14) (size 15 to 20)
#    0.000    3.000    0.000    0.857    2.000    4.571 
#    0.000    2.857    0.000    0.000    0.000    0.000 
#    0.000    2.286    0.000    6.286    0.000    0.286 
#
# Total GULP energy -347050.011411 kJ/mol
# GULP energy per Si atom -12394.643265 kJ/mol
# Density = 1.619193 g / cm^3
# Si number density = 16.228870 Si / 1000 Ang^3
#
#
#
# Elastic Constant Matrix: (Units=GPa)
#
#
# Indices 1 2 3 4 5 6 
#
# 1 77.1440 46.4159 13.8251 -0.0009 0.0013 -0.0001
# 2 46.4159 134.2507 45.4237 0.0057 -0.0004 -0.0008
# 3 13.8251 45.4237 58.6485 0.0085 0.0313 -0.0018
# 4 -0.0009 0.0057 0.0085 19.1669 0.0001 -0.0016
# 5 0.0013 -0.0004 0.0313 0.0001 17.4978 0.0007
# 6 -0.0001 -0.0008 -0.0018 -0.0016 0.0007 18.2462
#
#
#
# Elastic Compliance Matrix: (Units=1/GPa)
#
#
# Indices 1 2 3 4 5 6 
#
# 1 0.016390 -0.005907 0.000712 0.000002 -0.000003 0.000000
# 2 -0.005907 0.012223 -0.008074 0.000000 0.000015 0.000000
# 3 0.000712 -0.008074 0.023137 -0.000008 -0.000042 0.000002
# 4 0.000002 0.000000 -0.000008 0.052173 0.000000 0.000004
# 5 -0.000003 0.000015 -0.000042 0.000000 0.057150 -0.000002
# 6 0.000000 0.000000 0.000002 0.000004 -0.000002 0.054806
#
#
# Mechanical properties :
#
#
# Convention : Reuss Voigt Hill
#
# Bulk Modulus (GPa) = 39.66767 53.48584 46.57676
# Shear Modulus (GPa) = 19.93449 21.94075 20.93762
#
# Velocity S-wave (km/s) = 3.50856 3.68089 3.59576
# Velocity P-wave (km/s) = 6.39602 7.14801 6.78244
#
# Compressibility (1/GPa) = 0.02520944
#
# Stress axis : x y z
#
# Youngs Moduli (GPa) = 61.01451 81.81211 43.22151
#
# Poissons Ratio (x) = 0.48329 -0.03077
# Poissons Ratio (y) = 0.36044 0.34899
# Poissons Ratio (z) = -0.04343 0.66058
#
# Static dielectric constant tensor:
#      x y z
#    x 2.957500 0.000010 0.000020 
#    y 0.000010 3.175110 -0.000010 
#    z 0.000020 -0.000010 3.045950 
# 
# 
# High freq. dielectric constant tensor:
#      x y z
#    x 1.591900 0.000000 0.000000 
#    y 0.000000 1.601550 0.000000 
#    z 0.000000 0.000000 1.627120 
# 
# From -- ./inp_files/3293.got.cif
#   From: 2010.06.25/outbox.cif.g09.slc.cpg/sg71_2_cif.got.tgz:3293.got - 2010.06.28 04:59:45.
