data_PCOD8292242
_publ_section_title
;
Structure prediction by ZEFSAII (Michael W. Deem and Ramdas Pophale) SiO2 
 PCOD8292242
Probable space group: I M M M
;
_chemical_formula_sum "Si O2"
_cell_formula_units_Z 104
_cell_length_a 11.160281
_cell_length_b 27.275314
_cell_length_c 18.402468
_cell_angle_alpha 90.000000
_cell_angle_beta 90.000000
_cell_angle_gamma 90.000000
_cell_volume 5601.714362
_symmetry_space_group_name_H-M "I M M M"
_symmetry_group_IT_number 71
_symmetry_cell_setting 'orthorhombic'
loop_
_space_group_symop_operation_xyz
x,y,z
-x,-y,z
x,-y,-z
-x,y,-z
-x,-y,-z
x,y,-z
-x,y,z
x,-y,z
1/2+x,1/2+y,1/2+z
1/2-x,1/2-y,1/2+z
1/2+x,1/2-y,1/2-z
1/2-x,1/2+y,1/2-z
1/2-x,1/2-y,1/2-z
1/2+x,1/2+y,1/2-z
1/2-x,1/2+y,1/2+z
1/2+x,1/2-y,1/2+z
loop_
_atom_site_type_symbol
_atom_site_label
_atom_site_fract_x
_atom_site_fract_y
_atom_site_fract_z
Si Si1 0.244020 0.730958 0.167875
Si Si2 0.142012 0.946408 0.420159
Si Si3 0.500000 0.345543 0.420217
Si Si4 0.641530 0.370619 0.804969
Si Si5 0.861260 0.680928 0.582244
Si Si6 0.642070 0.500000 0.413894
Si Si7 0.500000 0.769536 0.415380
Si Si8 0.218131 0.897272 0.150667
O O1 0.250000 0.750000 0.250000
O O2 0.329628 0.683957 0.169428
O O3 0.294445 0.773464 0.117479
O O4 0.115034 0.715052 0.134070
O O5 0.196783 0.937737 0.500000
O O6 0.192138 0.904878 0.368334
O O7 0.000000 0.943042 0.424148
O O8 0.180449 0.000000 0.390832
O O9 0.500000 0.369898 0.500000
O O10 0.500000 0.288043 0.423695
O O11 0.384645 0.362314 0.378296
O O12 0.500000 0.375792 0.790054
O O13 0.715146 0.391808 0.736946
O O14 0.813939 0.676667 0.500000
O O15 0.839042 0.628329 0.621298
O O16 0.000000 0.692642 0.585849
O O17 0.500000 0.500000 0.397514
O O18 0.667024 0.500000 0.500000
O O19 0.703518 0.547102 0.376819
O O20 0.500000 0.790932 0.500000
#
# Coordination Sequence:
#
# PCOD8292242 Si02
#       8
#    16  16   8  16  16   8   8  16
#     4  12  24  37  60  86 121 154 198 246 294 353
#     4   8  16  32  54  79 111 148 181 218 275 340
#     4  11  18  33  58  79 115 153 188 228 285 350
#     4  11  22  36  56  87 120 152 188 239 293 349
#     4  11  24  41  61  83 114 157 201 241 289 351
#     4  11  22  34  55  87 120 152 194 244 293 349
#     4  11  24  40  61  88 119 161 204 245 301 363
#     4  12  22  37  57  86 120 152 193 240 296 350
#
# _framework density 18.565746000000001
#
# number of rings (size 3 to 8) (size 9 to 14) (size 15 to 20)
#    0.000    1.154    4.615    2.769    3.231    1.231 
#    0.000    1.923    0.000    1.385    0.000    0.538 
#    0.000    1.846    0.000    0.000    0.000    0.000 
#
# Total GULP energy -644511.773331 kJ/mol
# GULP energy per Si atom -12394.457179 kJ/mol
# Density = 1.852349 g / cm^3
# Si number density = 18.565746 Si / 1000 Ang^3
#
#
#
# Elastic Constant Matrix: (Units=GPa)
#
#
# Indices 1 2 3 4 5 6 
#
# 1 49.4471 18.6036 33.9250 0.0000 0.0000 0.0000
# 2 18.6036 129.7839 55.5414 0.0000 0.0000 0.0000
# 3 33.9250 55.5414 125.7036 -0.0001 0.0000 0.0000
# 4 0.0000 0.0000 -0.0001 36.6603 0.0000 0.0000
# 5 0.0000 0.0000 0.0000 0.0000 26.4891 0.0000
# 6 0.0000 0.0000 0.0000 0.0000 0.0000 35.8799
#
#
#
# Elastic Compliance Matrix: (Units=1/GPa)
#
#
# Indices 1 2 3 4 5 6 
#
# 1 0.024896 -0.000855 -0.006341 0.000000 0.000000 0.000000
# 2 -0.000855 0.009531 -0.003981 0.000000 0.000000 0.000000
# 3 -0.006341 -0.003981 0.011425 0.000000 0.000000 0.000000
# 4 0.000000 0.000000 0.000000 0.027277 0.000000 0.000000
# 5 0.000000 0.000000 0.000000 0.000000 0.037751 0.000000
# 6 0.000000 0.000000 0.000000 0.000000 0.000000 0.027871
#
#
# Mechanical properties :
#
#
# Convention : Reuss Voigt Hill
#
# Bulk Modulus (GPa) = 42.55484 57.89719 50.22601
# Shear Modulus (GPa) = 29.59658 32.93016 31.26337
#
# Velocity S-wave (km/s) = 3.99701 4.21611 4.10802
# Velocity P-wave (km/s) = 6.65375 7.41306 7.04364
#
# Compressibility (1/GPa) = 0.02349909
#
# Stress axis : x y z
#
# Youngs Moduli (GPa) = 40.16729 104.91912 87.52450
#
# Poissons Ratio (x) = 0.08970 0.55501
# Poissons Ratio (y) = 0.03434 0.34840
# Poissons Ratio (z) = 0.25471 0.41764
#
# Static dielectric constant tensor:
#      x y z
#    x 3.263650 0.000000 0.000000 
#    y 0.000000 3.361920 0.000000 
#    z 0.000000 0.000000 4.167030 
# 
# 
# High freq. dielectric constant tensor:
#      x y z
#    x 1.688700 0.000000 0.000000 
#    y 0.000000 1.721270 0.000000 
#    z 0.000000 0.000000 1.740750 
# 
# From -- ./inp_files/43804.got.cif
#   From: 2010.06.25/outbox.cif.g09.slc.cpg/sg71_22_cif.got.tgz:43804.got - 2010.06.28 04:59:45.
