data_PCOD8292496
_publ_section_title
;
Structure prediction by ZEFSAII (Michael W. Deem and Ramdas Pophale) SiO2 
 PCOD8292496
Probable space group: I M M M
;
_chemical_formula_sum "Si O2"
_cell_formula_units_Z 64
_cell_length_a 16.613851
_cell_length_b 22.141925
_cell_length_c 8.317949
_cell_angle_alpha 90.000000
_cell_angle_beta 90.000000
_cell_angle_gamma 90.000000
_cell_volume 3059.862702
_symmetry_space_group_name_H-M "I M M M"
_symmetry_group_IT_number 71
_symmetry_cell_setting 'orthorhombic'
loop_
_space_group_symop_operation_xyz
x,y,z
-x,-y,z
x,-y,-z
-x,y,-z
-x,-y,-z
x,y,-z
-x,y,z
x,-y,z
1/2+x,1/2+y,1/2+z
1/2-x,1/2-y,1/2+z
1/2+x,1/2-y,1/2-z
1/2-x,1/2+y,1/2-z
1/2-x,1/2-y,1/2-z
1/2+x,1/2+y,1/2-z
1/2-x,1/2+y,1/2+z
1/2+x,1/2-y,1/2+z
loop_
_atom_site_type_symbol
_atom_site_label
_atom_site_fract_x
_atom_site_fract_y
_atom_site_fract_z
Si Si1 0.174118 0.378578 0.686744
Si Si2 0.092091 0.738284 0.814083
Si Si3 0.000000 0.932011 0.308856
Si Si4 0.654279 0.359266 0.813261
Si Si5 0.909411 0.500000 0.309099
O O1 0.153787 0.368843 0.500000
O O2 0.135455 0.325129 0.788946
O O3 0.269520 0.380706 0.711548
O O4 0.136725 0.440762 0.753562
O O5 0.137883 0.788360 0.709777
O O6 0.000000 0.733455 0.755862
O O7 0.097661 0.756494 0.000000
O O8 0.078715 0.897230 0.245571
O O9 0.000000 0.931761 0.500000
O O10 0.000000 0.000000 0.240404
O O11 0.670368 0.372225 0.000000
O O12 0.910278 0.500000 0.500000
O O13 0.000000 0.500000 0.239953
#
# Coordination Sequence:
#
# PCOD8292496 Si02
#       5
#    16  16   8  16   8
#     4  11  23  39  62  90 122 158 201 247 300 358
#     4  11  23  40  62  89 122 157 200 252 303 353
#     4   9  20  38  61  89 121 160 201 244 295 355
#     4  11  22  39  63  90 122 159 202 246 298 355
#     4   9  20  40  63  88 119 158 200 244 294 357
#
# _framework density 20.915970000000002
#
# number of rings (size 3 to 8) (size 9 to 14) (size 15 to 20)
#    0.000    1.500    1.250    3.750    1.750    2.500 
#    0.000    1.875    0.000    7.500    0.000    0.000 
#    0.000    0.000    0.000    0.000    0.000    0.000 
#
# Total GULP energy -397021.652433 kJ/mol
# GULP energy per Si atom -12406.926639 kJ/mol
# Density = 2.086836 g / cm^3
# Si number density = 20.915970 Si / 1000 Ang^3
#
#
#
# Elastic Constant Matrix: (Units=GPa)
#
#
# Indices 1 2 3 4 5 6 
#
# 1 162.4397 70.3958 7.1904 0.0000 0.0000 0.0000
# 2 70.3958 164.3600 3.7676 0.0000 0.0000 0.0000
# 3 7.1904 3.7676 37.5371 0.0000 0.0000 0.0000
# 4 0.0000 0.0000 0.0000 10.2509 0.0000 0.0000
# 5 0.0000 0.0000 0.0000 0.0000 9.3729 0.0000
# 6 0.0000 0.0000 0.0000 0.0000 0.0000 33.7145
#
#
#
# Elastic Compliance Matrix: (Units=1/GPa)
#
#
# Indices 1 2 3 4 5 6 
#
# 1 0.007607 -0.003232 -0.001133 0.000000 0.000000 0.000000
# 2 -0.003232 0.007472 -0.000131 0.000000 0.000000 0.000000
# 3 -0.001133 -0.000131 0.026870 0.000000 0.000000 0.000000
# 4 0.000000 0.000000 0.000000 0.097553 0.000000 0.000000
# 5 0.000000 0.000000 0.000000 0.000000 0.106690 0.000000
# 6 0.000000 0.000000 0.000000 0.000000 0.000000 0.029661
#
#
# Mechanical properties :
#
#
# Convention : Reuss Voigt Hill
#
# Bulk Modulus (GPa) = 30.34199 58.56049 44.45124
# Shear Modulus (GPa) = 16.90162 29.53320 23.21741
#
# Velocity S-wave (km/s) = 2.84575 3.76173 3.33533
# Velocity P-wave (km/s) = 5.03347 6.85027 6.01091
#
# Compressibility (1/GPa) = 0.03295763
#
# Stress axis : x y z
#
# Youngs Moduli (GPa) = 131.45852 133.84142 37.21563
#
# Poissons Ratio (x) = 0.43259 0.04216
# Poissons Ratio (y) = 0.42489 0.00487
# Poissons Ratio (z) = 0.14891 0.01751
#
# Static dielectric constant tensor:
#      x y z
#    x 3.954750 0.000000 0.000000 
#    y 0.000000 3.867270 0.000000 
#    z 0.000000 0.000000 3.411510 
# 
# 
# High freq. dielectric constant tensor:
#      x y z
#    x 1.834620 0.000000 0.000000 
#    y 0.000000 1.827700 0.000000 
#    z 0.000000 0.000000 1.798380 
# 
# From -- ./inp_files/5493.got.cif
#   From: 2010.06.25/outbox.cif.g09.slc.cpg/sg71_3_cif.got.tgz:5493.got - 2010.06.28 04:59:45.
