data_PCOD8292131
_publ_section_title
;
Structure prediction by ZEFSAII (Michael W. Deem and Ramdas Pophale) SiO2 
 PCOD8292131
Probable space group: I M M M
;
_chemical_formula_sum "Si O2"
_cell_formula_units_Z 64
_cell_length_a 17.615310
_cell_length_b 14.519480
_cell_length_c 11.690957
_cell_angle_alpha 90.000000
_cell_angle_beta 90.000000
_cell_angle_gamma 90.000000
_cell_volume 2990.139268
_symmetry_space_group_name_H-M "I M M M"
_symmetry_group_IT_number 71
_symmetry_cell_setting 'orthorhombic'
loop_
_space_group_symop_operation_xyz
x,y,z
-x,-y,z
x,-y,-z
-x,y,-z
-x,-y,-z
x,y,-z
-x,y,z
x,-y,z
1/2+x,1/2+y,1/2+z
1/2-x,1/2-y,1/2+z
1/2+x,1/2-y,1/2-z
1/2-x,1/2+y,1/2-z
1/2-x,1/2-y,1/2-z
1/2+x,1/2+y,1/2-z
1/2-x,1/2+y,1/2+z
1/2+x,1/2-y,1/2+z
loop_
_atom_site_type_symbol
_atom_site_label
_atom_site_fract_x
_atom_site_fract_y
_atom_site_fract_z
Si Si1 0.415466 0.105920 0.500000
Si Si2 0.590379 0.603002 0.000000
Si Si3 0.144237 0.604567 0.244067
Si Si4 0.198994 0.104507 0.131243
Si Si5 0.586658 0.291952 0.220314
O O1 0.500000 0.155453 0.500000
O O2 0.364249 0.129318 0.389982
O O3 0.434801 0.000000 0.500000
O O4 0.621027 0.654353 0.111870
O O5 0.623521 0.500000 0.000000
O O6 0.500000 0.603822 0.000000
O O7 0.115847 0.500000 0.271960
O O8 0.229878 0.618235 0.284917
O O9 0.093218 0.682335 0.305789
O O10 0.133853 0.175653 0.168852
O O11 0.168419 0.000000 0.142192
O O12 0.222031 0.125742 0.000000
O O13 0.500000 0.318705 0.242554
#
# Coordination Sequence:
#
# PCOD8292131 Si02
#       5
#     8   8  16  16  16
#     4   9  18  35  61  93 126 160 206 261 307 361
#     4   9  20  39  60  86 119 155 205 264 317 375
#     4  10  22  40  63  92 130 170 209 259 321 386
#     4  10  23  42  63  91 127 169 217 265 318 387
#     4  11  23  39  64  93 125 167 214 270 330 378
#
# _framework density 21.403684999999999
#
# number of rings (size 3 to 8) (size 9 to 14) (size 15 to 20)
#    0.000    2.000    0.000    2.250    3.500    4.500 
#    0.000    3.750    0.000    2.250    0.000    0.000 
#    0.000    0.000    0.000    0.000    0.000    0.000 
#
# Total GULP energy -396650.437752 kJ/mol
# GULP energy per Si atom -12395.326180 kJ/mol
# Density = 2.135497 g / cm^3
# Si number density = 21.403685 Si / 1000 Ang^3
#
#
#
# Elastic Constant Matrix: (Units=GPa)
#
#
# Indices 1 2 3 4 5 6 
#
# 1 100.2002 35.0159 62.3160 0.0000 0.0000 0.0000
# 2 35.0159 139.2555 66.2440 0.0000 0.0000 0.0000
# 3 62.3160 66.2440 133.3869 0.0000 0.0000 0.0000
# 4 0.0000 0.0000 0.0000 26.3948 0.0000 0.0000
# 5 0.0000 0.0000 0.0000 0.0000 24.5252 0.0000
# 6 0.0000 0.0000 0.0000 0.0000 0.0000 30.1733
#
#
#
# Elastic Compliance Matrix: (Units=1/GPa)
#
#
# Indices 1 2 3 4 5 6 
#
# 1 0.014098 -0.000539 -0.006319 0.000000 0.000000 0.000000
# 2 -0.000539 0.009423 -0.004428 0.000000 0.000000 0.000000
# 3 -0.006319 -0.004428 0.012648 0.000000 0.000000 0.000000
# 4 0.000000 0.000000 0.000000 0.037886 0.000000 0.000000
# 5 0.000000 0.000000 0.000000 0.000000 0.040774 0.000000
# 6 0.000000 0.000000 0.000000 0.000000 0.000000 0.033142
#
#
# Mechanical properties :
#
#
# Convention : Reuss Voigt Hill
#
# Bulk Modulus (GPa) = 73.54182 77.77718 75.65950
# Shear Modulus (GPa) = 28.55914 30.16976 29.36445
#
# Velocity S-wave (km/s) = 3.65678 3.75848 3.70798
# Velocity P-wave (km/s) = 7.22934 7.43317 7.33197
#
# Compressibility (1/GPa) = 0.01359771
#
# Stress axis : x y z
#
# Youngs Moduli (GPa) = 70.93163 106.12388 79.06440
#
# Poissons Ratio (x) = 0.05722 0.49958
# Poissons Ratio (y) = 0.03825 0.35008
# Poissons Ratio (z) = 0.44819 0.46990
#
# Static dielectric constant tensor:
#      x y z
#    x 3.514860 0.000000 0.000000 
#    y 0.000000 4.128590 0.000000 
#    z 0.000000 0.000000 4.001490 
# 
# 
# High freq. dielectric constant tensor:
#      x y z
#    x 1.817960 0.000000 0.000000 
#    y 0.000000 1.852690 0.000000 
#    z 0.000000 0.000000 1.837090 
# 
# From -- ./inp_files/23223.got.cif
#   From: 2010.06.25/outbox.cif.g09.slc.cpg/sg71_12_cif.got.tgz:23223.got - 2010.06.28 04:59:45.
