data_PCOD8292777
_publ_section_title
;
Structure prediction by ZEFSAII (Michael W. Deem and Ramdas Pophale) SiO2 
 PCOD8292777
Probable space group: I M M M
;
_chemical_formula_sum "Si O2"
_cell_formula_units_Z 72
_cell_length_a 9.267481
_cell_length_b 12.971510
_cell_length_c 32.935248
_cell_angle_alpha 90.000000
_cell_angle_beta 90.000000
_cell_angle_gamma 90.000000
_cell_volume 3959.252295
_symmetry_space_group_name_H-M "I M M M"
_symmetry_group_IT_number 71
_symmetry_cell_setting 'orthorhombic'
loop_
_space_group_symop_operation_xyz
x,y,z
-x,-y,z
x,-y,-z
-x,y,-z
-x,-y,-z
x,y,-z
-x,y,z
x,-y,z
1/2+x,1/2+y,1/2+z
1/2-x,1/2-y,1/2+z
1/2+x,1/2-y,1/2-z
1/2-x,1/2+y,1/2-z
1/2-x,1/2-y,1/2-z
1/2+x,1/2+y,1/2-z
1/2-x,1/2+y,1/2+z
1/2+x,1/2-y,1/2+z
loop_
_atom_site_type_symbol
_atom_site_label
_atom_site_fract_x
_atom_site_fract_y
_atom_site_fract_z
Si Si1 0.168634 0.298297 0.952786
Si Si2 0.669488 0.682929 0.691681
Si Si3 0.828461 0.884701 0.895802
Si Si4 0.164083 0.387410 0.767114
Si Si5 0.336123 0.500000 0.951746
O O1 0.225843 0.196832 0.929354
O O2 0.254366 0.397761 0.936029
O O3 0.000000 0.318513 0.944608
O O4 0.199676 0.278709 0.000000
O O5 0.500000 0.662576 0.693119
O O6 0.732239 0.649473 0.648139
O O7 0.739924 0.615152 0.726828
O O8 0.709961 0.802942 0.699464
O O9 0.000000 0.884497 0.895008
O O10 0.771627 0.000000 0.906353
O O11 0.182437 0.500000 0.787350
O O12 0.000000 0.367018 0.753410
O O13 0.500000 0.500000 0.935347
O O14 0.332132 0.500000 0.000000
#
# Coordination Sequence:
#
# PCOD8292777 Si02
#       5
#    16  16  16  16   8
#     4   9  17  30  49  73  98 125 159 197 236 279
#     4   9  17  30  47  67  91 121 156 191 230 278
#     4   9  17  29  46  71  99 125 158 197 235 279
#     4   9  17  29  45  66  91 118 152 193 235 277
#     4   9  17  31  51  71  93 123 157 195 239 285
#
# _framework density 18.185251999999998
#
# number of rings (size 3 to 8) (size 9 to 14) (size 15 to 20)
#    0.000    3.000    0.000    1.000    0.000    3.111 
#    2.000    3.333    0.000    2.000    0.000    3.111 
#    0.000    0.000    0.000    0.000    0.000    0.000 
#
# Total GULP energy -446255.223946 kJ/mol
# GULP energy per Si atom -12395.978443 kJ/mol
# Density = 1.814386 g / cm^3
# Si number density = 18.185252 Si / 1000 Ang^3
#
#
#
# Elastic Constant Matrix: (Units=GPa)
#
#
# Indices 1 2 3 4 5 6 
#
# 1 39.5224 38.9031 23.7029 0.0000 0.0000 0.0000
# 2 38.9031 181.6376 64.6776 0.0000 0.0000 0.0000
# 3 23.7029 64.6776 73.1081 0.0000 0.0000 0.0000
# 4 0.0000 0.0000 0.0000 24.9342 0.0000 0.0000
# 5 0.0000 0.0000 0.0000 0.0000 16.3056 0.0000
# 6 0.0000 0.0000 0.0000 0.0000 0.0000 13.5831
#
#
#
# Elastic Compliance Matrix: (Units=1/GPa)
#
#
# Indices 1 2 3 4 5 6 
#
# 1 0.034185 -0.004927 -0.006724 0.000000 0.000000 0.000000
# 2 -0.004927 0.008748 -0.006141 0.000000 0.000000 0.000000
# 3 -0.006724 -0.006141 0.021292 0.000000 0.000000 0.000000
# 4 0.000000 0.000000 0.000000 0.040106 0.000000 0.000000
# 5 0.000000 0.000000 0.000000 0.000000 0.061329 0.000000
# 6 0.000000 0.000000 0.000000 0.000000 0.000000 0.073621
#
#
# Mechanical properties :
#
#
# Convention : Reuss Voigt Hill
#
# Bulk Modulus (GPa) = 34.91809 60.98168 47.94988
# Shear Modulus (GPa) = 17.58016 22.09687 19.83852
#
# Velocity S-wave (km/s) = 3.11260 3.48961 3.30648
# Velocity P-wave (km/s) = 5.67104 7.05995 6.40326
#
# Compressibility (1/GPa) = 0.02863845
#
# Stress axis : x y z
#
# Youngs Moduli (GPa) = 29.25256 114.31667 46.96684
#
# Poissons Ratio (x) = 0.56328 0.31581
# Poissons Ratio (y) = 0.14414 0.28844
# Poissons Ratio (z) = 0.19670 0.70206
#
# Static dielectric constant tensor:
#      x y z
#    x 3.127960 0.000000 0.000000 
#    y 0.000000 3.686290 0.000000 
#    z 0.000000 0.000000 3.217690 
# 
# 
# High freq. dielectric constant tensor:
#      x y z
#    x 1.671850 0.000000 0.000000 
#    y 0.000000 1.723220 0.000000 
#    z 0.000000 0.000000 1.679970 
# 
# From -- ./inp_files/67848.got.cif
#   From: 2010.06.25/outbox.cif.g09.slc.cpg/sg71_34_cif.got.tgz:67848.got - 2010.06.28 04:59:45.
