data_PCOD8292081
_publ_section_title
;
Structure prediction by ZEFSAII (Michael W. Deem and Ramdas Pophale) SiO2 
 PCOD8292081
Probable space group: I M M M
;
_chemical_formula_sum "Si O2"
_cell_formula_units_Z 60
_cell_length_a 19.209218
_cell_length_b 11.659254
_cell_length_c 13.946879
_cell_angle_alpha 90.000000
_cell_angle_beta 90.000000
_cell_angle_gamma 90.000000
_cell_volume 3123.614872
_symmetry_space_group_name_H-M "I M M M"
_symmetry_group_IT_number 71
_symmetry_cell_setting 'orthorhombic'
loop_
_space_group_symop_operation_xyz
x,y,z
-x,-y,z
x,-y,-z
-x,y,-z
-x,-y,-z
x,y,-z
-x,y,z
x,-y,z
1/2+x,1/2+y,1/2+z
1/2-x,1/2-y,1/2+z
1/2+x,1/2-y,1/2-z
1/2-x,1/2+y,1/2-z
1/2-x,1/2-y,1/2-z
1/2+x,1/2+y,1/2-z
1/2-x,1/2+y,1/2+z
1/2+x,1/2-y,1/2+z
loop_
_atom_site_type_symbol
_atom_site_label
_atom_site_fract_x
_atom_site_fract_y
_atom_site_fract_z
Si Si1 0.000000 0.747629 0.107551
Si Si2 0.889940 0.500000 0.659468
Si Si3 0.119949 0.873067 0.215245
Si Si4 0.733252 0.500000 0.615945
Si Si5 0.000000 0.500000 0.822698
Si Si6 0.420683 0.249871 0.893588
O O1 0.930804 0.793304 0.156053
O O2 0.000000 0.610534 0.110133
O O3 0.000000 0.792873 0.000000
O O4 0.806729 0.500000 0.669509
O O5 0.929024 0.500000 0.761022
O O6 0.911690 0.386870 0.601992
O O7 0.131318 0.811791 0.318623
O O8 0.087337 0.000000 0.232034
O O9 0.191874 0.886817 0.154694
O O10 0.739372 0.500000 0.500000
O O11 0.500000 0.277989 0.862212
O O12 0.405017 0.297700 0.000000
#
# Coordination Sequence:
#
# PCOD8292081 Si02
#       6
#     8   8  16   8   4  16
#     4  12  22  40  67  89 123 159 199 249 297 354
#     4  12  20  42  63  87 119 156 200 260 300 358
#     4  10  22  39  58  89 123 161 201 242 296 354
#     4  10  24  39  59  90 120 160 208 243 295 367
#     4  12  23  42  65  94 118 152 205 254 309 350
#     4  11  21  36  62  92 120 155 200 255 307 356
#
# _framework density 19.208514999999998
#
# number of rings (size 3 to 8) (size 9 to 14) (size 15 to 20)
#    0.800    0.267    5.333    2.600    0.000    3.200 
#    0.000    1.333    0.000    1.600    0.000    0.000 
#    0.000    0.000    0.000    0.000    0.000    0.000 
#
# Total GULP energy -371820.012254 kJ/mol
# GULP energy per Si atom -12394.000408 kJ/mol
# Density = 1.916480 g / cm^3
# Si number density = 19.208515 Si / 1000 Ang^3
#
#
#
# Elastic Constant Matrix: (Units=GPa)
#
#
# Indices 1 2 3 4 5 6 
#
# 1 98.3450 10.6998 43.5623 0.0000 0.0000 0.0000
# 2 10.6998 96.1787 35.3826 0.0000 0.0000 0.0000
# 3 43.5623 35.3826 122.6697 0.0000 0.0000 0.0000
# 4 0.0000 0.0000 0.0000 19.2360 0.0000 0.0000
# 5 0.0000 0.0000 0.0000 0.0000 10.1901 0.0000
# 6 0.0000 0.0000 0.0000 0.0000 0.0000 11.7775
#
#
#
# Elastic Compliance Matrix: (Units=1/GPa)
#
#
# Indices 1 2 3 4 5 6 
#
# 1 0.012072 0.000262 -0.004363 0.000000 0.000000 0.000000
# 2 0.000262 0.011637 -0.003450 0.000000 0.000000 0.000000
# 3 -0.004363 -0.003450 0.010696 0.000000 0.000000 0.000000
# 4 0.000000 0.000000 0.000000 0.051986 0.000000 0.000000
# 5 0.000000 0.000000 0.000000 0.000000 0.098134 0.000000
# 6 0.000000 0.000000 0.000000 0.000000 0.000000 0.084908
#
#
# Mechanical properties :
#
#
# Convention : Reuss Voigt Hill
#
# Bulk Modulus (GPa) = 51.80003 55.16477 53.48240
# Shear Modulus (GPa) = 17.18394 23.41062 20.29728
#
# Velocity S-wave (km/s) = 2.99423 3.49487 3.25419
# Velocity P-wave (km/s) = 6.24337 6.71317 6.48253
#
# Compressibility (1/GPa) = 0.01930501
#
# Stress axis : x y z
#
# Youngs Moduli (GPa) = 82.83474 85.93101 93.49086
#
# Poissons Ratio (x) = -0.02251 0.40787
# Poissons Ratio (y) = -0.02170 0.32251
# Poissons Ratio (z) = 0.36138 0.29643
#
# Static dielectric constant tensor:
#      x y z
#    x 3.392920 0.000000 0.000000 
#    y 0.000000 3.504410 0.000000 
#    z 0.000000 0.000000 3.503740 
# 
# 
# High freq. dielectric constant tensor:
#      x y z
#    x 1.727540 0.000000 0.000000 
#    y 0.000000 1.744940 0.000000 
#    z 0.000000 0.000000 1.752520 
# 
# From -- ./inp_files/37496.got.cif
#   From: 2010.06.25/outbox.cif.g09.slc.cpg/sg71_19_cif.got.tgz:37496.got - 2010.06.28 04:59:45.
