data_PCOD8292572
_publ_section_title
;
Structure prediction by ZEFSAII (Michael W. Deem and Ramdas Pophale) SiO2 
 PCOD8292572
Probable space group: I M M M
;
_chemical_formula_sum "Si O2"
_cell_formula_units_Z 80
_cell_length_a 25.227623
_cell_length_b 20.350722
_cell_length_c 8.788085
_cell_angle_alpha 90.000000
_cell_angle_beta 90.000000
_cell_angle_gamma 90.000000
_cell_volume 4511.805848
_symmetry_space_group_name_H-M "I M M M"
_symmetry_group_IT_number 71
_symmetry_cell_setting 'orthorhombic'
loop_
_space_group_symop_operation_xyz
x,y,z
-x,-y,z
x,-y,-z
-x,y,-z
-x,-y,-z
x,y,-z
-x,y,z
x,-y,z
1/2+x,1/2+y,1/2+z
1/2-x,1/2-y,1/2+z
1/2+x,1/2-y,1/2-z
1/2-x,1/2+y,1/2-z
1/2-x,1/2-y,1/2-z
1/2+x,1/2+y,1/2-z
1/2-x,1/2+y,1/2+z
1/2+x,1/2-y,1/2+z
loop_
_atom_site_type_symbol
_atom_site_label
_atom_site_fract_x
_atom_site_fract_y
_atom_site_fract_z
Si Si1 0.114479 0.271006 0.319766
Si Si2 0.000000 0.117810 0.333214
Si Si3 0.500000 0.226547 0.833083
Si Si4 0.719220 0.811021 0.679029
Si Si5 0.114321 0.118899 0.319505
Si Si6 0.782444 0.925608 0.174096
O O1 0.116820 0.283300 0.500000
O O2 0.158692 0.314046 0.236123
O O3 0.125852 0.194997 0.283011
O O4 0.056085 0.293032 0.253642
O O5 0.055778 0.097625 0.254056
O O6 0.000000 0.085489 0.500000
O O7 0.000000 0.195665 0.352393
O O8 0.500000 0.194091 0.000000
O O9 0.721162 0.802733 0.500000
O O10 0.750000 0.750000 0.750000
O O11 0.746021 0.879456 0.723413
O O12 0.117393 0.106420 0.500000
O O13 0.157117 0.075743 0.232010
O O14 0.761513 0.000000 0.189537
O O15 0.780148 0.901521 0.000000
#
# Coordination Sequence:
#
# PCOD8292572 Si02
#       6
#    16   8   8  16  16  16
#     4   9  16  29  51  79 107 137 170 209 252 302
#     4   7  12  24  44  72  99 129 172 213 250 295
#     4   7  12  24  45  74 107 136 165 201 249 301
#     4  12  23  35  54  79 106 137 174 217 261 311
#     4   9  16  29  51  74 100 135 174 215 255 302
#     4  11  24  39  53  72 102 138 176 220 266 312
#
# _framework density 17.731259000000001
#
# number of rings (size 3 to 8) (size 9 to 14) (size 15 to 20)
#    0.000    2.400    2.000    4.800    0.000    1.600 
#    0.000    1.500    0.000    6.600    0.000    0.700 
#    0.000    5.600    0.000    0.000    0.000    0.000 
#
# Total GULP energy -495607.589519 kJ/mol
# GULP energy per Si atom -12390.189738 kJ/mol
# Density = 1.769090 g / cm^3
# Si number density = 17.731259 Si / 1000 Ang^3
#
#
#
# Elastic Constant Matrix: (Units=GPa)
#
#
# Indices 1 2 3 4 5 6 
#
# 1 148.0221 40.5339 44.6273 0.0000 0.0000 0.0000
# 2 40.5339 54.5127 26.0821 0.0000 0.0000 0.0000
# 3 44.6273 26.0821 72.8677 0.0000 0.0000 0.0000
# 4 0.0000 0.0000 0.0000 19.4425 0.0000 0.0000
# 5 0.0000 0.0000 0.0000 0.0000 24.1013 0.0000
# 6 0.0000 0.0000 0.0000 0.0000 0.0000 17.3431
#
#
#
# Elastic Compliance Matrix: (Units=1/GPa)
#
#
# Indices 1 2 3 4 5 6 
#
# 1 0.009316 -0.005065 -0.003893 0.000000 0.000000 0.000000
# 2 -0.005065 0.024889 -0.005807 0.000000 0.000000 0.000000
# 3 -0.003893 -0.005807 0.018186 0.000000 0.000000 0.000000
# 4 0.000000 0.000000 0.000000 0.051434 0.000000 0.000000
# 5 0.000000 0.000000 0.000000 0.000000 0.041492 0.000000
# 6 0.000000 0.000000 0.000000 0.000000 0.000000 0.057660
#
#
# Mechanical properties :
#
#
# Convention : Reuss Voigt Hill
#
# Bulk Modulus (GPa) = 43.73990 55.32101 49.53045
# Shear Modulus (GPa) = 20.82243 23.12131 21.97187
#
# Velocity S-wave (km/s) = 3.43057 3.61499 3.52399
# Velocity P-wave (km/s) = 6.35717 6.97794 6.67478
#
# Compressibility (1/GPa) = 0.02286242
#
# Stress axis : x y z
#
# Youngs Moduli (GPa) = 107.33854 40.17898 54.98704
#
# Poissons Ratio (x) = 0.20350 0.21406
# Poissons Ratio (y) = 0.54364 0.31929
# Poissons Ratio (z) = 0.41785 0.23331
#
# Static dielectric constant tensor:
#      x y z
#    x 3.824660 0.000000 0.000000 
#    y 0.000000 2.874870 0.000000 
#    z 0.000000 0.000000 3.064250 
# 
# 
# High freq. dielectric constant tensor:
#      x y z
#    x 1.707090 0.000000 0.000000 
#    y 0.000000 1.636830 0.000000 
#    z 0.000000 0.000000 1.662090 
# 
# From -- ./inp_files/14623.got.cif
#   From: 2010.06.25/outbox.cif.g09.slc.cpg/sg71_8_cif.got.tgz:14623.got - 2010.06.28 04:59:45.
