data_PCOD8292852
_publ_section_title
;
Structure prediction by ZEFSAII (Michael W. Deem and Ramdas Pophale) SiO2 
 PCOD8292852
Probable space group: I B A M
;
_chemical_formula_sum "Si O2"
_cell_formula_units_Z 64
_cell_length_a 34.365492
_cell_length_b 13.621115
_cell_length_c 8.587845
_cell_angle_alpha 90.000000
_cell_angle_beta 90.000000
_cell_angle_gamma 90.000000
_cell_volume 4019.938629
_symmetry_space_group_name_H-M "I B A M"
_symmetry_group_IT_number 72
_symmetry_cell_setting 'orthorhombic'
loop_
_space_group_symop_operation_xyz
x,y,z
-x,-y,z
x,-y,1/2-z
-x,y,1/2-z
-x,-y,-z
x,y,-z
-x,y,1/2+z
x,-y,1/2+z
1/2+x,1/2+y,1/2+z
1/2-x,1/2-y,1/2+z
1/2+x,1/2-y,-z
1/2-x,1/2+y,-z
1/2-x,1/2-y,1/2-z
1/2+x,1/2+y,1/2-z
1/2-x,1/2+y,z
1/2+x,1/2-y,z
loop_
_atom_site_type_symbol
_atom_site_label
_atom_site_fract_x
_atom_site_fract_y
_atom_site_fract_z
Si Si1 0.882251 0.107453 0.817760
Si Si2 0.538895 0.390572 0.816022
Si Si3 0.689990 0.288564 0.180828
Si Si4 0.269653 0.106824 0.182580
O O1 0.920943 0.158003 0.743421
O O2 0.846417 0.178127 0.782571
O O3 0.873538 0.000000 0.750000
O O4 0.888639 0.096722 0.000000
O O5 0.539498 0.500000 0.750000
O O6 0.500000 0.336455 0.750000
O O7 0.537346 0.390393 0.000000
O O8 0.700632 0.178419 0.229679
O O9 0.725589 0.361226 0.219024
O O10 0.678860 0.291694 0.000000
O O11 0.276978 0.000000 0.250000
O O12 0.278404 0.110061 0.000000
#
# Coordination Sequence:
#
# PCOD8292852 Si02
#       4
#    16  16  16  16
#     4  11  20  30  44  64  90 120 153 187 224 265
#     4  10  17  27  41  59  84 115 149 182 219 262
#     4  10  20  33  48  67  90 117 151 188 225 266
#     4  10  20  33  49  67  89 118 150 186 227 269
#
# _framework density 15.920640000000001
#
# number of rings (size 3 to 8) (size 9 to 14) (size 15 to 20)
#    0.000    1.750    0.000    9.000    0.000    5.000 
#    0.000    0.000    0.000    0.000    0.000    0.000 
#    0.000    1.000    0.000   10.000    0.000    6.000 
#
# Total GULP energy -396808.718382 kJ/mol
# GULP energy per Si atom -12400.272449 kJ/mol
# Density = 1.588440 g / cm^3
# Si number density = 15.920640 Si / 1000 Ang^3
#
#
#
# Elastic Constant Matrix: (Units=GPa)
#
#
# Indices 1 2 3 4 5 6 
#
# 1 111.9129 31.9816 46.0708 0.0000 0.0000 0.0000
# 2 31.9816 68.3652 21.1788 0.0000 0.0000 0.0000
# 3 46.0708 21.1788 121.8026 0.0000 0.0000 0.0000
# 4 0.0000 0.0000 0.0000 22.8525 0.0000 0.0000
# 5 0.0000 0.0000 0.0000 0.0000 30.5144 0.0000
# 6 0.0000 0.0000 0.0000 0.0000 0.0000 18.9886
#
#
#
# Elastic Compliance Matrix: (Units=1/GPa)
#
#
# Indices 1 2 3 4 5 6 
#
# 1 0.011682 -0.004329 -0.003666 0.000000 0.000000 0.000000
# 2 -0.004329 0.017064 -0.001330 0.000000 0.000000 0.000000
# 3 -0.003666 -0.001330 0.009828 0.000000 0.000000 0.000000
# 4 0.000000 0.000000 0.000000 0.043759 0.000000 0.000000
# 5 0.000000 0.000000 0.000000 0.000000 0.032771 0.000000
# 6 0.000000 0.000000 0.000000 0.000000 0.000000 0.052663
#
#
# Mechanical properties :
#
#
# Convention : Reuss Voigt Hill
#
# Bulk Modulus (GPa) = 50.18884 55.61590 52.90237
# Shear Modulus (GPa) = 25.89893 27.99440 26.94666
#
# Velocity S-wave (km/s) = 4.03768 4.19784 4.11854
# Velocity P-wave (km/s) = 7.30273 7.64885 7.47779
#
# Compressibility (1/GPa) = 0.01992475
#
# Stress axis : x y z
#
# Youngs Moduli (GPa) = 85.60360 58.60134 101.75267
#
# Poissons Ratio (x) = 0.25369 0.37300
# Poissons Ratio (y) = 0.37059 0.13530
# Poissons Ratio (z) = 0.31380 0.07792
#
# Static dielectric constant tensor:
#      x y z
#    x 3.676610 0.000000 0.000000 
#    y 0.000000 2.684960 0.000000 
#    z 0.000000 0.000000 3.174860 
# 
# 
# High freq. dielectric constant tensor:
#      x y z
#    x 1.620300 0.000000 0.000000 
#    y 0.000000 1.558350 0.000000 
#    z 0.000000 0.000000 1.637400 
# 
# From -- ./inp_files/2632.got.cif
#   From: 2010.03.12/outbox.cif.g09.slc.cpg/sg72_2_cif.got.tgz:2632.got - 2010.04.16 14:54:00.
