data_PCOD8292421
_publ_section_title
;
Structure prediction by ZEFSAII (Michael W. Deem and Ramdas Pophale) SiO2 
 PCOD8292421
Probable space group: I M M M
;
_chemical_formula_sum "Si O2"
_cell_formula_units_Z 64
_cell_length_a 23.829633
_cell_length_b 16.444825
_cell_length_c 7.781794
_cell_angle_alpha 90.000000
_cell_angle_beta 90.000000
_cell_angle_gamma 90.000000
_cell_volume 3049.483866
_symmetry_space_group_name_H-M "I M M M"
_symmetry_group_IT_number 71
_symmetry_cell_setting 'orthorhombic'
loop_
_space_group_symop_operation_xyz
x,y,z
-x,-y,z
x,-y,-z
-x,y,-z
-x,-y,-z
x,y,-z
-x,y,z
x,-y,z
1/2+x,1/2+y,1/2+z
1/2-x,1/2-y,1/2+z
1/2+x,1/2-y,1/2-z
1/2-x,1/2+y,1/2-z
1/2-x,1/2-y,1/2-z
1/2+x,1/2+y,1/2-z
1/2-x,1/2+y,1/2+z
1/2+x,1/2-y,1/2+z
loop_
_atom_site_type_symbol
_atom_site_label
_atom_site_fract_x
_atom_site_fract_y
_atom_site_fract_z
Si Si1 0.631643 0.826985 0.191835
Si Si2 0.755070 0.406687 0.799938
Si Si3 0.135970 0.149132 0.804141
Si Si4 0.063420 0.000000 0.795227
Si Si5 0.565992 0.093740 0.500000
O O1 0.695304 0.850248 0.233076
O O2 0.627107 0.729764 0.193811
O O3 0.589771 0.866565 0.327765
O O4 0.615387 0.856672 0.000000
O O5 0.770879 0.500000 0.762410
O O6 0.699347 0.382916 0.699183
O O7 0.745179 0.390666 0.000000
O O8 0.095117 0.080059 0.725923
O O9 0.119891 0.169370 0.000000
O O10 0.000000 0.000000 0.725031
O O11 0.065601 0.000000 0.000000
O O12 0.500000 0.106184 0.500000
O O13 0.584067 0.000000 0.500000
#
# Coordination Sequence:
#
# PCOD8292421 Si02
#       5
#    16  16  16   8   8
#     4  12  25  43  69 101 137 175 226 277 340 406
#     4  11  22  38  63  96 138 176 218 282 347 405
#     4  11  21  39  63  97 137 177 228 284 334 396
#     4   9  20  38  63  93 131 184 233 276 330 392
#     4  11  26  50  74  99 135 173 221 282 340 401
#
# _framework density 20.987155999999999
#
# number of rings (size 3 to 8) (size 9 to 14) (size 15 to 20)
#    0.000    1.000    3.750    3.000    0.000    4.500 
#    0.000    1.250    0.000    5.250    0.000    0.000 
#    0.000    0.000    0.000    0.000    0.000    0.000 
#
# Total GULP energy -396982.956835 kJ/mol
# GULP energy per Si atom -12405.717401 kJ/mol
# Density = 2.093939 g / cm^3
# Si number density = 20.987156 Si / 1000 Ang^3
#
#
#
# Elastic Constant Matrix: (Units=GPa)
#
#
# Indices 1 2 3 4 5 6 
#
# 1 120.4447 72.1374 16.5954 0.0000 0.0000 0.0000
# 2 72.1374 147.6643 31.1111 0.0000 0.0000 0.0000
# 3 16.5954 31.1111 92.0922 0.0000 0.0000 0.0000
# 4 0.0000 0.0000 0.0000 12.5213 0.0000 0.0000
# 5 0.0000 0.0000 0.0000 0.0000 24.1096 0.0000
# 6 0.0000 0.0000 0.0000 0.0000 0.0000 16.3067
#
#
#
# Elastic Compliance Matrix: (Units=1/GPa)
#
#
# Indices 1 2 3 4 5 6 
#
# 1 0.011740 -0.005695 -0.000192 0.000000 0.000000 0.000000
# 2 -0.005695 0.010053 -0.002370 0.000000 0.000000 0.000000
# 3 -0.000192 -0.002370 0.011694 0.000000 0.000000 0.000000
# 4 0.000000 0.000000 0.000000 0.079864 0.000000 0.000000
# 5 0.000000 0.000000 0.000000 0.000000 0.041477 0.000000
# 6 0.000000 0.000000 0.000000 0.000000 0.000000 0.061325
#
#
# Mechanical properties :
#
#
# Convention : Reuss Voigt Hill
#
# Bulk Modulus (GPa) = 58.91368 66.65435 62.78402
# Shear Modulus (GPa) = 20.97984 26.61133 23.79558
#
# Velocity S-wave (km/s) = 3.16516 3.56474 3.37087
# Velocity P-wave (km/s) = 6.44126 6.98367 6.71794
#
# Compressibility (1/GPa) = 0.01697398
#
# Stress axis : x y z
#
# Youngs Moduli (GPa) = 85.18117 99.46817 85.51453
#
# Poissons Ratio (x) = 0.56644 0.01640
# Poissons Ratio (y) = 0.48508 0.20268
# Poissons Ratio (z) = 0.01633 0.23575
#
# Static dielectric constant tensor:
#      x y z
#    x 3.736560 0.000000 0.000000 
#    y 0.000000 3.987750 0.000000 
#    z 0.000000 0.000000 3.787050 
# 
# 
# High freq. dielectric constant tensor:
#      x y z
#    x 1.815710 0.000000 0.000000 
#    y 0.000000 1.836960 0.000000 
#    z 0.000000 0.000000 1.822610 
# 
# From -- ./inp_files/14209.got.cif
#   From: 2010.06.25/outbox.cif.g09.slc.cpg/sg71_8_cif.got.tgz:14209.got - 2010.06.28 04:59:45.
