data_PCOD8292177
_publ_section_title
;
Structure prediction by ZEFSAII (Michael W. Deem and Ramdas Pophale) SiO2 
 PCOD8292177
Probable space group: I M M M
;
_chemical_formula_sum "Si O2"
_cell_formula_units_Z 72
_cell_length_a 7.867398
_cell_length_b 16.029486
_cell_length_c 26.796971
_cell_angle_alpha 90.000000
_cell_angle_beta 90.000000
_cell_angle_gamma 90.000000
_cell_volume 3379.375287
_symmetry_space_group_name_H-M "I M M M"
_symmetry_group_IT_number 71
_symmetry_cell_setting 'orthorhombic'
loop_
_space_group_symop_operation_xyz
x,y,z
-x,-y,z
x,-y,-z
-x,y,-z
-x,-y,-z
x,y,-z
-x,y,z
x,-y,z
1/2+x,1/2+y,1/2+z
1/2-x,1/2-y,1/2+z
1/2+x,1/2-y,1/2-z
1/2-x,1/2+y,1/2-z
1/2-x,1/2-y,1/2-z
1/2+x,1/2+y,1/2-z
1/2-x,1/2+y,1/2+z
1/2+x,1/2-y,1/2+z
loop_
_atom_site_type_symbol
_atom_site_label
_atom_site_fract_x
_atom_site_fract_y
_atom_site_fract_z
Si Si1 0.802993 0.000000 0.393328
Si Si2 0.801211 0.334960 0.723856
Si Si3 0.703239 0.000000 0.720564
Si Si4 0.306734 0.174739 0.110659
Si Si5 0.304889 0.167748 0.442769
Si Si6 0.500000 0.403067 0.554246
O O1 0.782145 0.000000 0.334122
O O2 0.710874 0.921554 0.417561
O O3 0.000000 0.000000 0.407789
O O4 0.750000 0.250000 0.750000
O O5 0.726038 0.417492 0.750862
O O6 0.738490 0.328468 0.667148
O O7 0.000000 0.344184 0.725339
O O8 0.500000 0.000000 0.716993
O O9 0.500000 0.139804 0.106403
O O10 0.307586 0.268550 0.089366
O O11 0.175857 0.118961 0.080584
O O12 0.241164 0.164326 0.500000
O O13 0.500000 0.197817 0.440035
O O14 0.500000 0.500000 0.547445
O O15 0.500000 0.358629 0.500000
#
# Coordination Sequence:
#
# PCOD8292177 Si02
#       6
#     8  16   8  16  16   8
#     4  12  25  39  58  95 134 170 223 272 323 393
#     4  10  23  40  63  95 128 170 222 272 328 396
#     4  10  22  43  65  86 126 174 216 265 329 392
#     4  11  24  43  69  99 134 172 222 275 330 393
#     4  11  23  41  65  93 128 174 222 268 328 393
#     4  11  26  46  68  99 133 171 223 274 336 403
#
# _framework density 21.305712
#
# number of rings (size 3 to 8) (size 9 to 14) (size 15 to 20)
#    0.000    1.222    1.111    4.000    3.111    9.333 
#    0.000    1.111    0.000    0.000    0.000    0.000 
#    0.000    0.000    0.000    0.000    0.000    0.000 
#
# Total GULP energy -446462.125088 kJ/mol
# GULP energy per Si atom -12401.725697 kJ/mol
# Density = 2.125722 g / cm^3
# Si number density = 21.305712 Si / 1000 Ang^3
#
#
#
# Elastic Constant Matrix: (Units=GPa)
#
#
# Indices 1 2 3 4 5 6 
#
# 1 83.4253 11.2652 36.0045 0.0000 0.0000 0.0000
# 2 11.2652 124.6443 61.2183 0.0000 0.0000 0.0000
# 3 36.0045 61.2183 187.4259 0.0000 0.0000 0.0000
# 4 0.0000 0.0000 0.0000 43.0304 0.0000 0.0000
# 5 0.0000 0.0000 0.0000 0.0000 31.3826 0.0000
# 6 0.0000 0.0000 0.0000 0.0000 0.0000 26.8747
#
#
#
# Elastic Compliance Matrix: (Units=1/GPa)
#
#
# Indices 1 2 3 4 5 6 
#
# 1 0.013071 0.000062 -0.002531 0.000000 0.000000 0.000000
# 2 0.000062 0.009556 -0.003133 0.000000 0.000000 0.000000
# 3 -0.002531 -0.003133 0.006845 0.000000 0.000000 0.000000
# 4 0.000000 0.000000 0.000000 0.023239 0.000000 0.000000
# 5 0.000000 0.000000 0.000000 0.000000 0.031865 0.000000
# 6 0.000000 0.000000 0.000000 0.000000 0.000000 0.037210
#
#
# Mechanical properties :
#
#
# Convention : Reuss Voigt Hill
#
# Bulk Modulus (GPa) = 54.74339 68.05241 61.39790
# Shear Modulus (GPa) = 35.95060 39.39135 37.67097
#
# Velocity S-wave (km/s) = 4.11222 4.30451 4.20946
# Velocity P-wave (km/s) = 6.94961 7.53096 7.24612
#
# Compressibility (1/GPa) = 0.01826704
#
# Stress axis : x y z
#
# Youngs Moduli (GPa) = 76.50644 104.64556 146.09136
#
# Poissons Ratio (x) = -0.00647 0.36977
# Poissons Ratio (y) = -0.00473 0.45772
# Poissons Ratio (z) = 0.19364 0.32787
#
# Static dielectric constant tensor:
#      x y z
#    x 3.071620 0.000000 0.000000 
#    y 0.000000 4.052890 0.000000 
#    z 0.000000 0.000000 4.734750 
# 
# 
# High freq. dielectric constant tensor:
#      x y z
#    x 1.834700 0.000000 0.000000 
#    y 0.000000 1.845070 0.000000 
#    z 0.000000 0.000000 1.853660 
# 
# From -- ./inp_files/62918.got.cif
#   From: 2010.06.25/outbox.cif.g09.slc.cpg/sg71_32_cif.got.tgz:62918.got - 2010.06.28 04:59:45.
