data_PCOD8292457
_publ_section_title
;
Structure prediction by ZEFSAII (Michael W. Deem and Ramdas Pophale) SiO2 
 PCOD8292457
Probable space group: I M M M
;
_chemical_formula_sum "Si O2"
_cell_formula_units_Z 72
_cell_length_a 8.464365
_cell_length_b 16.785506
_cell_length_c 24.808036
_cell_angle_alpha 90.000000
_cell_angle_beta 90.000000
_cell_angle_gamma 90.000000
_cell_volume 3524.692251
_symmetry_space_group_name_H-M "I M M M"
_symmetry_group_IT_number 71
_symmetry_cell_setting 'orthorhombic'
loop_
_space_group_symop_operation_xyz
x,y,z
-x,-y,z
x,-y,-z
-x,y,-z
-x,-y,-z
x,y,-z
-x,y,z
x,-y,z
1/2+x,1/2+y,1/2+z
1/2-x,1/2-y,1/2+z
1/2+x,1/2-y,1/2-z
1/2-x,1/2+y,1/2-z
1/2-x,1/2-y,1/2-z
1/2+x,1/2+y,1/2-z
1/2-x,1/2+y,1/2+z
1/2+x,1/2-y,1/2+z
loop_
_atom_site_type_symbol
_atom_site_label
_atom_site_fract_x
_atom_site_fract_y
_atom_site_fract_z
Si Si1 0.681246 0.588028 0.752590
Si Si2 0.687906 0.088844 0.559063
Si Si3 0.184805 0.693511 0.844769
Si Si4 0.187612 0.500000 0.561359
Si Si5 0.316178 0.866070 0.143405
O O1 0.500000 0.602510 0.736103
O O2 0.703793 0.500000 0.779260
O O3 0.730616 0.659254 0.792013
O O4 0.787933 0.588238 0.699227
O O5 0.748138 0.116264 0.500000
O O6 0.500000 0.090193 0.560107
O O7 0.757206 0.147890 0.603688
O O8 0.749436 0.000000 0.571536
O O9 0.215555 0.785808 0.854436
O O10 0.000000 0.677809 0.837849
O O11 0.255837 0.500000 0.500000
O O12 0.244199 0.579022 0.593590
O O13 0.000000 0.500000 0.560201
O O14 0.500000 0.845666 0.136914
#
# Coordination Sequence:
#
# PCOD8292457 Si02
#       5
#    16  16  16   8  16
#     4  11  23  39  60  85 117 152 191 240 293 348
#     4   8  15  30  52  78 110 148 188 230 276 331
#     4  11  22  35  56  87 120 153 193 237 289 349
#     4   9  20  40  65  89 113 151 200 247 298 355
#     4  11  22  39  61  84 114 151 193 240 291 348
#
# _framework density 20.427315
#
# number of rings (size 3 to 8) (size 9 to 14) (size 15 to 20)
#    0.000    1.889    1.111    4.000    0.000    3.111 
#    0.000    0.000    0.000    6.667    0.000    7.778 
#    0.000    0.000    0.000    0.000    0.000    0.000 
#
# Total GULP energy -446348.440749 kJ/mol
# GULP energy per Si atom -12398.567799 kJ/mol
# Density = 2.038082 g / cm^3
# Si number density = 20.427315 Si / 1000 Ang^3
#
#
#
# Elastic Constant Matrix: (Units=GPa)
#
#
# Indices 1 2 3 4 5 6 
#
# 1 35.8785 9.7558 12.3743 0.0000 0.0000 0.0000
# 2 9.7558 126.9693 64.6963 0.0000 0.0000 0.0000
# 3 12.3743 64.6963 145.9332 0.0000 0.0000 0.0000
# 4 0.0000 0.0000 0.0000 28.4907 0.0000 0.0000
# 5 0.0000 0.0000 0.0000 0.0000 13.0419 0.0000
# 6 0.0000 0.0000 0.0000 0.0000 0.0000 10.8769
#
#
#
# Elastic Compliance Matrix: (Units=1/GPa)
#
#
# Indices 1 2 3 4 5 6 
#
# 1 0.028865 -0.001254 -0.001892 0.000000 0.000000 0.000000
# 2 -0.001254 0.010229 -0.004428 0.000000 0.000000 0.000000
# 3 -0.001892 -0.004428 0.008976 0.000000 0.000000 0.000000
# 4 0.000000 0.000000 0.000000 0.035099 0.000000 0.000000
# 5 0.000000 0.000000 0.000000 0.000000 0.076676 0.000000
# 6 0.000000 0.000000 0.000000 0.000000 0.000000 0.091938
#
#
# Mechanical properties :
#
#
# Convention : Reuss Voigt Hill
#
# Bulk Modulus (GPa) = 30.37484 53.60375 41.98929
# Shear Modulus (GPa) = 17.99177 25.27889 21.63533
#
# Velocity S-wave (km/s) = 2.97100 3.52163 3.25797
# Velocity P-wave (km/s) = 5.16441 6.54477 5.89513
#
# Compressibility (1/GPa) = 0.03292199
#
# Stress axis : x y z
#
# Youngs Moduli (GPa) = 34.64376 97.76415 111.40750
#
# Poissons Ratio (x) = 0.12260 0.21075
# Poissons Ratio (y) = 0.04344 0.49335
# Poissons Ratio (z) = 0.06553 0.43293
#
# Static dielectric constant tensor:
#      x y z
#    x 3.337760 0.000000 0.000000 
#    y 0.000000 3.785250 0.000000 
#    z 0.000000 0.000000 4.024300 
# 
# 
# High freq. dielectric constant tensor:
#      x y z
#    x 1.770950 0.000000 0.000000 
#    y 0.000000 1.807490 0.000000 
#    z 0.000000 0.000000 1.802330 
# 
# From -- ./inp_files/12193.got.cif
#   From: 2010.06.25/outbox.cif.g09.slc.cpg/sg71_7_cif.got.tgz:12193.got - 2010.06.28 04:59:45.
