data_PCOD8292423
_publ_section_title
;
Structure prediction by ZEFSAII (Michael W. Deem and Ramdas Pophale) SiO2 
 PCOD8292423
Probable space group: I M M M
;
_chemical_formula_sum "Si O2"
_cell_formula_units_Z 88
_cell_length_a 24.454676
_cell_length_b 10.105054
_cell_length_c 18.617802
_cell_angle_alpha 90.000000
_cell_angle_beta 90.000000
_cell_angle_gamma 90.000000
_cell_volume 4600.753436
_symmetry_space_group_name_H-M "I M M M"
_symmetry_group_IT_number 71
_symmetry_cell_setting 'orthorhombic'
loop_
_space_group_symop_operation_xyz
x,y,z
-x,-y,z
x,-y,-z
-x,y,-z
-x,-y,-z
x,y,-z
-x,y,z
x,-y,z
1/2+x,1/2+y,1/2+z
1/2-x,1/2-y,1/2+z
1/2+x,1/2-y,1/2-z
1/2-x,1/2+y,1/2-z
1/2-x,1/2-y,1/2-z
1/2+x,1/2+y,1/2-z
1/2-x,1/2+y,1/2+z
1/2+x,1/2-y,1/2+z
loop_
_atom_site_type_symbol
_atom_site_label
_atom_site_fract_x
_atom_site_fract_y
_atom_site_fract_z
Si Si1 0.402451 0.744735 0.176938
Si Si2 0.328358 0.500000 0.171786
Si Si3 0.333267 0.000000 0.214643
Si Si4 0.787497 0.000000 0.833370
Si Si5 0.706634 0.000000 0.375752
Si Si6 0.658801 0.268924 0.418813
Si Si7 0.000000 0.653668 0.415024
Si Si8 0.561915 0.652144 0.670970
O O1 0.362601 0.629079 0.149495
O O2 0.445966 0.775829 0.115108
O O3 0.434894 0.700964 0.247631
O O4 0.366588 0.871615 0.193762
O O5 0.317064 0.500000 0.256702
O O6 0.272098 0.500000 0.128132
O O7 0.321398 0.000000 0.298543
O O8 0.277382 0.000000 0.170980
O O9 0.803105 0.868023 0.875033
O O10 0.687164 0.873034 0.419590
O O11 0.651648 0.319437 0.500000
O O12 0.599389 0.260673 0.381505
O O13 0.000000 0.500000 0.391888
O O14 0.000000 0.670523 0.500000
O O15 0.500000 0.667275 0.644026
O O16 0.581832 0.500000 0.666325
#
# Coordination Sequence:
#
# PCOD8292423 Si02
#       8
#    16   8   8   8   8  16   8  16
#     4  12  20  40  67  97 122 159 207 261 308 367
#     4  11  22  39  67  94 126 155 209 269 304 357
#     4  11  22  35  67  96 116 157 219 265 300 355
#     4  11  21  40  61  94 121 163 214 259 302 365
#     4  11  23  40  61  92 129 161 208 259 310 363
#     4  12  23  40  60  88 131 170 203 249 314 375
#     4  11  26  45  65  93 130 167 200 256 324 370
#     4  11  22  38  64  97 124 157 210 262 306 357
#
# _framework density 19.127300000000002
#
# number of rings (size 3 to 8) (size 9 to 14) (size 15 to 20)
#    0.000    0.636    7.273    1.636    0.000    3.636 
#    0.000    8.636    0.000    1.091    0.000    0.000 
#    0.000    0.000    0.000    0.000    0.000    0.000 
#
# Total GULP energy -545865.778109 kJ/mol
# GULP energy per Si atom -12406.040412 kJ/mol
# Density = 1.908377 g / cm^3
# Si number density = 19.127300 Si / 1000 Ang^3
#
#
#
# Elastic Constant Matrix: (Units=GPa)
#
#
# Indices 1 2 3 4 5 6 
#
# 1 133.6167 53.3184 42.9189 0.0000 0.0000 0.0000
# 2 53.3184 125.0874 18.1018 0.0000 0.0000 0.0000
# 3 42.9189 18.1018 87.7744 0.0000 0.0000 0.0000
# 4 0.0000 0.0000 0.0000 -1.6656 0.0000 0.0000
# 5 0.0000 0.0000 0.0000 0.0000 22.6736 0.0000
# 6 0.0000 0.0000 0.0000 0.0000 0.0000 22.5092
#
#
#
# Elastic Compliance Matrix: (Units=1/GPa)
#
#
# Indices 1 2 3 4 5 6 
#
# 1 0.010380 -0.003804 -0.004291 0.000000 0.000000 0.000000
# 2 -0.003804 0.009634 -0.000127 0.000000 0.000000 0.000000
# 3 -0.004291 -0.000127 0.013517 0.000000 0.000000 0.000000
# 4 0.000000 0.000000 0.000000 -0.600389 0.000000 0.000000
# 5 0.000000 0.000000 0.000000 0.000000 0.044104 0.000000
# 6 0.000000 0.000000 0.000000 0.000000 0.000000 0.044426
#
#
# Mechanical properties :
#
#
# Convention : Reuss Voigt Hill
#
# Bulk Modulus (GPa) = 58.52048 63.90629 61.21338
# Shear Modulus (GPa) = -10.96041 24.17940 6.60950
#
# Velocity S-wave (km/s) = -2.39639 3.55932 1.86092
# Velocity P-wave (km/s) = 4.79633 7.09755 6.05723
#
# Compressibility (1/GPa) = 0.01708803
#
# Stress axis : x y z
#
# Youngs Moduli (GPa) = 96.33680 103.79838 73.97928
#
# Poissons Ratio (x) = 0.39481 0.31746
# Poissons Ratio (y) = 0.36642 0.00940
# Poissons Ratio (z) = 0.41340 0.01318
#
# Static dielectric constant tensor:
#      x y z
#    x 3.626940 0.000000 0.000000 
#    y 0.000000 3.545840 0.000000 
#    z 0.000000 0.000000 3.347070 
# 
# 
# High freq. dielectric constant tensor:
#      x y z
#    x 1.760880 0.000000 0.000000 
#    y 0.000000 1.755110 0.000000 
#    z 0.000000 0.000000 1.729020 
# 
# From -- ./inp_files/49317.got.cif
#   From: 2010.06.25/outbox.cif.g09.slc.cpg/sg71_25_cif.got.tgz:49317.got - 2010.06.28 04:59:45.
