data_PCOD8292648
_publ_section_title
;
Structure prediction by ZEFSAII (Michael W. Deem and Ramdas Pophale) SiO2 
 PCOD8292648
Probable space group: I M M M
;
_chemical_formula_sum "Si O2"
_cell_formula_units_Z 72
_cell_length_a 9.693458
_cell_length_b 32.232770
_cell_length_c 13.266321
_cell_angle_alpha 90.000000
_cell_angle_beta 90.000000
_cell_angle_gamma 90.000000
_cell_volume 4145.022227
_symmetry_space_group_name_H-M "I M M M"
_symmetry_group_IT_number 71
_symmetry_cell_setting 'orthorhombic'
loop_
_space_group_symop_operation_xyz
x,y,z
-x,-y,z
x,-y,-z
-x,y,-z
-x,-y,-z
x,y,-z
-x,y,z
x,-y,z
1/2+x,1/2+y,1/2+z
1/2-x,1/2-y,1/2+z
1/2+x,1/2-y,1/2-z
1/2-x,1/2+y,1/2-z
1/2-x,1/2-y,1/2-z
1/2+x,1/2+y,1/2-z
1/2-x,1/2+y,1/2+z
1/2+x,1/2-y,1/2+z
loop_
_atom_site_type_symbol
_atom_site_label
_atom_site_fract_x
_atom_site_fract_y
_atom_site_fract_z
Si Si1 0.160983 0.689485 0.299967
Si Si2 0.164343 0.547124 0.500000
Si Si3 0.335963 0.046804 0.388663
Si Si4 0.844386 0.742889 0.111954
Si Si5 0.164375 0.595510 0.696571
O O1 0.192967 0.705502 0.187138
O O2 0.243499 0.717991 0.377807
O O3 0.216346 0.642744 0.309876
O O4 0.000000 0.692241 0.327180
O O5 0.220031 0.500000 0.500000
O O6 0.220387 0.570423 0.599644
O O7 0.000000 0.547422 0.500000
O O8 0.287146 0.062354 0.500000
O O9 0.500000 0.047549 0.384321
O O10 0.275102 0.075537 0.299581
O O11 0.283220 0.000000 0.370474
O O12 0.000000 0.758553 0.132589
O O13 0.828683 0.724526 0.000000
O O14 0.000000 0.594167 0.699154
#
# Coordination Sequence:
#
# PCOD8292648 Si02
#       5
#    16   8  16  16  16
#     4   9  18  30  45  67  89 112 147 187 222 259
#     4   9  16  24  34  52  83 117 139 165 213 263
#     4   8  13  21  33  50  76 111 143 168 203 255
#     4   9  18  32  47  62  86 118 147 179 224 273
#     4   9  16  24  36  56  81 109 141 176 211 252
#
# _framework density 17.370232000000001
#
# number of rings (size 3 to 8) (size 9 to 14) (size 15 to 20)
#    0.000    3.222    0.000    1.333    1.556    4.000 
#    0.000    4.444    0.000    0.000    0.000    0.000 
#    0.000    4.444    0.000    2.444    0.000    2.222 
#
# Total GULP energy -446216.084086 kJ/mol
# GULP energy per Si atom -12394.891225 kJ/mol
# Density = 1.733070 g / cm^3
# Si number density = 17.370232 Si / 1000 Ang^3
#
#
#
# Elastic Constant Matrix: (Units=GPa)
#
#
# Indices 1 2 3 4 5 6 
#
# 1 18.4682 19.6268 14.2250 0.0000 0.0001 0.0000
# 2 19.6268 135.2556 64.1101 0.0000 0.0000 -0.0001
# 3 14.2250 64.1101 131.1439 0.0009 -0.0002 -0.0003
# 4 0.0000 0.0000 0.0009 20.2967 -0.0003 -0.0002
# 5 0.0001 0.0000 -0.0002 -0.0003 10.2129 0.0001
# 6 0.0000 -0.0001 -0.0003 -0.0002 0.0001 11.2607
#
#
#
# Elastic Compliance Matrix: (Units=1/GPa)
#
#
# Indices 1 2 3 4 5 6 
#
# 1 0.065021 -0.007930 -0.003176 0.000000 -0.000001 0.000000
# 2 -0.007930 0.010590 -0.004317 0.000000 0.000000 0.000000
# 3 -0.003176 -0.004317 0.010080 0.000000 0.000000 0.000000
# 4 0.000000 0.000000 0.000000 0.049269 0.000002 0.000001
# 5 -0.000001 0.000000 0.000000 0.000002 0.097915 -0.000001
# 6 0.000000 0.000000 0.000000 0.000001 -0.000001 0.088805
#
#
# Mechanical properties :
#
#
# Convention : Reuss Voigt Hill
#
# Bulk Modulus (GPa) = 18.23308 53.42128 35.82718
# Shear Modulus (GPa) = 13.48409 20.81445 17.14927
#
# Velocity S-wave (km/s) = 2.78920 3.46538 3.14551
# Velocity P-wave (km/s) = 4.57081 6.84347 5.81917
#
# Compressibility (1/GPa) = 0.05484537
#
# Stress axis : x y z
#
# Youngs Moduli (GPa) = 15.37972 94.42632 99.20530
#
# Poissons Ratio (x) = 0.74876 0.31511
# Poissons Ratio (y) = 0.12195 0.42827
# Poissons Ratio (z) = 0.04885 0.40764
#
# Static dielectric constant tensor:
#      x y z
#    x 2.649760 0.000000 0.000000 
#    y 0.000000 3.314830 0.000000 
#    z 0.000000 0.000000 3.517940 
# 
# 
# High freq. dielectric constant tensor:
#      x y z
#    x 1.596130 0.000000 0.000000 
#    y 0.000000 1.669750 0.000000 
#    z 0.000000 0.000000 1.688320 
# 
# From -- ./inp_files/6475.got.cif
#   From: 2010.06.25/outbox.cif.g09.slc.cpg/sg71_4_cif.got.tgz:6475.got - 2010.06.28 04:59:45.
