data_PCOD8292185
_publ_section_title
;
Structure prediction by ZEFSAII (Michael W. Deem and Ramdas Pophale) SiO2 
 PCOD8292185
Probable space group: I M M M
;
_chemical_formula_sum "Si O2"
_cell_formula_units_Z 72
_cell_length_a 7.570848
_cell_length_b 15.984025
_cell_length_c 28.085629
_cell_angle_alpha 90.000000
_cell_angle_beta 90.000000
_cell_angle_gamma 90.000000
_cell_volume 3398.715654
_symmetry_space_group_name_H-M "I M M M"
_symmetry_group_IT_number 71
_symmetry_cell_setting 'orthorhombic'
loop_
_space_group_symop_operation_xyz
x,y,z
-x,-y,z
x,-y,-z
-x,y,-z
-x,-y,-z
x,y,-z
-x,y,z
x,-y,z
1/2+x,1/2+y,1/2+z
1/2-x,1/2-y,1/2+z
1/2+x,1/2-y,1/2-z
1/2-x,1/2+y,1/2-z
1/2-x,1/2-y,1/2-z
1/2+x,1/2+y,1/2-z
1/2-x,1/2+y,1/2+z
1/2+x,1/2-y,1/2+z
loop_
_atom_site_type_symbol
_atom_site_label
_atom_site_fract_x
_atom_site_fract_y
_atom_site_fract_z
Si Si1 0.500000 0.500000 0.571561
Si Si2 0.000000 0.850165 0.000000
Si Si3 0.207295 0.500000 0.647184
Si Si4 0.791648 0.647245 0.715208
Si Si5 0.709423 0.406279 0.089031
Si Si6 0.710014 0.708132 0.000000
Si Si7 0.798687 0.175462 0.684253
O O1 0.500000 0.412263 0.544402
O O2 0.316786 0.500000 0.599393
O O3 0.822668 0.793506 0.000000
O O4 0.267014 0.420503 0.677318
O O5 0.000000 0.500000 0.634680
O O6 0.709189 0.734865 0.696370
O O7 0.717250 0.621205 0.767305
O O8 0.000000 0.653025 0.720041
O O9 0.500000 0.412206 0.091881
O O10 0.785886 0.500000 0.080913
O O11 0.765847 0.345894 0.046020
O O12 0.790116 0.369834 0.138671
O O13 0.500000 0.729455 0.000000
O O14 0.000000 0.190692 0.669930
#
# Coordination Sequence:
#
# PCOD8292185 Si02
#       7
#     4   4   8  16  16   8  16
#     4  11  28  48  68  98 128 166 210 271 336 382
#     4  11  28  50  67 102 130 150 225 274 310 413
#     4  10  23  41  67  94 128 165 209 265 317 389
#     4   9  19  35  52  83 123 161 208 254 306 378
#     4   9  18  34  59  91 122 162 214 260 311 385
#     4  10  22  43  71  93 125 171 205 265 332 378
#     4   9  18  32  54  84 120 162 210 254 305 374
#
# _framework density 21.184472
#
# number of rings (size 3 to 8) (size 9 to 14) (size 15 to 20)
#    0.000    2.556    0.000    0.333    6.222    2.222 
#    2.000    2.222    0.000    0.000    0.000    0.000 
#    0.000    0.000    0.000    0.000    0.000    0.000 
#
# Total GULP energy -446195.265583 kJ/mol
# GULP energy per Si atom -12394.312933 kJ/mol
# Density = 2.113625 g / cm^3
# Si number density = 21.184472 Si / 1000 Ang^3
#
#
#
# Elastic Constant Matrix: (Units=GPa)
#
#
# Indices 1 2 3 4 5 6 
#
# 1 52.4913 38.7522 37.1457 0.0000 0.0000 0.0000
# 2 38.7522 153.6210 96.2273 0.0000 0.0000 0.0000
# 3 37.1457 96.2273 189.8983 0.0000 0.0000 0.0000
# 4 0.0000 0.0000 0.0000 -34.2994 0.0000 0.0000
# 5 0.0000 0.0000 0.0000 0.0000 26.9584 0.0000
# 6 0.0000 0.0000 0.0000 0.0000 0.0000 4.7051
#
#
#
# Elastic Compliance Matrix: (Units=1/GPa)
#
#
# Indices 1 2 3 4 5 6 
#
# 1 0.024133 -0.004587 -0.002396 0.000000 0.000000 0.000000
# 2 -0.004587 0.010408 -0.004377 0.000000 0.000000 0.000000
# 3 -0.002396 -0.004377 0.007953 0.000000 0.000000 0.000000
# 4 0.000000 0.000000 0.000000 -0.029155 0.000000 0.000000
# 5 0.000000 0.000000 0.000000 0.000000 0.037094 0.000000
# 6 0.000000 0.000000 0.000000 0.000000 0.000000 0.212537
#
#
# Mechanical properties :
#
#
# Convention : Reuss Voigt Hill
#
# Bulk Modulus (GPa) = 50.57232 82.25124 66.41178
# Shear Modulus (GPa) = 17.10683 14.39849 15.75266
#
# Velocity S-wave (km/s) = 2.84477 2.60988 2.72985
# Velocity P-wave (km/s) = 5.89190 6.92766 6.43066
#
# Compressibility (1/GPa) = 0.01977366
#
# Stress axis : x y z
#
# Youngs Moduli (GPa) = 41.43757 96.07737 125.74341
#
# Poissons Ratio (x) = 0.44067 0.30133
# Poissons Ratio (y) = 0.19006 0.55038
# Poissons Ratio (z) = 0.09930 0.42053
#
# Static dielectric constant tensor:
#      x y z
#    x 3.460530 0.000000 0.000000 
#    y 0.000000 4.170930 0.000000 
#    z 0.000000 0.000000 3.999310 
# 
# 
# High freq. dielectric constant tensor:
#      x y z
#    x 1.809890 0.000000 0.000000 
#    y 0.000000 1.831990 0.000000 
#    z 0.000000 0.000000 1.837840 
# 
# From -- ./inp_files/62928.got.cif
#   From: 2010.06.25/outbox.cif.g09.slc.cpg/sg71_32_cif.got.tgz:62928.got - 2010.06.28 04:59:45.
