data_PCOD8292342
_publ_section_title
;
Structure prediction by ZEFSAII (Michael W. Deem and Ramdas Pophale) SiO2 
 PCOD8292342
Probable space group: I M M M
;
_chemical_formula_sum "Si O2"
_cell_formula_units_Z 96
_cell_length_a 13.533231
_cell_length_b 17.254187
_cell_length_c 23.704981
_cell_angle_alpha 90.000000
_cell_angle_beta 90.000000
_cell_angle_gamma 90.000000
_cell_volume 5535.229180
_symmetry_space_group_name_H-M "I M M M"
_symmetry_group_IT_number 71
_symmetry_cell_setting 'orthorhombic'
loop_
_space_group_symop_operation_xyz
x,y,z
-x,-y,z
x,-y,-z
-x,y,-z
-x,-y,-z
x,y,-z
-x,y,z
x,-y,z
1/2+x,1/2+y,1/2+z
1/2-x,1/2-y,1/2+z
1/2+x,1/2-y,1/2-z
1/2-x,1/2+y,1/2-z
1/2-x,1/2-y,1/2-z
1/2+x,1/2+y,1/2-z
1/2-x,1/2+y,1/2+z
1/2+x,1/2-y,1/2+z
loop_
_atom_site_type_symbol
_atom_site_label
_atom_site_fract_x
_atom_site_fract_y
_atom_site_fract_z
Si Si1 0.112252 0.679703 0.338150
Si Si2 0.798440 0.088858 0.164576
Si Si3 0.885600 0.826875 0.268790
Si Si4 0.884310 0.911125 0.618988
Si Si5 0.299864 0.272303 0.936269
Si Si6 0.112888 0.823874 0.064628
O O1 0.180931 0.603717 0.339491
O O2 0.140484 0.738690 0.287061
O O3 0.124993 0.725528 0.396705
O O4 0.000000 0.651158 0.332496
O O5 0.833200 0.149576 0.211363
O O6 0.853803 0.106250 0.105613
O O7 0.819009 0.000000 0.181196
O O8 0.854528 0.886612 0.317792
O O9 0.000000 0.834589 0.256307
O O10 0.816645 0.863413 0.575098
O O11 0.000000 0.894264 0.607978
O O12 0.857589 0.000000 0.609699
O O13 0.185261 0.249420 0.924115
O O14 0.328289 0.251852 0.000000
O O15 0.000000 0.798699 0.077670
O O16 0.122679 0.853173 0.000000
#
# Coordination Sequence:
#
# PCOD8292342 Si02
#       6
#    16  16  16  16  16  16
#     4   9  19  34  49  67  94 126 156 188 225 266
#     4  11  21  31  49  74  95 119 152 190 233 279
#     4   9  17  31  50  69  91 121 156 189 223 269
#     4   9  17  28  44  70 102 128 149 185 236 277
#     4   9  17  30  49  70  91 121 160 192 223 272
#     4   9  19  35  51  67  90 120 154 194 237 277
#
# _framework density 17.343456
#
# number of rings (size 3 to 8) (size 9 to 14) (size 15 to 20)
#    0.000    2.667    0.000    3.000    0.000    4.333 
#    0.000    1.667    0.000    0.500    0.000    7.000 
#    0.000    0.000    0.000    0.000    0.000    0.000 
#
# Total GULP energy -595018.696828 kJ/mol
# GULP energy per Si atom -12396.222851 kJ/mol
# Density = 1.730398 g / cm^3
# Si number density = 17.343456 Si / 1000 Ang^3
#
#
#
# Elastic Constant Matrix: (Units=GPa)
#
#
# Indices 1 2 3 4 5 6 
#
# 1 73.5860 26.5706 31.6689 0.0000 0.0000 0.0000
# 2 26.5706 52.7016 18.8038 0.0000 0.0000 0.0000
# 3 31.6689 18.8038 82.3373 0.0000 0.0000 0.0000
# 4 0.0000 0.0000 0.0000 17.2062 0.0000 0.0000
# 5 0.0000 0.0000 0.0000 0.0000 22.1149 0.0000
# 6 0.0000 0.0000 0.0000 0.0000 0.0000 19.5808
#
#
#
# Elastic Compliance Matrix: (Units=1/GPa)
#
#
# Indices 1 2 3 4 5 6 
#
# 1 0.018629 -0.007442 -0.005466 0.000000 0.000000 0.000000
# 2 -0.007442 0.023631 -0.002534 0.000000 0.000000 0.000000
# 3 -0.005466 -0.002534 0.014826 0.000000 0.000000 0.000000
# 4 0.000000 0.000000 0.000000 0.058119 0.000000 0.000000
# 5 0.000000 0.000000 0.000000 0.000000 0.045218 0.000000
# 6 0.000000 0.000000 0.000000 0.000000 0.000000 0.051070
#
#
# Mechanical properties :
#
#
# Convention : Reuss Voigt Hill
#
# Bulk Modulus (GPa) = 38.16475 40.30128 39.23302
# Shear Modulus (GPa) = 19.91149 20.55251 20.23200
#
# Velocity S-wave (km/s) = 3.39199 3.44616 3.41918
# Velocity P-wave (km/s) = 6.11505 6.25478 6.18531
#
# Compressibility (1/GPa) = 0.02620219
#
# Stress axis : x y z
#
# Youngs Moduli (GPa) = 53.68000 42.31713 67.44854
#
# Poissons Ratio (x) = 0.31493 0.36864
# Poissons Ratio (y) = 0.39949 0.17094
# Poissons Ratio (z) = 0.29339 0.10725
#
# Static dielectric constant tensor:
#      x y z
#    x 3.240850 0.000000 0.000000 
#    y 0.000000 3.011990 0.000000 
#    z 0.000000 0.000000 3.299470 
# 
# 
# High freq. dielectric constant tensor:
#      x y z
#    x 1.665930 0.000000 0.000000 
#    y 0.000000 1.646120 0.000000 
#    z 0.000000 0.000000 1.675440 
# 
# From -- ./inp_files/24194.got.cif
#   From: 2010.06.25/outbox.cif.g09.slc.cpg/sg71_13_cif.got.tgz:24194.got - 2010.06.28 04:59:45.
