data_PCOD8292327
_publ_section_title
;
Structure prediction by ZEFSAII (Michael W. Deem and Ramdas Pophale) SiO2 
 PCOD8292327
Probable space group: I M M M
;
_chemical_formula_sum "Si O2"
_cell_formula_units_Z 88
_cell_length_a 9.077471
_cell_length_b 32.201512
_cell_length_c 20.289355
_cell_angle_alpha 90.000000
_cell_angle_beta 90.000000
_cell_angle_gamma 90.000000
_cell_volume 5930.746692
_symmetry_space_group_name_H-M "I M M M"
_symmetry_group_IT_number 71
_symmetry_cell_setting 'orthorhombic'
loop_
_space_group_symop_operation_xyz
x,y,z
-x,-y,z
x,-y,-z
-x,y,-z
-x,-y,-z
x,y,-z
-x,y,z
x,-y,z
1/2+x,1/2+y,1/2+z
1/2-x,1/2-y,1/2+z
1/2+x,1/2-y,1/2-z
1/2-x,1/2+y,1/2-z
1/2-x,1/2-y,1/2-z
1/2+x,1/2+y,1/2-z
1/2-x,1/2+y,1/2+z
1/2+x,1/2-y,1/2+z
loop_
_atom_site_type_symbol
_atom_site_label
_atom_site_fract_x
_atom_site_fract_y
_atom_site_fract_z
Si Si1 0.825341 0.548273 0.643085
Si Si2 0.162793 0.750062 0.348890
Si Si3 0.335631 0.812071 0.726653
Si Si4 0.328056 0.047635 0.000000
Si Si5 0.174717 0.875987 0.809688
Si Si6 0.672386 0.172668 0.075531
O O1 0.783925 0.500000 0.654113
O O2 0.770681 0.564972 0.570182
O O3 0.737224 0.576885 0.694682
O O4 0.000000 0.554401 0.651321
O O5 0.271713 0.788907 0.338172
O O6 0.163623 0.720091 0.286112
O O7 0.209504 0.721448 0.411159
O O8 0.000000 0.768667 0.359488
O O9 0.500000 0.827617 0.710282
O O10 0.235397 0.851332 0.746204
O O11 0.500000 0.054739 0.000000
O O12 0.286953 0.000000 0.000000
O O13 0.229398 0.855803 0.877778
O O14 0.000000 0.875962 0.807207
O O15 0.500000 0.164513 0.091656
O O16 0.709165 0.161694 0.000000
#
# Coordination Sequence:
#
# PCOD8292327 Si02
#       6
#    16  16  16   8  16  16
#     4   9  17  30  45  57  70  94 128 160 194 239
#     4   8  14  25  41  59  76  94 120 156 192 222
#     4   9  16  27  42  57  73  96 126 154 187 231
#     4   7  12  24  41  55  63  81 117 153 183 223
#     4  11  21  29  39  57  80 100 124 163 203 232
#     4   9  18  31  44  57  76 104 133 157 187 233
#
# _framework density 14.83793
#
# number of rings (size 3 to 8) (size 9 to 14) (size 15 to 20)
#    0.000    3.000    0.000    4.364    1.273    5.091 
#    0.000    0.000    0.000    1.636    0.000    0.000 
#    0.000    0.000    0.000    0.000    0.000    0.909 
#
# Total GULP energy -545102.339193 kJ/mol
# GULP energy per Si atom -12388.689527 kJ/mol
# Density = 1.480416 g / cm^3
# Si number density = 14.837930 Si / 1000 Ang^3
#
#
#
# Elastic Constant Matrix: (Units=GPa)
#
#
# Indices 1 2 3 4 5 6 
#
# 1 93.7497 47.9965 14.7527 0.0000 0.0000 0.0000
# 2 47.9965 79.6287 16.9008 0.0000 0.0000 0.0000
# 3 14.7527 16.9008 9.4780 0.0001 0.0000 0.0000
# 4 0.0000 0.0000 0.0001 23.0578 0.0000 0.0000
# 5 0.0000 0.0000 0.0000 0.0000 13.9144 0.0000
# 6 0.0000 0.0000 0.0000 0.0000 0.0000 24.1403
#
#
#
# Elastic Compliance Matrix: (Units=1/GPa)
#
#
# Indices 1 2 3 4 5 6 
#
# 1 0.016318 -0.007152 -0.012647 0.000000 0.000000 0.000000
# 2 -0.007152 0.023340 -0.030487 0.000000 0.000000 0.000000
# 3 -0.012647 -0.030487 0.179556 -0.000001 0.000000 0.000000
# 4 0.000000 0.000000 -0.000001 0.043369 0.000000 0.000000
# 5 0.000000 0.000000 0.000000 0.000000 0.071868 0.000000
# 6 0.000000 0.000000 0.000000 0.000000 0.000000 0.041425
#
#
# Mechanical properties :
#
#
# Convention : Reuss Voigt Hill
#
# Bulk Modulus (GPa) = 8.42865 38.01736 23.22301
# Shear Modulus (GPa) = 9.69002 19.10291 14.39646
#
# Velocity S-wave (km/s) = 2.55827 3.59198 3.11826
# Velocity P-wave (km/s) = 3.79725 6.54832 5.35255
#
# Compressibility (1/GPa) = 0.11864292
#
# Stress axis : x y z
#
# Youngs Moduli (GPa) = 61.28104 42.84575 5.56929
#
# Poissons Ratio (x) = 0.30641 0.07044
# Poissons Ratio (y) = 0.43825 0.16979
# Poissons Ratio (z) = 0.77504 1.30622
#
# Static dielectric constant tensor:
#      x y z
#    x 2.841680 0.000000 0.000000 
#    y 0.000000 2.906920 0.000000 
#    z 0.000000 0.000000 2.699300 
# 
# 
# High freq. dielectric constant tensor:
#      x y z
#    x 1.561650 0.000000 0.000000 
#    y 0.000000 1.557630 0.000000 
#    z 0.000000 0.000000 1.511770 
# 
# From -- ./inp_files/58155.got.cif
#   From: 2010.06.25/outbox.cif.g09.slc.cpg/sg71_30_cif.got.tgz:58155.got - 2010.06.28 04:59:45.
