data_PCOD8292152
_publ_section_title
;
Structure prediction by ZEFSAII (Michael W. Deem and Ramdas Pophale) SiO2 
 PCOD8292152
Probable space group: I M M M
;
_chemical_formula_sum "Si O2"
_cell_formula_units_Z 104
_cell_length_a 23.136166
_cell_length_b 24.654804
_cell_length_c 8.824340
_cell_angle_alpha 90.000000
_cell_angle_beta 90.000000
_cell_angle_gamma 90.000000
_cell_volume 5033.559180
_symmetry_space_group_name_H-M "I M M M"
_symmetry_group_IT_number 71
_symmetry_cell_setting 'orthorhombic'
loop_
_space_group_symop_operation_xyz
x,y,z
-x,-y,z
x,-y,-z
-x,y,-z
-x,-y,-z
x,y,-z
-x,y,z
x,-y,z
1/2+x,1/2+y,1/2+z
1/2-x,1/2-y,1/2+z
1/2+x,1/2-y,1/2-z
1/2-x,1/2+y,1/2-z
1/2-x,1/2-y,1/2-z
1/2+x,1/2+y,1/2-z
1/2-x,1/2+y,1/2+z
1/2+x,1/2-y,1/2+z
loop_
_atom_site_type_symbol
_atom_site_label
_atom_site_fract_x
_atom_site_fract_y
_atom_site_fract_z
Si Si1 0.567520 0.000000 0.179579
Si Si2 0.151081 0.586721 0.176797
Si Si3 0.000000 0.738827 0.320305
Si Si4 0.599681 0.440624 0.179081
Si Si5 0.500000 0.362976 0.818995
Si Si6 0.199798 0.783857 0.679559
Si Si7 0.221290 0.904600 0.679907
Si Si8 0.612846 0.207521 0.676617
O O1 0.601678 0.053279 0.236512
O O2 0.500000 0.000000 0.236074
O O3 0.568497 0.000000 0.000000
O O4 0.216317 0.572261 0.236792
O O5 0.145289 0.650931 0.206059
O O6 0.143981 0.572736 0.000000
O O7 0.000000 0.801189 0.260251
O O8 0.948743 0.703332 0.253467
O O9 0.000000 0.737578 0.500000
O O10 0.574838 0.500000 0.221349
O O11 0.556980 0.394330 0.244737
O O12 0.665862 0.438015 0.240902
O O13 0.602446 0.432436 0.000000
O O14 0.500000 0.364608 0.000000
O O15 0.200678 0.780602 0.500000
O O16 0.250000 0.750000 0.750000
O O17 0.208668 0.844356 0.738765
O O18 0.140762 0.759130 0.740888
O O19 0.225094 0.905038 0.500000
O O20 0.608560 0.220218 0.500000
#
# Coordination Sequence:
#
# PCOD8292152 Si02
#       8
#     8  16   8  16   8  16  16  16
#     4  11  27  47  65  89 119 150 193 250 308 371
#     4  10  22  41  64  87 116 155 197 243 300 361
#     4  11  23  38  59  85 117 160 194 237 307 370
#     4   9  16  26  47  77 113 152 192 239 286 332
#     4   9  17  31  48  77 119 157 192 231 286 350
#     4  11  20  35  57  85 123 163 200 242 297 360
#     4   9  18  33  53  84 121 157 198 244 294 352
#     4  11  23  40  60  89 121 154 202 253 298 361
#
# _framework density 20.661325999999999
#
# number of rings (size 3 to 8) (size 9 to 14) (size 15 to 20)
#    0.000    1.923    1.538    2.538    2.154    5.231 
#    0.000    0.000    0.000    0.000    0.000    0.000 
#    0.000    4.308    0.000    0.000    0.000    0.000 
#
# Total GULP energy -644440.981660 kJ/mol
# GULP energy per Si atom -12393.095801 kJ/mol
# Density = 2.061430 g / cm^3
# Si number density = 20.661326 Si / 1000 Ang^3
#
#
#
# Elastic Constant Matrix: (Units=GPa)
#
#
# Indices 1 2 3 4 5 6 
#
# 1 142.3062 22.5205 18.5287 0.0000 0.0000 0.0000
# 2 22.5205 67.3717 23.1582 0.0000 0.0000 0.0000
# 3 18.5287 23.1582 49.1990 0.0000 0.0000 0.0000
# 4 0.0000 0.0000 0.0000 23.9362 0.0000 0.0000
# 5 0.0000 0.0000 0.0000 0.0000 28.1780 0.0000
# 6 0.0000 0.0000 0.0000 0.0000 0.0000 40.6247
#
#
#
# Elastic Compliance Matrix: (Units=1/GPa)
#
#
# Indices 1 2 3 4 5 6 
#
# 1 0.007578 -0.001852 -0.001982 0.000000 0.000000 0.000000
# 2 -0.001852 0.018161 -0.007851 0.000000 0.000000 0.000000
# 3 -0.001982 -0.007851 0.024768 0.000000 0.000000 0.000000
# 4 0.000000 0.000000 0.000000 0.041778 0.000000 0.000000
# 5 0.000000 0.000000 0.000000 0.000000 0.035489 0.000000
# 6 0.000000 0.000000 0.000000 0.000000 0.000000 0.024616
#
#
# Mechanical properties :
#
#
# Convention : Reuss Voigt Hill
#
# Bulk Modulus (GPa) = 36.85081 43.03239 39.94160
# Shear Modulus (GPa) = 27.05566 31.52576 29.29071
#
# Velocity S-wave (km/s) = 3.62260 3.91043 3.76927
# Velocity P-wave (km/s) = 5.94744 6.42350 6.19005
#
# Compressibility (1/GPa) = 0.02713644
#
# Stress axis : x y z
#
# Youngs Moduli (GPa) = 131.95632 55.06401 40.37520
#
# Poissons Ratio (x) = 0.10197 0.08004
# Poissons Ratio (y) = 0.24435 0.31698
# Poissons Ratio (z) = 0.26159 0.43230
#
# Static dielectric constant tensor:
#      x y z
#    x 4.228380 0.000000 0.000000 
#    y 0.000000 3.661620 0.000000 
#    z 0.000000 0.000000 3.094400 
# 
# 
# High freq. dielectric constant tensor:
#      x y z
#    x 1.832290 0.000000 0.000000 
#    y 0.000000 1.814990 0.000000 
#    z 0.000000 0.000000 1.756760 
# 
# From -- ./inp_files/11217.got.cif
#   From: 2010.06.25/outbox.cif.g09.slc.cpg/sg71_6_cif.got.tgz:11217.got - 2010.06.28 04:59:45.
