data_PCOD8292472
_publ_section_title
;
Structure prediction by ZEFSAII (Michael W. Deem and Ramdas Pophale) SiO2 
 PCOD8292472
Probable space group: I M M M
;
_chemical_formula_sum "Si O2"
_cell_formula_units_Z 72
_cell_length_a 30.472429
_cell_length_b 8.565877
_cell_length_c 14.436851
_cell_angle_alpha 90.000000
_cell_angle_beta 90.000000
_cell_angle_gamma 90.000000
_cell_volume 3768.351295
_symmetry_space_group_name_H-M "I M M M"
_symmetry_group_IT_number 71
_symmetry_cell_setting 'orthorhombic'
loop_
_space_group_symop_operation_xyz
x,y,z
-x,-y,z
x,-y,-z
-x,y,-z
-x,-y,-z
x,y,-z
-x,y,z
x,-y,z
1/2+x,1/2+y,1/2+z
1/2-x,1/2-y,1/2+z
1/2+x,1/2-y,1/2-z
1/2-x,1/2+y,1/2-z
1/2-x,1/2-y,1/2-z
1/2+x,1/2+y,1/2-z
1/2-x,1/2+y,1/2+z
1/2+x,1/2-y,1/2+z
loop_
_atom_site_type_symbol
_atom_site_label
_atom_site_fract_x
_atom_site_fract_y
_atom_site_fract_z
Si Si1 0.632213 0.684514 0.308693
Si Si2 0.337096 0.185312 0.500000
Si Si3 0.448167 0.330347 0.000000
Si Si4 0.789898 0.684024 0.308401
Si Si5 0.048674 0.814230 0.698413
Si Si6 0.736182 0.684612 0.000000
O O1 0.639976 0.500000 0.305453
O O2 0.638266 0.746501 0.411699
O O3 0.665055 0.767384 0.238691
O O4 0.583182 0.733425 0.277384
O O5 0.286643 0.241828 0.500000
O O6 0.340034 0.000000 0.500000
O O7 0.436013 0.243738 0.902669
O O8 0.424748 0.500000 0.000000
O O9 0.500000 0.353279 0.000000
O O10 0.785621 0.500000 0.310840
O O11 0.750000 0.750000 0.250000
O O12 0.789127 0.750526 0.411522
O O13 0.000000 0.751978 0.726211
O O14 0.046996 0.000000 0.687039
O O15 0.733918 0.500000 0.000000
#
# Coordination Sequence:
#
# PCOD8292472 Si02
#       6
#    16   8   8  16  16   8
#     4  11  22  36  59  87 116 151 193 241 291 347
#     4  11  23  39  59  79 108 151 197 244 291 350
#     4   7  10  21  44  73 108 145 175 211 266 325
#     4  12  24  39  59  85 117 152 189 235 286 345
#     4   8  15  29  51  82 117 152 191 235 281 333
#     4  11  23  40  62  86 113 152 196 242 289 342
#
# _framework density 19.1065
#
# number of rings (size 3 to 8) (size 9 to 14) (size 15 to 20)
#    0.000    1.889    2.222    4.667    0.000    1.778 
#    0.000    2.778    0.000    6.000    0.000    0.000 
#    0.000   12.444    0.000    0.000    0.000    0.000 
#
# Total GULP energy -446239.316115 kJ/mol
# GULP energy per Si atom -12395.536559 kJ/mol
# Density = 1.906301 g / cm^3
# Si number density = 19.106500 Si / 1000 Ang^3
#
#
#
# Elastic Constant Matrix: (Units=GPa)
#
#
# Indices 1 2 3 4 5 6 
#
# 1 114.1494 27.2039 75.3796 0.0000 0.0000 0.0000
# 2 27.2039 73.1744 39.0794 0.0000 0.0000 0.0000
# 3 75.3796 39.0794 182.4889 0.0000 0.0000 0.0000
# 4 0.0000 0.0000 0.0000 27.9262 0.0000 0.0000
# 5 0.0000 0.0000 0.0000 0.0000 32.9245 0.0000
# 6 0.0000 0.0000 0.0000 0.0000 0.0000 19.1872
#
#
#
# Elastic Compliance Matrix: (Units=1/GPa)
#
#
# Indices 1 2 3 4 5 6 
#
# 1 0.012327 -0.002104 -0.004641 0.000000 0.000000 0.000000
# 2 -0.002104 0.015790 -0.002512 0.000000 0.000000 0.000000
# 3 -0.004641 -0.002512 0.007935 0.000000 0.000000 0.000000
# 4 0.000000 0.000000 0.000000 0.035809 0.000000 0.000000
# 5 0.000000 0.000000 0.000000 0.000000 0.030373 0.000000
# 6 0.000000 0.000000 0.000000 0.000000 0.000000 0.052118
#
#
# Mechanical properties :
#
#
# Convention : Reuss Voigt Hill
#
# Bulk Modulus (GPa) = 57.02360 72.57094 64.79727
# Shear Modulus (GPa) = 27.97810 31.21755 29.59782
#
# Velocity S-wave (km/s) = 3.83080 4.04650 3.94013
# Velocity P-wave (km/s) = 7.03396 7.73932 7.39505
#
# Compressibility (1/GPa) = 0.01753660
#
# Stress axis : x y z
#
# Youngs Moduli (GPa) = 81.12466 63.33163 126.02600
#
# Poissons Ratio (x) = 0.13325 0.58491
# Poissons Ratio (y) = 0.17069 0.31661
# Poissons Ratio (z) = 0.37651 0.15911
#
# Static dielectric constant tensor:
#      x y z
#    x 3.644070 0.000000 0.000000 
#    y 0.000000 3.320460 0.000000 
#    z 0.000000 0.000000 3.833460 
# 
# 
# High freq. dielectric constant tensor:
#      x y z
#    x 1.734500 0.000000 0.000000 
#    y 0.000000 1.719560 0.000000 
#    z 0.000000 0.000000 1.757870 
# 
# From -- ./inp_files/40718.got.cif
#   From: 2010.06.25/outbox.cif.g09.slc.cpg/sg71_21_cif.got.tgz:40718.got - 2010.06.28 04:59:45.
