data_PCOD8292260
_publ_section_title
;
Structure prediction by ZEFSAII (Michael W. Deem and Ramdas Pophale) SiO2 
 PCOD8292260
Probable space group: I M M M
;
_chemical_formula_sum "Si O2"
_cell_formula_units_Z 72
_cell_length_a 16.427553
_cell_length_b 10.429917
_cell_length_c 23.989762
_cell_angle_alpha 90.000000
_cell_angle_beta 90.000000
_cell_angle_gamma 90.000000
_cell_volume 4110.358185
_symmetry_space_group_name_H-M "I M M M"
_symmetry_group_IT_number 71
_symmetry_cell_setting 'orthorhombic'
loop_
_space_group_symop_operation_xyz
x,y,z
-x,-y,z
x,-y,-z
-x,y,-z
-x,-y,-z
x,y,-z
-x,y,z
x,-y,z
1/2+x,1/2+y,1/2+z
1/2-x,1/2-y,1/2+z
1/2+x,1/2-y,1/2-z
1/2-x,1/2+y,1/2-z
1/2-x,1/2-y,1/2-z
1/2+x,1/2+y,1/2-z
1/2-x,1/2+y,1/2+z
1/2+x,1/2-y,1/2+z
loop_
_atom_site_type_symbol
_atom_site_label
_atom_site_fract_x
_atom_site_fract_y
_atom_site_fract_z
Si Si1 0.193689 0.751006 0.694094
Si Si2 0.910630 0.500000 0.702765
Si Si3 0.405041 0.500000 0.654022
Si Si4 0.586511 0.000000 0.331652
Si Si5 0.405419 0.848193 0.500000
Si Si6 0.335385 0.239188 0.385317
Si Si7 0.402256 0.500000 0.779644
O O1 0.250000 0.750000 0.750000
O O2 0.139642 0.625458 0.687657
O O3 0.242815 0.750975 0.635547
O O4 0.134643 0.873554 0.692293
O O5 0.928359 0.500000 0.767269
O O6 0.000000 0.500000 0.672911
O O7 0.500000 0.500000 0.658947
O O8 0.378508 0.625218 0.621288
O O9 0.369481 0.500000 0.716227
O O10 0.630892 0.130456 0.345086
O O11 0.500000 0.000000 0.364239
O O12 0.500000 0.796823 0.500000
O O13 0.351027 0.800713 0.551416
O O14 0.407989 0.000000 0.500000
O O15 0.500000 0.500000 0.785185
#
# Coordination Sequence:
#
# PCOD8292260 Si02
#       7
#    16   8   8   8   8  16   8
#     4  12  21  36  56  86 117 152 193 239 287 342
#     4  11  22  36  56  85 120 156 191 230 290 359
#     4  11  21  34  52  80 117 153 186 227 285 340
#     4  11  19  32  54  82 113 155 198 229 273 336
#     4  11  24  41  59  83 114 153 199 233 271 337
#     4  12  23  36  57  81 113 156 195 238 280 324
#     4  11  22  36  54  83 120 154 185 230 292 351
#
# _framework density 17.516721
#
# number of rings (size 3 to 8) (size 9 to 14) (size 15 to 20)
#    0.000    0.556    5.556    4.667    0.000    4.000 
#    0.000    1.111    0.000    0.000    0.000    4.667 
#    0.000    0.000    0.000    0.000    0.000    0.000 
#
# Total GULP energy -446183.643997 kJ/mol
# GULP energy per Si atom -12393.990111 kJ/mol
# Density = 1.747685 g / cm^3
# Si number density = 17.516721 Si / 1000 Ang^3
#
#
#
# Elastic Constant Matrix: (Units=GPa)
#
#
# Indices 1 2 3 4 5 6 
#
# 1 113.6602 54.4338 48.8902 0.0000 0.0000 0.0000
# 2 54.4338 155.7764 25.6662 0.0000 0.0000 0.0000
# 3 48.8902 25.6662 92.9559 0.0000 0.0000 0.0000
# 4 0.0000 0.0000 0.0000 18.7635 0.0000 0.0000
# 5 0.0000 0.0000 0.0000 0.0000 25.5598 0.0000
# 6 0.0000 0.0000 0.0000 0.0000 0.0000 23.8339
#
#
#
# Elastic Compliance Matrix: (Units=1/GPa)
#
#
# Indices 1 2 3 4 5 6 
#
# 1 0.013042 -0.003590 -0.005868 0.000000 0.000000 0.000000
# 2 -0.003590 0.007714 -0.000242 0.000000 0.000000 0.000000
# 3 -0.005868 -0.000242 0.013911 0.000000 0.000000 0.000000
# 4 0.000000 0.000000 0.000000 0.053295 0.000000 0.000000
# 5 0.000000 0.000000 0.000000 0.000000 0.039124 0.000000
# 6 0.000000 0.000000 0.000000 0.000000 0.000000 0.041957
#
#
# Mechanical properties :
#
#
# Convention : Reuss Voigt Hill
#
# Bulk Modulus (GPa) = 65.50258 68.93032 67.21645
# Shear Modulus (GPa) = 25.83566 29.19159 27.51362
#
# Velocity S-wave (km/s) = 3.84463 4.08671 3.96751
# Velocity P-wave (km/s) = 7.56199 7.85524 7.71001
#
# Compressibility (1/GPa) = 0.01526657
#
# Stress axis : x y z
#
# Youngs Moduli (GPa) = 76.67698 129.63670 71.88696
#
# Poissons Ratio (x) = 0.46545 0.42183
# Poissons Ratio (y) = 0.27530 0.01736
# Poissons Ratio (z) = 0.44994 0.03131
#
# Static dielectric constant tensor:
#      x y z
#    x 3.393120 0.000000 0.000000 
#    y 0.000000 3.471040 0.000000 
#    z 0.000000 0.000000 3.113540 
# 
# 
# High freq. dielectric constant tensor:
#      x y z
#    x 1.681980 0.000000 0.000000 
#    y 0.000000 1.703770 0.000000 
#    z 0.000000 0.000000 1.639130 
# 
# From -- ./inp_files/60412.got.cif
#   From: 2010.06.25/outbox.cif.g09.slc.cpg/sg71_31_cif.got.tgz:60412.got - 2010.06.28 04:59:45.
