data_PCOD8292263
_publ_section_title
;
Structure prediction by ZEFSAII (Michael W. Deem and Ramdas Pophale) SiO2 
 PCOD8292263
Probable space group: I M M M
;
_chemical_formula_sum "Si O2"
_cell_formula_units_Z 120
_cell_length_a 21.933392
_cell_length_b 22.200030
_cell_length_c 14.105205
_cell_angle_alpha 90.000000
_cell_angle_beta 90.000000
_cell_angle_gamma 90.000000
_cell_volume 6868.134070
_symmetry_space_group_name_H-M "I M M M"
_symmetry_group_IT_number 71
_symmetry_cell_setting 'orthorhombic'
loop_
_space_group_symop_operation_xyz
x,y,z
-x,-y,z
x,-y,-z
-x,y,-z
-x,-y,-z
x,y,-z
-x,y,z
x,-y,z
1/2+x,1/2+y,1/2+z
1/2-x,1/2-y,1/2+z
1/2+x,1/2-y,1/2-z
1/2-x,1/2+y,1/2-z
1/2-x,1/2-y,1/2-z
1/2+x,1/2+y,1/2-z
1/2-x,1/2+y,1/2+z
1/2+x,1/2-y,1/2+z
loop_
_atom_site_type_symbol
_atom_site_label
_atom_site_fract_x
_atom_site_fract_y
_atom_site_fract_z
Si Si1 0.757966 0.864817 0.605843
Si Si2 0.382090 0.878610 0.208456
Si Si3 0.269565 0.068293 0.890677
Si Si4 0.500000 0.929100 0.112545
Si Si5 0.333252 0.358445 0.709551
Si Si6 0.930315 0.070177 0.106447
Si Si7 0.356382 0.068667 0.604202
Si Si8 0.814304 0.727790 0.788680
O O1 0.785333 0.857515 0.500000
O O2 0.813956 0.863963 0.679771
O O3 0.717611 0.925372 0.617655
O O4 0.705220 0.814023 0.623171
O O5 0.331558 0.923584 0.166954
O O6 0.442693 0.889724 0.148196
O O7 0.395470 0.895832 0.317472
O O8 0.355335 0.809760 0.211365
O O9 0.220497 0.116282 0.855676
O O10 0.245513 0.000000 0.875794
O O11 0.283696 0.081314 0.000000
O O12 0.500000 0.000000 0.146746
O O13 0.500000 0.928159 0.000000
O O14 0.394085 0.395352 0.688402
O O15 0.349116 0.289077 0.682505
O O16 0.000000 0.090264 0.114611
O O17 0.922946 0.000000 0.126284
O O18 0.905864 0.085107 0.000000
O O19 0.374671 0.093263 0.500000
O O20 0.374441 0.000000 0.614310
O O21 0.750000 0.750000 0.750000
#
# Coordination Sequence:
#
# PCOD8292263 Si02
#       8
#    16  16  16   8  16  16  16  16
#     4   9  18  30  47  73 107 139 171 215 265 321
#     4  11  20  37  55  74 116 152 187 239 285 328
#     4  11  21  31  51  84 113 140 181 235 292 346
#     4  11  24  40  59  85 117 161 207 240 288 350
#     4  11  19  33  53  80 108 139 181 227 278 338
#     4   9  19  36  56  80 109 139 173 218 281 350
#     4   9  16  28  49  74  99 133 176 219 271 326
#     4   9  18  36  52  79 107 141 183 224 279 337
#
# _framework density 17.471993999999999
#
# number of rings (size 3 to 8) (size 9 to 14) (size 15 to 20)
#    0.000    2.067    4.000    2.800    0.000    3.733 
#    1.200    1.000    0.000    1.600    0.000    0.933 
#    0.000    0.000    0.000    0.000    0.000    0.000 
#
# Total GULP energy -743409.379945 kJ/mol
# GULP energy per Si atom -12390.156332 kJ/mol
# Density = 1.743223 g / cm^3
# Si number density = 17.471994 Si / 1000 Ang^3
#
#
#
# Elastic Constant Matrix: (Units=GPa)
#
#
# Indices 1 2 3 4 5 6 
#
# 1 78.8009 39.2700 34.2297 0.0000 0.0000 0.0000
# 2 39.2700 83.1658 37.4362 0.0000 0.0000 0.0000
# 3 34.2297 37.4362 105.4865 0.0000 0.0000 0.0000
# 4 0.0000 0.0000 0.0000 17.6981 0.0000 0.0000
# 5 0.0000 0.0000 0.0000 0.0000 28.4421 0.0000
# 6 0.0000 0.0000 0.0000 0.0000 0.0000 26.8042
#
#
#
# Elastic Compliance Matrix: (Units=1/GPa)
#
#
# Indices 1 2 3 4 5 6 
#
# 1 0.017493 -0.006789 -0.003267 0.000000 0.000000 0.000000
# 2 -0.006789 0.016945 -0.003811 0.000000 0.000000 0.000000
# 3 -0.003267 -0.003811 0.011892 0.000000 0.000000 0.000000
# 4 0.000000 0.000000 0.000000 0.056503 0.000000 0.000000
# 5 0.000000 0.000000 0.000000 0.000000 0.035159 0.000000
# 6 0.000000 0.000000 0.000000 0.000000 0.000000 0.037308
#
#
# Mechanical properties :
#
#
# Convention : Reuss Voigt Hill
#
# Bulk Modulus (GPa) = 53.77279 54.36944 54.07112
# Shear Modulus (GPa) = 23.89683 25.02337 24.46010
#
# Velocity S-wave (km/s) = 3.70228 3.78855 3.74566
# Velocity P-wave (km/s) = 7.00851 7.09387 7.05132
#
# Compressibility (1/GPa) = 0.01859677
#
# Stress axis : x y z
#
# Youngs Moduli (GPa) = 57.16681 59.01329 84.08805
#
# Poissons Ratio (x) = 0.40066 0.27470
# Poissons Ratio (y) = 0.38812 0.32043
# Poissons Ratio (z) = 0.18675 0.22488
#
# Static dielectric constant tensor:
#      x y z
#    x 3.067420 0.000000 0.000000 
#    y 0.000000 3.975090 0.000000 
#    z 0.000000 0.000000 3.387180 
# 
# 
# High freq. dielectric constant tensor:
#      x y z
#    x 1.642140 0.000000 0.000000 
#    y 0.000000 1.677160 0.000000 
#    z 0.000000 0.000000 1.674480 
# 
# From -- ./inp_files/38560.got.cif
#   From: 2010.06.25/outbox.cif.g09.slc.cpg/sg71_20_cif.got.tgz:38560.got - 2010.06.28 04:59:45.
