data_PCOD8292926
_publ_section_title
;
Structure prediction by ZEFSAII (Michael W. Deem and Ramdas Pophale) SiO2 
 PCOD8292926
Probable space group: I B A M
;
_chemical_formula_sum "Si O2"
_cell_formula_units_Z 96
_cell_length_a 27.171191
_cell_length_b 31.847582
_cell_length_c 9.072919
_cell_angle_alpha 90.000000
_cell_angle_beta 90.000000
_cell_angle_gamma 90.000000
_cell_volume 7851.130090
_symmetry_space_group_name_H-M "I B A M"
_symmetry_group_IT_number 72
_symmetry_cell_setting 'orthorhombic'
loop_
_space_group_symop_operation_xyz
x,y,z
-x,-y,z
x,-y,1/2-z
-x,y,1/2-z
-x,-y,-z
x,y,-z
-x,y,1/2+z
x,-y,1/2+z
1/2+x,1/2+y,1/2+z
1/2-x,1/2-y,1/2+z
1/2+x,1/2-y,-z
1/2-x,1/2+y,-z
1/2-x,1/2-y,1/2-z
1/2+x,1/2+y,1/2-z
1/2-x,1/2+y,z
1/2+x,1/2-y,z
loop_
_atom_site_type_symbol
_atom_site_label
_atom_site_fract_x
_atom_site_fract_y
_atom_site_fract_z
Si Si1 0.301999 0.837352 0.666231
Si Si2 0.226474 0.210282 0.327366
Si Si3 0.551632 0.796470 0.672293
Si Si4 0.613687 0.123256 0.170956
Si Si5 0.632764 0.754213 0.836181
Si Si6 0.948995 0.542589 0.825774
O O1 0.289743 0.850925 0.500000
O O2 0.250263 0.831454 0.754130
O O3 0.335153 0.873493 0.740762
O O4 0.332001 0.794358 0.673433
O O5 0.239365 0.211265 0.500000
O O6 0.250000 0.250000 0.250000
O O7 0.167067 0.213301 0.302495
O O8 0.500000 0.790615 0.750000
O O9 0.543027 0.793520 0.500000
O O10 0.574840 0.841046 0.720654
O O11 0.588112 0.758708 0.721344
O O12 0.590995 0.078121 0.206521
O O13 0.625936 0.129169 0.000000
O O14 0.610096 0.750784 0.000000
O O15 0.929463 0.500000 0.750000
O O16 0.000000 0.556220 0.750000
O O17 0.957389 0.536044 0.000000
#
# Coordination Sequence:
#
# PCOD8292926 Si02
#       6
#    16  16  16  16  16  16
#     4   9  16  24  36  52  67  83 102 126 157 193
#     4   9  15  23  35  49  66  85 104 127 154 187
#     4  10  18  26  36  48  63  83 106 134 165 197
#     4   9  18  29  39  51  66  84 105 131 165 203
#     4   8  15  25  34  46  63  83 105 127 153 186
#     4  10  19  30  42  54  67  84 107 135 168 206
#
# _framework density 12.227539
#
# number of rings (size 3 to 8) (size 9 to 14) (size 15 to 20)
#    0.000    2.833    0.000    4.000    0.000    6.667 
#    0.000    0.000    0.000    0.000    0.000    0.000 
#    0.000    0.000    0.000    0.000    0.000    0.000 
#
# Total GULP energy -594883.119084 kJ/mol
# GULP energy per Si atom -12393.398314 kJ/mol
# Density = 1.219971 g / cm^3
# Si number density = 12.227539 Si / 1000 Ang^3
#
#
#
# Elastic Constant Matrix: (Units=GPa)
#
#
# Indices 1 2 3 4 5 6 
#
# 1 67.8199 40.5232 44.4367 0.0000 0.0000 0.0000
# 2 40.5232 42.3382 31.1787 0.0000 0.0000 0.0000
# 3 44.4367 31.1787 80.0627 0.0000 0.0000 0.0000
# 4 0.0000 0.0000 0.0000 14.0023 0.0000 0.0000
# 5 0.0000 0.0000 0.0000 0.0000 22.7174 0.0000
# 6 0.0000 0.0000 0.0000 0.0000 0.0000 20.4361
#
#
#
# Elastic Compliance Matrix: (Units=1/GPa)
#
#
# Indices 1 2 3 4 5 6 
#
# 1 0.039520 -0.030387 -0.010101 0.000000 0.000000 0.000000
# 2 -0.030387 0.056482 -0.005130 0.000000 0.000000 0.000000
# 3 -0.010101 -0.005130 0.020094 0.000000 0.000000 0.000000
# 4 0.000000 0.000000 0.000000 0.071417 0.000000 0.000000
# 5 0.000000 0.000000 0.000000 0.000000 0.044019 0.000000
# 6 0.000000 0.000000 0.000000 0.000000 0.000000 0.048933
#
#
# Mechanical properties :
#
#
# Convention : Reuss Voigt Hill
#
# Bulk Modulus (GPa) = 40.22568 46.94422 43.58495
# Shear Modulus (GPa) = 13.15833 16.36998 14.76415
#
# Velocity S-wave (km/s) = 3.28399 3.66290 3.47861
# Velocity P-wave (km/s) = 6.88102 7.50764 7.20115
#
# Compressibility (1/GPa) = 0.02485974
#
# Stress axis : x y z
#
# Youngs Moduli (GPa) = 25.30372 17.70482 49.76570
#
# Poissons Ratio (x) = 0.53800 0.50267
# Poissons Ratio (y) = 0.76891 0.25530
# Poissons Ratio (z) = 0.25559 0.09083
#
# Static dielectric constant tensor:
#      x y z
#    x 2.697940 0.000000 0.000000 
#    y 0.000000 2.332100 0.000000 
#    z 0.000000 0.000000 2.689710 
# 
# 
# High freq. dielectric constant tensor:
#      x y z
#    x 1.449790 0.000000 0.000000 
#    y 0.000000 1.409930 0.000000 
#    z 0.000000 0.000000 1.482440 
# 
# From -- ./inp_files/8469.got.cif
#   From: 2010.03.12/outbox.cif.g09.slc.cpg/sg72_5_cif.got.tgz:8469.got - 2010.04.16 14:54:00.
