data_PCOD8292720
_publ_section_title
;
Structure prediction by ZEFSAII (Michael W. Deem and Ramdas Pophale) SiO2 
 PCOD8292720
Probable space group: I M M M
;
_chemical_formula_sum "Si O2"
_cell_formula_units_Z 72
_cell_length_a 34.355139
_cell_length_b 9.351276
_cell_length_c 13.590574
_cell_angle_alpha 90.000000
_cell_angle_beta 90.000000
_cell_angle_gamma 90.000000
_cell_volume 4366.167422
_symmetry_space_group_name_H-M "I M M M"
_symmetry_group_IT_number 71
_symmetry_cell_setting 'orthorhombic'
loop_
_space_group_symop_operation_xyz
x,y,z
-x,-y,z
x,-y,-z
-x,y,-z
-x,-y,-z
x,y,-z
-x,y,z
x,-y,z
1/2+x,1/2+y,1/2+z
1/2-x,1/2-y,1/2+z
1/2+x,1/2-y,1/2-z
1/2-x,1/2+y,1/2-z
1/2-x,1/2-y,1/2-z
1/2+x,1/2+y,1/2-z
1/2-x,1/2+y,1/2+z
1/2+x,1/2-y,1/2+z
loop_
_atom_site_type_symbol
_atom_site_label
_atom_site_fract_x
_atom_site_fract_y
_atom_site_fract_z
Si Si1 0.886590 0.169995 0.110350
Si Si2 0.694291 0.332522 0.696689
Si Si3 0.763631 0.835345 0.609683
Si Si4 0.457456 0.662043 0.738594
Si Si5 0.500000 0.167740 0.114209
O O1 0.848655 0.223476 0.169725
O O2 0.924886 0.227440 0.166479
O O3 0.887832 0.000000 0.105344
O O4 0.885979 0.233758 0.000000
O O5 0.697796 0.500000 0.675708
O O6 0.725088 0.256753 0.626001
O O7 0.703029 0.294824 0.811052
O O8 0.779963 0.804960 0.500000
O O9 0.751566 0.000000 0.622477
O O10 0.500000 0.662627 0.684604
O O11 0.446240 0.500000 0.770163
O O12 0.461346 0.760629 0.836588
O O13 0.500000 0.000000 0.135165
O O14 0.500000 0.204213 0.000000
#
# Coordination Sequence:
#
# PCOD8292720 Si02
#       5
#    16  16  16  16   8
#     4   9  16  27  45  69  94 118 147 184 224 264
#     4   9  17  29  46  67  90 117 153 189 221 265
#     4   9  17  29  44  63  90 121 151 185 227 269
#     4   8  16  29  46  69  93 116 147 184 219 259
#     4   9  17  31  50  67  86 116 149 181 220 263
#
# _framework density 16.490435000000002
#
# number of rings (size 3 to 8) (size 9 to 14) (size 15 to 20)
#    0.667    2.556    0.000    0.667    0.000    2.667 
#    0.000    4.444    0.000    6.667    0.000    0.000 
#    0.000    0.000    0.000    0.000    0.000    0.000 
#
# Total GULP energy -446080.744936 kJ/mol
# GULP energy per Si atom -12391.131804 kJ/mol
# Density = 1.645290 g / cm^3
# Si number density = 16.490435 Si / 1000 Ang^3
#
#
#
# Elastic Constant Matrix: (Units=GPa)
#
#
# Indices 1 2 3 4 5 6 
#
# 1 122.2069 30.0743 77.7075 0.0000 0.0000 0.0000
# 2 30.0743 36.9018 38.6564 0.0000 0.0000 0.0000
# 3 77.7075 38.6564 145.2294 0.0000 0.0000 0.0000
# 4 0.0000 0.0000 0.0000 18.0025 0.0000 0.0000
# 5 0.0000 0.0000 0.0000 0.0000 24.8517 0.0000
# 6 0.0000 0.0000 0.0000 0.0000 0.0000 15.7179
#
#
#
# Elastic Compliance Matrix: (Units=1/GPa)
#
#
# Indices 1 2 3 4 5 6 
#
# 1 0.012934 -0.004564 -0.005706 0.000000 0.000000 0.000000
# 2 -0.004564 0.039187 -0.007989 0.000000 0.000000 0.000000
# 3 -0.005706 -0.007989 0.012065 0.000000 0.000000 0.000000
# 4 0.000000 0.000000 0.000000 0.055548 0.000000 0.000000
# 5 0.000000 0.000000 0.000000 0.000000 0.040239 0.000000
# 6 0.000000 0.000000 0.000000 0.000000 0.000000 0.063622
#
#
# Mechanical properties :
#
#
# Convention : Reuss Voigt Hill
#
# Bulk Modulus (GPa) = 36.14103 66.35718 51.24910
# Shear Modulus (GPa) = 18.56431 22.24108 20.40269
#
# Velocity S-wave (km/s) = 3.35888 3.67648 3.52126
# Velocity P-wave (km/s) = 6.08331 7.63867 6.90492
#
# Compressibility (1/GPa) = 0.02766938
#
# Stress axis : x y z
#
# Youngs Moduli (GPa) = 77.31464 25.51875 82.88430
#
# Poissons Ratio (x) = 0.11647 0.47292
# Poissons Ratio (y) = 0.35286 0.66212
# Poissons Ratio (z) = 0.44114 0.20386
#
# Static dielectric constant tensor:
#      x y z
#    x 3.090040 0.000000 0.000000 
#    y 0.000000 2.881900 0.000000 
#    z 0.000000 0.000000 3.197280 
# 
# 
# High freq. dielectric constant tensor:
#      x y z
#    x 1.620650 0.000000 0.000000 
#    y 0.000000 1.610150 0.000000 
#    z 0.000000 0.000000 1.633980 
# 
# From -- ./inp_files/29586.got.cif
#   From: 2010.06.25/outbox.cif.g09.slc.cpg/sg71_15_cif.got.tgz:29586.got - 2010.06.28 04:59:45.
