data_PCOD8292181
_publ_section_title
;
Structure prediction by ZEFSAII (Michael W. Deem and Ramdas Pophale) SiO2 
 PCOD8292181
Probable space group: I M M M
;
_chemical_formula_sum "Si O2"
_cell_formula_units_Z 88
_cell_length_a 8.664837
_cell_length_b 21.837431
_cell_length_c 22.144489
_cell_angle_alpha 90.000000
_cell_angle_beta 90.000000
_cell_angle_gamma 90.000000
_cell_volume 4190.131050
_symmetry_space_group_name_H-M "I M M M"
_symmetry_group_IT_number 71
_symmetry_cell_setting 'orthorhombic'
loop_
_space_group_symop_operation_xyz
x,y,z
-x,-y,z
x,-y,-z
-x,y,-z
-x,-y,-z
x,y,-z
-x,y,z
x,-y,z
1/2+x,1/2+y,1/2+z
1/2-x,1/2-y,1/2+z
1/2+x,1/2-y,1/2-z
1/2-x,1/2+y,1/2-z
1/2-x,1/2-y,1/2-z
1/2+x,1/2+y,1/2-z
1/2-x,1/2+y,1/2+z
1/2+x,1/2-y,1/2+z
loop_
_atom_site_type_symbol
_atom_site_label
_atom_site_fract_x
_atom_site_fract_y
_atom_site_fract_z
Si Si1 0.817890 0.429571 0.252284
Si Si2 0.168840 0.566139 0.430059
Si Si3 0.175327 0.154787 0.144321
Si Si4 0.181599 0.238097 0.569720
Si Si5 0.318947 0.116256 0.621585
Si Si6 0.670211 0.500000 0.930693
O O1 0.751282 0.500000 0.257360
O O2 0.761333 0.381743 0.302651
O O3 0.766511 0.397806 0.190006
O O4 0.000000 0.434146 0.256164
O O5 0.175755 0.555547 0.500000
O O6 0.187358 0.500000 0.397607
O O7 0.309237 0.609902 0.412830
O O8 0.000000 0.593916 0.411827
O O9 0.247532 0.218235 0.121599
O O10 0.000000 0.166563 0.163185
O O11 0.241173 0.249459 0.500000
O O12 0.223039 0.170843 0.591988
O O13 0.000000 0.247333 0.570127
O O14 0.500000 0.131015 0.617023
O O15 0.276576 0.057309 0.583713
O O16 0.500000 0.500000 0.897902
O O17 0.633497 0.500000 0.000000
#
# Coordination Sequence:
#
# PCOD8292181 Si02
#       6
#    16  16  16  16  16   8
#     4  10  22  43  67  92 127 170 214 259 314 382
#     4   9  18  34  56  81 112 155 205 256 315 380
#     4  12  25  38  58  90 124 164 212 262 317 370
#     4  11  25  45  67  92 126 170 215 259 318 390
#     4  11  23  42  68  98 128 164 212 267 321 372
#     4  11  23  39  63  97 135 173 210 253 314 385
#
# _framework density 21.001729999999998
#
# number of rings (size 3 to 8) (size 9 to 14) (size 15 to 20)
#    0.000    1.364    0.909    5.182    0.000   12.000 
#    0.000    0.909    0.000    0.000    0.000    0.000 
#    0.000    0.000    0.000    0.000    0.000    0.000 
#
# Total GULP energy -545146.775613 kJ/mol
# GULP energy per Si atom -12389.699446 kJ/mol
# Density = 2.095393 g / cm^3
# Si number density = 21.001730 Si / 1000 Ang^3
#
#
#
# Elastic Constant Matrix: (Units=GPa)
#
#
# Indices 1 2 3 4 5 6 
#
# 1 44.4696 19.1788 20.0879 0.0000 0.0000 0.0000
# 2 19.1788 122.9361 47.3755 0.0000 0.0000 0.0000
# 3 20.0879 47.3755 94.3001 0.0000 0.0000 0.0000
# 4 0.0000 0.0000 0.0000 37.7065 0.0000 0.0000
# 5 0.0000 0.0000 0.0000 0.0000 29.3916 0.0000
# 6 0.0000 0.0000 0.0000 0.0000 0.0000 43.8577
#
#
#
# Elastic Compliance Matrix: (Units=1/GPa)
#
#
# Indices 1 2 3 4 5 6 
#
# 1 0.025408 -0.002329 -0.004242 0.000000 0.000000 0.000000
# 2 -0.002329 0.010301 -0.004679 0.000000 0.000000 0.000000
# 3 -0.004242 -0.004679 0.013859 0.000000 0.000000 0.000000
# 4 0.000000 0.000000 0.000000 0.026521 0.000000 0.000000
# 5 0.000000 0.000000 0.000000 0.000000 0.034023 0.000000
# 6 0.000000 0.000000 0.000000 0.000000 0.000000 0.022801
#
#
# Mechanical properties :
#
#
# Convention : Reuss Voigt Hill
#
# Bulk Modulus (GPa) = 36.94517 48.33224 42.63870
# Shear Modulus (GPa) = 30.40709 33.86207 32.13458
#
# Velocity S-wave (km/s) = 3.80917 4.01976 3.91588
# Velocity P-wave (km/s) = 6.08080 6.67893 6.38687
#
# Compressibility (1/GPa) = 0.02706714
#
# Stress axis : x y z
#
# Youngs Moduli (GPa) = 39.35759 97.08062 72.15637
#
# Poissons Ratio (x) = 0.22609 0.30612
# Poissons Ratio (y) = 0.09166 0.33761
# Poissons Ratio (z) = 0.16697 0.45423
#
# Static dielectric constant tensor:
#      x y z
#    x 3.963070 0.000000 0.000000 
#    y 0.000000 3.849100 0.000000 
#    z 0.000000 0.000000 4.048950 
# 
# 
# High freq. dielectric constant tensor:
#      x y z
#    x 1.812470 0.000000 0.000000 
#    y 0.000000 1.834770 0.000000 
#    z 0.000000 0.000000 1.830180 
# 
# From -- ./inp_files/57529.got.cif
#   From: 2010.06.25/outbox.cif.g09.slc.cpg/sg71_29_cif.got.tgz:57529.got - 2010.06.28 04:59:45.
