data_PCOD8292871
_publ_section_title
;
Structure prediction by ZEFSAII (Michael W. Deem and Ramdas Pophale) SiO2 
 PCOD8292871
Probable space group: I B A M
;
_chemical_formula_sum "Si O2"
_cell_formula_units_Z 128
_cell_length_a 18.990179
_cell_length_b 23.110680
_cell_length_c 17.047332
_cell_angle_alpha 90.000000
_cell_angle_beta 90.000000
_cell_angle_gamma 90.000000
_cell_volume 7481.664027
_symmetry_space_group_name_H-M "I B A M"
_symmetry_group_IT_number 72
_symmetry_cell_setting 'orthorhombic'
loop_
_space_group_symop_operation_xyz
x,y,z
-x,-y,z
x,-y,1/2-z
-x,y,1/2-z
-x,-y,-z
x,y,-z
-x,y,1/2+z
x,-y,1/2+z
1/2+x,1/2+y,1/2+z
1/2-x,1/2-y,1/2+z
1/2+x,1/2-y,-z
1/2-x,1/2+y,-z
1/2-x,1/2-y,1/2-z
1/2+x,1/2+y,1/2-z
1/2-x,1/2+y,z
1/2+x,1/2-y,z
loop_
_atom_site_type_symbol
_atom_site_label
_atom_site_fract_x
_atom_site_fract_y
_atom_site_fract_z
Si Si1 0.670961 0.741854 0.668819
Si Si2 0.885287 0.708062 0.590165
Si Si3 0.190395 0.806733 0.833523
Si Si4 0.479988 0.383829 0.407870
Si Si5 0.846017 0.952172 0.093406
Si Si6 0.755678 0.356954 0.907768
Si Si7 0.864538 0.081610 0.092720
Si Si8 0.029890 0.247562 0.906269
O O1 0.726552 0.794198 0.675994
O O2 0.653647 0.712137 0.752157
O O3 0.699228 0.692817 0.610303
O O4 0.601002 0.771153 0.633064
O O5 0.894488 0.693249 0.500000
O O6 0.845895 0.769735 0.597483
O O7 0.833149 0.659203 0.629396
O O8 0.964087 0.713512 0.625872
O O9 0.180566 0.873735 0.855296
O O10 0.469796 0.382339 0.500000
O O11 0.415812 0.421156 0.370970
O O12 0.553393 0.413615 0.385476
O O13 0.480168 0.318274 0.376286
O O14 0.775885 0.917847 0.123102
O O15 0.839859 0.018253 0.120960
O O16 0.851160 0.950033 0.000000
O O17 0.764986 0.359123 0.000000
O O18 0.851612 0.091948 0.000000
O O19 0.034420 0.250958 0.000000
#
# Coordination Sequence:
#
# PCOD8292871 Si02
#       8
#    16  16  16  16  16  16  16  16
#     4  10  20  31  45  63  91 120 151 188 228 279
#     4   9  17  29  46  65  87 113 150 193 232 275
#     4  10  20  32  43  64  91 121 152 187 231 268
#     4   9  15  25  41  65  91 114 148 186 216 260
#     4   9  16  26  44  68  90 119 156 189 224 267
#     4   9  16  29  47  65  84 113 152 194 230 267
#     4  10  18  29  45  65  92 123 157 191 223 268
#     4  10  17  28  47  69  88 116 152 187 230 277
#
# _framework density 17.108492999999999
#
# number of rings (size 3 to 8) (size 9 to 14) (size 15 to 20)
#    0.000    2.500    2.500    1.125    0.000    3.500 
#    0.000    0.625    0.000    0.000    3.250    0.875 
#    0.000    5.000    0.000    9.000    0.000   12.750 
#
# Total GULP energy -793023.528588 kJ/mol
# GULP energy per Si atom -12390.992634 kJ/mol
# Density = 1.706955 g / cm^3
# Si number density = 17.108493 Si / 1000 Ang^3
#
#
#
# Elastic Constant Matrix: (Units=GPa)
#
#
# Indices 1 2 3 4 5 6 
#
# 1 128.2788 63.8016 32.7285 0.0000 0.0000 0.0000
# 2 63.8016 99.6486 22.5470 0.0000 0.0000 0.0000
# 3 32.7285 22.5470 21.9889 0.0000 0.0000 0.0000
# 4 0.0000 0.0000 0.0000 13.4806 0.0000 0.0000
# 5 0.0000 0.0000 0.0000 0.0000 15.4001 0.0000
# 6 0.0000 0.0000 0.0000 0.0000 0.0000 26.0125
#
#
#
# Elastic Compliance Matrix: (Units=1/GPa)
#
#
# Indices 1 2 3 4 5 6 
#
# 1 0.014790 -0.005845 -0.016020 0.000000 0.000000 0.000000
# 2 -0.005845 0.015377 -0.007068 0.000000 0.000000 0.000000
# 3 -0.016020 -0.007068 0.076569 0.000000 0.000000 0.000000
# 4 0.000000 0.000000 0.000000 0.074181 0.000000 0.000000
# 5 0.000000 0.000000 0.000000 0.000000 0.064934 0.000000
# 6 0.000000 0.000000 0.000000 0.000000 0.000000 0.038443
#
#
# Mechanical properties :
#
#
# Convention : Reuss Voigt Hill
#
# Bulk Modulus (GPa) = 20.46225 54.23006 37.34616
# Shear Modulus (GPa) = 13.94897 19.70125 16.82511
#
# Velocity S-wave (km/s) = 2.85849 3.39713 3.13938
# Velocity P-wave (km/s) = 4.78339 6.86687 5.91755
#
# Compressibility (1/GPa) = 0.04887048
#
# Stress axis : x y z
#
# Youngs Moduli (GPa) = 67.61438 65.03423 13.06005
#
# Poissons Ratio (x) = 0.38010 0.20923
# Poissons Ratio (y) = 0.39517 0.09231
# Poissons Ratio (z) = 1.08320 0.45965
#
# Static dielectric constant tensor:
#      x y z
#    x 3.484870 0.000000 0.000000 
#    y 0.000000 3.178980 0.000000 
#    z 0.000000 0.000000 2.915260 
# 
# 
# High freq. dielectric constant tensor:
#      x y z
#    x 1.659270 0.000000 0.000000 
#    y 0.000000 1.626550 0.000000 
#    z 0.000000 0.000000 1.633620 
# 
# From -- ./inp_files/39372.got.cif
#   From: 2010.03.12/outbox.cif.g09.slc.cpg/sg72_20_cif.got.tgz:39372.got - 2010.04.16 14:54:00.
