data_PCOD8292540
_publ_section_title
;
Structure prediction by ZEFSAII (Michael W. Deem and Ramdas Pophale) SiO2 
 PCOD8292540
Probable space group: I M M M
;
_chemical_formula_sum "Si O2"
_cell_formula_units_Z 120
_cell_length_a 23.184635
_cell_length_b 13.417587
_cell_length_c 20.172640
_cell_angle_alpha 90.000000
_cell_angle_beta 90.000000
_cell_angle_gamma 90.000000
_cell_volume 6275.342315
_symmetry_space_group_name_H-M "I M M M"
_symmetry_group_IT_number 71
_symmetry_cell_setting 'orthorhombic'
loop_
_space_group_symop_operation_xyz
x,y,z
-x,-y,z
x,-y,-z
-x,y,-z
-x,-y,-z
x,y,-z
-x,y,z
x,-y,z
1/2+x,1/2+y,1/2+z
1/2-x,1/2-y,1/2+z
1/2+x,1/2-y,1/2-z
1/2-x,1/2+y,1/2-z
1/2-x,1/2-y,1/2-z
1/2+x,1/2+y,1/2-z
1/2-x,1/2+y,1/2+z
1/2+x,1/2-y,1/2+z
loop_
_atom_site_type_symbol
_atom_site_label
_atom_site_fract_x
_atom_site_fract_y
_atom_site_fract_z
Si Si1 0.064292 0.276212 0.200660
Si Si2 0.064165 0.618439 0.428568
Si Si3 0.933644 0.881778 0.000000
Si Si4 0.628130 0.382459 0.364262
Si Si5 0.636231 0.883974 0.808999
Si Si6 0.096619 0.385626 0.073380
Si Si7 0.251566 0.716649 0.674274
Si Si8 0.732119 0.113568 0.575994
O O1 0.084213 0.161612 0.190876
O O2 0.113268 0.330298 0.243468
O O3 0.061378 0.326993 0.128628
O O4 0.000000 0.280888 0.232329
O O5 0.089974 0.650674 0.500000
O O6 0.063608 0.500000 0.423178
O O7 0.101456 0.664108 0.369992
O O8 0.000000 0.661042 0.421372
O O9 0.896479 0.848000 0.935841
O O10 0.000000 0.840384 0.000000
O O11 0.937475 0.000000 0.000000
O O12 0.631289 0.500000 0.355762
O O13 0.690532 0.334741 0.352021
O O14 0.702214 0.866638 0.828200
O O15 0.624894 0.000000 0.798289
O O16 0.077296 0.500000 0.075547
O O17 0.164232 0.376367 0.087674
O O18 0.081951 0.341338 0.000000
O O19 0.250000 0.750000 0.750000
O O20 0.236634 0.811088 0.627041
O O21 0.748263 0.140388 0.500000
O O22 0.751655 0.000000 0.591895
#
# Coordination Sequence:
#
# PCOD8292540 Si02
#       8
#    16  16   8  16  16  16  16  16
#     4  12  24  37  58  84 112 154 202 247 298 355
#     4   8  15  31  55  80 108 143 178 216 273 344
#     4   9  20  40  64  88 117 159 210 262 312 363
#     4  11  24  42  61  85 119 160 206 256 314 371
#     4  11  23  39  56  84 120 152 191 242 301 364
#     4   9  18  34  55  81 114 149 187 235 291 347
#     4  12  23  39  60  88 118 159 202 249 307 374
#     4   9  19  37  62  87 115 154 197 248 305 359
#
# _framework density 19.122463
#
# number of rings (size 3 to 8) (size 9 to 14) (size 15 to 20)
#    0.000    1.800    2.667    2.800    1.867    5.333 
#    0.000    0.667    0.000    0.000    0.000    0.000 
#    0.000    0.000    0.000    7.067    0.000    0.267 
#
# Total GULP energy -743674.066575 kJ/mol
# GULP energy per Si atom -12394.567776 kJ/mol
# Density = 1.907894 g / cm^3
# Si number density = 19.122463 Si / 1000 Ang^3
#
#
#
# Elastic Constant Matrix: (Units=GPa)
#
#
# Indices 1 2 3 4 5 6 
#
# 1 100.8273 31.7019 46.7418 0.0000 0.0000 0.0000
# 2 31.7019 81.5588 51.2515 0.0000 0.0000 0.0000
# 3 46.7418 51.2515 121.7077 0.0000 0.0000 0.0000
# 4 0.0000 0.0000 0.0000 30.3269 0.0000 0.0000
# 5 0.0000 0.0000 0.0000 0.0000 33.7943 0.0000
# 6 0.0000 0.0000 0.0000 0.0000 0.0000 21.6981
#
#
#
# Elastic Compliance Matrix: (Units=1/GPa)
#
#
# Indices 1 2 3 4 5 6 
#
# 1 0.012427 -0.002490 -0.003724 0.000000 0.000000 0.000000
# 2 -0.002490 0.017172 -0.006275 0.000000 0.000000 0.000000
# 3 -0.003724 -0.006275 0.012289 0.000000 0.000000 0.000000
# 4 0.000000 0.000000 0.000000 0.032974 0.000000 0.000000
# 5 0.000000 0.000000 0.000000 0.000000 0.029591 0.000000
# 6 0.000000 0.000000 0.000000 0.000000 0.000000 0.046087
#
#
# Mechanical properties :
#
#
# Convention : Reuss Voigt Hill
#
# Bulk Modulus (GPa) = 59.13629 62.60935 60.87282
# Shear Modulus (GPa) = 27.60059 28.79042 28.19550
#
# Velocity S-wave (km/s) = 3.80328 3.88439 3.84405
# Velocity P-wave (km/s) = 7.09075 7.27532 7.18363
#
# Compressibility (1/GPa) = 0.01691009
#
# Stress axis : x y z
#
# Youngs Moduli (GPa) = 80.46770 58.23369 81.37369
#
# Poissons Ratio (x) = 0.14502 0.30304
# Poissons Ratio (y) = 0.20039 0.51061
# Poissons Ratio (z) = 0.29966 0.36541
#
# Static dielectric constant tensor:
#      x y z
#    x 3.832240 0.000000 0.000000 
#    y 0.000000 3.475310 0.000000 
#    z 0.000000 0.000000 3.736920 
# 
# 
# High freq. dielectric constant tensor:
#      x y z
#    x 1.731240 0.000000 0.000000 
#    y 0.000000 1.733140 0.000000 
#    z 0.000000 0.000000 1.749590 
# 
# From -- ./inp_files/55140.got.cif
#   From: 2010.06.25/outbox.cif.g09.slc.cpg/sg71_28_cif.got.tgz:55140.got - 2010.06.28 04:59:45.
