data_PCOD8292808
_publ_section_title
;
Structure prediction by ZEFSAII (Michael W. Deem and Ramdas Pophale) SiO2 
 PCOD8292808
Probable space group: I B A M
;
_chemical_formula_sum "Si O2"
_cell_formula_units_Z 112
_cell_length_a 25.971093
_cell_length_b 8.524931
_cell_length_c 24.870017
_cell_angle_alpha 90.000000
_cell_angle_beta 90.000000
_cell_angle_gamma 90.000000
_cell_volume 5506.265928
_symmetry_space_group_name_H-M "I B A M"
_symmetry_group_IT_number 72
_symmetry_cell_setting 'orthorhombic'
loop_
_space_group_symop_operation_xyz
x,y,z
-x,-y,z
x,-y,1/2-z
-x,y,1/2-z
-x,-y,-z
x,y,-z
-x,y,1/2+z
x,-y,1/2+z
1/2+x,1/2+y,1/2+z
1/2-x,1/2-y,1/2+z
1/2+x,1/2-y,-z
1/2-x,1/2+y,-z
1/2-x,1/2-y,1/2-z
1/2+x,1/2+y,1/2-z
1/2-x,1/2+y,z
1/2+x,1/2-y,z
loop_
_atom_site_type_symbol
_atom_site_label
_atom_site_fract_x
_atom_site_fract_y
_atom_site_fract_z
Si Si1 0.384128 0.666289 0.559657
Si Si2 0.488837 0.670685 0.598199
Si Si3 0.796120 0.849105 0.362183
Si Si4 0.843717 0.185835 0.754780
Si Si5 0.812162 0.781123 0.138010
Si Si6 0.402661 0.298642 0.437686
Si Si7 0.545492 0.332639 0.720310
O O1 0.364114 0.700918 0.500000
O O2 0.439553 0.751983 0.569036
O O3 0.339402 0.727425 0.599157
O O4 0.395700 0.483812 0.569669
O O5 0.500000 0.500000 0.572473
O O6 0.542549 0.762912 0.587213
O O7 0.471601 0.648583 0.659312
O O8 0.803440 0.776207 0.302432
O O9 0.739130 0.806626 0.381622
O O10 0.802591 0.034539 0.364192
O O11 0.826631 0.267278 0.699259
O O12 0.899587 0.252801 0.773119
O O13 0.847721 0.000000 0.750000
O O14 0.857037 0.722050 0.097811
O O15 0.397990 0.247105 0.500000
O O16 0.549641 0.500000 0.750000
O O17 0.500000 0.234353 0.750000
#
# Coordination Sequence:
#
# PCOD8292808 Si02
#       7
#    16  16  16  16  16  16  16
#     4   9  17  28  43  64  92 125 158 192 236 284
#     4  10  15  24  40  64  95 125 154 186 239 293
#     4  10  19  33  48  70  95 127 161 201 234 283
#     4   9  17  28  43  66  95 125 155 194 236 285
#     4  10  20  32  50  68  97 127 164 195 240 278
#     4   9  18  29  42  65  95 128 158 192 240 290
#     4  10  15  20  36  63  94 126 151 184 235 289
#
# _framework density 20.340463
#
# number of rings (size 3 to 8) (size 9 to 14) (size 15 to 20)
#    0.000    2.429    2.857    1.714    4.000    2.286 
#    0.000    0.000    0.000    0.000    0.000    1.000 
#    0.000    3.429    0.000    0.000    0.000    0.000 
#
# Total GULP energy -693811.373381 kJ/mol
# GULP energy per Si atom -12389.488810 kJ/mol
# Density = 2.029417 g / cm^3
# Si number density = 20.340463 Si / 1000 Ang^3
#
#
#
# Elastic Constant Matrix: (Units=GPa)
#
#
# Indices 1 2 3 4 5 6 
#
# 1 200.4945 8.6314 81.9225 0.0000 0.0000 0.0000
# 2 8.6314 2.6519 8.7397 0.0000 0.0000 0.0000
# 3 81.9225 8.7397 150.1441 0.0000 0.0000 0.0000
# 4 0.0000 0.0000 0.0000 5.5661 0.0000 0.0000
# 5 0.0000 0.0000 0.0000 0.0000 31.6819 0.0000
# 6 0.0000 0.0000 0.0000 0.0000 0.0000 18.3315
#
#
#
# Elastic Compliance Matrix: (Units=1/GPa)
#
#
# Indices 1 2 3 4 5 6 
#
# 1 0.006719 -0.012110 -0.002961 0.000000 0.000000 0.000000
# 2 -0.012110 0.488419 -0.021823 0.000000 0.000000 0.000000
# 3 -0.002961 -0.021823 0.009546 0.000000 0.000000 0.000000
# 4 0.000000 0.000000 0.000000 0.179659 0.000000 0.000000
# 5 0.000000 0.000000 0.000000 0.000000 0.031564 0.000000
# 6 0.000000 0.000000 0.000000 0.000000 0.000000 0.054551
#
#
# Mechanical properties :
#
#
# Convention : Reuss Voigt Hill
#
# Bulk Modulus (GPa) = 2.32075 61.31975 31.82025
# Shear Modulus (GPa) = 5.06136 28.04902 16.55519
#
# Velocity S-wave (km/s) = 1.57915 3.71749 2.85600
# Velocity P-wave (km/s) = 2.11386 6.97412 5.15300
#
# Compressibility (1/GPa) = 0.43089601
#
# Stress axis : x y z
#
# Youngs Moduli (GPa) = 148.83351 2.04742 104.75343
#
# Poissons Ratio (x) = 0.02479 0.31019
# Poissons Ratio (y) = 1.80233 2.28604
# Poissons Ratio (z) = 0.44071 0.04468
#
# Static dielectric constant tensor:
#      x y z
#    x 4.341570 0.000000 0.000000 
#    y 0.000000 2.737520 0.000000 
#    z 0.000000 0.000000 3.828580 
# 
# 
# High freq. dielectric constant tensor:
#      x y z
#    x 1.823930 0.000000 0.000000 
#    y 0.000000 1.691100 0.000000 
#    z 0.000000 0.000000 1.804810 
# 
# From -- ./inp_files/45756.got.cif
#   From: 2010.03.12/outbox.cif.g09.slc.cpg/sg72_23_cif.got.tgz:45756.got - 2010.04.16 14:54:00.
