data_PCOD8292485
_publ_section_title
;
Structure prediction by ZEFSAII (Michael W. Deem and Ramdas Pophale) SiO2 
 PCOD8292485
Probable space group: I M M M
;
_chemical_formula_sum "Si O2"
_cell_formula_units_Z 72
_cell_length_a 26.861789
_cell_length_b 14.593532
_cell_length_c 8.917461
_cell_angle_alpha 90.000000
_cell_angle_beta 90.000000
_cell_angle_gamma 90.000000
_cell_volume 3495.719417
_symmetry_space_group_name_H-M "I M M M"
_symmetry_group_IT_number 71
_symmetry_cell_setting 'orthorhombic'
loop_
_space_group_symop_operation_xyz
x,y,z
-x,-y,z
x,-y,-z
-x,y,-z
-x,-y,-z
x,y,-z
-x,y,z
x,-y,z
1/2+x,1/2+y,1/2+z
1/2-x,1/2-y,1/2+z
1/2+x,1/2-y,1/2-z
1/2-x,1/2+y,1/2-z
1/2-x,1/2-y,1/2-z
1/2+x,1/2+y,1/2-z
1/2-x,1/2+y,1/2+z
1/2+x,1/2-y,1/2+z
loop_
_atom_site_type_symbol
_atom_site_label
_atom_site_fract_x
_atom_site_fract_y
_atom_site_fract_z
Si Si1 0.500000 0.608132 0.824644
Si Si2 0.909970 0.785994 0.178053
Si Si3 0.389557 0.100525 0.176167
Si Si4 0.219350 0.369988 0.663353
Si Si5 0.809897 0.164304 0.664497
O O1 0.500000 0.500000 0.796456
O O2 0.548098 0.650630 0.747655
O O3 0.500000 0.632274 0.000000
O O4 0.917676 0.680988 0.234618
O O5 0.857678 0.829197 0.228728
O O6 0.913611 0.786898 0.000000
O O7 0.332425 0.093680 0.233410
O O8 0.414513 0.000000 0.203932
O O9 0.390363 0.126726 0.000000
O O10 0.227288 0.414689 0.500000
O O11 0.215864 0.261647 0.645214
O O12 0.266938 0.399893 0.763419
O O13 0.825461 0.126081 0.500000
#
# Coordination Sequence:
#
# PCOD8292485 Si02
#       5
#     8  16  16  16  16
#     4  11  25  47  72  91 108 135 177 232 292 351
#     4  11  22  37  60  88 118 150 186 234 290 346
#     4   9  18  34  56  83 119 162 202 237 277 331
#     4   8  14  25  44  73 108 148 193 237 278 318
#     4   9  16  28  48  74 107 149 193 233 276 328
#
# _framework density 20.596617999999999
#
# number of rings (size 3 to 8) (size 9 to 14) (size 15 to 20)
#    0.000    2.556    0.000    4.333    0.000    6.667 
#    0.000    1.667    0.000    7.333    0.000    0.000 
#    0.000    0.000    0.000    0.000    0.000    0.000 
#
# Total GULP energy -446086.482060 kJ/mol
# GULP energy per Si atom -12391.291168 kJ/mol
# Density = 2.054974 g / cm^3
# Si number density = 20.596618 Si / 1000 Ang^3
#
#
#
# Elastic Constant Matrix: (Units=GPa)
#
#
# Indices 1 2 3 4 5 6 
#
# 1 92.5282 45.3668 61.0222 0.0000 0.0000 0.0000
# 2 45.3668 93.7977 57.8120 0.0000 0.0000 0.0000
# 3 61.0222 57.8120 155.7262 0.0000 0.0000 0.0000
# 4 0.0000 0.0000 0.0000 12.8652 0.0000 0.0000
# 5 0.0000 0.0000 0.0000 0.0000 35.9405 0.0000
# 6 0.0000 0.0000 0.0000 0.0000 0.0000 -0.7683
#
#
#
# Elastic Compliance Matrix: (Units=1/GPa)
#
#
# Indices 1 2 3 4 5 6 
#
# 1 0.016264 -0.005107 -0.004477 0.000000 0.000000 0.000000
# 2 -0.005107 0.015428 -0.003726 0.000000 0.000000 0.000000
# 3 -0.004477 -0.003726 0.009559 0.000000 0.000000 0.000000
# 4 0.000000 0.000000 0.000000 0.077729 0.000000 0.000000
# 5 0.000000 0.000000 0.000000 0.000000 0.027824 0.000000
# 6 0.000000 0.000000 0.000000 0.000000 0.000000 -1.301490
#
#
# Mechanical properties :
#
#
# Convention : Reuss Voigt Hill
#
# Bulk Modulus (GPa) = 68.35051 74.49489 71.42270
# Shear Modulus (GPa) = -4.45161 21.46422 8.50630
#
# Velocity S-wave (km/s) = -1.47174 3.23170 2.03443
# Velocity P-wave (km/s) = 5.51084 7.08323 6.34592
#
# Compressibility (1/GPa) = 0.01463047
#
# Stress axis : x y z
#
# Youngs Moduli (GPa) = 61.48465 64.81732 104.60928
#
# Poissons Ratio (x) = 0.33101 0.46837
# Poissons Ratio (y) = 0.31399 0.38981
# Poissons Ratio (z) = 0.27529 0.24153
#
# Static dielectric constant tensor:
#      x y z
#    x 3.655570 0.000000 0.000000 
#    y 0.000000 3.696450 0.000000 
#    z 0.000000 0.000000 4.029360 
# 
# 
# High freq. dielectric constant tensor:
#      x y z
#    x 1.786940 0.000000 0.000000 
#    y 0.000000 1.795180 0.000000 
#    z 0.000000 0.000000 1.803150 
# 
# From -- ./inp_files/16385.got.cif
#   From: 2010.06.25/outbox.cif.g09.slc.cpg/sg71_9_cif.got.tgz:16385.got - 2010.06.28 04:59:45.
