data_PCOD8292039
_publ_section_title
;
Structure prediction by ZEFSAII (Michael W. Deem and Ramdas Pophale) SiO2 
 PCOD8292039
Probable space group: I M M M
;
_chemical_formula_sum "Si O2"
_cell_formula_units_Z 96
_cell_length_a 8.052478
_cell_length_b 27.458150
_cell_length_c 23.287142
_cell_angle_alpha 90.000000
_cell_angle_beta 90.000000
_cell_angle_gamma 90.000000
_cell_volume 5148.930284
_symmetry_space_group_name_H-M "I M M M"
_symmetry_group_IT_number 71
_symmetry_cell_setting 'orthorhombic'
loop_
_space_group_symop_operation_xyz
x,y,z
-x,-y,z
x,-y,-z
-x,y,-z
-x,-y,-z
x,y,-z
-x,y,z
x,-y,z
1/2+x,1/2+y,1/2+z
1/2-x,1/2-y,1/2+z
1/2+x,1/2-y,1/2-z
1/2-x,1/2+y,1/2-z
1/2-x,1/2-y,1/2-z
1/2+x,1/2+y,1/2-z
1/2-x,1/2+y,1/2+z
1/2+x,1/2-y,1/2+z
loop_
_atom_site_type_symbol
_atom_site_label
_atom_site_fract_x
_atom_site_fract_y
_atom_site_fract_z
Si Si1 0.311922 0.121689 0.162095
Si Si2 0.309386 0.093227 0.711318
Si Si3 0.193025 0.053687 0.936657
Si Si4 0.685872 0.725241 0.307739
Si Si5 0.000000 0.858820 0.566023
Si Si6 0.500000 0.446667 0.149090
Si Si7 0.815857 0.678965 0.874267
O O1 0.500000 0.111683 0.147432
O O2 0.263058 0.096744 0.222017
O O3 0.217722 0.096424 0.109685
O O4 0.287484 0.179524 0.168530
O O5 0.500000 0.074015 0.702281
O O6 0.289835 0.146520 0.682873
O O7 0.170139 0.057910 0.685441
O O8 0.000000 0.047699 0.943844
O O9 0.265113 0.000000 0.917788
O O10 0.267007 0.067875 0.000000
O O11 0.500000 0.706964 0.295962
O O12 0.750000 0.750000 0.250000
O O13 0.693470 0.764821 0.357900
O O14 0.000000 0.910308 0.596639
O O15 0.168403 0.829878 0.580803
O O16 0.000000 0.870418 0.500000
O O17 0.500000 0.500000 0.122020
O O18 0.000000 0.667517 0.900688
#
# Coordination Sequence:
#
# PCOD8292039 Si02
#       7
#    16  16  16  16   8   8  16
#     4  11  22  34  54  86 116 146 187 233 279 339
#     4   9  19  35  53  81 119 151 181 225 285 349
#     4   9  20  40  61  78 103 145 194 241 287 337
#     4  11  21  32  56  87 118 151 182 226 279 336
#     4  10  22  39  62  82 110 153 194 242 284 332
#     4  10  22  37  58  84 113 150 188 234 292 342
#     4   9  19  36  56  83 116 151 190 226 282 346
#
# _framework density 18.644649000000001
#
# number of rings (size 3 to 8) (size 9 to 14) (size 15 to 20)
#    0.000    2.167    1.667    1.500    4.667    2.167 
#    0.000    3.333    0.000    1.000    0.000    4.667 
#    0.000    0.000    0.000    0.000    0.000    0.000 
#
# Total GULP energy -594820.239223 kJ/mol
# GULP energy per Si atom -12392.088317 kJ/mol
# Density = 1.860221 g / cm^3
# Si number density = 18.644649 Si / 1000 Ang^3
#
#
#
# Elastic Constant Matrix: (Units=GPa)
#
#
# Indices 1 2 3 4 5 6 
#
# 1 94.2136 24.5696 46.9731 0.0000 0.0000 0.0000
# 2 24.5696 93.8518 45.6621 0.0000 0.0000 0.0000
# 3 46.9731 45.6621 112.6553 0.0000 0.0000 0.0000
# 4 0.0000 0.0000 0.0000 18.3141 0.0000 0.0000
# 5 0.0000 0.0000 0.0000 0.0000 18.7617 0.0000
# 6 0.0000 0.0000 0.0000 0.0000 0.0000 17.2146
#
#
#
# Elastic Compliance Matrix: (Units=1/GPa)
#
#
# Indices 1 2 3 4 5 6 
#
# 1 0.013473 -0.000989 -0.005217 0.000000 0.000000 0.000000
# 2 -0.000989 0.013345 -0.004997 0.000000 0.000000 0.000000
# 3 -0.005217 -0.004997 0.013077 0.000000 0.000000 0.000000
# 4 0.000000 0.000000 0.000000 0.054603 0.000000 0.000000
# 5 0.000000 0.000000 0.000000 0.000000 0.053300 0.000000
# 6 0.000000 0.000000 0.000000 0.000000 0.000000 0.058090
#
#
# Mechanical properties :
#
#
# Convention : Reuss Voigt Hill
#
# Bulk Modulus (GPa) = 57.17500 59.45892 58.31696
# Shear Modulus (GPa) = 21.35620 23.09247 22.22434
#
# Velocity S-wave (km/s) = 3.38810 3.52313 3.45627
# Velocity P-wave (km/s) = 6.78512 6.96490 6.87559
#
# Compressibility (1/GPa) = 0.01749016
#
# Stress axis : x y z
#
# Youngs Moduli (GPa) = 74.22167 74.93395 76.46869
#
# Poissons Ratio (x) = 0.07410 0.39894
# Poissons Ratio (y) = 0.07340 0.38210
# Poissons Ratio (z) = 0.38721 0.37443
#
# Static dielectric constant tensor:
#      x y z
#    x 3.743050 0.000000 0.000000 
#    y 0.000000 3.292180 0.000000 
#    z 0.000000 0.000000 3.178380 
# 
# 
# High freq. dielectric constant tensor:
#      x y z
#    x 1.738270 0.000000 0.000000 
#    y 0.000000 1.716850 0.000000 
#    z 0.000000 0.000000 1.701030 
# 
# From -- ./inp_files/57787.got.cif
#   From: 2010.06.25/outbox.cif.g09.slc.cpg/sg71_29_cif.got.tgz:57787.got - 2010.06.28 04:59:45.
