data_PCOD8292184
_publ_section_title
;
Structure prediction by ZEFSAII (Michael W. Deem and Ramdas Pophale) SiO2 
 PCOD8292184
Probable space group: I M M M
;
_chemical_formula_sum "Si O2"
_cell_formula_units_Z 56
_cell_length_a 14.907685
_cell_length_b 20.083941
_cell_length_c 8.808500
_cell_angle_alpha 90.000000
_cell_angle_beta 90.000000
_cell_angle_gamma 90.000000
_cell_volume 2637.309524
_symmetry_space_group_name_H-M "I M M M"
_symmetry_group_IT_number 71
_symmetry_cell_setting 'orthorhombic'
loop_
_space_group_symop_operation_xyz
x,y,z
-x,-y,z
x,-y,-z
-x,y,-z
-x,-y,-z
x,y,-z
-x,y,z
x,-y,z
1/2+x,1/2+y,1/2+z
1/2-x,1/2-y,1/2+z
1/2+x,1/2-y,1/2-z
1/2-x,1/2+y,1/2-z
1/2-x,1/2-y,1/2-z
1/2+x,1/2+y,1/2-z
1/2-x,1/2+y,1/2+z
1/2+x,1/2-y,1/2+z
loop_
_atom_site_type_symbol
_atom_site_label
_atom_site_fract_x
_atom_site_fract_y
_atom_site_fract_z
Si Si1 0.500000 0.277145 0.821595
Si Si2 0.500000 0.134930 0.323618
Si Si3 0.168333 0.424070 0.325809
Si Si4 0.899869 0.000000 0.663218
Si Si5 0.146239 0.867004 0.824299
O O1 0.500000 0.200515 0.777736
O O2 0.407079 0.309017 0.761975
O O3 0.500000 0.285528 0.000000
O O4 0.500000 0.154043 0.500000
O O5 0.586850 0.091089 0.285895
O O6 0.135804 0.418986 0.500000
O O7 0.203109 0.500000 0.292928
O O8 0.246145 0.368865 0.295685
O O9 0.886507 0.937248 0.768269
O O10 0.844966 0.000000 0.500000
O O11 0.000000 0.000000 0.607932
O O12 0.123500 0.858241 0.000000
#
# Coordination Sequence:
#
# PCOD8292184 Si02
#       5
#     8   8  16   8  16
#     4  12  26  44  64  92 130 174 211 257 318 380
#     4  12  27  45  65  92 124 169 218 265 315 373
#     4  10  22  43  69  97 127 165 209 260 321 375
#     4  11  21  33  55  92 132 169 206 254 315 373
#     4  11  22  39  65  96 128 166 210 259 314 377
#
# _framework density 21.23376
#
# number of rings (size 3 to 8) (size 9 to 14) (size 15 to 20)
#    0.000    1.000    2.857    4.286    0.000    6.286 
#    0.000    0.000    0.000    0.000    0.000    0.000 
#    0.000    0.000    0.000    0.000    0.000    0.000 
#
# Total GULP energy -347071.883718 kJ/mol
# GULP energy per Si atom -12395.424419 kJ/mol
# Density = 2.118543 g / cm^3
# Si number density = 21.233760 Si / 1000 Ang^3
#
#
#
# Elastic Constant Matrix: (Units=GPa)
#
#
# Indices 1 2 3 4 5 6 
#
# 1 110.9812 26.5462 54.0721 0.0000 0.0000 0.0000
# 2 26.5462 79.2794 24.5546 0.0000 0.0000 0.0000
# 3 54.0721 24.5546 136.7457 0.0000 0.0000 0.0000
# 4 0.0000 0.0000 0.0000 36.4604 0.0000 0.0000
# 5 0.0000 0.0000 0.0000 0.0000 18.9184 0.0000
# 6 0.0000 0.0000 0.0000 0.0000 0.0000 -16.8482
#
#
#
# Elastic Compliance Matrix: (Units=1/GPa)
#
#
# Indices 1 2 3 4 5 6 
#
# 1 0.011653 -0.002621 -0.004137 0.000000 0.000000 0.000000
# 2 -0.002621 0.013946 -0.001468 0.000000 0.000000 0.000000
# 3 -0.004137 -0.001468 0.009212 0.000000 0.000000 0.000000
# 4 0.000000 0.000000 0.000000 0.027427 0.000000 0.000000
# 5 0.000000 0.000000 0.000000 0.000000 0.052858 0.000000
# 6 0.000000 0.000000 0.000000 0.000000 0.000000 -0.059354
#
#
# Mechanical properties :
#
#
# Convention : Reuss Voigt Hill
#
# Bulk Modulus (GPa) = 54.46723 59.70578 57.08651
# Shear Modulus (GPa) = 63.84499 22.49503 43.17001
#
# Velocity S-wave (km/s) = 5.48935 3.25837 4.51386
# Velocity P-wave (km/s) = 8.11691 6.50656 7.35593
#
# Compressibility (1/GPa) = 0.01835966
#
# Stress axis : x y z
#
# Youngs Moduli (GPa) = 85.81373 71.70647 108.54910
#
# Poissons Ratio (x) = 0.18791 0.44910
# Poissons Ratio (y) = 0.22488 0.15934
# Poissons Ratio (z) = 0.35504 0.10526
#
# Static dielectric constant tensor:
#      x y z
#    x 4.142730 0.000000 0.000000 
#    y 0.000000 3.626750 0.000000 
#    z 0.000000 0.000000 3.857950 
# 
# 
# High freq. dielectric constant tensor:
#      x y z
#    x 1.839370 0.000000 0.000000 
#    y 0.000000 1.821550 0.000000 
#    z 0.000000 0.000000 1.845670 
# 
# From -- ./inp_files/5107.got.cif
#   From: 2010.06.25/outbox.cif.g09.slc.cpg/sg71_3_cif.got.tgz:5107.got - 2010.06.28 04:59:45.
