data_PCOD8292101
_publ_section_title
;
Structure prediction by ZEFSAII (Michael W. Deem and Ramdas Pophale) SiO2 
 PCOD8292101
Probable space group: I M M M
;
_chemical_formula_sum "Si O2"
_cell_formula_units_Z 72
_cell_length_a 7.751468
_cell_length_b 19.196659
_cell_length_c 24.015760
_cell_angle_alpha 90.000000
_cell_angle_beta 90.000000
_cell_angle_gamma 90.000000
_cell_volume 3573.600035
_symmetry_space_group_name_H-M "I M M M"
_symmetry_group_IT_number 71
_symmetry_cell_setting 'orthorhombic'
loop_
_space_group_symop_operation_xyz
x,y,z
-x,-y,z
x,-y,-z
-x,y,-z
-x,-y,-z
x,y,-z
-x,y,z
x,-y,z
1/2+x,1/2+y,1/2+z
1/2-x,1/2-y,1/2+z
1/2+x,1/2-y,1/2-z
1/2-x,1/2+y,1/2-z
1/2-x,1/2-y,1/2-z
1/2+x,1/2+y,1/2-z
1/2-x,1/2+y,1/2+z
1/2+x,1/2-y,1/2+z
loop_
_atom_site_type_symbol
_atom_site_label
_atom_site_fract_x
_atom_site_fract_y
_atom_site_fract_z
Si Si1 0.703671 0.080020 0.000000
Si Si2 0.191913 0.420501 0.813146
Si Si3 0.000000 0.776013 0.438607
Si Si4 0.800035 0.319093 0.717141
Si Si5 0.692277 0.315162 0.404354
Si Si6 0.000000 0.921029 0.396283
O O1 0.765629 0.119075 0.943894
O O2 0.500000 0.079376 0.000000
O O3 0.774050 0.000000 0.000000
O O4 0.190423 0.500000 0.795629
O O5 0.249310 0.381518 0.757818
O O6 0.328117 0.406932 0.861442
O O7 0.000000 0.396381 0.833212
O O8 0.173600 0.748386 0.409920
O O9 0.000000 0.744382 0.500000
O O10 0.000000 0.860324 0.442245
O O11 0.750000 0.250000 0.750000
O O12 0.694605 0.334570 0.660851
O O13 0.000000 0.317207 0.701094
O O14 0.500000 0.288761 0.419539
O O15 0.000000 0.000000 0.421360
#
# Coordination Sequence:
#
# PCOD8292101 Si02
#       6
#     8  16   8  16  16   8
#     4  11  23  45  71  94 127 170 216 268 316 363
#     4   9  20  38  58  84 120 159 198 240 298 368
#     4  12  24  43  64  88 122 158 209 263 317 371
#     4  11  22  36  58  90 125 160 205 254 307 366
#     4  12  24  41  63  91 128 167 212 258 313 368
#     4  10  22  39  64  90 120 159 200 254 314 376
#
# _framework density 20.147751
#
# number of rings (size 3 to 8) (size 9 to 14) (size 15 to 20)
#    0.000    1.222    3.333    2.333    3.111    4.667 
#    0.000    2.222    0.000    0.000    0.000    4.667 
#    0.000    0.000    0.000    0.000    0.000    0.000 
#
# Total GULP energy -446274.746092 kJ/mol
# GULP energy per Si atom -12396.520725 kJ/mol
# Density = 2.010189 g / cm^3
# Si number density = 20.147751 Si / 1000 Ang^3
#
#
#
# Elastic Constant Matrix: (Units=GPa)
#
#
# Indices 1 2 3 4 5 6 
#
# 1 106.7439 35.5495 4.6705 0.0000 0.0000 0.0000
# 2 35.5495 107.7530 33.8843 0.0000 0.0000 0.0000
# 3 4.6705 33.8843 74.0319 0.0000 0.0000 0.0000
# 4 0.0000 0.0000 0.0000 34.5673 0.0000 0.0000
# 5 0.0000 0.0000 0.0000 0.0000 16.9635 0.0000
# 6 0.0000 0.0000 0.0000 0.0000 0.0000 6.0127
#
#
#
# Elastic Compliance Matrix: (Units=1/GPa)
#
#
# Indices 1 2 3 4 5 6 
#
# 1 0.010599 -0.003839 0.001088 0.000000 0.000000 0.000000
# 2 -0.003839 0.012231 -0.005356 0.000000 0.000000 0.000000
# 3 0.001088 -0.005356 0.015890 0.000000 0.000000 0.000000
# 4 0.000000 0.000000 0.000000 0.028929 0.000000 0.000000
# 5 0.000000 0.000000 0.000000 0.000000 0.058950 0.000000
# 6 0.000000 0.000000 0.000000 0.000000 0.000000 0.166315
#
#
# Mechanical properties :
#
#
# Convention : Reuss Voigt Hill
#
# Bulk Modulus (GPa) = 44.42949 48.52638 46.47794
# Shear Modulus (GPa) = 15.79126 25.80367 20.79746
#
# Velocity S-wave (km/s) = 2.80263 3.58260 3.21635
# Velocity P-wave (km/s) = 5.70725 6.42269 6.07551
#
# Compressibility (1/GPa) = 0.02250757
#
# Stress axis : x y z
#
# Youngs Moduli (GPa) = 94.34715 81.75707 62.93074
#
# Poissons Ratio (x) = 0.31388 -0.06850
# Poissons Ratio (y) = 0.36221 0.33706
# Poissons Ratio (z) = -0.10270 0.43790
#
# Static dielectric constant tensor:
#      x y z
#    x 4.185370 0.000000 0.000000 
#    y 0.000000 3.799760 0.000000 
#    z 0.000000 0.000000 3.550590 
# 
# 
# High freq. dielectric constant tensor:
#      x y z
#    x 1.804430 0.000000 0.000000 
#    y 0.000000 1.787380 0.000000 
#    z 0.000000 0.000000 1.778450 
# 
# From -- ./inp_files/57310.got.cif
#   From: 2010.06.25/outbox.cif.g09.slc.cpg/sg71_29_cif.got.tgz:57310.got - 2010.06.28 04:59:45.
