data_PCOD8292518
_publ_section_title
;
Structure prediction by ZEFSAII (Michael W. Deem and Ramdas Pophale) SiO2 
 PCOD8292518
Probable space group: I M M M
;
_chemical_formula_sum "Si O2"
_cell_formula_units_Z 96
_cell_length_a 28.592891
_cell_length_b 9.090090
_cell_length_c 27.935682
_cell_angle_alpha 90.000000
_cell_angle_beta 90.000000
_cell_angle_gamma 90.000000
_cell_volume 7260.817654
_symmetry_space_group_name_H-M "I M M M"
_symmetry_group_IT_number 71
_symmetry_cell_setting 'orthorhombic'
loop_
_space_group_symop_operation_xyz
x,y,z
-x,-y,z
x,-y,-z
-x,y,-z
-x,-y,-z
x,y,-z
-x,y,z
x,-y,z
1/2+x,1/2+y,1/2+z
1/2-x,1/2-y,1/2+z
1/2+x,1/2-y,1/2-z
1/2-x,1/2+y,1/2-z
1/2-x,1/2-y,1/2-z
1/2+x,1/2+y,1/2-z
1/2-x,1/2+y,1/2+z
1/2+x,1/2-y,1/2+z
loop_
_atom_site_type_symbol
_atom_site_label
_atom_site_fract_x
_atom_site_fract_y
_atom_site_fract_z
Si Si1 0.282249 0.828042 0.592908
Si Si2 0.805397 0.174821 0.000000
Si Si3 0.906115 0.676207 0.000000
Si Si4 0.226296 0.837953 0.682054
Si Si5 0.554325 0.668908 0.408624
Si Si6 0.374563 0.828155 0.347183
Si Si7 0.679877 0.837878 0.742749
O O1 0.276324 0.726958 0.546311
O O2 0.243095 0.772515 0.631005
O O3 0.333855 0.803932 0.614076
O O4 0.275000 0.000000 0.580660
O O5 0.854840 0.255988 0.000000
O O6 0.811900 0.000000 0.000000
O O7 0.934298 0.729711 0.953872
O O8 0.902405 0.500000 0.000000
O O9 0.270556 0.844411 0.716696
O O10 0.184219 0.749748 0.707381
O O11 0.206343 0.000000 0.673386
O O12 0.500000 0.680731 0.396544
O O13 0.568821 0.500000 0.419214
O O14 0.581532 0.729517 0.362283
O O15 0.357833 0.771510 0.294701
O O16 0.388157 0.000000 0.345187
O O17 0.663526 0.000000 0.757250
#
# Coordination Sequence:
#
# PCOD8292518 Si02
#       7
#    16   8   8  16  16  16  16
#     4   9  17  29  42  55  74  99 124 151 184 224
#     4  12  22  29  41  60  76  95 126 160 195 229
#     4  12  23  35  48  57  68  92 124 156 196 245
#     4   8  14  24  38  56  75  96 118 141 175 217
#     4  11  23  35  45  59  76  91 117 161 202 234
#     4   9  17  29  44  58  73  97 123 147 183 232
#     4   8  14  24  38  57  77  94 115 143 175 214
#
# _framework density 13.221651
#
# number of rings (size 3 to 8) (size 9 to 14) (size 15 to 20)
#    0.000    2.500    1.667    4.250    0.000    3.667 
#    0.000    3.333    0.000    0.000    0.000    0.000 
#    0.000    0.000    0.000    0.000    0.000    0.000 
#
# Total GULP energy -594906.122871 kJ/mol
# GULP energy per Si atom -12393.877560 kJ/mol
# Density = 1.319156 g / cm^3
# Si number density = 13.221651 Si / 1000 Ang^3
#
#
#
# Elastic Constant Matrix: (Units=GPa)
#
#
# Indices 1 2 3 4 5 6 
#
# 1 39.1373 31.2271 43.4464 0.0000 0.0000 0.0000
# 2 31.2271 81.4741 50.9550 0.0000 0.0000 0.0000
# 3 43.4464 50.9550 87.3128 0.0000 0.0000 0.0000
# 4 0.0000 0.0000 0.0000 23.3490 0.0000 0.0000
# 5 0.0000 0.0000 0.0000 0.0000 14.9816 0.0000
# 6 0.0000 0.0000 0.0000 0.0000 0.0000 16.8432
#
#
#
# Elastic Compliance Matrix: (Units=1/GPa)
#
#
# Indices 1 2 3 4 5 6 
#
# 1 0.059340 -0.006735 -0.025597 0.000000 0.000000 0.000000
# 2 -0.006735 0.020093 -0.008375 0.000000 0.000000 0.000000
# 3 -0.025597 -0.008375 0.029077 0.000000 0.000000 0.000000
# 4 0.000000 0.000000 0.000000 0.042828 0.000000 0.000000
# 5 0.000000 0.000000 0.000000 0.000000 0.066748 0.000000
# 6 0.000000 0.000000 0.000000 0.000000 0.000000 0.059371
#
#
# Mechanical properties :
#
#
# Convention : Reuss Voigt Hill
#
# Bulk Modulus (GPa) = 36.90431 51.02012 43.96221
# Shear Modulus (GPa) = 13.59054 16.52116 15.05585
#
# Velocity S-wave (km/s) = 3.20957 3.53874 3.37816
# Velocity P-wave (km/s) = 6.45815 7.44103 6.96695
#
# Compressibility (1/GPa) = 0.02709711
#
# Stress axis : x y z
#
# Youngs Moduli (GPa) = 16.85210 49.76887 34.39112
#
# Poissons Ratio (x) = 0.33519 0.88030
# Poissons Ratio (y) = 0.11350 0.28802
# Poissons Ratio (z) = 0.43136 0.41680
#
# Static dielectric constant tensor:
#      x y z
#    x 2.367230 0.000000 0.000000 
#    y 0.000000 2.824580 0.000000 
#    z 0.000000 0.000000 2.753010 
# 
# 
# High freq. dielectric constant tensor:
#      x y z
#    x 1.450450 0.000000 0.000000 
#    y 0.000000 1.509820 0.000000 
#    z 0.000000 0.000000 1.493930 
# 
# From -- ./inp_files/71251.got.cif
#   From: 2010.06.25/outbox.cif.g09.slc.cpg/sg71_36_cif.got.tgz:71251.got - 2010.06.28 04:59:45.
