data_PCOD8292521
_publ_section_title
;
Structure prediction by ZEFSAII (Michael W. Deem and Ramdas Pophale) SiO2 
 PCOD8292521
Probable space group: I M M M
;
_chemical_formula_sum "Si O2"
_cell_formula_units_Z 64
_cell_length_a 18.349784
_cell_length_b 22.509298
_cell_length_c 7.977812
_cell_angle_alpha 90.000000
_cell_angle_beta 90.000000
_cell_angle_gamma 90.000000
_cell_volume 3295.161502
_symmetry_space_group_name_H-M "I M M M"
_symmetry_group_IT_number 71
_symmetry_cell_setting 'orthorhombic'
loop_
_space_group_symop_operation_xyz
x,y,z
-x,-y,z
x,-y,-z
-x,y,-z
-x,-y,-z
x,y,-z
-x,y,z
x,-y,z
1/2+x,1/2+y,1/2+z
1/2-x,1/2-y,1/2+z
1/2+x,1/2-y,1/2-z
1/2-x,1/2+y,1/2-z
1/2-x,1/2-y,1/2-z
1/2+x,1/2+y,1/2-z
1/2-x,1/2+y,1/2+z
1/2+x,1/2-y,1/2+z
loop_
_atom_site_type_symbol
_atom_site_label
_atom_site_fract_x
_atom_site_fract_y
_atom_site_fract_z
Si Si1 0.086459 0.500000 0.683146
Si Si2 0.086684 0.066500 0.500000
Si Si3 0.419624 0.126511 0.195708
Si Si4 0.668927 0.236790 0.305974
Si Si5 0.913870 0.855028 0.190424
O O1 0.124035 0.500000 0.500000
O O2 0.107651 0.437221 0.775495
O O3 0.000000 0.500000 0.666038
O O4 0.114569 0.097890 0.328674
O O5 0.000000 0.065815 0.500000
O O6 0.118490 0.000000 0.500000
O O7 0.500000 0.144562 0.268637
O O8 0.360457 0.177435 0.220802
O O9 0.428196 0.114762 0.000000
O O10 0.666234 0.224400 0.500000
O O11 0.750000 0.250000 0.250000
O O12 0.618588 0.291965 0.255647
O O13 0.000000 0.848985 0.198859
O O14 0.889610 0.873373 0.000000
#
# Coordination Sequence:
#
# PCOD8292521 Si02
#       5
#     8   8  16  16  16
#     4   7  12  26  49  79 109 135 170 211 252 309
#     4   9  18  32  56  86 110 137 174 220 272 324
#     4   9  17  31  55  82 107 140 178 216 261 314
#     4  11  23  36  52  75 106 141 180 225 271 321
#     4   9  19  35  55  80 110 141 178 224 272 325
#
# _framework density 19.422418
#
# number of rings (size 3 to 8) (size 9 to 14) (size 15 to 20)
#    0.000    2.750    0.000    3.000    3.500    2.000 
#    0.000    3.125    2.750    2.250    0.000    0.000 
#    0.000    0.000    0.000    0.000    0.000    0.000 
#
# Total GULP energy -396426.728786 kJ/mol
# GULP energy per Si atom -12388.335275 kJ/mol
# Density = 1.937821 g / cm^3
# Si number density = 19.422418 Si / 1000 Ang^3
#
#
#
# Elastic Constant Matrix: (Units=GPa)
#
#
# Indices 1 2 3 4 5 6 
#
# 1 56.4563 54.5898 15.0037 0.0000 0.0000 0.0000
# 2 54.5898 195.8519 63.9401 0.0000 0.0000 0.0000
# 3 15.0037 63.9401 75.9554 0.0000 0.0000 0.0000
# 4 0.0000 0.0000 0.0000 23.9903 0.0000 0.0000
# 5 0.0000 0.0000 0.0000 0.0000 17.7227 0.0000
# 6 0.0000 0.0000 0.0000 0.0000 0.0000 8.1053
#
#
#
# Elastic Compliance Matrix: (Units=1/GPa)
#
#
# Indices 1 2 3 4 5 6 
#
# 1 0.024333 -0.007189 0.001245 0.000000 0.000000 0.000000
# 2 -0.007189 0.009165 -0.006295 0.000000 0.000000 0.000000
# 3 0.001245 -0.006295 0.018219 0.000000 0.000000 0.000000
# 4 0.000000 0.000000 0.000000 0.041684 0.000000 0.000000
# 5 0.000000 0.000000 0.000000 0.000000 0.056425 0.000000
# 6 0.000000 0.000000 0.000000 0.000000 0.000000 0.123376
#
#
# Mechanical properties :
#
#
# Convention : Reuss Voigt Hill
#
# Bulk Modulus (GPa) = 36.71175 66.14785 51.42980
# Shear Modulus (GPa) = 16.29948 22.94565 19.62256
#
# Velocity S-wave (km/s) = 2.90005 3.44088 3.18198
# Velocity P-wave (km/s) = 5.49150 7.06524 6.32749
#
# Compressibility (1/GPa) = 0.02723924
#
# Stress axis : x y z
#
# Youngs Moduli (GPa) = 41.09624 109.11338 54.88816
#
# Poissons Ratio (x) = 0.78440 -0.06834
# Poissons Ratio (y) = 0.29543 0.34552
# Poissons Ratio (z) = -0.05117 0.68687
#
# Static dielectric constant tensor:
#      x y z
#    x 3.149100 0.000000 0.000000 
#    y 0.000000 3.919860 0.000000 
#    z 0.000000 0.000000 3.590570 
# 
# 
# High freq. dielectric constant tensor:
#      x y z
#    x 1.715460 0.000000 0.000000 
#    y 0.000000 1.771470 0.000000 
#    z 0.000000 0.000000 1.747090 
# 
# From -- ./inp_files/7520.got.cif
#   From: 2010.06.25/outbox.cif.g09.slc.cpg/sg71_4_cif.got.tgz:7520.got - 2010.06.28 04:59:45.
