data_PCOD8292148
_publ_section_title
;
Structure prediction by ZEFSAII (Michael W. Deem and Ramdas Pophale) SiO2 
 PCOD8292148
Probable space group: I M M M
;
_chemical_formula_sum "Si O2"
_cell_formula_units_Z 80
_cell_length_a 11.552857
_cell_length_b 15.314657
_cell_length_c 23.199439
_cell_angle_alpha 90.000000
_cell_angle_beta 90.000000
_cell_angle_gamma 90.000000
_cell_volume 4104.631325
_symmetry_space_group_name_H-M "I M M M"
_symmetry_group_IT_number 71
_symmetry_cell_setting 'orthorhombic'
loop_
_space_group_symop_operation_xyz
x,y,z
-x,-y,z
x,-y,-z
-x,y,-z
-x,-y,-z
x,y,-z
-x,y,z
x,-y,z
1/2+x,1/2+y,1/2+z
1/2-x,1/2-y,1/2+z
1/2+x,1/2-y,1/2-z
1/2-x,1/2+y,1/2-z
1/2-x,1/2-y,1/2-z
1/2+x,1/2+y,1/2-z
1/2-x,1/2+y,1/2+z
1/2+x,1/2-y,1/2+z
loop_
_atom_site_type_symbol
_atom_site_label
_atom_site_fract_x
_atom_site_fract_y
_atom_site_fract_z
Si Si1 0.777135 0.150465 0.740049
Si Si2 0.000000 0.898622 0.325434
Si Si3 0.633501 0.900894 0.637906
Si Si4 0.366110 0.598411 0.639658
Si Si5 0.252541 0.748359 0.433435
Si Si6 0.500000 0.699800 0.064203
O O1 0.750000 0.250000 0.750000
O O2 0.889613 0.147655 0.700750
O O3 0.672658 0.106223 0.704665
O O4 0.796814 0.102183 0.800353
O O5 0.000000 0.883536 0.393868
O O6 0.000000 0.000000 0.310263
O O7 0.500000 0.874313 0.634322
O O8 0.705499 0.836578 0.597342
O O9 0.654174 0.000000 0.616517
O O10 0.500000 0.624237 0.650552
O O11 0.356361 0.500000 0.615419
O O12 0.310971 0.663142 0.593491
O O13 0.289618 0.753225 0.500000
O O14 0.113722 0.740320 0.426146
O O15 0.500000 0.660094 0.000000
#
# Coordination Sequence:
#
# PCOD8292148 Si02
#       6
#    16   8  16  16  16   8
#     4  12  23  38  64  90 127 163 202 249 313 370
#     4  12  22  37  64  95 122 162 209 257 314 370
#     4  11  24  41  62  91 126 163 203 248 305 372
#     4  11  23  41  66  95 125 161 207 258 313 370
#     4  11  24  43  65  89 123 163 209 258 309 366
#     4  10  22  41  63  90 122 164 210 253 307 373
#
# _framework density 19.490179000000001
#
# number of rings (size 3 to 8) (size 9 to 14) (size 15 to 20)
#    0.000    0.800    5.000    2.400    1.400    2.600 
#    1.800    4.500    0.000    1.800    0.000    0.000 
#    0.000    0.000    0.000    0.000    0.000    0.000 
#
# Total GULP energy -496089.451785 kJ/mol
# GULP energy per Si atom -12402.236295 kJ/mol
# Density = 1.944582 g / cm^3
# Si number density = 19.490179 Si / 1000 Ang^3
#
#
#
# Elastic Constant Matrix: (Units=GPa)
#
#
# Indices 1 2 3 4 5 6 
#
# 1 119.2309 63.8760 53.9146 0.0000 0.0000 0.0000
# 2 63.8760 130.2837 55.2163 0.0000 0.0000 0.0000
# 3 53.9146 55.2163 127.7667 0.0000 0.0000 0.0000
# 4 0.0000 0.0000 0.0000 17.7580 0.0000 0.0000
# 5 0.0000 0.0000 0.0000 0.0000 36.8672 0.0000
# 6 0.0000 0.0000 0.0000 0.0000 0.0000 18.1228
#
#
#
# Elastic Compliance Matrix: (Units=1/GPa)
#
#
# Indices 1 2 3 4 5 6 
#
# 1 0.012344 -0.004707 -0.003175 0.000000 0.000000 0.000000
# 2 -0.004707 0.011191 -0.002850 0.000000 0.000000 0.000000
# 3 -0.003175 -0.002850 0.010398 0.000000 0.000000 0.000000
# 4 0.000000 0.000000 0.000000 0.056313 0.000000 0.000000
# 5 0.000000 0.000000 0.000000 0.000000 0.027124 0.000000
# 6 0.000000 0.000000 0.000000 0.000000 0.000000 0.055179
#
#
# Mechanical properties :
#
#
# Convention : Reuss Voigt Hill
#
# Bulk Modulus (GPa) = 80.19288 80.36613 80.27951
# Shear Modulus (GPa) = 25.23081 28.16788 26.69935
#
# Velocity S-wave (km/s) = 3.60187 3.80575 3.70521
# Velocity P-wave (km/s) = 7.65066 7.78687 7.71906
#
# Compressibility (1/GPa) = 0.01246993
#
# Stress axis : x y z
#
# Youngs Moduli (GPa) = 81.00943 89.35644 96.16908
#
# Poissons Ratio (x) = 0.42056 0.30533
# Poissons Ratio (y) = 0.38128 0.27412
# Poissons Ratio (z) = 0.25720 0.25470
#
# Static dielectric constant tensor:
#      x y z
#    x 3.858550 0.000000 0.000000 
#    y 0.000000 3.322090 0.000000 
#    z 0.000000 0.000000 3.711830 
# 
# 
# High freq. dielectric constant tensor:
#      x y z
#    x 1.773050 0.000000 0.000000 
#    y 0.000000 1.756150 0.000000 
#    z 0.000000 0.000000 1.763130 
# 
# From -- ./inp_files/58690.got.cif
#   From: 2010.06.25/outbox.cif.g09.slc.cpg/sg71_30_cif.got.tgz:58690.got - 2010.06.28 04:59:45.
