data_PCOD8292554
_publ_section_title
;
Structure prediction by ZEFSAII (Michael W. Deem and Ramdas Pophale) SiO2 
 PCOD8292554
Probable space group: I M M M
;
_chemical_formula_sum "Si O2"
_cell_formula_units_Z 88
_cell_length_a 22.083700
_cell_length_b 9.345081
_cell_length_c 21.227289
_cell_angle_alpha 90.000000
_cell_angle_beta 90.000000
_cell_angle_gamma 90.000000
_cell_volume 4380.759803
_symmetry_space_group_name_H-M "I M M M"
_symmetry_group_IT_number 71
_symmetry_cell_setting 'orthorhombic'
loop_
_space_group_symop_operation_xyz
x,y,z
-x,-y,z
x,-y,-z
-x,y,-z
-x,-y,-z
x,y,-z
-x,y,z
x,-y,z
1/2+x,1/2+y,1/2+z
1/2-x,1/2-y,1/2+z
1/2+x,1/2-y,1/2-z
1/2-x,1/2+y,1/2-z
1/2-x,1/2-y,1/2-z
1/2+x,1/2+y,1/2-z
1/2-x,1/2+y,1/2+z
1/2+x,1/2-y,1/2+z
loop_
_atom_site_type_symbol
_atom_site_label
_atom_site_fract_x
_atom_site_fract_y
_atom_site_fract_z
Si Si1 0.431339 0.500000 0.926778
Si Si2 0.870282 0.329350 0.129363
Si Si3 0.569730 0.000000 0.069897
Si Si4 0.744460 0.329167 0.683217
Si Si5 0.932107 0.331844 0.000000
Si Si6 0.872470 0.250339 0.640775
Si Si7 0.568291 0.337199 0.267323
O O1 0.500000 0.500000 0.895617
O O2 0.387632 0.372906 0.907713
O O3 0.442019 0.500000 0.000000
O O4 0.859453 0.500000 0.136574
O O5 0.810203 0.239743 0.144192
O O6 0.922149 0.276314 0.176982
O O7 0.893433 0.284869 0.060467
O O8 0.584738 0.871443 0.115210
O O9 0.500000 0.000000 0.054970
O O10 0.602142 0.000000 0.000000
O O11 0.735438 0.500000 0.693391
O O12 0.750000 0.250000 0.750000
O O13 0.802959 0.300010 0.639939
O O14 0.940734 0.500000 0.000000
O O15 0.000000 0.262532 0.000000
O O16 0.886859 0.203593 0.711557
O O17 0.500000 0.323750 0.242887
O O18 0.582354 0.500000 0.289492
#
# Coordination Sequence:
#
# PCOD8292554 Si02
#       7
#     8  16   8  16   8  16  16
#     4  11  24  44  69  98 132 175 222 269 327 393
#     4  11  24  42  69 101 130 177 222 272 341 397
#     4  11  24  44  67  94 132 171 214 269 331 395
#     4  12  26  45  66  94 135 176 222 277 332 398
#     4   9  20  44  71 101 139 175 220 275 332 401
#     4  12  24  42  64  96 130 172 221 270 330 393
#     4  11  23  39  63  97 134 168 216 278 337 396
#
# _framework density 20.087838000000001
#
# number of rings (size 3 to 8) (size 9 to 14) (size 15 to 20)
#    0.000    0.818    3.636    3.818    3.818    2.545 
#    3.273    1.818    0.000    3.273    0.000    0.000 
#    0.000    0.000    0.000    0.000    0.000    0.000 
#
# Total GULP energy -545377.599404 kJ/mol
# GULP energy per Si atom -12394.945441 kJ/mol
# Density = 2.004212 g / cm^3
# Si number density = 20.087838 Si / 1000 Ang^3
#
#
#
# Elastic Constant Matrix: (Units=GPa)
#
#
# Indices 1 2 3 4 5 6 
#
# 1 126.9405 51.4500 50.3788 0.0000 0.0000 0.0000
# 2 51.4500 149.9671 44.3647 0.0000 0.0000 0.0000
# 3 50.3788 44.3647 114.0658 0.0000 0.0000 0.0000
# 4 0.0000 0.0000 0.0000 77.3062 0.0000 0.0000
# 5 0.0000 0.0000 0.0000 0.0000 14.8326 0.0000
# 6 0.0000 0.0000 0.0000 0.0000 0.0000 -78.5234
#
#
#
# Elastic Compliance Matrix: (Units=1/GPa)
#
#
# Indices 1 2 3 4 5 6 
#
# 1 0.010305 -0.002473 -0.003589 0.000000 0.000000 0.000000
# 2 -0.002473 0.008129 -0.002069 0.000000 0.000000 0.000000
# 3 -0.003589 -0.002069 0.011157 0.000000 0.000000 0.000000
# 4 0.000000 0.000000 0.000000 0.012936 0.000000 0.000000
# 5 0.000000 0.000000 0.000000 0.000000 0.067419 0.000000
# 6 0.000000 0.000000 0.000000 0.000000 0.000000 -0.012735
#
#
# Mechanical properties :
#
#
# Convention : Reuss Voigt Hill
#
# Bulk Modulus (GPa) = 75.03730 75.92892 75.48311
# Shear Modulus (GPa) = 42.40314 19.04173 30.72243
#
# Velocity S-wave (km/s) = 4.59942 3.08218 3.91500
# Velocity P-wave (km/s) = 8.10197 7.10964 7.62197
#
# Compressibility (1/GPa) = 0.01332671
#
# Stress axis : x y z
#
# Youngs Moduli (GPa) = 97.04350 123.01862 89.63096
#
# Poissons Ratio (x) = 0.30429 0.32170
# Poissons Ratio (y) = 0.24004 0.18546
# Poissons Ratio (z) = 0.34830 0.25455
#
# Static dielectric constant tensor:
#      x y z
#    x 3.886140 0.000000 0.000000 
#    y 0.000000 3.684760 0.000000 
#    z 0.000000 0.000000 3.745300 
# 
# 
# High freq. dielectric constant tensor:
#      x y z
#    x 1.794540 0.000000 0.000000 
#    y 0.000000 1.793630 0.000000 
#    z 0.000000 0.000000 1.784500 
# 
# From -- ./inp_files/55618.got.cif
#   From: 2010.06.25/outbox.cif.g09.slc.cpg/sg71_28_cif.got.tgz:55618.got - 2010.06.28 04:59:45.
