data_PCOD8292361
_publ_section_title
;
Structure prediction by ZEFSAII (Michael W. Deem and Ramdas Pophale) SiO2 
 PCOD8292361
Probable space group: I M M M
;
_chemical_formula_sum "Si O2"
_cell_formula_units_Z 104
_cell_length_a 22.340833
_cell_length_b 9.342321
_cell_length_c 29.479249
_cell_angle_alpha 90.000000
_cell_angle_beta 90.000000
_cell_angle_gamma 90.000000
_cell_volume 6152.768332
_symmetry_space_group_name_H-M "I M M M"
_symmetry_group_IT_number 71
_symmetry_cell_setting 'orthorhombic'
loop_
_space_group_symop_operation_xyz
x,y,z
-x,-y,z
x,-y,-z
-x,y,-z
-x,-y,-z
x,y,-z
-x,y,z
x,-y,z
1/2+x,1/2+y,1/2+z
1/2-x,1/2-y,1/2+z
1/2+x,1/2-y,1/2-z
1/2-x,1/2+y,1/2-z
1/2-x,1/2-y,1/2-z
1/2+x,1/2+y,1/2-z
1/2-x,1/2+y,1/2+z
1/2+x,1/2-y,1/2+z
loop_
_atom_site_type_symbol
_atom_site_label
_atom_site_fract_x
_atom_site_fract_y
_atom_site_fract_z
Si Si1 0.651014 0.664234 0.552097
Si Si2 0.432257 0.829962 0.380182
Si Si3 0.428758 0.841241 0.280240
Si Si4 0.710862 0.836852 0.052729
Si Si5 0.568260 0.664844 0.196344
Si Si6 0.609065 0.331475 0.902192
Si Si7 0.000000 0.665104 0.553765
O O1 0.638268 0.703506 0.500000
O O2 0.634339 0.500000 0.561539
O O3 0.610723 0.764345 0.582672
O O4 0.720074 0.692376 0.563848
O O5 0.500000 0.777006 0.389287
O O6 0.410426 0.780913 0.329859
O O7 0.429357 0.000000 0.383286
O O8 0.500000 0.844040 0.278133
O O9 0.402782 0.745892 0.239337
O O10 0.402608 0.000000 0.273489
O O11 0.673356 0.723902 0.081793
O O12 0.693531 0.000000 0.065571
O O13 0.697446 0.810833 0.000000
O O14 0.500000 0.713552 0.187083
O O15 0.570794 0.500000 0.209174
O O16 0.605763 0.699392 0.151407
O O17 0.601396 0.500000 0.912481
O O18 0.558430 0.244676 0.928372
O O19 0.000000 0.500000 0.570257
O O20 0.000000 0.673056 0.500000
#
# Coordination Sequence:
#
# PCOD8292361 Si02
#       7
#    16  16  16  16  16  16   8
#     4   9  19  35  53  73  99 131 167 205 240 284
#     4   9  18  32  50  76 108 133 157 196 244 291
#     4   8  15  28  46  69  96 127 161 195 234 287
#     4   9  19  36  53  69  93 127 168 209 246 290
#     4   9  17  30  45  66  98 128 156 197 247 293
#     4  11  21  33  49  72 100 127 161 209 256 298
#     4  11  23  35  47  67  97 133 169 205 250 301
#
# _framework density 16.90296
#
# number of rings (size 3 to 8) (size 9 to 14) (size 15 to 20)
#    0.000    2.692    0.769    3.000    0.000    6.154 
#    0.000    4.615    0.000    0.923    0.000    0.000 
#    0.000    0.000    0.000    0.000    0.000    0.000 
#
# Total GULP energy -644683.126163 kJ/mol
# GULP energy per Si atom -12397.752426 kJ/mol
# Density = 1.686449 g / cm^3
# Si number density = 16.902960 Si / 1000 Ang^3
#
#
#
# Elastic Constant Matrix: (Units=GPa)
#
#
# Indices 1 2 3 4 5 6 
#
# 1 67.8324 43.8007 56.4573 0.0000 0.0000 0.0000
# 2 43.8007 79.6201 63.3321 0.0000 0.0000 0.0000
# 3 56.4573 63.3321 117.5373 0.0000 0.0000 0.0000
# 4 0.0000 0.0000 0.0000 36.0311 0.0000 0.0000
# 5 0.0000 0.0000 0.0000 0.0000 5.1262 0.0000
# 6 0.0000 0.0000 0.0000 0.0000 0.0000 29.3509
#
#
#
# Elastic Compliance Matrix: (Units=1/GPa)
#
#
# Indices 1 2 3 4 5 6 
#
# 1 0.027190 -0.007996 -0.008751 0.000000 0.000000 0.000000
# 2 -0.007996 0.024332 -0.009270 0.000000 0.000000 0.000000
# 3 -0.008751 -0.009270 0.017706 0.000000 0.000000 0.000000
# 4 0.000000 0.000000 0.000000 0.027754 0.000000 0.000000
# 5 0.000000 0.000000 0.000000 0.000000 0.195077 0.000000
# 6 0.000000 0.000000 0.000000 0.000000 0.000000 0.034071
#
#
# Mechanical properties :
#
#
# Convention : Reuss Voigt Hill
#
# Bulk Modulus (GPa) = 58.16414 65.79666 61.98040
# Shear Modulus (GPa) = 13.02437 20.86160 16.94299
#
# Velocity S-wave (km/s) = 2.77887 3.51693 3.16945
# Velocity P-wave (km/s) = 6.69190 7.44999 7.08109
#
# Compressibility (1/GPa) = 0.01719273
#
# Stress axis : x y z
#
# Youngs Moduli (GPa) = 36.77887 41.09788 56.47689
#
# Poissons Ratio (x) = 0.32864 0.49425
# Poissons Ratio (y) = 0.29410 0.52353
# Poissons Ratio (z) = 0.32187 0.38097
#
# Static dielectric constant tensor:
#      x y z
#    x 2.839160 0.000000 0.000000 
#    y 0.000000 3.213420 0.000000 
#    z 0.000000 0.000000 3.314480 
# 
# 
# High freq. dielectric constant tensor:
#      x y z
#    x 1.622000 0.000000 0.000000 
#    y 0.000000 1.653890 0.000000 
#    z 0.000000 0.000000 1.658650 
# 
# From -- ./inp_files/58207.got.cif
#   From: 2010.06.25/outbox.cif.g09.slc.cpg/sg71_30_cif.got.tgz:58207.got - 2010.06.28 04:59:45.
