data_PCOD8292035
_publ_section_title
;
Structure prediction by ZEFSAII (Michael W. Deem and Ramdas Pophale) SiO2 
 PCOD8292035
Probable space group: I M M M
;
_chemical_formula_sum "Si O2"
_cell_formula_units_Z 96
_cell_length_a 14.347064
_cell_length_b 33.567366
_cell_length_c 10.753360
_cell_angle_alpha 90.000000
_cell_angle_beta 90.000000
_cell_angle_gamma 90.000000
_cell_volume 5178.744497
_symmetry_space_group_name_H-M "I M M M"
_symmetry_group_IT_number 71
_symmetry_cell_setting 'orthorhombic'
loop_
_space_group_symop_operation_xyz
x,y,z
-x,-y,z
x,-y,-z
-x,y,-z
-x,-y,-z
x,y,-z
-x,y,z
x,-y,z
1/2+x,1/2+y,1/2+z
1/2-x,1/2-y,1/2+z
1/2+x,1/2-y,1/2-z
1/2-x,1/2+y,1/2-z
1/2-x,1/2-y,1/2-z
1/2+x,1/2+y,1/2-z
1/2-x,1/2+y,1/2+z
1/2+x,1/2-y,1/2+z
loop_
_atom_site_type_symbol
_atom_site_label
_atom_site_fract_x
_atom_site_fract_y
_atom_site_fract_z
Si Si1 0.891468 0.266915 0.857445
Si Si2 0.890876 0.453674 0.500000
Si Si3 0.396915 0.000000 0.358092
Si Si4 0.603825 0.452972 0.641303
Si Si5 0.393424 0.704597 0.857949
Si Si6 0.792517 0.427963 0.741366
Si Si7 0.779010 0.345030 0.140723
O O1 0.863745 0.235344 0.750559
O O2 0.838946 0.306960 0.819043
O O3 0.000000 0.276084 0.851292
O O4 0.864297 0.253223 0.000000
O O5 0.862239 0.500000 0.500000
O O6 0.845543 0.431720 0.613815
O O7 0.000000 0.447349 0.500000
O O8 0.336711 0.039225 0.331598
O O9 0.500000 0.000000 0.288092
O O10 0.421147 0.000000 0.500000
O O11 0.618647 0.438049 0.500000
O O12 0.500000 0.440780 0.687521
O O13 0.616037 0.500000 0.645817
O O14 0.681089 0.433726 0.730354
O O15 0.500000 0.691372 0.839728
O O16 0.330096 0.665477 0.839805
O O17 0.377873 0.721798 0.000000
O O18 0.810963 0.383110 0.782664
O O19 0.800194 0.356443 0.000000
#
# Coordination Sequence:
#
# PCOD8292035 Si02
#       7
#    16   8   8  16  16  16  16
#     4   9  18  35  58  83 111 146 188 233 280 335
#     4  11  22  38  59  81 109 149 188 234 292 344
#     4  11  24  39  58  81 106 147 199 242 280 334
#     4   9  17  32  55  80 105 138 180 226 281 341
#     4   9  18  36  60  84 113 149 187 228 278 336
#     4  12  21  37  58  82 114 147 188 235 285 343
#     4  10  22  37  55  81 113 152 187 225 277 333
#
# _framework density 18.537312
#
# number of rings (size 3 to 8) (size 9 to 14) (size 15 to 20)
#    0.000    2.000    2.500    2.000    0.000    2.000 
#    3.000    1.667    0.000    2.000    0.000    0.000 
#    0.000    0.000    0.000    0.000    0.000    0.000 
#
# Total GULP energy -594914.174674 kJ/mol
# GULP energy per Si atom -12394.045306 kJ/mol
# Density = 1.849512 g / cm^3
# Si number density = 18.537312 Si / 1000 Ang^3
#
#
#
# Elastic Constant Matrix: (Units=GPa)
#
#
# Indices 1 2 3 4 5 6 
#
# 1 92.6351 40.0502 34.6423 -0.0002 -0.0007 -0.0001
# 2 40.0502 105.1533 56.0159 -0.0012 0.0005 0.0001
# 3 34.6423 56.0159 93.2045 -0.0001 0.0086 0.0003
# 4 -0.0002 -0.0012 -0.0001 33.2273 0.0006 -0.0001
# 5 -0.0007 0.0005 0.0086 0.0006 22.1360 -0.0001
# 6 -0.0001 0.0001 0.0003 -0.0001 -0.0001 16.3048
#
#
#
# Elastic Compliance Matrix: (Units=1/GPa)
#
#
# Indices 1 2 3 4 5 6 
#
# 1 0.013407 -0.003607 -0.002816 0.000000 0.000002 0.000000
# 2 -0.003607 0.014959 -0.007650 0.000000 0.000003 0.000000
# 3 -0.002816 -0.007650 0.016373 0.000000 -0.000006 0.000000
# 4 0.000000 0.000000 0.000000 0.030096 -0.000001 0.000000
# 5 0.000002 0.000003 -0.000006 -0.000001 0.045175 0.000000
# 6 0.000000 0.000000 0.000000 0.000000 0.000000 0.061332
#
#
# Mechanical properties :
#
#
# Convention : Reuss Voigt Hill
#
# Bulk Modulus (GPa) = 60.25842 61.37886 60.81864
# Shear Modulus (GPa) = 23.25397 25.01925 24.13661
#
# Velocity S-wave (km/s) = 3.54565 3.67777 3.61232
# Velocity P-wave (km/s) = 7.02420 7.15664 7.09073
#
# Compressibility (1/GPa) = 0.01659519
#
# Stress axis : x y z
#
# Youngs Moduli (GPa) = 74.58633 66.85129 61.07600
#
# Poissons Ratio (x) = 0.24110 0.17197
# Poissons Ratio (y) = 0.26900 0.46721
# Poissons Ratio (z) = 0.21001 0.51139
#
# Static dielectric constant tensor:
#      x y z
#    x 3.730360 0.000000 0.000000 
#    y 0.000000 3.162000 0.000000 
#    z 0.000000 0.000000 3.492120 
# 
# 
# High freq. dielectric constant tensor:
#      x y z
#    x 1.741900 0.000000 0.000000 
#    y 0.000000 1.691980 0.000000 
#    z 0.000000 0.000000 1.717830 
# 
# From -- ./inp_files/22616.got.cif
#   From: 2010.06.25/outbox.cif.g09.slc.cpg/sg71_12_cif.got.tgz:22616.got - 2010.06.28 04:59:45.
