data_PCOD8292393
_publ_section_title
;
Structure prediction by ZEFSAII (Michael W. Deem and Ramdas Pophale) SiO2 
 PCOD8292393
Probable space group: I M M M
;
_chemical_formula_sum "Si O2"
_cell_formula_units_Z 64
_cell_length_a 8.799322
_cell_length_b 35.578969
_cell_length_c 11.162779
_cell_angle_alpha 90.000000
_cell_angle_beta 90.000000
_cell_angle_gamma 90.000000
_cell_volume 3494.740204
_symmetry_space_group_name_H-M "I M M M"
_symmetry_group_IT_number 71
_symmetry_cell_setting 'orthorhombic'
loop_
_space_group_symop_operation_xyz
x,y,z
-x,-y,z
x,-y,-z
-x,y,-z
-x,-y,-z
x,y,-z
-x,y,z
x,-y,z
1/2+x,1/2+y,1/2+z
1/2-x,1/2-y,1/2+z
1/2+x,1/2-y,1/2-z
1/2-x,1/2+y,1/2-z
1/2-x,1/2-y,1/2-z
1/2+x,1/2+y,1/2-z
1/2-x,1/2+y,1/2+z
1/2+x,1/2-y,1/2+z
loop_
_atom_site_type_symbol
_atom_site_label
_atom_site_fract_x
_atom_site_fract_y
_atom_site_fract_z
Si Si1 0.680180 0.357378 0.631323
Si Si2 0.180501 0.930667 0.739204
Si Si3 0.321132 0.043345 0.500000
Si Si4 0.180121 0.226921 0.139028
Si Si5 0.668423 0.000000 0.139526
O O1 0.744142 0.367106 0.500000
O O2 0.500000 0.357916 0.628710
O O3 0.740375 0.389749 0.719349
O O4 0.734076 0.315662 0.667691
O O5 0.249785 0.935513 0.610283
O O6 0.239947 0.963010 0.826022
O O7 0.000000 0.933001 0.735675
O O8 0.500000 0.047731 0.500000
O O9 0.270715 0.000000 0.500000
O O10 0.250000 0.250000 0.250000
O O11 0.000000 0.231131 0.145875
O O12 0.230706 0.237858 0.000000
O O13 0.500000 0.000000 0.201640
O O14 0.646631 0.000000 0.000000
#
# Coordination Sequence:
#
# PCOD8292393 Si02
#       5
#    16  16   8  16   8
#     4   8  16  33  56  81 108 137 171 220 274 314
#     4  11  21  35  58  81 101 132 184 231 264 310
#     4  11  23  39  55  71 106 150 178 212 274 332
#     4   9  18  35  58  83 114 148 182 223 273 330
#     4  11  23  36  51  76 111 143 169 209 272 329
#
# _framework density 18.313234999999999
#
# number of rings (size 3 to 8) (size 9 to 14) (size 15 to 20)
#    0.000    2.250    1.250    3.750    0.000    3.000 
#    2.250    2.500    0.000    3.000    0.000    0.000 
#    0.000    0.000    0.000    0.000    0.000    0.000 
#
# Total GULP energy -396507.558846 kJ/mol
# GULP energy per Si atom -12390.861214 kJ/mol
# Density = 1.827155 g / cm^3
# Si number density = 18.313235 Si / 1000 Ang^3
#
#
#
# Elastic Constant Matrix: (Units=GPa)
#
#
# Indices 1 2 3 4 5 6 
#
# 1 45.6626 40.5608 45.7180 -0.0008 -0.0001 0.0000
# 2 40.5608 158.2420 99.5840 -0.0006 -0.0002 -0.0001
# 3 45.7180 99.5840 153.8605 -0.0001 -0.0004 -0.0003
# 4 -0.0008 -0.0006 -0.0001 40.0266 -0.0002 -0.0001
# 5 -0.0001 -0.0002 -0.0004 -0.0002 28.2194 0.0001
# 6 0.0000 -0.0001 -0.0003 -0.0001 0.0001 21.2734
#
#
#
# Elastic Compliance Matrix: (Units=1/GPa)
#
#
# Indices 1 2 3 4 5 6 
#
# 1 0.032473 -0.003798 -0.007191 0.000001 0.000000 0.000000
# 2 -0.003798 0.011107 -0.006060 0.000000 0.000000 0.000000
# 3 -0.007191 -0.006060 0.012558 0.000000 0.000000 0.000000
# 4 0.000001 0.000000 0.000000 0.024983 0.000000 0.000000
# 5 0.000000 0.000000 0.000000 0.000000 0.035437 0.000000
# 6 0.000000 0.000000 0.000000 0.000000 0.000000 0.047007
#
#
# Mechanical properties :
#
#
# Convention : Reuss Voigt Hill
#
# Bulk Modulus (GPa) = 45.37190 81.05451 63.21320
# Shear Modulus (GPa) = 24.38911 29.36405 26.87658
#
# Velocity S-wave (km/s) = 3.65331 4.00863 3.83509
# Velocity P-wave (km/s) = 6.52877 8.11059 7.36229
#
# Compressibility (1/GPa) = 0.02204007
#
# Stress axis : x y z
#
# Youngs Moduli (GPa) = 30.79477 90.03588 79.62913
#
# Poissons Ratio (x) = 0.34199 0.57258
# Poissons Ratio (y) = 0.11697 0.48255
# Poissons Ratio (z) = 0.22143 0.54562
#
# Static dielectric constant tensor:
#      x y z
#    x 3.243500 0.000000 0.000000 
#    y 0.000000 3.707030 0.000000 
#    z 0.000000 0.000000 3.574350 
# 
# 
# High freq. dielectric constant tensor:
#      x y z
#    x 1.693860 0.000000 0.000000 
#    y 0.000000 1.713970 0.000000 
#    z 0.000000 0.000000 1.719770 
# 
# From -- ./inp_files/3746.got.cif
#   From: 2010.06.25/outbox.cif.g09.slc.cpg/sg71_2_cif.got.tgz:3746.got - 2010.06.28 04:59:45.
