data_PCOD8292733
_publ_section_title
;
Structure prediction by ZEFSAII (Michael W. Deem and Ramdas Pophale) SiO2 
 PCOD8292733
Probable space group: I M M M
;
_chemical_formula_sum "Si O2"
_cell_formula_units_Z 88
_cell_length_a 27.682203
_cell_length_b 9.730944
_cell_length_c 19.770506
_cell_angle_alpha 90.000000
_cell_angle_beta 90.000000
_cell_angle_gamma 90.000000
_cell_volume 5325.659635
_symmetry_space_group_name_H-M "I M M M"
_symmetry_group_IT_number 71
_symmetry_cell_setting 'orthorhombic'
loop_
_space_group_symop_operation_xyz
x,y,z
-x,-y,z
x,-y,-z
-x,y,-z
-x,-y,-z
x,y,-z
-x,y,z
x,-y,z
1/2+x,1/2+y,1/2+z
1/2-x,1/2-y,1/2+z
1/2+x,1/2-y,1/2-z
1/2-x,1/2+y,1/2-z
1/2-x,1/2-y,1/2-z
1/2+x,1/2+y,1/2-z
1/2-x,1/2+y,1/2+z
1/2+x,1/2-y,1/2+z
loop_
_atom_site_type_symbol
_atom_site_label
_atom_site_fract_x
_atom_site_fract_y
_atom_site_fract_z
Si Si1 0.945985 0.836773 0.320135
Si Si2 0.221206 0.157858 0.339498
Si Si3 0.131219 0.163178 0.575166
Si Si4 0.583475 0.337019 0.674302
Si Si5 0.500000 0.663888 0.423595
Si Si6 0.191729 0.158385 0.187428
O O1 0.910278 0.773981 0.376615
O O2 0.933457 0.775563 0.246327
O O3 0.000000 0.793387 0.340407
O O4 0.940096 0.000000 0.317514
O O5 0.183711 0.204269 0.396844
O O6 0.194933 0.181773 0.267837
O O7 0.268564 0.249777 0.349959
O O8 0.236965 0.000000 0.347471
O O9 0.125202 0.224818 0.500000
O O10 0.126298 0.000000 0.573871
O O11 0.579554 0.500000 0.677871
O O12 0.548098 0.281778 0.615127
O O13 0.639019 0.293875 0.661050
O O14 0.500000 0.500000 0.424998
O O15 0.500000 0.722881 0.500000
O O16 0.201444 0.000000 0.169048
#
# Coordination Sequence:
#
# PCOD8292733 Si02
#       6
#    16  16  16  16   8  16
#     4   9  14  21  35  55  79 107 137 168 207 252
#     4   9  16  27  42  61  85 112 143 176 211 250
#     4   9  16  25  37  55  82 113 141 171 209 253
#     4   9  14  23  38  56  80 107 135 171 211 250
#     4   9  16  24  36  56  82 112 140 166 208 263
#     4   9  16  26  43  64  84 109 142 179 213 247
#
# _framework density 16.523775000000001
#
# number of rings (size 3 to 8) (size 9 to 14) (size 15 to 20)
#    0.000    3.000    2.727    0.000    0.000    0.364 
#    0.000    2.727    0.000    1.636    0.000    0.636 
#    0.000    2.909    0.000    1.636    0.000    1.818 
#
# Total GULP energy -545386.879608 kJ/mol
# GULP energy per Si atom -12395.156355 kJ/mol
# Density = 1.648617 g / cm^3
# Si number density = 16.523775 Si / 1000 Ang^3
#
#
#
# Elastic Constant Matrix: (Units=GPa)
#
#
# Indices 1 2 3 4 5 6 
#
# 1 163.4233 33.2793 83.9465 0.0000 0.0000 0.0000
# 2 33.2793 20.6571 16.7637 0.0000 0.0000 0.0000
# 3 83.9465 16.7637 128.7275 0.0000 0.0000 0.0000
# 4 0.0000 0.0000 0.0000 6.7555 0.0000 0.0000
# 5 0.0000 0.0000 0.0000 0.0000 27.8154 0.0000
# 6 0.0000 0.0000 0.0000 0.0000 0.0000 18.2308
#
#
#
# Elastic Compliance Matrix: (Units=1/GPa)
#
#
# Indices 1 2 3 4 5 6 
#
# 1 0.012248 -0.014816 -0.006058 0.000000 0.000000 0.000000
# 2 -0.014816 0.072052 0.000279 0.000000 0.000000 0.000000
# 3 -0.006058 0.000279 0.011682 0.000000 0.000000 0.000000
# 4 0.000000 0.000000 0.000000 0.148027 0.000000 0.000000
# 5 0.000000 0.000000 0.000000 0.000000 0.035951 0.000000
# 6 0.000000 0.000000 0.000000 0.000000 0.000000 0.054852
#
#
# Mechanical properties :
#
#
# Convention : Reuss Voigt Hill
#
# Bulk Modulus (GPa) = 18.25057 64.53187 41.39122
# Shear Modulus (GPa) = 12.68176 22.48157 17.58167
#
# Velocity S-wave (km/s) = 2.77336 3.69258 3.26547
# Velocity P-wave (km/s) = 4.61783 7.57092 6.27070
#
# Compressibility (1/GPa) = 0.05479280
#
# Stress axis : x y z
#
# Youngs Moduli (GPa) = 81.64705 13.87885 85.59832
#
# Poissons Ratio (x) = 0.20563 0.51853
# Poissons Ratio (y) = 1.20966 -0.02385
# Poissons Ratio (z) = 0.49460 -0.00387
#
# Static dielectric constant tensor:
#      x y z
#    x 3.307470 0.000000 0.000000 
#    y 0.000000 2.475110 0.000000 
#    z 0.000000 0.000000 3.219070 
# 
# 
# High freq. dielectric constant tensor:
#      x y z
#    x 1.652570 0.000000 0.000000 
#    y 0.000000 1.557010 0.000000 
#    z 0.000000 0.000000 1.625770 
# 
# From -- ./inp_files/16875.got.cif
#   From: 2010.06.25/outbox.cif.g09.slc.cpg/sg71_9_cif.got.tgz:16875.got - 2010.06.28 04:59:45.
