data_PCOD8292609
_publ_section_title
;
Structure prediction by ZEFSAII (Michael W. Deem and Ramdas Pophale) SiO2 
 PCOD8292609
Probable space group: I M M M
;
_chemical_formula_sum "Si O2"
_cell_formula_units_Z 80
_cell_length_a 20.062963
_cell_length_b 25.472574
_cell_length_c 9.257317
_cell_angle_alpha 90.000000
_cell_angle_beta 90.000000
_cell_angle_gamma 90.000000
_cell_volume 4731.001006
_symmetry_space_group_name_H-M "I M M M"
_symmetry_group_IT_number 71
_symmetry_cell_setting 'orthorhombic'
loop_
_space_group_symop_operation_xyz
x,y,z
-x,-y,z
x,-y,-z
-x,y,-z
-x,-y,-z
x,y,-z
-x,y,z
x,-y,z
1/2+x,1/2+y,1/2+z
1/2-x,1/2-y,1/2+z
1/2+x,1/2-y,1/2-z
1/2-x,1/2+y,1/2-z
1/2-x,1/2-y,1/2-z
1/2+x,1/2+y,1/2-z
1/2-x,1/2+y,1/2+z
1/2+x,1/2-y,1/2+z
loop_
_atom_site_type_symbol
_atom_site_label
_atom_site_fract_x
_atom_site_fract_y
_atom_site_fract_z
Si Si1 0.079132 0.500000 0.836604
Si Si2 0.423332 0.897530 0.168679
Si Si3 0.078870 0.000000 0.657289
Si Si4 0.316975 0.811172 0.168274
Si Si5 0.925700 0.112246 0.673079
Si Si6 0.315220 0.691331 0.169557
O O1 0.104567 0.552144 0.755209
O O2 0.000000 0.500000 0.833875
O O3 0.106855 0.500000 0.000000
O O4 0.500000 0.884861 0.209161
O O5 0.379579 0.847094 0.213372
O O6 0.416560 0.910490 0.000000
O O7 0.098049 0.054972 0.736271
O O8 0.113635 0.000000 0.500000
O O9 0.000000 0.000000 0.636556
O O10 0.333685 0.751133 0.209217
O O11 0.251729 0.828962 0.254621
O O12 0.301036 0.816927 0.000000
O O13 0.925777 0.109374 0.500000
O O14 0.875769 0.156484 0.730326
O O15 0.000000 0.126318 0.728479
O O16 0.305074 0.683896 0.000000
#
# Coordination Sequence:
#
# PCOD8292609 Si02
#       6
#     8  16   8  16  16  16
#     4   9  17  29  46  69  94 116 140 177 226 273
#     4   9  17  30  48  67  87 115 151 187 223 267
#     4   7  10  18  33  56  86 112 130 159 210 256
#     4   9  18  31  45  62  87 118 148 181 223 266
#     4   8  13  22  39  63  88 112 140 176 214 251
#     4   9  17  29  45  64  87 117 150 183 221 263
#
# _framework density 16.909741
#
# number of rings (size 3 to 8) (size 9 to 14) (size 15 to 20)
#    0.000    3.400    0.000    1.500    0.000    2.800 
#    0.000    5.000    0.000    1.800    0.000    5.600 
#    0.000    2.400    0.000    0.000    0.000    0.000 
#
# Total GULP energy -495690.554619 kJ/mol
# GULP energy per Si atom -12392.263865 kJ/mol
# Density = 1.687125 g / cm^3
# Si number density = 16.909741 Si / 1000 Ang^3
#
#
#
# Elastic Constant Matrix: (Units=GPa)
#
#
# Indices 1 2 3 4 5 6 
#
# 1 106.6096 85.6361 30.7643 0.0000 0.0000 0.0000
# 2 85.6361 135.0176 36.7930 0.0000 0.0000 0.0000
# 3 30.7643 36.7930 33.6592 0.0000 0.0000 0.0000
# 4 0.0000 0.0000 0.0000 16.6330 0.0000 0.0000
# 5 0.0000 0.0000 0.0000 0.0000 21.0452 0.0000
# 6 0.0000 0.0000 0.0000 0.0000 0.0000 15.5696
#
#
#
# Elastic Compliance Matrix: (Units=1/GPa)
#
#
# Indices 1 2 3 4 5 6 
#
# 1 0.020016 -0.010981 -0.006291 0.000000 0.000000 0.000000
# 2 -0.010981 0.016573 -0.008079 0.000000 0.000000 0.000000
# 3 -0.006291 -0.008079 0.044291 0.000000 0.000000 0.000000
# 4 0.000000 0.000000 0.000000 0.060122 0.000000 0.000000
# 5 0.000000 0.000000 0.000000 0.000000 0.047517 0.000000
# 6 0.000000 0.000000 0.000000 0.000000 0.000000 0.064228
#
#
# Mechanical properties :
#
#
# Convention : Reuss Voigt Hill
#
# Bulk Modulus (GPa) = 33.13768 64.63036 48.88402
# Shear Modulus (GPa) = 15.94852 18.78909 17.36881
#
# Velocity S-wave (km/s) = 3.07442 3.33699 3.20839
# Velocity P-wave (km/s) = 5.67821 7.29048 6.53426
#
# Compressibility (1/GPa) = 0.03017712
#
# Stress axis : x y z
#
# Youngs Moduli (GPa) = 49.95952 60.33940 22.57783
#
# Poissons Ratio (x) = 0.66259 0.14204
# Poissons Ratio (y) = 0.54861 0.18241
# Poissons Ratio (z) = 0.31431 0.48750
#
# Static dielectric constant tensor:
#      x y z
#    x 3.081300 0.000000 0.000000 
#    y 0.000000 3.517480 0.000000 
#    z 0.000000 0.000000 2.863770 
# 
# 
# High freq. dielectric constant tensor:
#      x y z
#    x 1.630660 0.000000 0.000000 
#    y 0.000000 1.665090 0.000000 
#    z 0.000000 0.000000 1.614230 
# 
# From -- ./inp_files/10725.got.cif
#   From: 2010.06.25/outbox.cif.g09.slc.cpg/sg71_6_cif.got.tgz:10725.got - 2010.06.28 04:59:45.
