data_PCOD8292050
_publ_section_title
;
Structure prediction by ZEFSAII (Michael W. Deem and Ramdas Pophale) SiO2 
 PCOD8292050
Probable space group: I M M M
;
_chemical_formula_sum "Si O2"
_cell_formula_units_Z 48
_cell_length_a 18.590186
_cell_length_b 8.924575
_cell_length_c 16.647546
_cell_angle_alpha 90.000000
_cell_angle_beta 90.000000
_cell_angle_gamma 90.000000
_cell_volume 2761.986187
_symmetry_space_group_name_H-M "I M M M"
_symmetry_group_IT_number 71
_symmetry_cell_setting 'orthorhombic'
loop_
_space_group_symop_operation_xyz
x,y,z
-x,-y,z
x,-y,-z
-x,y,-z
-x,-y,-z
x,y,-z
-x,y,z
x,-y,z
1/2+x,1/2+y,1/2+z
1/2-x,1/2-y,1/2+z
1/2+x,1/2-y,1/2-z
1/2-x,1/2+y,1/2-z
1/2-x,1/2-y,1/2-z
1/2+x,1/2+y,1/2-z
1/2-x,1/2+y,1/2+z
1/2+x,1/2-y,1/2+z
loop_
_atom_site_type_symbol
_atom_site_label
_atom_site_fract_x
_atom_site_fract_y
_atom_site_fract_z
Si Si1 0.105626 0.822631 0.500000
Si Si2 0.000000 0.675061 0.802125
Si Si3 0.609173 0.331326 0.588578
Si Si4 0.753891 0.829106 0.000000
Si Si5 0.000000 0.320577 0.380082
O O1 0.190311 0.790006 0.500000
O O2 0.070859 0.747983 0.421296
O O3 0.092112 0.000000 0.500000
O O4 0.072755 0.724130 0.846832
O O5 0.000000 0.500000 0.799866
O O6 0.000000 0.735703 0.711483
O O7 0.574009 0.307179 0.500000
O O8 0.594548 0.500000 0.617889
O O9 0.695541 0.303350 0.579295
O O10 0.724326 0.000000 0.000000
O O11 0.000000 0.500000 0.389139
#
# Coordination Sequence:
#
# PCOD8292050 Si02
#       5
#     8   8  16   8   8
#     4  11  21  36  58  81  97 122 172 223 261 296
#     4  11  21  31  49  80 109 134 171 213 252 293
#     4   8  17  32  52  76 104 142 174 198 246 307
#     4   8  17  34  55  76 101 140 173 198 249 314
#     4  10  22  38  55  73 101 140 170 204 257 312
#
# _framework density 17.378799000000001
#
# number of rings (size 3 to 8) (size 9 to 14) (size 15 to 20)
#    1.000    1.667    0.000    4.000    0.000    6.667 
#    0.000    1.667    0.000    0.000    0.000    0.000 
#    0.000    0.000    0.000    0.000    0.000    0.000 
#
# Total GULP energy -297338.618036 kJ/mol
# GULP energy per Si atom -12389.109085 kJ/mol
# Density = 1.733924 g / cm^3
# Si number density = 17.378799 Si / 1000 Ang^3
#
#
#
# Elastic Constant Matrix: (Units=GPa)
#
#
# Indices 1 2 3 4 5 6 
#
# 1 105.1012 35.1163 48.3019 0.0000 0.0000 0.0000
# 2 35.1163 72.7530 44.8235 0.0000 0.0000 0.0000
# 3 48.3019 44.8235 116.4030 0.0000 0.0000 0.0000
# 4 0.0000 0.0000 0.0000 26.1175 0.0000 0.0000
# 5 0.0000 0.0000 0.0000 0.0000 -7.8673 0.0000
# 6 0.0000 0.0000 0.0000 0.0000 0.0000 31.9043
#
#
#
# Elastic Compliance Matrix: (Units=1/GPa)
#
#
# Indices 1 2 3 4 5 6 
#
# 1 0.012478 -0.003714 -0.003748 0.000000 0.000000 0.000000
# 2 -0.003714 0.019126 -0.005824 0.000000 0.000000 0.000000
# 3 -0.003748 -0.005824 0.012388 0.000000 0.000000 0.000000
# 4 0.000000 0.000000 0.000000 0.038288 0.000000 0.000000
# 5 0.000000 0.000000 0.000000 0.000000 -0.127108 0.000000
# 6 0.000000 0.000000 0.000000 0.000000 0.000000 0.031344
#
#
# Mechanical properties :
#
#
# Convention : Reuss Voigt Hill
#
# Bulk Modulus (GPa) = 57.39971 61.19340 59.29656
# Shear Modulus (GPa) = 264.63796 21.09859 142.86828
#
# Velocity S-wave (km/s) = 12.35342 3.48809 9.07672
# Velocity P-wave (km/s) = 15.38103 7.17707 12.00180
#
# Compressibility (1/GPa) = 0.01742169
#
# Stress axis : x y z
#
# Youngs Moduli (GPa) = 80.14220 52.28554 80.72018
#
# Poissons Ratio (x) = 0.19418 0.30251
# Poissons Ratio (y) = 0.29764 0.47009
# Poissons Ratio (z) = 0.30034 0.30450
#
# Static dielectric constant tensor:
#      x y z
#    x 3.079170 0.000000 0.000000 
#    y 0.000000 3.114570 0.000000 
#    z 0.000000 0.000000 3.132160 
# 
# 
# High freq. dielectric constant tensor:
#      x y z
#    x 1.668110 0.000000 0.000000 
#    y 0.000000 1.673030 0.000000 
#    z 0.000000 0.000000 1.648800 
# 
# From -- ./inp_files/46748.got.cif
#   From: 2010.06.25/outbox.cif.g09.slc.cpg/sg71_24_cif.got.tgz:46748.got - 2010.06.28 04:59:45.
