data_PCOD8292294
_publ_section_title
;
Structure prediction by ZEFSAII (Michael W. Deem and Ramdas Pophale) SiO2 
 PCOD8292294
Probable space group: I M M M
;
_chemical_formula_sum "Si O2"
_cell_formula_units_Z 104
_cell_length_a 20.160626
_cell_length_b 21.395230
_cell_length_c 12.883867
_cell_angle_alpha 90.000000
_cell_angle_beta 90.000000
_cell_angle_gamma 90.000000
_cell_volume 5557.343042
_symmetry_space_group_name_H-M "I M M M"
_symmetry_group_IT_number 71
_symmetry_cell_setting 'orthorhombic'
loop_
_space_group_symop_operation_xyz
x,y,z
-x,-y,z
x,-y,-z
-x,y,-z
-x,-y,-z
x,y,-z
-x,y,z
x,-y,z
1/2+x,1/2+y,1/2+z
1/2-x,1/2-y,1/2+z
1/2+x,1/2-y,1/2-z
1/2-x,1/2+y,1/2-z
1/2-x,1/2-y,1/2-z
1/2+x,1/2+y,1/2-z
1/2-x,1/2+y,1/2+z
1/2+x,1/2-y,1/2+z
loop_
_atom_site_type_symbol
_atom_site_label
_atom_site_fract_x
_atom_site_fract_y
_atom_site_fract_z
Si Si1 0.380969 0.385773 0.254791
Si Si2 0.261813 0.426521 0.119951
Si Si3 0.872444 0.365817 0.809112
Si Si4 0.078473 0.763752 0.876727
Si Si5 0.576413 0.072241 0.118361
Si Si6 0.500000 0.573823 0.880209
Si Si7 0.000000 0.566250 0.117453
Si Si8 0.075571 0.000000 0.878121
O O1 0.310979 0.389287 0.196062
O O2 0.390899 0.322475 0.317603
O O3 0.435804 0.394107 0.167067
O O4 0.385457 0.439775 0.339940
O O5 0.260004 0.500000 0.148634
O O6 0.191110 0.394908 0.136340
O O7 0.283436 0.418287 0.000000
O O8 0.877966 0.292138 0.828566
O O9 0.875343 0.384026 0.686860
O O10 0.935348 0.394809 0.863012
O O11 0.000000 0.756648 0.852986
O O12 0.090235 0.769703 0.000000
O O13 0.500000 0.081874 0.154691
O O14 0.597265 0.000000 0.130300
O O15 0.584632 0.093891 0.000000
O O16 0.500000 0.500000 0.859744
O O17 0.500000 0.589936 0.000000
O O18 0.000000 0.500000 0.180847
O O19 0.000000 0.547785 0.000000
O O20 0.000000 0.000000 0.834684
O O21 0.074774 0.000000 0.000000
#
# Coordination Sequence:
#
# PCOD8292294 Si02
#       8
#    16  16  16  16  16   8   8   8
#     4  12  21  40  61  88 124 166 206 259 325 383
#     4  11  24  41  63  92 130 168 207 260 322 380
#     4  12  22  38  61  89 127 171 209 258 311 371
#     4  11  23  40  64  93 127 166 211 264 319 376
#     4   9  17  32  56  84 114 155 207 263 316 359
#     4  11  20  35  62  92 118 152 207 264 319 385
#     4  11  20  31  55  89 119 154 213 266 304 354
#     4  11  20  36  64  96 120 151 208 277 331 381
#
# _framework density 18.713978000000001
#
# number of rings (size 3 to 8) (size 9 to 14) (size 15 to 20)
#    0.000    1.000    4.615    4.154    0.000    4.308 
#    0.000    3.077    0.000    0.000    0.000    0.000 
#    0.000    0.000    0.000    0.000    0.000    0.000 
#
# Total GULP energy -644753.239495 kJ/mol
# GULP energy per Si atom -12399.100760 kJ/mol
# Density = 1.867138 g / cm^3
# Si number density = 18.713978 Si / 1000 Ang^3
#
#
#
# Elastic Constant Matrix: (Units=GPa)
#
#
# Indices 1 2 3 4 5 6 
#
# 1 95.0965 35.1836 35.7933 0.0000 0.0000 0.0000
# 2 35.1836 130.1713 56.9619 0.0000 0.0000 0.0000
# 3 35.7933 56.9619 113.4235 0.0000 0.0000 0.0000
# 4 0.0000 0.0000 0.0000 38.7720 0.0000 0.0000
# 5 0.0000 0.0000 0.0000 0.0000 27.6902 0.0000
# 6 0.0000 0.0000 0.0000 0.0000 0.0000 30.9292
#
#
#
# Elastic Compliance Matrix: (Units=1/GPa)
#
#
# Indices 1 2 3 4 5 6 
#
# 1 0.012363 -0.002095 -0.002849 0.000000 0.000000 0.000000
# 2 -0.002095 0.010201 -0.004462 0.000000 0.000000 0.000000
# 3 -0.002849 -0.004462 0.011957 0.000000 0.000000 0.000000
# 4 0.000000 0.000000 0.000000 0.025792 0.000000 0.000000
# 5 0.000000 0.000000 0.000000 0.000000 0.036114 0.000000
# 6 0.000000 0.000000 0.000000 0.000000 0.000000 0.032332
#
#
# Mechanical properties :
#
#
# Convention : Reuss Voigt Hill
#
# Bulk Modulus (GPa) = 63.66039 66.06322 64.86180
# Shear Modulus (GPa) = 32.72115 33.52844 33.12480
#
# Velocity S-wave (km/s) = 4.18603 4.23735 4.21177
# Velocity P-wave (km/s) = 7.57992 7.70184 7.64112
#
# Compressibility (1/GPa) = 0.01570836
#
# Stress axis : x y z
#
# Youngs Moduli (GPa) = 80.88558 98.03113 83.63634
#
# Poissons Ratio (x) = 0.20534 0.23832
# Poissons Ratio (y) = 0.16943 0.37318
# Poissons Ratio (z) = 0.23048 0.43740
#
# Static dielectric constant tensor:
#      x y z
#    x 3.218860 0.000000 0.000000 
#    y 0.000000 3.178570 0.000000 
#    z 0.000000 0.000000 3.648310 
# 
# 
# High freq. dielectric constant tensor:
#      x y z
#    x 1.710750 0.000000 0.000000 
#    y 0.000000 1.720810 0.000000 
#    z 0.000000 0.000000 1.747320 
# 
# From -- ./inp_files/36730.got.cif
#   From: 2010.06.25/outbox.cif.g09.slc.cpg/sg71_19_cif.got.tgz:36730.got - 2010.06.28 04:59:45.
