data_PCOD8292218
_publ_section_title
;
Structure prediction by ZEFSAII (Michael W. Deem and Ramdas Pophale) SiO2 
 PCOD8292218
Probable space group: I M M M
;
_chemical_formula_sum "Si O2"
_cell_formula_units_Z 72
_cell_length_a 16.582036
_cell_length_b 18.117653
_cell_length_c 11.671396
_cell_angle_alpha 90.000000
_cell_angle_beta 90.000000
_cell_angle_gamma 90.000000
_cell_volume 3506.409189
_symmetry_space_group_name_H-M "I M M M"
_symmetry_group_IT_number 71
_symmetry_cell_setting 'orthorhombic'
loop_
_space_group_symop_operation_xyz
x,y,z
-x,-y,z
x,-y,-z
-x,y,-z
-x,-y,-z
x,y,-z
-x,y,z
x,-y,z
1/2+x,1/2+y,1/2+z
1/2-x,1/2-y,1/2+z
1/2+x,1/2-y,1/2-z
1/2-x,1/2+y,1/2-z
1/2-x,1/2-y,1/2-z
1/2+x,1/2+y,1/2-z
1/2-x,1/2+y,1/2+z
1/2+x,1/2-y,1/2+z
loop_
_atom_site_type_symbol
_atom_site_label
_atom_site_fract_x
_atom_site_fract_y
_atom_site_fract_z
Si Si1 0.338503 0.350235 0.714162
Si Si2 0.745860 0.583011 0.500000
Si Si3 0.000000 0.913841 0.870818
Si Si4 0.407661 0.805529 0.752416
Si Si5 0.208110 0.585621 0.134512
Si Si6 0.587588 0.861162 0.000000
O O1 0.281329 0.371180 0.609216
O O2 0.423547 0.390571 0.703342
O O3 0.352849 0.262897 0.713222
O O4 0.292529 0.376766 0.828204
O O5 0.709461 0.500000 0.500000
O O6 0.842760 0.577308 0.500000
O O7 0.000000 0.000000 0.885615
O O8 0.000000 0.878467 0.000000
O O9 0.500000 0.796977 0.708917
O O10 0.369098 0.878431 0.696645
O O11 0.405073 0.808738 0.889651
O O12 0.209671 0.500000 0.170485
O O13 0.198297 0.596351 0.000000
O O14 0.500000 0.901373 0.000000
#
# Coordination Sequence:
#
# PCOD8292218 Si02
#       6
#    16   8   8  16  16   8
#     4  12  24  41  67  97 137 170 220 273 329 390
#     4  12  24  40  70 102 129 171 220 273 337 390
#     4  11  22  38  63  97 136 172 216 274 331 390
#     4  11  25  44  68  99 131 174 220 271 331 391
#     4  11  26  45  68  97 132 175 223 269 324 396
#     4  10  24  43  67  99 135 167 220 271 330 387
#
# _framework density 20.533826999999999
#
# number of rings (size 3 to 8) (size 9 to 14) (size 15 to 20)
#    0.000    0.778    4.444    2.667    3.111    1.111 
#    0.000    3.889    0.000    2.000    0.000    0.000 
#    0.000    0.000    0.000    0.000    0.000    0.000 
#
# Total GULP energy -446504.429962 kJ/mol
# GULP energy per Si atom -12402.900832 kJ/mol
# Density = 2.048709 g / cm^3
# Si number density = 20.533827 Si / 1000 Ang^3
#
#
#
# Elastic Constant Matrix: (Units=GPa)
#
#
# Indices 1 2 3 4 5 6 
#
# 1 160.9951 54.6880 47.0233 0.0000 0.0000 0.0000
# 2 54.6880 119.2442 40.2784 0.0000 0.0000 0.0000
# 3 47.0233 40.2784 95.0453 0.0000 0.0000 0.0000
# 4 0.0000 0.0000 0.0000 20.7160 0.0000 0.0000
# 5 0.0000 0.0000 0.0000 0.0000 32.8755 0.0000
# 6 0.0000 0.0000 0.0000 0.0000 0.0000 28.5587
#
#
#
# Elastic Compliance Matrix: (Units=1/GPa)
#
#
# Indices 1 2 3 4 5 6 
#
# 1 0.007943 -0.002702 -0.002784 0.000000 0.000000 0.000000
# 2 -0.002702 0.010706 -0.003200 0.000000 0.000000 0.000000
# 3 -0.002784 -0.003200 0.013255 0.000000 0.000000 0.000000
# 4 0.000000 0.000000 0.000000 0.048272 0.000000 0.000000
# 5 0.000000 0.000000 0.000000 0.000000 0.030418 0.000000
# 6 0.000000 0.000000 0.000000 0.000000 0.000000 0.035016
#
#
# Mechanical properties :
#
#
# Convention : Reuss Voigt Hill
#
# Bulk Modulus (GPa) = 68.82146 73.25154 71.03650
# Shear Modulus (GPa) = 29.79270 31.98304 30.88787
#
# Velocity S-wave (km/s) = 3.81321 3.95090 3.88266
# Velocity P-wave (km/s) = 7.27848 7.52089 7.40068
#
# Compressibility (1/GPa) = 0.01453035
#
# Stress axis : x y z
#
# Youngs Moduli (GPa) = 125.90485 93.40215 75.44252
#
# Poissons Ratio (x) = 0.25238 0.21006
# Poissons Ratio (y) = 0.34020 0.24144
# Poissons Ratio (z) = 0.35057 0.29892
#
# Static dielectric constant tensor:
#      x y z
#    x 3.981510 0.000000 0.000000 
#    y 0.000000 3.644870 0.000000 
#    z 0.000000 0.000000 3.870220 
# 
# 
# High freq. dielectric constant tensor:
#      x y z
#    x 1.823560 0.000000 0.000000 
#    y 0.000000 1.799500 0.000000 
#    z 0.000000 0.000000 1.804190 
# 
# From -- ./inp_files/23540.got.cif
#   From: 2010.06.25/outbox.cif.g09.slc.cpg/sg71_12_cif.got.tgz:23540.got - 2010.06.28 04:59:45.
