data_PCOD8292257
_publ_section_title
;
Structure prediction by ZEFSAII (Michael W. Deem and Ramdas Pophale) SiO2 
 PCOD8292257
Probable space group: I M M M
;
_chemical_formula_sum "Si O2"
_cell_formula_units_Z 80
_cell_length_a 18.060446
_cell_length_b 19.598004
_cell_length_c 13.483168
_cell_angle_alpha 90.000000
_cell_angle_beta 90.000000
_cell_angle_gamma 90.000000
_cell_volume 4772.349690
_symmetry_space_group_name_H-M "I M M M"
_symmetry_group_IT_number 71
_symmetry_cell_setting 'orthorhombic'
loop_
_space_group_symop_operation_xyz
x,y,z
-x,-y,z
x,-y,-z
-x,y,-z
-x,-y,-z
x,y,-z
-x,y,z
x,-y,z
1/2+x,1/2+y,1/2+z
1/2-x,1/2-y,1/2+z
1/2+x,1/2-y,1/2-z
1/2-x,1/2+y,1/2-z
1/2-x,1/2-y,1/2-z
1/2+x,1/2+y,1/2-z
1/2-x,1/2+y,1/2+z
1/2+x,1/2-y,1/2+z
loop_
_atom_site_type_symbol
_atom_site_label
_atom_site_fract_x
_atom_site_fract_y
_atom_site_fract_z
Si Si1 0.915790 0.216411 0.887487
Si Si2 0.915287 0.708208 0.388851
Si Si3 0.582692 0.133354 0.304972
Si Si4 0.188461 0.804558 0.719285
Si Si5 0.225550 0.422800 0.114134
O O1 0.908399 0.296293 0.864375
O O2 0.860883 0.175268 0.815141
O O3 0.000000 0.191911 0.870184
O O4 0.890697 0.202941 0.000000
O O5 0.899373 0.681479 0.500000
O O6 0.900081 0.646890 0.311568
O O7 0.863423 0.772786 0.365951
O O8 0.000000 0.733208 0.376729
O O9 0.500000 0.103480 0.318806
O O10 0.640701 0.079779 0.348461
O O11 0.250000 0.750000 0.750000
O O12 0.223868 0.873645 0.679509
O O13 0.254044 0.500000 0.127433
O O14 0.229500 0.399946 0.000000
#
# Coordination Sequence:
#
# PCOD8292257 Si02
#       5
#    16  16  16  16  16
#     4   9  17  30  52  80 104 127 164 215 262 300
#     4   9  17  30  51  77 101 127 166 214 258 299
#     4   9  17  31  49  73 103 136 172 207 245 297
#     4  11  19  31  51  77 103 136 171 211 252 300
#     4  11  23  36  49  72 108 142 171 207 253 303
#
# _framework density 16.763231000000001
#
# number of rings (size 3 to 8) (size 9 to 14) (size 15 to 20)
#    0.000    2.200    4.000    3.000    0.000    2.400 
#    0.000    1.000    0.000    4.800    0.000   11.200 
#    0.000    0.000    0.000    0.000    0.000    0.000 
#
# Total GULP energy -495908.269694 kJ/mol
# GULP energy per Si atom -12397.706742 kJ/mol
# Density = 1.672508 g / cm^3
# Si number density = 16.763231 Si / 1000 Ang^3
#
#
#
# Elastic Constant Matrix: (Units=GPa)
#
#
# Indices 1 2 3 4 5 6 
#
# 1 86.3607 33.2273 58.5264 0.0000 0.0000 0.0000
# 2 33.2273 59.6123 40.5619 0.0000 0.0000 0.0000
# 3 58.5264 40.5619 142.7534 0.0000 0.0000 0.0000
# 4 0.0000 0.0000 0.0000 19.6809 0.0000 0.0000
# 5 0.0000 0.0000 0.0000 0.0000 30.7104 0.0000
# 6 0.0000 0.0000 0.0000 0.0000 0.0000 19.4841
#
#
#
# Elastic Compliance Matrix: (Units=1/GPa)
#
#
# Indices 1 2 3 4 5 6 
#
# 1 0.017656 -0.006094 -0.005507 0.000000 0.000000 0.000000
# 2 -0.006094 0.022899 -0.004008 0.000000 0.000000 0.000000
# 3 -0.005507 -0.004008 0.010402 0.000000 0.000000 0.000000
# 4 0.000000 0.000000 0.000000 0.050811 0.000000 0.000000
# 5 0.000000 0.000000 0.000000 0.000000 0.032562 0.000000
# 6 0.000000 0.000000 0.000000 0.000000 0.000000 0.051324
#
#
# Mechanical properties :
#
#
# Convention : Reuss Voigt Hill
#
# Bulk Modulus (GPa) = 50.66279 61.48419 56.07349
# Shear Modulus (GPa) = 22.37614 24.40246 23.38930
#
# Velocity S-wave (km/s) = 3.65750 3.81952 3.73939
# Velocity P-wave (km/s) = 6.93719 7.49728 7.22267
#
# Compressibility (1/GPa) = 0.01973835
#
# Stress axis : x y z
#
# Youngs Moduli (GPa) = 56.63706 43.66981 96.13758
#
# Poissons Ratio (x) = 0.26613 0.52944
# Poissons Ratio (y) = 0.34516 0.38532
# Poissons Ratio (z) = 0.31191 0.17503
#
# Static dielectric constant tensor:
#      x y z
#    x 3.440790 0.000000 0.000000 
#    y 0.000000 2.632110 0.000000 
#    z 0.000000 0.000000 3.479520 
# 
# 
# High freq. dielectric constant tensor:
#      x y z
#    x 1.658980 0.000000 0.000000 
#    y 0.000000 1.586210 0.000000 
#    z 0.000000 0.000000 1.661960 
# 
# From -- ./inp_files/36228.got.cif
#   From: 2010.06.25/outbox.cif.g09.slc.cpg/sg71_19_cif.got.tgz:36228.got - 2010.06.28 04:59:45.
