data_PCOD8292208
_publ_section_title
;
Structure prediction by ZEFSAII (Michael W. Deem and Ramdas Pophale) SiO2 
 PCOD8292208
Probable space group: I M M M
;
_chemical_formula_sum "Si O2"
_cell_formula_units_Z 80
_cell_length_a 19.448662
_cell_length_b 23.135456
_cell_length_c 8.782395
_cell_angle_alpha 90.000000
_cell_angle_beta 90.000000
_cell_angle_gamma 90.000000
_cell_volume 3951.670809
_symmetry_space_group_name_H-M "I M M M"
_symmetry_group_IT_number 71
_symmetry_cell_setting 'orthorhombic'
loop_
_space_group_symop_operation_xyz
x,y,z
-x,-y,z
x,-y,-z
-x,y,-z
-x,-y,-z
x,y,-z
-x,y,z
x,-y,z
1/2+x,1/2+y,1/2+z
1/2-x,1/2-y,1/2+z
1/2+x,1/2-y,1/2-z
1/2-x,1/2+y,1/2-z
1/2-x,1/2-y,1/2-z
1/2+x,1/2+y,1/2-z
1/2-x,1/2+y,1/2+z
1/2+x,1/2-y,1/2+z
loop_
_atom_site_type_symbol
_atom_site_label
_atom_site_fract_x
_atom_site_fract_y
_atom_site_fract_z
Si Si1 0.425557 0.067121 0.166914
Si Si2 0.688549 0.875666 0.675777
Si Si3 0.321276 0.433082 0.319662
Si Si4 0.579468 0.653314 0.179339
Si Si5 0.675617 0.241112 0.179921
O O1 0.500000 0.094842 0.209634
O O2 0.369458 0.076437 0.298553
O O3 0.435656 0.000000 0.152399
O O4 0.401313 0.090968 0.000000
O O5 0.702951 0.863084 0.500000
O O6 0.759863 0.895838 0.748359
O O7 0.652781 0.820807 0.757063
O O8 0.315710 0.429658 0.500000
O O9 0.318698 0.500000 0.265098
O O10 0.392042 0.403815 0.263789
O O11 0.500000 0.661938 0.225535
O O12 0.621950 0.709809 0.233794
O O13 0.587591 0.643719 0.000000
O O14 0.750000 0.250000 0.250000
O O15 0.681096 0.240696 0.000000
#
# Coordination Sequence:
#
# PCOD8292208 Si02
#       5
#    16  16  16  16  16
#     4   9  19  37  59  83 116 159 204 252 307 363
#     4  12  24  37  59  91 125 162 204 254 307 363
#     4  11  24  41  63  91 123 163 210 258 309 367
#     4  10  23  43  66  93 124 160 203 252 309 372
#     4  11  22  39  64  91 121 159 200 247 300 359
#
# _framework density 20.244600999999999
#
# number of rings (size 3 to 8) (size 9 to 14) (size 15 to 20)
#    0.000    1.400    2.000    4.200    0.000    7.200 
#    0.000    5.000    0.000    0.000    0.000    0.000 
#    0.000    0.000    0.000    0.000    0.000    0.000 
#
# Total GULP energy -495876.185632 kJ/mol
# GULP energy per Si atom -12396.904641 kJ/mol
# Density = 2.019852 g / cm^3
# Si number density = 20.244601 Si / 1000 Ang^3
#
#
#
# Elastic Constant Matrix: (Units=GPa)
#
#
# Indices 1 2 3 4 5 6 
#
# 1 134.9854 48.1904 43.6484 0.0000 0.0000 0.0000
# 2 48.1904 110.5439 43.7605 0.0000 0.0000 0.0000
# 3 43.6484 43.7605 82.1325 0.0000 0.0000 0.0000
# 4 0.0000 0.0000 0.0000 32.3091 0.0000 0.0000
# 5 0.0000 0.0000 0.0000 0.0000 30.8473 0.0000
# 6 0.0000 0.0000 0.0000 0.0000 0.0000 34.1467
#
#
#
# Elastic Compliance Matrix: (Units=1/GPa)
#
#
# Indices 1 2 3 4 5 6 
#
# 1 0.009555 -0.002731 -0.003622 0.000000 0.000000 0.000000
# 2 -0.002731 0.012245 -0.005073 0.000000 0.000000 0.000000
# 3 -0.003622 -0.005073 0.016803 0.000000 0.000000 0.000000
# 4 0.000000 0.000000 0.000000 0.030951 0.000000 0.000000
# 5 0.000000 0.000000 0.000000 0.000000 0.032418 0.000000
# 6 0.000000 0.000000 0.000000 0.000000 0.000000 0.029285
#
#
# Mechanical properties :
#
#
# Convention : Reuss Voigt Hill
#
# Bulk Modulus (GPa) = 63.49163 66.54005 65.01584
# Shear Modulus (GPa) = 31.37553 32.26478 31.82016
#
# Velocity S-wave (km/s) = 3.94105 3.99651 3.96888
# Velocity P-wave (km/s) = 7.22077 7.36448 7.29298
#
# Compressibility (1/GPa) = 0.01575011
#
# Stress axis : x y z
#
# Youngs Moduli (GPa) = 104.66136 81.66651 59.51201
#
# Poissons Ratio (x) = 0.22305 0.21558
# Poissons Ratio (y) = 0.28585 0.30188
# Poissons Ratio (z) = 0.37914 0.41427
#
# Static dielectric constant tensor:
#      x y z
#    x 3.819010 0.000000 0.000000 
#    y 0.000000 4.132750 0.000000 
#    z 0.000000 0.000000 3.641720 
# 
# 
# High freq. dielectric constant tensor:
#      x y z
#    x 1.796360 0.000000 0.000000 
#    y 0.000000 1.795510 0.000000 
#    z 0.000000 0.000000 1.786520 
# 
# From -- ./inp_files/8337.got.cif
#   From: 2010.06.25/outbox.cif.g09.slc.cpg/sg71_5_cif.got.tgz:8337.got - 2010.06.28 04:59:45.
