data_PCOD8292307
_publ_section_title
;
Structure prediction by ZEFSAII (Michael W. Deem and Ramdas Pophale) SiO2 
 PCOD8292307
Probable space group: I M M M
;
_chemical_formula_sum "Si O2"
_cell_formula_units_Z 96
_cell_length_a 11.980866
_cell_length_b 19.417973
_cell_length_c 24.332796
_cell_angle_alpha 90.000000
_cell_angle_beta 90.000000
_cell_angle_gamma 90.000000
_cell_volume 5660.882217
_symmetry_space_group_name_H-M "I M M M"
_symmetry_group_IT_number 71
_symmetry_cell_setting 'orthorhombic'
loop_
_space_group_symop_operation_xyz
x,y,z
-x,-y,z
x,-y,-z
-x,y,-z
-x,-y,-z
x,y,-z
-x,y,z
x,-y,z
1/2+x,1/2+y,1/2+z
1/2-x,1/2-y,1/2+z
1/2+x,1/2-y,1/2-z
1/2-x,1/2+y,1/2-z
1/2-x,1/2-y,1/2-z
1/2+x,1/2+y,1/2-z
1/2-x,1/2+y,1/2+z
1/2+x,1/2-y,1/2+z
loop_
_atom_site_type_symbol
_atom_site_label
_atom_site_fract_x
_atom_site_fract_y
_atom_site_fract_z
Si Si1 0.500000 0.577352 0.195104
Si Si2 0.813059 0.814190 0.324409
Si Si3 0.373079 0.821810 0.238355
Si Si4 0.760781 0.077284 0.838659
Si Si5 0.628241 0.730518 0.939001
Si Si6 0.375141 0.107085 0.061052
Si Si7 0.500000 0.575693 0.676144
O O1 0.500000 0.500000 0.168778
O O2 0.387657 0.617349 0.178307
O O3 0.500000 0.570393 0.259380
O O4 0.692345 0.823511 0.296280
O O5 0.873079 0.751877 0.292022
O O6 0.796168 0.799133 0.389496
O O7 0.500000 0.842166 0.251340
O O8 0.320760 0.878207 0.198361
O O9 0.712906 0.070867 0.899624
O O10 0.884325 0.113090 0.841766
O O11 0.771915 0.000000 0.813599
O O12 0.500000 0.708609 0.928293
O O13 0.639986 0.811723 0.937268
O O14 0.666002 0.703940 0.000000
O O15 0.500000 0.087311 0.080036
O O16 0.352908 0.078996 0.000000
O O17 0.500000 0.500000 0.648586
#
# Coordination Sequence:
#
# PCOD8292307 Si02
#       7
#     8  16  16  16  16  16   8
#     4  11  20  34  55  77 104 140 170 201 261 323
#     4  11  20  34  54  76 107 136 171 217 256 314
#     4  11  22  33  50  79 107 138 175 215 261 305
#     4  11  21  34  52  74 105 142 178 219 260 310
#     4   9  16  29  52  77 100 131 168 209 263 312
#     4   9  18  32  49  72 102 135 175 220 263 306
#     4   9  20  36  49  71 105 142 175 207 263 320
#
# _framework density 16.958487000000002
#
# number of rings (size 3 to 8) (size 9 to 14) (size 15 to 20)
#    0.000    1.833    5.000    1.500    0.000    1.667 
#    0.000    1.250    0.000    3.000    0.000    0.000 
#    0.000    0.000    0.000    3.000    0.000    0.000 
#
# Total GULP energy -594888.784736 kJ/mol
# GULP energy per Si atom -12393.516349 kJ/mol
# Density = 1.691989 g / cm^3
# Si number density = 16.958487 Si / 1000 Ang^3
#
#
#
# Elastic Constant Matrix: (Units=GPa)
#
#
# Indices 1 2 3 4 5 6 
#
# 1 132.2137 35.4611 54.6388 0.0000 0.0000 0.0000
# 2 35.4611 72.0617 25.4274 0.0000 0.0000 0.0000
# 3 54.6388 25.4274 114.0436 0.0000 0.0000 0.0000
# 4 0.0000 0.0000 0.0000 26.9776 0.0000 0.0000
# 5 0.0000 0.0000 0.0000 0.0000 16.3969 0.0000
# 6 0.0000 0.0000 0.0000 0.0000 0.0000 20.4885
#
#
#
# Elastic Compliance Matrix: (Units=1/GPa)
#
#
# Indices 1 2 3 4 5 6 
#
# 1 0.010217 -0.003582 -0.004096 0.000000 0.000000 0.000000
# 2 -0.003582 0.016318 -0.001922 0.000000 0.000000 0.000000
# 3 -0.004096 -0.001922 0.011160 0.000000 0.000000 0.000000
# 4 0.000000 0.000000 0.000000 0.037068 0.000000 0.000000
# 5 0.000000 0.000000 0.000000 0.000000 0.060987 0.000000
# 6 0.000000 0.000000 0.000000 0.000000 0.000000 0.048808
#
#
# Mechanical properties :
#
#
# Convention : Reuss Voigt Hill
#
# Bulk Modulus (GPa) = 54.07309 61.04151 57.55730
# Shear Modulus (GPa) = 23.81816 26.29204 25.05510
#
# Velocity S-wave (km/s) = 3.75173 3.94175 3.84791
# Velocity P-wave (km/s) = 7.12194 7.53587 7.33183
#
# Compressibility (1/GPa) = 0.01849349
#
# Stress axis : x y z
#
# Youngs Moduli (GPa) = 97.87399 61.28181 89.60811
#
# Poissons Ratio (x) = 0.21954 0.36707
# Poissons Ratio (y) = 0.35062 0.17222
# Poissons Ratio (z) = 0.40093 0.11778
#
# Static dielectric constant tensor:
#      x y z
#    x 3.258030 0.000000 0.000000 
#    y 0.000000 3.208150 0.000000 
#    z 0.000000 0.000000 3.423220 
# 
# 
# High freq. dielectric constant tensor:
#      x y z
#    x 1.641790 0.000000 0.000000 
#    y 0.000000 1.637220 0.000000 
#    z 0.000000 0.000000 1.645720 
# 
# From -- ./inp_files/59000.got.cif
#   From: 2010.06.25/outbox.cif.g09.slc.cpg/sg71_30_cif.got.tgz:59000.got - 2010.06.28 04:59:45.
