data_PCOD8292378
_publ_section_title
;
Structure prediction by ZEFSAII (Michael W. Deem and Ramdas Pophale) SiO2 
 PCOD8292378
Probable space group: I M M M
;
_chemical_formula_sum "Si O2"
_cell_formula_units_Z 104
_cell_length_a 22.552714
_cell_length_b 8.948650
_cell_length_c 27.831022
_cell_angle_alpha 90.000000
_cell_angle_beta 90.000000
_cell_angle_gamma 90.000000
_cell_volume 5616.755114
_symmetry_space_group_name_H-M "I M M M"
_symmetry_group_IT_number 71
_symmetry_cell_setting 'orthorhombic'
loop_
_space_group_symop_operation_xyz
x,y,z
-x,-y,z
x,-y,-z
-x,y,-z
-x,-y,-z
x,y,-z
-x,y,z
x,-y,z
1/2+x,1/2+y,1/2+z
1/2-x,1/2-y,1/2+z
1/2+x,1/2-y,1/2-z
1/2-x,1/2+y,1/2-z
1/2-x,1/2-y,1/2-z
1/2+x,1/2+y,1/2-z
1/2-x,1/2+y,1/2+z
1/2+x,1/2-y,1/2+z
loop_
_atom_site_type_symbol
_atom_site_label
_atom_site_fract_x
_atom_site_fract_y
_atom_site_fract_z
Si Si1 0.000000 0.822020 0.556448
Si Si2 0.434192 0.165467 0.556664
Si Si3 0.676116 0.824097 0.800690
Si Si4 0.116491 0.677713 0.399077
Si Si5 0.775556 0.171379 0.444962
Si Si6 0.689127 0.329860 0.292153
Si Si7 0.168440 0.830317 0.102764
O O1 0.943452 0.757330 0.584354
O O2 0.000000 0.774035 0.500000
O O3 0.000000 0.000000 0.560664
O O4 0.434861 0.173018 0.500000
O O5 0.500000 0.196521 0.576790
O O6 0.391504 0.293620 0.575387
O O7 0.412734 0.000000 0.573178
O O8 0.636572 0.766425 0.845616
O O9 0.654012 0.760064 0.749446
O O10 0.744472 0.769853 0.804336
O O11 0.671413 0.000000 0.800198
O O12 0.107650 0.500000 0.400857
O O13 0.167647 0.725206 0.435918
O O14 0.755907 0.189868 0.500000
O O15 0.721090 0.221309 0.412266
O O16 0.791717 0.000000 0.433031
O O17 0.693014 0.500000 0.274754
O O18 0.652767 0.310778 0.341141
O O19 0.188254 0.000000 0.091485
#
# Coordination Sequence:
#
# PCOD8292378 Si02
#       7
#     8  16  16  16  16  16  16
#     4  11  25  43  61  85 117 153 197 241 284 347
#     4   9  19  36  55  75 104 143 185 225 266 320
#     4   9  18  34  55  81 110 140 177 221 269 327
#     4  11  22  39  61  85 113 146 188 237 288 337
#     4  11  23  36  52  79 114 149 185 225 273 332
#     4   9  18  33  52  80 114 143 176 218 270 327
#     4  11  21  34  53  81 113 143 179 227 277 326
#
# _framework density 18.516030000000001
#
# number of rings (size 3 to 8) (size 9 to 14) (size 15 to 20)
#    0.000    1.923    1.538    3.000    0.000    8.615 
#    0.000    0.769    1.692    0.000    0.000    0.000 
#    0.000    0.000    0.000    0.000    0.000    0.000 
#
# Total GULP energy -644686.841074 kJ/mol
# GULP energy per Si atom -12397.823867 kJ/mol
# Density = 1.847389 g / cm^3
# Si number density = 18.516030 Si / 1000 Ang^3
#
#
#
# Elastic Constant Matrix: (Units=GPa)
#
#
# Indices 1 2 3 4 5 6 
#
# 1 88.9728 32.8331 45.3924 0.0000 0.0000 0.0000
# 2 32.8331 60.0046 46.7430 0.0000 0.0000 0.0000
# 3 45.3924 46.7430 102.6334 0.0000 0.0000 0.0000
# 4 0.0000 0.0000 0.0000 34.1893 0.0000 0.0000
# 5 0.0000 0.0000 0.0000 0.0000 26.5335 0.0000
# 6 0.0000 0.0000 0.0000 0.0000 0.0000 25.6803
#
#
#
# Elastic Compliance Matrix: (Units=1/GPa)
#
#
# Indices 1 2 3 4 5 6 
#
# 1 0.015366 -0.004826 -0.004598 0.000000 0.000000 0.000000
# 2 -0.004826 0.027345 -0.010319 0.000000 0.000000 0.000000
# 3 -0.004598 -0.010319 0.016477 0.000000 0.000000 0.000000
# 4 0.000000 0.000000 0.000000 0.029249 0.000000 0.000000
# 5 0.000000 0.000000 0.000000 0.000000 0.037688 0.000000
# 6 0.000000 0.000000 0.000000 0.000000 0.000000 0.038940
#
#
# Mechanical properties :
#
#
# Convention : Reuss Voigt Hill
#
# Bulk Modulus (GPa) = 50.75963 55.72752 53.24358
# Shear Modulus (GPa) = 23.68326 25.72342 24.70334
#
# Velocity S-wave (km/s) = 3.58029 3.73131 3.65658
# Velocity P-wave (km/s) = 6.67568 6.98039 6.82973
#
# Compressibility (1/GPa) = 0.01970070
#
# Stress axis : x y z
#
# Youngs Moduli (GPa) = 65.07773 36.57003 60.69122
#
# Poissons Ratio (x) = 0.17649 0.27907
# Poissons Ratio (y) = 0.31408 0.62629
# Poissons Ratio (z) = 0.29924 0.37738
#
# Static dielectric constant tensor:
#      x y z
#    x 3.352610 0.000000 0.000000 
#    y 0.000000 3.461350 0.000000 
#    z 0.000000 0.000000 3.588860 
# 
# 
# High freq. dielectric constant tensor:
#      x y z
#    x 1.695550 0.000000 0.000000 
#    y 0.000000 1.722660 0.000000 
#    z 0.000000 0.000000 1.723500 
# 
# From -- ./inp_files/66794.got.cif
#   From: 2010.06.25/outbox.cif.g09.slc.cpg/sg71_34_cif.got.tgz:66794.got - 2010.06.28 04:59:45.
