data_PCOD8292397
_publ_section_title
;
Structure prediction by ZEFSAII (Michael W. Deem and Ramdas Pophale) SiO2 
 PCOD8292397
Probable space group: I M M M
;
_chemical_formula_sum "Si O2"
_cell_formula_units_Z 56
_cell_length_a 33.850692
_cell_length_b 8.691685
_cell_length_c 10.382316
_cell_angle_alpha 90.000000
_cell_angle_beta 90.000000
_cell_angle_gamma 90.000000
_cell_volume 3054.680361
_symmetry_space_group_name_H-M "I M M M"
_symmetry_group_IT_number 71
_symmetry_cell_setting 'orthorhombic'
loop_
_space_group_symop_operation_xyz
x,y,z
-x,-y,z
x,-y,-z
-x,y,-z
-x,-y,-z
x,y,-z
-x,y,z
x,-y,z
1/2+x,1/2+y,1/2+z
1/2-x,1/2-y,1/2+z
1/2+x,1/2-y,1/2-z
1/2-x,1/2+y,1/2-z
1/2-x,1/2-y,1/2-z
1/2+x,1/2+y,1/2-z
1/2-x,1/2+y,1/2+z
1/2+x,1/2-y,1/2+z
loop_
_atom_site_type_symbol
_atom_site_label
_atom_site_fract_x
_atom_site_fract_y
_atom_site_fract_z
Si Si1 0.585304 0.183496 0.647791
Si Si2 0.500000 0.168195 0.652495
Si Si3 0.798003 0.317746 0.500000
Si Si4 0.337773 0.318020 0.749784
Si Si5 0.208621 0.817386 0.000000
O O1 0.593984 0.229278 0.500000
O O2 0.541677 0.248633 0.690888
O O3 0.616831 0.266586 0.738366
O O4 0.587127 0.000000 0.664913
O O5 0.500000 0.147634 0.500000
O O6 0.500000 0.000000 0.717141
O O7 0.798463 0.500000 0.500000
O O8 0.819923 0.257733 0.624812
O O9 0.753229 0.254094 0.500000
O O10 0.335122 0.500000 0.762019
O O11 0.313499 0.254863 0.626772
O O12 0.207817 0.000000 0.000000
#
# Coordination Sequence:
#
# PCOD8292397 Si02
#       5
#    16   8   8  16   8
#     4   9  16  29  51  79 107 139 177 215 255 305
#     4   7  12  24  45  74 107 136 169 214 256 296
#     4  11  23  39  55  76 103 140 185 224 259 311
#     4  11  21  36  55  79 110 142 172 216 271 319
#     4   9  20  37  57  78 105 136 176 222 266 313
#
# _framework density 18.332523999999999
#
# number of rings (size 3 to 8) (size 9 to 14) (size 15 to 20)
#    0.000    2.429    1.429    3.857    0.000    0.000 
#    0.000    5.000    0.000    3.429    0.000    6.000 
#    0.000    0.000    0.000    0.000    0.000    0.000 
#
# Total GULP energy -347030.466752 kJ/mol
# GULP energy per Si atom -12393.945241 kJ/mol
# Density = 1.829080 g / cm^3
# Si number density = 18.332524 Si / 1000 Ang^3
#
#
#
# Elastic Constant Matrix: (Units=GPa)
#
#
# Indices 1 2 3 4 5 6 
#
# 1 191.2296 36.4714 74.5935 0.0000 0.0000 0.0000
# 2 36.4714 47.3311 29.0387 0.0000 0.0000 0.0000
# 3 74.5935 29.0387 117.4450 0.0000 0.0000 0.0000
# 4 0.0000 0.0000 0.0000 -12.2383 0.0000 0.0000
# 5 0.0000 0.0000 0.0000 0.0000 38.0262 0.0000
# 6 0.0000 0.0000 0.0000 0.0000 0.0000 20.7175
#
#
#
# Elastic Compliance Matrix: (Units=1/GPa)
#
#
# Indices 1 2 3 4 5 6 
#
# 1 0.007366 -0.003307 -0.003861 0.000000 0.000000 0.000000
# 2 -0.003307 0.026391 -0.004425 0.000000 0.000000 0.000000
# 3 -0.003861 -0.004425 0.012061 0.000000 0.000000 0.000000
# 4 0.000000 0.000000 0.000000 -0.081710 0.000000 0.000000
# 5 0.000000 0.000000 0.000000 0.000000 0.026298 0.000000
# 6 0.000000 0.000000 0.000000 0.000000 0.000000 0.048268
#
#
# Mechanical properties :
#
#
# Convention : Reuss Voigt Hill
#
# Bulk Modulus (GPa) = 44.18470 70.69034 57.43752
# Shear Modulus (GPa) = 72.04341 23.69455 47.86898
#
# Velocity S-wave (km/s) = 6.27562 3.59902 5.11549
# Velocity P-wave (km/s) = 8.75588 7.47759 8.14186
#
# Compressibility (1/GPa) = 0.02263227
#
# Stress axis : x y z
#
# Youngs Moduli (GPa) = 135.75812 37.89192 82.91404
#
# Poissons Ratio (x) = 0.12532 0.32010
# Poissons Ratio (y) = 0.44900 0.36686
# Poissons Ratio (z) = 0.52412 0.16766
#
# Static dielectric constant tensor:
#      x y z
#    x 3.871240 0.000000 0.000000 
#    y 0.000000 3.072100 0.000000 
#    z 0.000000 0.000000 3.154010 
# 
# 
# High freq. dielectric constant tensor:
#      x y z
#    x 1.737350 0.000000 0.000000 
#    y 0.000000 1.684090 0.000000 
#    z 0.000000 0.000000 1.679570 
# 
# From -- ./inp_files/29411.got.cif
#   From: 2010.06.25/outbox.cif.g09.slc.cpg/sg71_15_cif.got.tgz:29411.got - 2010.06.28 04:59:45.
