data_PCOD8292504
_publ_section_title
;
Structure prediction by ZEFSAII (Michael W. Deem and Ramdas Pophale) SiO2 
 PCOD8292504
Probable space group: I M M M
;
_chemical_formula_sum "Si O2"
_cell_formula_units_Z 88
_cell_length_a 15.455620
_cell_length_b 11.454752
_cell_length_c 25.402464
_cell_angle_alpha 90.000000
_cell_angle_beta 90.000000
_cell_angle_gamma 90.000000
_cell_volume 4497.259698
_symmetry_space_group_name_H-M "I M M M"
_symmetry_group_IT_number 71
_symmetry_cell_setting 'orthorhombic'
loop_
_space_group_symop_operation_xyz
x,y,z
-x,-y,z
x,-y,-z
-x,y,-z
-x,-y,-z
x,y,-z
-x,y,z
x,-y,z
1/2+x,1/2+y,1/2+z
1/2-x,1/2-y,1/2+z
1/2+x,1/2-y,1/2-z
1/2-x,1/2+y,1/2-z
1/2-x,1/2-y,1/2-z
1/2+x,1/2+y,1/2-z
1/2-x,1/2+y,1/2+z
1/2+x,1/2-y,1/2+z
loop_
_atom_site_type_symbol
_atom_site_label
_atom_site_fract_x
_atom_site_fract_y
_atom_site_fract_z
Si Si1 0.826064 0.635865 0.386160
Si Si2 0.500000 0.861516 0.058784
Si Si3 0.098814 0.500000 0.078894
Si Si4 0.163281 0.751216 0.940143
Si Si5 0.500000 0.362808 0.616283
Si Si6 0.000000 0.861979 0.760889
Si Si7 0.657898 0.208603 0.232606
Si Si8 0.095660 0.500000 0.797026
O O1 0.807881 0.500000 0.399445
O O2 0.749481 0.715128 0.408698
O O3 0.836773 0.649744 0.324111
O O4 0.914261 0.683103 0.412070
O O5 0.500000 0.000000 0.058495
O O6 0.500000 0.810158 0.000000
O O7 0.150562 0.387842 0.058242
O O8 0.097361 0.500000 0.140995
O O9 0.000000 0.500000 0.057189
O O10 0.083711 0.810168 0.910757
O O11 0.169586 0.798034 0.000000
O O12 0.500000 0.500000 0.608194
O O13 0.500000 0.328493 0.677552
O O14 0.914168 0.810259 0.733556
O O15 0.000000 0.000000 0.751977
O O16 0.750000 0.250000 0.250000
O O17 0.640267 0.115204 0.277161
O O18 0.000000 0.500000 0.773345
#
# Coordination Sequence:
#
# PCOD8292504 Si02
#       8
#    16   8   8  16   8   8  16   8
#     4  11  23  41  64  94 127 159 208 265 319 379
#     4   9  19  36  62  89 116 152 195 249 311 365
#     4  11  23  42  65  91 126 170 224 258 300 376
#     4  12  25  41  64  91 128 171 214 264 315 374
#     4  11  23  40  62  93 131 164 207 262 324 384
#     4  11  25  43  62  92 135 171 209 265 321 380
#     4  12  24  39  64  93 127 167 212 257 319 386
#     4  11  22  39  66  92 123 164 209 264 319 374
#
# _framework density 19.567471999999999
#
# number of rings (size 3 to 8) (size 9 to 14) (size 15 to 20)
#    0.000    0.818    2.727    5.455    1.273    4.364 
#    1.636    0.000    0.000    0.000    0.000    1.909 
#    0.000    0.000    0.000    0.000    0.000    0.000 
#
# Total GULP energy -545743.521278 kJ/mol
# GULP energy per Si atom -12403.261847 kJ/mol
# Density = 1.952294 g / cm^3
# Si number density = 19.567472 Si / 1000 Ang^3
#
#
#
# Elastic Constant Matrix: (Units=GPa)
#
#
# Indices 1 2 3 4 5 6 
#
# 1 168.6210 47.9342 38.3929 0.0000 0.0000 0.0000
# 2 47.9342 94.5819 18.5251 0.0000 0.0000 0.0000
# 3 38.3929 18.5251 91.6585 0.0000 0.0000 0.0000
# 4 0.0000 0.0000 0.0000 114.2442 0.0000 0.0000
# 5 0.0000 0.0000 0.0000 0.0000 20.2453 0.0000
# 6 0.0000 0.0000 0.0000 0.0000 0.0000 483.0473
#
#
#
# Elastic Compliance Matrix: (Units=1/GPa)
#
#
# Indices 1 2 3 4 5 6 
#
# 1 0.007420 -0.003282 -0.002445 0.000000 0.000000 0.000000
# 2 -0.003282 0.012460 -0.001144 0.000000 0.000000 0.000000
# 3 -0.002445 -0.001144 0.012165 0.000000 0.000000 0.000000
# 4 0.000000 0.000000 0.000000 0.008753 0.000000 0.000000
# 5 0.000000 0.000000 0.000000 0.000000 0.049394 0.000000
# 6 0.000000 0.000000 0.000000 0.000000 0.000000 0.002070
#
#
# Mechanical properties :
#
#
# Convention : Reuss Voigt Hill
#
# Bulk Modulus (GPa) = 54.62976 62.72954 58.67965
# Shear Modulus (GPa) = 44.60117 140.17464 92.38790
#
# Velocity S-wave (km/s) = 4.77944 8.47302 6.87877
# Velocity P-wave (km/s) = 7.64438 11.30710 9.65109
#
# Compressibility (1/GPa) = 0.01830504
#
# Stress axis : x y z
#
# Youngs Moduli (GPa) = 134.77150 80.25692 82.20141
#
# Poissons Ratio (x) = 0.26337 0.20096
# Poissons Ratio (y) = 0.44227 0.09402
# Poissons Ratio (z) = 0.32948 0.09179
#
# Static dielectric constant tensor:
#      x y z
#    x 3.301660 0.000000 0.000000 
#    y 0.000000 3.621280 0.000000 
#    z 0.000000 0.000000 3.720780 
# 
# 
# High freq. dielectric constant tensor:
#      x y z
#    x 1.775310 0.000000 0.000000 
#    y 0.000000 1.757820 0.000000 
#    z 0.000000 0.000000 1.779490 
# 
# From -- ./inp_files/59726.got.cif
#   From: 2010.06.25/outbox.cif.g09.slc.cpg/sg71_30_cif.got.tgz:59726.got - 2010.06.28 04:59:45.
