data_PCOD8292823
_publ_section_title
;
Structure prediction by ZEFSAII (Michael W. Deem and Ramdas Pophale) SiO2 
 PCOD8292823
Probable space group: I B A M
;
_chemical_formula_sum "Si O2"
_cell_formula_units_Z 112
_cell_length_a 17.647123
_cell_length_b 18.237595
_cell_length_c 19.583118
_cell_angle_alpha 90.000000
_cell_angle_beta 90.000000
_cell_angle_gamma 90.000000
_cell_volume 6302.651890
_symmetry_space_group_name_H-M "I B A M"
_symmetry_group_IT_number 72
_symmetry_cell_setting 'orthorhombic'
loop_
_space_group_symop_operation_xyz
x,y,z
-x,-y,z
x,-y,1/2-z
-x,y,1/2-z
-x,-y,-z
x,y,-z
-x,y,1/2+z
x,-y,1/2+z
1/2+x,1/2+y,1/2+z
1/2-x,1/2-y,1/2+z
1/2+x,1/2-y,-z
1/2-x,1/2+y,-z
1/2-x,1/2-y,1/2-z
1/2+x,1/2+y,1/2-z
1/2-x,1/2+y,z
1/2+x,1/2-y,z
loop_
_atom_site_type_symbol
_atom_site_label
_atom_site_fract_x
_atom_site_fract_y
_atom_site_fract_z
Si Si1 0.275281 0.390361 0.200005
Si Si2 0.311533 0.250588 0.337564
Si Si3 0.457353 0.172421 0.180164
Si Si4 0.204949 0.527283 0.577827
Si Si5 0.587302 0.147902 0.077053
Si Si6 0.707322 0.886832 0.838293
Si Si7 0.920828 0.821345 0.729253
O O1 0.239601 0.308250 0.203500
O O2 0.260450 0.433373 0.131035
O O3 0.245075 0.425976 0.271083
O O4 0.366377 0.383875 0.199888
O O5 0.350856 0.208702 0.400531
O O6 0.256882 0.316573 0.362287
O O7 0.380522 0.280075 0.292305
O O8 0.500000 0.152872 0.250000
O O9 0.509430 0.147115 0.118053
O O10 0.378552 0.130448 0.180327
O O11 0.441361 0.259323 0.173407
O O12 0.235492 0.534502 0.500000
O O13 0.123314 0.566473 0.584181
O O14 0.203087 0.442293 0.598160
O O15 0.565480 0.166072 0.000000
O O16 0.000000 0.859846 0.750000
#
# Coordination Sequence:
#
# PCOD8292823 Si02
#       7
#    16  16  16  16  16  16  16
#     4  10  18  34  56  84 105 138 181 227 275 321
#     4  10  17  32  56  80 107 134 176 232 271 313
#     4  11  18  32  55  83 112 137 174 222 275 323
#     4  10  23  39  52  72 114 154 183 220 268 317
#     4  10  21  36  51  74 112 152 178 215 273 328
#     4  11  20  33  58  84 104 140 186 228 265 323
#     4  10  16  29  56  86 109 128 165 226 283 311
#
# _framework density 17.770298
#
# number of rings (size 3 to 8) (size 9 to 14) (size 15 to 20)
#    0.000    1.714    5.714    2.143    0.000    1.714 
#    0.000    2.857    0.000    6.857    0.000    4.000 
#    0.000    0.000    0.000    0.000    0.000    0.000 
#
# Total GULP energy -694141.336660 kJ/mol
# GULP energy per Si atom -12395.381012 kJ/mol
# Density = 1.772985 g / cm^3
# Si number density = 17.770298 Si / 1000 Ang^3
#
#
#
# Elastic Constant Matrix: (Units=GPa)
#
#
# Indices 1 2 3 4 5 6 
#
# 1 129.8660 26.1083 39.6592 0.0000 0.0000 0.0000
# 2 26.1083 54.8737 25.3804 0.0000 0.0000 0.0000
# 3 39.6592 25.3804 101.0098 0.0000 0.0000 0.0000
# 4 0.0000 0.0000 0.0000 19.8618 0.0000 0.0000
# 5 0.0000 0.0000 0.0000 0.0000 23.8060 0.0000
# 6 0.0000 0.0000 0.0000 0.0000 0.0000 12.0369
#
#
#
# Elastic Compliance Matrix: (Units=1/GPa)
#
#
# Indices 1 2 3 4 5 6 
#
# 1 0.009181 -0.003056 -0.002837 0.000000 0.000000 0.000000
# 2 -0.003056 0.021637 -0.004237 0.000000 0.000000 0.000000
# 3 -0.002837 -0.004237 0.012078 0.000000 0.000000 0.000000
# 4 0.000000 0.000000 0.000000 0.050348 0.000000 0.000000
# 5 0.000000 0.000000 0.000000 0.000000 0.042006 0.000000
# 6 0.000000 0.000000 0.000000 0.000000 0.000000 0.083078
#
#
# Mechanical properties :
#
#
# Convention : Reuss Voigt Hill
#
# Bulk Modulus (GPa) = 44.17500 52.00504 48.09002
# Shear Modulus (GPa) = 20.31413 24.11438 22.21425
#
# Velocity S-wave (km/s) = 3.38472 3.68775 3.53948
# Velocity P-wave (km/s) = 6.33940 6.88922 6.62002
#
# Compressibility (1/GPa) = 0.02263724
#
# Stress axis : x y z
#
# Youngs Moduli (GPa) = 108.92103 46.21638 82.79237
#
# Poissons Ratio (x) = 0.14124 0.23487
# Poissons Ratio (y) = 0.33287 0.35078
# Poissons Ratio (z) = 0.30899 0.19581
#
# Static dielectric constant tensor:
#      x y z
#    x 3.470240 0.000000 0.000000 
#    y 0.000000 3.241210 0.000000 
#    z 0.000000 0.000000 3.162450 
# 
# 
# High freq. dielectric constant tensor:
#      x y z
#    x 1.693350 0.000000 0.000000 
#    y 0.000000 1.671980 0.000000 
#    z 0.000000 0.000000 1.671640 
# 
# From -- ./inp_files/39182.got.cif
#   From: 2010.03.12/outbox.cif.g09.slc.cpg/sg72_20_cif.got.tgz:39182.got - 2010.04.16 14:54:00.
