data_PCOD8292936
_publ_section_title
;
Structure prediction by ZEFSAII (Michael W. Deem and Ramdas Pophale) SiO2 
 PCOD8292936
Probable space group: I B A M
;
_chemical_formula_sum "Si O2"
_cell_formula_units_Z 112
_cell_length_a 24.220125
_cell_length_b 34.284779
_cell_length_c 9.819883
_cell_angle_alpha 90.000000
_cell_angle_beta 90.000000
_cell_angle_gamma 90.000000
_cell_volume 8154.250481
_symmetry_space_group_name_H-M "I B A M"
_symmetry_group_IT_number 72
_symmetry_cell_setting 'orthorhombic'
loop_
_space_group_symop_operation_xyz
x,y,z
-x,-y,z
x,-y,1/2-z
-x,y,1/2-z
-x,-y,-z
x,y,-z
-x,y,1/2+z
x,-y,1/2+z
1/2+x,1/2+y,1/2+z
1/2-x,1/2-y,1/2+z
1/2+x,1/2-y,-z
1/2-x,1/2+y,-z
1/2-x,1/2-y,1/2-z
1/2+x,1/2+y,1/2-z
1/2-x,1/2+y,z
1/2+x,1/2-y,z
loop_
_atom_site_type_symbol
_atom_site_label
_atom_site_fract_x
_atom_site_fract_y
_atom_site_fract_z
Si Si1 0.548547 0.226862 0.340937
Si Si2 0.169309 0.243210 0.655216
Si Si3 0.260171 0.693184 0.157031
Si Si4 0.198251 0.380984 0.660639
Si Si5 0.828622 0.464415 0.159022
Si Si6 0.547101 0.940509 0.153378
Si Si7 0.416780 0.855684 0.343728
O O1 0.500000 0.246298 0.250000
O O2 0.532121 0.228577 0.500000
O O3 0.605307 0.249736 0.313662
O O4 0.555064 0.182763 0.281532
O O5 0.178245 0.229957 0.500000
O O6 0.204260 0.282388 0.684938
O O7 0.189700 0.208200 0.751255
O O8 0.248720 0.647842 0.197615
O O9 0.278061 0.696590 0.000000
O O10 0.187554 0.381759 0.500000
O O11 0.207091 0.426171 0.704203
O O12 0.142086 0.364376 0.728585
O O13 0.806685 0.500000 0.250000
O O14 0.892870 0.456704 0.192685
O O15 0.820357 0.474292 0.000000
O O16 0.500000 0.958892 0.250000
O O17 0.544954 0.893653 0.169585
O O18 0.532096 0.952508 0.000000
O O19 0.405327 0.844547 0.500000
#
# Coordination Sequence:
#
# PCOD8292936 Si02
#       7
#    16  16  16  16  16  16  16
#     4  10  18  27  39  54  76 105 132 159 193 232
#     4   9  17  27  39  58  82 103 123 156 201 234
#     4   9  15  26  45  61  74  97 129 161 191 232
#     4   8  13  25  44  59  71  94 126 154 189 237
#     4   9  18  30  42  55  71  92 119 152 190 234
#     4   9  17  27  39  52  66  88 119 155 192 231
#     4   8  13  24  39  53  70  93 123 156 193 233
#
# _framework density 13.735169000000001
#
# number of rings (size 3 to 8) (size 9 to 14) (size 15 to 20)
#    0.000    3.143    1.429    2.143    0.000    1.429 
#    0.000    2.143    0.000    1.714    0.000    0.000 
#    0.000    0.000    0.000    0.000    0.000    0.714 
#
# Total GULP energy -693918.077425 kJ/mol
# GULP energy per Si atom -12391.394240 kJ/mol
# Density = 1.370391 g / cm^3
# Si number density = 13.735169 Si / 1000 Ang^3
#
#
#
# Elastic Constant Matrix: (Units=GPa)
#
#
# Indices 1 2 3 4 5 6 
#
# 1 53.6652 34.1741 33.7453 0.0000 0.0000 0.0000
# 2 34.1741 84.0309 40.4131 0.0000 0.0000 0.0000
# 3 33.7453 40.4131 50.4155 0.0000 0.0000 0.0000
# 4 0.0000 0.0000 0.0000 18.8704 0.0000 0.0000
# 5 0.0000 0.0000 0.0000 0.0000 19.5435 0.0000
# 6 0.0000 0.0000 0.0000 0.0000 0.0000 10.6100
#
#
#
# Elastic Compliance Matrix: (Units=1/GPa)
#
#
# Indices 1 2 3 4 5 6 
#
# 1 0.033228 -0.004584 -0.018566 0.000000 0.000000 0.000000
# 2 -0.004584 0.019999 -0.012963 0.000000 0.000000 0.000000
# 3 -0.018566 -0.012963 0.042653 0.000000 0.000000 0.000000
# 4 0.000000 0.000000 0.000000 0.052993 0.000000 0.000000
# 5 0.000000 0.000000 0.000000 0.000000 0.051168 0.000000
# 6 0.000000 0.000000 0.000000 0.000000 0.000000 0.094250
#
#
# Mechanical properties :
#
#
# Convention : Reuss Voigt Hill
#
# Bulk Modulus (GPa) = 42.27645 44.97519 43.62582
# Shear Modulus (GPa) = 13.35462 15.12340 14.23901
#
# Velocity S-wave (km/s) = 3.12155 3.32184 3.22325
# Velocity P-wave (km/s) = 6.62107 6.89409 6.75896
#
# Compressibility (1/GPa) = 0.02365383
#
# Stress axis : x y z
#
# Youngs Moduli (GPa) = 30.09513 50.00277 23.44485
#
# Poissons Ratio (x) = 0.22922 0.43528
# Poissons Ratio (y) = 0.13796 0.30391
# Poissons Ratio (z) = 0.55875 0.64817
#
# Static dielectric constant tensor:
#      x y z
#    x 2.431080 0.000000 0.000000 
#    y 0.000000 2.723740 0.000000 
#    z 0.000000 0.000000 2.537680 
# 
# 
# High freq. dielectric constant tensor:
#      x y z
#    x 1.483520 0.000000 0.000000 
#    y 0.000000 1.509370 0.000000 
#    z 0.000000 0.000000 1.506510 
# 
# From -- ./inp_files/15782.got.cif
#   From: 2010.03.12/outbox.cif.g09.slc.cpg/sg72_8_cif.got.tgz:15782.got - 2010.04.16 14:54:00.
