data_PCOD8292948
_publ_section_title
;
Structure prediction by ZEFSAII (Michael W. Deem and Ramdas Pophale) SiO2 
 PCOD8292948
Probable space group: I B A M
;
_chemical_formula_sum "Si O2"
_cell_formula_units_Z 68
_cell_length_a 21.939653
_cell_length_b 9.201146
_cell_length_c 19.841131
_cell_angle_alpha 90.000000
_cell_angle_beta 90.000000
_cell_angle_gamma 90.000000
_cell_volume 4005.328132
_symmetry_space_group_name_H-M "I B A M"
_symmetry_group_IT_number 72
_symmetry_cell_setting 'orthorhombic'
loop_
_space_group_symop_operation_xyz
x,y,z
-x,-y,z
x,-y,1/2-z
-x,y,1/2-z
-x,-y,-z
x,y,-z
-x,y,1/2+z
x,-y,1/2+z
1/2+x,1/2+y,1/2+z
1/2-x,1/2-y,1/2+z
1/2+x,1/2-y,-z
1/2-x,1/2+y,-z
1/2-x,1/2-y,1/2-z
1/2+x,1/2+y,1/2-z
1/2-x,1/2+y,z
1/2+x,1/2-y,z
loop_
_atom_site_type_symbol
_atom_site_label
_atom_site_fract_x
_atom_site_fract_y
_atom_site_fract_z
Si Si1 0.279343 0.034842 0.360534
Si Si2 0.500000 0.500000 0.250000
Si Si3 0.813231 0.248334 0.076979
Si Si4 0.188752 0.000000 0.250000
Si Si5 0.374858 0.000000 0.750000
Si Si6 0.902794 0.206815 0.806922
O O1 0.249086 0.172218 0.397373
O O2 0.228014 0.958307 0.315038
O O3 0.334688 0.073214 0.309753
O O4 0.302284 0.920410 0.416147
O O5 0.461801 0.603715 0.300455
O O6 0.874588 0.203279 0.117660
O O7 0.825703 0.206512 0.000000
O O8 0.149169 0.144618 0.258271
O O9 0.416528 0.128497 0.781831
#
# Coordination Sequence:
#
# PCOD8292948 Si02
#       6
#    16   4  16   8   8  16
#     4   9  16  26  44  67  96 125 146 172 210 260
#     4  10  20  36  50  64  80 108 152 204 248 264
#     4  10  18  28  42  67  98 128 150 170 206 265
#     4   8  14  27  44  66  92 117 148 180 216 256
#     4   9  16  28  46  72  92 112 146 189 226 254
#     4   9  18  30  47  66  87 113 149 193 229 261
#
# _framework density 16.977385999999999
#
# number of rings (size 3 to 8) (size 9 to 14) (size 15 to 20)
#    0.000    2.824    0.000    2.118    0.000    6.118 
#    0.000    0.588    0.000    0.000    0.000   14.824 
#    0.000    0.000    0.000    0.000    0.000    0.000 
#
# Total GULP energy -421230.776407 kJ/mol
# GULP energy per Si atom -12389.140483 kJ/mol
# Density = 1.693875 g / cm^3
# Si number density = 16.977386 Si / 1000 Ang^3
#
#
#
# Elastic Constant Matrix: (Units=GPa)
#
#
# Indices 1 2 3 4 5 6 
#
# 1 65.0299 33.3593 24.2920 0.0000 0.0000 0.0000
# 2 33.3593 83.1595 36.9904 0.0000 0.0000 0.0000
# 3 24.2920 36.9904 96.7100 0.0000 0.0000 0.0000
# 4 0.0000 0.0000 0.0000 20.6900 0.0000 0.0000
# 5 0.0000 0.0000 0.0000 0.0000 13.3623 0.0000
# 6 0.0000 0.0000 0.0000 0.0000 0.0000 22.1091
#
#
#
# Elastic Compliance Matrix: (Units=1/GPa)
#
#
# Indices 1 2 3 4 5 6 
#
# 1 0.019789 -0.006901 -0.002331 0.000000 0.000000 0.000000
# 2 -0.006901 0.016897 -0.004729 0.000000 0.000000 0.000000
# 3 -0.002331 -0.004729 0.012735 0.000000 0.000000 0.000000
# 4 0.000000 0.000000 0.000000 0.048332 0.000000 0.000000
# 5 0.000000 0.000000 0.000000 0.000000 0.074837 0.000000
# 6 0.000000 0.000000 0.000000 0.000000 0.000000 0.045230
#
#
# Mechanical properties :
#
#
# Convention : Reuss Voigt Hill
#
# Bulk Modulus (GPa) = 46.51806 48.24253 47.38030
# Shear Modulus (GPa) = 19.76990 21.24946 20.50968
#
# Velocity S-wave (km/s) = 3.41616 3.54168 3.47948
# Velocity P-wave (km/s) = 6.55894 6.72325 6.64160
#
# Compressibility (1/GPa) = 0.02149703
#
# Stress axis : x y z
#
# Youngs Moduli (GPa) = 50.53431 59.18110 78.52593
#
# Poissons Ratio (x) = 0.40843 0.18304
# Poissons Ratio (y) = 0.34875 0.37139
# Poissons Ratio (z) = 0.11779 0.27990
#
# Static dielectric constant tensor:
#      x y z
#    x 2.965720 0.000000 0.000000 
#    y 0.000000 3.146930 0.000000 
#    z 0.000000 0.000000 3.012330 
# 
# 
# High freq. dielectric constant tensor:
#      x y z
#    x 1.621650 0.000000 0.000000 
#    y 0.000000 1.661320 0.000000 
#    z 0.000000 0.000000 1.635570 
# 
# From -- ./inp_files/32327.got.cif
#   From: 2010.03.12/outbox.cif.g09.slc.cpg/sg72_17_cif.got.tgz:32327.got - 2010.04.16 14:54:00.
