data_PCOD8292559
_publ_section_title
;
Structure prediction by ZEFSAII (Michael W. Deem and Ramdas Pophale) SiO2 
 PCOD8292559
Probable space group: I M M M
;
_chemical_formula_sum "Si O2"
_cell_formula_units_Z 48
_cell_length_a 8.728142
_cell_length_b 37.469748
_cell_length_c 7.484341
_cell_angle_alpha 90.000000
_cell_angle_beta 90.000000
_cell_angle_gamma 90.000000
_cell_volume 2447.688470
_symmetry_space_group_name_H-M "I M M M"
_symmetry_group_IT_number 71
_symmetry_cell_setting 'orthorhombic'
loop_
_space_group_symop_operation_xyz
x,y,z
-x,-y,z
x,-y,-z
-x,y,-z
-x,-y,-z
x,y,-z
-x,y,z
x,-y,z
1/2+x,1/2+y,1/2+z
1/2-x,1/2-y,1/2+z
1/2+x,1/2-y,1/2-z
1/2-x,1/2+y,1/2-z
1/2-x,1/2-y,1/2-z
1/2+x,1/2+y,1/2-z
1/2-x,1/2+y,1/2+z
1/2+x,1/2-y,1/2+z
loop_
_atom_site_type_symbol
_atom_site_label
_atom_site_fract_x
_atom_site_fract_y
_atom_site_fract_z
Si Si1 0.822170 0.787795 0.205406
Si Si2 0.824091 0.541223 0.705333
Si Si3 0.179798 0.336091 0.000000
Si Si4 0.322785 0.587676 0.000000
O O1 0.750000 0.750000 0.250000
O O2 0.746709 0.818605 0.321869
O O3 0.000000 0.785545 0.252238
O O4 0.793462 0.797789 0.000000
O O5 0.796634 0.551643 0.500000
O O6 0.783418 0.500000 0.737971
O O7 0.000000 0.548416 0.759632
O O8 0.712269 0.564902 0.823835
O O9 0.218317 0.377542 0.000000
O O10 0.000000 0.330122 0.000000
O O11 0.500000 0.598765 0.000000
#
# Coordination Sequence:
#
# PCOD8292559 Si02
#       4
#    16  16   8   8
#     4  11  23  40  65  93 122 155 195 245 301 361
#     4   9  19  38  64  91 120 159 206 251 297 356
#     4  12  26  43  63  88 120 163 208 254 305 359
#     4  12  25  39  58  87 126 164 200 250 308 365
#
# _framework density 19.610337000000001
#
# number of rings (size 3 to 8) (size 9 to 14) (size 15 to 20)
#    0.000    1.333    1.667    5.500    0.000    6.667 
#    0.000    1.667    0.000    0.000    0.000    0.000 
#    0.000    0.000    0.000    0.000    0.000    0.000 
#
# Total GULP energy -297737.130298 kJ/mol
# GULP energy per Si atom -12405.713762 kJ/mol
# Density = 1.956570 g / cm^3
# Si number density = 19.610337 Si / 1000 Ang^3
#
#
#
# Elastic Constant Matrix: (Units=GPa)
#
#
# Indices 1 2 3 4 5 6 
#
# 1 125.0754 37.2662 64.9527 0.1292 0.0018 0.0014
# 2 37.2662 98.8266 58.9737 0.5180 0.0213 0.0186
# 3 64.9527 58.9737 128.4722 0.0060 0.0107 0.0171
# 4 0.1292 0.5180 0.0060 -237.6321 0.0060 0.0643
# 5 0.0018 0.0213 0.0107 0.0060 36.9849 0.0117
# 6 0.0014 0.0186 0.0171 0.0643 0.0117 35.9706
#
#
#
# Elastic Compliance Matrix: (Units=1/GPa)
#
#
# Indices 1 2 3 4 5 6 
#
# 1 0.010933 -0.001135 -0.005007 0.000003 0.000002 0.000003
# 2 -0.001135 0.014054 -0.005877 0.000030 -0.000006 -0.000004
# 3 -0.005007 -0.005877 0.013013 -0.000015 0.000000 -0.000003
# 4 0.000003 0.000030 -0.000015 -0.004208 0.000001 0.000008
# 5 0.000002 -0.000006 0.000000 0.000001 0.027038 -0.000009
# 6 0.000003 -0.000004 -0.000003 0.000008 -0.000009 0.027801
#
#
# Mechanical properties :
#
#
# Convention : Reuss Voigt Hill
#
# Bulk Modulus (GPa) = 71.62332 74.97326 73.29829
# Shear Modulus (GPa) = 42.61746 -20.18988 11.21379
#
# Velocity S-wave (km/s) = 4.66683 -3.21215 2.39389
# Velocity P-wave (km/s) = 8.10195 4.95553 6.71561
#
# Compressibility (1/GPa) = 0.01396193
#
# Stress axis : x y z
#
# Youngs Moduli (GPa) = 91.46315 71.15466 76.84677
#
# Poissons Ratio (x) = 0.08078 0.38474
# Poissons Ratio (y) = 0.10383 0.45165
# Poissons Ratio (z) = 0.45792 0.41820
#
# Static dielectric constant tensor:
#      x y z
#    x 3.623690 -0.000010 0.000140 
#    y -0.000010 3.523090 0.000200 
#    z 0.000140 0.000200 3.141530 
# 
# 
# High freq. dielectric constant tensor:
#      x y z
#    x 1.770030 0.000000 0.000000 
#    y 0.000000 1.762930 0.000000 
#    z 0.000000 0.000000 1.781850 
# 
# From -- ./inp_files/2207.got.cif
#   From: 2010.06.25/outbox.cif.g09.slc.cpg/sg71_2_cif.got.tgz:2207.got - 2010.06.28 04:59:45.
