data_PCOD8292807
_publ_section_title
;
Structure prediction by ZEFSAII (Michael W. Deem and Ramdas Pophale) SiO2 
 PCOD8292807
Probable space group: I M M M
;
_chemical_formula_sum "Si O2"
_cell_formula_units_Z 52
_cell_length_a 21.000000
_cell_length_b 27.000000
_cell_length_c 9.000000
_cell_angle_alpha 90.000000
_cell_angle_beta 90.000000
_cell_angle_gamma 90.000000
_cell_volume 5103.000000
_symmetry_space_group_name_H-M "I M M M"
_symmetry_group_IT_number 71
_symmetry_cell_setting 'orthorhombic'
loop_
_space_group_symop_operation_xyz
x,y,z
-x,-y,z
x,-y,-z
-x,y,-z
-x,-y,-z
x,y,-z
-x,y,z
x,-y,z
1/2+x,1/2+y,1/2+z
1/2-x,1/2-y,1/2+z
1/2+x,1/2-y,1/2-z
1/2-x,1/2+y,1/2-z
1/2-x,1/2-y,1/2-z
1/2+x,1/2+y,1/2-z
1/2-x,1/2+y,1/2+z
1/2+x,1/2-y,1/2+z
loop_
_atom_site_type_symbol
_atom_site_label
_atom_site_fract_x
_atom_site_fract_y
_atom_site_fract_z
Si Si1 0.000000 0.105517 0.174026
Si Si2 0.071709 0.403628 0.671551
Si Si3 0.612751 0.443868 0.832744
Si Si4 0.175235 0.675747 0.325825
Si Si5 0.628165 0.269983 0.321922
Si Si6 0.797650 0.143767 0.328500
Si Si7 0.500000 0.711481 0.178246
Si Si8 0.075792 0.500000 0.832449
O O1 0.938544 0.073221 0.212321
O O2 0.000000 0.154552 0.273385
O O3 0.000000 0.119680 0.000000
O O4 0.073235 0.418012 0.500000
O O5 0.110532 0.353924 0.703519
O O6 0.102621 0.450282 0.756606
O O7 0.000000 0.392984 0.726715
O O8 0.632190 0.500000 0.797767
O O9 0.676695 0.411925 0.818993
O O10 0.584327 0.438546 0.000000
O O11 0.186867 0.686428 0.500000
O O12 0.174763 0.726758 0.234112
O O13 0.231543 0.643161 0.258434
O O14 0.624416 0.271397 0.500000
O O15 0.652950 0.321722 0.259007
O O16 0.559944 0.260035 0.247574
O O17 0.790577 0.161233 0.500000
O O18 0.500000 0.715805 0.000000
O O19 0.000000 0.500000 0.816935
O O20 0.099897 0.500000 0.000000
#
# Coordination Sequence:
#
# PCOD8292807 Si02
#       8
#     8  16  16  16  16  16   8   8
#     4  12  23  37  62  97 132 166 209 263 321 372
#     4   9  19  37  60  85 115 155 199 245 298 362
#     4  10  22  41  65  91 124 170 218 263 315 376
#     4  11  24  41  63  91 124 163 207 255 310 371
#     4  12  25  42  65  94 126 160 206 258 310 369
#     4  11  23  42  65  88 123 168 211 256 308 369
#     4  12  24  41  65  94 128 168 209 256 317 380
#     4   9  17  31  55  85 115 149 187 238 297 352
#
# _framework density 10.190084000000001
#
# number of rings (size 3 to 8) (size 9 to 14) (size 15 to 20)
#    0.000    1.308    1.538    4.615    1.077    4.000 
#    1.385    0.000    0.000    0.000    0.000    0.000 
#    0.000    0.000    0.000    0.000    0.000    0.000 
#
# Total GULP energy -644977.710139 kJ/mol
# GULP energy per Si atom -12403.417503 kJ/mol
# Density = 1.016689 g / cm^3
# Si number density = 10.190084 Si / 1000 Ang^3
#
#
#
# Elastic Constant Matrix: (Units=GPa)
#
#
# Indices 1 2 3 4 5 6 
#
# 1 88.7637 25.7830 40.3517 0.0000 0.0000 0.0000
# 2 25.7830 93.6084 39.9011 0.0000 0.0000 0.0000
# 3 40.3517 39.9011 148.9112 0.0000 0.0000 0.0000
# 4 0.0000 0.0000 0.0000 25.2840 0.0000 0.0000
# 5 0.0000 0.0000 0.0000 0.0000 35.5688 0.0000
# 6 0.0000 0.0000 0.0000 0.0000 0.0000 13.4152
#
#
#
# Elastic Compliance Matrix: (Units=1/GPa)
#
#
# Indices 1 2 3 4 5 6 
#
# 1 0.013311 -0.002403 -0.002963 0.000000 0.000000 0.000000
# 2 -0.002403 0.012494 -0.002697 0.000000 0.000000 0.000000
# 3 -0.002963 -0.002697 0.008241 0.000000 0.000000 0.000000
# 4 0.000000 0.000000 0.000000 0.039551 0.000000 0.000000
# 5 0.000000 0.000000 0.000000 0.000000 0.028115 0.000000
# 6 0.000000 0.000000 0.000000 0.000000 0.000000 0.074542
#
#
# Mechanical properties :
#
#
# Convention : Reuss Voigt Hill
#
# Bulk Modulus (GPa) = 55.80300 60.37279 58.08789
# Shear Modulus (GPa) = 25.20759 29.87009 27.53884
#
# Velocity S-wave (km/s) = 3.52073 3.83253 3.67993
# Velocity P-wave (km/s) = 6.63083 7.01940 6.82788
#
# Compressibility (1/GPa) = 0.01792018
#
# Stress axis : x y z
#
# Youngs Moduli (GPa) = 75.12631 80.03720 121.34626
#
# Poissons Ratio (x) = 0.19235 0.35955
# Poissons Ratio (y) = 0.18055 0.32722
# Poissons Ratio (z) = 0.22260 0.21583
#
# Static dielectric constant tensor:
#      x y z
#    x 3.733630 0.000000 0.000000 
#    y 0.000000 3.658310 0.000000 
#    z 0.000000 0.000000 3.821450 
# 
# 
# High freq. dielectric constant tensor:
#      x y z
#    x 1.784320 0.000000 0.000000 
#    y 0.000000 1.798520 0.000000 
#    z 0.000000 0.000000 1.807940 
# 
# From -- ./inp_files/11178.got.cif
#   From: 2010.06.25/outbox.ucp.g09.slc.cvg/sg71_6_cif.got.tgz:11178.got - 2010.06.28 16:23:14.
