data_PCOD8292809
_publ_section_title
;
Structure prediction by ZEFSAII (Michael W. Deem and Ramdas Pophale) SiO2 
 PCOD8292809
Probable space group: I B A M
;
_chemical_formula_sum "Si O2"
_cell_formula_units_Z 112
_cell_length_a 22.917381
_cell_length_b 18.074919
_cell_length_c 17.485792
_cell_angle_alpha 90.000000
_cell_angle_beta 90.000000
_cell_angle_gamma 90.000000
_cell_volume 7243.136215
_symmetry_space_group_name_H-M "I B A M"
_symmetry_group_IT_number 72
_symmetry_cell_setting 'orthorhombic'
loop_
_space_group_symop_operation_xyz
x,y,z
-x,-y,z
x,-y,1/2-z
-x,y,1/2-z
-x,-y,-z
x,y,-z
-x,y,1/2+z
x,-y,1/2+z
1/2+x,1/2+y,1/2+z
1/2-x,1/2-y,1/2+z
1/2+x,1/2-y,-z
1/2-x,1/2+y,-z
1/2-x,1/2-y,1/2-z
1/2+x,1/2+y,1/2-z
1/2-x,1/2+y,z
1/2+x,1/2-y,z
loop_
_atom_site_type_symbol
_atom_site_label
_atom_site_fract_x
_atom_site_fract_y
_atom_site_fract_z
Si Si1 0.691170 0.754590 0.145426
Si Si2 0.258512 0.934646 0.854128
Si Si3 0.932727 0.918739 0.729360
Si Si4 0.343761 0.687084 0.802246
Si Si5 0.366101 0.623639 0.412348
Si Si6 0.186228 0.299087 0.913509
Si Si7 0.763284 0.403407 0.175600
O O1 0.691363 0.720103 0.230241
O O2 0.639806 0.713462 0.097537
O O3 0.750985 0.736072 0.103039
O O4 0.686146 0.844110 0.150942
O O5 0.193754 0.913836 0.883017
O O6 0.308444 0.886871 0.896892
O O7 0.265023 0.919466 0.765065
O O8 0.271361 0.020858 0.871851
O O9 0.902058 0.855493 0.779352
O O10 0.919877 0.905391 0.639291
O O11 0.000000 0.913039 0.750000
O O12 0.908238 0.000000 0.750000
O O13 0.359815 0.755209 0.859368
O O14 0.300231 0.630020 0.844348
O O15 0.379065 0.602963 0.500000
O O16 0.166316 0.286636 0.000000
#
# Coordination Sequence:
#
# PCOD8292809 Si02
#       7
#    16  16  16  16  16  16  16
#     4   9  15  27  42  61  86 117 152 180 212 260
#     4  10  16  24  41  66  96 122 150 179 215 254
#     4  10  20  35  52  67  83 113 152 191 230 268
#     4  10  16  29  45  61  83 117 155 185 213 267
#     4  10  19  31  47  65  88 119 151 188 226 261
#     4  10  17  27  39  60  90 122 148 178 216 255
#     4  10  15  23  42  66  89 121 153 182 203 261
#
# _framework density 15.462916
#
# number of rings (size 3 to 8) (size 9 to 14) (size 15 to 20)
#    0.000    2.143    5.714    3.429    0.000    0.000 
#    0.000   12.857    0.000    0.000    0.000    0.000 
#    0.000    9.143    0.000    6.429    0.000    0.000 
#
# Total GULP energy -693786.620201 kJ/mol
# GULP energy per Si atom -12389.046789 kJ/mol
# Density = 1.542772 g / cm^3
# Si number density = 15.462916 Si / 1000 Ang^3
#
#
#
# Elastic Constant Matrix: (Units=GPa)
#
#
# Indices 1 2 3 4 5 6 
#
# 1 39.0673 29.4470 25.2911 0.0000 0.0000 0.0000
# 2 29.4470 128.4661 39.7391 0.0000 0.0000 0.0000
# 3 25.2911 39.7391 96.0751 0.0000 0.0000 0.0000
# 4 0.0000 0.0000 0.0000 16.6843 0.0000 0.0000
# 5 0.0000 0.0000 0.0000 0.0000 7.7781 0.0000
# 6 0.0000 0.0000 0.0000 0.0000 0.0000 17.8086
#
#
#
# Elastic Compliance Matrix: (Units=1/GPa)
#
#
# Indices 1 2 3 4 5 6 
#
# 1 0.034256 -0.005805 -0.006616 0.000000 0.000000 0.000000
# 2 -0.005805 0.009910 -0.002571 0.000000 0.000000 0.000000
# 3 -0.006616 -0.002571 0.013214 0.000000 0.000000 0.000000
# 4 0.000000 0.000000 0.000000 0.059937 0.000000 0.000000
# 5 0.000000 0.000000 0.000000 0.000000 0.128566 0.000000
# 6 0.000000 0.000000 0.000000 0.000000 0.000000 0.056153
#
#
# Mechanical properties :
#
#
# Convention : Reuss Voigt Hill
#
# Bulk Modulus (GPa) = 36.50387 50.28476 43.39432
# Shear Modulus (GPa) = 14.65622 19.72962 17.19292
#
# Velocity S-wave (km/s) = 3.08203 3.57589 3.33811
# Velocity P-wave (km/s) = 6.02692 7.04553 6.55604
#
# Compressibility (1/GPa) = 0.02739436
#
# Stress axis : x y z
#
# Youngs Moduli (GPa) = 29.19200 100.90682 75.67961
#
# Poissons Ratio (x) = 0.58581 0.50072
# Poissons Ratio (y) = 0.16947 0.19456
# Poissons Ratio (z) = 0.19315 0.25941
#
# Static dielectric constant tensor:
#      x y z
#    x 2.456760 0.000000 0.000000 
#    y 0.000000 3.595700 0.000000 
#    z 0.000000 0.000000 2.955130 
# 
# 
# High freq. dielectric constant tensor:
#      x y z
#    x 1.522460 0.000000 0.000000 
#    y 0.000000 1.607830 0.000000 
#    z 0.000000 0.000000 1.588840 
# 
# From -- ./inp_files/33514.got.cif
#   From: 2010.03.12/outbox.cif.g09.slc.cpg/sg72_17_cif.got.tgz:33514.got - 2010.04.16 14:54:00.
