data_PCOD8292446
_publ_section_title
;
Structure prediction by ZEFSAII (Michael W. Deem and Ramdas Pophale) SiO2 
 PCOD8292446
Probable space group: I M M M
;
_chemical_formula_sum "Si O2"
_cell_formula_units_Z 120
_cell_length_a 8.801737
_cell_length_b 27.195139
_cell_length_c 27.800335
_cell_angle_alpha 90.000000
_cell_angle_beta 90.000000
_cell_angle_gamma 90.000000
_cell_volume 6654.412207
_symmetry_space_group_name_H-M "I M M M"
_symmetry_group_IT_number 71
_symmetry_cell_setting 'orthorhombic'
loop_
_space_group_symop_operation_xyz
x,y,z
-x,-y,z
x,-y,-z
-x,y,-z
-x,-y,-z
x,y,-z
-x,y,z
x,-y,z
1/2+x,1/2+y,1/2+z
1/2-x,1/2-y,1/2+z
1/2+x,1/2-y,1/2-z
1/2-x,1/2+y,1/2-z
1/2-x,1/2-y,1/2-z
1/2+x,1/2+y,1/2-z
1/2-x,1/2+y,1/2+z
1/2+x,1/2-y,1/2+z
loop_
_atom_site_type_symbol
_atom_site_label
_atom_site_fract_x
_atom_site_fract_y
_atom_site_fract_z
Si Si1 0.320609 0.801203 0.735921
Si Si2 0.679051 0.553616 0.809340
Si Si3 0.179182 0.500000 0.554127
Si Si4 0.676405 0.590825 0.392772
Si Si5 0.319218 0.651316 0.143901
Si Si6 0.177263 0.110034 0.215600
Si Si7 0.825163 0.320305 0.556016
Si Si8 0.319601 0.709555 0.947216
O O1 0.500000 0.797039 0.733761
O O2 0.250000 0.750000 0.750000
O O3 0.257324 0.815161 0.683853
O O4 0.272893 0.840578 0.776294
O O5 0.500000 0.548576 0.812189
O O6 0.753189 0.500000 0.820411
O O7 0.732694 0.594481 0.848327
O O8 0.726363 0.570149 0.755648
O O9 0.245526 0.500000 0.500000
O O10 0.231207 0.548699 0.580983
O O11 0.000000 0.500000 0.552732
O O12 0.500000 0.581633 0.402214
O O13 0.715188 0.587866 0.336328
O O14 0.720937 0.644062 0.412753
O O15 0.500000 0.656552 0.149208
O O16 0.261138 0.670162 0.091951
O O17 0.000000 0.123500 0.220720
O O18 0.805998 0.333194 0.500000
O O19 0.767744 0.264791 0.566433
O O20 0.000000 0.326986 0.571647
O O21 0.500000 0.709507 0.949572
O O22 0.254770 0.694896 0.000000
#
# Coordination Sequence:
#
# PCOD8292446 Si02
#       8
#    16  16   8  16  16  16  16  16
#     4  11  22  35  52  74 106 140 173 210 257 311
#     4   8  14  27  50  73  98 133 169 207 251 305
#     4  11  25  43  59  75 101 141 185 225 270 327
#     4  11  23  36  55  80 103 128 170 225 277 322
#     4   9  17  31  51  77 104 134 178 218 257 309
#     4   9  20  36  52  75 104 134 173 212 259 316
#     4   9  18  33  51  71  97 132 173 211 257 320
#     4   8  15  29  51  77 104 137 174 211 252 307
#
# _framework density 18.033149000000002
#
# number of rings (size 3 to 8) (size 9 to 14) (size 15 to 20)
#    0.000    2.600    0.000    3.800    2.800    3.467 
#    0.000    0.000    0.000    5.200    0.000    2.800 
#    0.000    0.000    0.000    4.800    0.000    5.333 
#
# Total GULP energy -743833.200017 kJ/mol
# GULP energy per Si atom -12397.220000 kJ/mol
# Density = 1.799210 g / cm^3
# Si number density = 18.033149 Si / 1000 Ang^3
#
#
#
# Elastic Constant Matrix: (Units=GPa)
#
#
# Indices 1 2 3 4 5 6 
#
# 1 48.6799 29.5341 32.4639 0.0000 0.0000 0.0000
# 2 29.5341 156.2909 82.3299 0.0000 0.0000 0.0000
# 3 32.4639 82.3299 125.0860 0.0000 0.0000 0.0000
# 4 0.0000 0.0000 0.0000 19.4826 0.0000 0.0000
# 5 0.0000 0.0000 0.0000 0.0000 19.5151 0.0000
# 6 0.0000 0.0000 0.0000 0.0000 0.0000 13.2974
#
#
#
# Elastic Compliance Matrix: (Units=1/GPa)
#
#
# Indices 1 2 3 4 5 6 
#
# 1 0.025252 -0.002020 -0.005224 0.000000 0.000000 0.000000
# 2 -0.002020 0.009956 -0.006028 0.000000 0.000000 0.000000
# 3 -0.005224 -0.006028 0.013318 0.000000 0.000000 0.000000
# 4 0.000000 0.000000 0.000000 0.051328 0.000000 0.000000
# 5 0.000000 0.000000 0.000000 0.000000 0.051242 0.000000
# 6 0.000000 0.000000 0.000000 0.000000 0.000000 0.075203
#
#
# Mechanical properties :
#
#
# Convention : Reuss Voigt Hill
#
# Bulk Modulus (GPa) = 45.49469 68.74584 57.12027
# Shear Modulus (GPa) = 19.21818 22.84094 21.02956
#
# Velocity S-wave (km/s) = 3.26807 3.56281 3.41861
# Velocity P-wave (km/s) = 6.28677 7.42492 6.87942
#
# Compressibility (1/GPa) = 0.02198059
#
# Stress axis : x y z
#
# Youngs Moduli (GPa) = 39.60119 100.44557 75.08512
#
# Poissons Ratio (x) = 0.20288 0.39226
# Poissons Ratio (y) = 0.07999 0.45265
# Poissons Ratio (z) = 0.20689 0.60553
#
# Static dielectric constant tensor:
#      x y z
#    x 3.070280 0.000000 0.000000 
#    y 0.000000 3.456460 0.000000 
#    z 0.000000 0.000000 3.561950 
# 
# 
# High freq. dielectric constant tensor:
#      x y z
#    x 1.670790 0.000000 0.000000 
#    y 0.000000 1.701720 0.000000 
#    z 0.000000 0.000000 1.696280 
# 
# From -- ./inp_files/63839.got.cif
#   From: 2010.06.25/outbox.cif.g09.slc.cpg/sg71_32_cif.got.tgz:63839.got - 2010.06.28 04:59:45.
