data_PCOD8292771
_publ_section_title
;
Structure prediction by ZEFSAII (Michael W. Deem and Ramdas Pophale) SiO2 
 PCOD8292771
Probable space group: I M M M
;
_chemical_formula_sum "Si O2"
_cell_formula_units_Z 72
_cell_length_a 15.502213
_cell_length_b 29.416752
_cell_length_c 9.207118
_cell_angle_alpha 90.000000
_cell_angle_beta 90.000000
_cell_angle_gamma 90.000000
_cell_volume 4198.673733
_symmetry_space_group_name_H-M "I M M M"
_symmetry_group_IT_number 71
_symmetry_cell_setting 'orthorhombic'
loop_
_space_group_symop_operation_xyz
x,y,z
-x,-y,z
x,-y,-z
-x,y,-z
-x,-y,-z
x,y,-z
-x,y,z
x,-y,z
1/2+x,1/2+y,1/2+z
1/2-x,1/2-y,1/2+z
1/2+x,1/2-y,1/2-z
1/2-x,1/2+y,1/2-z
1/2-x,1/2-y,1/2-z
1/2+x,1/2+y,1/2-z
1/2-x,1/2+y,1/2+z
1/2+x,1/2-y,1/2+z
loop_
_atom_site_type_symbol
_atom_site_label
_atom_site_fract_x
_atom_site_fract_y
_atom_site_fract_z
Si Si1 0.669030 0.551088 0.329522
Si Si2 0.597551 0.294572 0.329227
Si Si3 0.500000 0.446345 0.161395
Si Si4 0.597186 0.798522 0.829080
Si Si5 0.251053 0.641149 0.670957
O O1 0.648387 0.552202 0.500000
O O2 0.697151 0.500000 0.281671
O O3 0.584119 0.568957 0.248787
O O4 0.743459 0.587489 0.287215
O O5 0.607249 0.286095 0.500000
O O6 0.500000 0.310295 0.290240
O O7 0.621125 0.247948 0.249875
O O8 0.664418 0.332312 0.270441
O O9 0.500000 0.500000 0.149388
O O10 0.500000 0.424598 0.000000
O O11 0.500000 0.814297 0.791206
O O12 0.662292 0.837336 0.768737
O O13 0.608359 0.790434 0.000000
O O14 0.250597 0.646223 0.500000
#
# Coordination Sequence:
#
# PCOD8292771 Si02
#       5
#    16  16   8  16  16
#     4   9  17  29  46  65  85 114 152 185 210 250
#     4   9  17  28  43  63  87 114 142 176 217 260
#     4   9  17  29  43  61  89 119 143 173 217 261
#     4   9  17  30  46  63  86 115 145 180 221 262
#     4   9  17  28  45  66  87 114 147 181 217 257
#
# _framework density 17.148271999999999
#
# number of rings (size 3 to 8) (size 9 to 14) (size 15 to 20)
#    0.000    3.000    0.000    1.000    1.556    1.333 
#    0.000    2.222    0.000    0.667    0.000    4.667 
#    0.000    0.000    0.000   11.111    0.000   11.556 
#
# Total GULP energy -446144.578693 kJ/mol
# GULP energy per Si atom -12392.904964 kJ/mol
# Density = 1.710924 g / cm^3
# Si number density = 17.148272 Si / 1000 Ang^3
#
#
#
# Elastic Constant Matrix: (Units=GPa)
#
#
# Indices 1 2 3 4 5 6 
#
# 1 105.5534 76.6443 15.0080 0.0011 -0.0001 -0.0002
# 2 76.6443 123.6686 20.8441 0.0067 0.0012 -0.0004
# 3 15.0080 20.8441 27.6530 0.0173 -0.0003 -0.0023
# 4 0.0011 0.0067 0.0173 17.3945 0.0011 -0.0010
# 5 -0.0001 0.0012 -0.0003 0.0011 12.7371 -0.0005
# 6 -0.0002 -0.0004 -0.0023 -0.0010 -0.0005 27.7057
#
#
#
# Elastic Compliance Matrix: (Units=1/GPa)
#
#
# Indices 1 2 3 4 5 6 
#
# 1 0.017280 -0.010457 -0.001496 0.000004 0.000001 0.000000
# 2 -0.010457 0.015591 -0.006077 0.000001 -0.000002 0.000000
# 3 -0.001496 -0.006077 0.041555 -0.000039 0.000002 0.000003
# 4 0.000004 0.000001 -0.000039 0.057489 -0.000005 0.000002
# 5 0.000001 -0.000002 0.000002 -0.000005 0.078511 0.000001
# 6 0.000000 0.000000 0.000003 0.000002 0.000001 0.036094
#
#
# Mechanical properties :
#
#
# Convention : Reuss Voigt Hill
#
# Bulk Modulus (GPa) = 26.06471 53.54087 39.80279
# Shear Modulus (GPa) = 16.92806 21.19270 19.06038
#
# Velocity S-wave (km/s) = 3.14532 3.51928 3.33754
# Velocity P-wave (km/s) = 5.33135 6.91403 6.17362
#
# Compressibility (1/GPa) = 0.03836605
#
# Stress axis : x y z
#
# Youngs Moduli (GPa) = 57.87181 64.13893 24.06455
#
# Poissons Ratio (x) = 0.67070 0.03600
# Poissons Ratio (y) = 0.60516 0.14624
# Poissons Ratio (z) = 0.08657 0.38977
#
# Static dielectric constant tensor:
#      x y z
#    x 3.407380 0.000000 0.000010 
#    y 0.000000 3.323380 -0.000010 
#    z 0.000010 -0.000010 3.066090 
# 
# 
# High freq. dielectric constant tensor:
#      x y z
#    x 1.649490 0.000000 0.000000 
#    y 0.000000 1.656000 0.000000 
#    z 0.000000 0.000000 1.636810 
# 
# From -- ./inp_files/6422.got.cif
#   From: 2010.06.25/outbox.cif.g09.slc.cpg/sg71_4_cif.got.tgz:6422.got - 2010.06.28 04:59:45.
