data_PCOD8292105
_publ_section_title
;
Structure prediction by ZEFSAII (Michael W. Deem and Ramdas Pophale) SiO2 
 PCOD8292105
Probable space group: I M M M
;
_chemical_formula_sum "Si O2"
_cell_formula_units_Z 96
_cell_length_a 25.194957
_cell_length_b 23.428819
_cell_length_c 8.625263
_cell_angle_alpha 90.000000
_cell_angle_beta 90.000000
_cell_angle_gamma 90.000000
_cell_volume 5091.389998
_symmetry_space_group_name_H-M "I M M M"
_symmetry_group_IT_number 71
_symmetry_cell_setting 'orthorhombic'
loop_
_space_group_symop_operation_xyz
x,y,z
-x,-y,z
x,-y,-z
-x,y,-z
-x,-y,-z
x,y,-z
-x,y,z
x,-y,z
1/2+x,1/2+y,1/2+z
1/2-x,1/2-y,1/2+z
1/2+x,1/2-y,1/2-z
1/2-x,1/2+y,1/2-z
1/2-x,1/2-y,1/2-z
1/2+x,1/2+y,1/2-z
1/2-x,1/2+y,1/2+z
1/2+x,1/2-y,1/2+z
loop_
_atom_site_type_symbol
_atom_site_label
_atom_site_fract_x
_atom_site_fract_y
_atom_site_fract_z
Si Si1 0.249550 0.187429 0.818722
Si Si2 0.846717 0.618696 0.183891
Si Si3 0.293375 0.500000 0.178380
Si Si4 0.678842 0.000000 0.181786
Si Si5 0.342394 0.619739 0.820993
Si Si6 0.941377 0.303111 0.815742
Si Si7 0.939109 0.174098 0.180118
O O1 0.250000 0.250000 0.750000
O O2 0.292641 0.148003 0.736407
O O3 0.192111 0.160931 0.787395
O O4 0.261400 0.189703 0.000000
O O5 0.850218 0.554953 0.248069
O O6 0.897067 0.653877 0.250625
O O7 0.847452 0.616852 0.000000
O O8 0.241232 0.500000 0.282949
O O9 0.329311 0.445647 0.217818
O O10 0.274392 0.500000 0.000000
O O11 0.670598 0.000000 0.000000
O O12 0.403709 0.630934 0.780627
O O13 0.330771 0.633646 0.000000
O O14 0.927923 0.238787 0.762445
O O15 0.000000 0.320944 0.753964
O O16 0.941775 0.304637 0.000000
O O17 0.000000 0.157634 0.210455
O O18 0.924730 0.167710 0.000000
#
# Coordination Sequence:
#
# PCOD8292105 Si02
#       7
#    16  16   8   8  16  16  16
#     4  12  24  37  55  83 117 149 186 232 288 350
#     4  11  21  36  59  85 114 147 188 240 290 338
#     4  10  22  40  59  78 109 151 196 240 289 342
#     4  12  24  38  57  80 111 155 196 234 283 348
#     4  11  22  37  58  83 112 148 192 240 290 344
#     4   8  16  33  58  85 111 144 186 230 281 339
#     4   9  18  35  59  86 117 152 189 233 287 347
#
# _framework density 18.855360999999998
#
# number of rings (size 3 to 8) (size 9 to 14) (size 15 to 20)
#    0.000    1.667    1.667    5.250    0.000    2.333 
#    0.000    1.667    0.000    9.000    0.000    0.000 
#    0.000    0.000    0.000    0.000    0.000    0.000 
#
# Total GULP energy -595344.534282 kJ/mol
# GULP energy per Si atom -12403.011131 kJ/mol
# Density = 1.881245 g / cm^3
# Si number density = 18.855361 Si / 1000 Ang^3
#
#
#
# Elastic Constant Matrix: (Units=GPa)
#
#
# Indices 1 2 3 4 5 6 
#
# 1 103.5836 44.4877 23.6106 0.0000 0.0000 0.0000
# 2 44.4877 112.6469 32.2788 0.0000 0.0000 0.0000
# 3 23.6106 32.2788 73.5209 0.0000 0.0000 0.0000
# 4 0.0000 0.0000 0.0000 28.9470 0.0000 0.0000
# 5 0.0000 0.0000 0.0000 0.0000 25.5479 0.0000
# 6 0.0000 0.0000 0.0000 0.0000 0.0000 5.9864
#
#
#
# Elastic Compliance Matrix: (Units=1/GPa)
#
#
# Indices 1 2 3 4 5 6 
#
# 1 0.011880 -0.004116 -0.002008 0.000000 0.000000 0.000000
# 2 -0.004116 0.011581 -0.003763 0.000000 0.000000 0.000000
# 3 -0.002008 -0.003763 0.015898 0.000000 0.000000 0.000000
# 4 0.000000 0.000000 0.000000 0.034546 0.000000 0.000000
# 5 0.000000 0.000000 0.000000 0.000000 0.039142 0.000000
# 6 0.000000 0.000000 0.000000 0.000000 0.000000 0.167044
#
#
# Mechanical properties :
#
#
# Convention : Reuss Voigt Hill
#
# Bulk Modulus (GPa) = 51.05818 54.50062 52.77940
# Shear Modulus (GPa) = 16.31890 24.72120 20.52005
#
# Velocity S-wave (km/s) = 2.94509 3.62484 3.30250
# Velocity P-wave (km/s) = 6.22113 6.81811 6.52645
#
# Compressibility (1/GPa) = 0.01958550
#
# Stress axis : x y z
#
# Youngs Moduli (GPa) = 84.17809 86.34729 62.89955
#
# Poissons Ratio (x) = 0.35543 0.12629
# Poissons Ratio (y) = 0.34650 0.23667
# Poissons Ratio (z) = 0.16901 0.32490
#
# Static dielectric constant tensor:
#      x y z
#    x 3.617340 0.000000 0.000000 
#    y 0.000000 6.419580 0.000000 
#    z 0.000000 0.000000 3.312890 
# 
# 
# High freq. dielectric constant tensor:
#      x y z
#    x 1.733970 0.000000 0.000000 
#    y 0.000000 1.735370 0.000000 
#    z 0.000000 0.000000 1.722700 
# 
# From -- ./inp_files/12900.got.cif
#   From: 2010.06.25/outbox.cif.g09.slc.cpg/sg71_7_cif.got.tgz:12900.got - 2010.06.28 04:59:45.
