data_PCOD8292403
_publ_section_title
;
Structure prediction by ZEFSAII (Michael W. Deem and Ramdas Pophale) SiO2 
 PCOD8292403
Probable space group: I M M M
;
_chemical_formula_sum "Si O2"
_cell_formula_units_Z 96
_cell_length_a 29.297332
_cell_length_b 8.814018
_cell_length_c 18.912883
_cell_angle_alpha 90.000000
_cell_angle_beta 90.000000
_cell_angle_gamma 90.000000
_cell_volume 4883.821040
_symmetry_space_group_name_H-M "I M M M"
_symmetry_group_IT_number 71
_symmetry_cell_setting 'orthorhombic'
loop_
_space_group_symop_operation_xyz
x,y,z
-x,-y,z
x,-y,-z
-x,y,-z
-x,-y,-z
x,y,-z
-x,y,z
x,-y,z
1/2+x,1/2+y,1/2+z
1/2-x,1/2-y,1/2+z
1/2+x,1/2-y,1/2-z
1/2-x,1/2+y,1/2-z
1/2-x,1/2-y,1/2-z
1/2+x,1/2+y,1/2-z
1/2-x,1/2+y,1/2+z
1/2+x,1/2-y,1/2+z
loop_
_atom_site_type_symbol
_atom_site_label
_atom_site_fract_x
_atom_site_fract_y
_atom_site_fract_z
Si Si1 0.448740 0.819743 0.579659
Si Si2 0.322312 0.826670 0.920943
Si Si3 0.069933 0.669154 0.421660
Si Si4 0.449892 0.668676 0.791026
Si Si5 0.618847 0.823690 0.699345
Si Si6 0.296666 0.320774 0.775581
O O1 0.437809 0.765633 0.500000
O O2 0.500000 0.761857 0.601284
O O3 0.407693 0.757520 0.629726
O O4 0.448743 0.000000 0.584700
O O5 0.376087 0.811988 0.918969
O O6 0.303079 0.723785 0.857704
O O7 0.307037 0.000000 0.907091
O O8 0.304941 0.775740 0.000000
O O9 0.051588 0.697862 0.500000
O O10 0.056173 0.500000 0.396739
O O11 0.045969 0.795931 0.373922
O O12 0.500000 0.677544 0.756233
O O13 0.429226 0.500000 0.779163
O O14 0.417430 0.799635 0.761559
O O15 0.664553 0.735462 0.720481
O O16 0.631078 0.000000 0.691435
O O17 0.294551 0.500000 0.770488
O O18 0.250000 0.250000 0.750000
#
# Coordination Sequence:
#
# PCOD8292403 Si02
#       6
#    16  16  16  16  16  16
#     4   8  15  30  55  88 121 152 190 236 286 344
#     4   9  18  36  62  89 116 147 186 235 290 347
#     4   9  18  33  54  78 106 144 188 232 279 331
#     4  11  23  35  49  76 114 153 192 234 279 331
#     4  11  21  36  59  85 114 149 190 238 294 352
#     4  12  25  41  62  88 118 153 195 244 299 355
#
# _framework density 19.656739999999999
#
# number of rings (size 3 to 8) (size 9 to 14) (size 15 to 20)
#    0.000    2.000    1.667    4.500    0.000    3.000 
#    0.000    4.167    0.000    5.000    0.000    5.833 
#    0.000    0.000    0.000    0.000    0.000    0.000 
#
# Total GULP energy -594754.703733 kJ/mol
# GULP energy per Si atom -12390.722994 kJ/mol
# Density = 1.961200 g / cm^3
# Si number density = 19.656740 Si / 1000 Ang^3
#
#
#
# Elastic Constant Matrix: (Units=GPa)
#
#
# Indices 1 2 3 4 5 6 
#
# 1 117.1869 45.7597 63.7573 0.0000 0.0000 0.0000
# 2 45.7597 87.8529 42.7916 0.0000 0.0000 0.0000
# 3 63.7573 42.7916 127.2972 0.0000 0.0000 0.0000
# 4 0.0000 0.0000 0.0000 21.3016 0.0000 0.0000
# 5 0.0000 0.0000 0.0000 0.0000 7.0621 0.0000
# 6 0.0000 0.0000 0.0000 0.0000 0.0000 22.9383
#
#
#
# Elastic Compliance Matrix: (Units=1/GPa)
#
#
# Indices 1 2 3 4 5 6 
#
# 1 0.012954 -0.004289 -0.005046 0.000000 0.000000 0.000000
# 2 -0.004289 0.015032 -0.002905 0.000000 0.000000 0.000000
# 3 -0.005046 -0.002905 0.011359 0.000000 0.000000 0.000000
# 4 0.000000 0.000000 0.000000 0.046945 0.000000 0.000000
# 5 0.000000 0.000000 0.000000 0.000000 0.141600 0.000000
# 6 0.000000 0.000000 0.000000 0.000000 0.000000 0.043595
#
#
# Mechanical properties :
#
#
# Convention : Reuss Voigt Hill
#
# Bulk Modulus (GPa) = 67.27345 70.77269 69.02307
# Shear Modulus (GPa) = 16.61573 22.26230 19.43902
#
# Velocity S-wave (km/s) = 2.91055 3.36899 3.14813
# Velocity P-wave (km/s) = 6.75229 7.15653 6.95735
#
# Compressibility (1/GPa) = 0.01486471
#
# Stress axis : x y z
#
# Youngs Moduli (GPa) = 77.19844 66.52645 88.03318
#
# Poissons Ratio (x) = 0.28535 0.44422
# Poissons Ratio (y) = 0.33113 0.25571
# Poissons Ratio (z) = 0.38954 0.19324
#
# Static dielectric constant tensor:
#      x y z
#    x 3.600890 0.000000 0.000000 
#    y 0.000000 3.401860 0.000000 
#    z 0.000000 0.000000 4.553690 
# 
# 
# High freq. dielectric constant tensor:
#      x y z
#    x 1.751400 0.000000 0.000000 
#    y 0.000000 1.746320 0.000000 
#    z 0.000000 0.000000 1.772820 
# 
# From -- ./inp_files/56153.got.cif
#   From: 2010.06.25/outbox.cif.g09.slc.cpg/sg71_29_cif.got.tgz:56153.got - 2010.06.28 04:59:45.
