data_PCOD8292399
_publ_section_title
;
Structure prediction by ZEFSAII (Michael W. Deem and Ramdas Pophale) SiO2 
 PCOD8292399
Probable space group: I M M M
;
_chemical_formula_sum "Si O2"
_cell_formula_units_Z 88
_cell_length_a 19.213564
_cell_length_b 8.835877
_cell_length_c 27.274571
_cell_angle_alpha 90.000000
_cell_angle_beta 90.000000
_cell_angle_gamma 90.000000
_cell_volume 4630.368141
_symmetry_space_group_name_H-M "I M M M"
_symmetry_group_IT_number 71
_symmetry_cell_setting 'orthorhombic'
loop_
_space_group_symop_operation_xyz
x,y,z
-x,-y,z
x,-y,-z
-x,y,-z
-x,-y,-z
x,y,-z
-x,y,z
x,-y,z
1/2+x,1/2+y,1/2+z
1/2-x,1/2-y,1/2+z
1/2+x,1/2-y,1/2-z
1/2-x,1/2+y,1/2-z
1/2-x,1/2-y,1/2-z
1/2+x,1/2+y,1/2-z
1/2-x,1/2+y,1/2+z
1/2+x,1/2-y,1/2+z
loop_
_atom_site_type_symbol
_atom_site_label
_atom_site_fract_x
_atom_site_fract_y
_atom_site_fract_z
Si Si1 0.077495 0.179661 0.807945
Si Si2 0.843432 0.179773 0.903230
Si Si3 0.921054 0.827960 0.442533
Si Si4 0.810179 0.676915 0.377790
Si Si5 0.920391 0.819424 0.000000
Si Si6 0.317214 0.678541 0.773893
O O1 0.116683 0.245172 0.855743
O O2 0.116831 0.229499 0.758597
O O3 0.000000 0.248221 0.806102
O O4 0.074882 0.000000 0.811958
O O5 0.763279 0.233326 0.900208
O O6 0.847465 0.000000 0.903993
O O7 0.880088 0.244282 0.952212
O O8 0.913495 0.802469 0.500000
O O9 0.870269 0.710314 0.416598
O O10 0.000000 0.794220 0.425826
O O11 0.900994 0.000000 0.428456
O O12 0.806853 0.500000 0.365904
O O13 0.828997 0.764502 0.328505
O O14 0.000000 0.760119 0.000000
O O15 0.919927 0.000000 0.000000
O O16 0.308060 0.500000 0.773711
O O17 0.250000 0.750000 0.750000
#
# Coordination Sequence:
#
# PCOD8292399 Si02
#       6
#    16  16  16  16   8  16
#     4   9  17  31  52  76 103 139 183 227 272 326
#     4   9  17  29  46  75 111 142 176 219 270 326
#     4   9  20  40  62  83 111 149 192 234 278 336
#     4  11  22  35  55  85 117 148 183 230 286 342
#     4   9  16  26  44  72 108 145 176 216 269 319
#     4  11  21  36  56  80 110 148 191 236 285 334
#
# _framework density 19.004968000000002
#
# number of rings (size 3 to 8) (size 9 to 14) (size 15 to 20)
#    0.000    2.273    1.818    2.182    1.273    3.636 
#    0.000    2.727    0.000    1.636    0.000    0.000 
#    0.000    2.909    0.000    0.000    0.000    0.000 
#
# Total GULP energy -545612.947807 kJ/mol
# GULP energy per Si atom -12400.294268 kJ/mol
# Density = 1.896171 g / cm^3
# Si number density = 19.004968 Si / 1000 Ang^3
#
#
#
# Elastic Constant Matrix: (Units=GPa)
#
#
# Indices 1 2 3 4 5 6 
#
# 1 163.0909 30.4148 82.9046 0.0000 0.0000 0.0000
# 2 30.4148 37.7044 26.8343 0.0000 0.0000 0.0000
# 3 82.9046 26.8343 131.9365 0.0000 0.0000 0.0000
# 4 0.0000 0.0000 0.0000 26.6066 0.0000 0.0000
# 5 0.0000 0.0000 0.0000 0.0000 40.1052 0.0000
# 6 0.0000 0.0000 0.0000 0.0000 0.0000 23.8197
#
#
#
# Elastic Compliance Matrix: (Units=1/GPa)
#
#
# Indices 1 2 3 4 5 6 
#
# 1 0.009497 -0.003991 -0.005156 0.000000 0.000000 0.000000
# 2 -0.003991 0.032689 -0.004140 0.000000 0.000000 0.000000
# 3 -0.005156 -0.004140 0.011661 0.000000 0.000000 0.000000
# 4 0.000000 0.000000 0.000000 0.037585 0.000000 0.000000
# 5 0.000000 0.000000 0.000000 0.000000 0.024934 0.000000
# 6 0.000000 0.000000 0.000000 0.000000 0.000000 0.041982
#
#
# Mechanical properties :
#
#
# Convention : Reuss Voigt Hill
#
# Bulk Modulus (GPa) = 36.66824 68.11548 52.39186
# Shear Modulus (GPa) = 25.77149 30.94482 28.35815
#
# Velocity S-wave (km/s) = 3.68644 4.03953 3.86702
# Velocity P-wave (km/s) = 6.12011 7.59446 6.89679
#
# Compressibility (1/GPa) = 0.02727156
#
# Stress axis : x y z
#
# Youngs Moduli (GPa) = 105.30008 30.59176 85.75494
#
# Poissons Ratio (x) = 0.12210 0.44212
# Poissons Ratio (y) = 0.42029 0.35506
# Poissons Ratio (z) = 0.54289 0.12666
#
# Static dielectric constant tensor:
#      x y z
#    x 3.554850 0.000000 0.000000 
#    y 0.000000 3.058160 0.000000 
#    z 0.000000 0.000000 4.272940 
# 
# 
# High freq. dielectric constant tensor:
#      x y z
#    x 1.752240 0.000000 0.000000 
#    y 0.000000 1.691940 0.000000 
#    z 0.000000 0.000000 1.750130 
# 
# From -- ./inp_files/10441.got.cif
#   From: 2010.06.25/outbox.cif.g09.slc.cpg/sg71_6_cif.got.tgz:10441.got - 2010.06.28 04:59:45.
