data_PCOD8292165
_publ_section_title
;
Structure prediction by ZEFSAII (Michael W. Deem and Ramdas Pophale) SiO2 
 PCOD8292165
Probable space group: I M M M
;
_chemical_formula_sum "Si O2"
_cell_formula_units_Z 64
_cell_length_a 16.095789
_cell_length_b 12.007922
_cell_length_c 16.575281
_cell_angle_alpha 90.000000
_cell_angle_beta 90.000000
_cell_angle_gamma 90.000000
_cell_volume 3203.620235
_symmetry_space_group_name_H-M "I M M M"
_symmetry_group_IT_number 71
_symmetry_cell_setting 'orthorhombic'
loop_
_space_group_symop_operation_xyz
x,y,z
-x,-y,z
x,-y,-z
-x,y,-z
-x,-y,-z
x,y,-z
-x,y,z
x,-y,z
1/2+x,1/2+y,1/2+z
1/2-x,1/2-y,1/2+z
1/2+x,1/2-y,1/2-z
1/2-x,1/2+y,1/2-z
1/2-x,1/2-y,1/2-z
1/2+x,1/2+y,1/2-z
1/2-x,1/2+y,1/2+z
1/2+x,1/2-y,1/2+z
loop_
_atom_site_type_symbol
_atom_site_label
_atom_site_fract_x
_atom_site_fract_y
_atom_site_fract_z
Si Si1 0.134222 0.500000 0.909662
Si Si2 0.331246 0.262222 0.851843
Si Si3 0.000000 0.868596 0.906896
Si Si4 0.168810 0.000000 0.590340
Si Si5 0.361799 0.774650 0.670943
Si Si6 0.097814 0.627878 0.500000
O O1 0.232698 0.500000 0.913039
O O2 0.102562 0.391009 0.862800
O O3 0.096973 0.500000 0.000000
O O4 0.361797 0.389698 0.863470
O O5 0.367346 0.219803 0.767460
O O6 0.232015 0.252420 0.856867
O O7 0.366505 0.184491 0.920743
O O8 0.917436 0.824179 0.863642
O O9 0.000000 0.000000 0.897833
O O10 0.000000 0.831260 0.000000
O O11 0.131742 0.000000 0.500000
O O12 0.125884 0.500000 0.500000
O O13 0.000000 0.641281 0.500000
#
# Coordination Sequence:
#
# PCOD8292165 Si02
#       6
#     8  16   8   8  16   8
#     4   9  18  35  64  88 118 155 203 267 309 364
#     4  10  22  41  66  92 123 169 210 262 319 382
#     4  11  26  43  61  92 135 171 208 263 315 379
#     4   9  16  34  61  92 118 150 208 259 301 376
#     4  10  23  40  64  94 127 161 216 259 317 379
#     4  11  26  43  63  90 130 168 218 267 318 372
#
# _framework density 19.977399999999999
#
# number of rings (size 3 to 8) (size 9 to 14) (size 15 to 20)
#    0.000    2.000    1.250    0.750    8.750    1.500 
#    0.000    2.500    0.000    0.000    0.000    0.000 
#    0.000    0.000    0.000    0.000    0.000    0.000 
#
# Total GULP energy -396895.945849 kJ/mol
# GULP energy per Si atom -12402.998308 kJ/mol
# Density = 1.993193 g / cm^3
# Si number density = 19.977400 Si / 1000 Ang^3
#
#
#
# Elastic Constant Matrix: (Units=GPa)
#
#
# Indices 1 2 3 4 5 6 
#
# 1 62.3504 51.6046 53.2845 0.0000 0.0000 0.0000
# 2 51.6046 162.1124 97.3989 0.0000 0.0000 0.0000
# 3 53.2845 97.3989 170.8868 0.0000 0.0000 0.0000
# 4 0.0000 0.0000 0.0000 41.6864 0.0000 0.0000
# 5 0.0000 0.0000 0.0000 0.0000 3.7723 0.0000
# 6 0.0000 0.0000 0.0000 0.0000 0.0000 26.7859
#
#
#
# Elastic Compliance Matrix: (Units=1/GPa)
#
#
# Indices 1 2 3 4 5 6 
#
# 1 0.024093 -0.004799 -0.004777 0.000000 0.000000 0.000000
# 2 -0.004799 0.010337 -0.004395 0.000000 0.000000 0.000000
# 3 -0.004777 -0.004395 0.009846 0.000000 0.000000 0.000000
# 4 0.000000 0.000000 0.000000 0.023989 0.000000 0.000000
# 5 0.000000 0.000000 0.000000 0.000000 0.265089 0.000000
# 6 0.000000 0.000000 0.000000 0.000000 0.000000 0.037333
#
#
# Mechanical properties :
#
#
# Convention : Reuss Voigt Hill
#
# Bulk Modulus (GPa) = 61.22453 88.88061 75.05257
# Shear Modulus (GPa) = 12.37393 27.31970 19.84682
#
# Velocity S-wave (km/s) = 2.49147 3.70203 3.15535
# Velocity P-wave (km/s) = 6.24420 7.92846 7.13619
#
# Compressibility (1/GPa) = 0.01633332
#
# Stress axis : x y z
#
# Youngs Moduli (GPa) = 41.50575 96.73990 101.55929
#
# Poissons Ratio (x) = 0.46429 0.48516
# Poissons Ratio (y) = 0.19920 0.44637
# Poissons Ratio (z) = 0.19828 0.42519
#
# Static dielectric constant tensor:
#      x y z
#    x 3.399780 0.000000 0.000000 
#    y 0.000000 3.846000 0.000000 
#    z 0.000000 0.000000 3.887690 
# 
# 
# High freq. dielectric constant tensor:
#      x y z
#    x 1.764380 0.000000 0.000000 
#    y 0.000000 1.790380 0.000000 
#    z 0.000000 0.000000 1.794050 
# 
# From -- ./inp_files/35846.got.cif
#   From: 2010.06.25/outbox.cif.g09.slc.cpg/sg71_18_cif.got.tgz:35846.got - 2010.06.28 04:59:45.
