data_PCOD8292240
_publ_section_title
;
Structure prediction by ZEFSAII (Michael W. Deem and Ramdas Pophale) SiO2 
 PCOD8292240
Probable space group: I M M M
;
_chemical_formula_sum "Si O2"
_cell_formula_units_Z 120
_cell_length_a 22.312023
_cell_length_b 25.463908
_cell_length_c 12.838600
_cell_angle_alpha 90.000000
_cell_angle_beta 90.000000
_cell_angle_gamma 90.000000
_cell_volume 7294.267293
_symmetry_space_group_name_H-M "I M M M"
_symmetry_group_IT_number 71
_symmetry_cell_setting 'orthorhombic'
loop_
_space_group_symop_operation_xyz
x,y,z
-x,-y,z
x,-y,-z
-x,y,-z
-x,-y,-z
x,y,-z
-x,y,z
x,-y,z
1/2+x,1/2+y,1/2+z
1/2-x,1/2-y,1/2+z
1/2+x,1/2-y,1/2-z
1/2-x,1/2+y,1/2-z
1/2-x,1/2-y,1/2-z
1/2+x,1/2+y,1/2-z
1/2-x,1/2+y,1/2+z
1/2+x,1/2-y,1/2+z
loop_
_atom_site_type_symbol
_atom_site_label
_atom_site_fract_x
_atom_site_fract_y
_atom_site_fract_z
Si Si1 0.066585 0.500000 0.376401
Si Si2 0.257436 0.154362 0.879524
Si Si3 0.883746 0.608022 0.621006
Si Si4 0.819778 0.241081 0.382708
Si Si5 0.069477 0.219250 0.116304
Si Si6 0.932562 0.291209 0.699697
Si Si7 0.647282 0.644247 0.749932
Si Si8 0.069345 0.938895 0.378120
O O1 0.063807 0.500000 0.500000
O O2 0.102209 0.550469 0.336278
O O3 0.000000 0.500000 0.329107
O O4 0.313755 0.116844 0.861717
O O5 0.274138 0.213792 0.838976
O O6 0.202733 0.125485 0.820924
O O7 0.240180 0.158281 0.000000
O O8 0.901849 0.615691 0.500000
O O9 0.923996 0.646499 0.691783
O O10 0.801833 0.228221 0.500000
O O11 0.887463 0.263857 0.381053
O O12 0.819334 0.186523 0.322577
O O13 0.081892 0.272315 0.182115
O O14 0.098559 0.170163 0.174805
O O15 0.000000 0.206172 0.108816
O O16 0.096574 0.226571 0.000000
O O17 0.000000 0.274708 0.669013
O O18 0.615382 0.597143 0.812610
O O19 0.080639 0.928046 0.500000
O O20 0.000000 0.925265 0.350593
O O21 0.082069 0.000000 0.351929
#
# Coordination Sequence:
#
# PCOD8292240 Si02
#       8
#     8  16  16  16  16  16  16  16
#     4   9  16  26  44  68  91 119 152 185 229 283
#     4   9  18  31  44  62  94 130 158 189 232 276
#     4   9  17  29  43  64  95 124 151 191 238 280
#     4   9  18  29  42  66  99 125 150 192 239 284
#     4   9  18  30  43  64  93 120 150 193 237 274
#     4   9  16  26  43  65  90 122 156 188 231 289
#     4  11  18  29  50  72  90 120 167 194 225 280
#     4   9  19  36  55  75 100 125 151 193 248 296
#
# _framework density 16.451274999999999
#
# number of rings (size 3 to 8) (size 9 to 14) (size 15 to 20)
#    0.000    2.733    0.000    3.600    0.000    2.133 
#    1.200    0.000    0.000    4.400    0.000    5.133 
#    0.000    2.667    0.000    0.000    0.000    0.000 
#
# Total GULP energy -743535.934921 kJ/mol
# GULP energy per Si atom -12392.265582 kJ/mol
# Density = 1.641383 g / cm^3
# Si number density = 16.451275 Si / 1000 Ang^3
#
#
#
# Elastic Constant Matrix: (Units=GPa)
#
#
# Indices 1 2 3 4 5 6 
#
# 1 84.3712 47.6515 40.1503 0.0000 0.0000 0.0000
# 2 47.6515 107.5093 44.6039 0.0000 0.0000 0.0000
# 3 40.1503 44.6039 69.6876 0.0000 0.0000 0.0000
# 4 0.0000 0.0000 0.0000 21.4102 0.0000 0.0000
# 5 0.0000 0.0000 0.0000 0.0000 28.0730 0.0000
# 6 0.0000 0.0000 0.0000 0.0000 0.0000 21.8302
#
#
#
# Elastic Compliance Matrix: (Units=1/GPa)
#
#
# Indices 1 2 3 4 5 6 
#
# 1 0.018137 -0.005043 -0.007222 0.000000 0.000000 0.000000
# 2 -0.005043 0.014067 -0.006098 0.000000 0.000000 0.000000
# 3 -0.007222 -0.006098 0.022414 0.000000 0.000000 0.000000
# 4 0.000000 0.000000 0.000000 0.046707 0.000000 0.000000
# 5 0.000000 0.000000 0.000000 0.000000 0.035621 0.000000
# 6 0.000000 0.000000 0.000000 0.000000 0.000000 0.045808
#
#
# Mechanical properties :
#
#
# Convention : Reuss Voigt Hill
#
# Bulk Modulus (GPa) = 55.89105 58.48662 57.18884
# Shear Modulus (GPa) = 22.17850 22.87351 22.52601
#
# Velocity S-wave (km/s) = 3.67568 3.73282 3.70436
# Velocity P-wave (km/s) = 7.21537 7.36256 7.28933
#
# Compressibility (1/GPa) = 0.01789195
#
# Stress axis : x y z
#
# Youngs Moduli (GPa) = 55.13519 71.09049 44.61527
#
# Poissons Ratio (x) = 0.35848 0.32222
# Poissons Ratio (y) = 0.27803 0.27207
# Poissons Ratio (z) = 0.39819 0.43351
#
# Static dielectric constant tensor:
#      x y z
#    x 3.096740 0.000000 0.000000 
#    y 0.000000 3.049810 0.000000 
#    z 0.000000 0.000000 3.032560 
# 
# 
# High freq. dielectric constant tensor:
#      x y z
#    x 1.638380 0.000000 0.000000 
#    y 0.000000 1.616210 0.000000 
#    z 0.000000 0.000000 1.614020 
# 
# From -- ./inp_files/27901.got.cif
#   From: 2010.06.25/outbox.cif.g09.slc.cpg/sg71_14_cif.got.tgz:27901.got - 2010.06.28 04:59:45.
