data_PCOD8292178
_publ_section_title
;
Structure prediction by ZEFSAII (Michael W. Deem and Ramdas Pophale) SiO2 
 PCOD8292178
Probable space group: I M M M
;
_chemical_formula_sum "Si O2"
_cell_formula_units_Z 72
_cell_length_a 8.865105
_cell_length_b 16.109874
_cell_length_c 24.769081
_cell_angle_alpha 90.000000
_cell_angle_beta 90.000000
_cell_angle_gamma 90.000000
_cell_volume 3537.414249
_symmetry_space_group_name_H-M "I M M M"
_symmetry_group_IT_number 71
_symmetry_cell_setting 'orthorhombic'
loop_
_space_group_symop_operation_xyz
x,y,z
-x,-y,z
x,-y,-z
-x,y,-z
-x,-y,-z
x,y,-z
-x,y,z
x,-y,z
1/2+x,1/2+y,1/2+z
1/2-x,1/2-y,1/2+z
1/2+x,1/2-y,1/2-z
1/2-x,1/2+y,1/2-z
1/2-x,1/2-y,1/2-z
1/2+x,1/2+y,1/2-z
1/2-x,1/2+y,1/2+z
1/2+x,1/2-y,1/2+z
loop_
_atom_site_type_symbol
_atom_site_label
_atom_site_fract_x
_atom_site_fract_y
_atom_site_fract_z
Si Si1 0.176414 0.320681 0.787413
Si Si2 0.171966 0.641380 0.439552
Si Si3 0.175218 0.500000 0.738855
Si Si4 0.323319 0.500000 0.373262
Si Si5 0.666258 0.596415 0.000000
Si Si6 0.678725 0.192243 0.590049
O O1 0.250000 0.250000 0.750000
O O2 0.213000 0.415858 0.771460
O O3 0.237696 0.310747 0.848368
O O4 0.000000 0.303451 0.784573
O O5 0.178065 0.604161 0.500000
O O6 0.250327 0.580943 0.398067
O O7 0.263782 0.725730 0.439076
O O8 0.000000 0.655642 0.421045
O O9 0.289636 0.500000 0.689559
O O10 0.000000 0.500000 0.720511
O O11 0.500000 0.500000 0.384378
O O12 0.755615 0.617530 0.945243
O O13 0.643226 0.500000 0.000000
O O14 0.500000 0.639935 0.000000
O O15 0.500000 0.187450 0.588357
#
# Coordination Sequence:
#
# PCOD8292178 Si02
#       6
#    16  16   8   8   8  16
#     4  10  23  41  64  93 125 163 209 258 314 377
#     4  11  23  40  62  89 125 166 208 248 305 375
#     4  10  22  43  65  87 121 165 209 253 314 383
#     4  12  25  39  60  91 125 159 210 263 308 360
#     4  11  25  43  63  92 127 166 211 253 309 379
#     4  11  23  40  66  96 127 161 207 262 315 367
#
# _framework density 20.353850999999999
#
# number of rings (size 3 to 8) (size 9 to 14) (size 15 to 20)
#    0.000    1.222    1.111    4.333    1.556    9.778 
#    0.000    0.000    0.000    0.000    0.000    0.000 
#    0.000    0.000    0.000    0.000    0.000    0.000 
#
# Total GULP energy -446455.845437 kJ/mol
# GULP energy per Si atom -12401.551262 kJ/mol
# Density = 2.030752 g / cm^3
# Si number density = 20.353851 Si / 1000 Ang^3
#
#
#
# Elastic Constant Matrix: (Units=GPa)
#
#
# Indices 1 2 3 4 5 6 
#
# 1 89.5970 36.2876 56.4931 0.0000 0.0000 0.0000
# 2 36.2876 109.3625 41.2317 0.0000 0.0000 0.0000
# 3 56.4931 41.2317 150.0216 0.0000 0.0000 0.0000
# 4 0.0000 0.0000 0.0000 34.1489 0.0000 0.0000
# 5 0.0000 0.0000 0.0000 0.0000 32.2794 0.0000
# 6 0.0000 0.0000 0.0000 0.0000 0.0000 35.2933
#
#
#
# Elastic Compliance Matrix: (Units=1/GPa)
#
#
# Indices 1 2 3 4 5 6 
#
# 1 0.015643 -0.003313 -0.004980 0.000000 0.000000 0.000000
# 2 -0.003313 0.010903 -0.001749 0.000000 0.000000 0.000000
# 3 -0.004980 -0.001749 0.009022 0.000000 0.000000 0.000000
# 4 0.000000 0.000000 0.000000 0.029284 0.000000 0.000000
# 5 0.000000 0.000000 0.000000 0.000000 0.030980 0.000000
# 6 0.000000 0.000000 0.000000 0.000000 0.000000 0.028334
#
#
# Mechanical properties :
#
#
# Convention : Reuss Voigt Hill
#
# Bulk Modulus (GPa) = 64.58541 68.55620 66.57081
# Shear Modulus (GPa) = 33.46515 34.67554 34.07035
#
# Velocity S-wave (km/s) = 4.05923 4.13199 4.09577
# Velocity P-wave (km/s) = 7.33280 7.51796 7.42596
#
# Compressibility (1/GPa) = 0.01548337
#
# Stress axis : x y z
#
# Youngs Moduli (GPa) = 63.92673 91.72188 110.84371
#
# Poissons Ratio (x) = 0.30386 0.55201
# Poissons Ratio (y) = 0.21178 0.19386
# Poissons Ratio (z) = 0.31836 0.16041
#
# Static dielectric constant tensor:
#      x y z
#    x 3.777610 0.000000 0.000000 
#    y 0.000000 3.745120 0.000000 
#    z 0.000000 0.000000 4.026710 
# 
# 
# High freq. dielectric constant tensor:
#      x y z
#    x 1.800730 0.000000 0.000000 
#    y 0.000000 1.805000 0.000000 
#    z 0.000000 0.000000 1.808060 
# 
# From -- ./inp_files/8063.got.cif
#   From: 2010.06.25/outbox.cif.g09.slc.cpg/sg71_5_cif.got.tgz:8063.got - 2010.06.28 04:59:45.
