data_PCOD8292085
_publ_section_title
;
Structure prediction by ZEFSAII (Michael W. Deem and Ramdas Pophale) SiO2 
 PCOD8292085
Probable space group: I M M M
;
_chemical_formula_sum "Si O2"
_cell_formula_units_Z 80
_cell_length_a 28.486692
_cell_length_b 15.137675
_cell_length_c 9.018237
_cell_angle_alpha 90.000000
_cell_angle_beta 90.000000
_cell_angle_gamma 90.000000
_cell_volume 3888.864769
_symmetry_space_group_name_H-M "I M M M"
_symmetry_group_IT_number 71
_symmetry_cell_setting 'orthorhombic'
loop_
_space_group_symop_operation_xyz
x,y,z
-x,-y,z
x,-y,-z
-x,y,-z
-x,-y,-z
x,y,-z
-x,y,z
x,-y,z
1/2+x,1/2+y,1/2+z
1/2-x,1/2-y,1/2+z
1/2+x,1/2-y,1/2-z
1/2-x,1/2+y,1/2-z
1/2-x,1/2-y,1/2-z
1/2+x,1/2+y,1/2-z
1/2-x,1/2+y,1/2+z
1/2+x,1/2-y,1/2+z
loop_
_atom_site_type_symbol
_atom_site_label
_atom_site_fract_x
_atom_site_fract_y
_atom_site_fract_z
Si Si1 0.809638 0.401872 0.159443
Si Si2 0.052496 0.765604 0.329441
Si Si3 0.410875 0.899597 0.324906
Si Si4 0.228771 0.163170 0.174716
Si Si5 0.366490 0.397701 0.174642
O O1 0.825617 0.500000 0.122300
O O2 0.858621 0.360552 0.217382
O O3 0.768203 0.407604 0.279854
O O4 0.793834 0.357990 0.000000
O O5 0.063250 0.746358 0.500000
O O6 0.054558 0.671257 0.247535
O O7 0.088806 0.840342 0.271615
O O8 0.000000 0.803666 0.306115
O O9 0.418404 0.897956 0.500000
O O10 0.420242 0.000000 0.264792
O O11 0.250000 0.250000 0.250000
O O12 0.178698 0.138269 0.239556
O O13 0.224514 0.171239 0.000000
O O14 0.375415 0.500000 0.217018
O O15 0.357147 0.388196 0.000000
#
# Coordination Sequence:
#
# PCOD8292085 Si02
#       5
#    16  16  16  16  16
#     4   9  18  34  55  79 110 146 182 221 268 326
#     4  10  22  39  59  85 114 146 191 246 300 352
#     4   9  19  36  58  85 117 154 194 235 285 349
#     4  12  24  36  54  82 116 151 189 233 281 337
#     4  10  22  41  63  86 116 155 197 243 296 351
#
# _framework density 20.571556000000001
#
# number of rings (size 3 to 8) (size 9 to 14) (size 15 to 20)
#    0.000    2.000    0.000    4.800    0.000    9.600 
#    0.000    6.000    0.000    0.000    0.000    2.800 
#    0.000    0.000    0.000    0.000    0.000    0.000 
#
# Total GULP energy -495565.750915 kJ/mol
# GULP energy per Si atom -12389.143773 kJ/mol
# Density = 2.052473 g / cm^3
# Si number density = 20.571556 Si / 1000 Ang^3
#
#
#
# Elastic Constant Matrix: (Units=GPa)
#
#
# Indices 1 2 3 4 5 6 
#
# 1 125.1533 55.9408 46.2653 0.0000 0.0000 0.0000
# 2 55.9408 121.1520 42.9951 0.0000 0.0000 0.0000
# 3 46.2653 42.9951 73.9627 0.0000 0.0000 0.0000
# 4 0.0000 0.0000 0.0000 23.9458 0.0000 0.0000
# 5 0.0000 0.0000 0.0000 0.0000 27.5395 0.0000
# 6 0.0000 0.0000 0.0000 0.0000 0.0000 27.9410
#
#
#
# Elastic Compliance Matrix: (Units=1/GPa)
#
#
# Indices 1 2 3 4 5 6 
#
# 1 0.011437 -0.003455 -0.005146 0.000000 0.000000 0.000000
# 2 -0.003455 0.011443 -0.004491 0.000000 0.000000 0.000000
# 3 -0.005146 -0.004491 0.019350 0.000000 0.000000 0.000000
# 4 0.000000 0.000000 0.000000 0.041761 0.000000 0.000000
# 5 0.000000 0.000000 0.000000 0.000000 0.036311 0.000000
# 6 0.000000 0.000000 0.000000 0.000000 0.000000 0.035790
#
#
# Mechanical properties :
#
#
# Convention : Reuss Voigt Hill
#
# Bulk Modulus (GPa) = 62.31770 67.85228 65.08499
# Shear Modulus (GPa) = 26.64924 27.55637 27.10281
#
# Velocity S-wave (km/s) = 3.60313 3.66394 3.63366
# Velocity P-wave (km/s) = 6.90427 7.13824 7.02223
#
# Compressibility (1/GPa) = 0.01604681
#
# Stress axis : x y z
#
# Youngs Moduli (GPa) = 87.43933 87.38956 51.68048
#
# Poissons Ratio (x) = 0.30190 0.26593
# Poissons Ratio (y) = 0.30207 0.23210
# Poissons Ratio (z) = 0.44993 0.39247
#
# Static dielectric constant tensor:
#      x y z
#    x 2.973760 0.000000 0.000000 
#    y 0.000000 3.773050 0.000000 
#    z 0.000000 0.000000 3.071170 
# 
# 
# High freq. dielectric constant tensor:
#      x y z
#    x 1.810920 0.000000 0.000000 
#    y 0.000000 1.809470 0.000000 
#    z 0.000000 0.000000 1.788630 
# 
# From -- ./inp_files/14545.got.cif
#   From: 2010.06.25/outbox.cif.g09.slc.cpg/sg71_8_cif.got.tgz:14545.got - 2010.06.28 04:59:45.
