data_PCOD8292015
_publ_section_title
;
Structure prediction by ZEFSAII (Michael W. Deem and Ramdas Pophale) SiO2 
 PCOD8292015
Probable space group: I M M M
;
_chemical_formula_sum "Si O2"
_cell_formula_units_Z 104
_cell_length_a 27.069670
_cell_length_b 8.645358
_cell_length_c 21.905759
_cell_angle_alpha 90.000000
_cell_angle_beta 90.000000
_cell_angle_gamma 90.000000
_cell_volume 5126.538801
_symmetry_space_group_name_H-M "I M M M"
_symmetry_group_IT_number 71
_symmetry_cell_setting 'orthorhombic'
loop_
_space_group_symop_operation_xyz
x,y,z
-x,-y,z
x,-y,-z
-x,y,-z
-x,-y,-z
x,y,-z
-x,y,z
x,-y,z
1/2+x,1/2+y,1/2+z
1/2-x,1/2-y,1/2+z
1/2+x,1/2-y,1/2-z
1/2-x,1/2+y,1/2-z
1/2-x,1/2-y,1/2-z
1/2+x,1/2+y,1/2-z
1/2-x,1/2+y,1/2+z
1/2+x,1/2-y,1/2+z
loop_
_atom_site_type_symbol
_atom_site_label
_atom_site_fract_x
_atom_site_fract_y
_atom_site_fract_z
Si Si1 0.444664 0.822854 0.707454
Si Si2 0.359823 0.823037 0.619231
Si Si3 0.740290 0.822652 0.314391
Si Si4 0.326258 0.181019 0.880891
Si Si5 0.500000 0.816539 0.928786
Si Si6 0.705545 0.317363 0.000000
Si Si7 0.815590 0.819316 0.000000
Si Si8 0.077473 0.181798 0.336028
O O1 0.500000 0.811043 0.680999
O O2 0.408381 0.758747 0.654327
O O3 0.443148 0.727068 0.769970
O O4 0.430070 0.000000 0.722619
O O5 0.316780 0.809531 0.669085
O O6 0.347761 0.724142 0.559322
O O7 0.367170 0.000000 0.598074
O O8 0.750000 0.750000 0.250000
O O9 0.770722 0.717909 0.360717
O O10 0.758459 0.000000 0.316936
O O11 0.329115 0.254243 0.946983
O O12 0.365943 0.262781 0.837413
O O13 0.336307 0.000000 0.881661
O O14 0.548169 0.758069 0.892452
O O15 0.500000 0.000000 0.927217
O O16 0.500000 0.759281 0.000000
O O17 0.762348 0.262356 0.000000
O O18 0.708092 0.500000 0.000000
O O19 0.805180 0.000000 0.000000
O O20 0.073048 0.000000 0.343837
#
# Coordination Sequence:
#
# PCOD8292015 Si02
#       8
#    16  16  16  16   8   8   8  16
#     4  10  21  41  69  98 129 168 219 272 330 394
#     4  10  22  40  64  92 127 172 216 268 329 393
#     4  11  22  37  59  89 127 166 209 258 315 378
#     4  12  25  41  62  90 125 164 209 256 309 375
#     4  11  25  45  67  91 125 170 223 274 324 384
#     4  12  24  42  64  90 126 166 210 261 317 386
#     4  12  24  40  65  95 127 172 218 266 331 402
#     4  12  25  42  66  96 131 170 215 269 331 388
#
# _framework density 20.286591000000001
#
# number of rings (size 3 to 8) (size 9 to 14) (size 15 to 20)
#    0.000    0.846    2.308    5.769    1.077    3.077 
#    0.000    0.385    0.000    2.308    0.000    0.000 
#    0.000    0.000    0.000    0.000    0.000    0.000 
#
# Total GULP energy -644864.572638 kJ/mol
# GULP energy per Si atom -12401.241782 kJ/mol
# Density = 2.024042 g / cm^3
# Si number density = 20.286591 Si / 1000 Ang^3
#
#
#
# Elastic Constant Matrix: (Units=GPa)
#
#
# Indices 1 2 3 4 5 6 
#
# 1 101.9464 25.3701 23.5003 0.0000 0.0000 0.0000
# 2 25.3701 110.3550 35.0845 0.0000 0.0000 0.0000
# 3 23.5003 35.0845 93.3387 0.0000 0.0000 0.0000
# 4 0.0000 0.0000 0.0000 33.4339 0.0000 0.0000
# 5 0.0000 0.0000 0.0000 0.0000 40.4790 0.0000
# 6 0.0000 0.0000 0.0000 0.0000 0.0000 27.8748
#
#
#
# Elastic Compliance Matrix: (Units=1/GPa)
#
#
# Indices 1 2 3 4 5 6 
#
# 1 0.010728 -0.001826 -0.002015 0.000000 0.000000 0.000000
# 2 -0.001826 0.010602 -0.003526 0.000000 0.000000 0.000000
# 3 -0.002015 -0.003526 0.012546 0.000000 0.000000 0.000000
# 4 0.000000 0.000000 0.000000 0.029910 0.000000 0.000000
# 5 0.000000 0.000000 0.000000 0.000000 0.024704 0.000000
# 6 0.000000 0.000000 0.000000 0.000000 0.000000 0.035875
#
#
# Mechanical properties :
#
#
# Convention : Reuss Voigt Hill
#
# Bulk Modulus (GPa) = 52.23517 52.61666 52.42591
# Shear Modulus (GPa) = 34.36939 35.13655 34.75297
#
# Velocity S-wave (km/s) = 4.12052 4.16626 4.14345
# Velocity P-wave (km/s) = 6.96009 7.00975 6.98496
#
# Compressibility (1/GPa) = 0.01914419
#
# Stress axis : x y z
#
# Youngs Moduli (GPa) = 93.21523 94.31958 79.70595
#
# Poissons Ratio (x) = 0.17220 0.16059
# Poissons Ratio (y) = 0.17019 0.28101
# Poissons Ratio (z) = 0.18780 0.33253
#
# Static dielectric constant tensor:
#      x y z
#    x 3.961940 0.000000 0.000000 
#    y 0.000000 3.716470 0.000000 
#    z 0.000000 0.000000 3.476560 
# 
# 
# High freq. dielectric constant tensor:
#      x y z
#    x 1.797100 0.000000 0.000000 
#    y 0.000000 1.796050 0.000000 
#    z 0.000000 0.000000 1.797010 
# 
# From -- ./inp_files/56313.got.cif
#   From: 2010.06.25/outbox.cif.g09.slc.cpg/sg71_29_cif.got.tgz:56313.got - 2010.06.28 04:59:45.
