data_PCOD8292299
_publ_section_title
;
Structure prediction by ZEFSAII (Michael W. Deem and Ramdas Pophale) SiO2 
 PCOD8292299
Probable space group: I M M M
;
_chemical_formula_sum "Si O2"
_cell_formula_units_Z 104
_cell_length_a 13.488382
_cell_length_b 27.600043
_cell_length_c 14.616044
_cell_angle_alpha 90.000000
_cell_angle_beta 90.000000
_cell_angle_gamma 90.000000
_cell_volume 5441.259738
_symmetry_space_group_name_H-M "I M M M"
_symmetry_group_IT_number 71
_symmetry_cell_setting 'orthorhombic'
loop_
_space_group_symop_operation_xyz
x,y,z
-x,-y,z
x,-y,-z
-x,y,-z
-x,-y,-z
x,y,-z
-x,y,z
x,-y,z
1/2+x,1/2+y,1/2+z
1/2-x,1/2-y,1/2+z
1/2+x,1/2-y,1/2-z
1/2-x,1/2+y,1/2-z
1/2-x,1/2-y,1/2-z
1/2+x,1/2+y,1/2-z
1/2-x,1/2+y,1/2+z
1/2+x,1/2-y,1/2+z
loop_
_atom_site_type_symbol
_atom_site_label
_atom_site_fract_x
_atom_site_fract_y
_atom_site_fract_z
Si Si1 0.303640 0.402497 0.602334
Si Si2 0.109979 0.000000 0.890954
Si Si3 0.261267 0.147482 0.397178
Si Si4 0.116821 0.823923 0.764356
Si Si5 0.116890 0.740497 0.897779
Si Si6 0.109361 0.554222 0.639877
Si Si7 0.388677 0.054524 0.644276
O O1 0.343919 0.395895 0.500000
O O2 0.335277 0.453164 0.648101
O O3 0.357233 0.362300 0.659214
O O4 0.183662 0.404143 0.603023
O O5 0.000000 0.000000 0.851332
O O6 0.111809 0.000000 0.000000
O O7 0.218553 0.152331 0.500000
O O8 0.172461 0.161271 0.328484
O O9 0.347607 0.186125 0.378204
O O10 0.307341 0.093702 0.387853
O O11 0.153651 0.774115 0.813152
O O12 0.000000 0.822999 0.742868
O O13 0.000000 0.740239 0.897548
O O14 0.154050 0.757724 0.000000
O O15 0.139151 0.500000 0.605020
O O16 0.108795 0.555260 0.747822
O O17 0.000000 0.567216 0.602506
O O18 0.500000 0.066981 0.607326
O O19 0.358939 0.000000 0.610529
#
# Coordination Sequence:
#
# PCOD8292299 Si02
#       7
#    16   8  16  16  16  16  16
#     4  11  20  32  52  77 106 143 187 233 280 330
#     4   9  18  30  45  71 102 134 182 237 279 319
#     4  11  22  37  60  86 113 146 186 231 280 336
#     4  11  23  39  57  79 111 151 191 232 276 323
#     4   9  19  37  62  91 116 138 174 226 283 339
#     4   9  17  31  51  76 110 148 182 220 277 349
#     4   9  18  34  57  85 115 146 183 230 285 342
#
# _framework density 19.113220999999999
#
# number of rings (size 3 to 8) (size 9 to 14) (size 15 to 20)
#    0.000    2.077    2.308    2.769    0.000    3.385 
#    0.000    1.538    0.000    0.000    0.000    3.231 
#    0.000    0.000    0.000    0.000    0.000    0.000 
#
# Total GULP energy -644287.453509 kJ/mol
# GULP energy per Si atom -12390.143337 kJ/mol
# Density = 1.906972 g / cm^3
# Si number density = 19.113221 Si / 1000 Ang^3
#
#
#
# Elastic Constant Matrix: (Units=GPa)
#
#
# Indices 1 2 3 4 5 6 
#
# 1 65.0638 34.8730 33.3480 0.0000 0.0001 0.0000
# 2 34.8730 113.4649 45.2386 0.0001 0.0000 0.0000
# 3 33.3480 45.2386 96.3814 0.0014 -0.0007 -0.0001
# 4 0.0000 0.0001 0.0014 9.9561 -0.0005 0.0000
# 5 0.0001 0.0000 -0.0007 -0.0005 -2.6461 0.0000
# 6 0.0000 0.0000 -0.0001 0.0000 0.0000 29.7902
#
#
#
# Elastic Compliance Matrix: (Units=1/GPa)
#
#
# Indices 1 2 3 4 5 6 
#
# 1 0.020194 -0.004208 -0.005012 0.000001 0.000002 0.000000
# 2 -0.004208 0.011719 -0.004045 0.000000 0.000001 0.000000
# 3 -0.005012 -0.004045 0.014008 -0.000002 -0.000004 0.000000
# 4 0.000001 0.000000 -0.000002 0.100441 -0.000019 0.000000
# 5 0.000002 0.000001 -0.000004 -0.000019 -0.377918 0.000000
# 6 0.000000 0.000000 0.000000 0.000000 0.000000 0.033568
#
#
# Mechanical properties :
#
#
# Convention : Reuss Voigt Hill
#
# Bulk Modulus (GPa) = 51.56863 55.75882 53.66373
# Shear Modulus (GPa) = -30.30405 18.18342 -6.06032
#
# Velocity S-wave (km/s) = -3.98616 3.08775 -1.78259
# Velocity P-wave (km/s) = 2.41935 6.47676 4.88885
#
# Compressibility (1/GPa) = 0.01939163
#
# Stress axis : x y z
#
# Youngs Moduli (GPa) = 49.52000 85.32941 71.38793
#
# Poissons Ratio (x) = 0.35909 0.35779
# Poissons Ratio (y) = 0.20839 0.28874
# Poissons Ratio (z) = 0.24819 0.34513
#
# Static dielectric constant tensor:
#      x y z
#    x 3.573320 0.000000 0.000000 
#    y 0.000000 3.801820 0.000000 
#    z 0.000000 0.000000 3.514790 
# 
# 
# High freq. dielectric constant tensor:
#      x y z
#    x 1.733460 0.000000 0.000000 
#    y 0.000000 1.738390 0.000000 
#    z 0.000000 0.000000 1.736390 
# 
# From -- ./inp_files/34902.got.cif
#   From: 2010.06.25/outbox.cif.g09.slc.cpg/sg71_18_cif.got.tgz:34902.got - 2010.06.28 04:59:45.
