data_PCOD8292924
_publ_section_title
;
Structure prediction by ZEFSAII (Michael W. Deem and Ramdas Pophale) SiO2 
 PCOD8292924
Probable space group: I B A M
;
_chemical_formula_sum "Si O2"
_cell_formula_units_Z 96
_cell_length_a 20.699216
_cell_length_b 13.597693
_cell_length_c 17.623532
_cell_angle_alpha 90.000000
_cell_angle_beta 90.000000
_cell_angle_gamma 90.000000
_cell_volume 4960.347241
_symmetry_space_group_name_H-M "I B A M"
_symmetry_group_IT_number 72
_symmetry_cell_setting 'orthorhombic'
loop_
_space_group_symop_operation_xyz
x,y,z
-x,-y,z
x,-y,1/2-z
-x,y,1/2-z
-x,-y,-z
x,y,-z
-x,y,1/2+z
x,-y,1/2+z
1/2+x,1/2+y,1/2+z
1/2-x,1/2-y,1/2+z
1/2+x,1/2-y,-z
1/2-x,1/2+y,-z
1/2-x,1/2-y,1/2-z
1/2+x,1/2+y,1/2-z
1/2-x,1/2+y,z
1/2+x,1/2-y,z
loop_
_atom_site_type_symbol
_atom_site_label
_atom_site_fract_x
_atom_site_fract_y
_atom_site_fract_z
Si Si1 0.687905 0.752202 0.302895
Si Si2 0.938417 0.049658 0.832359
Si Si3 0.562477 0.225869 0.296621
Si Si4 0.309194 0.067606 0.588479
Si Si5 0.307337 0.531676 0.836074
Si Si6 0.065565 0.553760 0.911556
O O1 0.750000 0.750000 0.250000
O O2 0.625288 0.781301 0.255307
O O3 0.699680 0.829895 0.368989
O O4 0.677378 0.646844 0.341224
O O5 0.949462 0.165343 0.828453
O O6 0.933631 0.000000 0.750000
O O7 0.869591 0.025778 0.871014
O O8 0.000000 0.000000 0.875431
O O9 0.500000 0.191063 0.250000
O O10 0.572715 0.155836 0.368046
O O11 0.305926 0.090564 0.500000
O O12 0.253024 0.992114 0.610996
O O13 0.376799 0.018825 0.611598
O O14 0.291058 0.500000 0.750000
O O15 0.000000 0.500000 0.887861
O O16 0.067123 0.580126 0.000000
#
# Coordination Sequence:
#
# PCOD8292924 Si02
#       6
#    16  16  16  16  16  16
#     4  12  22  36  62  91 118 154 204 253 299 358
#     4  10  17  35  58  91 123 150 188 247 309 350
#     4  12  21  34  65  97 113 157 209 252 296 365
#     4  11  25  42  60  86 125 165 201 251 311 366
#     4  11  20  38  62  88 119 161 198 250 305 355
#     4  10  24  44  60  83 127 168 201 252 312 361
#
# _framework density 19.353484000000002
#
# number of rings (size 3 to 8) (size 9 to 14) (size 15 to 20)
#    0.000    1.000    6.667    2.000    0.000    2.333 
#    0.000    5.000    0.000    4.000    0.000    0.000 
#    0.000    0.000    0.000    0.000    0.000    0.000 
#
# Total GULP energy -595353.994541 kJ/mol
# GULP energy per Si atom -12403.208220 kJ/mol
# Density = 1.930943 g / cm^3
# Si number density = 19.353484 Si / 1000 Ang^3
#
#
#
# Elastic Constant Matrix: (Units=GPa)
#
#
# Indices 1 2 3 4 5 6 
#
# 1 163.4641 28.7205 50.6623 0.0000 0.0000 0.0000
# 2 28.7205 132.1687 65.7820 0.0000 0.0000 0.0000
# 3 50.6623 65.7820 66.1847 0.0000 0.0000 0.0000
# 4 0.0000 0.0000 0.0000 26.3489 0.0000 0.0000
# 5 0.0000 0.0000 0.0000 0.0000 24.9600 0.0000
# 6 0.0000 0.0000 0.0000 0.0000 0.0000 29.5635
#
#
#
# Elastic Compliance Matrix: (Units=1/GPa)
#
#
# Indices 1 2 3 4 5 6 
#
# 1 0.008498 0.002753 -0.009241 0.000000 0.000000 0.000000
# 2 0.002753 0.015865 -0.017875 0.000000 0.000000 0.000000
# 3 -0.009241 -0.017875 0.039949 0.000000 0.000000 0.000000
# 4 0.000000 0.000000 0.000000 0.037952 0.000000 0.000000
# 5 0.000000 0.000000 0.000000 0.000000 0.040064 0.000000
# 6 0.000000 0.000000 0.000000 0.000000 0.000000 0.033826
#
#
# Mechanical properties :
#
#
# Convention : Reuss Voigt Hill
#
# Bulk Modulus (GPa) = 64.16382 72.46079 68.31231
# Shear Modulus (GPa) = 21.73203 30.61797 26.17500
#
# Velocity S-wave (km/s) = 3.35461 3.98180 3.68158
# Velocity P-wave (km/s) = 6.94479 7.65909 7.31067
#
# Compressibility (1/GPa) = 0.01558511
#
# Stress axis : x y z
#
# Youngs Moduli (GPa) = 117.67624 63.03340 25.03185
#
# Poissons Ratio (x) = -0.17351 0.23131
# Poissons Ratio (y) = -0.32392 0.44745
# Poissons Ratio (z) = 1.08742 1.12673
#
# Static dielectric constant tensor:
#      x y z
#    x 4.221950 0.000000 0.000000 
#    y 0.000000 3.535100 0.000000 
#    z 0.000000 0.000000 3.209570 
# 
# 
# High freq. dielectric constant tensor:
#      x y z
#    x 1.783340 0.000000 0.000000 
#    y 0.000000 1.766160 0.000000 
#    z 0.000000 0.000000 1.715410 
# 
# From -- ./inp_files/24107.got.cif
#   From: 2010.03.12/outbox.cif.g09.slc.cpg/sg72_13_cif.got.tgz:24107.got - 2010.04.16 14:54:00.
