data_PCOD8292652
_publ_section_title
;
Structure prediction by ZEFSAII (Michael W. Deem and Ramdas Pophale) SiO2 
 PCOD8292652
Probable space group: I M M M
;
_chemical_formula_sum "Si O2"
_cell_formula_units_Z 80
_cell_length_a 29.392948
_cell_length_b 9.207448
_cell_length_c 22.588609
_cell_angle_alpha 90.000000
_cell_angle_beta 90.000000
_cell_angle_gamma 90.000000
_cell_volume 6113.246518
_symmetry_space_group_name_H-M "I M M M"
_symmetry_group_IT_number 71
_symmetry_cell_setting 'orthorhombic'
loop_
_space_group_symop_operation_xyz
x,y,z
-x,-y,z
x,-y,-z
-x,y,-z
-x,-y,-z
x,y,-z
-x,y,z
x,-y,z
1/2+x,1/2+y,1/2+z
1/2-x,1/2-y,1/2+z
1/2+x,1/2-y,1/2-z
1/2-x,1/2+y,1/2-z
1/2-x,1/2-y,1/2-z
1/2+x,1/2+y,1/2-z
1/2-x,1/2+y,1/2+z
1/2+x,1/2-y,1/2+z
loop_
_atom_site_type_symbol
_atom_site_label
_atom_site_fract_x
_atom_site_fract_y
_atom_site_fract_z
Si Si1 0.365398 0.669776 0.859482
Si Si2 0.949490 0.827667 0.566107
Si Si3 0.727247 0.336035 0.664557
Si Si4 0.275593 0.331684 0.067998
Si Si5 0.180952 0.664113 0.260504
O O1 0.368377 0.500000 0.843977
O O2 0.411808 0.731729 0.888394
O O3 0.325346 0.700755 0.906070
O O4 0.357838 0.755956 0.798561
O O5 0.940451 0.765953 0.500000
O O6 0.000000 0.780751 0.587615
O O7 0.945501 0.000000 0.563476
O O8 0.710513 0.500000 0.653410
O O9 0.737115 0.259995 0.601863
O O10 0.772427 0.334089 0.703536
O O11 0.687635 0.248730 0.698680
O O12 0.263188 0.500000 0.075635
O O13 0.275557 0.283089 0.000000
O O14 0.165404 0.500000 0.246921
#
# Coordination Sequence:
#
# PCOD8292652 Si02
#       5
#    16  16  16  16  16
#     4   9  15  23  36  52  68  87 115 149 179 207
#     4   8  13  21  34  52  71  90 115 148 182 212
#     4   9  16  25  36  49  65  85 110 140 172 205
#     4   9  16  24  34  49  69  92 116 142 173 207
#     4   9  16  25  36  49  65  85 109 139 175 211
#
# _framework density 13.086335999999999
#
# number of rings (size 3 to 8) (size 9 to 14) (size 15 to 20)
#    0.000    3.200    0.000    2.400    0.000    7.600 
#    0.000    0.000    0.000    2.400    0.000    1.400 
#    0.000    0.000    0.000    0.000    0.000    1.000 
#
# Total GULP energy -495847.463733 kJ/mol
# GULP energy per Si atom -12396.186593 kJ/mol
# Density = 1.305655 g / cm^3
# Si number density = 13.086336 Si / 1000 Ang^3
#
#
#
# Elastic Constant Matrix: (Units=GPa)
#
#
# Indices 1 2 3 4 5 6 
#
# 1 64.9487 33.2161 49.2787 0.0000 0.0000 0.0000
# 2 33.2161 70.1231 45.3535 0.0000 0.0000 0.0000
# 3 49.2787 45.3535 80.6335 0.0000 0.0000 0.0000
# 4 0.0000 0.0000 0.0000 20.6585 0.0000 0.0000
# 5 0.0000 0.0000 0.0000 0.0000 24.6085 0.0000
# 6 0.0000 0.0000 0.0000 0.0000 0.0000 9.8523
#
#
#
# Elastic Compliance Matrix: (Units=1/GPa)
#
#
# Indices 1 2 3 4 5 6 
#
# 1 0.029279 -0.003609 -0.015864 0.000000 0.000000 0.000000
# 2 -0.003609 0.022860 -0.010652 0.000000 0.000000 0.000000
# 3 -0.015864 -0.010652 0.028088 0.000000 0.000000 0.000000
# 4 0.000000 0.000000 0.000000 0.048406 0.000000 0.000000
# 5 0.000000 0.000000 0.000000 0.000000 0.040636 0.000000
# 6 0.000000 0.000000 0.000000 0.000000 0.000000 0.101500
#
#
# Mechanical properties :
#
#
# Convention : Reuss Voigt Hill
#
# Bulk Modulus (GPa) = 50.05700 52.37802 51.21751
# Shear Modulus (GPa) = 14.80704 16.88099 15.84402
#
# Velocity S-wave (km/s) = 3.36741 3.59551 3.48333
# Velocity P-wave (km/s) = 7.31120 7.57290 7.44320
#
# Compressibility (1/GPa) = 0.01997722
#
# Stress axis : x y z
#
# Youngs Moduli (GPa) = 34.15461 43.74533 35.60188
#
# Poissons Ratio (x) = 0.15786 0.56478
# Poissons Ratio (y) = 0.12325 0.37924
# Poissons Ratio (z) = 0.54182 0.46599
#
# Static dielectric constant tensor:
#      x y z
#    x 2.466740 0.000000 0.000000 
#    y 0.000000 2.605680 0.000000 
#    z 0.000000 0.000000 2.617200 
# 
# 
# High freq. dielectric constant tensor:
#      x y z
#    x 1.454180 0.000000 0.000000 
#    y 0.000000 1.492090 0.000000 
#    z 0.000000 0.000000 1.483550 
# 
# From -- ./inp_files/11234.got.cif
#   From: 2010.06.25/outbox.cif.g09.slc.cpg/sg71_6_cif.got.tgz:11234.got - 2010.06.28 04:59:45.
