data_PCOD8292718
_publ_section_title
;
Structure prediction by ZEFSAII (Michael W. Deem and Ramdas Pophale) SiO2 
 PCOD8292718
Probable space group: I M M M
;
_chemical_formula_sum "Si O2"
_cell_formula_units_Z 56
_cell_length_a 9.291662
_cell_length_b 9.845582
_cell_length_c 35.811408
_cell_angle_alpha 90.000000
_cell_angle_beta 90.000000
_cell_angle_gamma 90.000000
_cell_volume 3276.092786
_symmetry_space_group_name_H-M "I M M M"
_symmetry_group_IT_number 71
_symmetry_cell_setting 'orthorhombic'
loop_
_space_group_symop_operation_xyz
x,y,z
-x,-y,z
x,-y,-z
-x,y,-z
-x,-y,-z
x,y,-z
-x,y,z
x,-y,z
1/2+x,1/2+y,1/2+z
1/2-x,1/2-y,1/2+z
1/2+x,1/2-y,1/2-z
1/2-x,1/2+y,1/2-z
1/2-x,1/2-y,1/2-z
1/2+x,1/2+y,1/2-z
1/2-x,1/2+y,1/2+z
1/2+x,1/2-y,1/2+z
loop_
_atom_site_type_symbol
_atom_site_label
_atom_site_fract_x
_atom_site_fract_y
_atom_site_fract_z
Si Si1 0.668547 0.342436 0.572436
Si Si2 0.332798 0.156978 0.721338
Si Si3 0.329016 0.849488 0.637984
Si Si4 0.162589 0.661340 0.500000
O O1 0.500000 0.317526 0.565229
O O2 0.701028 0.500000 0.580109
O O3 0.727609 0.259688 0.608091
O O4 0.753921 0.286437 0.536566
O O5 0.500000 0.192021 0.724535
O O6 0.250000 0.250000 0.750000
O O7 0.275495 0.189719 0.679500
O O8 0.303953 0.000000 0.730989
O O9 0.500000 0.851127 0.638456
O O10 0.272257 0.000000 0.627136
O O11 0.163197 0.500000 0.500000
O O12 0.000000 0.718586 0.500000
#
# Coordination Sequence:
#
# PCOD8292718 Si02
#       4
#    16  16  16   8
#     4   9  16  27  46  69  87 108 146 189 220 254
#     4   9  18  32  49  70  96 125 157 193 233 278
#     4   8  15  29  47  66  90 118 147 183 226 267
#     4   9  17  29  44  63  90 120 144 173 220 268
#
# _framework density 17.093533000000001
#
# number of rings (size 3 to 8) (size 9 to 14) (size 15 to 20)
#    0.000    3.286    0.000    2.143    0.000    3.429 
#    0.000    5.000    0.000   10.286    0.000    0.000 
#    0.000    0.000    0.000    0.000    0.000    0.000 
#
# Total GULP energy -347081.694283 kJ/mol
# GULP energy per Si atom -12395.774796 kJ/mol
# Density = 1.705463 g / cm^3
# Si number density = 17.093533 Si / 1000 Ang^3
#
#
#
# Elastic Constant Matrix: (Units=GPa)
#
#
# Indices 1 2 3 4 5 6 
#
# 1 53.6106 39.6323 55.9252 0.0000 0.0000 0.0000
# 2 39.6323 82.8416 88.6613 0.0000 0.0000 0.0000
# 3 55.9252 88.6613 171.3225 0.0000 0.0000 0.0000
# 4 0.0000 0.0000 0.0000 34.4478 0.0000 0.0000
# 5 0.0000 0.0000 0.0000 0.0000 25.2061 0.0000
# 6 0.0000 0.0000 0.0000 0.0000 0.0000 18.4090
#
#
#
# Elastic Compliance Matrix: (Units=1/GPa)
#
#
# Indices 1 2 3 4 5 6 
#
# 1 0.030996 -0.008966 -0.005478 0.000000 0.000000 0.000000
# 2 -0.008966 0.029651 -0.012418 0.000000 0.000000 0.000000
# 3 -0.005478 -0.012418 0.014052 0.000000 0.000000 0.000000
# 4 0.000000 0.000000 0.000000 0.029029 0.000000 0.000000
# 5 0.000000 0.000000 0.000000 0.000000 0.039673 0.000000
# 6 0.000000 0.000000 0.000000 0.000000 0.000000 0.054321
#
#
# Mechanical properties :
#
#
# Convention : Reuss Voigt Hill
#
# Bulk Modulus (GPa) = 47.67674 75.13471 61.40572
# Shear Modulus (GPa) = 19.34707 23.84962 21.59835
#
# Velocity S-wave (km/s) = 3.36793 3.73935 3.55849
# Velocity P-wave (km/s) = 6.56324 7.91796 7.27222
#
# Compressibility (1/GPa) = 0.02097459
#
# Stress axis : x y z
#
# Youngs Moduli (GPa) = 32.26254 33.72585 71.16610
#
# Poissons Ratio (x) = 0.30237 0.38986
# Poissons Ratio (y) = 0.28925 0.88374
# Poissons Ratio (z) = 0.17674 0.41881
#
# Static dielectric constant tensor:
#      x y z
#    x 2.939370 0.000000 0.000000 
#    y 0.000000 3.165240 0.000000 
#    z 0.000000 0.000000 3.545540 
# 
# 
# High freq. dielectric constant tensor:
#      x y z
#    x 1.627280 0.000000 0.000000 
#    y 0.000000 1.644370 0.000000 
#    z 0.000000 0.000000 1.671160 
# 
# From -- ./inp_files/3559.got.cif
#   From: 2010.06.25/outbox.cif.g09.slc.cpg/sg71_2_cif.got.tgz:3559.got - 2010.06.28 04:59:45.
