data_PCOD8292345
_publ_section_title
;
Structure prediction by ZEFSAII (Michael W. Deem and Ramdas Pophale) SiO2 
 PCOD8292345
Probable space group: I M M M
;
_chemical_formula_sum "Si O2"
_cell_formula_units_Z 80
_cell_length_a 20.215387
_cell_length_b 17.048916
_cell_length_c 13.638314
_cell_angle_alpha 90.000000
_cell_angle_beta 90.000000
_cell_angle_gamma 90.000000
_cell_volume 4700.450851
_symmetry_space_group_name_H-M "I M M M"
_symmetry_group_IT_number 71
_symmetry_cell_setting 'orthorhombic'
loop_
_space_group_symop_operation_xyz
x,y,z
-x,-y,z
x,-y,-z
-x,y,-z
-x,-y,-z
x,y,-z
-x,y,z
x,-y,z
1/2+x,1/2+y,1/2+z
1/2-x,1/2-y,1/2+z
1/2+x,1/2-y,1/2-z
1/2-x,1/2+y,1/2-z
1/2-x,1/2-y,1/2-z
1/2+x,1/2+y,1/2-z
1/2-x,1/2+y,1/2+z
1/2+x,1/2-y,1/2+z
loop_
_atom_site_type_symbol
_atom_site_label
_atom_site_fract_x
_atom_site_fract_y
_atom_site_fract_z
Si Si1 0.425618 0.692401 0.791230
Si Si2 0.841597 0.691854 0.390310
Si Si3 0.305030 0.640347 0.111275
Si Si4 0.174714 0.589328 0.790739
Si Si5 0.575599 0.793110 0.611412
O O1 0.500000 0.662237 0.809295
O O2 0.412447 0.772273 0.854861
O O3 0.373245 0.625821 0.826495
O O4 0.413269 0.715306 0.677337
O O5 0.847582 0.657587 0.500000
O O6 0.789630 0.765399 0.386391
O O7 0.818068 0.622998 0.318985
O O8 0.246088 0.592110 0.158638
O O9 0.316057 0.611473 0.000000
O O10 0.150884 0.500000 0.784215
O O11 0.122217 0.635925 0.855835
O O12 0.592704 0.769798 0.500000
O O13 0.500000 0.822162 0.621970
#
# Coordination Sequence:
#
# PCOD8292345 Si02
#       5
#    16  16  16  16  16
#     4   8  15  29  49  71  92 115 149 194 238 272
#     4   8  17  31  49  69  88 117 156 195 229 269
#     4   9  18  31  49  71  92 118 156 193 229 274
#     4  11  21  32  46  66  98 130 154 187 229 274
#     4   9  18  31  47  68  93 122 156 190 226 273
#
# _framework density 17.019644
#
# number of rings (size 3 to 8) (size 9 to 14) (size 15 to 20)
#    1.200    1.800    0.000    1.200    0.000    4.000 
#    0.000    1.000    0.000    0.600    0.000    7.000 
#    0.000    0.000    0.000    6.800    0.000    0.000 
#
# Total GULP energy -495546.888878 kJ/mol
# GULP energy per Si atom -12388.672222 kJ/mol
# Density = 1.698091 g / cm^3
# Si number density = 17.019644 Si / 1000 Ang^3
#
#
#
# Elastic Constant Matrix: (Units=GPa)
#
#
# Indices 1 2 3 4 5 6 
#
# 1 69.8940 6.8866 26.1856 0.0000 0.0000 0.0000
# 2 6.8866 13.3386 12.3839 0.0000 0.0000 0.0000
# 3 26.1856 12.3839 129.5327 0.0000 0.0000 0.0000
# 4 0.0000 0.0000 0.0000 8.9015 0.0000 0.0000
# 5 0.0000 0.0000 0.0000 0.0000 22.5739 0.0000
# 6 0.0000 0.0000 0.0000 0.0000 0.0000 6.2011
#
#
#
# Elastic Compliance Matrix: (Units=1/GPa)
#
#
# Indices 1 2 3 4 5 6 
#
# 1 0.015868 -0.005722 -0.002661 0.000000 0.000000 0.000000
# 2 -0.005722 0.084337 -0.006906 0.000000 0.000000 0.000000
# 3 -0.002661 -0.006906 0.008918 0.000000 0.000000 0.000000
# 4 0.000000 0.000000 0.000000 0.112341 0.000000 0.000000
# 5 0.000000 0.000000 0.000000 0.000000 0.044299 0.000000
# 6 0.000000 0.000000 0.000000 0.000000 0.000000 0.161262
#
#
# Mechanical properties :
#
#
# Convention : Reuss Voigt Hill
#
# Bulk Modulus (GPa) = 12.73162 33.74197 23.23680
# Shear Modulus (GPa) = 10.33518 18.68923 14.51220
#
# Velocity S-wave (km/s) = 2.46692 3.31735 2.92323
# Velocity P-wave (km/s) = 3.95108 5.87720 5.00762
#
# Compressibility (1/GPa) = 0.07854457
#
# Stress axis : x y z
#
# Youngs Moduli (GPa) = 63.01981 11.85723 112.13025
#
# Poissons Ratio (x) = 0.06785 0.29835
# Poissons Ratio (y) = 0.36062 0.77440
# Poissons Ratio (z) = 0.16768 0.08189
#
# Static dielectric constant tensor:
#      x y z
#    x 3.073400 0.000000 0.000000 
#    y 0.000000 2.639200 0.000000 
#    z 0.000000 0.000000 3.321740 
# 
# 
# High freq. dielectric constant tensor:
#      x y z
#    x 1.649600 0.000000 0.000000 
#    y 0.000000 1.599850 0.000000 
#    z 0.000000 0.000000 1.671120 
# 
# From -- ./inp_files/37903.got.cif
#   From: 2010.06.25/outbox.cif.g09.slc.cpg/sg71_19_cif.got.tgz:37903.got - 2010.06.28 04:59:45.
