data_PCOD8292306
_publ_section_title
;
Structure prediction by ZEFSAII (Michael W. Deem and Ramdas Pophale) SiO2 
 PCOD8292306
Probable space group: I M M M
;
_chemical_formula_sum "Si O2"
_cell_formula_units_Z 96
_cell_length_a 26.272694
_cell_length_b 15.599907
_cell_length_c 13.430927
_cell_angle_alpha 90.000000
_cell_angle_beta 90.000000
_cell_angle_gamma 90.000000
_cell_volume 5504.686693
_symmetry_space_group_name_H-M "I M M M"
_symmetry_group_IT_number 71
_symmetry_cell_setting 'orthorhombic'
loop_
_space_group_symop_operation_xyz
x,y,z
-x,-y,z
x,-y,-z
-x,y,-z
-x,-y,-z
x,y,-z
-x,y,z
x,-y,z
1/2+x,1/2+y,1/2+z
1/2-x,1/2-y,1/2+z
1/2+x,1/2-y,1/2-z
1/2-x,1/2+y,1/2-z
1/2-x,1/2-y,1/2-z
1/2+x,1/2+y,1/2-z
1/2-x,1/2+y,1/2+z
1/2+x,1/2-y,1/2+z
loop_
_atom_site_type_symbol
_atom_site_label
_atom_site_fract_x
_atom_site_fract_y
_atom_site_fract_z
Si Si1 0.223550 0.400560 0.610964
Si Si2 0.560138 0.000000 0.886160
Si Si3 0.057436 0.000000 0.618421
Si Si4 0.879848 0.342670 0.695344
Si Si5 0.831650 0.399818 0.112174
Si Si6 0.118911 0.164575 0.618093
Si Si7 0.222697 0.099247 0.306621
O O1 0.243780 0.379758 0.500000
O O2 0.209196 0.500000 0.624370
O O3 0.171766 0.350114 0.631359
O O4 0.267415 0.376908 0.690429
O O5 0.579981 0.084793 0.832279
O O6 0.500000 0.000000 0.878561
O O7 0.579117 0.000000 0.000000
O O8 0.086103 0.084521 0.658268
O O9 0.057858 0.000000 0.500000
O O10 0.000000 0.000000 0.659969
O O11 0.867679 0.347414 0.813016
O O12 0.903829 0.250328 0.668510
O O13 0.839987 0.500000 0.133683
O O14 0.772646 0.377243 0.130059
O O15 0.846756 0.374750 0.000000
O O16 0.115402 0.171802 0.500000
O O17 0.177291 0.156146 0.651883
O O18 0.208111 0.000000 0.320373
#
# Coordination Sequence:
#
# PCOD8292306 Si02
#       7
#    16   8   8  16  16  16  16
#     4   9  16  28  48  71 106 144 168 199 246 307
#     4  11  22  36  54  75 103 133 164 208 258 309
#     4   9  20  38  55  72  97 131 169 213 265 308
#     4  11  20  34  51  78 104 136 173 206 252 309
#     4   9  17  31  53  76 106 143 174 204 242 297
#     4  11  21  32  52  76 103 136 171 213 255 304
#     4   9  17  30  47  73 101 135 180 213 245 292
#
# _framework density 17.439684
#
# number of rings (size 3 to 8) (size 9 to 14) (size 15 to 20)
#    0.000    2.167    2.500    3.000    0.000    4.000 
#    0.000    4.167    0.000    1.000    0.000    0.000 
#    0.000    4.667    0.000    0.000    0.000    0.000 
#
# Total GULP energy -595235.217373 kJ/mol
# GULP energy per Si atom -12400.733695 kJ/mol
# Density = 1.739999 g / cm^3
# Si number density = 17.439684 Si / 1000 Ang^3
#
#
#
# Elastic Constant Matrix: (Units=GPa)
#
#
# Indices 1 2 3 4 5 6 
#
# 1 65.3055 42.9475 30.7393 0.0000 0.0000 0.0000
# 2 42.9475 115.1834 40.3799 0.0000 0.0000 0.0000
# 3 30.7393 40.3799 116.9747 0.0000 0.0000 0.0000
# 4 0.0000 0.0000 0.0000 23.7951 0.0000 0.0000
# 5 0.0000 0.0000 0.0000 0.0000 15.9319 0.0000
# 6 0.0000 0.0000 0.0000 0.0000 0.0000 8.5073
#
#
#
# Elastic Compliance Matrix: (Units=1/GPa)
#
#
# Indices 1 2 3 4 5 6 
#
# 1 0.021322 -0.006810 -0.003252 0.000000 0.000000 0.000000
# 2 -0.006810 0.012052 -0.002371 0.000000 0.000000 0.000000
# 3 -0.003252 -0.002371 0.010222 0.000000 0.000000 0.000000
# 4 0.000000 0.000000 0.000000 0.042026 0.000000 0.000000
# 5 0.000000 0.000000 0.000000 0.000000 0.062767 0.000000
# 6 0.000000 0.000000 0.000000 0.000000 0.000000 0.117546
#
#
# Mechanical properties :
#
#
# Convention : Reuss Voigt Hill
#
# Bulk Modulus (GPa) = 53.39084 58.39964 55.89524
# Shear Modulus (GPa) = 16.83248 21.87331 19.35290
#
# Velocity S-wave (km/s) = 3.11011 3.54535 3.33484
# Velocity P-wave (km/s) = 6.60137 7.09356 6.85189
#
# Compressibility (1/GPa) = 0.01872981
#
# Stress axis : x y z
#
# Youngs Moduli (GPa) = 46.89984 82.97274 97.82877
#
# Poissons Ratio (x) = 0.56505 0.31817
# Poissons Ratio (y) = 0.31939 0.23194
# Poissons Ratio (z) = 0.15253 0.19672
#
# Static dielectric constant tensor:
#      x y z
#    x 2.972420 0.000000 0.000000 
#    y 0.000000 3.250750 0.000000 
#    z 0.000000 0.000000 3.326260 
# 
# 
# High freq. dielectric constant tensor:
#      x y z
#    x 1.639160 0.000000 0.000000 
#    y 0.000000 1.674860 0.000000 
#    z 0.000000 0.000000 1.665750 
# 
# From -- ./inp_files/39220.got.cif
#   From: 2010.06.25/outbox.cif.g09.slc.cpg/sg71_20_cif.got.tgz:39220.got - 2010.06.28 04:59:45.
