data_PCOD8292784
_publ_section_title
;
Structure prediction by ZEFSAII (Michael W. Deem and Ramdas Pophale) SiO2 
 PCOD8292784
Probable space group: I M M M
;
_chemical_formula_sum "Si O2"
_cell_formula_units_Z 72
_cell_length_a 32.636016
_cell_length_b 12.953507
_cell_length_c 9.349873
_cell_angle_alpha 90.000000
_cell_angle_beta 90.000000
_cell_angle_gamma 90.000000
_cell_volume 3952.666868
_symmetry_space_group_name_H-M "I M M M"
_symmetry_group_IT_number 71
_symmetry_cell_setting 'orthorhombic'
loop_
_space_group_symop_operation_xyz
x,y,z
-x,-y,z
x,-y,-z
-x,y,-z
-x,-y,-z
x,y,-z
-x,y,z
x,-y,z
1/2+x,1/2+y,1/2+z
1/2-x,1/2-y,1/2+z
1/2+x,1/2-y,1/2-z
1/2-x,1/2+y,1/2-z
1/2-x,1/2-y,1/2-z
1/2+x,1/2+y,1/2-z
1/2-x,1/2+y,1/2+z
1/2+x,1/2-y,1/2+z
loop_
_atom_site_type_symbol
_atom_site_label
_atom_site_fract_x
_atom_site_fract_y
_atom_site_fract_z
Si Si1 0.452266 0.200242 0.166888
Si Si2 0.048690 0.500000 0.837580
Si Si3 0.276662 0.882840 0.664809
Si Si4 0.895695 0.114285 0.669833
Si Si5 0.189708 0.202999 0.332504
O O1 0.500000 0.219956 0.195282
O O2 0.435607 0.101944 0.255285
O O3 0.428691 0.301846 0.223485
O O4 0.443581 0.178785 0.000000
O O5 0.000000 0.500000 0.836199
O O6 0.065666 0.500000 0.000000
O O7 0.283010 0.853931 0.500000
O O8 0.229245 0.865206 0.707926
O O9 0.307284 0.813910 0.757333
O O10 0.288403 0.000000 0.697158
O O11 0.896013 0.110780 0.500000
O O12 0.850467 0.144656 0.725018
O O13 0.906743 0.000000 0.730060
O O14 0.186271 0.223473 0.500000
#
# Coordination Sequence:
#
# PCOD8292784 Si02
#       5
#    16   8  16  16  16
#     4   9  17  30  50  75 100 126 158 198 241 283
#     4   9  17  31  51  71  93 125 163 199 237 285
#     4   9  17  30  48  68  92 122 155 194 239 283
#     4   9  17  30  49  73  99 126 159 198 239 286
#     4   9  17  30  48  69  92 122 159 194 231 281
#
# _framework density 18.21555
#
# number of rings (size 3 to 8) (size 9 to 14) (size 15 to 20)
#    0.000    3.000    0.000    1.000    0.000    4.889 
#    2.000    3.333    0.000    4.000    0.000    3.111 
#    0.000    0.000    0.000    0.000    0.000    0.000 
#
# Total GULP energy -446339.019672 kJ/mol
# GULP energy per Si atom -12398.306102 kJ/mol
# Density = 1.817409 g / cm^3
# Si number density = 18.215550 Si / 1000 Ang^3
#
#
#
# Elastic Constant Matrix: (Units=GPa)
#
#
# Indices 1 2 3 4 5 6 
#
# 1 64.0692 61.8867 22.9500 0.0000 0.0000 0.0000
# 2 61.8867 171.5260 50.4141 0.0000 0.0000 0.0000
# 3 22.9500 50.4141 45.0953 0.0000 0.0000 0.0000
# 4 0.0000 0.0000 0.0000 21.5927 0.0000 0.0000
# 5 0.0000 0.0000 0.0000 0.0000 15.8911 0.0000
# 6 0.0000 0.0000 0.0000 0.0000 0.0000 30.2947
#
#
#
# Elastic Compliance Matrix: (Units=1/GPa)
#
#
# Indices 1 2 3 4 5 6 
#
# 1 0.024395 -0.007674 -0.003836 0.000000 0.000000 0.000000
# 2 -0.007674 0.011097 -0.008501 0.000000 0.000000 0.000000
# 3 -0.003836 -0.008501 0.033631 0.000000 0.000000 0.000000
# 4 0.000000 0.000000 0.000000 0.046312 0.000000 0.000000
# 5 0.000000 0.000000 0.000000 0.000000 0.062928 0.000000
# 6 0.000000 0.000000 0.000000 0.000000 0.000000 0.033009
#
#
# Mechanical properties :
#
#
# Convention : Reuss Voigt Hill
#
# Bulk Modulus (GPa) = 34.36219 61.24355 47.80287
# Shear Modulus (GPa) = 19.15015 23.25166 21.20091
#
# Velocity S-wave (km/s) = 3.24591 3.57665 3.41529
# Velocity P-wave (km/s) = 5.74047 7.12398 6.46932
#
# Compressibility (1/GPa) = 0.02910175
#
# Stress axis : x y z
#
# Youngs Moduli (GPa) = 40.99193 90.11097 29.73483
#
# Poissons Ratio (x) = 0.69155 0.11405
# Poissons Ratio (y) = 0.31459 0.25277
# Poissons Ratio (z) = 0.15723 0.76600
#
# Static dielectric constant tensor:
#      x y z
#    x 3.263530 0.000000 0.000000 
#    y 0.000000 3.635330 0.000000 
#    z 0.000000 0.000000 3.122300 
# 
# 
# High freq. dielectric constant tensor:
#      x y z
#    x 1.691220 0.000000 0.000000 
#    y 0.000000 1.716210 0.000000 
#    z 0.000000 0.000000 1.672910 
# 
# From -- ./inp_files/29603.got.cif
#   From: 2010.06.25/outbox.cif.g09.slc.cpg/sg71_15_cif.got.tgz:29603.got - 2010.06.28 04:59:45.
