data_PCOD8292909
_publ_section_title
;
Structure prediction by ZEFSAII (Michael W. Deem and Ramdas Pophale) SiO2 
 PCOD8292909
Probable space group: I B A M
;
_chemical_formula_sum "Si O2"
_cell_formula_units_Z 80
_cell_length_a 11.305344
_cell_length_b 14.620510
_cell_length_c 23.014308
_cell_angle_alpha 90.000000
_cell_angle_beta 90.000000
_cell_angle_gamma 90.000000
_cell_volume 3804.032553
_symmetry_space_group_name_H-M "I B A M"
_symmetry_group_IT_number 72
_symmetry_cell_setting 'orthorhombic'
loop_
_space_group_symop_operation_xyz
x,y,z
-x,-y,z
x,-y,1/2-z
-x,y,1/2-z
-x,-y,-z
x,y,-z
-x,y,1/2+z
x,-y,1/2+z
1/2+x,1/2+y,1/2+z
1/2-x,1/2-y,1/2+z
1/2+x,1/2-y,-z
1/2-x,1/2+y,-z
1/2-x,1/2-y,1/2-z
1/2+x,1/2+y,1/2-z
1/2-x,1/2+y,z
1/2+x,1/2-y,z
loop_
_atom_site_type_symbol
_atom_site_label
_atom_site_fract_x
_atom_site_fract_y
_atom_site_fract_z
Si Si1 0.137641 0.480921 0.566160
Si Si2 0.227543 0.867915 0.866770
Si Si3 0.240372 0.667029 0.855291
Si Si4 0.882806 0.337166 0.734510
Si Si5 0.477003 0.645242 0.187557
O O1 0.169941 0.457454 0.500000
O O2 0.224602 0.563684 0.584332
O O3 0.154520 0.392284 0.605700
O O4 0.000000 0.500000 0.573257
O O5 0.260392 0.764660 0.886839
O O6 0.295735 0.894022 0.806788
O O7 0.086663 0.872226 0.855541
O O8 0.186483 0.694449 0.792294
O O9 0.360852 0.607137 0.845981
O O10 0.939720 0.250607 0.699927
O O11 0.000000 0.397763 0.750000
O O12 0.500000 0.596451 0.250000
#
# Coordination Sequence:
#
# PCOD8292909 Si02
#       5
#    16  16  16  16  16
#     4  11  28  49  65  90 128 176 242 289 319 394
#     4  11  21  39  68  96 135 176 210 269 348 398
#     4  11  21  38  68  99 135 176 212 269 344 404
#     4  10  17  31  61 101 135 165 206 257 326 416
#     4  10  17  34  62  98 139 168 195 255 329 415
#
# _framework density 21.030313
#
# number of rings (size 3 to 8) (size 9 to 14) (size 15 to 20)
#    0.000    1.400    6.000    2.400    2.800    2.400 
#    0.000    5.000    0.000    0.000    0.000    0.000 
#    0.000    0.000    0.000    0.000    0.000    0.000 
#
# Total GULP energy -495597.213211 kJ/mol
# GULP energy per Si atom -12389.930330 kJ/mol
# Density = 2.098245 g / cm^3
# Si number density = 21.030313 Si / 1000 Ang^3
#
#
#
# Elastic Constant Matrix: (Units=GPa)
#
#
# Indices 1 2 3 4 5 6 
#
# 1 145.8465 13.3813 36.2252 0.0000 0.0000 0.0000
# 2 13.3813 63.8171 36.7182 0.0000 0.0000 0.0000
# 3 36.2252 36.7182 97.3702 0.0000 0.0000 0.0000
# 4 0.0000 0.0000 0.0000 27.2730 0.0000 0.0000
# 5 0.0000 0.0000 0.0000 0.0000 32.4214 0.0000
# 6 0.0000 0.0000 0.0000 0.0000 0.0000 24.5867
#
#
#
# Elastic Compliance Matrix: (Units=1/GPa)
#
#
# Indices 1 2 3 4 5 6 
#
# 1 0.007555 0.000042 -0.002827 0.000000 0.000000 0.000000
# 2 0.000042 0.020012 -0.007562 0.000000 0.000000 0.000000
# 3 -0.002827 -0.007562 0.014173 0.000000 0.000000 0.000000
# 4 0.000000 0.000000 0.000000 0.036666 0.000000 0.000000
# 5 0.000000 0.000000 0.000000 0.000000 0.030844 0.000000
# 6 0.000000 0.000000 0.000000 0.000000 0.000000 0.040672
#
#
# Mechanical properties :
#
#
# Convention : Reuss Voigt Hill
#
# Bulk Modulus (GPa) = 47.51279 53.29815 50.40547
# Shear Modulus (GPa) = 28.14819 31.57015 29.85917
#
# Velocity S-wave (km/s) = 3.66246 3.87870 3.77213
# Velocity P-wave (km/s) = 6.36604 6.74223 6.55683
#
# Compressibility (1/GPa) = 0.02104697
#
# Stress axis : x y z
#
# Youngs Moduli (GPa) = 132.36787 49.97009 70.55488
#
# Poissons Ratio (x) = -0.00211 0.19943
# Poissons Ratio (y) = -0.00559 0.53355
# Poissons Ratio (z) = 0.37414 0.37788
#
# Static dielectric constant tensor:
#      x y z
#    x 4.760310 0.000000 0.000000 
#    y 0.000000 3.400930 0.000000 
#    z 0.000000 0.000000 3.635560 
# 
# 
# High freq. dielectric constant tensor:
#      x y z
#    x 1.858210 0.000000 0.000000 
#    y 0.000000 1.796830 0.000000 
#    z 0.000000 0.000000 1.783100 
# 
# From -- ./inp_files/43090.got.cif
#   From: 2010.03.12/outbox.cif.g09.slc.cpg/sg72_22_cif.got.tgz:43090.got - 2010.04.16 14:54:00.
