data_PCOD8292551
_publ_section_title
;
Structure prediction by ZEFSAII (Michael W. Deem and Ramdas Pophale) SiO2 
 PCOD8292551
Probable space group: I M M M
;
_chemical_formula_sum "Si O2"
_cell_formula_units_Z 64
_cell_length_a 29.654395
_cell_length_b 8.770331
_cell_length_c 12.552697
_cell_angle_alpha 90.000000
_cell_angle_beta 90.000000
_cell_angle_gamma 90.000000
_cell_volume 3264.691123
_symmetry_space_group_name_H-M "I M M M"
_symmetry_group_IT_number 71
_symmetry_cell_setting 'orthorhombic'
loop_
_space_group_symop_operation_xyz
x,y,z
-x,-y,z
x,-y,-z
-x,y,-z
-x,-y,-z
x,y,-z
-x,y,z
x,-y,z
1/2+x,1/2+y,1/2+z
1/2-x,1/2-y,1/2+z
1/2+x,1/2-y,1/2-z
1/2-x,1/2+y,1/2-z
1/2-x,1/2-y,1/2-z
1/2+x,1/2+y,1/2-z
1/2-x,1/2+y,1/2+z
1/2+x,1/2-y,1/2+z
loop_
_atom_site_type_symbol
_atom_site_label
_atom_site_fract_x
_atom_site_fract_y
_atom_site_fract_z
Si Si1 0.500000 0.181190 0.625954
Si Si2 0.946841 0.672605 0.500000
Si Si3 0.751426 0.670295 0.117716
Si Si4 0.323884 0.320597 0.273958
Si Si5 0.576562 0.682292 0.774257
O O1 0.500000 0.227603 0.500000
O O2 0.456613 0.248038 0.686112
O O3 0.500000 0.000000 0.638453
O O4 0.927338 0.500000 0.500000
O O5 0.931600 0.761012 0.394142
O O6 0.000000 0.666519 0.500000
O O7 0.761304 0.500000 0.159285
O O8 0.710525 0.745424 0.184405
O O9 0.798980 0.763243 0.119077
O O10 0.732265 0.669376 0.000000
O O11 0.327533 0.500000 0.269394
O O12 0.374104 0.256543 0.259960
O O13 0.571824 0.500000 0.772704
#
# Coordination Sequence:
#
# PCOD8292551 Si02
#       5
#     8   8  16  16  16
#     4  11  25  44  63  84 117 157 195 243 294 347
#     4  11  23  39  61  89 124 156 188 240 294 351
#     4   9  18  34  56  79 110 151 189 229 278 335
#     4   9  20  36  55  82 114 146 185 235 282 332
#     4  11  23  39  63  90 117 154 197 243 294 348
#
# _framework density 19.603691999999999
#
# number of rings (size 3 to 8) (size 9 to 14) (size 15 to 20)
#    0.000    2.000    1.250    1.500    1.750    5.000 
#    0.000    5.000    0.000    0.000    0.000    0.000 
#    0.000    0.000    0.000    0.000    0.000    0.000 
#
# Total GULP energy -396515.580946 kJ/mol
# GULP energy per Si atom -12391.111905 kJ/mol
# Density = 1.955907 g / cm^3
# Si number density = 19.603692 Si / 1000 Ang^3
#
#
#
# Elastic Constant Matrix: (Units=GPa)
#
#
# Indices 1 2 3 4 5 6 
#
# 1 174.4606 46.6208 60.9014 0.0000 0.0000 0.0000
# 2 46.6208 66.4042 43.8064 0.0000 0.0000 0.0000
# 3 60.9014 43.8064 123.3336 0.0000 0.0000 0.0000
# 4 0.0000 0.0000 0.0000 37.8752 0.0000 0.0000
# 5 0.0000 0.0000 0.0000 0.0000 18.6557 0.0000
# 6 0.0000 0.0000 0.0000 0.0000 0.0000 29.4309
#
#
#
# Elastic Compliance Matrix: (Units=1/GPa)
#
#
# Indices 1 2 3 4 5 6 
#
# 1 0.007570 -0.003720 -0.002416 0.000000 0.000000 0.000000
# 2 -0.003720 0.021496 -0.005798 0.000000 0.000000 0.000000
# 3 -0.002416 -0.005798 0.011361 0.000000 0.000000 0.000000
# 4 0.000000 0.000000 0.000000 0.026402 0.000000 0.000000
# 5 0.000000 0.000000 0.000000 0.000000 0.053603 0.000000
# 6 0.000000 0.000000 0.000000 0.000000 0.000000 0.033978
#
#
# Mechanical properties :
#
#
# Convention : Reuss Voigt Hill
#
# Bulk Modulus (GPa) = 60.39797 74.09508 67.24652
# Shear Modulus (GPa) = 27.20368 31.38369 29.29368
#
# Velocity S-wave (km/s) = 3.72920 4.00547 3.86980
# Velocity P-wave (km/s) = 7.02986 7.69872 7.37188
#
# Compressibility (1/GPa) = 0.01655685
#
# Stress axis : x y z
#
# Youngs Moduli (GPa) = 132.10594 46.51981 88.02276
#
# Poissons Ratio (x) = 0.17307 0.21270
# Poissons Ratio (y) = 0.49148 0.51036
# Poissons Ratio (z) = 0.31923 0.26972
#
# Static dielectric constant tensor:
#      x y z
#    x 3.910490 0.000000 0.000000 
#    y 0.000000 3.682260 0.000000 
#    z 0.000000 0.000000 3.442370 
# 
# 
# High freq. dielectric constant tensor:
#      x y z
#    x 1.771490 0.000000 0.000000 
#    y 0.000000 1.763790 0.000000 
#    z 0.000000 0.000000 1.765370 
# 
# From -- ./inp_files/29453.got.cif
#   From: 2010.06.25/outbox.cif.g09.slc.cpg/sg71_15_cif.got.tgz:29453.got - 2010.06.28 04:59:45.
