data_PCOD8292238
_publ_section_title
;
Structure prediction by ZEFSAII (Michael W. Deem and Ramdas Pophale) SiO2 
 PCOD8292238
Probable space group: I M M M
;
_chemical_formula_sum "Si O2"
_cell_formula_units_Z 112
_cell_length_a 22.653376
_cell_length_b 22.491739
_cell_length_c 13.079131
_cell_angle_alpha 90.000000
_cell_angle_beta 90.000000
_cell_angle_gamma 90.000000
_cell_volume 6663.998004
_symmetry_space_group_name_H-M "I M M M"
_symmetry_group_IT_number 71
_symmetry_cell_setting 'orthorhombic'
loop_
_space_group_symop_operation_xyz
x,y,z
-x,-y,z
x,-y,-z
-x,y,-z
-x,-y,-z
x,y,-z
-x,y,z
x,-y,z
1/2+x,1/2+y,1/2+z
1/2-x,1/2-y,1/2+z
1/2+x,1/2-y,1/2-z
1/2-x,1/2+y,1/2-z
1/2-x,1/2-y,1/2-z
1/2+x,1/2+y,1/2-z
1/2-x,1/2+y,1/2+z
1/2+x,1/2-y,1/2+z
loop_
_atom_site_type_symbol
_atom_site_label
_atom_site_fract_x
_atom_site_fract_y
_atom_site_fract_z
Si Si1 0.872795 0.567831 0.619110
Si Si2 0.567516 0.822778 0.798944
Si Si3 0.754522 0.370330 0.382263
Si Si4 0.568029 0.259328 0.384003
Si Si5 0.145860 0.152428 0.758354
Si Si6 0.931775 0.068900 0.617082
Si Si7 0.672508 0.244491 0.115173
O O1 0.885403 0.582295 0.500000
O O2 0.887191 0.500000 0.645773
O O3 0.914927 0.608041 0.690221
O O4 0.804374 0.581003 0.644023
O O5 0.500000 0.813553 0.831657
O O6 0.578469 0.800510 0.682535
O O7 0.607017 0.783418 0.875062
O O8 0.736396 0.374344 0.500000
O O9 0.696495 0.384553 0.316419
O O10 0.778987 0.304730 0.355307
O O11 0.588033 0.245439 0.500000
O O12 0.500000 0.278899 0.379553
O O13 0.605401 0.314124 0.340730
O O14 0.107249 0.107760 0.692322
O O15 0.180021 0.198954 0.686833
O O16 0.915311 0.084097 0.500000
O O17 0.000000 0.084190 0.637160
O O18 0.919390 0.000000 0.639848
O O19 0.681396 0.266225 0.000000
#
# Coordination Sequence:
#
# PCOD8292238 Si02
#       7
#    16  16  16  16  16  16  16
#     4   9  18  32  48  67  94 125 155 193 240 281
#     4   9  17  29  47  70  94 123 156 187 228 283
#     4   9  18  31  45  64  93 125 154 189 234 278
#     4   9  18  31  46  68  98 124 147 185 234 276
#     4  11  18  28  50  74  88 117 163 197 221 269
#     4   9  19  35  51  69  97 127 152 186 234 281
#     4   9  18  30  43  66  99 124 146 187 240 284
#
# _framework density 16.806728
#
# number of rings (size 3 to 8) (size 9 to 14) (size 15 to 20)
#    0.000    2.714    0.000    3.429    0.000    2.571 
#    0.000    0.714    0.000    5.143    0.000    7.000 
#    0.000    0.000    0.000    0.000    0.000    0.000 
#
# Total GULP energy -694328.300837 kJ/mol
# GULP energy per Si atom -12398.719658 kJ/mol
# Density = 1.676847 g / cm^3
# Si number density = 16.806728 Si / 1000 Ang^3
#
#
#
# Elastic Constant Matrix: (Units=GPa)
#
#
# Indices 1 2 3 4 5 6 
#
# 1 74.5867 21.9916 41.6068 0.0000 0.0000 0.0000
# 2 21.9916 55.9966 32.0293 0.0000 0.0000 0.0000
# 3 41.6068 32.0293 81.2843 0.0000 0.0000 0.0000
# 4 0.0000 0.0000 0.0000 23.5292 0.0000 0.0000
# 5 0.0000 0.0000 0.0000 0.0000 30.2061 0.0000
# 6 0.0000 0.0000 0.0000 0.0000 0.0000 16.6100
#
#
#
# Elastic Compliance Matrix: (Units=1/GPa)
#
#
# Indices 1 2 3 4 5 6 
#
# 1 0.019023 -0.002455 -0.008770 0.000000 0.000000 0.000000
# 2 -0.002455 0.023371 -0.007953 0.000000 0.000000 0.000000
# 3 -0.008770 -0.007953 0.019925 0.000000 0.000000 0.000000
# 4 0.000000 0.000000 0.000000 0.042500 0.000000 0.000000
# 5 0.000000 0.000000 0.000000 0.000000 0.033106 0.000000
# 6 0.000000 0.000000 0.000000 0.000000 0.000000 0.060205
#
#
# Mechanical properties :
#
#
# Convention : Reuss Voigt Hill
#
# Bulk Modulus (GPa) = 41.72807 44.79147 43.25977
# Shear Modulus (GPa) = 20.45210 21.81839 21.13525
#
# Velocity S-wave (km/s) = 3.49219 3.60695 3.55004
# Velocity P-wave (km/s) = 6.41425 6.63744 6.52680
#
# Compressibility (1/GPa) = 0.02396469
#
# Stress axis : x y z
#
# Youngs Moduli (GPa) = 52.56738 42.78795 50.18731
#
# Poissons Ratio (x) = 0.10503 0.44015
# Poissons Ratio (y) = 0.12903 0.39913
# Poissons Ratio (z) = 0.46102 0.34028
#
# Static dielectric constant tensor:
#      x y z
#    x 3.103830 0.000000 0.000000 
#    y 0.000000 3.027760 0.000000 
#    z 0.000000 0.000000 3.127060 
# 
# 
# High freq. dielectric constant tensor:
#      x y z
#    x 1.648820 0.000000 0.000000 
#    y 0.000000 1.632840 0.000000 
#    z 0.000000 0.000000 1.640690 
# 
# From -- ./inp_files/26252.got.cif
#   From: 2010.06.25/outbox.cif.g09.slc.cpg/sg71_14_cif.got.tgz:26252.got - 2010.06.28 04:59:45.
