data_PCOD8292136
_publ_section_title
;
Structure prediction by ZEFSAII (Michael W. Deem and Ramdas Pophale) SiO2 
 PCOD8292136
Probable space group: I M M M
;
_chemical_formula_sum "Si O2"
_cell_formula_units_Z 64
_cell_length_a 14.694349
_cell_length_b 27.444779
_cell_length_c 7.593474
_cell_angle_alpha 90.000000
_cell_angle_beta 90.000000
_cell_angle_gamma 90.000000
_cell_volume 3062.320197
_symmetry_space_group_name_H-M "I M M M"
_symmetry_group_IT_number 71
_symmetry_cell_setting 'orthorhombic'
loop_
_space_group_symop_operation_xyz
x,y,z
-x,-y,z
x,-y,-z
-x,y,-z
-x,-y,-z
x,y,-z
-x,y,z
x,-y,z
1/2+x,1/2+y,1/2+z
1/2-x,1/2-y,1/2+z
1/2+x,1/2-y,1/2-z
1/2-x,1/2+y,1/2-z
1/2-x,1/2-y,1/2-z
1/2+x,1/2+y,1/2-z
1/2-x,1/2+y,1/2+z
1/2+x,1/2-y,1/2+z
loop_
_atom_site_type_symbol
_atom_site_label
_atom_site_fract_x
_atom_site_fract_y
_atom_site_fract_z
Si Si1 0.350877 0.765282 0.794718
Si Si2 0.235215 0.944757 0.302490
Si Si3 0.609888 0.407643 0.500000
Si Si4 0.102800 0.374957 0.292676
Si Si5 0.595053 0.303251 0.500000
O O1 0.250000 0.750000 0.750000
O O2 0.369997 0.820277 0.735860
O O3 0.407638 0.728889 0.675337
O O4 0.374199 0.757336 0.000000
O O5 0.196778 0.938989 0.500000
O O6 0.152352 0.931350 0.174179
O O7 0.325961 0.912346 0.288461
O O8 0.265686 0.000000 0.262934
O O9 0.500000 0.415440 0.500000
O O10 0.655865 0.352142 0.500000
O O11 0.106785 0.380100 0.500000
O O12 0.000000 0.385799 0.224473
O O13 0.500000 0.331428 0.500000
#
# Coordination Sequence:
#
# PCOD8292136 Si02
#       5
#    16  16   8  16   8
#     4  11  22  38  60  90 129 172 216 264 310 367
#     4  11  25  44  68  97 129 168 217 274 338 400
#     4  11  25  46  70  96 130 169 217 277 337 401
#     4  10  22  40  64  95 134 179 223 266 322 388
#     4  11  24  39  60  92 125 164 211 254 312 380
#
# _framework density 20.899187000000001
#
# number of rings (size 3 to 8) (size 9 to 14) (size 15 to 20)
#    0.000    1.250    2.500    2.625    1.750    7.000 
#    0.000    6.250    0.000    0.000    0.000    0.000 
#    0.000    0.000    0.000    0.000    0.000    0.000 
#
# Total GULP energy -396466.535067 kJ/mol
# GULP energy per Si atom -12389.579221 kJ/mol
# Density = 2.085162 g / cm^3
# Si number density = 20.899187 Si / 1000 Ang^3
#
#
#
# Elastic Constant Matrix: (Units=GPa)
#
#
# Indices 1 2 3 4 5 6 
#
# 1 136.8933 53.1609 48.7877 0.0054 0.0001 -0.0016
# 2 53.1609 157.5416 73.5970 0.0524 -0.0165 -0.0140
# 3 48.7877 73.5970 132.1528 0.1600 0.0151 -0.0324
# 4 0.0054 0.0524 0.1600 32.5944 0.0008 -0.0129
# 5 0.0001 -0.0165 0.0151 0.0008 11.5165 0.0059
# 6 -0.0016 -0.0140 -0.0324 -0.0129 0.0059 17.2051
#
#
#
# Elastic Compliance Matrix: (Units=1/GPa)
#
#
# Indices 1 2 3 4 5 6 
#
# 1 0.008843 -0.001972 -0.002166 0.000012 0.000000 -0.000005
# 2 -0.001972 0.009019 -0.004295 0.000007 0.000019 -0.000001
# 3 -0.002166 -0.004295 0.010759 -0.000046 -0.000020 0.000017
# 4 0.000012 0.000007 -0.000046 0.030680 -0.000002 0.000023
# 5 0.000000 0.000019 -0.000020 -0.000002 0.086832 -0.000030
# 6 -0.000005 -0.000001 0.000017 0.000023 -0.000030 0.058122
#
#
# Mechanical properties :
#
#
# Convention : Reuss Voigt Hill
#
# Bulk Modulus (GPa) = 85.07478 86.40877 85.74177
# Shear Modulus (GPa) = 22.21826 28.99934 25.60880
#
# Velocity S-wave (km/s) = 3.26408 3.72907 3.50430
# Velocity P-wave (km/s) = 7.41628 7.74445 7.58214
#
# Compressibility (1/GPa) = 0.01175436
#
# Stress axis : x y z
#
# Youngs Moduli (GPa) = 113.08631 110.87260 92.94732
#
# Poissons Ratio (x) = 0.21862 0.20136
# Poissons Ratio (y) = 0.22299 0.39921
# Poissons Ratio (z) = 0.24499 0.47620
#
# Static dielectric constant tensor:
#      x y z
#    x 3.803630 0.000040 0.000050 
#    y 0.000040 3.909420 -0.000190 
#    z 0.000050 -0.000190 3.639510 
# 
# 
# High freq. dielectric constant tensor:
#      x y z
#    x 1.824900 0.000000 0.000010 
#    y 0.000000 1.830380 -0.000010 
#    z 0.000010 -0.000010 1.825420 
# 
# From -- ./inp_files/5556.got.cif
#   From: 2010.06.25/outbox.cif.g09.slc.cpg/sg71_3_cif.got.tgz:5556.got - 2010.06.28 04:59:45.
