data_PCOD8292625
_publ_section_title
;
Structure prediction by ZEFSAII (Michael W. Deem and Ramdas Pophale) SiO2 
 PCOD8292625
Probable space group: I M M M
;
_chemical_formula_sum "Si O2"
_cell_formula_units_Z 104
_cell_length_a 28.418434
_cell_length_b 24.638558
_cell_length_c 9.699167
_cell_angle_alpha 90.000000
_cell_angle_beta 90.000000
_cell_angle_gamma 90.000000
_cell_volume 6791.252316
_symmetry_space_group_name_H-M "I M M M"
_symmetry_group_IT_number 71
_symmetry_cell_setting 'orthorhombic'
loop_
_space_group_symop_operation_xyz
x,y,z
-x,-y,z
x,-y,-z
-x,y,-z
-x,-y,-z
x,y,-z
-x,y,z
x,-y,z
1/2+x,1/2+y,1/2+z
1/2-x,1/2-y,1/2+z
1/2+x,1/2-y,1/2-z
1/2-x,1/2+y,1/2-z
1/2-x,1/2-y,1/2-z
1/2+x,1/2+y,1/2-z
1/2-x,1/2+y,1/2+z
1/2+x,1/2-y,1/2+z
loop_
_atom_site_type_symbol
_atom_site_label
_atom_site_fract_x
_atom_site_fract_y
_atom_site_fract_z
Si Si1 0.268743 0.564429 0.346938
Si Si2 0.553103 0.353885 0.664148
Si Si3 0.000000 0.561173 0.164424
Si Si4 0.127393 0.939423 0.164257
Si Si5 0.091325 0.376576 0.164026
Si Si6 0.947328 0.734121 0.836255
Si Si7 0.683823 0.936472 0.339638
O O1 0.258949 0.588318 0.500000
O O2 0.267795 0.500000 0.354581
O O3 0.320592 0.581840 0.293085
O O4 0.229289 0.585696 0.241770
O O5 0.554755 0.356173 0.500000
O O6 0.500000 0.366448 0.714977
O O7 0.588609 0.398453 0.727328
O O8 0.569044 0.293741 0.715485
O O9 0.046511 0.590686 0.222321
O O10 0.000000 0.500000 0.220311
O O11 0.000000 0.562627 0.000000
O O12 0.117703 0.000000 0.222960
O O13 0.124535 0.941196 0.000000
O O14 0.087483 0.313803 0.215153
O O15 0.139205 0.403440 0.219647
O O16 0.091274 0.380300 0.000000
O O17 0.000000 0.721940 0.781708
O O18 0.948584 0.734059 0.000000
O O19 0.692632 0.924752 0.500000
O O20 0.674563 0.000000 0.313185
#
# Coordination Sequence:
#
# PCOD8292625 Si02
#       7
#    16  16   8  16  16  16  16
#     4   8  14  25  39  52  69  97 128 151 176 218
#     4   8  13  19  29  47  70  94 118 144 175 215
#     4   9  14  18  26  42  65  91 114 138 176 222
#     4   8  13  21  33  49  68  91 119 148 178 214
#     4   9  14  20  30  45  68  95 117 143 180 219
#     4   8  12  19  29  42  64  95 124 142 167 216
#     4   9  16  24  35  54  76  94 119 157 192 217
#
# _framework density 15.313817999999999
#
# number of rings (size 3 to 8) (size 9 to 14) (size 15 to 20)
#    0.000    3.615    0.769    2.308    0.000    2.154 
#    0.000    1.538    0.000    0.923    0.000    0.538 
#    0.000    3.692    0.000    9.385    0.000   10.462 
#
# Total GULP energy -644251.940862 kJ/mol
# GULP energy per Si atom -12389.460401 kJ/mol
# Density = 1.527896 g / cm^3
# Si number density = 15.313818 Si / 1000 Ang^3
#
#
#
# Elastic Constant Matrix: (Units=GPa)
#
#
# Indices 1 2 3 4 5 6 
#
# 1 141.8103 78.7420 25.1373 0.0000 0.0000 0.0000
# 2 78.7420 104.3702 15.5295 0.0000 0.0000 0.0000
# 3 25.1373 15.5295 15.8750 0.0000 0.0000 0.0000
# 4 0.0000 0.0000 0.0000 4.4044 0.0000 0.0000
# 5 0.0000 0.0000 0.0000 0.0000 14.7936 0.0000
# 6 0.0000 0.0000 0.0000 0.0000 0.0000 16.2969
#
#
#
# Elastic Compliance Matrix: (Units=1/GPa)
#
#
# Indices 1 2 3 4 5 6 
#
# 1 0.014467 -0.008785 -0.014314 0.000000 0.000000 0.000000
# 2 -0.008785 0.016548 -0.002278 0.000000 0.000000 0.000000
# 3 -0.014314 -0.002278 0.087886 0.000000 0.000000 0.000000
# 4 0.000000 0.000000 0.000000 0.227046 0.000000 0.000000
# 5 0.000000 0.000000 0.000000 0.000000 0.067597 0.000000
# 6 0.000000 0.000000 0.000000 0.000000 0.000000 0.061361
#
#
# Mechanical properties :
#
#
# Convention : Reuss Voigt Hill
#
# Bulk Modulus (GPa) = 14.67397 55.65255 35.16326
# Shear Modulus (GPa) = 9.11789 16.60876 12.86332
#
# Velocity S-wave (km/s) = 2.44273 3.29684 2.90139
# Velocity P-wave (km/s) = 4.19034 7.13530 5.85113
#
# Compressibility (1/GPa) = 0.06814787
#
# Stress axis : x y z
#
# Youngs Moduli (GPa) = 69.12410 60.43138 11.37841
#
# Poissons Ratio (x) = 0.53087 0.16287
# Poissons Ratio (y) = 0.60723 0.02592
# Poissons Ratio (z) = 0.98944 0.13764
#
# Static dielectric constant tensor:
#      x y z
#    x 3.210830 0.000000 0.000000 
#    y 0.000000 3.147920 0.000000 
#    z 0.000000 0.000000 2.366420 
# 
# 
# High freq. dielectric constant tensor:
#      x y z
#    x 1.589470 0.000000 0.000000 
#    y 0.000000 1.576940 0.000000 
#    z 0.000000 0.000000 1.510230 
# 
# From -- ./inp_files/13633.got.cif
#   From: 2010.06.25/outbox.cif.g09.slc.cpg/sg71_7_cif.got.tgz:13633.got - 2010.06.28 04:59:45.
