data_PCOD8292271
_publ_section_title
;
Structure prediction by ZEFSAII (Michael W. Deem and Ramdas Pophale) SiO2 
 PCOD8292271
Probable space group: I M M M
;
_chemical_formula_sum "Si O2"
_cell_formula_units_Z 96
_cell_length_a 31.902085
_cell_length_b 14.138737
_cell_length_c 13.660484
_cell_angle_alpha 90.000000
_cell_angle_beta 90.000000
_cell_angle_gamma 90.000000
_cell_volume 6161.632200
_symmetry_space_group_name_H-M "I M M M"
_symmetry_group_IT_number 71
_symmetry_cell_setting 'orthorhombic'
loop_
_space_group_symop_operation_xyz
x,y,z
-x,-y,z
x,-y,-z
-x,y,-z
-x,-y,-z
x,y,-z
-x,y,z
x,-y,z
1/2+x,1/2+y,1/2+z
1/2-x,1/2-y,1/2+z
1/2+x,1/2-y,1/2-z
1/2-x,1/2+y,1/2-z
1/2-x,1/2-y,1/2-z
1/2+x,1/2+y,1/2-z
1/2-x,1/2+y,1/2+z
1/2+x,1/2-y,1/2+z
loop_
_atom_site_type_symbol
_atom_site_label
_atom_site_fract_x
_atom_site_fract_y
_atom_site_fract_z
Si Si1 0.665935 0.609910 0.299460
Si Si2 0.795678 0.387221 0.199628
Si Si3 0.125267 0.279275 0.116516
Si Si4 0.710330 0.611613 0.107491
Si Si5 0.046296 0.394174 0.116216
Si Si6 0.253628 0.111916 0.107366
O O1 0.654273 0.500000 0.312857
O O2 0.627892 0.672769 0.341112
O O3 0.674331 0.637026 0.185907
O O4 0.706901 0.640424 0.360521
O O5 0.799340 0.500000 0.191386
O O6 0.837661 0.342462 0.159483
O O7 0.755921 0.347527 0.137751
O O8 0.787928 0.354363 0.312725
O O9 0.081469 0.322252 0.155516
O O10 0.127730 0.278864 0.000000
O O11 0.715801 0.500000 0.107533
O O12 0.697525 0.649839 0.000000
O O13 0.055743 0.500000 0.155640
O O14 0.000000 0.361262 0.152050
O O15 0.047491 0.396024 0.000000
O O16 0.255057 0.000000 0.102780
O O17 0.263833 0.155591 0.000000
#
# Coordination Sequence:
#
# PCOD8292271 Si02
#       6
#    16  16  16  16  16  16
#     4   9  18  30  41  56  80 111 147 177 198 231
#     4   9  17  27  39  59  84 106 136 178 214 244
#     4  11  20  27  41  63  83 106 137 171 204 240
#     4   8  14  26  42  57  79 112 142 171 210 246
#     4   8  15  29  47  65  85 107 128 154 197 252
#     4   8  14  26  41  54  77 116 150 173 202 239
#
# _framework density 15.580285999999999
#
# number of rings (size 3 to 8) (size 9 to 14) (size 15 to 20)
#    0.000    3.167    0.000    4.000    0.000    5.333 
#    0.000    2.500    0.000    0.500    0.000    2.333 
#    0.000    2.667    0.000   16.000    0.000    0.667 
#
# Total GULP energy -594810.674800 kJ/mol
# GULP energy per Si atom -12391.889058 kJ/mol
# Density = 1.554483 g / cm^3
# Si number density = 15.580286 Si / 1000 Ang^3
#
#
#
# Elastic Constant Matrix: (Units=GPa)
#
#
# Indices 1 2 3 4 5 6 
#
# 1 100.0106 51.9003 38.7490 0.0000 0.0000 0.0000
# 2 51.9003 66.0552 24.7407 0.0000 0.0000 0.0000
# 3 38.7490 24.7407 107.4374 0.0000 0.0000 0.0000
# 4 0.0000 0.0000 0.0000 14.8663 0.0000 0.0000
# 5 0.0000 0.0000 0.0000 0.0000 13.7151 0.0000
# 6 0.0000 0.0000 0.0000 0.0000 0.0000 24.2548
#
#
#
# Elastic Compliance Matrix: (Units=1/GPa)
#
#
# Indices 1 2 3 4 5 6 
#
# 1 0.018040 -0.012845 -0.003548 0.000000 0.000000 0.000000
# 2 -0.012845 0.025714 -0.001289 0.000000 0.000000 0.000000
# 3 -0.003548 -0.001289 0.010884 0.000000 0.000000 0.000000
# 4 0.000000 0.000000 0.000000 0.067266 0.000000 0.000000
# 5 0.000000 0.000000 0.000000 0.000000 0.072912 0.000000
# 6 0.000000 0.000000 0.000000 0.000000 0.000000 0.041229
#
#
# Mechanical properties :
#
#
# Convention : Reuss Voigt Hill
#
# Bulk Modulus (GPa) = 51.88360 56.03148 53.95754
# Shear Modulus (GPa) = 17.99638 21.10812 19.55225
#
# Velocity S-wave (km/s) = 3.40232 3.68475 3.54635
# Velocity P-wave (km/s) = 6.98624 7.35828 7.17467
#
# Compressibility (1/GPa) = 0.01927391
#
# Stress axis : x y z
#
# Youngs Moduli (GPa) = 55.43382 38.88958 91.87566
#
# Poissons Ratio (x) = 0.49953 0.32601
# Poissons Ratio (y) = 0.71204 0.11840
# Poissons Ratio (z) = 0.19670 0.05012
#
# Static dielectric constant tensor:
#      x y z
#    x 2.822160 0.000000 0.000000 
#    y 0.000000 3.015710 0.000000 
#    z 0.000000 0.000000 3.539960 
# 
# 
# High freq. dielectric constant tensor:
#      x y z
#    x 1.547950 0.000000 0.000000 
#    y 0.000000 1.604170 0.000000 
#    z 0.000000 0.000000 1.588570 
# 
# From -- ./inp_files/35275.got.cif
#   From: 2010.06.25/outbox.cif.g09.slc.cpg/sg71_18_cif.got.tgz:35275.got - 2010.06.28 04:59:45.
