data_PCOD8292691
_publ_section_title
;
Structure prediction by ZEFSAII (Michael W. Deem and Ramdas Pophale) SiO2 
 PCOD8292691
Probable space group: I M M M
;
_chemical_formula_sum "Si O2"
_cell_formula_units_Z 96
_cell_length_a 9.921100
_cell_length_b 23.366783
_cell_length_c 23.690221
_cell_angle_alpha 90.000000
_cell_angle_beta 90.000000
_cell_angle_gamma 90.000000
_cell_volume 5491.966314
_symmetry_space_group_name_H-M "I M M M"
_symmetry_group_IT_number 71
_symmetry_cell_setting 'orthorhombic'
loop_
_space_group_symop_operation_xyz
x,y,z
-x,-y,z
x,-y,-z
-x,y,-z
-x,-y,-z
x,y,-z
-x,y,z
x,-y,z
1/2+x,1/2+y,1/2+z
1/2-x,1/2-y,1/2+z
1/2+x,1/2-y,1/2-z
1/2-x,1/2+y,1/2-z
1/2-x,1/2-y,1/2-z
1/2+x,1/2+y,1/2-z
1/2-x,1/2+y,1/2+z
1/2+x,1/2-y,1/2+z
loop_
_atom_site_type_symbol
_atom_site_label
_atom_site_fract_x
_atom_site_fract_y
_atom_site_fract_z
Si Si1 0.155112 0.065728 0.659961
Si Si2 0.150588 0.432084 0.937569
Si Si3 0.850057 0.063183 0.066935
Si Si4 0.154461 0.338163 0.563592
Si Si5 0.846561 0.721211 0.674289
Si Si6 0.845366 0.166734 0.260184
O O1 0.243340 0.090464 0.608324
O O2 0.185519 0.104027 0.714855
O O3 0.000000 0.071800 0.641410
O O4 0.191330 0.000000 0.674910
O O5 0.155499 0.500000 0.938957
O O6 0.000000 0.411367 0.921094
O O7 0.188867 0.408575 0.000000
O O8 0.741763 0.109189 0.087915
O O9 0.000000 0.080529 0.088126
O O10 0.812701 0.000000 0.090615
O O11 0.848121 0.061121 0.000000
O O12 0.198442 0.319546 0.500000
O O13 0.176541 0.285416 0.606792
O O14 0.000000 0.358594 0.563432
O O15 0.813831 0.786339 0.691204
O O16 0.750184 0.676972 0.706898
O O17 0.000000 0.705257 0.690288
O O18 0.000000 0.171355 0.240034
#
# Coordination Sequence:
#
# PCOD8292691 Si02
#       6
#    16  16  16  16  16  16
#     4   9  17  29  46  69  95 120 149 189 234 276
#     4   8  14  25  41  62  90 124 157 185 218 265
#     4   8  14  25  41  62  89 120 151 180 214 263
#     4   9  17  29  46  68  93 119 148 187 232 273
#     4   9  18  33  51  69  89 117 155 192 225 267
#     4   9  18  33  51  69  90 119 155 192 229 269
#
# _framework density 17.480077999999999
#
# number of rings (size 3 to 8) (size 9 to 14) (size 15 to 20)
#    0.000    3.333    0.000    1.000    0.000    2.000 
#    0.000    5.000    0.000    6.000    0.000    2.333 
#    0.000    0.000    0.000    0.000    0.000    0.000 
#
# Total GULP energy -594880.834591 kJ/mol
# GULP energy per Si atom -12393.350721 kJ/mol
# Density = 1.744029 g / cm^3
# Si number density = 17.480078 Si / 1000 Ang^3
#
#
#
# Elastic Constant Matrix: (Units=GPa)
#
#
# Indices 1 2 3 4 5 6 
#
# 1 69.6389 32.5553 45.0079 0.0000 0.0000 0.0000
# 2 32.5553 59.7702 39.0038 0.0000 0.0000 0.0000
# 3 45.0079 39.0038 86.1756 0.0000 0.0000 0.0000
# 4 0.0000 0.0000 0.0000 20.4783 0.0000 0.0000
# 5 0.0000 0.0000 0.0000 0.0000 27.5807 0.0000
# 6 0.0000 0.0000 0.0000 0.0000 0.0000 21.0195
#
#
#
# Elastic Compliance Matrix: (Units=1/GPa)
#
#
# Indices 1 2 3 4 5 6 
#
# 1 0.023470 -0.006790 -0.009185 0.000000 0.000000 0.000000
# 2 -0.006790 0.025708 -0.008089 0.000000 0.000000 0.000000
# 3 -0.009185 -0.008089 0.020063 0.000000 0.000000 0.000000
# 4 0.000000 0.000000 0.000000 0.048832 0.000000 0.000000
# 5 0.000000 0.000000 0.000000 0.000000 0.036257 0.000000
# 6 0.000000 0.000000 0.000000 0.000000 0.000000 0.047575
#
#
# Mechanical properties :
#
#
# Convention : Reuss Voigt Hill
#
# Bulk Modulus (GPa) = 47.36555 49.85763 48.61159
# Shear Modulus (GPa) = 19.44989 20.41686 19.93338
#
# Velocity S-wave (km/s) = 3.33932 3.42132 3.38057
# Velocity P-wave (km/s) = 6.48257 6.64768 6.56565
#
# Compressibility (1/GPa) = 0.02111239
#
# Stress axis : x y z
#
# Youngs Moduli (GPa) = 42.60712 38.89862 49.84394
#
# Poissons Ratio (x) = 0.26412 0.45781
# Poissons Ratio (y) = 0.28930 0.40320
# Poissons Ratio (z) = 0.39134 0.31466
#
# Static dielectric constant tensor:
#      x y z
#    x 3.438000 0.000000 0.000000 
#    y 0.000000 3.156200 0.000000 
#    z 0.000000 0.000000 3.174170 
# 
# 
# High freq. dielectric constant tensor:
#      x y z
#    x 1.679650 0.000000 0.000000 
#    y 0.000000 1.649200 0.000000 
#    z 0.000000 0.000000 1.657220 
# 
# From -- ./inp_files/43550.got.cif
#   From: 2010.06.25/outbox.cif.g09.slc.cpg/sg71_22_cif.got.tgz:43550.got - 2010.06.28 04:59:45.
