data_PCOD8292842
_publ_section_title
;
Structure prediction by ZEFSAII (Michael W. Deem and Ramdas Pophale) SiO2 
 PCOD8292842
Probable space group: I B A M
;
_chemical_formula_sum "Si O2"
_cell_formula_units_Z 128
_cell_length_a 18.809293
_cell_length_b 27.254638
_cell_length_c 17.955904
_cell_angle_alpha 90.000000
_cell_angle_beta 90.000000
_cell_angle_gamma 90.000000
_cell_volume 9204.923097
_symmetry_space_group_name_H-M "I B A M"
_symmetry_group_IT_number 72
_symmetry_cell_setting 'orthorhombic'
loop_
_space_group_symop_operation_xyz
x,y,z
-x,-y,z
x,-y,1/2-z
-x,y,1/2-z
-x,-y,-z
x,y,-z
-x,y,1/2+z
x,-y,1/2+z
1/2+x,1/2+y,1/2+z
1/2-x,1/2-y,1/2+z
1/2+x,1/2-y,-z
1/2-x,1/2+y,-z
1/2-x,1/2-y,1/2-z
1/2+x,1/2+y,1/2-z
1/2-x,1/2+y,z
1/2+x,1/2-y,z
loop_
_atom_site_type_symbol
_atom_site_label
_atom_site_fract_x
_atom_site_fract_y
_atom_site_fract_z
Si Si1 0.588952 0.904387 0.587326
Si Si2 0.915485 0.497665 0.166415
Si Si3 0.577508 0.251852 0.726934
Si Si4 0.833215 0.682912 0.167643
Si Si5 0.775421 0.773439 0.917037
Si Si6 0.075137 0.402328 0.414944
Si Si7 0.211054 0.802372 0.738081
Si Si8 0.385968 0.205153 0.081827
O O1 0.604138 0.902346 0.500000
O O2 0.614167 0.957238 0.617897
O O3 0.634726 0.863816 0.628491
O O4 0.506990 0.893632 0.606824
O O5 0.885634 0.500000 0.250000
O O6 0.889735 0.445848 0.132838
O O7 0.000000 0.500000 0.164500
O O8 0.500000 0.270336 0.750000
O O9 0.607755 0.208505 0.779531
O O10 0.631262 0.298651 0.728805
O O11 0.566902 0.232287 0.643090
O O12 0.808152 0.720637 0.103482
O O13 0.764819 0.662476 0.216345
O O14 0.795307 0.812650 0.851309
O O15 0.690672 0.769813 0.918170
O O16 0.802788 0.789365 0.000000
O O17 0.080087 0.419281 0.500000
O O18 0.119177 0.352788 0.399308
O O19 0.250000 0.750000 0.750000
O O20 0.421902 0.211332 0.000000
#
# Coordination Sequence:
#
# PCOD8292842 Si02
#       8
#    16  16  16  16  16  16  16  16
#     4  10  19  29  41  57  74 102 136 171 207 237
#     4   9  18  29  40  54  73 100 132 166 206 241
#     4  10  17  27  40  56  76 104 130 170 205 236
#     4  10  17  28  39  58  79  98 133 170 202 240
#     4   9  15  26  41  54  74 100 127 164 201 238
#     4   9  18  29  39  54  78 100 129 174 207 234
#     4   8  15  28  36  53  76  97 128 160 201 237
#     4  10  17  26  40  58  75 100 134 165 207 245
#
# _framework density 13.905602999999999
#
# number of rings (size 3 to 8) (size 9 to 14) (size 15 to 20)
#    0.000    2.875    3.750    1.500    1.750    1.500 
#    0.000    2.500    0.000    0.000    0.000    0.000 
#    0.000    0.000    0.000    0.000    0.000   15.625 
#
# Total GULP energy -792920.072713 kJ/mol
# GULP energy per Si atom -12389.376136 kJ/mol
# Density = 1.387395 g / cm^3
# Si number density = 13.905603 Si / 1000 Ang^3
#
#
#
# Elastic Constant Matrix: (Units=GPa)
#
#
# Indices 1 2 3 4 5 6 
#
# 1 62.7216 23.1293 27.1734 0.0000 0.0000 0.0000
# 2 23.1293 43.8289 32.2589 0.0001 0.0000 0.0000
# 3 27.1734 32.2589 100.2148 0.0002 0.0001 0.0001
# 4 0.0000 0.0001 0.0002 22.4405 0.0000 0.0000
# 5 0.0000 0.0000 0.0001 0.0000 15.9475 0.0000
# 6 0.0000 0.0000 0.0001 0.0000 0.0000 14.5437
#
#
#
# Elastic Compliance Matrix: (Units=1/GPa)
#
#
# Indices 1 2 3 4 5 6 
#
# 1 0.020338 -0.008746 -0.002699 0.000000 0.000000 0.000000
# 2 -0.008746 0.033661 -0.008464 0.000000 0.000000 0.000000
# 3 -0.002699 -0.008464 0.013435 0.000000 0.000000 0.000000
# 4 0.000000 0.000000 0.000000 0.044562 0.000000 0.000000
# 5 0.000000 0.000000 0.000000 0.000000 0.062706 0.000000
# 6 0.000000 0.000000 0.000000 0.000000 0.000000 0.068758
#
#
# Mechanical properties :
#
#
# Convention : Reuss Voigt Hill
#
# Bulk Modulus (GPa) = 36.21144 41.32095 38.76620
# Shear Modulus (GPa) = 17.09495 18.86659 17.98077
#
# Velocity S-wave (km/s) = 3.51002 3.68742 3.59981
# Velocity P-wave (km/s) = 6.52108 6.92165 6.72435
#
# Compressibility (1/GPa) = 0.02761558
#
# Stress axis : x y z
#
# Youngs Moduli (GPa) = 49.16876 29.70795 74.43224
#
# Poissons Ratio (x) = 0.25982 0.20092
# Poissons Ratio (y) = 0.43003 0.62999
# Poissons Ratio (z) = 0.13273 0.25145
#
# Static dielectric constant tensor:
#      x y z
#    x 2.655190 0.000000 0.000000 
#    y 0.000000 2.524750 0.000000 
#    z 0.000000 0.000000 3.216050 
# 
# 
# High freq. dielectric constant tensor:
#      x y z
#    x 1.498370 0.000000 0.000000 
#    y 0.000000 1.486830 0.000000 
#    z 0.000000 0.000000 1.555610 
# 
# From -- ./inp_files/32980.got.cif
#   From: 2010.03.12/outbox.cif.g09.slc.cpg/sg72_17_cif.got.tgz:32980.got - 2010.04.16 14:54:00.
